=
 OpenBabel10272413373D

 32 36  0  0  1  0  0  0  0  0999 V2000
  184.8850  178.7910  146.6610 C   0  0  0  0  0  3  0  0  0  0  0  0
  186.1760  178.4170  147.0290 C   0  0  0  0  0  3  0  0  0  0  0  0
  184.4660  178.6460  145.3380 C   0  0  0  0  0  3  0  0  0  0  0  0
  185.3290  178.1310  144.3620 C   0  0  0  0  0  0  0  0  0  0  0  0
  187.0470  177.8930  146.0730 C   0  0  0  0  0  3  0  0  0  0  0  0
  186.6400  177.7390  144.7380 C   0  0  0  0  0  0  0  0  0  0  0  0
  188.8220  177.4810  141.7440 C   0  0  2  0  0  3  0  0  0  0  0  0
  190.1210  177.9050  142.4360 C   0  0  2  0  0  3  0  0  0  0  0  0
  191.4370  177.4710  144.3000 C   0  0  2  0  0  3  0  0  0  0  0  0
  187.6010  177.1180  143.7680 C   0  0  2  0  0  3  0  0  0  0  0  0
  191.8980  176.6190  143.2160 N   0  0  0  0  0  2  0  0  0  0  0  0
  191.2210  177.0240  142.0470 N   0  0  0  0  0  2  0  0  0  0  0  0
  188.9730  176.8700  144.4250 C   0  0  0  0  0  2  0  0  0  0  0  0
  188.7480  178.0990  140.3620 C   0  0  0  0  0  1  0  0  0  0  0  0
  191.5870  176.7740  145.6450 C   0  0  0  0  0  1  0  0  0  0  0  0
  187.6740  177.9140  142.5360 N   0  0  0  0  0  2  0  0  0  0  0  0
  190.0290  177.8850  143.9520 C   0  0  2  0  0  3  0  0  0  0  0  0
  184.8120  178.0200  143.0260 N   0  0  0  0  0  2  0  0  0  0  0  0
  182.6150  178.4910  137.9070 C   0  0  0  0  0  2  0  0  0  0  0  0
  182.6120  178.5190  140.6740 C   0  0  2  0  0  3  0  0  0  0  0  0
  184.8120  179.1840  140.9400 N   0  0  0  0  0  2  0  0  0  0  0  0
  183.9420  178.8330  138.6310 C   0  0  0  0  0  2  0  0  0  0  0  0
  184.1720  179.0770  142.2560 C   0  0  1  0  0  3  0  0  0  0  0  0
  181.3500  179.1150  138.5520 C   0  0  1  0  0  3  0  0  0  0  0  0
  183.6870  179.3290  140.0480 C   0  0  1  0  0  3  0  0  0  0  0  0
  181.2680  178.9370  140.0880 C   0  0  0  0  0  2  0  0  0  0  0  0
  182.7420  178.7760  142.0880 N   0  0  0  0  0  2  0  0  0  0  0  0
  181.2330  180.8790  138.1310 S   0  0  0  0  0  0  0  0  0  0  0  0
  180.7720  180.5100  136.4160 C   0  0  0  0  0  2  0  0  0  0  0  0
  180.5740  181.8090  135.6610 C   0  0  0  0  0  2  0  0  0  0  0  0
  181.0240  184.1940  135.8350 N   0  0  0  0  0  1  0  0  0  0  0  0
  180.7350  182.9910  136.5980 C   0  0  0  0  0  2  0  0  0  0  0  0
  1  2  1  0  0  0  0
  3  1  2  0  0  0  0
  4  6  2  0  0  0  0
  4  3  1  0  0  0  0
  5  2  2  0  0  0  0
  6  5  1  0  0  0  0
  7 14  1  6  0  0  0
  7  8  1  0  0  0  0
  7 16  1  0  0  0  0
  8 12  1  1  0  0  0
  8 17  1  0  0  0  0
  9 15  1  1  0  0  0
 10 13  1  0  0  0  0
 10  6  1  1  0  0  0
 11  9  1  0  0  0  0
 12 11  1  0  0  0  0
 16 10  1  0  0  0  0
 17  9  1  0  0  0  0
 17 13  1  6  0  0  0
 18  4  1  0  0  0  0
 19 24  1  0  0  0  0
 19 22  1  0  0  0  0
 20 26  1  6  0  0  0
 20 27  1  0  0  0  0
 21 23  1  0  0  0  0
 23 18  1  1  0  0  0
 24 28  1  1  0  0  0
 24 26  1  0  0  0  0
 25 22  1  6  0  0  0
 25 20  1  0  0  0  0
 25 21  1  0  0  0  0
 27 23  1  0  0  0  0
 29 28  1  0  0  0  0
 30 29  1  0  0  0  0
 30 32  1  0  0  0  0
 31 32  1  0  0  0  0
M  END
>  <MODEL>
1

>  <REMARK>
 VINA RESULT:      -8.9      0.000      0.000
  Name = 
  7 active torsions:
  status: ('A' for Active; 'I' for Inactive)
    1  A    between atoms: N_3  and  C_14
    2  A    between atoms: N_3  and  C_15
    3  A    between atoms: C_10  and  C_20
    4  A    between atoms: C_10  and  S_24
    5  A    between atoms: C_16  and  C_26
    6  A    between atoms: C_17  and  C_20
    7  A    between atoms: C_19  and  S_24
                            x       y       z     vdW  Elec       q    Type
                         _______ _______ _______ _____ _____    ______ ____

>  <TORSDO>
F 7

$$$$
=
 OpenBabel10272413373D

 32 36  0  0  1  0  0  0  0  0999 V2000
  184.2020  179.0090  145.6380 C   0  0  0  0  0  3  0  0  0  0  0  0
  185.2550  178.5680  146.4370 C   0  0  0  0  0  3  0  0  0  0  0  0
  184.2460  178.8170  144.2560 C   0  0  0  0  0  3  0  0  0  0  0  0
  185.3400  178.1880  143.6510 C   0  0  0  0  0  0  0  0  0  0  0  0
  186.3500  177.9300  145.8540 C   0  0  0  0  0  3  0  0  0  0  0  0
  186.4090  177.7280  144.4660 C   0  0  0  0  0  0  0  0  0  0  0  0
  189.3750  177.1010  142.3210 C   0  0  2  0  0  3  0  0  0  0  0  0
  190.4250  177.5780  143.3310 C   0  0  2  0  0  3  0  0  0  0  0  0
  191.0950  177.3320  145.5410 C   0  0  2  0  0  3  0  0  0  0  0  0
  187.5850  176.9870  143.9030 C   0  0  2  0  0  3  0  0  0  0  0  0
  191.8170  176.3560  144.7420 N   0  0  0  0  0  2  0  0  0  0  0  0
  191.5460  176.6400  143.3860 N   0  0  0  0  0  2  0  0  0  0  0  0
  188.6810  176.7900  144.9680 C   0  0  0  0  0  2  0  0  0  0  0  0
  189.7520  177.5630  140.9280 C   0  0  0  0  0  1  0  0  0  0  0  0
  190.7970  176.7860  146.9300 C   0  0  0  0  0  1  0  0  0  0  0  0
  188.0650  177.6390  142.6770 N   0  0  0  0  0  2  0  0  0  0  0  0
  189.8790  177.7280  144.7400 C   0  0  2  0  0  3  0  0  0  0  0  0
  185.3000  178.0370  142.2230 N   0  0  0  0  0  2  0  0  0  0  0  0
  183.4020  177.2490  137.0250 C   0  0  0  0  0  2  0  0  0  0  0  0
  183.2080  177.6090  139.7610 C   0  0  2  0  0  3  0  0  0  0  0  0
  185.1180  178.8920  140.0000 N   0  0  0  0  0  2  0  0  0  0  0  0
  184.5330  178.0340  137.7350 C   0  0  0  0  0  2  0  0  0  0  0  0
  184.4460  178.7690  141.2990 C   0  0  1  0  0  3  0  0  0  0  0  0
  181.9740  177.5660  137.5420 C   0  0  1  0  0  3  0  0  0  0  0  0
  184.0590  178.6070  139.0640 C   0  0  1  0  0  3  0  0  0  0  0  0
  181.8430  177.5590  139.0840 C   0  0  0  0  0  2  0  0  0  0  0  0
  183.1680  178.0610  141.1310 N   0  0  0  0  0  2  0  0  0  0  0  0
  181.4060  179.1620  136.8840 S   0  0  0  0  0  0  0  0  0  0  0  0
  180.5190  179.5560  138.4170 C   0  0  0  0  0  2  0  0  0  0  0  0
  180.7090  181.0240  138.7400 C   0  0  0  0  0  2  0  0  0  0  0  0
  181.2500  183.1640  137.7170 N   0  0  0  0  0  1  0  0  0  0  0  0
  180.6800  181.8510  137.4690 C   0  0  0  0  0  2  0  0  0  0  0  0
  1  2  1  0  0  0  0
  3  1  2  0  0  0  0
  4  3  1  0  0  0  0
  4  6  2  0  0  0  0
  5  2  2  0  0  0  0
  6  5  1  0  0  0  0
  7 14  1  6  0  0  0
  7 16  1  0  0  0  0
  7  8  1  0  0  0  0
  8 12  1  1  0  0  0
  8 17  1  0  0  0  0
  9 15  1  1  0  0  0
 10  6  1  1  0  0  0
 10 13  1  0  0  0  0
 11  9  1  0  0  0  0
 12 11  1  0  0  0  0
 16 10  1  0  0  0  0
 17 13  1  6  0  0  0
 17  9  1  0  0  0  0
 18  4  1  0  0  0  0
 19 24  1  0  0  0  0
 19 22  1  0  0  0  0
 20 26  1  6  0  0  0
 20 27  1  0  0  0  0
 21 23  1  0  0  0  0
 23 18  1  1  0  0  0
 24 28  1  1  0  0  0
 24 26  1  0  0  0  0
 25 22  1  6  0  0  0
 25 20  1  0  0  0  0
 25 21  1  0  0  0  0
 27 23  1  0  0  0  0
 28 29  1  0  0  0  0
 29 30  1  0  0  0  0
 32 31  1  0  0  0  0
 32 30  1  0  0  0  0
M  END
>  <MODEL>
2

>  <REMARK>
 VINA RESULT:      -8.4      1.183      1.422
  Name = 
  7 active torsions:
  status: ('A' for Active; 'I' for Inactive)
    1  A    between atoms: N_3  and  C_14
    2  A    between atoms: N_3  and  C_15
    3  A    between atoms: C_10  and  C_20
    4  A    between atoms: C_10  and  S_24
    5  A    between atoms: C_16  and  C_26
    6  A    between atoms: C_17  and  C_20
    7  A    between atoms: C_19  and  S_24
                            x       y       z     vdW  Elec       q    Type
                         _______ _______ _______ _____ _____    ______ ____

>  <TORSDO>
F 7

$$$$
=
 OpenBabel10272413373D

 32 36  0  0  1  0  0  0  0  0999 V2000
  184.5860  179.1270  142.2620 C   0  0  0  0  0  3  0  0  0  0  0  0
  184.7080  178.5230  143.5120 C   0  0  0  0  0  3  0  0  0  0  0  0
  185.6720  179.1420  141.3850 C   0  0  0  0  0  3  0  0  0  0  0  0
  186.8940  178.5610  141.7420 C   0  0  0  0  0  0  0  0  0  0  0  0
  185.9150  177.9300  143.8820 C   0  0  0  0  0  3  0  0  0  0  0  0
  187.0160  177.9350  143.0110 C   0  0  0  0  0  0  0  0  0  0  0  0
  190.6460  177.4390  143.6220 C   0  0  2  0  0  3  0  0  0  0  0  0
  190.6380  177.8820  145.0890 C   0  0  2  0  0  3  0  0  0  0  0  0
  189.5370  177.5450  147.1060 C   0  0  2  0  0  3  0  0  0  0  0  0
  188.2700  177.2340  143.4430 C   0  0  2  0  0  3  0  0  0  0  0  0
  190.6520  176.6150  147.0420 N   0  0  0  0  0  2  0  0  0  0  0  0
  191.4190  176.9560  145.9080 N   0  0  0  0  0  2  0  0  0  0  0  0
  188.2820  177.0020  144.9660 C   0  0  0  0  0  2  0  0  0  0  0  0
  191.8860  177.9680  142.9300 C   0  0  0  0  0  1  0  0  0  0  0  0
  188.3580  176.9340  147.8500 C   0  0  0  0  0  1  0  0  0  0  0  0
  189.4540  177.9460  142.9460 N   0  0  0  0  0  2  0  0  0  0  0  0
  189.2440  177.9630  145.6860 C   0  0  2  0  0  3  0  0  0  0  0  0
  187.9570  178.6270  140.7770 N   0  0  0  0  0  2  0  0  0  0  0  0
  187.2650  178.0210  135.2630 C   0  0  0  0  0  2  0  0  0  0  0  0
  188.6900  178.2530  137.6230 C   0  0  2  0  0  3  0  0  0  0  0  0
  187.0970  177.2870  138.9960 N   0  0  0  0  0  2  0  0  0  0  0  0
  186.5820  177.5500  136.5720 C   0  0  0  0  0  2  0  0  0  0  0  0
  188.2900  177.6140  139.7860 C   0  0  1  0  0  3  0  0  0  0  0  0
  188.7690  177.6600  135.1560 C   0  0  1  0  0  3  0  0  0  0  0  0
  187.6110  177.2320  137.6500 C   0  0  1  0  0  3  0  0  0  0  0  0
  189.5930  177.9910  136.4240 C   0  0  0  0  0  2  0  0  0  0  0  0
  189.3510  178.1120  138.8990 N   0  0  0  0  0  2  0  0  0  0  0  0
  188.9680  175.9030  134.7360 S   0  0  0  0  0  0  0  0  0  0  0  0
  190.6910  175.8910  135.3030 C   0  0  0  0  0  2  0  0  0  0  0  0
  191.0560  174.4930  135.7600 C   0  0  0  0  0  2  0  0  0  0  0  0
  190.6930  174.9340  138.1250 N   0  0  0  0  0  1  0  0  0  0  0  0
  190.2650  174.1210  136.9990 C   0  0  0  0  0  2  0  0  0  0  0  0
  1  2  1  0  0  0  0
  2  5  2  0  0  0  0
  3  4  1  0  0  0  0
  3  1  2  0  0  0  0
  4  6  2  0  0  0  0
  6  5  1  0  0  0  0
  7 14  1  6  0  0  0
  7  8  1  0  0  0  0
  8 17  1  0  0  0  0
  8 12  1  1  0  0  0
  9 15  1  6  0  0  0
 10  6  1  1  0  0  0
 10 13  1  0  0  0  0
 11  9  1  0  0  0  0
 12 11  1  0  0  0  0
 16 10  1  0  0  0  0
 16  7  1  0  0  0  0
 17 13  1  6  0  0  0
 17  9  1  0  0  0  0
 18  4  1  0  0  0  0
 19 22  1  0  0  0  0
 20 26  1  6  0  0  0
 20 25  1  0  0  0  0
 20 27  1  0  0  0  0
 21 23  1  0  0  0  0
 23 18  1  1  0  0  0
 24 28  1  1  0  0  0
 24 19  1  0  0  0  0
 24 26  1  0  0  0  0
 25 22  1  6  0  0  0
 25 21  1  0  0  0  0
 27 23  1  0  0  0  0
 28 29  1  0  0  0  0
 29 30  1  0  0  0  0
 30 32  1  0  0  0  0
 32 31  1  0  0  0  0
M  END
>  <MODEL>
3

>  <REMARK>
 VINA RESULT:      -8.0      4.107      6.312
  Name = 
  7 active torsions:
  status: ('A' for Active; 'I' for Inactive)
    1  A    between atoms: N_3  and  C_14
    2  A    between atoms: N_3  and  C_15
    3  A    between atoms: C_10  and  C_20
    4  A    between atoms: C_10  and  S_24
    5  A    between atoms: C_16  and  C_26
    6  A    between atoms: C_17  and  C_20
    7  A    between atoms: C_19  and  S_24
                            x       y       z     vdW  Elec       q    Type
                         _______ _______ _______ _____ _____    ______ ____

>  <TORSDO>
F 7

$$$$
=
 OpenBabel10272413373D

 32 36  0  0  1  0  0  0  0  0999 V2000
  184.4850  178.7960  146.2190 C   0  0  0  0  0  3  0  0  0  0  0  0
  185.5920  178.0850  146.6770 C   0  0  0  0  0  3  0  0  0  0  0  0
  184.3150  179.0180  144.8510 C   0  0  0  0  0  3  0  0  0  0  0  0
  185.2480  178.5410  143.9230 C   0  0  0  0  0  0  0  0  0  0  0  0
  186.5280  177.5930  145.7670 C   0  0  0  0  0  3  0  0  0  0  0  0
  186.3710  177.8070  144.3880 C   0  0  0  0  0  0  0  0  0  0  0  0
  188.7170  177.6200  141.5150 C   0  0  2  0  0  3  0  0  0  0  0  0
  189.9790  178.0070  142.2940 C   0  0  2  0  0  3  0  0  0  0  0  0
  191.1820  177.4990  144.2140 C   0  0  2  0  0  3  0  0  0  0  0  0
  187.3800  177.2070  143.4540 C   0  0  2  0  0  3  0  0  0  0  0  0
  191.6960  176.6760  143.1310 N   0  0  0  0  0  2  0  0  0  0  0  0
  191.0910  177.1260  141.9390 N   0  0  0  0  0  2  0  0  0  0  0  0
  188.7090  176.9220  144.1790 C   0  0  0  0  0  2  0  0  0  0  0  0
  188.7280  178.2820  140.1520 C   0  0  0  0  0  1  0  0  0  0  0  0
  191.2480  176.7580  145.5420 C   0  0  0  0  0  1  0  0  0  0  0  0
  187.5300  178.0400  142.2540 N   0  0  0  0  0  2  0  0  0  0  0  0
  189.8000  177.9400  143.8000 C   0  0  2  0  0  3  0  0  0  0  0  0
  184.9930  178.8210  142.5370 N   0  0  0  0  0  2  0  0  0  0  0  0
  180.6780  180.1340  139.2340 C   0  0  0  0  0  2  0  0  0  0  0  0
  183.1950  179.1580  139.8390 C   0  0  2  0  0  3  0  0  0  0  0  0
  182.7000  178.4440  141.9830 N   0  0  0  0  0  2  0  0  0  0  0  0
  180.9130  179.5660  140.6570 C   0  0  0  0  0  2  0  0  0  0  0  0
  184.0880  178.0920  141.6600 C   0  0  1  0  0  3  0  0  0  0  0  0
  181.3550  179.3250  138.0970 C   0  0  1  0  0  3  0  0  0  0  0  0
  182.1010  178.6120  140.6820 C   0  0  1  0  0  3  0  0  0  0  0  0
  182.8360  178.9650  138.3710 C   0  0  0  0  0  2  0  0  0  0  0  0
  184.3710  178.4310  140.2570 N   0  0  0  0  0  2  0  0  0  0  0  0
  180.4090  177.8130  137.7500 S   0  0  0  0  0  0  0  0  0  0  0  0
  181.8800  176.9530  137.1270 C   0  0  0  0  0  2  0  0  0  0  0  0
  181.9820  175.5940  137.7890 C   0  0  0  0  0  2  0  0  0  0  0  0
  183.7760  173.9660  137.5610 N   0  0  0  0  0  1  0  0  0  0  0  0
  183.4300  175.2690  138.1030 C   0  0  0  0  0  2  0  0  0  0  0  0
  1  2  1  0  0  0  0
  3  1  2  0  0  0  0
  4  6  2  0  0  0  0
  4  3  1  0  0  0  0
  5  2  2  0  0  0  0
  6  5  1  0  0  0  0
  7 14  1  6  0  0  0
  7 16  1  0  0  0  0
  7  8  1  0  0  0  0
  8 12  1  6  0  0  0
  8 17  1  0  0  0  0
  9 15  1  1  0  0  0
 10 13  1  0  0  0  0
 10  6  1  1  0  0  0
 11  9  1  0  0  0  0
 12 11  1  0  0  0  0
 16 10  1  0  0  0  0
 17 13  1  6  0  0  0
 17  9  1  0  0  0  0
 18  4  1  0  0  0  0
 19 22  1  0  0  0  0
 20 26  1  6  0  0  0
 20 27  1  0  0  0  0
 20 25  1  0  0  0  0
 23 21  1  0  0  0  0
 23 18  1  1  0  0  0
 24 28  1  1  0  0  0
 24 26  1  0  0  0  0
 24 19  1  0  0  0  0
 25 22  1  1  0  0  0
 25 21  1  0  0  0  0
 27 23  1  0  0  0  0
 29 28  1  0  0  0  0
 29 30  1  0  0  0  0
 30 32  1  0  0  0  0
 31 32  1  0  0  0  0
M  END
>  <MODEL>
4

>  <REMARK>
 VINA RESULT:      -8.0      1.912      3.084
  Name = 
  7 active torsions:
  status: ('A' for Active; 'I' for Inactive)
    1  A    between atoms: N_3  and  C_14
    2  A    between atoms: N_3  and  C_15
    3  A    between atoms: C_10  and  C_20
    4  A    between atoms: C_10  and  S_24
    5  A    between atoms: C_16  and  C_26
    6  A    between atoms: C_17  and  C_20
    7  A    between atoms: C_19  and  S_24
                            x       y       z     vdW  Elec       q    Type
                         _______ _______ _______ _____ _____    ______ ____

>  <TORSDO>
F 7

$$$$
=
 OpenBabel10272413373D

 32 36  0  0  1  0  0  0  0  0999 V2000
  182.2660  178.8780  143.8950 C   0  0  0  0  0  3  0  0  0  0  0  0
  181.0820  178.8310  143.1630 C   0  0  0  0  0  3  0  0  0  0  0  0
  183.4960  178.7910  143.2410 C   0  0  0  0  0  3  0  0  0  0  0  0
  183.5630  178.6510  141.8500 C   0  0  0  0  0  0  0  0  0  0  0  0
  181.1280  178.7020  141.7750 C   0  0  0  0  0  3  0  0  0  0  0  0
  182.3570  178.6150  141.1010 C   0  0  0  0  0  0  0  0  0  0  0  0
  181.2110  177.5900  137.7200 C   0  0  2  0  0  3  0  0  0  0  0  0
  180.3360  178.8200  137.4510 C   0  0  2  0  0  3  0  0  0  0  0  0
  180.3610  181.1410  137.5080 C   0  0  2  0  0  3  0  0  0  0  0  0
  182.3440  178.5340  139.6030 C   0  0  2  0  0  3  0  0  0  0  0  0
  180.7650  180.7200  136.1770 N   0  0  0  0  0  2  0  0  0  0  0  0
  180.5640  179.3260  136.0990 N   0  0  0  0  0  2  0  0  0  0  0  0
  182.0250  179.9030  138.9740 C   0  0  0  0  0  2  0  0  0  0  0  0
  180.5220  176.3440  137.2020 C   0  0  0  0  0  1  0  0  0  0  0  0
  181.0800  182.4180  137.9190 C   0  0  0  0  0  1  0  0  0  0  0  0
  181.4510  177.4570  139.1550 N   0  0  0  0  0  2  0  0  0  0  0  0
  180.5900  179.9610  138.4200 C   0  0  2  0  0  3  0  0  0  0  0  0
  184.8710  178.5670  141.2630 N   0  0  0  0  0  2  0  0  0  0  0  0
  189.4370  175.8290  142.9710 C   0  0  0  0  0  2  0  0  0  0  0  0
  187.9960  177.6650  141.4850 C   0  0  2  0  0  3  0  0  0  0  0  0
  186.3560  178.0660  143.0670 N   0  0  0  0  0  2  0  0  0  0  0  0
  188.1320  176.3960  143.5850 C   0  0  0  0  0  2  0  0  0  0  0  0
  186.1300  178.9270  141.9000 C   0  0  1  0  0  3  0  0  0  0  0  0
  190.2960  176.8720  142.2100 C   0  0  1  0  0  3  0  0  0  0  0  0
  187.7530  177.7270  142.9480 C   0  0  1  0  0  3  0  0  0  0  0  0
  189.4950  177.7570  141.2250 C   0  0  0  0  0  2  0  0  0  0  0  0
  187.2370  178.7680  140.9450 N   0  0  0  0  0  2  0  0  0  0  0  0
  191.1980  177.9240  143.3870 S   0  0  0  0  0  0  0  0  0  0  0  0
  191.6060  176.5090  144.4450 C   0  0  0  0  0  2  0  0  0  0  0  0
  191.3110  176.8640  145.8890 C   0  0  0  0  0  2  0  0  0  0  0  0
  192.3510  176.5360  148.0640 N   0  0  0  0  0  1  0  0  0  0  0  0
  191.9860  175.8760  146.8220 C   0  0  0  0  0  2  0  0  0  0  0  0
  2  1  2  0  0  0  0
  3  1  1  0  0  0  0
  4  3  2  0  0  0  0
  5  2  1  0  0  0  0
  6  5  2  0  0  0  0
  6  4  1  0  0  0  0
  7 14  1  1  0  0  0
  7 16  1  0  0  0  0
  8 12  1  6  0  0  0
  8  7  1  0  0  0  0
  8 17  1  0  0  0  0
  9 15  1  1  0  0  0
  9 17  1  0  0  0  0
 10  6  1  1  0  0  0
 11  9  1  0  0  0  0
 12 11  1  0  0  0  0
 13 10  1  0  0  0  0
 16 10  1  0  0  0  0
 17 13  1  6  0  0  0
 18  4  1  0  0  0  0
 19 22  1  0  0  0  0
 20 26  1  1  0  0  0
 20 25  1  0  0  0  0
 23 18  1  6  0  0  0
 23 21  1  0  0  0  0
 24 19  1  0  0  0  0
 24 28  1  1  0  0  0
 25 21  1  0  0  0  0
 25 22  1  1  0  0  0
 26 24  1  0  0  0  0
 27 20  1  0  0  0  0
 27 23  1  0  0  0  0
 28 29  1  0  0  0  0
 29 30  1  0  0  0  0
 30 32  1  0  0  0  0
 32 31  1  0  0  0  0
M  END
>  <MODEL>
5

>  <REMARK>
 VINA RESULT:      -7.7      3.017      9.775
  Name = 
  7 active torsions:
  status: ('A' for Active; 'I' for Inactive)
    1  A    between atoms: N_3  and  C_14
    2  A    between atoms: N_3  and  C_15
    3  A    between atoms: C_10  and  C_20
    4  A    between atoms: C_10  and  S_24
    5  A    between atoms: C_16  and  C_26
    6  A    between atoms: C_17  and  C_20
    7  A    between atoms: C_19  and  S_24
                            x       y       z     vdW  Elec       q    Type
                         _______ _______ _______ _____ _____    ______ ____

>  <TORSDO>
F 7

$$$$
=
 OpenBabel10272413373D

 32 36  0  0  1  0  0  0  0  0999 V2000
  189.0350  175.9740  136.1260 C   0  0  0  0  0  3  0  0  0  0  0  0
  190.0500  175.3960  135.3670 C   0  0  0  0  0  3  0  0  0  0  0  0
  189.3160  176.4870  137.3930 C   0  0  0  0  0  3  0  0  0  0  0  0
  190.6110  176.4270  137.9230 C   0  0  0  0  0  0  0  0  0  0  0  0
  191.3490  175.3350  135.8740 C   0  0  0  0  0  3  0  0  0  0  0  0
  191.6490  175.8480  137.1460 C   0  0  0  0  0  0  0  0  0  0  0  0
  194.9550  174.3730  137.9740 C   0  0  2  0  0  3  0  0  0  0  0  0
  195.6260  174.6820  136.6310 C   0  0  2  0  0  3  0  0  0  0  0  0
  195.9870  176.3980  135.1080 C   0  0  2  0  0  3  0  0  0  0  0  0
  193.0730  175.8050  137.6140 C   0  0  2  0  0  3  0  0  0  0  0  0
  197.0990  176.3860  136.0440 N   0  0  0  0  0  2  0  0  0  0  0  0
  196.9650  175.2300  136.8410 N   0  0  0  0  0  2  0  0  0  0  0  0
  193.9940  176.6000  136.6700 C   0  0  0  0  0  2  0  0  0  0  0  0
  195.3760  173.0000  138.4570 C   0  0  0  0  0  1  0  0  0  0  0  0
  195.6670  177.8160  134.6570 C   0  0  0  0  0  1  0  0  0  0  0  0
  193.5030  174.4160  137.8240 N   0  0  0  0  0  2  0  0  0  0  0  0
  194.8490  175.6750  135.7850 C   0  0  2  0  0  3  0  0  0  0  0  0
  190.8060  176.9770  139.2360 N   0  0  0  0  0  2  0  0  0  0  0  0
  191.5000  177.3080  144.7730 C   0  0  0  0  0  2  0  0  0  0  0  0
  190.3700  177.9250  142.3240 C   0  0  2  0  0  3  0  0  0  0  0  0
  190.7050  175.8560  141.3430 N   0  0  0  0  0  2  0  0  0  0  0  0
  191.5240  176.2210  143.6690 C   0  0  0  0  0  2  0  0  0  0  0  0
  189.9820  176.7280  140.4100 C   0  0  1  0  0  3  0  0  0  0  0  0
  190.1800  178.1200  144.8490 C   0  0  1  0  0  3  0  0  0  0  0  0
  190.4470  176.4720  142.6220 C   0  0  1  0  0  3  0  0  0  0  0  0
  189.6730  178.6340  143.4790 C   0  0  0  0  0  2  0  0  0  0  0  0
  189.6570  178.0010  141.0720 N   0  0  0  0  0  2  0  0  0  0  0  0
  188.8810  177.1380  145.6550 S   0  0  0  0  0  0  0  0  0  0  0  0
  187.5650  178.0920  144.8500 C   0  0  0  0  0  2  0  0  0  0  0  0
  186.3290  178.0770  145.7280 C   0  0  0  0  0  2  0  0  0  0  0  0
  184.0630  178.9510  145.8610 N   0  0  0  0  0  1  0  0  0  0  0  0
  185.1230  178.5630  144.9470 C   0  0  0  0  0  2  0  0  0  0  0  0
  1  3  1  0  0  0  0
  2  5  1  0  0  0  0
  2  1  2  0  0  0  0
  3  4  2  0  0  0  0
  4 18  1  0  0  0  0
  5  6  2  0  0  0  0
  6  4  1  0  0  0  0
  7 14  1  6  0  0  0
  8 12  1  1  0  0  0
  8  7  1  0  0  0  0
  9 15  1  1  0  0  0
  9 17  1  0  0  0  0
  9 11  1  0  0  0  0
 10  6  1  6  0  0  0
 10 16  1  0  0  0  0
 11 12  1  0  0  0  0
 13 10  1  0  0  0  0
 16  7  1  0  0  0  0
 17  8  1  0  0  0  0
 17 13  1  1  0  0  0
 19 24  1  0  0  0  0
 20 25  1  0  0  0  0
 20 26  1  1  0  0  0
 21 25  1  0  0  0  0
 22 19  1  0  0  0  0
 23 18  1  6  0  0  0
 23 27  1  0  0  0  0
 23 21  1  0  0  0  0
 24 28  1  6  0  0  0
 25 22  1  1  0  0  0
 26 24  1  0  0  0  0
 27 20  1  0  0  0  0
 29 28  1  0  0  0  0
 29 30  1  0  0  0  0
 32 30  1  0  0  0  0
 32 31  1  0  0  0  0
M  END
>  <MODEL>
6

>  <REMARK>
 VINA RESULT:      -7.6      5.496      9.629
  Name = 
  7 active torsions:
  status: ('A' for Active; 'I' for Inactive)
    1  A    between atoms: N_3  and  C_14
    2  A    between atoms: N_3  and  C_15
    3  A    between atoms: C_10  and  C_20
    4  A    between atoms: C_10  and  S_24
    5  A    between atoms: C_16  and  C_26
    6  A    between atoms: C_17  and  C_20
    7  A    between atoms: C_19  and  S_24
                            x       y       z     vdW  Elec       q    Type
                         _______ _______ _______ _____ _____    ______ ____

>  <TORSDO>
F 7

$$$$
=
 OpenBabel10272413373D

 32 36  0  0  1  0  0  0  0  0999 V2000
  189.1190  177.0470  138.1330 C   0  0  0  0  0  3  0  0  0  0  0  0
  190.0100  176.8700  139.1900 C   0  0  0  0  0  3  0  0  0  0  0  0
  187.8890  177.6670  138.3520 C   0  0  0  0  0  3  0  0  0  0  0  0
  187.5260  178.1150  139.6280 C   0  0  0  0  0  0  0  0  0  0  0  0
  189.6710  177.3190  140.4670 C   0  0  0  0  0  3  0  0  0  0  0  0
  188.4370  177.9460  140.7040 C   0  0  0  0  0  0  0  0  0  0  0  0
  186.6950  178.2460  143.9700 C   0  0  2  0  0  3  0  0  0  0  0  0
  187.6010  177.2800  144.7410 C   0  0  2  0  0  3  0  0  0  0  0  0
  189.8320  176.8060  145.1790 C   0  0  2  0  0  3  0  0  0  0  0  0
  188.1520  178.4570  142.0850 C   0  0  2  0  0  3  0  0  0  0  0  0
  189.3550  177.7130  146.2100 N   0  0  0  0  0  2  0  0  0  0  0  0
  187.9600  177.8420  146.0420 N   0  0  0  0  0  2  0  0  0  0  0  0
  189.2890  178.0940  143.0590 C   0  0  0  0  0  2  0  0  0  0  0  0
  185.2520  178.0440  144.3880 C   0  0  0  0  0  1  0  0  0  0  0  0
  191.2970  177.0660  144.8590 C   0  0  0  0  0  1  0  0  0  0  0  0
  186.8270  178.0100  142.5350 N   0  0  0  0  0  2  0  0  0  0  0  0
  188.8900  176.9520  144.0100 C   0  0  2  0  0  3  0  0  0  0  0  0
  186.2380  178.7380  139.7610 N   0  0  0  0  0  2  0  0  0  0  0  0
  180.7140  178.1650  139.1250 C   0  0  0  0  0  2  0  0  0  0  0  0
  183.1210  179.5260  139.2290 C   0  0  2  0  0  3  0  0  0  0  0  0
  184.4500  177.7800  138.4990 N   0  0  0  0  0  2  0  0  0  0  0  0
  182.0050  177.3850  138.7700 C   0  0  0  0  0  2  0  0  0  0  0  0
  185.2780  178.9760  138.6920 C   0  0  1  0  0  3  0  0  0  0  0  0
  180.6680  179.6160  138.5780 C   0  0  1  0  0  3  0  0  0  0  0  0
  183.1250  178.3280  138.3510 C   0  0  1  0  0  3  0  0  0  0  0  0
  181.9600  180.4300  138.8320 C   0  0  0  0  0  2  0  0  0  0  0  0
  184.4210  180.1210  139.0360 N   0  0  0  0  0  2  0  0  0  0  0  0
  180.2860  179.6080  136.8010 S   0  0  0  0  0  0  0  0  0  0  0  0
  180.7320  181.3570  136.6270 C   0  0  0  0  0  2  0  0  0  0  0  0
  180.5190  181.7870  135.1890 C   0  0  0  0  0  2  0  0  0  0  0  0
  181.1020  184.0400  135.8960 N   0  0  0  0  0  1  0  0  0  0  0  0
  180.1500  183.2570  135.1280 C   0  0  0  0  0  2  0  0  0  0  0  0
  1  3  2  0  0  0  0
  1  2  1  0  0  0  0
  2  5  2  0  0  0  0
  3  4  1  0  0  0  0
  4 18  1  0  0  0  0
  4  6  2  0  0  0  0
  5  6  1  0  0  0  0
  7 14  1  1  0  0  0
  7  8  1  0  0  0  0
  8 12  1  1  0  0  0
  9 15  1  6  0  0  0
  9 11  1  0  0  0  0
 10  6  1  6  0  0  0
 10 16  1  0  0  0  0
 10 13  1  0  0  0  0
 12 11  1  0  0  0  0
 16  7  1  0  0  0  0
 17 13  1  6  0  0  0
 17  8  1  0  0  0  0
 17  9  1  0  0  0  0
 20 26  1  6  0  0  0
 21 23  1  0  0  0  0
 22 19  1  0  0  0  0
 23 27  1  0  0  0  0
 23 18  1  1  0  0  0
 24 28  1  6  0  0  0
 24 26  1  0  0  0  0
 24 19  1  0  0  0  0
 25 21  1  0  0  0  0
 25 22  1  1  0  0  0
 25 20  1  0  0  0  0
 27 20  1  0  0  0  0
 29 28  1  0  0  0  0
 30 29  1  0  0  0  0
 32 30  1  0  0  0  0
 32 31  1  0  0  0  0
M  END
>  <MODEL>
7

>  <REMARK>
 VINA RESULT:      -7.4      1.841      3.993
  Name = 
  7 active torsions:
  status: ('A' for Active; 'I' for Inactive)
    1  A    between atoms: N_3  and  C_14
    2  A    between atoms: N_3  and  C_15
    3  A    between atoms: C_10  and  C_20
    4  A    between atoms: C_10  and  S_24
    5  A    between atoms: C_16  and  C_26
    6  A    between atoms: C_17  and  C_20
    7  A    between atoms: C_19  and  S_24
                            x       y       z     vdW  Elec       q    Type
                         _______ _______ _______ _____ _____    ______ ____

>  <TORSDO>
F 7

$$$$
=
 OpenBabel10272413373D

 32 36  0  0  1  0  0  0  0  0999 V2000
  189.2570  176.1000  135.3830 C   0  0  0  0  0  3  0  0  0  0  0  0
  190.3140  175.4350  134.7650 C   0  0  0  0  0  3  0  0  0  0  0  0
  189.4270  176.6580  136.6500 C   0  0  0  0  0  3  0  0  0  0  0  0
  190.6510  176.5580  137.3230 C   0  0  0  0  0  0  0  0  0  0  0  0
  191.5450  175.3330  135.4150 C   0  0  0  0  0  3  0  0  0  0  0  0
  191.7330  175.8910  136.6890 C   0  0  0  0  0  0  0  0  0  0  0  0
  194.8570  174.2960  137.9110 C   0  0  2  0  0  3  0  0  0  0  0  0
  195.6850  174.5400  136.6450 C   0  0  2  0  0  3  0  0  0  0  0  0
  196.2900  176.1970  135.1340 C   0  0  2  0  0  3  0  0  0  0  0  0
  193.0940  175.7980  137.3140 C   0  0  2  0  0  3  0  0  0  0  0  0
  197.2910  176.1620  136.1880 N   0  0  0  0  0  2  0  0  0  0  0  0
  197.0170  175.0350  136.9900 N   0  0  0  0  0  2  0  0  0  0  0  0
  194.1490  176.5280  136.4600 C   0  0  0  0  0  2  0  0  0  0  0  0
  195.1580  172.9190  138.4670 C   0  0  0  0  0  1  0  0  0  0  0  0
  196.0880  177.6150  134.6200 C   0  0  0  0  0  1  0  0  0  0  0  0
  193.4340  174.3980  137.6000 N   0  0  0  0  0  2  0  0  0  0  0  0
  195.0520  175.5430  135.6960 C   0  0  2  0  0  3  0  0  0  0  0  0
  190.7340  177.1600  138.6240 N   0  0  0  0  0  2  0  0  0  0  0  0
  190.2080  178.9060  143.9090 C   0  0  0  0  0  2  0  0  0  0  0  0
  189.3400  177.9380  141.4660 C   0  0  2  0  0  3  0  0  0  0  0  0
  191.2800  176.8010  140.9220 N   0  0  0  0  0  2  0  0  0  0  0  0
  191.2080  178.0830  143.0580 C   0  0  0  0  0  2  0  0  0  0  0  0
  190.2740  176.5780  139.8770 C   0  0  1  0  0  3  0  0  0  0  0  0
  188.7550  178.3620  143.9000 C   0  0  1  0  0  3  0  0  0  0  0  0
  190.4820  177.1940  142.0570 C   0  0  1  0  0  3  0  0  0  0  0  0
  188.2150  178.0190  142.4910 C   0  0  0  0  0  2  0  0  0  0  0  0
  189.0000  177.1950  140.2770 N   0  0  0  0  0  2  0  0  0  0  0  0
  188.6200  176.9070  144.9810 S   0  0  0  0  0  0  0  0  0  0  0  0
  189.6930  177.6550  146.2380 C   0  0  0  0  0  2  0  0  0  0  0  0
  190.1170  176.5910  147.2300 C   0  0  0  0  0  2  0  0  0  0  0  0
  192.0220  175.9270  145.8700 N   0  0  0  0  0  1  0  0  0  0  0  0
  191.6210  176.3990  147.1850 C   0  0  0  0  0  2  0  0  0  0  0  0
  1  3  1  0  0  0  0
  2  1  2  0  0  0  0
  2  5  1  0  0  0  0
  3  4  2  0  0  0  0
  4 18  1  0  0  0  0
  5  6  2  0  0  0  0
  6  4  1  0  0  0  0
  7 14  1  6  0  0  0
  8 12  1  1  0  0  0
  8  7  1  0  0  0  0
  9 15  1  1  0  0  0
  9 17  1  0  0  0  0
  9 11  1  0  0  0  0
 10  6  1  6  0  0  0
 10 16  1  0  0  0  0
 11 12  1  0  0  0  0
 13 10  1  0  0  0  0
 16  7  1  0  0  0  0
 17 13  1  1  0  0  0
 17  8  1  0  0  0  0
 20 25  1  0  0  0  0
 20 26  1  1  0  0  0
 21 25  1  0  0  0  0
 22 19  1  0  0  0  0
 23 18  1  6  0  0  0
 23 27  1  0  0  0  0
 23 21  1  0  0  0  0
 24 19  1  0  0  0  0
 24 28  1  1  0  0  0
 25 22  1  1  0  0  0
 26 24  1  0  0  0  0
 27 20  1  0  0  0  0
 28 29  1  0  0  0  0
 29 30  1  0  0  0  0
 31 32  1  0  0  0  0
 32 30  1  0  0  0  0
M  END
>  <MODEL>
8

>  <REMARK>
 VINA RESULT:      -7.3      5.721     10.315
  Name = 
  7 active torsions:
  status: ('A' for Active; 'I' for Inactive)
    1  A    between atoms: N_3  and  C_14
    2  A    between atoms: N_3  and  C_15
    3  A    between atoms: C_10  and  C_20
    4  A    between atoms: C_10  and  S_24
    5  A    between atoms: C_16  and  C_26
    6  A    between atoms: C_17  and  C_20
    7  A    between atoms: C_19  and  S_24
                            x       y       z     vdW  Elec       q    Type
                         _______ _______ _______ _____ _____    ______ ____

>  <TORSDO>
F 7

$$$$
=
 OpenBabel10272413373D

 32 36  0  0  1  0  0  0  0  0999 V2000
  183.4420  179.1310  144.8460 C   0  0  0  0  0  3  0  0  0  0  0  0
  182.2870  178.8600  144.1140 C   0  0  0  0  0  3  0  0  0  0  0  0
  184.6880  179.1080  144.2190 C   0  0  0  0  0  3  0  0  0  0  0  0
  184.8030  178.8090  142.8560 C   0  0  0  0  0  0  0  0  0  0  0  0
  182.3800  178.5690  142.7520 C   0  0  0  0  0  3  0  0  0  0  0  0
  183.6260  178.5440  142.1060 C   0  0  0  0  0  0  0  0  0  0  0  0
  182.8360  176.8550  138.8940 C   0  0  2  0  0  3  0  0  0  0  0  0
  181.6780  177.7750  138.4930 C   0  0  2  0  0  3  0  0  0  0  0  0
  181.1010  180.0130  138.2670 C   0  0  2  0  0  3  0  0  0  0  0  0
  183.6580  178.2810  140.6300 C   0  0  2  0  0  3  0  0  0  0  0  0
  181.6210  179.5520  136.9900 N   0  0  0  0  0  2  0  0  0  0  0  0
  181.7880  178.1540  137.0850 N   0  0  0  0  0  2  0  0  0  0  0  0
  183.0060  179.4340  139.8440 C   0  0  0  0  0  2  0  0  0  0  0  0
  182.5000  175.4190  138.5430 C   0  0  0  0  0  1  0  0  0  0  0  0
  181.4600  181.4730  138.5080 C   0  0  0  0  0  1  0  0  0  0  0  0
  183.0810  176.9640  140.3300 N   0  0  0  0  0  2  0  0  0  0  0  0
  181.6130  179.0520  139.3110 C   0  0  2  0  0  3  0  0  0  0  0  0
  186.1260  178.8060  142.2960 N   0  0  0  0  0  2  0  0  0  0  0  0
  191.2300  178.6690  144.5710 C   0  0  0  0  0  2  0  0  0  0  0  0
  188.5630  177.9850  144.2990 C   0  0  2  0  0  3  0  0  0  0  0  0
  188.4400  178.2870  142.0080 N   0  0  0  0  0  2  0  0  0  0  0  0
  190.5970  178.7690  143.1610 C   0  0  0  0  0  2  0  0  0  0  0  0
  187.1510  177.7930  142.5060 C   0  0  1  0  0  3  0  0  0  0  0  0
  190.7870  177.4290  145.3900 C   0  0  1  0  0  3  0  0  0  0  0  0
  189.3580  177.8900  143.0470 C   0  0  1  0  0  3  0  0  0  0  0  0
  189.2590  177.1830  145.3920 C   0  0  0  0  0  2  0  0  0  0  0  0
  187.2600  177.4810  143.9390 N   0  0  0  0  0  2  0  0  0  0  0  0
  191.6470  175.9410  144.7970 S   0  0  0  0  0  0  0  0  0  0  0  0
  191.7210  175.2340  146.4660 C   0  0  0  0  0  2  0  0  0  0  0  0
  191.9980  176.3400  147.4650 C   0  0  0  0  0  2  0  0  0  0  0  0
  193.4880  176.9230  149.2970 N   0  0  0  0  0  1  0  0  0  0  0  0
  192.8480  175.8170  148.6070 C   0  0  0  0  0  2  0  0  0  0  0  0
  2  1  2  0  0  0  0
  3  1  1  0  0  0  0
  4  3  2  0  0  0  0
  5  2  1  0  0  0  0
  6  5  2  0  0  0  0
  6  4  1  0  0  0  0
  7 14  1  1  0  0  0
  7 16  1  0  0  0  0
  8 12  1  6  0  0  0
  8  7  1  0  0  0  0
  8 17  1  0  0  0  0
  9 15  1  1  0  0  0
  9 17  1  0  0  0  0
 10  6  1  1  0  0  0
 11 12  1  0  0  0  0
 11  9  1  0  0  0  0
 13 10  1  0  0  0  0
 16 10  1  0  0  0  0
 17 13  1  6  0  0  0
 18  4  1  0  0  0  0
 19 24  1  0  0  0  0
 20 26  1  1  0  0  0
 21 23  1  0  0  0  0
 21 25  1  0  0  0  0
 22 19  1  0  0  0  0
 23 18  1  1  0  0  0
 23 27  1  0  0  0  0
 24 28  1  6  0  0  0
 24 26  1  0  0  0  0
 25 22  1  1  0  0  0
 25 20  1  0  0  0  0
 27 20  1  0  0  0  0
 28 29  1  0  0  0  0
 29 30  1  0  0  0  0
 30 32  1  0  0  0  0
 32 31  1  0  0  0  0
M  END
>  <MODEL>
9

>  <REMARK>
 VINA RESULT:      -7.2      3.280      9.825
  Name = 
  7 active torsions:
  status: ('A' for Active; 'I' for Inactive)
    1  A    between atoms: N_3  and  C_14
    2  A    between atoms: N_3  and  C_15
    3  A    between atoms: C_10  and  C_20
    4  A    between atoms: C_10  and  S_24
    5  A    between atoms: C_16  and  C_26
    6  A    between atoms: C_17  and  C_20
    7  A    between atoms: C_19  and  S_24
                            x       y       z     vdW  Elec       q    Type
                         _______ _______ _______ _____ _____    ______ ____

>  <TORSDO>
F 7

$$$$
