=
 OpenBabel10272401593D

 28 32  0  0  0  0  0  0  0  0999 V2000
  186.8120  178.0490  145.8140 C   0  0  0  0  0  0  0  0  0  0  0  0
  188.4170  177.5110  141.0220 C   0  0  0  0  0  3  0  0  0  0  0  0
  191.4940  176.7550  146.2400 O   0  0  0  0  0  1  0  0  0  0  0  0
  190.8610  177.3490  141.1960 C   0  0  0  0  0  0  0  0  0  0  0  0
  189.3900  177.4070  143.2680 C   0  0  0  0  0  0  0  0  0  0  0  0
  189.8630  177.3380  138.9770 C   0  0  0  0  0  0  0  0  0  0  0  0
  189.5080  177.4340  141.7970 C   0  0  0  0  0  0  0  0  0  0  0  0
  191.8000  176.6480  143.3990 C   0  0  0  0  0  2  0  0  0  0  0  0
  191.0250  177.3090  139.8740 C   0  0  0  0  0  3  0  0  0  0  0  0
  189.1690  177.4120  146.0440 C   0  0  0  0  0  0  0  0  0  0  0  0
  188.2080  177.7120  143.8710 N   0  0  0  0  0  0  0  0  0  0  0  0
  192.0620  177.3950  142.0900 C   0  0  0  0  0  2  0  0  0  0  0  0
  187.8170  177.7790  148.0200 C   0  0  0  0  0  3  0  0  0  0  0  0
  190.3960  177.0850  145.4490 C   0  0  0  0  0  0  0  0  0  0  0  0
  189.0370  177.4430  147.4360 C   0  0  0  0  0  3  0  0  0  0  0  0
  190.0350  177.2210  137.7360 O   0  0  0  0  0  0  0  0  0  0  0  0
  188.4760  177.5430  139.5170 C   0  0  0  0  0  2  0  0  0  0  0  0
  190.5140  177.0890  144.0530 C   0  0  0  0  0  0  0  0  0  0  0  0
  186.7190  178.0800  147.2160 C   0  0  0  0  0  3  0  0  0  0  0  0
  188.0560  177.7180  145.2230 C   0  0  0  0  0  0  0  0  0  0  0  0
  185.6020  178.3640  145.0050 C   0  0  0  0  0  0  0  0  0  0  0  0
  185.6860  178.3600  143.6660 C   0  0  0  0  0  3  0  0  0  0  0  0
  183.2180  178.8890  143.4620 C   0  0  0  0  0  0  0  0  0  0  0  0
  184.3220  178.8010  145.6950 C   0  0  0  0  0  2  0  0  0  0  0  0
  184.6420  178.7090  141.5750 O   0  0  0  0  0  0  0  0  0  0  0  0
  184.5230  178.6690  142.8280 C   0  0  0  0  0  0  0  0  0  0  0  0
  182.0770  179.0490  142.6850 O   0  0  0  0  0  1  0  0  0  0  0  0
  183.1200  178.9180  144.7900 C   0  0  0  0  0  3  0  0  0  0  0  0
  1 19  1  0  0  0  0
  2  7  2  0  0  0  0
  4  7  1  0  0  0  0
  4 12  1  0  0  0  0
  5 11  2  0  0  0  0
  5 18  1  0  0  0  0
  6 17  1  0  0  0  0
  6  9  1  0  0  0  0
  7  5  1  0  0  0  0
  8 18  1  0  0  0  0
  9  4  2  0  0  0  0
 10 15  2  0  0  0  0
 11 20  1  0  0  0  0
 12  8  1  0  0  0  0
 14 10  1  0  0  0  0
 14  3  1  0  0  0  0
 15 13  1  0  0  0  0
 16  6  2  0  0  0  0
 17  2  1  0  0  0  0
 18 14  2  0  0  0  0
 19 13  2  0  0  0  0
 20  1  2  0  0  0  0
 20 10  1  0  0  0  0
 21 24  1  0  0  0  0
 21  1  1  0  0  0  0
 22 21  2  0  0  0  0
 23 28  2  0  0  0  0
 25 26  2  0  0  0  0
 26 23  1  0  0  0  0
 26 22  1  0  0  0  0
 27 23  1  0  0  0  0
 28 24  1  0  0  0  0
M  END
>  <MODEL>
1

>  <REMARK>
 VINA RESULT:     -12.3      0.000      0.000
  Name = 
  1 active torsions:
  status: ('A' for Active; 'I' for Inactive)
    1  A    between atoms: C_1  and  C_2
                            x       y       z     vdW  Elec       q    Type
                         _______ _______ _______ _____ _____    ______ ____

>  <TORSDO>
F 1

$$$$
=
 OpenBabel10272401593D

 28 32  0  0  0  0  0  0  0  0999 V2000
  186.2430  178.3630  142.1850 C   0  0  0  0  0  0  0  0  0  0  0  0
  190.1880  176.8620  145.0140 C   0  0  0  0  0  3  0  0  0  0  0  0
  184.5740  178.4990  146.7650 O   0  0  0  0  0  1  0  0  0  0  0  0
  189.5390  177.3910  147.3230 C   0  0  0  0  0  0  0  0  0  0  0  0
  187.9100  177.6800  145.3930 C   0  0  0  0  0  0  0  0  0  0  0  0
  191.7570  176.4680  146.9350 C   0  0  0  0  0  0  0  0  0  0  0  0
  189.2540  177.3000  145.8710 C   0  0  0  0  0  0  0  0  0  0  0  0
  187.1000  177.6390  147.7890 C   0  0  0  0  0  2  0  0  0  0  0  0
  190.7140  177.0050  147.8190 C   0  0  0  0  0  3  0  0  0  0  0  0
  185.3930  178.4490  144.4840 C   0  0  0  0  0  0  0  0  0  0  0  0
  187.6690  177.8370  144.0630 N   0  0  0  0  0  0  0  0  0  0  0  0
  188.5190  178.0060  148.2300 C   0  0  0  0  0  2  0  0  0  0  0  0
  183.9380  179.0250  142.6350 C   0  0  0  0  0  3  0  0  0  0  0  0
  185.6110  178.2860  145.8600 C   0  0  0  0  0  0  0  0  0  0  0  0
  184.1440  178.8560  144.0030 C   0  0  0  0  0  3  0  0  0  0  0  0
  192.8300  176.0380  147.4320 O   0  0  0  0  0  0  0  0  0  0  0  0
  191.5760  176.4610  145.4430 C   0  0  0  0  0  2  0  0  0  0  0  0
  186.8780  177.9080  146.3230 C   0  0  0  0  0  0  0  0  0  0  0  0
  184.9780  178.7830  141.7380 C   0  0  0  0  0  3  0  0  0  0  0  0
  186.4520  178.2020  143.5760 C   0  0  0  0  0  0  0  0  0  0  0  0
  187.3110  178.1030  141.1810 C   0  0  0  0  0  0  0  0  0  0  0  0
  188.5390  177.7640  141.6000 C   0  0  0  0  0  3  0  0  0  0  0  0
  189.3380  177.5170  139.2090 C   0  0  0  0  0  0  0  0  0  0  0  0
  187.0380  178.3390  139.7070 C   0  0  0  0  0  2  0  0  0  0  0  0
  190.7810  177.2370  141.0690 O   0  0  0  0  0  0  0  0  0  0  0  0
  189.6240  177.5030  140.6490 C   0  0  0  0  0  0  0  0  0  0  0  0
  190.3150  177.1420  138.2950 O   0  0  0  0  0  1  0  0  0  0  0  0
  188.1300  177.8730  138.7750 C   0  0  0  0  0  3  0  0  0  0  0  0
  1 20  1  0  0  0  0
  2 17  1  0  0  0  0
  2  7  2  0  0  0  0
  4  9  2  0  0  0  0
  4 12  1  0  0  0  0
  5  7  1  0  0  0  0
  5 18  1  0  0  0  0
  6 16  2  0  0  0  0
  6  9  1  0  0  0  0
  7  4  1  0  0  0  0
  8 12  1  0  0  0  0
 10 14  1  0  0  0  0
 11  5  2  0  0  0  0
 13 15  2  0  0  0  0
 14 18  2  0  0  0  0
 14  3  1  0  0  0  0
 15 10  1  0  0  0  0
 17  6  1  0  0  0  0
 18  8  1  0  0  0  0
 19  1  2  0  0  0  0
 19 13  1  0  0  0  0
 20 11  1  0  0  0  0
 20 10  2  0  0  0  0
 21 22  2  0  0  0  0
 21  1  1  0  0  0  0
 23 26  1  0  0  0  0
 24 21  1  0  0  0  0
 26 25  2  0  0  0  0
 26 22  1  0  0  0  0
 27 23  1  0  0  0  0
 28 23  2  0  0  0  0
 28 24  1  0  0  0  0
M  END
>  <MODEL>
2

>  <REMARK>
 VINA RESULT:     -12.1      1.764      6.155
  Name = 
  1 active torsions:
  status: ('A' for Active; 'I' for Inactive)
    1  A    between atoms: C_1  and  C_2
                            x       y       z     vdW  Elec       q    Type
                         _______ _______ _______ _____ _____    ______ ____

>  <TORSDO>
F 1

$$$$
=
 OpenBabel10272401593D

 28 32  0  0  0  0  0  0  0  0999 V2000
  190.4250  177.0310  144.3890 C   0  0  0  0  0  0  0  0  0  0  0  0
  185.7440  178.6510  143.2510 C   0  0  0  0  0  3  0  0  0  0  0  0
  188.2860  177.6970  148.7190 O   0  0  0  0  0  1  0  0  0  0  0  0
  184.5060  178.5190  145.3680 C   0  0  0  0  0  0  0  0  0  0  0  0
  187.0040  178.0630  145.2690 C   0  0  0  0  0  0  0  0  0  0  0  0
  183.3000  179.2130  143.3720 C   0  0  0  0  0  0  0  0  0  0  0  0
  185.7510  178.4130  144.5710 C   0  0  0  0  0  0  0  0  0  0  0  0
  185.8470  178.5180  147.4720 C   0  0  0  0  0  2  0  0  0  0  0  0
  183.3570  178.8890  144.8030 C   0  0  0  0  0  3  0  0  0  0  0  0
  189.3580  177.3490  146.5740 C   0  0  0  0  0  0  0  0  0  0  0  0
  188.1180  177.7280  144.5610 N   0  0  0  0  0  0  0  0  0  0  0  0
  184.5260  178.1200  146.8110 C   0  0  0  0  0  2  0  0  0  0  0  0
  191.6610  176.6100  146.4490 C   0  0  0  0  0  3  0  0  0  0  0  0
  188.2280  177.6990  147.3280 C   0  0  0  0  0  0  0  0  0  0  0  0
  190.5460  176.9660  147.2050 C   0  0  0  0  0  3  0  0  0  0  0  0
  182.2240  179.6350  142.8740 O   0  0  0  0  0  0  0  0  0  0  0  0
  184.4980  179.0110  142.4860 C   0  0  0  0  0  2  0  0  0  0  0  0
  187.0400  178.0500  146.6760 C   0  0  0  0  0  0  0  0  0  0  0  0
  191.5990  176.6410  145.0560 C   0  0  0  0  0  3  0  0  0  0  0  0
  189.2900  177.3820  145.1600 C   0  0  0  0  0  0  0  0  0  0  0  0
  190.4200  177.0620  142.9000 C   0  0  0  0  0  0  0  0  0  0  0  0
  191.5750  177.2390  142.2410 C   0  0  0  0  0  3  0  0  0  0  0  0
  190.3900  177.0270  140.0120 C   0  0  0  0  0  0  0  0  0  0  0  0
  189.1030  177.0140  142.1460 C   0  0  0  0  0  2  0  0  0  0  0  0
  192.7070  177.5000  140.1830 O   0  0  0  0  0  0  0  0  0  0  0  0
  191.6180  177.2810  140.7760 C   0  0  0  0  0  0  0  0  0  0  0  0
  190.4320  176.9280  138.6270 O   0  0  0  0  0  1  0  0  0  0  0  0
  189.2310  176.8710  140.6500 C   0  0  0  0  0  3  0  0  0  0  0  0
  1 19  2  0  0  0  0
  1 20  1  0  0  0  0
  2  7  2  0  0  0  0
  4 12  1  0  0  0  0
  5 18  1  0  0  0  0
  6  9  1  0  0  0  0
  7  5  1  0  0  0  0
  7  4  1  0  0  0  0
  9  4  2  0  0  0  0
 10 15  1  0  0  0  0
 10 14  1  0  0  0  0
 11 20  1  0  0  0  0
 11  5  2  0  0  0  0
 12  8  1  0  0  0  0
 13 15  2  0  0  0  0
 14  3  1  0  0  0  0
 16  6  2  0  0  0  0
 17  2  1  0  0  0  0
 17  6  1  0  0  0  0
 18 14  2  0  0  0  0
 18  8  1  0  0  0  0
 19 13  1  0  0  0  0
 20 10  2  0  0  0  0
 21  1  1  0  0  0  0
 22 21  2  0  0  0  0
 23 28  2  0  0  0  0
 23 26  1  0  0  0  0
 24 21  1  0  0  0  0
 25 26  2  0  0  0  0
 26 22  1  0  0  0  0
 27 23  1  0  0  0  0
 28 24  1  0  0  0  0
M  END
>  <MODEL>
3

>  <REMARK>
 VINA RESULT:     -12.1      1.345      6.197
  Name = 
  1 active torsions:
  status: ('A' for Active; 'I' for Inactive)
    1  A    between atoms: C_1  and  C_2
                            x       y       z     vdW  Elec       q    Type
                         _______ _______ _______ _____ _____    ______ ____

>  <TORSDO>
F 1

$$$$
=
 OpenBabel10272401593D

 28 32  0  0  0  0  0  0  0  0999 V2000
  188.9380  177.5360  144.9400 C   0  0  0  0  0  0  0  0  0  0  0  0
  185.6410  178.7400  141.2640 C   0  0  0  0  0  3  0  0  0  0  0  0
  184.7800  178.4860  147.3030 O   0  0  0  0  0  1  0  0  0  0  0  0
  183.4470  178.7370  142.3680 C   0  0  0  0  0  0  0  0  0  0  0  0
  185.5930  178.4320  143.6950 C   0  0  0  0  0  0  0  0  0  0  0  0
  183.5290  179.1560  139.9720 C   0  0  0  0  0  0  0  0  0  0  0  0
  184.9250  178.6320  142.3930 C   0  0  0  0  0  0  0  0  0  0  0  0
  183.4200  179.0260  144.8460 C   0  0  0  0  0  2  0  0  0  0  0  0
  182.7940  178.9770  141.2310 C   0  0  0  0  0  3  0  0  0  0  0  0
  186.8510  177.9980  146.1410 C   0  0  0  0  0  0  0  0  0  0  0  0
  186.9120  178.1000  143.7500 N   0  0  0  0  0  0  0  0  0  0  0  0
  182.6750  178.4840  143.6250 C   0  0  0  0  0  2  0  0  0  0  0  0
  188.8470  177.3970  147.3740 C   0  0  0  0  0  3  0  0  0  0  0  0
  185.4920  178.3480  146.1140 C   0  0  0  0  0  0  0  0  0  0  0  0
  187.5000  177.7540  147.3560 C   0  0  0  0  0  3  0  0  0  0  0  0
  182.9000  179.4580  138.9250 O   0  0  0  0  0  0  0  0  0  0  0  0
  185.0150  178.9440  139.9090 C   0  0  0  0  0  2  0  0  0  0  0  0
  184.8540  178.5590  144.8860 C   0  0  0  0  0  0  0  0  0  0  0  0
  189.5560  177.2880  146.1780 C   0  0  0  0  0  3  0  0  0  0  0  0
  187.5660  177.8890  144.9240 C   0  0  0  0  0  0  0  0  0  0  0  0
  189.7480  177.4210  143.6950 C   0  0  0  0  0  0  0  0  0  0  0  0
  189.1270  177.3990  142.5060 C   0  0  0  0  0  3  0  0  0  0  0  0
  191.3500  177.2880  141.2960 C   0  0  0  0  0  0  0  0  0  0  0  0
  191.2480  177.2110  143.7850 C   0  0  0  0  0  2  0  0  0  0  0  0
  189.2730  177.2110  140.1550 O   0  0  0  0  0  0  0  0  0  0  0  0
  189.8820  177.2820  141.2550 C   0  0  0  0  0  0  0  0  0  0  0  0
  192.0850  177.3150  140.1180 O   0  0  0  0  0  1  0  0  0  0  0  0
  191.9820  177.2880  142.4690 C   0  0  0  0  0  3  0  0  0  0  0  0
  1 19  1  0  0  0  0
  2  7  2  0  0  0  0
  4  7  1  0  0  0  0
  4 12  1  0  0  0  0
  5 11  2  0  0  0  0
  5 18  1  0  0  0  0
  6  9  1  0  0  0  0
  7  5  1  0  0  0  0
  8 18  1  0  0  0  0
  9  4  2  0  0  0  0
 10 15  2  0  0  0  0
 11 20  1  0  0  0  0
 12  8  1  0  0  0  0
 14 10  1  0  0  0  0
 14  3  1  0  0  0  0
 15 13  1  0  0  0  0
 16  6  2  0  0  0  0
 17  6  1  0  0  0  0
 17  2  1  0  0  0  0
 18 14  2  0  0  0  0
 19 13  2  0  0  0  0
 20  1  2  0  0  0  0
 20 10  1  0  0  0  0
 21 24  1  0  0  0  0
 21  1  1  0  0  0  0
 22 21  2  0  0  0  0
 23 28  2  0  0  0  0
 25 26  2  0  0  0  0
 26 23  1  0  0  0  0
 26 22  1  0  0  0  0
 27 23  1  0  0  0  0
 28 24  1  0  0  0  0
M  END
>  <MODEL>
4

>  <REMARK>
 VINA RESULT:     -11.9      1.843      6.029
  Name = 
  1 active torsions:
  status: ('A' for Active; 'I' for Inactive)
    1  A    between atoms: C_1  and  C_2
                            x       y       z     vdW  Elec       q    Type
                         _______ _______ _______ _____ _____    ______ ____

>  <TORSDO>
F 1

$$$$
=
 OpenBabel10272401593D

 28 32  0  0  0  0  0  0  0  0999 V2000
  190.0940  177.1840  143.4010 C   0  0  0  0  0  0  0  0  0  0  0  0
  185.2690  178.7370  143.0220 C   0  0  0  0  0  3  0  0  0  0  0  0
  188.6270  177.7240  148.0200 O   0  0  0  0  0  1  0  0  0  0  0  0
  184.3690  178.5390  145.2990 C   0  0  0  0  0  0  0  0  0  0  0  0
  186.8300  178.1330  144.8120 C   0  0  0  0  0  0  0  0  0  0  0  0
  182.8630  179.2500  143.5240 C   0  0  0  0  0  0  0  0  0  0  0  0
  185.4800  178.4720  144.3200 C   0  0  0  0  0  0  0  0  0  0  0  0
  186.0140  178.5230  147.1740 C   0  0  0  0  0  2  0  0  0  0  0  0
  183.1420  178.8990  144.9230 C   0  0  0  0  0  3  0  0  0  0  0  0
  189.3660  177.4380  145.7290 C   0  0  0  0  0  0  0  0  0  0  0  0
  187.8290  177.8330  143.9360 N   0  0  0  0  0  0  0  0  0  0  0  0
  184.6140  178.1130  146.7130 C   0  0  0  0  0  2  0  0  0  0  0  0
  191.6350  176.7450  145.2400 C   0  0  0  0  0  3  0  0  0  0  0  0
  188.3580  177.7510  146.6530 C   0  0  0  0  0  0  0  0  0  0  0  0
  190.6420  177.0650  146.1650 C   0  0  0  0  0  3  0  0  0  0  0  0
  181.7180  179.6610  143.2050 O   0  0  0  0  0  0  0  0  0  0  0  0
  183.9160  179.0880  142.4630 C   0  0  0  0  0  2  0  0  0  0  0  0
  187.0790  178.0930  146.1970 C   0  0  0  0  0  0  0  0  0  0  0  0
  191.3610  176.8030  143.8740 C   0  0  0  0  0  3  0  0  0  0  0  0
  189.0830  177.4970  144.3430 C   0  0  0  0  0  0  0  0  0  0  0  0
  189.8620  177.2440  141.9310 C   0  0  0  0  0  0  0  0  0  0  0  0
  188.7790  177.8790  141.4610 C   0  0  0  0  0  3  0  0  0  0  0  0
  189.4880  177.4210  139.0730 C   0  0  0  0  0  0  0  0  0  0  0  0
  190.7820  176.4890  140.9890 C   0  0  0  0  0  2  0  0  0  0  0  0
  187.4550  178.5170  139.6100 O   0  0  0  0  0  0  0  0  0  0  0  0
  188.5070  177.9600  140.0220 C   0  0  0  0  0  0  0  0  0  0  0  0
  189.3180  177.6050  137.7060 O   0  0  0  0  0  1  0  0  0  0  0  0
  190.5590  176.7680  139.5220 C   0  0  0  0  0  3  0  0  0  0  0  0
  1 19  2  0  0  0  0
  1 20  1  0  0  0  0
  2  7  2  0  0  0  0
  4 12  1  0  0  0  0
  5 18  1  0  0  0  0
  6  9  1  0  0  0  0
  7  5  1  0  0  0  0
  7  4  1  0  0  0  0
  9  4  2  0  0  0  0
 10 15  1  0  0  0  0
 10 14  1  0  0  0  0
 11 20  1  0  0  0  0
 11  5  2  0  0  0  0
 12  8  1  0  0  0  0
 13 15  2  0  0  0  0
 14  3  1  0  0  0  0
 16  6  2  0  0  0  0
 17  2  1  0  0  0  0
 17  6  1  0  0  0  0
 18 14  2  0  0  0  0
 18  8  1  0  0  0  0
 19 13  1  0  0  0  0
 20 10  2  0  0  0  0
 21  1  1  0  0  0  0
 22 21  2  0  0  0  0
 23 28  2  0  0  0  0
 23 26  1  0  0  0  0
 24 21  1  0  0  0  0
 25 26  2  0  0  0  0
 26 22  1  0  0  0  0
 27 23  1  0  0  0  0
 28 24  1  0  0  0  0
M  END
>  <MODEL>
5

>  <REMARK>
 VINA RESULT:     -11.9      1.233      6.070
  Name = 
  1 active torsions:
  status: ('A' for Active; 'I' for Inactive)
    1  A    between atoms: C_1  and  C_2
                            x       y       z     vdW  Elec       q    Type
                         _______ _______ _______ _____ _____    ______ ____

>  <TORSDO>
F 1

$$$$
=
 OpenBabel10272401593D

 28 32  0  0  0  0  0  0  0  0999 V2000
  185.2780  178.4680  144.6060 C   0  0  0  0  0  0  0  0  0  0  0  0
  188.7920  177.5400  141.0530 C   0  0  0  0  0  3  0  0  0  0  0  0
  189.2840  177.3080  147.1330 O   0  0  0  0  0  1  0  0  0  0  0  0
  190.9140  177.4420  142.2840 C   0  0  0  0  0  0  0  0  0  0  0  0
  188.6920  177.6540  143.4980 C   0  0  0  0  0  0  0  0  0  0  0  0
  190.9780  177.2150  139.8620 C   0  0  0  0  0  0  0  0  0  0  0  0
  189.4370  177.5530  142.2280 C   0  0  0  0  0  0  0  0  0  0  0  0
  190.7900  176.9560  144.7280 C   0  0  0  0  0  2  0  0  0  0  0  0
  191.6350  177.2880  141.1730 C   0  0  0  0  0  3  0  0  0  0  0  0
  187.2880  177.8990  145.8900 C   0  0  0  0  0  0  0  0  0  0  0  0
  187.3720  177.9880  143.4990 N   0  0  0  0  0  0  0  0  0  0  0  0
  191.6090  177.5900  143.6020 C   0  0  0  0  0  2  0  0  0  0  0  0
  185.2210  178.4130  147.0440 C   0  0  0  0  0  3  0  0  0  0  0  0
  188.6450  177.5440  145.9180 C   0  0  0  0  0  0  0  0  0  0  0  0
  186.5670  178.0500  147.0790 C   0  0  0  0  0  3  0  0  0  0  0  0
  191.6690  176.9930  138.8340 O   0  0  0  0  0  0  0  0  0  0  0  0
  189.4980  177.4400  139.7260 C   0  0  0  0  0  2  0  0  0  0  0  0
  189.3570  177.4280  144.7180 C   0  0  0  0  0  0  0  0  0  0  0  0
  184.5870  178.6210  145.8200 C   0  0  0  0  0  3  0  0  0  0  0  0
  186.6480  178.1100  144.6450 C   0  0  0  0  0  0  0  0  0  0  0  0
  184.5460  178.6860  143.3270 C   0  0  0  0  0  0  0  0  0  0  0  0
  185.2390  178.9370  142.2070 C   0  0  0  0  0  3  0  0  0  0  0  0
  183.1030  179.0160  140.8480 C   0  0  0  0  0  0  0  0  0  0  0  0
  183.0290  178.7420  143.3240 C   0  0  0  0  0  2  0  0  0  0  0  0
  185.2330  179.4480  139.8990 O   0  0  0  0  0  0  0  0  0  0  0  0
  184.5610  179.1630  140.9260 C   0  0  0  0  0  0  0  0  0  0  0  0
  182.4540  179.0920  139.6210 O   0  0  0  0  0  1  0  0  0  0  0  0
  182.3970  178.7880  141.9540 C   0  0  0  0  0  3  0  0  0  0  0  0
  1 20  2  0  0  0  0
  1 19  1  0  0  0  0
  2  7  2  0  0  0  0
  4 12  1  0  0  0  0
  5 11  2  0  0  0  0
  5 18  1  0  0  0  0
  6  9  1  0  0  0  0
  7  4  1  0  0  0  0
  7  5  1  0  0  0  0
  9  4  2  0  0  0  0
 10 14  1  0  0  0  0
 10 15  2  0  0  0  0
 11 20  1  0  0  0  0
 12  8  1  0  0  0  0
 13 15  1  0  0  0  0
 14  3  1  0  0  0  0
 16  6  2  0  0  0  0
 17  6  1  0  0  0  0
 17  2  1  0  0  0  0
 18  8  1  0  0  0  0
 18 14  2  0  0  0  0
 19 13  2  0  0  0  0
 20 10  1  0  0  0  0
 21  1  1  0  0  0  0
 22 21  2  0  0  0  0
 23 26  1  0  0  0  0
 23 28  2  0  0  0  0
 24 21  1  0  0  0  0
 25 26  2  0  0  0  0
 26 22  1  0  0  0  0
 27 23  1  0  0  0  0
 28 24  1  0  0  0  0
M  END
>  <MODEL>
6

>  <REMARK>
 VINA RESULT:     -11.9      1.321      1.957
  Name = 
  1 active torsions:
  status: ('A' for Active; 'I' for Inactive)
    1  A    between atoms: C_1  and  C_2
                            x       y       z     vdW  Elec       q    Type
                         _______ _______ _______ _____ _____    ______ ____

>  <TORSDO>
F 1

$$$$
=
 OpenBabel10272401593D

 28 32  0  0  0  0  0  0  0  0999 V2000
  183.6780  178.4470  141.9010 C   0  0  0  0  0  0  0  0  0  0  0  0
  188.4480  176.8130  142.5430 C   0  0  0  0  0  3  0  0  0  0  0  0
  184.3950  178.6580  146.7200 O   0  0  0  0  0  1  0  0  0  0  0  0
  188.9920  177.3730  144.8720 C   0  0  0  0  0  0  0  0  0  0  0  0
  186.6510  177.7150  143.9440 C   0  0  0  0  0  0  0  0  0  0  0  0
  190.7290  176.3700  143.4950 C   0  0  0  0  0  0  0  0  0  0  0  0
  188.0480  177.2880  143.7320 C   0  0  0  0  0  0  0  0  0  0  0  0
  187.0780  177.7110  146.4370 C   0  0  0  0  0  2  0  0  0  0  0  0
  190.2490  176.9470  144.7570 C   0  0  0  0  0  3  0  0  0  0  0  0
  184.0290  178.5710  144.3250 C   0  0  0  0  0  0  0  0  0  0  0  0
  185.8100  177.8760  142.8850 N   0  0  0  0  0  0  0  0  0  0  0  0
  188.5460  178.0280  146.1430 C   0  0  0  0  0  2  0  0  0  0  0  0
  181.8870  179.1930  143.3800 C   0  0  0  0  0  3  0  0  0  0  0  0
  184.8700  178.4050  145.4350 C   0  0  0  0  0  0  0  0  0  0  0  0
  182.7140  179.0210  144.4880 C   0  0  0  0  0  3  0  0  0  0  0  0
  191.8950  175.9030  143.4300 O   0  0  0  0  0  0  0  0  0  0  0  0
  189.8590  176.3640  142.2690 C   0  0  0  0  0  2  0  0  0  0  0  0
  186.1920  177.9830  145.2470 C   0  0  0  0  0  0  0  0  0  0  0  0
  182.3670  178.9100  142.1010 C   0  0  0  0  0  3  0  0  0  0  0  0
  184.5200  178.2830  143.0290 C   0  0  0  0  0  0  0  0  0  0  0  0
  184.1320  178.1450  140.5150 C   0  0  0  0  0  0  0  0  0  0  0  0
  185.3320  178.5830  140.1050 C   0  0  0  0  0  3  0  0  0  0  0  0
  185.0220  177.4670  137.8530 C   0  0  0  0  0  0  0  0  0  0  0  0
  183.1920  177.4530  139.5450 C   0  0  0  0  0  2  0  0  0  0  0  0
  186.9260  178.7820  138.3720 O   0  0  0  0  0  0  0  0  0  0  0  0
  185.8180  178.3150  138.7480 C   0  0  0  0  0  0  0  0  0  0  0  0
  185.5240  177.0880  136.6140 O   0  0  0  0  0  1  0  0  0  0  0  0
  183.8190  177.0410  138.2360 C   0  0  0  0  0  3  0  0  0  0  0  0
  1 19  2  0  0  0  0
  1 20  1  0  0  0  0
  2  7  2  0  0  0  0
  4 12  1  0  0  0  0
  5 18  1  0  0  0  0
  6  9  1  0  0  0  0
  7  5  1  0  0  0  0
  7  4  1  0  0  0  0
  9  4  2  0  0  0  0
 10 15  1  0  0  0  0
 10 14  1  0  0  0  0
 11 20  1  0  0  0  0
 11  5  2  0  0  0  0
 12  8  1  0  0  0  0
 13 15  2  0  0  0  0
 14  3  1  0  0  0  0
 16  6  2  0  0  0  0
 17  2  1  0  0  0  0
 17  6  1  0  0  0  0
 18 14  2  0  0  0  0
 18  8  1  0  0  0  0
 19 13  1  0  0  0  0
 20 10  2  0  0  0  0
 21  1  1  0  0  0  0
 22 21  2  0  0  0  0
 23 28  2  0  0  0  0
 23 26  1  0  0  0  0
 24 21  1  0  0  0  0
 25 26  2  0  0  0  0
 26 22  1  0  0  0  0
 27 23  1  0  0  0  0
 28 24  1  0  0  0  0
M  END
>  <MODEL>
7

>  <REMARK>
 VINA RESULT:     -11.7      2.429      5.280
  Name = 
  1 active torsions:
  status: ('A' for Active; 'I' for Inactive)
    1  A    between atoms: C_1  and  C_2
                            x       y       z     vdW  Elec       q    Type
                         _______ _______ _______ _____ _____    ______ ____

>  <TORSDO>
F 1

$$$$
=
 OpenBabel10272401593D

 28 32  0  0  0  0  0  0  0  0999 V2000
  188.3740  177.6090  143.7720 C   0  0  0  0  0  0  0  0  0  0  0  0
  184.3450  178.7780  140.9030 C   0  0  0  0  0  3  0  0  0  0  0  0
  184.8320  178.5650  146.9850 O   0  0  0  0  0  1  0  0  0  0  0  0
  182.4470  178.7780  142.4610 C   0  0  0  0  0  0  0  0  0  0  0  0
  184.8330  178.4870  143.2870 C   0  0  0  0  0  0  0  0  0  0  0  0
  181.9990  179.1800  140.1040 C   0  0  0  0  0  0  0  0  0  0  0  0
  183.8950  178.6770  142.1620 C   0  0  0  0  0  0  0  0  0  0  0  0
  182.9640  179.0840  144.8830 C   0  0  0  0  0  2  0  0  0  0  0  0
  181.5590  179.0080  141.4950 C   0  0  0  0  0  3  0  0  0  0  0  0
  186.5990  178.0740  145.3990 C   0  0  0  0  0  0  0  0  0  0  0  0
  186.1340  178.1590  143.0520 N   0  0  0  0  0  0  0  0  0  0  0  0
  181.9710  178.5310  143.8590 C   0  0  0  0  0  2  0  0  0  0  0  0
  188.8200  177.4860  146.1670 C   0  0  0  0  0  3  0  0  0  0  0  0
  185.2670  178.4200  145.6690 C   0  0  0  0  0  0  0  0  0  0  0  0
  187.5000  177.8400  146.4430 C   0  0  0  0  0  3  0  0  0  0  0  0
  181.1540  179.4730  139.2180 O   0  0  0  0  0  0  0  0  0  0  0  0
  183.4360  178.9710  139.7170 C   0  0  0  0  0  2  0  0  0  0  0  0
  184.3730  178.6210  144.6100 C   0  0  0  0  0  0  0  0  0  0  0  0
  189.2490  177.3710  144.8460 C   0  0  0  0  0  3  0  0  0  0  0  0
  187.0310  177.9580  144.0560 C   0  0  0  0  0  0  0  0  0  0  0  0
  188.8910  177.4870  142.3810 C   0  0  0  0  0  0  0  0  0  0  0  0
  188.2970  178.1770  141.3950 C   0  0  0  0  0  3  0  0  0  0  0  0
  189.9720  177.3000  139.7090 C   0  0  0  0  0  0  0  0  0  0  0  0
  190.0000  176.4990  142.0690 C   0  0  0  0  0  2  0  0  0  0  0  0
  188.1610  178.7030  139.0950 O   0  0  0  0  0  0  0  0  0  0  0  0
  188.7680  178.0850  140.0100 C   0  0  0  0  0  0  0  0  0  0  0  0
  190.5140  177.3080  138.4300 O   0  0  0  0  0  1  0  0  0  0  0  0
  190.5610  176.5920  140.6710 C   0  0  0  0  0  3  0  0  0  0  0  0
  1 20  2  0  0  0  0
  1 19  1  0  0  0  0
  2  7  2  0  0  0  0
  4 12  1  0  0  0  0
  5 18  1  0  0  0  0
  6  9  1  0  0  0  0
  7  4  1  0  0  0  0
  7  5  1  0  0  0  0
  9  4  2  0  0  0  0
 10 14  1  0  0  0  0
 10 15  2  0  0  0  0
 11  5  2  0  0  0  0
 11 20  1  0  0  0  0
 12  8  1  0  0  0  0
 13 15  1  0  0  0  0
 14  3  1  0  0  0  0
 16  6  2  0  0  0  0
 17  6  1  0  0  0  0
 17  2  1  0  0  0  0
 18  8  1  0  0  0  0
 18 14  2  0  0  0  0
 19 13  2  0  0  0  0
 20 10  1  0  0  0  0
 21  1  1  0  0  0  0
 22 21  2  0  0  0  0
 23 26  1  0  0  0  0
 23 28  2  0  0  0  0
 24 21  1  0  0  0  0
 25 26  2  0  0  0  0
 26 22  1  0  0  0  0
 27 23  1  0  0  0  0
 28 24  1  0  0  0  0
M  END
>  <MODEL>
8

>  <REMARK>
 VINA RESULT:     -11.6      2.044      6.361
  Name = 
  1 active torsions:
  status: ('A' for Active; 'I' for Inactive)
    1  A    between atoms: C_1  and  C_2
                            x       y       z     vdW  Elec       q    Type
                         _______ _______ _______ _____ _____    ______ ____

>  <TORSDO>
F 1

$$$$
=
 OpenBabel10272401593D

 28 32  0  0  0  0  0  0  0  0999 V2000
  184.9630  178.4390  143.9100 C   0  0  0  0  0  0  0  0  0  0  0  0
  188.9880  177.4710  140.9620 C   0  0  0  0  0  3  0  0  0  0  0  0
  188.5600  177.4590  147.0520 O   0  0  0  0  0  1  0  0  0  0  0  0
  190.9020  177.4630  142.5000 C   0  0  0  0  0  0  0  0  0  0  0  0
  188.5180  177.6660  143.3590 C   0  0  0  0  0  0  0  0  0  0  0  0
  191.3340  177.1550  140.1260 C   0  0  0  0  0  0  0  0  0  0  0  0
  189.4480  177.5390  142.2190 C   0  0  0  0  0  0  0  0  0  0  0  0
  190.4180  177.0590  144.9150 C   0  0  0  0  0  2  0  0  0  0  0  0
  191.7840  177.2880  141.5170 C   0  0  0  0  0  3  0  0  0  0  0  0
  186.7650  177.9610  145.5020 C   0  0  0  0  0  0  0  0  0  0  0  0
  187.2080  177.9700  143.1490 N   0  0  0  0  0  0  0  0  0  0  0  0
  191.3870  177.6720  143.9020 C   0  0  0  0  0  2  0  0  0  0  0  0
  184.5400  178.4670  146.3120 C   0  0  0  0  0  3  0  0  0  0  0  0
  188.1080  177.6390  145.7470 C   0  0  0  0  0  0  0  0  0  0  0  0
  185.8700  178.1370  146.5630 C   0  0  0  0  0  3  0  0  0  0  0  0
  192.1760  176.9130  139.2220 O   0  0  0  0  0  0  0  0  0  0  0  0
  189.8880  177.3420  139.7610 C   0  0  0  0  0  2  0  0  0  0  0  0
  188.9950  177.4980  144.6720 C   0  0  0  0  0  0  0  0  0  0  0  0
  184.0930  178.6180  145.0000 C   0  0  0  0  0  3  0  0  0  0  0  0
  186.3170  178.1140  144.1680 C   0  0  0  0  0  0  0  0  0  0  0  0
  184.4280  178.5970  142.5290 C   0  0  0  0  0  0  0  0  0  0  0  0
  183.1190  178.4150  142.3050 C   0  0  0  0  0  3  0  0  0  0  0  0
  183.4080  178.9980  139.8570 C   0  0  0  0  0  0  0  0  0  0  0  0
  185.3800  178.8430  141.3730 C   0  0  0  0  0  2  0  0  0  0  0  0
  181.3240  178.3270  140.7690 O   0  0  0  0  0  0  0  0  0  0  0  0
  182.5480  178.5540  140.9610 C   0  0  0  0  0  0  0  0  0  0  0  0
  182.8630  179.2680  138.6080 O   0  0  0  0  0  1  0  0  0  0  0  0
  184.7140  179.1630  140.0570 C   0  0  0  0  0  3  0  0  0  0  0  0
  1 20  2  0  0  0  0
  1 19  1  0  0  0  0
  2  7  2  0  0  0  0
  4 12  1  0  0  0  0
  5 18  1  0  0  0  0
  6  9  1  0  0  0  0
  7  4  1  0  0  0  0
  7  5  1  0  0  0  0
  9  4  2  0  0  0  0
 10 14  1  0  0  0  0
 10 15  2  0  0  0  0
 11  5  2  0  0  0  0
 11 20  1  0  0  0  0
 12  8  1  0  0  0  0
 13 15  1  0  0  0  0
 14  3  1  0  0  0  0
 16  6  2  0  0  0  0
 17  6  1  0  0  0  0
 17  2  1  0  0  0  0
 18  8  1  0  0  0  0
 18 14  2  0  0  0  0
 19 13  2  0  0  0  0
 20 10  1  0  0  0  0
 21  1  1  0  0  0  0
 22 21  2  0  0  0  0
 23 28  2  0  0  0  0
 23 26  1  0  0  0  0
 24 21  1  0  0  0  0
 25 26  2  0  0  0  0
 26 22  1  0  0  0  0
 27 23  1  0  0  0  0
 28 24  1  0  0  0  0
M  END
>  <MODEL>
9

>  <REMARK>
 VINA RESULT:     -11.4      1.642      2.755
  Name = 
  1 active torsions:
  status: ('A' for Active; 'I' for Inactive)
    1  A    between atoms: C_1  and  C_2
                            x       y       z     vdW  Elec       q    Type
                         _______ _______ _______ _____ _____    ______ ____

>  <TORSDO>
F 1

$$$$
