=
 OpenBabel10272400353D

 31 34  0  0  1  0  0  0  0  0999 V2000
  190.3850  177.6950  145.2610 O   0  0  0  0  0  0  0  0  0  0  0  0
  188.5800  178.7490  142.5430 C   0  0  1  0  0  3  0  0  0  0  0  0
  187.4130  178.3500  143.4300 C   0  0  0  0  0  0  0  0  0  0  0  0
  186.4470  177.5130  145.4960 C   0  0  0  0  0  3  0  0  0  0  0  0
  189.9750  178.2390  142.9250 C   0  0  1  0  0  3  0  0  0  0  0  0
  191.6010  175.8250  144.4000 C   0  0  0  0  0  2  0  0  0  0  0  0
  187.5660  177.7990  144.7090 C   0  0  0  0  0  3  0  0  0  0  0  0
  189.0060  177.2410  140.4880 C   0  0  0  0  0  0  0  0  0  0  0  0
  191.6360  177.0710  145.2720 C   0  0  0  0  0  2  0  0  0  0  0  0
  186.0120  179.1830  141.5730 C   0  0  0  0  0  2  0  0  0  0  0  0
  185.1640  177.7850  145.0120 C   0  0  0  0  0  3  0  0  0  0  0  0
  189.8140  176.5240  141.2000 N   0  0  0  0  0  0  0  0  0  0  0  0
  188.2900  178.4650  141.0360 C   0  0  1  0  0  3  0  0  0  0  0  0
  190.4860  178.7060  144.2980 C   0  0  0  0  0  2  0  0  0  0  0  0
  183.3700  178.6670  143.1650 Cl  0  0  0  0  0  0  0  0  0  0  0  0
  190.0880  176.7440  142.6050 C   0  0  1  0  0  3  0  0  0  0  0  0
  191.4740  176.1910  142.9260 C   0  0  0  0  0  2  0  0  0  0  0  0
  186.8570  178.3920  140.6810 N   0  0  0  0  0  2  0  0  0  0  0  0
  186.1250  178.6250  142.9540 C   0  0  0  0  0  0  0  0  0  0  0  0
  184.9970  178.3430  143.7410 C   0  0  0  0  0  0  0  0  0  0  0  0
  188.8400  176.9070  139.0370 C   0  0  0  0  0  2  0  0  0  0  0  0
  189.1260  178.8180  137.4300 C   0  0  0  0  0  1  0  0  0  0  0  0
  189.8260  177.6960  138.1790 C   0  0  2  0  0  3  0  0  0  0  0  0
  189.8650  176.6180  135.8970 C   0  0  0  0  0  1  0  0  0  0  0  0
  190.6200  176.7960  137.2170 C   0  0  2  0  0  3  0  0  0  0  0  0
  190.1510  174.4340  137.1980 C   0  0  0  0  0  1  0  0  0  0  0  0
  190.9340  175.4920  137.8320 N   0  0  0  0  0  0  0  0  0  0  0  0
  192.3630  175.1530  137.7020 C   0  0  0  0  0  2  0  0  0  0  0  0
  193.2860  176.3210  137.9090 C   0  0  0  0  0  0  0  0  0  0  0  0
  193.9820  176.7510  136.9530 O   0  0  0  0  0  0  0  0  0  0  0  0
  193.3680  176.9330  139.1530 O   0  0  0  0  0  1  0  0  0  0  0  0
  1  9  1  0  0  0  0
  2  5  1  0  0  0  0
  2  3  1  1  0  0  0
  3  7  1  0  0  0  0
  5 14  1  1  0  0  0
  6  9  1  0  0  0  0
  7  4  2  0  0  0  0
  8 12  2  0  0  0  0
 10 19  1  0  0  0  0
 11  4  1  0  0  0  0
 12 16  1  0  0  0  0
 13  8  1  1  0  0  0
 13  2  1  0  0  0  0
 14  1  1  0  0  0  0
 15 20  1  0  0  0  0
 16  5  1  0  0  0  0
 16 17  1  6  0  0  0
 17  6  1  0  0  0  0
 18 13  1  0  0  0  0
 18 10  1  0  0  0  0
 19  3  2  0  0  0  0
 19 20  1  0  0  0  0
 20 11  2  0  0  0  0
 21  8  1  0  0  0  0
 23 22  1  6  0  0  0
 23 21  1  0  0  0  0
 25 24  1  6  0  0  0
 25 27  1  0  0  0  0
 25 23  1  0  0  0  0
 26 27  1  0  0  0  0
 28 27  1  0  0  0  0
 28 29  1  0  0  0  0
 29 31  1  0  0  0  0
 30 29  2  0  0  0  0
M  END
>  <MODEL>
1

>  <REMARK>
 VINA RESULT:      -7.9      0.000      0.000
  Name = 
  6 active torsions:
  status: ('A' for Active; 'I' for Inactive)
    1  A    between atoms: C_1  and  C_24
    2  A    between atoms: C_9  and  C_22
    3  A    between atoms: C_9  and  C_23
    4  A    between atoms: C_15  and  C_23
    5  A    between atoms: N_19  and  C_22
    6  A    between atoms: N_19  and  C_24
                            x       y       z     vdW  Elec       q    Type
                         _______ _______ _______ _____ _____    ______ ____

>  <TORSDO>
F 6

$$$$
=
 OpenBabel10272400353D

 31 34  0  0  1  0  0  0  0  0999 V2000
  190.4100  177.7240  145.3590 O   0  0  0  0  0  0  0  0  0  0  0  0
  188.7490  178.6210  142.4970 C   0  0  1  0  0  3  0  0  0  0  0  0
  187.5360  178.3030  143.3540 C   0  0  0  0  0  0  0  0  0  0  0  0
  186.4630  177.6230  145.4240 C   0  0  0  0  0  3  0  0  0  0  0  0
  190.1160  178.1150  142.9750 C   0  0  1  0  0  3  0  0  0  0  0  0
  191.6270  175.7800  144.6820 C   0  0  0  0  0  2  0  0  0  0  0  0
  187.6210  177.8370  144.6720 C   0  0  0  0  0  3  0  0  0  0  0  0
  189.2370  176.9700  140.5690 C   0  0  0  0  0  0  0  0  0  0  0  0
  191.6470  177.0830  145.4690 C   0  0  0  0  0  2  0  0  0  0  0  0
  186.2360  179.0300  141.3820 C   0  0  0  0  0  2  0  0  0  0  0  0
  185.2090  177.8830  144.8650 C   0  0  0  0  0  3  0  0  0  0  0  0
  189.9990  176.2900  141.3640 N   0  0  0  0  0  0  0  0  0  0  0  0
  188.5220  178.2400  141.0000 C   0  0  1  0  0  3  0  0  0  0  0  0
  190.5730  178.6660  144.3360 C   0  0  0  0  0  2  0  0  0  0  0  0
  183.5160  178.6660  142.8820 Cl  0  0  0  0  0  0  0  0  0  0  0  0
  190.2140  176.6010  142.7620 C   0  0  1  0  0  3  0  0  0  0  0  0
  191.5730  176.0480  143.1820 C   0  0  0  0  0  2  0  0  0  0  0  0
  187.1050  178.1660  140.5850 N   0  0  0  0  0  2  0  0  0  0  0  0
  186.2760  178.5660  142.8010 C   0  0  0  0  0  0  0  0  0  0  0  0
  185.1090  178.3560  143.5530 C   0  0  0  0  0  0  0  0  0  0  0  0
  189.1300  176.5420  139.1380 C   0  0  0  0  0  2  0  0  0  0  0  0
  189.8540  177.7710  137.0690 C   0  0  0  0  0  1  0  0  0  0  0  0
  190.3180  177.0510  138.3250 C   0  0  2  0  0  3  0  0  0  0  0  0
  192.7400  176.5000  137.8720 C   0  0  0  0  0  1  0  0  0  0  0  0
  191.3220  175.9350  137.9870 C   0  0  2  0  0  3  0  0  0  0  0  0
  192.0880  175.0620  135.8780 C   0  0  0  0  0  1  0  0  0  0  0  0
  190.9340  175.2130  136.7600 N   0  0  0  0  0  0  0  0  0  0  0  0
  190.3980  173.8730  137.0570 C   0  0  0  0  0  2  0  0  0  0  0  0
  188.9310  173.7260  136.7650 C   0  0  0  0  0  0  0  0  0  0  0  0
  188.2990  174.6700  136.2240 O   0  0  0  0  0  0  0  0  0  0  0  0
  188.2720  172.5460  137.0840 O   0  0  0  0  0  1  0  0  0  0  0  0
  1  9  1  0  0  0  0
  2  5  1  0  0  0  0
  2  3  1  1  0  0  0
  3  7  1  0  0  0  0
  5 14  1  1  0  0  0
  6  9  1  0  0  0  0
  7  4  2  0  0  0  0
  8 12  2  0  0  0  0
 10 19  1  0  0  0  0
 11  4  1  0  0  0  0
 12 16  1  0  0  0  0
 13  8  1  1  0  0  0
 13  2  1  0  0  0  0
 14  1  1  0  0  0  0
 15 20  1  0  0  0  0
 16  5  1  0  0  0  0
 16 17  1  6  0  0  0
 17  6  1  0  0  0  0
 18 13  1  0  0  0  0
 18 10  1  0  0  0  0
 19  3  2  0  0  0  0
 19 20  1  0  0  0  0
 20 11  2  0  0  0  0
 21  8  1  0  0  0  0
 23 22  1  6  0  0  0
 23 21  1  0  0  0  0
 25 24  1  6  0  0  0
 25 23  1  0  0  0  0
 26 27  1  0  0  0  0
 27 28  1  0  0  0  0
 27 25  1  0  0  0  0
 29 28  1  0  0  0  0
 29 31  1  0  0  0  0
 30 29  2  0  0  0  0
M  END
>  <MODEL>
2

>  <REMARK>
 VINA RESULT:      -7.3      1.790      2.160
  Name = 
  6 active torsions:
  status: ('A' for Active; 'I' for Inactive)
    1  A    between atoms: C_1  and  C_24
    2  A    between atoms: C_9  and  C_22
    3  A    between atoms: C_9  and  C_23
    4  A    between atoms: C_15  and  C_23
    5  A    between atoms: N_19  and  C_22
    6  A    between atoms: N_19  and  C_24
                            x       y       z     vdW  Elec       q    Type
                         _______ _______ _______ _____ _____    ______ ____

>  <TORSDO>
F 6

$$$$
=
 OpenBabel10272400353D

 31 34  0  0  1  0  0  0  0  0999 V2000
  184.2020  179.2320  143.8560 O   0  0  0  0  0  0  0  0  0  0  0  0
  186.5660  179.0010  141.3830 C   0  0  1  0  0  3  0  0  0  0  0  0
  185.3810  178.4730  140.5930 C   0  0  0  0  0  0  0  0  0  0  0  0
  183.0410  177.8780  140.3330 C   0  0  0  0  0  3  0  0  0  0  0  0
  186.4380  179.0610  142.9100 C   0  0  1  0  0  3  0  0  0  0  0  0
  185.0030  177.6950  145.5030 C   0  0  0  0  0  2  0  0  0  0  0  0
  184.1000  178.3110  141.1350 C   0  0  0  0  0  3  0  0  0  0  0  0
  188.3890  177.2710  141.9820 C   0  0  0  0  0  0  0  0  0  0  0  0
  184.3780  179.0560  145.2310 C   0  0  0  0  0  2  0  0  0  0  0  0
  186.9760  178.3650  138.7090 C   0  0  0  0  0  2  0  0  0  0  0  0
  183.2530  177.6120  138.9780 C   0  0  0  0  0  3  0  0  0  0  0  0
  187.7750  177.0310  143.0970 N   0  0  0  0  0  0  0  0  0  0  0  0
  187.8990  178.2980  140.9760 C   0  0  1  0  0  3  0  0  0  0  0  0
  185.3150  179.9700  143.4340 C   0  0  0  0  0  2  0  0  0  0  0  0
  184.7560  177.4270  136.7160 Cl  0  0  0  0  0  0  0  0  0  0  0  0
  186.5270  177.6470  143.4950 C   0  0  1  0  0  3  0  0  0  0  0  0
  186.4480  177.6500  145.0190 C   0  0  0  0  0  2  0  0  0  0  0  0
  187.8980  177.6970  139.6260 N   0  0  0  0  0  2  0  0  0  0  0  0
  185.5870  178.2090  139.2330 C   0  0  0  0  0  0  0  0  0  0  0  0
  184.5250  177.7770  138.4210 C   0  0  0  0  0  0  0  0  0  0  0  0
  189.6880  176.5740  141.7160 C   0  0  0  0  0  2  0  0  0  0  0  0
  191.7880  177.6370  140.8350 C   0  0  0  0  0  1  0  0  0  0  0  0
  190.8720  177.4830  142.0380 C   0  0  2  0  0  3  0  0  0  0  0  0
  191.3310  175.5540  143.5990 C   0  0  0  0  0  1  0  0  0  0  0  0
  191.6540  177.0150  143.2770 C   0  0  2  0  0  3  0  0  0  0  0  0
  190.9640  179.2080  143.9920 C   0  0  0  0  0  1  0  0  0  0  0  0
  191.3980  177.8870  144.4390 N   0  0  0  0  0  0  0  0  0  0  0  0
  190.3590  177.3320  145.3240 C   0  0  0  0  0  2  0  0  0  0  0  0
  190.8270  177.0840  146.7310 C   0  0  0  0  0  0  0  0  0  0  0  0
  192.0190  176.7430  146.9470 O   0  0  0  0  0  0  0  0  0  0  0  0
  189.9490  177.2390  147.7950 O   0  0  0  0  0  1  0  0  0  0  0  0
  1  9  1  0  0  0  0
  2  3  1  6  0  0  0
  2  5  1  0  0  0  0
  3  7  1  0  0  0  0
  4  7  2  0  0  0  0
  5 14  1  6  0  0  0
  5 16  1  0  0  0  0
  8 12  2  0  0  0  0
  9  6  1  0  0  0  0
 10 19  1  0  0  0  0
 10 18  1  0  0  0  0
 11  4  1  0  0  0  0
 12 16  1  0  0  0  0
 13 18  1  6  0  0  0
 13  2  1  0  0  0  0
 13  8  1  0  0  0  0
 14  1  1  0  0  0  0
 15 20  1  0  0  0  0
 16 17  1  1  0  0  0
 17  6  1  0  0  0  0
 19  3  2  0  0  0  0
 20 11  2  0  0  0  0
 20 19  1  0  0  0  0
 21  8  1  0  0  0  0
 21 23  1  0  0  0  0
 23 22  1  6  0  0  0
 23 25  1  0  0  0  0
 25 24  1  1  0  0  0
 25 27  1  0  0  0  0
 26 27  1  0  0  0  0
 27 28  1  0  0  0  0
 28 29  1  0  0  0  0
 29 30  2  0  0  0  0
 29 31  1  0  0  0  0
M  END
>  <MODEL>
3

>  <REMARK>
 VINA RESULT:      -7.3      3.472      5.885
  Name = 
  6 active torsions:
  status: ('A' for Active; 'I' for Inactive)
    1  A    between atoms: C_1  and  C_24
    2  A    between atoms: C_9  and  C_22
    3  A    between atoms: C_9  and  C_23
    4  A    between atoms: C_15  and  C_23
    5  A    between atoms: N_19  and  C_22
    6  A    between atoms: N_19  and  C_24
                            x       y       z     vdW  Elec       q    Type
                         _______ _______ _______ _____ _____    ______ ____

>  <TORSDO>
F 6

$$$$
=
 OpenBabel10272400353D

 31 34  0  0  1  0  0  0  0  0999 V2000
  181.1860  178.2580  138.4270 O   0  0  0  0  0  0  0  0  0  0  0  0
  184.4950  178.9730  138.9680 C   0  0  1  0  0  3  0  0  0  0  0  0
  184.6850  177.7520  138.0840 C   0  0  0  0  0  0  0  0  0  0  0  0
  183.8690  175.9220  136.7110 C   0  0  0  0  0  3  0  0  0  0  0  0
  183.1080  179.2050  139.5800 C   0  0  1  0  0  3  0  0  0  0  0  0
  180.3910  177.7270  140.6180 C   0  0  0  0  0  2  0  0  0  0  0  0
  183.6230  176.9980  137.5690 C   0  0  0  0  0  3  0  0  0  0  0  0
  185.1270  178.6780  141.4560 C   0  0  0  0  0  0  0  0  0  0  0  0
  180.1130  178.4410  139.3040 C   0  0  0  0  0  2  0  0  0  0  0  0
  187.0960  178.2380  138.3190 C   0  0  0  0  0  2  0  0  0  0  0  0
  185.1800  175.5980  136.3540 C   0  0  0  0  0  3  0  0  0  0  0  0
  183.9070  178.3270  141.7100 N   0  0  0  0  0  0  0  0  0  0  0  0
  185.5990  179.0740  140.0670 C   0  0  1  0  0  3  0  0  0  0  0  0
  181.9730  179.4070  138.5630 C   0  0  0  0  0  2  0  0  0  0  0  0
  187.8840  175.9070  136.3890 Cl  0  0  0  0  0  0  0  0  0  0  0  0
  182.8650  178.2000  140.7120 C   0  0  1  0  0  3  0  0  0  0  0  0
  181.5130  178.4120  141.3880 C   0  0  0  0  0  2  0  0  0  0  0  0
  186.8550  178.3590  139.7560 N   0  0  0  0  0  2  0  0  0  0  0  0
  185.9970  177.4250  137.7190 C   0  0  0  0  0  0  0  0  0  0  0  0
  186.2490  176.3470  136.8540 C   0  0  0  0  0  0  0  0  0  0  0  0
  186.0930  178.7900  142.5960 C   0  0  0  0  0  2  0  0  0  0  0  0
  184.9110  179.2870  144.7580 C   0  0  0  0  0  1  0  0  0  0  0  0
  185.5000  178.1990  143.8740 C   0  0  2  0  0  3  0  0  0  0  0  0
  186.5700  177.7660  146.1180 C   0  0  0  0  0  1  0  0  0  0  0  0
  186.5110  177.3380  144.6490 C   0  0  2  0  0  3  0  0  0  0  0  0
  188.8700  177.6200  145.0420 C   0  0  0  0  0  1  0  0  0  0  0  0
  187.8470  177.3820  144.0260 N   0  0  0  0  0  0  0  0  0  0  0  0
  188.1710  176.1250  143.3290 C   0  0  0  0  0  2  0  0  0  0  0  0
  189.4550  176.1750  142.5490 C   0  0  0  0  0  0  0  0  0  0  0  0
  190.4050  175.4060  142.8490 O   0  0  0  0  0  1  0  0  0  0  0  0
  189.5930  177.0630  141.4910 O   0  0  0  0  0  0  0  0  0  0  0  0
  1 14  1  0  0  0  0
  1  9  1  0  0  0  0
  2  3  1  1  0  0  0
  2  5  1  0  0  0  0
  2 13  1  0  0  0  0
  4  7  1  0  0  0  0
  5 14  1  6  0  0  0
  5 16  1  0  0  0  0
  6 17  1  0  0  0  0
  7  3  2  0  0  0  0
  8 12  2  0  0  0  0
  8 21  1  0  0  0  0
  9  6  1  0  0  0  0
 10 18  1  0  0  0  0
 11  4  2  0  0  0  0
 11 20  1  0  0  0  0
 13 18  1  6  0  0  0
 13  8  1  0  0  0  0
 15 20  1  0  0  0  0
 16 17  1  1  0  0  0
 16 12  1  0  0  0  0
 19  3  1  0  0  0  0
 19 10  1  0  0  0  0
 20 19  2  0  0  0  0
 21 23  1  0  0  0  0
 23 25  1  0  0  0  0
 23 22  1  1  0  0  0
 25 24  1  1  0  0  0
 27 25  1  0  0  0  0
 27 26  1  0  0  0  0
 28 27  1  0  0  0  0
 29 30  1  0  0  0  0
 29 28  1  0  0  0  0
 31 29  2  0  0  0  0
M  END
>  <MODEL>
4

>  <REMARK>
 VINA RESULT:      -7.3      4.175      7.879
  Name = 
  6 active torsions:
  status: ('A' for Active; 'I' for Inactive)
    1  A    between atoms: C_1  and  C_24
    2  A    between atoms: C_9  and  C_22
    3  A    between atoms: C_9  and  C_23
    4  A    between atoms: C_15  and  C_23
    5  A    between atoms: N_19  and  C_22
    6  A    between atoms: N_19  and  C_24
                            x       y       z     vdW  Elec       q    Type
                         _______ _______ _______ _____ _____    ______ ____

>  <TORSDO>
F 6

$$$$
=
 OpenBabel10272400353D

 31 34  0  0  1  0  0  0  0  0999 V2000
  188.0810  177.5910  147.3580 O   0  0  0  0  0  0  0  0  0  0  0  0
  187.5120  176.9960  144.0290 C   0  0  1  0  0  3  0  0  0  0  0  0
  188.9540  177.4590  143.9180 C   0  0  0  0  0  0  0  0  0  0  0  0
  191.0610  178.2330  144.8480 C   0  0  0  0  0  3  0  0  0  0  0  0
  186.7630  177.2970  145.3330 C   0  0  1  0  0  3  0  0  0  0  0  0
  186.5530  179.3630  147.8510 C   0  0  0  0  0  2  0  0  0  0  0  0
  189.7190  177.8790  145.0140 C   0  0  0  0  0  3  0  0  0  0  0  0
  185.7300  178.6060  143.0760 C   0  0  0  0  0  0  0  0  0  0  0  0
  187.1730  178.0530  148.3150 C   0  0  0  0  0  2  0  0  0  0  0  0
  188.6900  176.9620  141.5120 C   0  0  0  0  0  2  0  0  0  0  0  0
  191.6510  178.1610  143.5840 C   0  0  0  0  0  3  0  0  0  0  0  0
  185.6250  179.1570  144.2430 N   0  0  0  0  0  0  0  0  0  0  0  0
  186.6610  177.4380  142.7980 C   0  0  1  0  0  3  0  0  0  0  0  0
  187.3680  176.6590  146.5940 C   0  0  0  0  0  2  0  0  0  0  0  0
  191.6770  177.6630  140.9070 Cl  0  0  0  0  0  0  0  0  0  0  0  0
  186.4140  178.7880  145.4000 C   0  0  1  0  0  3  0  0  0  0  0  0
  185.6280  179.1390  146.6600 C   0  0  0  0  0  2  0  0  0  0  0  0
  187.4380  177.7150  141.5710 N   0  0  0  0  0  2  0  0  0  0  0  0
  189.5540  177.3840  142.6540 C   0  0  0  0  0  0  0  0  0  0  0  0
  190.9030  177.7360  142.4820 C   0  0  0  0  0  0  0  0  0  0  0  0
  184.8280  179.0770  141.9770 C   0  0  0  0  0  2  0  0  0  0  0  0
  183.3150  177.6700  140.5470 C   0  0  0  0  0  1  0  0  0  0  0  0
  183.5440  178.2520  141.9320 C   0  0  2  0  0  3  0  0  0  0  0  0
  182.0540  178.7880  143.8980 C   0  0  0  0  0  1  0  0  0  0  0  0
  182.3170  179.0450  142.4110 C   0  0  2  0  0  3  0  0  0  0  0  0
  180.1450  178.0060  142.3950 C   0  0  0  0  0  1  0  0  0  0  0  0
  181.1250  178.7390  141.5980 N   0  0  0  0  0  0  0  0  0  0  0  0
  180.4820  179.9620  141.0830 C   0  0  0  0  0  2  0  0  0  0  0  0
  180.6190  180.1410  139.5970 C   0  0  0  0  0  0  0  0  0  0  0  0
  180.6130  179.1370  138.8380 O   0  0  0  0  0  0  0  0  0  0  0  0
  180.7440  181.4140  139.0570 O   0  0  0  0  0  1  0  0  0  0  0  0
  1  9  1  0  0  0  0
  2  3  1  1  0  0  0
  2  5  1  0  0  0  0
  3  7  1  0  0  0  0
  4  7  2  0  0  0  0
  5 16  1  0  0  0  0
  5 14  1  1  0  0  0
  6  9  1  0  0  0  0
  8 12  2  0  0  0  0
 10 18  1  0  0  0  0
 10 19  1  0  0  0  0
 11  4  1  0  0  0  0
 12 16  1  0  0  0  0
 13 18  1  6  0  0  0
 13  8  1  0  0  0  0
 13  2  1  0  0  0  0
 14  1  1  0  0  0  0
 15 20  1  0  0  0  0
 16 17  1  1  0  0  0
 17  6  1  0  0  0  0
 19  3  2  0  0  0  0
 20 19  1  0  0  0  0
 20 11  2  0  0  0  0
 21  8  1  0  0  0  0
 23 22  1  6  0  0  0
 23 21  1  0  0  0  0
 23 25  1  0  0  0  0
 25 24  1  1  0  0  0
 27 26  1  0  0  0  0
 27 25  1  0  0  0  0
 28 27  1  0  0  0  0
 29 28  1  0  0  0  0
 30 29  2  0  0  0  0
 31 29  1  0  0  0  0
M  END
>  <MODEL>
5

>  <REMARK>
 VINA RESULT:      -7.0      4.345      7.681
  Name = 
  6 active torsions:
  status: ('A' for Active; 'I' for Inactive)
    1  A    between atoms: C_1  and  C_24
    2  A    between atoms: C_9  and  C_22
    3  A    between atoms: C_9  and  C_23
    4  A    between atoms: C_15  and  C_23
    5  A    between atoms: N_19  and  C_22
    6  A    between atoms: N_19  and  C_24
                            x       y       z     vdW  Elec       q    Type
                         _______ _______ _______ _____ _____    ______ ____

>  <TORSDO>
F 6

$$$$
=
 OpenBabel10272400353D

 31 34  0  0  1  0  0  0  0  0999 V2000
  187.4370  177.6380  146.6910 O   0  0  0  0  0  0  0  0  0  0  0  0
  187.4140  177.1350  143.2990 C   0  0  1  0  0  3  0  0  0  0  0  0
  188.8570  177.5880  143.4360 C   0  0  0  0  0  0  0  0  0  0  0  0
  190.7880  178.3190  144.7150 C   0  0  0  0  0  3  0  0  0  0  0  0
  186.4640  177.4090  144.4720 C   0  0  1  0  0  3  0  0  0  0  0  0
  185.8580  179.4110  146.9770 C   0  0  0  0  0  2  0  0  0  0  0  0
  189.4360  177.9720  144.6520 C   0  0  0  0  0  3  0  0  0  0  0  0
  185.8170  178.7850  142.1140 C   0  0  0  0  0  0  0  0  0  0  0  0
  186.3880  178.0840  147.5000 C   0  0  0  0  0  2  0  0  0  0  0  0
  188.9840  177.1560  141.0060 C   0  0  0  0  0  2  0  0  0  0  0  0
  191.5760  178.2750  143.5620 C   0  0  0  0  0  3  0  0  0  0  0  0
  185.5270  179.3070  143.2630 N   0  0  0  0  0  0  0  0  0  0  0  0
  186.7760  177.6170  141.9580 C   0  0  1  0  0  3  0  0  0  0  0  0
  186.8530  176.7330  145.7970 C   0  0  0  0  0  2  0  0  0  0  0  0
  192.0330  177.8470  140.9130 Cl  0  0  0  0  0  0  0  0  0  0  0  0
  186.1160  178.9010  144.5220 C   0  0  1  0  0  3  0  0  0  0  0  0
  185.1370  179.2260  145.6460 C   0  0  0  0  0  2  0  0  0  0  0  0
  187.7430  177.9190  140.8820 N   0  0  0  0  0  2  0  0  0  0  0  0
  189.6530  177.5410  142.2840 C   0  0  0  0  0  0  0  0  0  0  0  0
  191.0140  177.8850  142.3420 C   0  0  0  0  0  0  0  0  0  0  0  0
  185.1080  179.2930  140.8960 C   0  0  0  0  0  2  0  0  0  0  0  0
  184.8840  178.4740  138.5310 C   0  0  0  0  0  1  0  0  0  0  0  0
  184.6690  178.1390  139.9980 C   0  0  2  0  0  3  0  0  0  0  0  0
  182.6370  176.9870  139.0410 C   0  0  0  0  0  1  0  0  0  0  0  0
  183.2180  177.7050  140.2620 C   0  0  2  0  0  3  0  0  0  0  0  0
  181.7360  179.4360  139.4830 C   0  0  0  0  0  1  0  0  0  0  0  0
  182.3760  178.8500  140.6580 N   0  0  0  0  0  0  0  0  0  0  0  0
  181.3220  178.4550  141.6100 C   0  0  0  0  0  2  0  0  0  0  0  0
  181.3090  179.2680  142.8740 C   0  0  0  0  0  0  0  0  0  0  0  0
  180.5820  180.2910  142.9570 O   0  0  0  0  0  0  0  0  0  0  0  0
  182.0920  178.8860  143.9560 O   0  0  0  0  0  1  0  0  0  0  0  0
  1  9  1  0  0  0  0
  2  3  1  1  0  0  0
  2  5  1  0  0  0  0
  3  7  1  0  0  0  0
  5 16  1  0  0  0  0
  5 14  1  1  0  0  0
  6  9  1  0  0  0  0
  7  4  2  0  0  0  0
  8 12  2  0  0  0  0
 10 19  1  0  0  0  0
 11  4  1  0  0  0  0
 12 16  1  0  0  0  0
 13 18  1  6  0  0  0
 13  8  1  0  0  0  0
 13  2  1  0  0  0  0
 14  1  1  0  0  0  0
 15 20  1  0  0  0  0
 16 17  1  1  0  0  0
 17  6  1  0  0  0  0
 18 10  1  0  0  0  0
 19 20  1  0  0  0  0
 19  3  2  0  0  0  0
 20 11  2  0  0  0  0
 21  8  1  0  0  0  0
 23 22  1  6  0  0  0
 23 25  1  0  0  0  0
 23 21  1  0  0  0  0
 25 24  1  6  0  0  0
 25 27  1  0  0  0  0
 26 27  1  0  0  0  0
 27 28  1  0  0  0  0
 28 29  1  0  0  0  0
 29 30  2  0  0  0  0
 29 31  1  0  0  0  0
M  END
>  <MODEL>
6

>  <REMARK>
 VINA RESULT:      -6.9      4.151      7.148
  Name = 
  6 active torsions:
  status: ('A' for Active; 'I' for Inactive)
    1  A    between atoms: C_1  and  C_24
    2  A    between atoms: C_9  and  C_22
    3  A    between atoms: C_9  and  C_23
    4  A    between atoms: C_15  and  C_23
    5  A    between atoms: N_19  and  C_22
    6  A    between atoms: N_19  and  C_24
                            x       y       z     vdW  Elec       q    Type
                         _______ _______ _______ _____ _____    ______ ____

>  <TORSDO>
F 6

$$$$
=
 OpenBabel10272400353D

 31 34  0  0  1  0  0  0  0  0999 V2000
  184.9920  178.2690  145.4170 O   0  0  0  0  0  0  0  0  0  0  0  0
  187.4870  176.8460  143.5450 C   0  0  1  0  0  3  0  0  0  0  0  0
  188.3090  177.1730  144.7800 C   0  0  0  0  0  0  0  0  0  0  0  0
  188.5870  178.0350  147.0330 C   0  0  0  0  0  3  0  0  0  0  0  0
  186.1220  177.5290  143.3930 C   0  0  1  0  0  3  0  0  0  0  0  0
  184.3990  180.1990  144.1360 C   0  0  0  0  0  2  0  0  0  0  0  0
  187.7880  177.8210  145.9070 C   0  0  0  0  0  3  0  0  0  0  0  0
  188.0010  178.2510  141.4380 C   0  0  0  0  0  0  0  0  0  0  0  0
  183.9050  179.0240  144.9670 C   0  0  0  0  0  2  0  0  0  0  0  0
  190.1560  176.0710  143.5630 C   0  0  0  0  0  2  0  0  0  0  0  0
  189.9130  177.5930  147.0450 C   0  0  0  0  0  3  0  0  0  0  0  0
  187.0910  179.0990  141.7990 N   0  0  0  0  0  0  0  0  0  0  0  0
  188.3200  176.9960  142.2330 C   0  0  1  0  0  3  0  0  0  0  0  0
  185.1090  177.2130  144.5050 C   0  0  0  0  0  2  0  0  0  0  0  0
  192.1150  176.4010  145.9780 Cl  0  0  0  0  0  0  0  0  0  0  0  0
  186.3170  179.0030  143.0190 C   0  0  1  0  0  3  0  0  0  0  0  0
  184.9880  179.7240  142.8130 C   0  0  0  0  0  2  0  0  0  0  0  0
  189.7830  176.8890  142.4100 N   0  0  0  0  0  2  0  0  0  0  0  0
  189.6370  176.7280  144.7990 C   0  0  0  0  0  0  0  0  0  0  0  0
  190.4440  176.9380  145.9300 C   0  0  0  0  0  0  0  0  0  0  0  0
  188.7050  178.4680  140.1340 C   0  0  0  0  0  2  0  0  0  0  0  0
  190.1470  177.0230  138.6690 C   0  0  0  0  0  1  0  0  0  0  0  0
  188.7890  177.1690  139.3360 C   0  0  2  0  0  3  0  0  0  0  0  0
  188.1390  176.3170  137.0510 C   0  0  0  0  0  1  0  0  0  0  0  0
  187.6490  177.0310  138.3130 C   0  0  2  0  0  3  0  0  0  0  0  0
  187.5950  178.8410  136.7270 C   0  0  0  0  0  1  0  0  0  0  0  0
  187.0540  178.3410  137.9880 N   0  0  0  0  0  0  0  0  0  0  0  0
  185.5870  178.2640  137.8650 C   0  0  0  0  0  2  0  0  0  0  0  0
  184.8490  178.7780  139.0690 C   0  0  0  0  0  0  0  0  0  0  0  0
  184.6900  180.0160  139.2300 O   0  0  0  0  0  0  0  0  0  0  0  0
  184.3330  177.8880  140.0030 O   0  0  0  0  0  1  0  0  0  0  0  0
  2  3  1  1  0  0  0
  3 19  2  0  0  0  0
  3  7  1  0  0  0  0
  4 11  1  0  0  0  0
  5  2  1  0  0  0  0
  5 14  1  1  0  0  0
  6  9  1  0  0  0  0
  7  4  2  0  0  0  0
  8 12  2  0  0  0  0
  9  1  1  0  0  0  0
 10 19  1  0  0  0  0
 12 16  1  0  0  0  0
 13  8  1  1  0  0  0
 13 18  1  0  0  0  0
 13  2  1  0  0  0  0
 14  1  1  0  0  0  0
 16 17  1  6  0  0  0
 16  5  1  0  0  0  0
 17  6  1  0  0  0  0
 18 10  1  0  0  0  0
 19 20  1  0  0  0  0
 20 15  1  0  0  0  0
 20 11  2  0  0  0  0
 21  8  1  0  0  0  0
 23 22  1  6  0  0  0
 23 21  1  0  0  0  0
 25 24  1  6  0  0  0
 25 23  1  0  0  0  0
 26 27  1  0  0  0  0
 27 25  1  0  0  0  0
 28 27  1  0  0  0  0
 28 29  1  0  0  0  0
 29 30  2  0  0  0  0
 29 31  1  0  0  0  0
M  END
>  <MODEL>
7

>  <REMARK>
 VINA RESULT:      -6.9      3.594      5.497
  Name = 
  6 active torsions:
  status: ('A' for Active; 'I' for Inactive)
    1  A    between atoms: C_1  and  C_24
    2  A    between atoms: C_9  and  C_22
    3  A    between atoms: C_9  and  C_23
    4  A    between atoms: C_15  and  C_23
    5  A    between atoms: N_19  and  C_22
    6  A    between atoms: N_19  and  C_24
                            x       y       z     vdW  Elec       q    Type
                         _______ _______ _______ _____ _____    ______ ____

>  <TORSDO>
F 6

$$$$
=
 OpenBabel10272400353D

 31 34  0  0  1  0  0  0  0  0999 V2000
  185.4870  178.1020  144.5400 O   0  0  0  0  0  0  0  0  0  0  0  0
  188.2640  176.5230  143.2950 C   0  0  1  0  0  3  0  0  0  0  0  0
  188.8400  176.9380  144.6380 C   0  0  0  0  0  0  0  0  0  0  0  0
  188.6980  177.9680  146.8330 C   0  0  0  0  0  3  0  0  0  0  0  0
  186.9690  177.2020  142.8320 C   0  0  1  0  0  3  0  0  0  0  0  0
  185.1930  179.9330  143.0290 C   0  0  0  0  0  2  0  0  0  0  0  0
  188.1270  177.6740  145.5920 C   0  0  0  0  0  3  0  0  0  0  0  0
  189.2040  177.7600  141.2300 C   0  0  0  0  0  0  0  0  0  0  0  0
  184.5230  178.8290  143.8340 C   0  0  0  0  0  2  0  0  0  0  0  0
  190.8620  175.7330  143.8860 C   0  0  0  0  0  2  0  0  0  0  0  0
  189.9870  177.5190  147.1330 C   0  0  0  0  0  3  0  0  0  0  0  0
  188.2600  178.6380  141.3440 N   0  0  0  0  0  0  0  0  0  0  0  0
  189.3360  176.5670  142.1620 C   0  0  1  0  0  3  0  0  0  0  0  0
  185.7540  176.9790  143.7480 C   0  0  0  0  0  2  0  0  0  0  0  0
  192.3270  176.2330  146.6030 Cl  0  0  0  0  0  0  0  0  0  0  0  0
  187.2630  178.6410  142.3960 C   0  0  1  0  0  3  0  0  0  0  0  0
  186.0150  179.3540  141.8840 C   0  0  0  0  0  2  0  0  0  0  0  0
  190.7360  176.4630  142.6250 N   0  0  0  0  0  2  0  0  0  0  0  0
  190.1300  176.4870  144.9470 C   0  0  0  0  0  0  0  0  0  0  0  0
  190.7080  176.7760  146.1930 C   0  0  0  0  0  0  0  0  0  0  0  0
  190.1500  177.8710  140.0740 C   0  0  0  0  0  2  0  0  0  0  0  0
  191.1730  176.1340  138.5740 C   0  0  0  0  0  1  0  0  0  0  0  0
  189.8790  176.7810  139.0390 C   0  0  2  0  0  3  0  0  0  0  0  0
  189.1740  178.8150  137.7210 C   0  0  0  0  0  1  0  0  0  0  0  0
  189.0540  177.2940  137.8470 C   0  0  2  0  0  3  0  0  0  0  0  0
  186.7720  178.0480  137.9970 C   0  0  0  0  0  1  0  0  0  0  0  0
  187.6430  176.8760  137.9460 N   0  0  0  0  0  0  0  0  0  0  0  0
  187.2340  176.0430  136.8010 C   0  0  0  0  0  2  0  0  0  0  0  0
  187.3620  174.5660  137.0470 C   0  0  0  0  0  0  0  0  0  0  0  0
  188.4810  174.0030  136.9310 O   0  0  0  0  0  0  0  0  0  0  0  0
  186.2480  173.8210  137.4110 O   0  0  0  0  0  1  0  0  0  0  0  0
  2  3  1  1  0  0  0
  3 19  2  0  0  0  0
  3  7  1  0  0  0  0
  4 11  1  0  0  0  0
  5  2  1  0  0  0  0
  5 14  1  1  0  0  0
  6  9  1  0  0  0  0
  7  4  2  0  0  0  0
  8 12  2  0  0  0  0
  9  1  1  0  0  0  0
 10 19  1  0  0  0  0
 12 16  1  0  0  0  0
 13  8  1  1  0  0  0
 13 18  1  0  0  0  0
 13  2  1  0  0  0  0
 14  1  1  0  0  0  0
 16 17  1  6  0  0  0
 16  5  1  0  0  0  0
 17  6  1  0  0  0  0
 18 10  1  0  0  0  0
 19 20  1  0  0  0  0
 20 15  1  0  0  0  0
 20 11  2  0  0  0  0
 21  8  1  0  0  0  0
 23 22  1  6  0  0  0
 23 21  1  0  0  0  0
 25 24  1  1  0  0  0
 25 27  1  0  0  0  0
 25 23  1  0  0  0  0
 27 26  1  0  0  0  0
 28 29  1  0  0  0  0
 28 27  1  0  0  0  0
 29 31  1  0  0  0  0
 30 29  2  0  0  0  0
M  END
>  <MODEL>
8

>  <REMARK>
 VINA RESULT:      -6.8      3.128      4.925
  Name = 
  6 active torsions:
  status: ('A' for Active; 'I' for Inactive)
    1  A    between atoms: C_1  and  C_24
    2  A    between atoms: C_9  and  C_22
    3  A    between atoms: C_9  and  C_23
    4  A    between atoms: C_15  and  C_23
    5  A    between atoms: N_19  and  C_22
    6  A    between atoms: N_19  and  C_24
                            x       y       z     vdW  Elec       q    Type
                         _______ _______ _______ _____ _____    ______ ____

>  <TORSDO>
F 6

$$$$
=
 OpenBabel10272400353D

 31 34  0  0  1  0  0  0  0  0999 V2000
  188.9210  177.9360  147.7340 O   0  0  0  0  0  0  0  0  0  0  0  0
  188.2130  176.7350  144.6020 C   0  0  1  0  0  3  0  0  0  0  0  0
  189.5010  177.4650  144.2620 C   0  0  0  0  0  0  0  0  0  0  0  0
  191.4540  178.7930  144.8290 C   0  0  0  0  0  3  0  0  0  0  0  0
  187.5310  177.0690  145.9350 C   0  0  1  0  0  3  0  0  0  0  0  0
  187.0850  179.4050  148.1690 C   0  0  0  0  0  2  0  0  0  0  0  0
  190.2450  178.1970  145.1960 C   0  0  0  0  0  3  0  0  0  0  0  0
  186.0410  177.7740  143.6640 C   0  0  0  0  0  0  0  0  0  0  0  0
  188.0190  178.3400  148.7230 C   0  0  0  0  0  2  0  0  0  0  0  0
  189.1460  176.5630  141.9900 C   0  0  0  0  0  2  0  0  0  0  0  0
  191.9340  178.6530  143.5240 C   0  0  0  0  0  3  0  0  0  0  0  0
  185.9170  178.4630  144.7530 N   0  0  0  0  0  0  0  0  0  0  0  0
  187.1810  176.7970  143.4320 C   0  0  1  0  0  3  0  0  0  0  0  0
  188.3700  176.7710  147.1880 C   0  0  0  0  0  2  0  0  0  0  0  0
  191.8380  177.7690  140.9510 Cl  0  0  0  0  0  0  0  0  0  0  0  0
  186.8660  178.4470  145.8470 C   0  0  1  0  0  3  0  0  0  0  0  0
  186.1340  178.8150  147.1340 C   0  0  0  0  0  2  0  0  0  0  0  0
  187.7680  177.0390  142.0970 N   0  0  0  0  0  2  0  0  0  0  0  0
  189.9900  177.3250  142.9570 C   0  0  0  0  0  0  0  0  0  0  0  0
  191.2060  177.9190  142.5830 C   0  0  0  0  0  0  0  0  0  0  0  0
  184.9650  177.8740  142.6270 C   0  0  0  0  0  2  0  0  0  0  0  0
  183.2440  178.6090  144.3040 C   0  0  0  0  0  1  0  0  0  0  0  0
  183.9460  178.9490  142.9990 C   0  0  2  0  0  3  0  0  0  0  0  0
  181.5040  178.9310  142.3560 C   0  0  0  0  0  1  0  0  0  0  0  0
  182.9300  179.2120  141.8740 C   0  0  2  0  0  3  0  0  0  0  0  0
  182.0390  177.8050  140.1350 C   0  0  0  0  0  1  0  0  0  0  0  0
  183.2490  178.4290  140.6650 N   0  0  0  0  0  0  0  0  0  0  0  0
  183.8390  179.2680  139.6070 C   0  0  0  0  0  2  0  0  0  0  0  0
  184.9900  178.6210  138.8890 C   0  0  0  0  0  0  0  0  0  0  0  0
  184.8040  178.0600  137.7780 O   0  0  0  0  0  0  0  0  0  0  0  0
  186.2620  178.6480  139.4440 O   0  0  0  0  0  1  0  0  0  0  0  0
  1  9  1  0  0  0  0
  2  3  1  6  0  0  0
  2  5  1  0  0  0  0
  3  7  1  0  0  0  0
  4  7  2  0  0  0  0
  5 14  1  1  0  0  0
  6  9  1  0  0  0  0
  8 12  2  0  0  0  0
 10 18  1  0  0  0  0
 10 19  1  0  0  0  0
 11  4  1  0  0  0  0
 12 16  1  0  0  0  0
 13 18  1  6  0  0  0
 13  8  1  0  0  0  0
 13  2  1  0  0  0  0
 14  1  1  0  0  0  0
 15 20  1  0  0  0  0
 16  5  1  0  0  0  0
 16 17  1  1  0  0  0
 17  6  1  0  0  0  0
 19  3  2  0  0  0  0
 20 19  1  0  0  0  0
 20 11  2  0  0  0  0
 21 23  1  0  0  0  0
 21  8  1  0  0  0  0
 23 22  1  1  0  0  0
 25 24  1  1  0  0  0
 25 23  1  0  0  0  0
 26 27  1  0  0  0  0
 27 25  1  0  0  0  0
 28 27  1  0  0  0  0
 29 31  1  0  0  0  0
 29 28  1  0  0  0  0
 30 29  2  0  0  0  0
M  END
>  <MODEL>
9

>  <REMARK>
 VINA RESULT:      -6.8      3.957      6.599
  Name = 
  6 active torsions:
  status: ('A' for Active; 'I' for Inactive)
    1  A    between atoms: C_1  and  C_24
    2  A    between atoms: C_9  and  C_22
    3  A    between atoms: C_9  and  C_23
    4  A    between atoms: C_15  and  C_23
    5  A    between atoms: N_19  and  C_22
    6  A    between atoms: N_19  and  C_24
                            x       y       z     vdW  Elec       q    Type
                         _______ _______ _______ _____ _____    ______ ____

>  <TORSDO>
F 6

$$$$
