=
 OpenBabel10262423523D

 34 39  0  0  1  0  0  0  0  0999 V2000
  184.3230  178.7020  144.2670 C   0  0  0  0  0  0  0  0  0  0  0  0
  184.4200  177.9360  141.9620 C   0  0  0  0  0  3  0  0  0  0  0  0
  186.3240  177.3370  143.5170 C   0  0  2  0  0  3  0  0  0  0  0  0
  188.5380  176.4560  142.7250 N   0  0  1  0  0  0  0  0  0  0  0  0
  182.5050  179.1920  142.7400 C   0  0  0  0  0  3  0  0  0  0  0  0
  183.1720  178.5130  141.7180 C   0  0  0  0  0  3  0  0  0  0  0  0
  187.7770  178.4050  141.6470 C   0  0  0  0  0  0  0  0  0  0  0  0
  185.0250  178.0530  143.2230 C   0  0  0  0  0  0  0  0  0  0  0  0
  189.4770  176.7940  141.6480 C   0  0  0  0  0  2  0  0  0  0  0  0
  183.0790  179.2850  144.0100 C   0  0  0  0  0  3  0  0  0  0  0  0
  187.0130  177.8260  144.7800 C   0  0  2  0  0  3  0  0  0  0  0  0
  184.9180  178.8500  145.6430 C   0  0  0  0  0  2  0  0  0  0  0  0
  187.1130  179.4140  141.4670 O   0  0  0  0  0  0  0  0  0  0  0  0
  189.1150  177.0170  143.8910 N   0  0  0  0  0  2  0  0  0  0  0  0
  188.2020  176.9040  145.0290 C   0  0  1  0  0  3  0  0  0  0  0  0
  189.1630  178.2160  141.1690 C   0  0  1  0  0  3  0  0  0  0  0  0
  187.3100  177.1820  142.3440 C   0  0  2  0  0  3  0  0  0  0  0  0
  186.0030  177.8100  145.9210 C   0  0  0  0  0  2  0  0  0  0  0  0
  190.9230  177.1960  147.6780 C   0  0  0  0  0  0  0  0  0  0  0  0
  190.2630  177.9440  148.6570 C   0  0  0  0  0  3  0  0  0  0  0  0
  188.9340  177.2600  146.2880 C   0  0  0  0  0  0  0  0  0  0  0  0
  188.9400  178.3480  148.4560 C   0  0  0  0  0  3  0  0  0  0  0  0
  190.2610  176.8540  146.4940 C   0  0  0  0  0  3  0  0  0  0  0  0
  188.2760  178.0050  147.2720 C   0  0  0  0  0  3  0  0  0  0  0  0
  192.2040  176.8050  147.8740 F   0  0  0  0  0  0  0  0  0  0  0  0
  189.2630  178.3060  139.6480 C   0  0  0  0  0  2  0  0  0  0  0  0
  188.2370  177.5800  139.0310 O   0  0  0  0  0  0  0  0  0  0  0  0
  185.5110  178.3550  138.6620 F   0  0  0  0  0  0  0  0  0  0  0  0
  187.8040  178.3860  137.9730 C   0  0  2  0  0  3  0  0  0  0  0  0
  186.3540  178.0550  137.6070 C   0  0  1  0  0  3  0  0  0  0  0  0
  187.4270  175.9620  136.0140 S   0  0  0  0  0  0  0  0  0  0  0  0
  188.1390  177.5800  135.5620 C   0  0  0  0  0  2  0  0  0  0  0  0
  188.7680  178.2420  136.7850 C   0  0  0  0  0  2  0  0  0  0  0  0
  186.1780  176.5870  137.2110 C   0  0  0  0  0  2  0  0  0  0  0  0
  1 12  1  0  0  0  0
  2  8  1  0  0  0  0
  3  8  1  6  0  0  0
  3 11  1  0  0  0  0
  4  9  1  6  0  0  0
  4 14  1  0  0  0  0
  5 10  2  0  0  0  0
  6  2  2  0  0  0  0
  6  5  1  0  0  0  0
  8  1  2  0  0  0  0
 10  1  1  0  0  0  0
 11 15  1  0  0  0  0
 11 18  1  1  0  0  0
 12 18  1  0  0  0  0
 13  7  2  0  0  0  0
 14 15  1  0  0  0  0
 15 21  1  1  0  0  0
 16 26  1  6  0  0  0
 16  7  1  0  0  0  0
 16  9  1  0  0  0  0
 17  7  1  1  0  0  0
 17  4  1  0  0  0  0
 17  3  1  0  0  0  0
 19 25  1  0  0  0  0
 19 20  1  0  0  0  0
 21 23  1  0  0  0  0
 21 24  2  0  0  0  0
 22 20  2  0  0  0  0
 23 19  2  0  0  0  0
 24 22  1  0  0  0  0
 27 26  1  0  0  0  0
 29 27  1  1  0  0  0
 30 29  1  0  0  0  0
 30 28  1  1  0  0  0
 31 34  1  0  0  0  0
 32 31  1  0  0  0  0
 32 33  1  0  0  0  0
 33 29  1  0  0  0  0
 34 30  1  0  0  0  0
M  END
>  <MODEL>
1

>  <REMARK>
 VINA RESULT:     -10.4      0.000      0.000
  Name = 
  4 active torsions:
  status: ('A' for Active; 'I' for Inactive)
    1  A    between atoms: O_3  and  C_13
    2  A    between atoms: O_3  and  C_17
    3  A    between atoms: C_12  and  C_28
    4  A    between atoms: C_17  and  C_29
                            x       y       z     vdW  Elec       q    Type
                         _______ _______ _______ _____ _____    ______ ____

>  <TORSDO>
F 4

$$$$
=
 OpenBabel10262423523D

 34 39  0  0  1  0  0  0  0  0999 V2000
  187.8970  177.3580  146.0760 C   0  0  0  0  0  0  0  0  0  0  0  0
  190.1110  177.6910  145.1290 C   0  0  0  0  0  3  0  0  0  0  0  0
  188.0960  178.3890  143.7680 C   0  0  2  0  0  3  0  0  0  0  0  0
  188.1950  178.9200  141.3160 N   0  0  1  0  0  0  0  0  0  0  0  0
  189.8720  176.7640  147.3510 C   0  0  0  0  0  3  0  0  0  0  0  0
  190.6870  177.1910  146.3000 C   0  0  0  0  0  3  0  0  0  0  0  0
  189.1890  176.8840  141.9540 C   0  0  0  0  0  0  0  0  0  0  0  0
  188.7160  177.7480  144.9890 C   0  0  0  0  0  0  0  0  0  0  0  0
  188.8260  178.3160  140.1360 C   0  0  0  0  0  2  0  0  0  0  0  0
  188.4820  176.8490  147.2390 C   0  0  0  0  0  3  0  0  0  0  0  0
  186.6190  178.0740  143.6020 C   0  0  2  0  0  3  0  0  0  0  0  0
  186.3940  177.4060  145.9870 C   0  0  0  0  0  2  0  0  0  0  0  0
  189.4440  175.9200  142.6600 O   0  0  0  0  0  0  0  0  0  0  0  0
  186.8360  178.5270  141.2340 N   0  0  0  0  0  2  0  0  0  0  0  0
  186.1070  178.9190  142.4400 C   0  0  1  0  0  3  0  0  0  0  0  0
  189.1830  176.8650  140.4760 C   0  0  1  0  0  3  0  0  0  0  0  0
  188.8690  178.2470  142.4440 C   0  0  2  0  0  3  0  0  0  0  0  0
  185.9070  178.3800  144.9150 C   0  0  0  0  0  2  0  0  0  0  0  0
  182.3430  178.7950  143.0030 C   0  0  0  0  0  0  0  0  0  0  0  0
  181.9000  178.3610  141.7500 C   0  0  0  0  0  3  0  0  0  0  0  0
  184.6370  178.7300  142.2140 C   0  0  0  0  0  0  0  0  0  0  0  0
  182.8220  178.1090  140.7310 C   0  0  0  0  0  3  0  0  0  0  0  0
  183.7090  178.9800  143.2370 C   0  0  0  0  0  3  0  0  0  0  0  0
  184.1890  178.2930  140.9630 C   0  0  0  0  0  3  0  0  0  0  0  0
  181.4490  179.0400  143.9910 F   0  0  0  0  0  0  0  0  0  0  0  0
  190.5500  176.4970  139.9020 C   0  0  0  0  0  2  0  0  0  0  0  0
  190.4170  175.7670  138.7140 O   0  0  0  0  0  0  0  0  0  0  0  0
  189.4740  176.1090  136.0380 F   0  0  0  0  0  0  0  0  0  0  0  0
  191.1010  176.5130  137.7480 C   0  0  2  0  0  3  0  0  0  0  0  0
  190.8140  175.9640  136.3470 C   0  0  1  0  0  3  0  0  0  0  0  0
  192.8930  174.0950  136.8550 S   0  0  0  0  0  0  0  0  0  0  0  0
  193.4710  175.8120  137.0650 C   0  0  0  0  0  2  0  0  0  0  0  0
  192.6000  176.5440  138.0830 C   0  0  0  0  0  2  0  0  0  0  0  0
  191.2170  174.4940  136.2090 C   0  0  0  0  0  2  0  0  0  0  0  0
  1 10  1  0  0  0  0
  2  6  2  0  0  0  0
  3  8  1  1  0  0  0
  4  9  1  6  0  0  0
  4 17  1  0  0  0  0
  6  5  1  0  0  0  0
  7 13  2  0  0  0  0
  8  2  1  0  0  0  0
  8  1  2  0  0  0  0
  9 16  1  0  0  0  0
 10  5  2  0  0  0  0
 11  3  1  0  0  0  0
 11 18  1  1  0  0  0
 12  1  1  0  0  0  0
 14  4  1  0  0  0  0
 14 15  1  0  0  0  0
 15 21  1  6  0  0  0
 15 11  1  0  0  0  0
 16 26  1  6  0  0  0
 16  7  1  0  0  0  0
 17  7  1  6  0  0  0
 17  3  1  0  0  0  0
 18 12  1  0  0  0  0
 19 23  1  0  0  0  0
 19 25  1  0  0  0  0
 20 19  2  0  0  0  0
 21 23  2  0  0  0  0
 22 24  2  0  0  0  0
 22 20  1  0  0  0  0
 24 21  1  0  0  0  0
 27 26  1  0  0  0  0
 29 33  1  0  0  0  0
 29 27  1  1  0  0  0
 30 28  1  1  0  0  0
 30 29  1  0  0  0  0
 31 32  1  0  0  0  0
 32 33  1  0  0  0  0
 34 30  1  0  0  0  0
 34 31  1  0  0  0  0
M  END
>  <MODEL>
2

>  <REMARK>
 VINA RESULT:     -10.1      3.116      5.858
  Name = 
  4 active torsions:
  status: ('A' for Active; 'I' for Inactive)
    1  A    between atoms: O_3  and  C_13
    2  A    between atoms: O_3  and  C_17
    3  A    between atoms: C_12  and  C_28
    4  A    between atoms: C_17  and  C_29
                            x       y       z     vdW  Elec       q    Type
                         _______ _______ _______ _____ _____    ______ ____

>  <TORSDO>
F 4

$$$$
=
 OpenBabel10262423523D

 34 39  0  0  1  0  0  0  0  0999 V2000
  187.9560  177.3450  146.0170 C   0  0  0  0  0  0  0  0  0  0  0  0
  190.1630  177.7000  145.0630 C   0  0  0  0  0  3  0  0  0  0  0  0
  188.1360  178.3910  143.7150 C   0  0  2  0  0  3  0  0  0  0  0  0
  188.2200  178.9370  141.2660 N   0  0  1  0  0  0  0  0  0  0  0  0
  189.9410  176.7570  147.2800 C   0  0  0  0  0  3  0  0  0  0  0  0
  190.7480  177.1960  146.2280 C   0  0  0  0  0  3  0  0  0  0  0  0
  189.2320  176.9050  141.8870 C   0  0  0  0  0  0  0  0  0  0  0  0
  188.7670  177.7470  144.9290 C   0  0  0  0  0  0  0  0  0  0  0  0
  188.8510  178.3440  140.0790 C   0  0  0  0  0  2  0  0  0  0  0  0
  188.5500  176.8330  147.1750 C   0  0  0  0  0  3  0  0  0  0  0  0
  186.6610  178.0660  143.5540 C   0  0  2  0  0  3  0  0  0  0  0  0
  186.4520  177.3810  145.9350 C   0  0  0  0  0  2  0  0  0  0  0  0
  189.4980  175.9380  142.5860 O   0  0  0  0  0  0  0  0  0  0  0  0
  186.8640  178.5340  141.1880 N   0  0  0  0  0  2  0  0  0  0  0  0
  186.1380  178.9140  142.4000 C   0  0  1  0  0  3  0  0  0  0  0  0
  189.2200  176.8940  140.4090 C   0  0  1  0  0  3  0  0  0  0  0  0
  188.9050  178.2620  142.3860 C   0  0  2  0  0  3  0  0  0  0  0  0
  185.9530  178.3580  144.8720 C   0  0  0  0  0  2  0  0  0  0  0  0
  182.8060  178.0080  140.7930 C   0  0  0  0  0  0  0  0  0  0  0  0
  181.9140  178.3650  141.8080 C   0  0  0  0  0  3  0  0  0  0  0  0
  184.6680  178.7150  142.1790 C   0  0  0  0  0  0  0  0  0  0  0  0
  182.3960  178.8990  143.0060 C   0  0  0  0  0  3  0  0  0  0  0  0
  184.1810  178.1820  140.9760 C   0  0  0  0  0  3  0  0  0  0  0  0
  183.7710  179.0740  143.1910 C   0  0  0  0  0  3  0  0  0  0  0  0
  182.3380  177.4910  139.6310 F   0  0  0  0  0  0  0  0  0  0  0  0
  190.5860  176.5400  139.8260 C   0  0  0  0  0  2  0  0  0  0  0  0
  190.4700  175.5680  138.8250 O   0  0  0  0  0  0  0  0  0  0  0  0
  189.9560  177.4590  136.7450 F   0  0  0  0  0  0  0  0  0  0  0  0
  191.4170  175.9230  137.8590 C   0  0  2  0  0  3  0  0  0  0  0  0
  190.7240  176.3250  136.5530 C   0  0  1  0  0  3  0  0  0  0  0  0
  190.6600  173.5490  135.9490 S   0  0  0  0  0  0  0  0  0  0  0  0
  192.3580  174.1190  136.2980 C   0  0  0  0  0  2  0  0  0  0  0  0
  192.4240  174.7770  137.6740 C   0  0  0  0  0  2  0  0  0  0  0  0
  189.8500  175.2000  135.9940 C   0  0  0  0  0  2  0  0  0  0  0  0
  1 10  1  0  0  0  0
  2  6  2  0  0  0  0
  3  8  1  1  0  0  0
  4  9  1  6  0  0  0
  4 17  1  0  0  0  0
  6  5  1  0  0  0  0
  7 13  2  0  0  0  0
  8  2  1  0  0  0  0
  8  1  2  0  0  0  0
  9 16  1  0  0  0  0
 10  5  2  0  0  0  0
 11  3  1  0  0  0  0
 11 18  1  1  0  0  0
 12  1  1  0  0  0  0
 14  4  1  0  0  0  0
 14 15  1  0  0  0  0
 15 21  1  6  0  0  0
 15 11  1  0  0  0  0
 16 26  1  6  0  0  0
 16  7  1  0  0  0  0
 17  7  1  6  0  0  0
 17  3  1  0  0  0  0
 18 12  1  0  0  0  0
 19 23  2  0  0  0  0
 19 20  1  0  0  0  0
 20 22  2  0  0  0  0
 21 24  2  0  0  0  0
 22 24  1  0  0  0  0
 23 21  1  0  0  0  0
 25 19  1  0  0  0  0
 27 26  1  0  0  0  0
 29 27  1  1  0  0  0
 30 28  1  1  0  0  0
 30 29  1  0  0  0  0
 31 34  1  0  0  0  0
 31 32  1  0  0  0  0
 32 33  1  0  0  0  0
 33 29  1  0  0  0  0
 34 30  1  0  0  0  0
M  END
>  <MODEL>
3

>  <REMARK>
 VINA RESULT:     -10.0      2.902      5.826
  Name = 
  4 active torsions:
  status: ('A' for Active; 'I' for Inactive)
    1  A    between atoms: O_3  and  C_13
    2  A    between atoms: O_3  and  C_17
    3  A    between atoms: C_12  and  C_28
    4  A    between atoms: C_17  and  C_29
                            x       y       z     vdW  Elec       q    Type
                         _______ _______ _______ _____ _____    ______ ____

>  <TORSDO>
F 4

$$$$
=
 OpenBabel10262423523D

 34 39  0  0  1  0  0  0  0  0999 V2000
  188.1050  177.3300  145.9830 C   0  0  0  0  0  0  0  0  0  0  0  0
  190.2840  177.6700  144.9610 C   0  0  0  0  0  3  0  0  0  0  0  0
  188.2220  178.3820  143.6800 C   0  0  2  0  0  3  0  0  0  0  0  0
  188.2320  178.9360  141.2310 N   0  0  1  0  0  0  0  0  0  0  0  0
  190.1240  176.7220  147.1810 C   0  0  0  0  0  3  0  0  0  0  0  0
  190.9010  177.1570  146.1050 C   0  0  0  0  0  3  0  0  0  0  0  0
  189.2460  176.8940  141.8140 C   0  0  0  0  0  0  0  0  0  0  0  0
  188.8850  177.7290  144.8710 C   0  0  0  0  0  0  0  0  0  0  0  0
  188.8200  178.3430  140.0230 C   0  0  0  0  0  2  0  0  0  0  0  0
  188.7310  176.8090  147.1200 C   0  0  0  0  0  3  0  0  0  0  0  0
  186.7390  178.0710  143.5640 C   0  0  2  0  0  3  0  0  0  0  0  0
  186.6000  177.3800  145.9490 C   0  0  0  0  0  2  0  0  0  0  0  0
  189.5260  175.9230  142.5000 O   0  0  0  0  0  0  0  0  0  0  0  0
  186.8710  178.5450  141.1940 N   0  0  0  0  0  2  0  0  0  0  0  0
  186.1870  178.9270  142.4300 C   0  0  1  0  0  3  0  0  0  0  0  0
  189.1870  176.8880  140.3360 C   0  0  1  0  0  3  0  0  0  0  0  0
  188.9460  178.2520  142.3270 C   0  0  2  0  0  3  0  0  0  0  0  0
  186.0750  178.3650  144.9050 C   0  0  0  0  0  2  0  0  0  0  0  0
  182.4450  178.7990  143.1280 C   0  0  0  0  0  0  0  0  0  0  0  0
  181.9560  178.3810  141.8870 C   0  0  0  0  0  3  0  0  0  0  0  0
  184.7100  178.7420  142.2560 C   0  0  0  0  0  0  0  0  0  0  0  0
  182.8400  178.1400  140.8320 C   0  0  0  0  0  3  0  0  0  0  0  0
  183.8200  178.9800  143.3140 C   0  0  0  0  0  3  0  0  0  0  0  0
  184.2160  178.3200  141.0160 C   0  0  0  0  0  3  0  0  0  0  0  0
  181.5880  179.0310  144.1510 F   0  0  0  0  0  0  0  0  0  0  0  0
  190.5320  176.5240  139.7100 C   0  0  0  0  0  2  0  0  0  0  0  0
  190.4980  176.6820  138.3190 O   0  0  0  0  0  0  0  0  0  0  0  0
  192.2150  174.4220  137.9860 F   0  0  0  0  0  0  0  0  0  0  0  0
  190.0590  175.4500  137.8220 C   0  0  2  0  0  3  0  0  0  0  0  0
  191.2000  174.7280  137.0980 C   0  0  1  0  0  3  0  0  0  0  0  0
  190.4900  176.2760  134.8240 S   0  0  0  0  0  0  0  0  0  0  0  0
  189.0660  175.3310  135.4610 C   0  0  0  0  0  2  0  0  0  0  0  0
  188.8250  175.6620  136.9310 C   0  0  0  0  0  2  0  0  0  0  0  0
  191.7620  175.5540  135.9390 C   0  0  0  0  0  2  0  0  0  0  0  0
  1 10  1  0  0  0  0
  2  6  2  0  0  0  0
  3  8  1  1  0  0  0
  4  9  1  6  0  0  0
  4 17  1  0  0  0  0
  6  5  1  0  0  0  0
  7 13  2  0  0  0  0
  8  2  1  0  0  0  0
  8  1  2  0  0  0  0
  9 16  1  0  0  0  0
 10  5  2  0  0  0  0
 11  3  1  0  0  0  0
 11 18  1  1  0  0  0
 12  1  1  0  0  0  0
 14  4  1  0  0  0  0
 14 15  1  0  0  0  0
 15 21  1  6  0  0  0
 15 11  1  0  0  0  0
 16 26  1  6  0  0  0
 16  7  1  0  0  0  0
 17  7  1  6  0  0  0
 17  3  1  0  0  0  0
 18 12  1  0  0  0  0
 19 23  1  0  0  0  0
 19 25  1  0  0  0  0
 20 19  2  0  0  0  0
 21 23  2  0  0  0  0
 22 24  2  0  0  0  0
 22 20  1  0  0  0  0
 24 21  1  0  0  0  0
 27 26  1  0  0  0  0
 29 27  1  6  0  0  0
 30 29  1  0  0  0  0
 30 28  1  1  0  0  0
 31 32  1  0  0  0  0
 31 34  1  0  0  0  0
 32 33  1  0  0  0  0
 33 29  1  0  0  0  0
 34 30  1  0  0  0  0
M  END
>  <MODEL>
4

>  <REMARK>
 VINA RESULT:      -9.9      2.836      5.796
  Name = 
  4 active torsions:
  status: ('A' for Active; 'I' for Inactive)
    1  A    between atoms: O_3  and  C_13
    2  A    between atoms: O_3  and  C_17
    3  A    between atoms: C_12  and  C_28
    4  A    between atoms: C_17  and  C_29
                            x       y       z     vdW  Elec       q    Type
                         _______ _______ _______ _____ _____    ______ ____

>  <TORSDO>
F 4

$$$$
=
 OpenBabel10262423523D

 34 39  0  0  1  0  0  0  0  0999 V2000
  188.5790  177.3720  145.4040 C   0  0  0  0  0  0  0  0  0  0  0  0
  190.7040  177.7310  144.2790 C   0  0  0  0  0  3  0  0  0  0  0  0
  188.5740  178.3810  143.0780 C   0  0  2  0  0  3  0  0  0  0  0  0
  188.4660  178.8880  140.6210 N   0  0  1  0  0  0  0  0  0  0  0  0
  190.6600  176.8230  146.5210 C   0  0  0  0  0  3  0  0  0  0  0  0
  191.3800  177.2520  145.4040 C   0  0  0  0  0  3  0  0  0  0  0  0
  189.5430  176.8760  141.1960 C   0  0  0  0  0  0  0  0  0  0  0  0
  189.3010  177.7640  144.2500 C   0  0  0  0  0  0  0  0  0  0  0  0
  189.0110  178.2820  139.4000 C   0  0  0  0  0  2  0  0  0  0  0  0
  189.2640  176.8840  146.5210 C   0  0  0  0  0  3  0  0  0  0  0  0
  187.0930  178.0410  143.0340 C   0  0  2  0  0  3  0  0  0  0  0  0
  187.0730  177.3940  145.4350 C   0  0  0  0  0  2  0  0  0  0  0  0
  189.8710  175.9230  141.8870 O   0  0  0  0  0  0  0  0  0  0  0  0
  187.1120  178.4720  140.6530 N   0  0  0  0  0  2  0  0  0  0  0  0
  186.4760  178.8650  141.9100 C   0  0  1  0  0  3  0  0  0  0  0  0
  189.4190  176.8400  139.7230 C   0  0  1  0  0  3  0  0  0  0  0  0
  189.2400  178.2380  141.6970 C   0  0  2  0  0  3  0  0  0  0  0  0
  186.4850  178.3490  144.3980 C   0  0  0  0  0  2  0  0  0  0  0  0
  183.0430  177.8850  140.5830 C   0  0  0  0  0  0  0  0  0  0  0  0
  182.2250  178.2690  141.6500 C   0  0  0  0  0  3  0  0  0  0  0  0
  184.9960  178.6500  141.8050 C   0  0  0  0  0  0  0  0  0  0  0  0
  182.7890  178.8450  142.7910 C   0  0  0  0  0  3  0  0  0  0  0  0
  184.4270  178.0740  140.6590 C   0  0  0  0  0  3  0  0  0  0  0  0
  184.1730  179.0350  142.8690 C   0  0  0  0  0  3  0  0  0  0  0  0
  182.4960  177.3280  139.4760 F   0  0  0  0  0  0  0  0  0  0  0  0
  190.7410  176.4890  139.0440 C   0  0  0  0  0  2  0  0  0  0  0  0
  190.7090  175.1900  138.5230 O   0  0  0  0  0  0  0  0  0  0  0  0
  190.4610  173.0480  136.6470 F   0  0  0  0  0  0  0  0  0  0  0  0
  190.9290  175.3420  137.1490 C   0  0  2  0  0  3  0  0  0  0  0  0
  191.4300  174.0290  136.5390 C   0  0  1  0  0  3  0  0  0  0  0  0
  194.0190  174.8400  137.3820 S   0  0  0  0  0  0  0  0  0  0  0  0
  193.2350  176.1010  136.3230 C   0  0  0  0  0  2  0  0  0  0  0  0
  191.8870  176.5180  136.9060 C   0  0  0  0  0  2  0  0  0  0  0  0
  192.7260  173.5450  137.1950 C   0  0  0  0  0  2  0  0  0  0  0  0
  1 12  1  0  0  0  0
  1 10  1  0  0  0  0
  2  6  2  0  0  0  0
  3  8  1  1  0  0  0
  4  9  1  6  0  0  0
  4 14  1  0  0  0  0
  4 17  1  0  0  0  0
  6  5  1  0  0  0  0
  7 13  2  0  0  0  0
  8  2  1  0  0  0  0
  8  1  2  0  0  0  0
  9 16  1  0  0  0  0
 10  5  2  0  0  0  0
 11  3  1  0  0  0  0
 11 18  1  1  0  0  0
 14 15  1  0  0  0  0
 15 21  1  6  0  0  0
 15 11  1  0  0  0  0
 16 26  1  6  0  0  0
 16  7  1  0  0  0  0
 17  7  1  6  0  0  0
 17  3  1  0  0  0  0
 18 12  1  0  0  0  0
 19 23  2  0  0  0  0
 19 20  1  0  0  0  0
 20 22  2  0  0  0  0
 21 24  2  0  0  0  0
 22 24  1  0  0  0  0
 23 21  1  0  0  0  0
 25 19  1  0  0  0  0
 27 26  1  0  0  0  0
 29 27  1  1  0  0  0
 30 28  1  1  0  0  0
 30 29  1  0  0  0  0
 30 34  1  0  0  0  0
 32 33  1  0  0  0  0
 32 31  1  0  0  0  0
 33 29  1  0  0  0  0
 34 31  1  0  0  0  0
M  END
>  <MODEL>
5

>  <REMARK>
 VINA RESULT:      -9.5      3.190      6.169
  Name = 
  4 active torsions:
  status: ('A' for Active; 'I' for Inactive)
    1  A    between atoms: O_3  and  C_13
    2  A    between atoms: O_3  and  C_17
    3  A    between atoms: C_12  and  C_28
    4  A    between atoms: C_17  and  C_29
                            x       y       z     vdW  Elec       q    Type
                         _______ _______ _______ _____ _____    ______ ____

>  <TORSDO>
F 4

$$$$
=
 OpenBabel10262423523D

 34 39  0  0  1  0  0  0  0  0999 V2000
  188.6320  177.3760  144.6730 C   0  0  0  0  0  0  0  0  0  0  0  0
  190.7490  177.8920  143.5950 C   0  0  0  0  0  3  0  0  0  0  0  0
  188.6030  178.4310  142.3680 C   0  0  2  0  0  3  0  0  0  0  0  0
  188.5050  178.9800  139.9200 N   0  0  1  0  0  0  0  0  0  0  0  0
  190.7240  176.9380  145.8180 C   0  0  0  0  0  3  0  0  0  0  0  0
  191.4350  177.4340  144.7230 C   0  0  0  0  0  3  0  0  0  0  0  0
  189.6980  177.0290  140.4750 C   0  0  0  0  0  0  0  0  0  0  0  0
  189.3480  177.8360  143.5410 C   0  0  0  0  0  0  0  0  0  0  0  0
  189.1090  178.4350  138.6970 C   0  0  0  0  0  2  0  0  0  0  0  0
  189.3270  176.9100  145.7930 C   0  0  0  0  0  3  0  0  0  0  0  0
  187.1480  177.9990  142.2900 C   0  0  2  0  0  3  0  0  0  0  0  0
  187.1270  177.3020  144.6770 C   0  0  0  0  0  2  0  0  0  0  0  0
  190.0740  176.0850  141.1540 O   0  0  0  0  0  0  0  0  0  0  0  0
  187.1800  178.4790  139.9180 N   0  0  0  0  0  2  0  0  0  0  0  0
  186.4990  178.8050  141.1700 C   0  0  1  0  0  3  0  0  0  0  0  0
  189.6020  177.0160  139.0000 C   0  0  1  0  0  3  0  0  0  0  0  0
  189.3010  178.3590  140.9970 C   0  0  2  0  0  3  0  0  0  0  0  0
  186.4980  178.2390  143.6470 C   0  0  0  0  0  2  0  0  0  0  0  0
  182.7810  178.4810  141.9250 C   0  0  0  0  0  0  0  0  0  0  0  0
  182.3160  177.9080  140.7370 C   0  0  0  0  0  3  0  0  0  0  0  0
  185.0380  178.4990  141.0340 C   0  0  0  0  0  0  0  0  0  0  0  0
  183.2090  177.6270  139.7000 C   0  0  0  0  0  3  0  0  0  0  0  0
  184.1390  178.7770  142.0750 C   0  0  0  0  0  3  0  0  0  0  0  0
  184.5690  177.9210  139.8490 C   0  0  0  0  0  3  0  0  0  0  0  0
  181.9140  178.7520  142.9300 F   0  0  0  0  0  0  0  0  0  0  0  0
  190.9560  176.7630  138.3380 C   0  0  0  0  0  2  0  0  0  0  0  0
  190.8420  175.8330  137.2980 O   0  0  0  0  0  0  0  0  0  0  0  0
  191.3950  176.6070  134.6030 F   0  0  0  0  0  0  0  0  0  0  0  0
  192.1170  175.7670  136.7260 C   0  0  2  0  0  3  0  0  0  0  0  0
  192.0140  175.5320  135.2160 C   0  0  1  0  0  3  0  0  0  0  0  0
  191.7890  172.7710  135.8460 S   0  0  0  0  0  0  0  0  0  0  0  0
  193.3020  173.4990  136.5590 C   0  0  0  0  0  2  0  0  0  0  0  0
  192.9500  174.6930  137.4420 C   0  0  0  0  0  2  0  0  0  0  0  0
  191.2570  174.2440  134.8820 C   0  0  0  0  0  2  0  0  0  0  0  0
  1 12  1  0  0  0  0
  1 10  1  0  0  0  0
  2  6  2  0  0  0  0
  3  8  1  1  0  0  0
  4  9  1  6  0  0  0
  4 17  1  0  0  0  0
  6  5  1  0  0  0  0
  7 13  2  0  0  0  0
  8  2  1  0  0  0  0
  8  1  2  0  0  0  0
  9 16  1  0  0  0  0
 10  5  2  0  0  0  0
 11  3  1  0  0  0  0
 11 18  1  1  0  0  0
 14  4  1  0  0  0  0
 14 15  1  0  0  0  0
 15 21  1  6  0  0  0
 15 11  1  0  0  0  0
 16 26  1  6  0  0  0
 16  7  1  0  0  0  0
 17  7  1  6  0  0  0
 17  3  1  0  0  0  0
 18 12  1  0  0  0  0
 19 23  1  0  0  0  0
 19 25  1  0  0  0  0
 20 19  2  0  0  0  0
 21 23  2  0  0  0  0
 22 24  2  0  0  0  0
 22 20  1  0  0  0  0
 24 21  1  0  0  0  0
 27 26  1  0  0  0  0
 29 27  1  1  0  0  0
 29 33  1  0  0  0  0
 30 28  1  6  0  0  0
 30 29  1  0  0  0  0
 31 32  1  0  0  0  0
 32 33  1  0  0  0  0
 34 30  1  0  0  0  0
 34 31  1  0  0  0  0
M  END
>  <MODEL>
6

>  <REMARK>
 VINA RESULT:      -8.7      3.226      6.321
  Name = 
  4 active torsions:
  status: ('A' for Active; 'I' for Inactive)
    1  A    between atoms: O_3  and  C_13
    2  A    between atoms: O_3  and  C_17
    3  A    between atoms: C_12  and  C_28
    4  A    between atoms: C_17  and  C_29
                            x       y       z     vdW  Elec       q    Type
                         _______ _______ _______ _____ _____    ______ ____

>  <TORSDO>
F 4

$$$$
=
 OpenBabel10262423523D

 34 39  0  0  1  0  0  0  0  0999 V2000
  188.2570  177.4810  144.5730 C   0  0  0  0  0  0  0  0  0  0  0  0
  190.4110  177.9560  143.5510 C   0  0  0  0  0  3  0  0  0  0  0  0
  188.3080  178.5050  142.2540 C   0  0  2  0  0  3  0  0  0  0  0  0
  188.2890  179.0230  139.7980 N   0  0  1  0  0  0  0  0  0  0  0  0
  190.3090  177.0320  145.7850 C   0  0  0  0  0  3  0  0  0  0  0  0
  191.0570  177.5040  144.7040 C   0  0  0  0  0  3  0  0  0  0  0  0
  189.4400  177.0640  140.4130 C   0  0  0  0  0  0  0  0  0  0  0  0
  189.0110  177.9170  143.4570 C   0  0  0  0  0  0  0  0  0  0  0  0
  188.9210  178.4540  138.6000 C   0  0  0  0  0  2  0  0  0  0  0  0
  188.9130  177.0210  145.7190 C   0  0  0  0  0  3  0  0  0  0  0  0
  186.8510  178.0890  142.1400 C   0  0  2  0  0  3  0  0  0  0  0  0
  186.7520  177.4250  144.5340 C   0  0  0  0  0  2  0  0  0  0  0  0
  189.7840  176.1250  141.1150 O   0  0  0  0  0  0  0  0  0  0  0  0
  186.9580  178.5370  139.7630 N   0  0  0  0  0  2  0  0  0  0  0  0
  186.2460  178.8880  140.9910 C   0  0  1  0  0  3  0  0  0  0  0  0
  189.3870  177.0330  138.9360 C   0  0  1  0  0  3  0  0  0  0  0  0
  189.0450  178.4060  140.9050 C   0  0  2  0  0  3  0  0  0  0  0  0
  186.1640  178.3560  143.4740 C   0  0  0  0  0  2  0  0  0  0  0  0
  182.5300  178.4440  141.7010 C   0  0  0  0  0  0  0  0  0  0  0  0
  182.0640  178.0440  140.4450 C   0  0  0  0  0  3  0  0  0  0  0  0
  184.7850  178.5990  140.8160 C   0  0  0  0  0  0  0  0  0  0  0  0
  182.9560  177.9180  139.3760 C   0  0  0  0  0  3  0  0  0  0  0  0
  183.8880  178.7220  141.8880 C   0  0  0  0  0  3  0  0  0  0  0  0
  184.3150  178.1940  139.5620 C   0  0  0  0  0  3  0  0  0  0  0  0
  181.6660  178.5660  142.7360 F   0  0  0  0  0  0  0  0  0  0  0  0
  190.7560  176.7540  138.3180 C   0  0  0  0  0  2  0  0  0  0  0  0
  190.6280  176.1360  137.0680 O   0  0  0  0  0  0  0  0  0  0  0  0
  192.8060  174.5040  137.9420 F   0  0  0  0  0  0  0  0  0  0  0  0
  190.5020  174.7710  137.3470 C   0  0  2  0  0  3  0  0  0  0  0  0
  191.8250  174.0460  137.0810 C   0  0  1  0  0  3  0  0  0  0  0  0
  190.9930  173.9100  134.3680 S   0  0  0  0  0  0  0  0  0  0  0  0
  189.7540  173.1730  135.4860 C   0  0  0  0  0  2  0  0  0  0  0  0
  189.3280  174.1860  136.5460 C   0  0  0  0  0  2  0  0  0  0  0  0
  192.2930  174.2120  135.6330 C   0  0  0  0  0  2  0  0  0  0  0  0
  1 10  1  0  0  0  0
  2  6  2  0  0  0  0
  3  8  1  1  0  0  0
  4  9  1  6  0  0  0
  4 17  1  0  0  0  0
  6  5  1  0  0  0  0
  7 13  2  0  0  0  0
  8  2  1  0  0  0  0
  8  1  2  0  0  0  0
  9 16  1  0  0  0  0
 10  5  2  0  0  0  0
 11  3  1  0  0  0  0
 11 18  1  1  0  0  0
 12  1  1  0  0  0  0
 14  4  1  0  0  0  0
 14 15  1  0  0  0  0
 15 21  1  6  0  0  0
 15 11  1  0  0  0  0
 16 26  1  6  0  0  0
 16  7  1  0  0  0  0
 17  7  1  6  0  0  0
 17  3  1  0  0  0  0
 18 12  1  0  0  0  0
 19 23  1  0  0  0  0
 19 25  1  0  0  0  0
 20 19  2  0  0  0  0
 21 23  2  0  0  0  0
 22 24  2  0  0  0  0
 22 20  1  0  0  0  0
 24 21  1  0  0  0  0
 27 26  1  0  0  0  0
 29 27  1  6  0  0  0
 30 29  1  0  0  0  0
 30 28  1  1  0  0  0
 31 32  1  0  0  0  0
 31 34  1  0  0  0  0
 32 33  1  0  0  0  0
 33 29  1  0  0  0  0
 34 30  1  0  0  0  0
M  END
>  <MODEL>
7

>  <REMARK>
 VINA RESULT:      -8.7      3.110      6.298
  Name = 
  4 active torsions:
  status: ('A' for Active; 'I' for Inactive)
    1  A    between atoms: O_3  and  C_13
    2  A    between atoms: O_3  and  C_17
    3  A    between atoms: C_12  and  C_28
    4  A    between atoms: C_17  and  C_29
                            x       y       z     vdW  Elec       q    Type
                         _______ _______ _______ _____ _____    ______ ____

>  <TORSDO>
F 4

$$$$
=
 OpenBabel10262423523D

 34 39  0  0  1  0  0  0  0  0999 V2000
  184.4370  178.5260  142.0850 C   0  0  0  0  0  0  0  0  0  0  0  0
  186.0950  178.8910  143.8250 C   0  0  0  0  0  3  0  0  0  0  0  0
  186.8820  178.6790  141.4290 C   0  0  2  0  0  3  0  0  0  0  0  0
  189.2790  178.3040  140.7840 N   0  0  1  0  0  0  0  0  0  0  0  0
  183.7450  178.7940  144.3930 C   0  0  0  0  0  3  0  0  0  0  0  0
  185.0780  178.9550  144.7800 C   0  0  0  0  0  3  0  0  0  0  0  0
  188.4300  176.8470  142.4260 C   0  0  0  0  0  0  0  0  0  0  0  0
  185.7930  178.6410  142.4770 C   0  0  0  0  0  0  0  0  0  0  0  0
  190.3700  177.4410  141.2560 C   0  0  0  0  0  2  0  0  0  0  0  0
  183.4270  178.5820  143.0490 C   0  0  0  0  0  3  0  0  0  0  0  0
  186.4680  178.0650  140.1020 C   0  0  2  0  0  3  0  0  0  0  0  0
  184.0510  178.2670  140.6520 C   0  0  0  0  0  2  0  0  0  0  0  0
  187.5960  176.2630  143.1010 O   0  0  0  0  0  0  0  0  0  0  0  0
  188.8050  177.6700  139.6090 N   0  0  0  0  0  2  0  0  0  0  0  0
  187.5980  178.3310  139.1130 C   0  0  1  0  0  3  0  0  0  0  0  0
  189.7560  176.2980  142.0710 C   0  0  1  0  0  3  0  0  0  0  0  0
  188.2820  178.2130  141.8690 C   0  0  2  0  0  3  0  0  0  0  0  0
  185.1450  178.6880  139.6710 C   0  0  0  0  0  2  0  0  0  0  0  0
  186.6840  175.9970  136.2460 C   0  0  0  0  0  0  0  0  0  0  0  0
  186.6870  176.8850  135.1670 C   0  0  0  0  0  3  0  0  0  0  0  0
  187.2770  177.8120  137.7430 C   0  0  0  0  0  0  0  0  0  0  0  0
  186.9870  178.2340  135.3730 C   0  0  0  0  0  3  0  0  0  0  0  0
  186.9790  176.4570  137.5330 C   0  0  0  0  0  3  0  0  0  0  0  0
  187.2820  178.6970  136.6600 C   0  0  0  0  0  3  0  0  0  0  0  0
  186.3940  174.6890  136.0460 F   0  0  0  0  0  0  0  0  0  0  0  0
  190.6040  176.0020  143.3060 C   0  0  0  0  0  2  0  0  0  0  0  0
  189.8580  176.1620  144.4800 O   0  0  0  0  0  0  0  0  0  0  0  0
  192.2890  176.0330  145.9770 F   0  0  0  0  0  0  0  0  0  0  0  0
  190.4230  177.2680  145.1250 C   0  0  2  0  0  3  0  0  0  0  0  0
  191.2180  176.8210  146.3560 C   0  0  1  0  0  3  0  0  0  0  0  0
  188.7380  176.8600  147.7420 S   0  0  0  0  0  0  0  0  0  0  0  0
  189.0920  178.4680  146.9580 C   0  0  0  0  0  2  0  0  0  0  0  0
  189.3250  178.2880  145.4600 C   0  0  0  0  0  2  0  0  0  0  0  0
  190.3480  176.0580  147.3580 C   0  0  0  0  0  2  0  0  0  0  0  0
  1  8  2  0  0  0  0
  1 10  1  0  0  0  0
  2  6  2  0  0  0  0
  3 17  1  0  0  0  0
  3  8  1  1  0  0  0
  4  9  1  1  0  0  0
  4 17  1  0  0  0  0
  5  6  1  0  0  0  0
  7 13  2  0  0  0  0
  8  2  1  0  0  0  0
  9 16  1  0  0  0  0
 10  5  2  0  0  0  0
 11 18  1  6  0  0  0
 11  3  1  0  0  0  0
 12  1  1  0  0  0  0
 14  4  1  0  0  0  0
 15 21  1  6  0  0  0
 15 14  1  0  0  0  0
 15 11  1  0  0  0  0
 16  7  1  0  0  0  0
 16 26  1  1  0  0  0
 17  7  1  6  0  0  0
 18 12  1  0  0  0  0
 19 23  1  0  0  0  0
 20 22  1  0  0  0  0
 20 19  2  0  0  0  0
 22 24  2  0  0  0  0
 23 21  2  0  0  0  0
 24 21  1  0  0  0  0
 25 19  1  0  0  0  0
 26 27  1  0  0  0  0
 29 27  1  1  0  0  0
 29 33  1  0  0  0  0
 29 30  1  0  0  0  0
 30 28  1  6  0  0  0
 30 34  1  0  0  0  0
 32 31  1  0  0  0  0
 33 32  1  0  0  0  0
 34 31  1  0  0  0  0
M  END
>  <MODEL>
8

>  <REMARK>
 VINA RESULT:      -8.5      2.821      7.642
  Name = 
  4 active torsions:
  status: ('A' for Active; 'I' for Inactive)
    1  A    between atoms: O_3  and  C_13
    2  A    between atoms: O_3  and  C_17
    3  A    between atoms: C_12  and  C_28
    4  A    between atoms: C_17  and  C_29
                            x       y       z     vdW  Elec       q    Type
                         _______ _______ _______ _____ _____    ______ ____

>  <TORSDO>
F 4

$$$$
=
 OpenBabel10262423523D

 34 39  0  0  1  0  0  0  0  0999 V2000
  190.3820  177.0920  139.6130 C   0  0  0  0  0  0  0  0  0  0  0  0
  189.7920  177.3810  137.2730 C   0  0  0  0  0  3  0  0  0  0  0  0
  188.1600  178.1700  139.0380 C   0  0  2  0  0  3  0  0  0  0  0  0
  185.7670  178.7540  138.5530 N   0  0  1  0  0  0  0  0  0  0  0  0
  191.9250  176.4100  137.8720 C   0  0  0  0  0  3  0  0  0  0  0  0
  191.0220  176.8360  136.8960 C   0  0  0  0  0  3  0  0  0  0  0  0
  186.4930  176.6760  137.7210 C   0  0  0  0  0  0  0  0  0  0  0  0
  189.4430  177.4820  138.6280 C   0  0  0  0  0  0  0  0  0  0  0  0
  184.6800  178.1590  137.7650 C   0  0  0  0  0  2  0  0  0  0  0  0
  191.6060  176.5380  139.2260 C   0  0  0  0  0  3  0  0  0  0  0  0
  187.7630  177.9020  140.4810 C   0  0  2  0  0  3  0  0  0  0  0  0
  190.0670  177.1860  141.0830 C   0  0  0  0  0  2  0  0  0  0  0  0
  187.2020  175.6880  137.6000 O   0  0  0  0  0  0  0  0  0  0  0  0
  185.4690  178.4030  139.8930 N   0  0  0  0  0  2  0  0  0  0  0  0
  186.5610  178.7890  140.7870 C   0  0  1  0  0  3  0  0  0  0  0  0
  185.0310  176.6910  137.5010 C   0  0  1  0  0  3  0  0  0  0  0  0
  186.9650  178.0360  138.0760 C   0  0  2  0  0  3  0  0  0  0  0  0
  188.9610  178.1980  141.3760 C   0  0  0  0  0  2  0  0  0  0  0  0
  186.3580  177.7080  144.4330 C   0  0  0  0  0  0  0  0  0  0  0  0
  185.2290  178.4140  144.8590 C   0  0  0  0  0  3  0  0  0  0  0  0
  186.1090  178.6490  142.2100 C   0  0  0  0  0  0  0  0  0  0  0  0
  184.5380  179.2340  143.9620 C   0  0  0  0  0  3  0  0  0  0  0  0
  186.7990  177.8240  143.1110 C   0  0  0  0  0  3  0  0  0  0  0  0
  184.9780  179.3500  142.6390 C   0  0  0  0  0  3  0  0  0  0  0  0
  187.0270  176.9120  145.3020 F   0  0  0  0  0  0  0  0  0  0  0  0
  184.6600  176.2960  136.0730 C   0  0  0  0  0  2  0  0  0  0  0  0
  184.6700  174.9050  135.9160 O   0  0  0  0  0  0  0  0  0  0  0  0
  185.3220  173.1680  138.0910 F   0  0  0  0  0  0  0  0  0  0  0  0
  183.7230  174.4280  136.8290 C   0  0  2  0  0  3  0  0  0  0  0  0
  184.1460  173.0590  137.3710 C   0  0  1  0  0  3  0  0  0  0  0  0
  182.9400  171.9690  135.0410 S   0  0  0  0  0  0  0  0  0  0  0  0
  181.7670  173.0040  135.9790 C   0  0  0  0  0  2  0  0  0  0  0  0
  182.3350  174.4080  136.1710 C   0  0  0  0  0  2  0  0  0  0  0  0
  184.3200  172.0240  136.2560 C   0  0  0  0  0  2  0  0  0  0  0  0
  1 12  1  0  0  0  0
  2  8  1  0  0  0  0
  3  8  1  6  0  0  0
  3 11  1  0  0  0  0
  4  9  1  6  0  0  0
  4 14  1  0  0  0  0
  5 10  2  0  0  0  0
  6  2  2  0  0  0  0
  6  5  1  0  0  0  0
  8  1  2  0  0  0  0
 10  1  1  0  0  0  0
 11 15  1  0  0  0  0
 11 18  1  1  0  0  0
 12 18  1  0  0  0  0
 13  7  2  0  0  0  0
 14 15  1  0  0  0  0
 15 21  1  1  0  0  0
 16 26  1  6  0  0  0
 16  7  1  0  0  0  0
 16  9  1  0  0  0  0
 17  7  1  1  0  0  0
 17  4  1  0  0  0  0
 17  3  1  0  0  0  0
 19 20  1  0  0  0  0
 19 25  1  0  0  0  0
 21 24  2  0  0  0  0
 21 23  1  0  0  0  0
 22 20  2  0  0  0  0
 23 19  2  0  0  0  0
 24 22  1  0  0  0  0
 27 26  1  0  0  0  0
 29 27  1  6  0  0  0
 29 30  1  0  0  0  0
 30 28  1  6  0  0  0
 31 32  1  0  0  0  0
 31 34  1  0  0  0  0
 32 33  1  0  0  0  0
 33 29  1  0  0  0  0
 34 30  1  0  0  0  0
M  END
>  <MODEL>
9

>  <REMARK>
 VINA RESULT:      -8.0      3.241      6.377
  Name = 
  4 active torsions:
  status: ('A' for Active; 'I' for Inactive)
    1  A    between atoms: O_3  and  C_13
    2  A    between atoms: O_3  and  C_17
    3  A    between atoms: C_12  and  C_28
    4  A    between atoms: C_17  and  C_29
                            x       y       z     vdW  Elec       q    Type
                         _______ _______ _______ _____ _____    ______ ____

>  <TORSDO>
F 4

$$$$
