=
 OpenBabel10272415263D

 34 40  0  0  1  0  0  0  0  0999 V2000
  186.3440  178.0420  143.7330 C   0  0  0  0  0  0  0  0  0  0  0  0
  182.8940  179.0790  144.5490 C   0  0  0  0  0  3  0  0  0  0  0  0
  184.8000  178.7110  145.9420 N   0  0  0  0  0  0  0  0  0  0  0  0
  189.2730  176.8230  143.9080 S   0  0  0  0  0  0  0  0  0  0  0  0
  187.1870  177.8920  142.5850 N   0  0  0  0  0  2  0  0  0  0  0  0
  188.2600  177.4420  145.2590 C   0  0  0  0  0  0  0  0  0  0  0  0
  187.8390  177.4860  147.7110 C   0  0  0  0  0  2  0  0  0  0  0  0
  188.7180  177.2890  146.5050 C   0  0  0  0  0  3  0  0  0  0  0  0
  188.6350  178.0160  142.6940 C   0  0  2  0  0  3  0  0  0  0  0  0
  186.0930  178.3360  146.1270 C   0  0  0  0  0  0  0  0  0  0  0  0
  186.8780  177.9350  145.0300 C   0  0  0  0  0  0  0  0  0  0  0  0
  186.7310  178.5140  147.4720 C   0  0  0  0  0  2  0  0  0  0  0  0
  182.3330  179.1360  143.2680 C   0  0  0  0  0  0  0  0  0  0  0  0
  183.1270  178.7930  142.1640 C   0  0  0  0  0  3  0  0  0  0  0  0
  184.2300  178.7130  144.7080 C   0  0  0  0  0  0  0  0  0  0  0  0
  184.4300  178.4410  142.3350 N   0  0  0  0  0  0  0  0  0  0  0  0
  184.9980  178.3890  143.5710 C   0  0  0  0  0  0  0  0  0  0  0  0
  189.1850  177.3840  138.9140 C   0  0  0  0  0  2  0  0  0  0  0  0
  190.7170  177.7220  141.2970 N   0  0  0  0  0  2  0  0  0  0  0  0
  192.5700  175.9440  137.9500 N   0  0  0  0  0  0  0  0  0  0  0  0
  191.2680  176.5860  137.7420 C   0  0  0  0  0  2  0  0  0  0  0  0
  190.5490  176.7220  139.0780 C   0  0  1  0  0  3  0  0  0  0  0  0
  192.7760  176.9700  140.1850 C   0  0  0  0  0  2  0  0  0  0  0  0
  191.3940  177.5850  140.0120 C   0  0  2  0  0  3  0  0  0  0  0  0
  193.4130  176.7980  138.8050 C   0  0  0  0  0  2  0  0  0  0  0  0
  189.2860  177.8180  141.3630 C   0  0  0  0  0  0  0  0  0  0  0  0
  188.5460  177.6100  140.2600 C   0  0  0  0  0  3  0  0  0  0  0  0
  193.1940  175.7530  136.6370 C   0  0  1  0  0  3  0  0  0  0  0  0
  194.2850  176.6100  136.4490 O   0  0  0  0  0  1  0  0  0  0  0  0
  193.6220  174.3080  136.4480 C   0  0  0  0  0  1  0  0  0  0  0  0
  180.1490  178.7130  142.0460 N   0  0  0  0  0  0  0  0  0  0  0  0
  179.9820  178.3690  143.4650 C   0  0  0  0  0  2  0  0  0  0  0  0
  180.9090  177.6100  141.4630 C   0  0  0  0  0  1  0  0  0  0  0  0
  180.8690  179.4760  143.1070 C   0  0  1  0  0  3  0  0  0  0  0  0
  1 11  1  0  0  0  0
  2 15  1  0  0  0  0
  3 10  1  0  0  0  0
  4  6  1  0  0  0  0
  5  9  1  0  0  0  0
  5  1  1  0  0  0  0
  6  8  2  0  0  0  0
  8  7  1  0  0  0  0
  9 26  1  6  0  0  0
  9  4  1  0  0  0  0
 10 12  1  0  0  0  0
 11  6  1  0  0  0  0
 11 10  2  0  0  0  0
 12  7  1  0  0  0  0
 13  2  2  0  0  0  0
 14 16  2  0  0  0  0
 14 13  1  0  0  0  0
 15  3  2  0  0  0  0
 16 17  1  0  0  0  0
 17  1  2  0  0  0  0
 17 15  1  0  0  0  0
 18 22  1  0  0  0  0
 18 27  1  0  0  0  0
 19 26  1  0  0  0  0
 20 25  1  0  0  0  0
 21 20  1  0  0  0  0
 22 21  1  6  0  0  0
 22 24  1  0  0  0  0
 24 23  1  1  0  0  0
 24 19  1  0  0  0  0
 25 23  1  0  0  0  0
 27 26  2  0  0  0  0
 28 30  1  1  0  0  0
 28 20  1  0  0  0  0
 29 28  1  0  0  0  0
 31 34  1  0  0  0  0
 31 32  1  0  0  0  0
 33 31  1  0  0  0  0
 34 13  1  6  0  0  0
 34 32  1  0  0  0  0
M  END
>  <MODEL>
1

>  <REMARK>
 VINA RESULT:     -10.3      0.000      0.000
  Name = 
  3 active torsions:
  status: ('A' for Active; 'I' for Inactive)
    1  A    between atoms: N_7  and  C_11
    2  A    between atoms: C_18  and  C_30
    3  A    between atoms: C_23  and  C_25
                            x       y       z     vdW  Elec       q    Type
                         _______ _______ _______ _____ _____    ______ ____

>  <TORSDO>
F 3

$$$$
=
 OpenBabel10272415263D

 34 40  0  0  1  0  0  0  0  0999 V2000
  189.6270  176.9840  138.2870 C   0  0  0  0  0  0  0  0  0  0  0  0
  187.2060  176.6050  135.5230 C   0  0  0  0  0  3  0  0  0  0  0  0
  189.5330  176.0820  135.6620 N   0  0  0  0  0  0  0  0  0  0  0  0
  192.3090  177.3630  139.9470 S   0  0  0  0  0  0  0  0  0  0  0  0
  189.6310  177.2600  139.6920 N   0  0  0  0  0  2  0  0  0  0  0  0
  192.1240  176.6330  138.3130 C   0  0  0  0  0  0  0  0  0  0  0  0
  193.2190  175.9690  136.1810 C   0  0  0  0  0  2  0  0  0  0  0  0
  193.2340  176.2980  137.6490 C   0  0  0  0  0  3  0  0  0  0  0  0
  190.7010  176.7680  140.5510 C   0  0  2  0  0  3  0  0  0  0  0  0
  190.7190  176.0660  136.3260 C   0  0  0  0  0  0  0  0  0  0  0  0
  190.8050  176.5730  137.6350 C   0  0  0  0  0  0  0  0  0  0  0  0
  191.8940  175.3520  135.7270 C   0  0  0  0  0  2  0  0  0  0  0  0
  186.0370  177.0640  136.1400 C   0  0  0  0  0  0  0  0  0  0  0  0
  186.1030  177.5180  137.4650 C   0  0  0  0  0  3  0  0  0  0  0  0
  188.4050  176.5790  136.2330 C   0  0  0  0  0  0  0  0  0  0  0  0
  187.2790  177.4830  138.1480 N   0  0  0  0  0  0  0  0  0  0  0  0
  188.4260  177.0320  137.5690 C   0  0  0  0  0  0  0  0  0  0  0  0
  191.3110  177.8070  144.2310 C   0  0  0  0  0  2  0  0  0  0  0  0
  189.1360  177.2370  142.4750 N   0  0  0  0  0  0  0  0  0  0  0  0
  188.4360  177.1550  146.6340 N   0  0  0  0  0  0  0  0  0  0  0  0
  189.7060  177.7260  146.1720 C   0  0  0  0  0  2  0  0  0  0  0  0
  189.9970  177.2410  144.7580 C   0  0  1  0  0  3  0  0  0  0  0  0
  187.5340  177.1720  144.3380 C   0  0  0  0  0  2  0  0  0  0  0  0
  188.8700  177.6980  143.8330 C   0  0  2  0  0  3  0  0  0  0  0  0
  187.3360  177.6370  145.7810 C   0  0  0  0  0  2  0  0  0  0  0  0
  190.4780  177.1900  141.9680 C   0  0  0  0  0  0  0  0  0  0  0  0
  191.5170  177.4040  142.7940 C   0  0  0  0  0  2  0  0  0  0  0  0
  188.2340  177.5740  148.0250 C   0  0  1  0  0  3  0  0  0  0  0  0
  189.3810  178.1720  148.5600 O   0  0  0  0  0  1  0  0  0  0  0  0
  187.0490  178.5170  148.1370 C   0  0  0  0  0  1  0  0  0  0  0  0
  183.9040  175.9190  135.3790 N   0  0  0  0  0  0  0  0  0  0  0  0
  183.5570  177.0960  136.1860 C   0  0  0  0  0  2  0  0  0  0  0  0
  184.3350  174.9020  136.3350 C   0  0  0  0  0  1  0  0  0  0  0  0
  184.7540  177.1450  135.3460 C   0  0  1  0  0  3  0  0  0  0  0  0
  1  5  1  0  0  0  0
  2 13  2  0  0  0  0
  2 15  1  0  0  0  0
  3 15  2  0  0  0  0
  3 10  1  0  0  0  0
  4  9  1  0  0  0  0
  5  9  1  0  0  0  0
  6  4  1  0  0  0  0
  7  8  1  0  0  0  0
  8  6  2  0  0  0  0
  9 26  1  1  0  0  0
 10 11  2  0  0  0  0
 11  1  1  0  0  0  0
 11  6  1  0  0  0  0
 12  7  1  0  0  0  0
 12 10  1  0  0  0  0
 13 14  1  0  0  0  0
 14 16  2  0  0  0  0
 15 17  1  0  0  0  0
 17 16  1  0  0  0  0
 17  1  2  0  0  0  0
 19 24  1  0  0  0  0
 20 28  1  0  0  0  0
 21 20  1  0  0  0  0
 22 18  1  6  0  0  0
 22 21  1  0  0  0  0
 23 25  1  0  0  0  0
 24 23  1  1  0  0  0
 24 22  1  0  0  0  0
 25 20  1  0  0  0  0
 26 19  2  0  0  0  0
 26 27  1  0  0  0  0
 27 18  1  0  0  0  0
 28 30  1  6  0  0  0
 28 29  1  0  0  0  0
 31 32  1  0  0  0  0
 31 33  1  0  0  0  0
 34 31  1  0  0  0  0
 34 13  1  1  0  0  0
 34 32  1  0  0  0  0
M  END
>  <MODEL>
2

>  <REMARK>
 VINA RESULT:     -10.0      4.218      8.571
  Name = 
  3 active torsions:
  status: ('A' for Active; 'I' for Inactive)
    1  A    between atoms: N_7  and  C_11
    2  A    between atoms: C_18  and  C_30
    3  A    between atoms: C_23  and  C_25
                            x       y       z     vdW  Elec       q    Type
                         _______ _______ _______ _____ _____    ______ ____

>  <TORSDO>
F 3

$$$$
=
 OpenBabel10272415263D

 34 40  0  0  1  0  0  0  0  0999 V2000
  190.9510  176.0970  137.7060 C   0  0  0  0  0  0  0  0  0  0  0  0
  193.0860  174.4120  135.2070 C   0  0  0  0  0  3  0  0  0  0  0  0
  191.1940  175.8480  134.9510 N   0  0  0  0  0  0  0  0  0  0  0  0
  188.4900  177.4830  139.1610 S   0  0  0  0  0  0  0  0  0  0  0  0
  190.9470  176.3840  139.1090 N   0  0  0  0  0  2  0  0  0  0  0  0
  188.8250  177.4180  137.3950 C   0  0  0  0  0  0  0  0  0  0  0  0
  187.9290  177.6340  135.0850 C   0  0  0  0  0  2  0  0  0  0  0  0
  187.8990  177.9050  136.5650 C   0  0  0  0  0  3  0  0  0  0  0  0
  190.2440  177.5480  139.6360 C   0  0  2  0  0  3  0  0  0  0  0  0
  190.1750  176.5880  135.4620 C   0  0  0  0  0  0  0  0  0  0  0  0
  189.9950  176.6800  136.8550 C   0  0  0  0  0  0  0  0  0  0  0  0
  189.3490  177.4440  134.5480 C   0  0  0  0  0  2  0  0  0  0  0  0
  194.0110  173.7790  136.0450 C   0  0  0  0  0  0  0  0  0  0  0  0
  193.8720  173.9130  137.4330 C   0  0  0  0  0  3  0  0  0  0  0  0
  192.0630  175.1830  135.7570 C   0  0  0  0  0  0  0  0  0  0  0  0
  192.8720  174.6730  137.9550 N   0  0  0  0  0  0  0  0  0  0  0  0
  191.9660  175.3040  137.1580 C   0  0  0  0  0  0  0  0  0  0  0  0
  191.7290  177.4290  143.2100 C   0  0  0  0  0  2  0  0  0  0  0  0
  189.2160  177.8390  141.9230 N   0  0  0  0  0  2  0  0  0  0  0  0
  189.2370  176.8370  146.0210 N   0  0  0  0  0  0  0  0  0  0  0  0
  190.5160  177.2090  145.4080 C   0  0  0  0  0  2  0  0  0  0  0  0
  190.4190  177.0560  143.8960 C   0  0  1  0  0  3  0  0  0  0  0  0
  187.9970  177.6520  144.0500 C   0  0  0  0  0  2  0  0  0  0  0  0
  189.3200  177.9780  143.3720 C   0  0  2  0  0  3  0  0  0  0  0  0
  188.1820  177.7590  145.5640 C   0  0  0  0  0  2  0  0  0  0  0  0
  190.3880  177.6250  141.1220 C   0  0  0  0  0  0  0  0  0  0  0  0
  191.5700  177.3790  141.7120 C   0  0  0  0  0  3  0  0  0  0  0  0
  189.3950  176.9150  147.4770 C   0  0  1  0  0  3  0  0  0  0  0  0
  190.7220  177.1690  147.8430 O   0  0  0  0  0  1  0  0  0  0  0  0
  188.4770  177.9730  148.0640 C   0  0  0  0  0  1  0  0  0  0  0  0
  196.3800  173.5740  135.1560 N   0  0  0  0  0  0  0  0  0  0  0  0
  196.2300  172.7060  136.3320 C   0  0  0  0  0  2  0  0  0  0  0  0
  196.4920  174.9320  135.6830 C   0  0  0  0  0  1  0  0  0  0  0  0
  195.0820  172.8970  135.4450 C   0  0  1  0  0  3  0  0  0  0  0  0
  1  5  1  0  0  0  0
  2 15  2  0  0  0  0
  2 13  1  0  0  0  0
  3 10  2  0  0  0  0
  3 15  1  0  0  0  0
  4  9  1  0  0  0  0
  5  9  1  0  0  0  0
  6  4  1  0  0  0  0
  7  8  1  0  0  0  0
  8  6  2  0  0  0  0
  9 26  1  1  0  0  0
 10 11  1  0  0  0  0
 11  6  1  0  0  0  0
 11  1  2  0  0  0  0
 12  7  1  0  0  0  0
 12 10  1  0  0  0  0
 13 14  2  0  0  0  0
 14 16  1  0  0  0  0
 15 17  1  0  0  0  0
 17  1  1  0  0  0  0
 17 16  2  0  0  0  0
 19 24  1  0  0  0  0
 20 28  1  0  0  0  0
 21 20  1  0  0  0  0
 22 18  1  6  0  0  0
 22 21  1  0  0  0  0
 23 25  1  0  0  0  0
 24 22  1  0  0  0  0
 24 23  1  1  0  0  0
 25 20  1  0  0  0  0
 26 27  2  0  0  0  0
 26 19  1  0  0  0  0
 27 18  1  0  0  0  0
 28 29  1  0  0  0  0
 28 30  1  6  0  0  0
 31 34  1  0  0  0  0
 31 33  1  0  0  0  0
 31 32  1  0  0  0  0
 34 13  1  1  0  0  0
 34 32  1  0  0  0  0
M  END
>  <MODEL>
3

>  <REMARK>
 VINA RESULT:      -9.7      4.335     10.852
  Name = 
  3 active torsions:
  status: ('A' for Active; 'I' for Inactive)
    1  A    between atoms: N_7  and  C_11
    2  A    between atoms: C_18  and  C_30
    3  A    between atoms: C_23  and  C_25
                            x       y       z     vdW  Elec       q    Type
                         _______ _______ _______ _____ _____    ______ ____

>  <TORSDO>
F 3

$$$$
=
 OpenBabel10272415263D

 34 40  0  0  1  0  0  0  0  0999 V2000
  186.0430  178.0170  142.8760 C   0  0  0  0  0  0  0  0  0  0  0  0
  182.6210  179.0870  141.9890 C   0  0  0  0  0  3  0  0  0  0  0  0
  183.7590  179.0270  144.0890 N   0  0  0  0  0  0  0  0  0  0  0  0
  188.5730  176.9310  144.4620 S   0  0  0  0  0  0  0  0  0  0  0  0
  187.2770  177.6880  142.2270 N   0  0  0  0  0  2  0  0  0  0  0  0
  187.1240  177.7530  145.1400 C   0  0  0  0  0  0  0  0  0  0  0  0
  185.7290  178.2230  147.1450 C   0  0  0  0  0  2  0  0  0  0  0  0
  187.0170  177.8380  146.4680 C   0  0  0  0  0  3  0  0  0  0  0  0
  188.5550  177.8700  142.9060 C   0  0  2  0  0  3  0  0  0  0  0  0
  184.8390  178.7270  144.8570 C   0  0  0  0  0  0  0  0  0  0  0  0
  185.9870  178.1580  144.2750 C   0  0  0  0  0  0  0  0  0  0  0  0
  184.8720  179.1610  146.2930 C   0  0  0  0  0  2  0  0  0  0  0  0
  182.6440  178.8980  140.6030 C   0  0  0  0  0  0  0  0  0  0  0  0
  183.8050  178.3850  140.0070 C   0  0  0  0  0  3  0  0  0  0  0  0
  183.7510  178.7920  142.7510 C   0  0  0  0  0  0  0  0  0  0  0  0
  184.9010  178.1070  140.7620 N   0  0  0  0  0  0  0  0  0  0  0  0
  184.9040  178.2920  142.1120 C   0  0  0  0  0  0  0  0  0  0  0  0
  192.1140  177.2880  141.4980 C   0  0  0  0  0  2  0  0  0  0  0  0
  189.3930  176.9270  140.7190 N   0  0  0  0  0  0  0  0  0  0  0  0
  192.3610  176.9130  137.7210 N   0  0  0  0  0  0  0  0  0  0  0  0
  192.8070  176.8410  139.1160 C   0  0  0  0  0  2  0  0  0  0  0  0
  191.6970  177.3410  140.0320 C   0  0  1  0  0  3  0  0  0  0  0  0
  190.0290  176.4650  138.3900 C   0  0  0  0  0  2  0  0  0  0  0  0
  190.4650  176.4570  139.8490 C   0  0  2  0  0  3  0  0  0  0  0  0
  191.2070  176.0190  137.5230 C   0  0  0  0  0  2  0  0  0  0  0  0
  189.6870  177.4540  142.0230 C   0  0  0  0  0  0  0  0  0  0  0  0
  190.9610  177.6790  142.3860 C   0  0  0  0  0  2  0  0  0  0  0  0
  193.4820  176.5070  136.8680 C   0  0  1  0  0  3  0  0  0  0  0  0
  194.4400  175.7770  137.5810 O   0  0  0  0  0  1  0  0  0  0  0  0
  192.9900  175.7030  135.6770 C   0  0  0  0  0  1  0  0  0  0  0  0
  180.5170  177.9790  139.5660 N   0  0  0  0  0  0  0  0  0  0  0  0
  180.1650  178.9980  140.5640 C   0  0  0  0  0  2  0  0  0  0  0  0
  180.8840  176.7910  140.3310 C   0  0  0  0  0  1  0  0  0  0  0  0
  181.3970  179.1640  139.7910 C   0  0  1  0  0  3  0  0  0  0  0  0
  1 11  1  0  0  0  0
  2 15  1  0  0  0  0
  3 10  1  0  0  0  0
  4  6  1  0  0  0  0
  5  1  1  0  0  0  0
  5  9  1  0  0  0  0
  6  8  2  0  0  0  0
  8  7  1  0  0  0  0
  9 26  1  6  0  0  0
  9  4  1  0  0  0  0
 10 12  1  0  0  0  0
 11 10  2  0  0  0  0
 11  6  1  0  0  0  0
 12  7  1  0  0  0  0
 13  2  2  0  0  0  0
 14 13  1  0  0  0  0
 14 16  2  0  0  0  0
 15  3  2  0  0  0  0
 16 17  1  0  0  0  0
 17 15  1  0  0  0  0
 17  1  2  0  0  0  0
 18 27  1  0  0  0  0
 19 26  2  0  0  0  0
 20 21  1  0  0  0  0
 22 21  1  6  0  0  0
 22 18  1  0  0  0  0
 24 23  1  6  0  0  0
 24 22  1  0  0  0  0
 24 19  1  0  0  0  0
 25 20  1  0  0  0  0
 25 23  1  0  0  0  0
 26 27  1  0  0  0  0
 28 30  1  6  0  0  0
 28 29  1  0  0  0  0
 28 20  1  0  0  0  0
 31 34  1  0  0  0  0
 31 33  1  0  0  0  0
 31 32  1  0  0  0  0
 34 32  1  0  0  0  0
 34 13  1  1  0  0  0
M  END
>  <MODEL>
4

>  <REMARK>
 VINA RESULT:      -9.6      1.411      2.076
  Name = 
  3 active torsions:
  status: ('A' for Active; 'I' for Inactive)
    1  A    between atoms: N_7  and  C_11
    2  A    between atoms: C_18  and  C_30
    3  A    between atoms: C_23  and  C_25
                            x       y       z     vdW  Elec       q    Type
                         _______ _______ _______ _____ _____    ______ ____

>  <TORSDO>
F 3

$$$$
=
 OpenBabel10272415263D

 34 40  0  0  1  0  0  0  0  0999 V2000
  189.6300  177.4320  143.6530 C   0  0  0  0  0  0  0  0  0  0  0  0
  192.3710  176.5440  141.3410 C   0  0  0  0  0  3  0  0  0  0  0  0
  192.1200  176.2010  143.6920 N   0  0  0  0  0  0  0  0  0  0  0  0
  187.9790  178.1980  146.2570 S   0  0  0  0  0  0  0  0  0  0  0  0
  188.2720  177.8820  143.5990 N   0  0  0  0  0  2  0  0  0  0  0  0
  189.5090  177.2560  146.1660 C   0  0  0  0  0  0  0  0  0  0  0  0
  191.5180  176.4050  147.3610 C   0  0  0  0  0  2  0  0  0  0  0  0
  190.1030  176.9170  147.3130 C   0  0  0  0  0  3  0  0  0  0  0  0
  187.3360  177.5760  144.6740 C   0  0  2  0  0  3  0  0  0  0  0  0
  191.4360  176.3500  144.8570 C   0  0  0  0  0  0  0  0  0  0  0  0
  190.2010  177.0230  144.8720 C   0  0  0  0  0  0  0  0  0  0  0  0
  191.9150  175.6480  146.0930 C   0  0  0  0  0  2  0  0  0  0  0  0
  191.8400  176.9960  140.1270 C   0  0  0  0  0  0  0  0  0  0  0  0
  190.5830  177.6170  140.1260 C   0  0  0  0  0  3  0  0  0  0  0  0
  191.6390  176.6890  142.5180 C   0  0  0  0  0  0  0  0  0  0  0  0
  189.8780  177.7470  141.2820 N   0  0  0  0  0  0  0  0  0  0  0  0
  190.3720  177.3060  142.4720 C   0  0  0  0  0  0  0  0  0  0  0  0
  183.7450  178.9580  145.1010 C   0  0  0  0  0  2  0  0  0  0  0  0
  185.5900  178.3360  143.0170 N   0  0  0  0  0  0  0  0  0  0  0  0
  181.5070  178.7330  142.0340 N   0  0  0  0  0  0  0  0  0  0  0  0
  181.9290  179.1770  143.3670 C   0  0  0  0  0  2  0  0  0  0  0  0
  183.2620  178.5290  143.7200 C   0  0  1  0  0  3  0  0  0  0  0  0
  183.8530  178.5610  141.2920 C   0  0  0  0  0  2  0  0  0  0  0  0
  184.3090  178.9520  142.6910 C   0  0  2  0  0  3  0  0  0  0  0  0
  182.4830  179.1860  141.0280 C   0  0  0  0  0  2  0  0  0  0  0  0
  185.9890  178.1570  144.3840 C   0  0  0  0  0  0  0  0  0  0  0  0
  185.1150  178.3960  145.3770 C   0  0  0  0  0  2  0  0  0  0  0  0
  180.1850  179.3070  141.7660 C   0  0  1  0  0  3  0  0  0  0  0  0
  179.9890  180.5070  142.4600 O   0  0  0  0  0  1  0  0  0  0  0  0
  179.9820  179.5230  140.2770 C   0  0  0  0  0  1  0  0  0  0  0  0
  192.3420  175.7230  137.9890 N   0  0  0  0  0  0  0  0  0  0  0  0
  191.8710  177.0730  137.6480 C   0  0  0  0  0  2  0  0  0  0  0  0
  191.1470  174.9790  138.3780 C   0  0  0  0  0  1  0  0  0  0  0  0
  192.6640  176.8890  138.8650 C   0  0  1  0  0  3  0  0  0  0  0  0
  1 11  1  0  0  0  0
  2 15  1  0  0  0  0
  3 10  1  0  0  0  0
  5  1  1  0  0  0  0
  5  9  1  0  0  0  0
  6  4  1  0  0  0  0
  6  8  2  0  0  0  0
  8  7  1  0  0  0  0
  9 26  1  6  0  0  0
  9  4  1  0  0  0  0
 10 11  2  0  0  0  0
 10 12  1  0  0  0  0
 11  6  1  0  0  0  0
 12  7  1  0  0  0  0
 13  2  2  0  0  0  0
 14 13  1  0  0  0  0
 14 16  2  0  0  0  0
 15  3  2  0  0  0  0
 16 17  1  0  0  0  0
 17 15  1  0  0  0  0
 17  1  2  0  0  0  0
 18 27  1  0  0  0  0
 19 26  2  0  0  0  0
 20 21  1  0  0  0  0
 22 21  1  6  0  0  0
 22 18  1  0  0  0  0
 24 23  1  6  0  0  0
 24 19  1  0  0  0  0
 24 22  1  0  0  0  0
 25 23  1  0  0  0  0
 25 20  1  0  0  0  0
 26 27  1  0  0  0  0
 28 30  1  6  0  0  0
 28 20  1  0  0  0  0
 28 29  1  0  0  0  0
 31 33  1  0  0  0  0
 31 34  1  0  0  0  0
 32 31  1  0  0  0  0
 32 34  1  0  0  0  0
 34 13  1  1  0  0  0
M  END
>  <MODEL>
5

>  <REMARK>
 VINA RESULT:      -9.3      3.247      8.919
  Name = 
  3 active torsions:
  status: ('A' for Active; 'I' for Inactive)
    1  A    between atoms: N_7  and  C_11
    2  A    between atoms: C_18  and  C_30
    3  A    between atoms: C_23  and  C_25
                            x       y       z     vdW  Elec       q    Type
                         _______ _______ _______ _____ _____    ______ ____

>  <TORSDO>
F 3

$$$$
=
 OpenBabel10272415263D

 34 40  0  0  1  0  0  0  0  0999 V2000
  186.7060  177.7800  143.8280 C   0  0  0  0  0  0  0  0  0  0  0  0
  183.4300  179.0670  144.9460 C   0  0  0  0  0  3  0  0  0  0  0  0
  185.4700  178.7080  146.1350 N   0  0  0  0  0  0  0  0  0  0  0  0
  189.5780  176.4210  143.7670 S   0  0  0  0  0  0  0  0  0  0  0  0
  187.3970  177.4930  142.6080 N   0  0  0  0  0  2  0  0  0  0  0  0
  188.7630  177.2020  145.1680 C   0  0  0  0  0  0  0  0  0  0  0  0
  188.6430  177.4660  147.6390 C   0  0  0  0  0  2  0  0  0  0  0  0
  189.3610  177.1240  146.3600 C   0  0  0  0  0  3  0  0  0  0  0  0
  188.8530  177.5460  142.5370 C   0  0  2  0  0  3  0  0  0  0  0  0
  186.7590  178.2790  146.2010 C   0  0  0  0  0  0  0  0  0  0  0  0
  187.3870  177.7490  145.0590 C   0  0  0  0  0  0  0  0  0  0  0  0
  187.5620  178.5300  147.4430 C   0  0  0  0  0  2  0  0  0  0  0  0
  182.7220  179.0500  143.7390 C   0  0  0  0  0  0  0  0  0  0  0  0
  183.3600  178.5770  142.5850 C   0  0  0  0  0  3  0  0  0  0  0  0
  184.7570  178.6420  144.9810 C   0  0  0  0  0  0  0  0  0  0  0  0
  184.6570  178.1700  142.6330 N   0  0  0  0  0  0  0  0  0  0  0  0
  185.3670  178.1860  143.7950 C   0  0  0  0  0  0  0  0  0  0  0  0
  191.1390  176.8510  139.4910 C   0  0  0  0  0  2  0  0  0  0  0  0
  188.3610  177.0430  140.1130 N   0  0  0  0  0  0  0  0  0  0  0  0
  189.5430  177.3450  136.0740 N   0  0  0  0  0  0  0  0  0  0  0  0
  190.5470  176.8890  137.0410 C   0  0  0  0  0  2  0  0  0  0  0  0
  190.1240  177.3010  138.4460 C   0  0  1  0  0  3  0  0  0  0  0  0
  187.7400  177.0610  137.7340 C   0  0  0  0  0  2  0  0  0  0  0  0
  188.7790  176.6540  138.7700 C   0  0  2  0  0  3  0  0  0  0  0  0
  188.2560  176.6820  136.3460 C   0  0  0  0  0  2  0  0  0  0  0  0
  189.3280  177.2050  141.1610 C   0  0  0  0  0  0  0  0  0  0  0  0
  190.6410  177.1690  140.8770 C   0  0  0  0  0  2  0  0  0  0  0  0
  190.0250  177.0070  134.7310 C   0  0  1  0  0  3  0  0  0  0  0  0
  191.4140  177.1450  134.6280 O   0  0  0  0  0  1  0  0  0  0  0  0
  189.6060  175.5990  134.3460 C   0  0  0  0  0  1  0  0  0  0  0  0
  180.6170  179.4440  142.3770 N   0  0  0  0  0  0  0  0  0  0  0  0
  180.3720  178.3620  143.3400 C   0  0  0  0  0  2  0  0  0  0  0  0
  181.4220  178.8480  141.3140 C   0  0  0  0  0  1  0  0  0  0  0  0
  181.2660  179.4570  143.7210 C   0  0  1  0  0  3  0  0  0  0  0  0
  1 11  1  0  0  0  0
  2 15  1  0  0  0  0
  3 10  1  0  0  0  0
  4  6  1  0  0  0  0
  5  1  1  0  0  0  0
  6  8  2  0  0  0  0
  8  7  1  0  0  0  0
  9 26  1  6  0  0  0
  9  5  1  0  0  0  0
  9  4  1  0  0  0  0
 10 12  1  0  0  0  0
 11  6  1  0  0  0  0
 11 10  2  0  0  0  0
 12  7  1  0  0  0  0
 13  2  2  0  0  0  0
 14 16  2  0  0  0  0
 14 13  1  0  0  0  0
 15  3  2  0  0  0  0
 16 17  1  0  0  0  0
 17  1  2  0  0  0  0
 17 15  1  0  0  0  0
 18 27  1  0  0  0  0
 19 26  2  0  0  0  0
 20 25  1  0  0  0  0
 20 21  1  0  0  0  0
 22 21  1  6  0  0  0
 22 24  1  0  0  0  0
 22 18  1  0  0  0  0
 24 23  1  6  0  0  0
 24 19  1  0  0  0  0
 25 23  1  0  0  0  0
 27 26  1  0  0  0  0
 28 30  1  1  0  0  0
 28 20  1  0  0  0  0
 29 28  1  0  0  0  0
 31 32  1  0  0  0  0
 31 34  1  0  0  0  0
 32 34  1  0  0  0  0
 33 31  1  0  0  0  0
 34 13  1  6  0  0  0
M  END
>  <MODEL>
6

>  <REMARK>
 VINA RESULT:      -9.1      1.593      2.210
  Name = 
  3 active torsions:
  status: ('A' for Active; 'I' for Inactive)
    1  A    between atoms: N_7  and  C_11
    2  A    between atoms: C_18  and  C_30
    3  A    between atoms: C_23  and  C_25
                            x       y       z     vdW  Elec       q    Type
                         _______ _______ _______ _____ _____    ______ ____

>  <TORSDO>
F 3

$$$$
=
 OpenBabel10272415263D

 34 40  0  0  1  0  0  0  0  0999 V2000
  190.3170  176.0020  137.4960 C   0  0  0  0  0  0  0  0  0  0  0  0
  192.7480  174.6250  135.0810 C   0  0  0  0  0  3  0  0  0  0  0  0
  190.8670  176.0660  134.7750 N   0  0  0  0  0  0  0  0  0  0  0  0
  187.6830  177.1970  138.8100 S   0  0  0  0  0  0  0  0  0  0  0  0
  190.1520  176.1310  138.9130 N   0  0  0  0  0  2  0  0  0  0  0  0
  188.2110  177.3320  137.0970 C   0  0  0  0  0  0  0  0  0  0  0  0
  187.5720  177.7990  134.7390 C   0  0  0  0  0  2  0  0  0  0  0  0
  187.3730  177.9020  136.2270 C   0  0  0  0  0  3  0  0  0  0  0  0
  189.3710  177.2220  139.4830 C   0  0  2  0  0  3  0  0  0  0  0  0
  189.7830  176.7360  135.2470 C   0  0  0  0  0  0  0  0  0  0  0  0
  189.4490  176.6700  136.6120 C   0  0  0  0  0  0  0  0  0  0  0  0
  189.0460  177.6820  134.3460 C   0  0  0  0  0  2  0  0  0  0  0  0
  193.5890  173.9100  135.9410 C   0  0  0  0  0  0  0  0  0  0  0  0
  193.2950  173.8870  137.3120 C   0  0  0  0  0  3  0  0  0  0  0  0
  191.6550  175.3220  135.5940 C   0  0  0  0  0  0  0  0  0  0  0  0
  192.2280  174.5750  137.7990 N   0  0  0  0  0  0  0  0  0  0  0  0
  191.4020  175.2850  136.9800 C   0  0  0  0  0  0  0  0  0  0  0  0
  188.4360  177.7790  143.1980 C   0  0  0  0  0  2  0  0  0  0  0  0
  190.3790  176.3870  141.6410 N   0  0  0  0  0  0  0  0  0  0  0  0
  191.1890  177.0720  145.7240 N   0  0  0  0  0  0  0  0  0  0  0  0
  189.8250  177.3280  145.2520 C   0  0  0  0  0  2  0  0  0  0  0  0
  189.8350  177.5070  143.7390 C   0  0  1  0  0  3  0  0  0  0  0  0
  191.7520  175.9080  143.6230 C   0  0  0  0  0  2  0  0  0  0  0  0
  190.3620  176.2280  143.0920 C   0  0  2  0  0  3  0  0  0  0  0  0
  191.6840  175.8100  145.1480 C   0  0  0  0  0  2  0  0  0  0  0  0
  189.3490  177.1340  140.9750 C   0  0  0  0  0  0  0  0  0  0  0  0
  188.4570  177.8370  141.6930 C   0  0  0  0  0  2  0  0  0  0  0  0
  191.1520  176.9910  147.1880 C   0  0  1  0  0  3  0  0  0  0  0  0
  189.8520  176.7810  147.6640 O   0  0  0  0  0  1  0  0  0  0  0  0
  192.0790  175.9000  147.6920 C   0  0  0  0  0  1  0  0  0  0  0  0
  196.0290  173.8460  135.2440 N   0  0  0  0  0  0  0  0  0  0  0  0
  195.8140  172.8880  136.3360 C   0  0  0  0  0  2  0  0  0  0  0  0
  196.0460  175.1630  135.8760 C   0  0  0  0  0  1  0  0  0  0  0  0
  194.7370  173.1090  135.3710 C   0  0  1  0  0  3  0  0  0  0  0  0
  1  5  1  0  0  0  0
  2 15  2  0  0  0  0
  2 13  1  0  0  0  0
  3 10  2  0  0  0  0
  3 15  1  0  0  0  0
  4  9  1  0  0  0  0
  5  9  1  0  0  0  0
  6  4  1  0  0  0  0
  7  8  1  0  0  0  0
  8  6  2  0  0  0  0
  9 26  1  1  0  0  0
 10 11  1  0  0  0  0
 11  6  1  0  0  0  0
 11  1  2  0  0  0  0
 12  7  1  0  0  0  0
 12 10  1  0  0  0  0
 13 14  2  0  0  0  0
 14 16  1  0  0  0  0
 15 17  1  0  0  0  0
 17  1  1  0  0  0  0
 17 16  2  0  0  0  0
 19 24  1  0  0  0  0
 20 28  1  0  0  0  0
 21 20  1  0  0  0  0
 22 18  1  6  0  0  0
 22 21  1  0  0  0  0
 23 25  1  0  0  0  0
 24 23  1  1  0  0  0
 24 22  1  0  0  0  0
 25 20  1  0  0  0  0
 26 19  2  0  0  0  0
 26 27  1  0  0  0  0
 27 18  1  0  0  0  0
 28 29  1  0  0  0  0
 28 30  1  6  0  0  0
 31 34  1  0  0  0  0
 31 33  1  0  0  0  0
 31 32  1  0  0  0  0
 34 13  1  1  0  0  0
 34 32  1  0  0  0  0
M  END
>  <MODEL>
7

>  <REMARK>
 VINA RESULT:      -9.0      4.859     10.543
  Name = 
  3 active torsions:
  status: ('A' for Active; 'I' for Inactive)
    1  A    between atoms: N_7  and  C_11
    2  A    between atoms: C_18  and  C_30
    3  A    between atoms: C_23  and  C_25
                            x       y       z     vdW  Elec       q    Type
                         _______ _______ _______ _____ _____    ______ ____

>  <TORSDO>
F 3

$$$$
=
 OpenBabel10272415263D

 34 40  0  0  1  0  0  0  0  0999 V2000
  189.9890  176.7820  139.0090 C   0  0  0  0  0  0  0  0  0  0  0  0
  189.1000  178.3800  142.2190 C   0  0  0  0  0  3  0  0  0  0  0  0
  187.9080  178.2200  140.1550 N   0  0  0  0  0  0  0  0  0  0  0  0
  190.1710  176.0630  135.9200 S   0  0  0  0  0  0  0  0  0  0  0  0
  190.9670  175.8770  138.4850 N   0  0  0  0  0  2  0  0  0  0  0  0
  188.7980  176.8370  136.7870 C   0  0  0  0  0  0  0  0  0  0  0  0
  186.7160  178.1890  136.6270 C   0  0  0  0  0  2  0  0  0  0  0  0
  187.7640  177.2690  136.0600 C   0  0  0  0  0  3  0  0  0  0  0  0
  190.6690  175.0340  137.3330 C   0  0  2  0  0  3  0  0  0  0  0  0
  187.8130  177.8410  138.8530 C   0  0  0  0  0  0  0  0  0  0  0  0
  188.8790  177.1640  138.2330 C   0  0  0  0  0  0  0  0  0  0  0  0
  186.5080  177.9920  138.1300 C   0  0  0  0  0  2  0  0  0  0  0  0
  190.2240  178.0550  142.9870 C   0  0  0  0  0  0  0  0  0  0  0  0
  191.2660  177.3310  142.3920 C   0  0  0  0  0  3  0  0  0  0  0  0
  189.0190  177.9600  140.8920 C   0  0  0  0  0  0  0  0  0  0  0  0
  191.1710  176.9230  141.0980 N   0  0  0  0  0  0  0  0  0  0  0  0
  190.0830  177.2210  140.3350 C   0  0  0  0  0  0  0  0  0  0  0  0
  192.8890  172.2600  135.7940 C   0  0  0  0  0  2  0  0  0  0  0  0
  193.0960  174.4160  137.6500 N   0  0  0  0  0  2  0  0  0  0  0  0
  196.0530  171.4090  137.7250 N   0  0  0  0  0  0  0  0  0  0  0  0
  195.1320  171.4250  136.5830 C   0  0  0  0  0  2  0  0  0  0  0  0
  193.8820  172.2160  136.9500 C   0  0  1  0  0  3  0  0  0  0  0  0
  195.2960  173.6470  138.4330 C   0  0  0  0  0  2  0  0  0  0  0  0
  194.2840  173.6480  137.2960 C   0  0  2  0  0  3  0  0  0  0  0  0
  196.4900  172.7820  138.0280 C   0  0  0  0  0  2  0  0  0  0  0  0
  191.8480  174.1840  136.9800 C   0  0  0  0  0  0  0  0  0  0  0  0
  191.7180  173.1420  136.1420 C   0  0  0  0  0  3  0  0  0  0  0  0
  197.2010  170.5690  137.3650 C   0  0  1  0  0  3  0  0  0  0  0  0
  197.0380  169.2500  137.8040 O   0  0  0  0  0  1  0  0  0  0  0  0
  197.4410  170.5980  135.8660 C   0  0  0  0  0  1  0  0  0  0  0  0
  189.3530  177.9810  145.3700 N   0  0  0  0  0  0  0  0  0  0  0  0
  190.7510  177.5300  145.3540 C   0  0  0  0  0  2  0  0  0  0  0  0
  188.5740  176.8610  144.8480 C   0  0  0  0  0  1  0  0  0  0  0  0
  190.3320  178.5640  144.4060 C   0  0  1  0  0  3  0  0  0  0  0  0
  1 17  1  0  0  0  0
  2 13  1  0  0  0  0
  3 15  1  0  0  0  0
  4  6  1  0  0  0  0
  4  9  1  0  0  0  0
  5  1  1  0  0  0  0
  6 11  1  0  0  0  0
  7 12  1  0  0  0  0
  8  7  1  0  0  0  0
  8  6  2  0  0  0  0
  9 26  1  6  0  0  0
  9  5  1  0  0  0  0
 10  3  2  0  0  0  0
 11 10  1  0  0  0  0
 11  1  2  0  0  0  0
 12 10  1  0  0  0  0
 14 13  2  0  0  0  0
 15  2  2  0  0  0  0
 16 14  1  0  0  0  0
 17 15  1  0  0  0  0
 17 16  2  0  0  0  0
 18 27  1  0  0  0  0
 20 25  1  0  0  0  0
 21 22  1  0  0  0  0
 21 20  1  0  0  0  0
 22 18  1  6  0  0  0
 22 24  1  0  0  0  0
 24 19  1  0  0  0  0
 24 23  1  1  0  0  0
 25 23  1  0  0  0  0
 26 19  1  0  0  0  0
 27 26  2  0  0  0  0
 28 30  1  6  0  0  0
 28 20  1  0  0  0  0
 28 29  1  0  0  0  0
 32 31  1  0  0  0  0
 33 31  1  0  0  0  0
 34 13  1  6  0  0  0
 34 32  1  0  0  0  0
 34 31  1  0  0  0  0
M  END
>  <MODEL>
8

>  <REMARK>
 VINA RESULT:      -9.0      4.351      7.467
  Name = 
  3 active torsions:
  status: ('A' for Active; 'I' for Inactive)
    1  A    between atoms: N_7  and  C_11
    2  A    between atoms: C_18  and  C_30
    3  A    between atoms: C_23  and  C_25
                            x       y       z     vdW  Elec       q    Type
                         _______ _______ _______ _____ _____    ______ ____

>  <TORSDO>
F 3

$$$$
=
 OpenBabel10272415263D

 34 40  0  0  1  0  0  0  0  0999 V2000
  190.4960  177.0500  138.9530 C   0  0  0  0  0  0  0  0  0  0  0  0
  189.0180  178.2060  142.1350 C   0  0  0  0  0  3  0  0  0  0  0  0
  188.0540  177.8950  139.9710 N   0  0  0  0  0  0  0  0  0  0  0  0
  191.0720  176.5760  135.8650 S   0  0  0  0  0  0  0  0  0  0  0  0
  191.6960  176.4290  138.4800 N   0  0  0  0  0  2  0  0  0  0  0  0
  189.4950  176.9580  136.6400 C   0  0  0  0  0  0  0  0  0  0  0  0
  187.1700  177.7960  136.3550 C   0  0  0  0  0  2  0  0  0  0  0  0
  188.4450  177.1790  135.8450 C   0  0  0  0  0  3  0  0  0  0  0  0
  191.6930  175.6090  137.2740 C   0  0  2  0  0  3  0  0  0  0  0  0
  188.1490  177.5820  138.6520 C   0  0  0  0  0  0  0  0  0  0  0  0
  189.3890  177.2090  138.1000 C   0  0  0  0  0  0  0  0  0  0  0  0
  186.9030  177.4680  137.8260 C   0  0  0  0  0  2  0  0  0  0  0  0
  190.1260  178.1060  142.9840 C   0  0  0  0  0  0  0  0  0  0  0  0
  191.3510  177.6800  142.4530 C   0  0  0  0  0  3  0  0  0  0  0  0
  189.1380  177.8570  140.7910 C   0  0  0  0  0  0  0  0  0  0  0  0
  191.4520  177.3390  141.1400 N   0  0  0  0  0  0  0  0  0  0  0  0
  190.3840  177.4200  140.2990 C   0  0  0  0  0  0  0  0  0  0  0  0
  194.9550  173.5330  137.4570 C   0  0  0  0  0  2  0  0  0  0  0  0
  193.8810  175.7520  136.0220 N   0  0  0  0  0  0  0  0  0  0  0  0
  198.0630  175.2000  136.0320 N   0  0  0  0  0  0  0  0  0  0  0  0
  197.2340  174.1030  136.5420 C   0  0  0  0  0  2  0  0  0  0  0  0
  195.8580  174.6380  136.9180 C   0  0  1  0  0  3  0  0  0  0  0  0
  196.0810  176.3290  135.0910 C   0  0  0  0  0  2  0  0  0  0  0  0
  195.2000  175.2340  135.6750 C   0  0  2  0  0  3  0  0  0  0  0  0
  197.4640  175.7430  134.8010 C   0  0  0  0  0  2  0  0  0  0  0  0
  193.0620  175.0790  136.9910 C   0  0  0  0  0  0  0  0  0  0  0  0
  193.5690  174.0650  137.7120 C   0  0  0  0  0  2  0  0  0  0  0  0
  199.4010  174.6650  135.7630 C   0  0  1  0  0  3  0  0  0  0  0  0
  200.2320  174.7520  136.8870 O   0  0  0  0  0  1  0  0  0  0  0  0
  199.3210  173.2280  135.2800 C   0  0  0  0  0  1  0  0  0  0  0  0
  188.8970  177.9020  145.1960 N   0  0  0  0  0  0  0  0  0  0  0  0
  190.2880  177.4640  145.3750 C   0  0  0  0  0  2  0  0  0  0  0  0
  188.2270  176.8040  144.5040 C   0  0  0  0  0  1  0  0  0  0  0  0
  190.0050  178.5420  144.4260 C   0  0  1  0  0  3  0  0  0  0  0  0
  1 17  1  0  0  0  0
  2 13  1  0  0  0  0
  3 15  1  0  0  0  0
  4  6  1  0  0  0  0
  4  9  1  0  0  0  0
  5  1  1  0  0  0  0
  6 11  1  0  0  0  0
  7 12  1  0  0  0  0
  8  7  1  0  0  0  0
  8  6  2  0  0  0  0
  9 26  1  6  0  0  0
  9  5  1  0  0  0  0
 10  3  2  0  0  0  0
 11 10  1  0  0  0  0
 11  1  2  0  0  0  0
 12 10  1  0  0  0  0
 14 13  2  0  0  0  0
 15  2  2  0  0  0  0
 16 14  1  0  0  0  0
 17 15  1  0  0  0  0
 17 16  2  0  0  0  0
 18 27  1  0  0  0  0
 19 26  2  0  0  0  0
 20 21  1  0  0  0  0
 22 21  1  6  0  0  0
 22 18  1  0  0  0  0
 24 23  1  1  0  0  0
 24 19  1  0  0  0  0
 24 22  1  0  0  0  0
 25 23  1  0  0  0  0
 25 20  1  0  0  0  0
 26 27  1  0  0  0  0
 28 30  1  1  0  0  0
 28 20  1  0  0  0  0
 28 29  1  0  0  0  0
 31 32  1  0  0  0  0
 33 31  1  0  0  0  0
 34 13  1  6  0  0  0
 34 31  1  0  0  0  0
 34 32  1  0  0  0  0
M  END
>  <MODEL>
9

>  <REMARK>
 VINA RESULT:      -8.7      4.256      7.553
  Name = 
  3 active torsions:
  status: ('A' for Active; 'I' for Inactive)
    1  A    between atoms: N_7  and  C_11
    2  A    between atoms: C_18  and  C_30
    3  A    between atoms: C_23  and  C_25
                            x       y       z     vdW  Elec       q    Type
                         _______ _______ _______ _____ _____    ______ ____

>  <TORSDO>
F 3

$$$$
