=
 OpenBabel10272414223D

 43 48  0  0  1  0  0  0  0  0999 V2000
  191.1560  176.8350  146.6570 C   0  0  2  0  0  3  0  0  0  0  0  0
  187.3290  178.2140  143.4480 C   0  0  0  0  0  0  0  0  0  0  0  0
  188.5350  178.5920  140.8480 C   0  0  2  0  0  3  0  0  0  0  0  0
  188.8940  177.2810  145.6370 C   0  0  0  0  0  0  0  0  0  0  0  0
  191.5880  176.3910  145.2710 C   0  0  0  0  0  2  0  0  0  0  0  0
  191.8510  175.9920  147.7030 C   0  0  0  0  0  1  0  0  0  0  0  0
  189.4690  177.4810  144.4320 C   0  0  0  0  0  0  0  0  0  0  0  0
  189.6460  176.6700  146.7900 C   0  0  0  0  0  2  0  0  0  0  0  0
  190.9560  177.3110  144.2310 C   0  0  0  0  0  2  0  0  0  0  0  0
  189.2370  178.0070  141.9850 N   0  0  0  0  0  2  0  0  0  0  0  0
  188.6410  177.9340  143.2880 C   0  0  0  0  0  0  0  0  0  0  0  0
  186.7410  178.3130  144.8320 C   0  0  0  0  0  2  0  0  0  0  0  0
  186.4850  178.6620  142.2690 C   0  0  1  0  0  3  0  0  0  0  0  0
  187.0580  178.2360  140.9140 C   0  0  0  0  0  2  0  0  0  0  0  0
  187.4900  177.5040  145.7890 N   0  0  0  0  0  2  0  0  0  0  0  0
  185.0880  178.2370  142.4010 N   0  0  0  0  0  0  0  0  0  0  0  0
  183.2800  178.9810  139.2510 C   0  0  0  0  0  2  0  0  0  0  0  0
  181.8980  179.1620  139.8740 C   0  0  2  0  0  3  0  0  0  0  0  0
  182.7740  177.9860  141.8680 C   0  0  0  0  0  3  0  0  0  0  0  0
  184.3560  179.2800  140.2950 C   0  0  0  0  0  2  0  0  0  0  0  0
  184.1280  178.4760  141.5550 C   0  0  0  0  0  0  0  0  0  0  0  0
  181.7380  178.2730  141.0770 C   0  0  0  0  0  3  0  0  0  0  0  0
  180.9080  178.8760  138.9330 O   0  0  0  0  0  0  0  0  0  0  0  0
  181.4620  177.8840  138.1250 C   0  0  0  0  0  1  0  0  0  0  0  0
  189.1370  178.1080  139.5700 C   0  0  0  0  0  0  0  0  0  0  0  0
  190.2340  176.8070  137.1060 N   0  0  0  0  0  2  0  0  0  0  0  0
  189.8610  176.8730  139.5660 N   0  0  0  0  0  2  0  0  0  0  0  0
  189.0140  178.7930  138.5190 O   0  0  0  0  0  0  0  0  0  0  0  0
  190.4180  176.2440  138.4070 C   0  0  0  0  0  0  0  0  0  0  0  0
  191.0630  175.1710  138.5430 O   0  0  0  0  0  0  0  0  0  0  0  0
  190.7500  176.1680  135.9040 C   0  0  1  0  0  3  0  0  0  0  0  0
  193.2010  176.0450  135.8010 C   0  0  0  0  0  2  0  0  0  0  0  0
  191.9780  175.3440  136.2480 C   0  0  2  0  0  3  0  0  0  0  0  0
  192.6410  174.9890  135.0590 O   0  0  0  0  0  0  0  0  0  0  0  0
  189.6810  175.2990  135.2300 C   0  0  2  0  0  3  0  0  0  0  0  0
  188.3520  175.9920  135.1660 C   0  0  0  0  0  0  0  0  0  0  0  0
  187.0120  177.8400  134.3460 C   0  0  0  0  0  3  0  0  0  0  0  0
  186.0240  176.1990  135.8280 C   0  0  0  0  0  3  0  0  0  0  0  0
  185.9080  177.3610  135.0580 C   0  0  0  0  0  3  0  0  0  0  0  0
  187.2430  175.5180  135.8850 C   0  0  0  0  0  3  0  0  0  0  0  0
  188.2310  177.1580  134.4020 C   0  0  0  0  0  3  0  0  0  0  0  0
  189.5510  173.6260  135.9550 S   0  0  0  0  0  0  0  0  0  0  0  0
  189.8240  172.8310  134.3470 C   0  0  0  0  0  1  0  0  0  0  0  0
  1  8  1  0  0  0  0
  1  6  1  1  0  0  0
  2 12  1  0  0  0  0
  3 25  1  6  0  0  0
  3 14  1  0  0  0  0
  3 10  1  0  0  0  0
  4 15  1  0  0  0  0
  4  8  1  0  0  0  0
  5  1  1  0  0  0  0
  7  4  2  0  0  0  0
  9  7  1  0  0  0  0
  9  5  1  0  0  0  0
 10 11  1  0  0  0  0
 11  2  2  0  0  0  0
 11  7  1  0  0  0  0
 12 15  1  0  0  0  0
 13 16  1  1  0  0  0
 13  2  1  0  0  0  0
 14 13  1  0  0  0  0
 17 18  1  0  0  0  0
 17 20  1  0  0  0  0
 18 23  1  6  0  0  0
 18 22  1  0  0  0  0
 20 21  1  0  0  0  0
 21 19  1  0  0  0  0
 21 16  2  0  0  0  0
 22 19  2  0  0  0  0
 24 23  1  0  0  0  0
 26 29  1  0  0  0  0
 27 25  1  0  0  0  0
 28 25  2  0  0  0  0
 29 30  2  0  0  0  0
 29 27  1  0  0  0  0
 31 26  1  1  0  0  0
 32 33  1  0  0  0  0
 33 31  1  6  0  0  0
 34 32  1  0  0  0  0
 34 33  1  0  0  0  0
 35 31  1  0  0  0  0
 35 42  1  1  0  0  0
 36 35  1  0  0  0  0
 36 40  1  0  0  0  0
 37 41  1  0  0  0  0
 37 39  2  0  0  0  0
 38 40  2  0  0  0  0
 39 38  1  0  0  0  0
 41 36  2  0  0  0  0
 43 42  1  0  0  0  0
M  END
>  <MODEL>
1

>  <REMARK>
 VINA RESULT:      -8.0      0.000      0.000
  Name = 
  8 active torsions:
  status: ('A' for Active; 'I' for Inactive)
    1  A    between atoms: N_1  and  C_34
    2  A    between atoms: C_2  and  C_13
    3  A    between atoms: N_3  and  C_4
    4  A    between atoms: C_4  and  C_15
    5  A    between atoms: C_4  and  C_22
    6  A    between atoms: C_11  and  C_22
    7  A    between atoms: S_14  and  C_22
    8  A    between atoms: C_19  and  O_25
                            x       y       z     vdW  Elec       q    Type
                         _______ _______ _______ _____ _____    ______ ____

>  <TORSDO>
F 8

$$$$
=
 OpenBabel10272414223D

 43 48  0  0  1  0  0  0  0  0999 V2000
  189.6700  177.4560  145.6770 C   0  0  2  0  0  3  0  0  0  0  0  0
  188.7420  177.9560  140.6040 C   0  0  0  0  0  0  0  0  0  0  0  0
  191.2890  177.6560  139.2700 C   0  0  2  0  0  3  0  0  0  0  0  0
  188.5470  177.6200  143.4260 C   0  0  0  0  0  0  0  0  0  0  0  0
  190.7610  176.6710  144.9700 C   0  0  0  0  0  2  0  0  0  0  0  0
  189.4740  176.9110  147.0740 C   0  0  0  0  0  1  0  0  0  0  0  0
  189.7440  177.5050  142.8120 C   0  0  0  0  0  0  0  0  0  0  0  0
  188.3690  177.3270  144.8920 C   0  0  0  0  0  2  0  0  0  0  0  0
  191.0150  177.2920  143.6000 C   0  0  0  0  0  2  0  0  0  0  0  0
  191.0850  177.3850  140.6890 N   0  0  0  0  0  2  0  0  0  0  0  0
  189.8330  177.6470  141.3390 C   0  0  0  0  0  0  0  0  0  0  0  0
  187.4750  178.4060  141.2850 C   0  0  0  0  0  2  0  0  0  0  0  0
  188.8370  178.0840  139.0950 C   0  0  1  0  0  3  0  0  0  0  0  0
  190.0250  177.3260  138.4940 C   0  0  0  0  0  2  0  0  0  0  0  0
  187.3790  177.8710  142.6400 N   0  0  0  0  0  2  0  0  0  0  0  0
  187.5860  177.7050  138.4320 N   0  0  0  0  0  0  0  0  0  0  0  0
  187.9850  174.3570  136.8900 C   0  0  0  0  0  2  0  0  0  0  0  0
  186.9750  174.5560  135.7620 C   0  0  2  0  0  3  0  0  0  0  0  0
  186.0760  176.4600  137.0620 C   0  0  0  0  0  3  0  0  0  0  0  0
  188.5300  175.7140  137.3350 C   0  0  0  0  0  2  0  0  0  0  0  0
  187.4060  176.6700  137.6630 C   0  0  0  0  0  0  0  0  0  0  0  0
  185.8590  175.4620  136.2040 C   0  0  0  0  0  3  0  0  0  0  0  0
  186.4590  173.3240  135.3590 O   0  0  0  0  0  0  0  0  0  0  0  0
  185.9480  172.7540  136.5250 C   0  0  0  0  0  1  0  0  0  0  0  0
  192.4440  176.8620  138.7580 C   0  0  0  0  0  0  0  0  0  0  0  0
  194.6510  175.3610  137.3990 N   0  0  0  0  0  2  0  0  0  0  0  0
  192.2650  176.0400  137.6000 N   0  0  0  0  0  2  0  0  0  0  0  0
  193.5540  176.9110  139.3540 O   0  0  0  0  0  0  0  0  0  0  0  0
  193.2960  175.2930  136.9470 C   0  0  0  0  0  0  0  0  0  0  0  0
  193.0000  174.5800  135.9520 O   0  0  0  0  0  0  0  0  0  0  0  0
  195.7300  174.6470  136.7300 C   0  0  1  0  0  3  0  0  0  0  0  0
  196.3090  175.2360  134.4170 C   0  0  0  0  0  2  0  0  0  0  0  0
  196.5010  175.6030  135.8360 C   0  0  2  0  0  3  0  0  0  0  0  0
  197.4730  174.8800  135.1220 O   0  0  0  0  0  0  0  0  0  0  0  0
  196.6640  173.9710  137.7410 C   0  0  2  0  0  3  0  0  0  0  0  0
  196.5620  172.4760  137.6890 C   0  0  0  0  0  0  0  0  0  0  0  0
  195.2470  170.4710  138.0510 C   0  0  0  0  0  3  0  0  0  0  0  0
  197.5410  170.2880  137.2970 C   0  0  0  0  0  3  0  0  0  0  0  0
  196.3360  169.6820  137.6670 C   0  0  0  0  0  3  0  0  0  0  0  0
  197.6560  171.6800  137.3100 C   0  0  0  0  0  3  0  0  0  0  0  0
  195.3610  171.8640  138.0640 C   0  0  0  0  0  3  0  0  0  0  0  0
  196.4700  174.6160  139.4410 S   0  0  0  0  0  0  0  0  0  0  0  0
  198.2350  175.0230  139.5630 C   0  0  0  0  0  1  0  0  0  0  0  0
  1  6  1  1  0  0  0
  2 12  1  0  0  0  0
  2 11  2  0  0  0  0
  3 25  1  6  0  0  0
  3 10  1  0  0  0  0
  4  8  1  0  0  0  0
  5  1  1  0  0  0  0
  7  4  2  0  0  0  0
  7  9  1  0  0  0  0
  8  1  1  0  0  0  0
  9  5  1  0  0  0  0
 10 11  1  0  0  0  0
 11  7  1  0  0  0  0
 12 15  1  0  0  0  0
 13 16  1  6  0  0  0
 13  2  1  0  0  0  0
 14 13  1  0  0  0  0
 14  3  1  0  0  0  0
 15  4  1  0  0  0  0
 17 20  1  0  0  0  0
 18 23  1  1  0  0  0
 18 22  1  0  0  0  0
 18 17  1  0  0  0  0
 19 21  1  0  0  0  0
 20 21  1  0  0  0  0
 21 16  2  0  0  0  0
 22 19  2  0  0  0  0
 23 24  1  0  0  0  0
 25 28  2  0  0  0  0
 27 25  1  0  0  0  0
 29 26  1  0  0  0  0
 29 27  1  0  0  0  0
 30 29  2  0  0  0  0
 31 26  1  1  0  0  0
 31 35  1  0  0  0  0
 32 34  1  0  0  0  0
 32 33  1  0  0  0  0
 33 31  1  1  0  0  0
 34 33  1  0  0  0  0
 35 42  1  1  0  0  0
 36 35  1  0  0  0  0
 36 41  1  0  0  0  0
 37 41  2  0  0  0  0
 38 40  1  0  0  0  0
 38 39  2  0  0  0  0
 39 37  1  0  0  0  0
 40 36  2  0  0  0  0
 42 43  1  0  0  0  0
M  END
>  <MODEL>
2

>  <REMARK>
 VINA RESULT:      -8.0      3.572      6.295
  Name = 
  8 active torsions:
  status: ('A' for Active; 'I' for Inactive)
    1  A    between atoms: N_1  and  C_34
    2  A    between atoms: C_2  and  C_13
    3  A    between atoms: N_3  and  C_4
    4  A    between atoms: C_4  and  C_15
    5  A    between atoms: C_4  and  C_22
    6  A    between atoms: C_11  and  C_22
    7  A    between atoms: S_14  and  C_22
    8  A    between atoms: C_19  and  O_25
                            x       y       z     vdW  Elec       q    Type
                         _______ _______ _______ _____ _____    ______ ____

>  <TORSDO>
F 8

$$$$
=
 OpenBabel10272414223D

 43 48  0  0  1  0  0  0  0  0999 V2000
  181.7210  178.5810  137.4830 C   0  0  2  0  0  3  0  0  0  0  0  0
  186.6600  177.2200  136.7060 C   0  0  0  0  0  0  0  0  0  0  0  0
  188.1220  178.0660  139.0520 C   0  0  2  0  0  3  0  0  0  0  0  0
  183.8310  177.5380  136.5820 C   0  0  0  0  0  0  0  0  0  0  0  0
  182.3260  178.3890  138.8620 C   0  0  0  0  0  2  0  0  0  0  0  0
  180.2230  178.3820  137.5510 C   0  0  0  0  0  1  0  0  0  0  0  0
  184.5120  177.9590  137.6700 C   0  0  0  0  0  0  0  0  0  0  0  0
  182.3270  177.5650  136.5210 C   0  0  0  0  0  2  0  0  0  0  0  0
  183.8210  178.6870  138.7980 C   0  0  0  0  0  2  0  0  0  0  0  0
  186.6670  178.0850  138.9590 N   0  0  0  0  0  2  0  0  0  0  0  0
  185.9800  177.7600  137.7420 C   0  0  0  0  0  0  0  0  0  0  0  0
  185.9840  177.0430  135.3710 C   0  0  0  0  0  2  0  0  0  0  0  0
  188.1580  177.0050  136.7940 C   0  0  1  0  0  3  0  0  0  0  0  0
  188.6770  176.9120  138.2320 C   0  0  0  0  0  2  0  0  0  0  0  0
  184.5390  176.8970  135.5180 N   0  0  0  0  0  2  0  0  0  0  0  0
  188.5940  175.8470  136.0070 N   0  0  0  0  0  0  0  0  0  0  0  0
  192.2750  175.4990  136.2760 C   0  0  0  0  0  2  0  0  0  0  0  0
  192.4930  174.8290  134.9210 C   0  0  2  0  0  3  0  0  0  0  0  0
  190.0710  174.3200  134.9170 C   0  0  0  0  0  3  0  0  0  0  0  0
  190.9960  176.3350  136.2340 C   0  0  0  0  0  2  0  0  0  0  0  0
  189.8250  175.5120  135.7490 C   0  0  0  0  0  0  0  0  0  0  0  0
  191.3090  173.9770  134.5550 C   0  0  0  0  0  3  0  0  0  0  0  0
  193.6510  174.0510  134.9530 O   0  0  0  0  0  0  0  0  0  0  0  0
  193.7260  173.5800  136.2640 C   0  0  0  0  0  1  0  0  0  0  0  0
  188.5430  177.9490  140.4790 C   0  0  0  0  0  0  0  0  0  0  0  0
  189.7100  177.6120  143.2160 N   0  0  0  0  0  2  0  0  0  0  0  0
  189.3620  176.8440  140.8750 N   0  0  0  0  0  2  0  0  0  0  0  0
  188.1640  178.8100  141.3180 O   0  0  0  0  0  0  0  0  0  0  0  0
  189.9110  176.6460  142.1810 C   0  0  0  0  0  0  0  0  0  0  0  0
  190.5920  175.6110  142.4100 O   0  0  0  0  0  0  0  0  0  0  0  0
  190.2910  177.4610  144.5430 C   0  0  1  0  0  3  0  0  0  0  0  0
  190.9980  179.7170  143.8790 C   0  0  0  0  0  2  0  0  0  0  0  0
  190.8290  178.7970  145.0240 C   0  0  2  0  0  3  0  0  0  0  0  0
  192.0870  179.0240  144.4390 O   0  0  0  0  0  0  0  0  0  0  0  0
  189.2720  176.8920  145.5370 C   0  0  2  0  0  3  0  0  0  0  0  0
  187.9090  177.4880  145.3490 C   0  0  0  0  0  0  0  0  0  0  0  0
  186.0640  178.7780  146.2530 C   0  0  0  0  0  3  0  0  0  0  0  0
  185.8960  177.8280  144.0320 C   0  0  0  0  0  3  0  0  0  0  0  0
  185.3400  178.5770  145.0750 C   0  0  0  0  0  3  0  0  0  0  0  0
  187.1750  177.2830  144.1690 C   0  0  0  0  0  3  0  0  0  0  0  0
  187.3440  178.2340  146.3900 C   0  0  0  0  0  3  0  0  0  0  0  0
  189.8310  176.9880  147.2750 S   0  0  0  0  0  0  0  0  0  0  0  0
  191.4230  176.2090  146.8790 C   0  0  0  0  0  1  0  0  0  0  0  0
  1  6  1  1  0  0  0
  1  5  1  0  0  0  0
  2 13  1  0  0  0  0
  2 11  2  0  0  0  0
  3 25  1  1  0  0  0
  4  7  2  0  0  0  0
  7 11  1  0  0  0  0
  7  9  1  0  0  0  0
  8  4  1  0  0  0  0
  8  1  1  0  0  0  0
  9  5  1  0  0  0  0
 10  3  1  0  0  0  0
 11 10  1  0  0  0  0
 12 15  1  0  0  0  0
 12  2  1  0  0  0  0
 13 16  1  6  0  0  0
 13 14  1  0  0  0  0
 14  3  1  0  0  0  0
 15  4  1  0  0  0  0
 18 23  1  1  0  0  0
 18 17  1  0  0  0  0
 19 21  1  0  0  0  0
 20 17  1  0  0  0  0
 21 16  2  0  0  0  0
 21 20  1  0  0  0  0
 22 19  2  0  0  0  0
 22 18  1  0  0  0  0
 23 24  1  0  0  0  0
 25 27  1  0  0  0  0
 25 28  2  0  0  0  0
 27 29  1  0  0  0  0
 29 30  2  0  0  0  0
 29 26  1  0  0  0  0
 31 26  1  6  0  0  0
 31 35  1  0  0  0  0
 32 34  1  0  0  0  0
 32 33  1  0  0  0  0
 33 31  1  6  0  0  0
 34 33  1  0  0  0  0
 35 42  1  1  0  0  0
 36 35  1  0  0  0  0
 36 41  1  0  0  0  0
 37 41  2  0  0  0  0
 38 40  1  0  0  0  0
 38 39  2  0  0  0  0
 39 37  1  0  0  0  0
 40 36  2  0  0  0  0
 43 42  1  0  0  0  0
M  END
>  <MODEL>
3

>  <REMARK>
 VINA RESULT:      -7.6      2.826      9.554
  Name = 
  8 active torsions:
  status: ('A' for Active; 'I' for Inactive)
    1  A    between atoms: N_1  and  C_34
    2  A    between atoms: C_2  and  C_13
    3  A    between atoms: N_3  and  C_4
    4  A    between atoms: C_4  and  C_15
    5  A    between atoms: C_4  and  C_22
    6  A    between atoms: C_11  and  C_22
    7  A    between atoms: S_14  and  C_22
    8  A    between atoms: C_19  and  O_25
                            x       y       z     vdW  Elec       q    Type
                         _______ _______ _______ _____ _____    ______ ____

>  <TORSDO>
F 8

$$$$
=
 OpenBabel10272414223D

 43 48  0  0  1  0  0  0  0  0999 V2000
  181.4680  178.5010  137.4830 C   0  0  2  0  0  3  0  0  0  0  0  0
  186.4680  177.4380  136.6320 C   0  0  0  0  0  0  0  0  0  0  0  0
  187.8930  178.2360  139.0170 C   0  0  2  0  0  3  0  0  0  0  0  0
  183.6260  177.6150  136.5280 C   0  0  0  0  0  0  0  0  0  0  0  0
  182.0880  178.2690  138.8500 C   0  0  0  0  0  2  0  0  0  0  0  0
  179.9830  178.2210  137.5420 C   0  0  0  0  0  1  0  0  0  0  0  0
  184.2890  178.0140  137.6350 C   0  0  0  0  0  0  0  0  0  0  0  0
  182.1230  177.5680  136.4690 C   0  0  0  0  0  2  0  0  0  0  0  0
  183.5650  178.6470  138.7990 C   0  0  0  0  0  2  0  0  0  0  0  0
  186.4380  178.1850  138.9270 N   0  0  0  0  0  2  0  0  0  0  0  0
  185.7650  177.8880  137.6950 C   0  0  0  0  0  0  0  0  0  0  0  0
  185.7980  177.2950  135.2900 C   0  0  0  0  0  2  0  0  0  0  0  0
  187.9760  177.2960  136.7070 C   0  0  1  0  0  3  0  0  0  0  0  0
  188.5030  177.1560  138.1390 C   0  0  0  0  0  2  0  0  0  0  0  0
  184.3630  177.0670  135.4310 N   0  0  0  0  0  2  0  0  0  0  0  0
  188.4680  176.2040  135.8610 N   0  0  0  0  0  0  0  0  0  0  0  0
  186.6360  173.0900  136.6950 C   0  0  0  0  0  2  0  0  0  0  0  0
  187.7480  172.1170  136.3070 C   0  0  2  0  0  3  0  0  0  0  0  0
  188.7760  173.9810  135.0450 C   0  0  0  0  0  3  0  0  0  0  0  0
  187.2460  174.4420  137.0690 C   0  0  0  0  0  2  0  0  0  0  0  0
  188.1640  174.9440  135.9780 C   0  0  0  0  0  0  0  0  0  0  0  0
  188.5630  172.6700  135.1700 C   0  0  0  0  0  3  0  0  0  0  0  0
  187.2010  170.8840  135.9490 O   0  0  0  0  0  0  0  0  0  0  0  0
  186.1460  171.2000  135.0930 C   0  0  0  0  0  1  0  0  0  0  0  0
  188.3240  178.0680  140.4360 C   0  0  0  0  0  0  0  0  0  0  0  0
  189.5190  177.6600  143.1510 N   0  0  0  0  0  2  0  0  0  0  0  0
  189.2240  177.0050  140.7690 N   0  0  0  0  0  2  0  0  0  0  0  0
  187.8850  178.8480  141.3230 O   0  0  0  0  0  0  0  0  0  0  0  0
  189.7890  176.7720  142.0630 C   0  0  0  0  0  0  0  0  0  0  0  0
  190.5450  175.7790  142.2320 O   0  0  0  0  0  0  0  0  0  0  0  0
  190.1130  177.4740  144.4680 C   0  0  1  0  0  3  0  0  0  0  0  0
  191.2320  179.5640  143.8280 C   0  0  0  0  0  2  0  0  0  0  0  0
  190.6860  178.7910  144.9630 C   0  0  2  0  0  3  0  0  0  0  0  0
  192.0640  178.8250  144.6880 O   0  0  0  0  0  0  0  0  0  0  0  0
  189.0930  176.9130  145.4660 C   0  0  2  0  0  3  0  0  0  0  0  0
  187.7520  177.5710  145.3310 C   0  0  0  0  0  0  0  0  0  0  0  0
  185.9820  178.9000  146.3230 C   0  0  0  0  0  3  0  0  0  0  0  0
  185.7280  178.0410  144.0730 C   0  0  0  0  0  3  0  0  0  0  0  0
  185.2260  178.7720  145.1550 C   0  0  0  0  0  3  0  0  0  0  0  0
  186.9860  177.4400  144.1610 C   0  0  0  0  0  3  0  0  0  0  0  0
  187.2410  178.3000  146.4120 C   0  0  0  0  0  3  0  0  0  0  0  0
  189.6940  176.9250  147.1930 S   0  0  0  0  0  0  0  0  0  0  0  0
  191.2670  176.1490  146.7240 C   0  0  0  0  0  1  0  0  0  0  0  0
  1  6  1  1  0  0  0
  1  5  1  0  0  0  0
  2 13  1  0  0  0  0
  2 11  2  0  0  0  0
  3 25  1  1  0  0  0
  4  7  2  0  0  0  0
  7 11  1  0  0  0  0
  7  9  1  0  0  0  0
  8  4  1  0  0  0  0
  8  1  1  0  0  0  0
  9  5  1  0  0  0  0
 10  3  1  0  0  0  0
 11 10  1  0  0  0  0
 12 15  1  0  0  0  0
 12  2  1  0  0  0  0
 13 16  1  6  0  0  0
 13 14  1  0  0  0  0
 14  3  1  0  0  0  0
 15  4  1  0  0  0  0
 16 21  2  0  0  0  0
 17 20  1  0  0  0  0
 18 23  1  6  0  0  0
 18 17  1  0  0  0  0
 19 22  2  0  0  0  0
 19 21  1  0  0  0  0
 21 20  1  0  0  0  0
 22 18  1  0  0  0  0
 24 23  1  0  0  0  0
 25 27  1  0  0  0  0
 25 28  2  0  0  0  0
 27 29  1  0  0  0  0
 29 30  2  0  0  0  0
 29 26  1  0  0  0  0
 31 26  1  6  0  0  0
 31 35  1  0  0  0  0
 32 34  1  0  0  0  0
 32 33  1  0  0  0  0
 33 31  1  6  0  0  0
 34 33  1  0  0  0  0
 35 42  1  1  0  0  0
 36 35  1  0  0  0  0
 36 41  1  0  0  0  0
 37 41  2  0  0  0  0
 38 40  1  0  0  0  0
 38 39  2  0  0  0  0
 39 37  1  0  0  0  0
 40 36  2  0  0  0  0
 43 42  1  0  0  0  0
M  END
>  <MODEL>
4

>  <REMARK>
 VINA RESULT:      -7.6      3.106      9.102
  Name = 
  8 active torsions:
  status: ('A' for Active; 'I' for Inactive)
    1  A    between atoms: N_1  and  C_34
    2  A    between atoms: C_2  and  C_13
    3  A    between atoms: N_3  and  C_4
    4  A    between atoms: C_4  and  C_15
    5  A    between atoms: C_4  and  C_22
    6  A    between atoms: C_11  and  C_22
    7  A    between atoms: S_14  and  C_22
    8  A    between atoms: C_19  and  O_25
                            x       y       z     vdW  Elec       q    Type
                         _______ _______ _______ _____ _____    ______ ____

>  <TORSDO>
F 8

$$$$
=
 OpenBabel10272414223D

 43 48  0  0  1  0  0  0  0  0999 V2000
  183.8870  177.1670  135.3100 C   0  0  2  0  0  3  0  0  0  0  0  0
  188.8120  175.8330  136.2080 C   0  0  0  0  0  0  0  0  0  0  0  0
  189.5540  177.0720  138.7130 C   0  0  2  0  0  3  0  0  0  0  0  0
  186.1460  176.0520  135.2290 C   0  0  0  0  0  0  0  0  0  0  0  0
  184.0650  177.2080  136.8170 C   0  0  0  0  0  2  0  0  0  0  0  0
  182.4290  176.9420  134.9750 C   0  0  0  0  0  1  0  0  0  0  0  0
  186.4930  176.6550  136.3860 C   0  0  0  0  0  0  0  0  0  0  0  0
  184.7240  176.0300  134.7340 C   0  0  0  0  0  2  0  0  0  0  0  0
  185.5210  177.5320  137.1390 C   0  0  0  0  0  2  0  0  0  0  0  0
  188.1870  177.0380  138.2040 N   0  0  0  0  0  2  0  0  0  0  0  0
  187.8740  176.5090  136.9070 C   0  0  0  0  0  0  0  0  0  0  0  0
  188.5470  175.4330  134.7800 C   0  0  0  0  0  2  0  0  0  0  0  0
  190.2180  175.6740  136.7560 C   0  0  1  0  0  3  0  0  0  0  0  0
  190.2980  175.8200  138.2790 C   0  0  0  0  0  2  0  0  0  0  0  0
  187.1180  175.2730  134.5270 N   0  0  0  0  0  2  0  0  0  0  0  0
  190.8390  174.4200  136.3190 N   0  0  0  0  0  0  0  0  0  0  0  0
  194.3470  174.3100  137.5120 C   0  0  0  0  0  2  0  0  0  0  0  0
  194.8910  173.4240  136.3930 C   0  0  2  0  0  3  0  0  0  0  0  0
  192.5460  172.8010  135.9070 C   0  0  0  0  0  3  0  0  0  0  0  0
  193.1100  175.0600  137.0170 C   0  0  0  0  0  2  0  0  0  0  0  0
  192.0970  174.1060  136.4260 C   0  0  0  0  0  0  0  0  0  0  0  0
  193.8370  172.4630  135.9180 C   0  0  0  0  0  3  0  0  0  0  0  0
  196.0120  172.7230  136.8390 O   0  0  0  0  0  0  0  0  0  0  0  0
  196.2580  173.2260  138.1170 C   0  0  0  0  0  1  0  0  0  0  0  0
  189.5430  177.1900  140.2010 C   0  0  0  0  0  0  0  0  0  0  0  0
  189.8640  177.3070  143.1760 N   0  0  0  0  0  2  0  0  0  0  0  0
  190.1710  176.1690  140.9840 N   0  0  0  0  0  2  0  0  0  0  0  0
  188.9740  178.1720  140.7490 O   0  0  0  0  0  0  0  0  0  0  0  0
  190.3140  176.1890  142.4080 C   0  0  0  0  0  0  0  0  0  0  0  0
  190.8600  175.2090  142.9820 O   0  0  0  0  0  0  0  0  0  0  0  0
  190.0340  177.3760  144.6210 C   0  0  1  0  0  3  0  0  0  0  0  0
  190.8650  179.5610  143.8700 C   0  0  0  0  0  2  0  0  0  0  0  0
  190.3590  178.8010  145.0320 C   0  0  2  0  0  3  0  0  0  0  0  0
  191.7330  179.0320  144.8420 O   0  0  0  0  0  0  0  0  0  0  0  0
  188.7880  176.8660  145.3540 C   0  0  2  0  0  3  0  0  0  0  0  0
  187.5380  177.5470  144.8810 C   0  0  0  0  0  0  0  0  0  0  0  0
  185.5780  178.8800  145.3940 C   0  0  0  0  0  3  0  0  0  0  0  0
  185.9300  178.0730  143.1380 C   0  0  0  0  0  3  0  0  0  0  0  0
  185.1620  178.7880  144.0630 C   0  0  0  0  0  3  0  0  0  0  0  0
  187.1130  177.4510  143.5450 C   0  0  0  0  0  3  0  0  0  0  0  0
  186.7620  178.2590  145.8020 C   0  0  0  0  0  3  0  0  0  0  0  0
  188.9530  176.9200  147.1740 S   0  0  0  0  0  0  0  0  0  0  0  0
  190.7180  176.5030  147.0970 C   0  0  0  0  0  1  0  0  0  0  0  0
  1  6  1  1  0  0  0
  1  5  1  0  0  0  0
  2 13  1  0  0  0  0
  2 11  2  0  0  0  0
  3 25  1  1  0  0  0
  4  7  2  0  0  0  0
  5  9  1  0  0  0  0
  7 11  1  0  0  0  0
  7  9  1  0  0  0  0
  8  4  1  0  0  0  0
  8  1  1  0  0  0  0
 10  3  1  0  0  0  0
 11 10  1  0  0  0  0
 12  2  1  0  0  0  0
 13 16  1  1  0  0  0
 13 14  1  0  0  0  0
 14  3  1  0  0  0  0
 15 12  1  0  0  0  0
 15  4  1  0  0  0  0
 16 21  2  0  0  0  0
 18 23  1  1  0  0  0
 18 17  1  0  0  0  0
 19 22  2  0  0  0  0
 19 21  1  0  0  0  0
 20 17  1  0  0  0  0
 21 20  1  0  0  0  0
 22 18  1  0  0  0  0
 23 24  1  0  0  0  0
 25 28  2  0  0  0  0
 25 27  1  0  0  0  0
 27 29  1  0  0  0  0
 29 30  2  0  0  0  0
 29 26  1  0  0  0  0
 31 26  1  6  0  0  0
 31 35  1  0  0  0  0
 32 34  1  0  0  0  0
 32 33  1  0  0  0  0
 33 31  1  6  0  0  0
 34 33  1  0  0  0  0
 35 42  1  1  0  0  0
 36 35  1  0  0  0  0
 36 41  1  0  0  0  0
 37 41  2  0  0  0  0
 38 40  1  0  0  0  0
 38 39  2  0  0  0  0
 39 37  1  0  0  0  0
 40 36  2  0  0  0  0
 43 42  1  0  0  0  0
M  END
>  <MODEL>
5

>  <REMARK>
 VINA RESULT:      -7.4      3.187     10.133
  Name = 
  8 active torsions:
  status: ('A' for Active; 'I' for Inactive)
    1  A    between atoms: N_1  and  C_34
    2  A    between atoms: C_2  and  C_13
    3  A    between atoms: N_3  and  C_4
    4  A    between atoms: C_4  and  C_15
    5  A    between atoms: C_4  and  C_22
    6  A    between atoms: C_11  and  C_22
    7  A    between atoms: S_14  and  C_22
    8  A    between atoms: C_19  and  O_25
                            x       y       z     vdW  Elec       q    Type
                         _______ _______ _______ _____ _____    ______ ____

>  <TORSDO>
F 8

$$$$
=
 OpenBabel10272414223D

 43 48  0  0  1  0  0  0  0  0999 V2000
  183.1820  176.8860  134.9160 C   0  0  2  0  0  3  0  0  0  0  0  0
  188.1050  176.1420  136.3530 C   0  0  0  0  0  0  0  0  0  0  0  0
  188.4740  177.6230  138.8090 C   0  0  2  0  0  3  0  0  0  0  0  0
  185.5370  176.0120  135.1260 C   0  0  0  0  0  0  0  0  0  0  0  0
  183.2090  177.0490  136.4260 C   0  0  0  0  0  2  0  0  0  0  0  0
  181.7930  176.4860  134.4710 C   0  0  0  0  0  1  0  0  0  0  0  0
  185.7100  176.7270  136.2580 C   0  0  0  0  0  0  0  0  0  0  0  0
  184.1790  175.8070  134.5090 C   0  0  0  0  0  2  0  0  0  0  0  0
  184.5880  177.5460  136.8500 C   0  0  0  0  0  2  0  0  0  0  0  0
  187.1740  177.4100  138.1840 N   0  0  0  0  0  2  0  0  0  0  0  0
  187.0410  176.7630  136.9110 C   0  0  0  0  0  0  0  0  0  0  0  0
  188.0190  175.6180  134.9430 C   0  0  0  0  0  2  0  0  0  0  0  0
  189.4590  176.1700  137.0350 C   0  0  1  0  0  3  0  0  0  0  0  0
  189.3770  176.4280  138.5430 C   0  0  0  0  0  2  0  0  0  0  0  0
  186.6440  175.2930  134.5770 N   0  0  0  0  0  2  0  0  0  0  0  0
  190.2390  174.9610  136.7560 N   0  0  0  0  0  0  0  0  0  0  0  0
  193.7540  175.5030  137.8030 C   0  0  0  0  0  2  0  0  0  0  0  0
  194.3920  174.5440  136.7990 C   0  0  2  0  0  3  0  0  0  0  0  0
  192.1470  173.5450  136.5070 C   0  0  0  0  0  3  0  0  0  0  0  0
  192.4140  175.9980  137.2590 C   0  0  0  0  0  2  0  0  0  0  0  0
  191.5320  174.8400  136.8530 C   0  0  0  0  0  0  0  0  0  0  0  0
  193.4720  173.3900  136.5110 C   0  0  0  0  0  3  0  0  0  0  0  0
  195.6090  174.0740  137.2930 O   0  0  0  0  0  0  0  0  0  0  0  0
  195.4260  173.9990  138.6740 C   0  0  0  0  0  1  0  0  0  0  0  0
  188.3080  177.8410  140.2760 C   0  0  0  0  0  0  0  0  0  0  0  0
  187.6200  178.2420  143.1630 N   0  0  0  0  0  2  0  0  0  0  0  0
  187.2280  178.6570  140.7410 N   0  0  0  0  0  2  0  0  0  0  0  0
  189.1230  177.3200  141.0850 O   0  0  0  0  0  0  0  0  0  0  0  0
  186.8930  178.8860  142.1130 C   0  0  0  0  0  0  0  0  0  0  0  0
  185.9350  179.6540  142.3910 O   0  0  0  0  0  0  0  0  0  0  0  0
  187.2760  178.4200  144.5670 C   0  0  1  0  0  3  0  0  0  0  0  0
  184.8550  178.2840  144.9520 C   0  0  0  0  0  2  0  0  0  0  0  0
  186.1150  177.5120  144.9310 C   0  0  2  0  0  3  0  0  0  0  0  0
  185.5420  177.9580  146.1350 O   0  0  0  0  0  0  0  0  0  0  0  0
  188.4830  178.1540  145.4750 C   0  0  2  0  0  3  0  0  0  0  0  0
  189.7100  177.7980  144.6900 C   0  0  0  0  0  0  0  0  0  0  0  0
  191.6080  178.5210  143.3630 C   0  0  0  0  0  3  0  0  0  0  0  0
  191.2170  176.1580  143.7210 C   0  0  0  0  0  3  0  0  0  0  0  0
  191.9810  177.1890  143.1630 C   0  0  0  0  0  3  0  0  0  0  0  0
  190.0840  176.4610  144.4800 C   0  0  0  0  0  3  0  0  0  0  0  0
  190.4750  178.8250  144.1240 C   0  0  0  0  0  3  0  0  0  0  0  0
  188.1350  176.9400  146.7970 S   0  0  0  0  0  0  0  0  0  0  0  0
  188.9770  177.9530  148.0460 C   0  0  0  0  0  1  0  0  0  0  0  0
  1  6  1  1  0  0  0
  1  5  1  0  0  0  0
  2 11  2  0  0  0  0
  2 13  1  0  0  0  0
  3 25  1  1  0  0  0
  4  7  2  0  0  0  0
  5  9  1  0  0  0  0
  7  9  1  0  0  0  0
  7 11  1  0  0  0  0
  8  1  1  0  0  0  0
  8  4  1  0  0  0  0
 10  3  1  0  0  0  0
 11 10  1  0  0  0  0
 12  2  1  0  0  0  0
 13 16  1  1  0  0  0
 13 14  1  0  0  0  0
 14  3  1  0  0  0  0
 15 12  1  0  0  0  0
 15  4  1  0  0  0  0
 16 21  2  0  0  0  0
 18 23  1  1  0  0  0
 18 17  1  0  0  0  0
 19 22  2  0  0  0  0
 19 21  1  0  0  0  0
 20 17  1  0  0  0  0
 21 20  1  0  0  0  0
 22 18  1  0  0  0  0
 23 24  1  0  0  0  0
 25 27  1  0  0  0  0
 25 28  2  0  0  0  0
 27 29  1  0  0  0  0
 29 30  2  0  0  0  0
 29 26  1  0  0  0  0
 31 26  1  6  0  0  0
 31 35  1  0  0  0  0
 32 34  1  0  0  0  0
 33 31  1  6  0  0  0
 33 32  1  0  0  0  0
 33 34  1  0  0  0  0
 35 42  1  1  0  0  0
 36 35  1  0  0  0  0
 37 41  1  0  0  0  0
 38 40  2  0  0  0  0
 39 37  2  0  0  0  0
 39 38  1  0  0  0  0
 40 36  1  0  0  0  0
 41 36  2  0  0  0  0
 42 43  1  0  0  0  0
M  END
>  <MODEL>
6

>  <REMARK>
 VINA RESULT:      -6.9      3.070     10.339
  Name = 
  8 active torsions:
  status: ('A' for Active; 'I' for Inactive)
    1  A    between atoms: N_1  and  C_34
    2  A    between atoms: C_2  and  C_13
    3  A    between atoms: N_3  and  C_4
    4  A    between atoms: C_4  and  C_15
    5  A    between atoms: C_4  and  C_22
    6  A    between atoms: C_11  and  C_22
    7  A    between atoms: S_14  and  C_22
    8  A    between atoms: C_19  and  O_25
                            x       y       z     vdW  Elec       q    Type
                         _______ _______ _______ _____ _____    ______ ____

>  <TORSDO>
F 8

$$$$
=
 OpenBabel10272414223D

 43 48  0  0  1  0  0  0  0  0999 V2000
  185.0200  175.7350  135.5790 C   0  0  2  0  0  3  0  0  0  0  0  0
  190.1310  175.2310  136.2670 C   0  0  0  0  0  0  0  0  0  0  0  0
  190.7680  176.6150  138.7240 C   0  0  2  0  0  3  0  0  0  0  0  0
  187.4250  174.9990  135.4070 C   0  0  0  0  0  0  0  0  0  0  0  0
  185.2540  175.8280  137.0770 C   0  0  0  0  0  2  0  0  0  0  0  0
  183.6050  175.2700  135.3120 C   0  0  0  0  0  1  0  0  0  0  0  0
  187.7190  175.6700  136.5420 C   0  0  0  0  0  0  0  0  0  0  0  0
  186.0060  174.7390  134.9770 C   0  0  0  0  0  2  0  0  0  0  0  0
  186.6500  176.3890  137.3300 C   0  0  0  0  0  2  0  0  0  0  0  0
  189.4050  176.3510  138.2770 N   0  0  0  0  0  2  0  0  0  0  0  0
  189.1260  175.7570  137.0010 C   0  0  0  0  0  0  0  0  0  0  0  0
  189.8730  174.7700  134.8560 C   0  0  0  0  0  2  0  0  0  0  0  0
  191.5660  175.3110  136.7520 C   0  0  1  0  0  3  0  0  0  0  0  0
  191.6870  175.4920  138.2680 C   0  0  0  0  0  2  0  0  0  0  0  0
  188.4790  174.3770  134.6690 N   0  0  0  0  0  2  0  0  0  0  0  0
  192.3630  174.1670  136.2990 N   0  0  0  0  0  0  0  0  0  0  0  0
  195.6250  174.1730  138.0610 C   0  0  0  0  0  2  0  0  0  0  0  0
  196.4240  173.4700  136.9650 C   0  0  2  0  0  3  0  0  0  0  0  0
  194.2570  172.7390  136.0190 C   0  0  0  0  0  3  0  0  0  0  0  0
  194.4210  174.8840  137.4420 C   0  0  0  0  0  2  0  0  0  0  0  0
  193.6110  173.9360  136.5870 C   0  0  0  0  0  0  0  0  0  0  0  0
  195.5540  172.4980  136.2170 C   0  0  0  0  0  3  0  0  0  0  0  0
  197.5170  172.8050  137.5210 O   0  0  0  0  0  0  0  0  0  0  0  0
  198.3160  172.4620  136.4310 C   0  0  0  0  0  1  0  0  0  0  0  0
  190.8030  176.7530  140.2100 C   0  0  0  0  0  0  0  0  0  0  0  0
  190.7370  176.6960  143.2030 N   0  0  0  0  0  2  0  0  0  0  0  0
  189.7080  176.2470  140.9820 N   0  0  0  0  0  2  0  0  0  0  0  0
  191.7810  177.3220  140.7650 O   0  0  0  0  0  0  0  0  0  0  0  0
  189.6410  176.2310  142.4110 C   0  0  0  0  0  0  0  0  0  0  0  0
  188.6040  175.7860  142.9710 O   0  0  0  0  0  0  0  0  0  0  0  0
  190.7160  176.6520  144.6590 C   0  0  1  0  0  3  0  0  0  0  0  0
  191.9130  175.1310  146.1700 C   0  0  0  0  0  2  0  0  0  0  0  0
  192.0740  176.2160  145.1800 C   0  0  2  0  0  3  0  0  0  0  0  0
  192.1370  176.4630  146.5620 O   0  0  0  0  0  0  0  0  0  0  0  0
  190.3130  178.0080  145.2520 C   0  0  2  0  0  3  0  0  0  0  0  0
  189.0350  177.9240  146.0310 C   0  0  0  0  0  0  0  0  0  0  0  0
  186.6150  178.0910  146.0750 C   0  0  0  0  0  3  0  0  0  0  0  0
  187.8290  177.6320  148.1200 C   0  0  0  0  0  3  0  0  0  0  0  0
  186.6180  177.8390  147.4500 C   0  0  0  0  0  3  0  0  0  0  0  0
  189.0340  177.6770  147.4140 C   0  0  0  0  0  3  0  0  0  0  0  0
  187.8200  178.1360  145.3680 C   0  0  0  0  0  3  0  0  0  0  0  0
  190.2770  179.3530  144.0130 S   0  0  0  0  0  0  0  0  0  0  0  0
  192.0790  179.5620  144.0860 C   0  0  0  0  0  1  0  0  0  0  0  0
  1  6  1  1  0  0  0
  1  5  1  0  0  0  0
  2 13  1  0  0  0  0
  2 11  2  0  0  0  0
  3 25  1  1  0  0  0
  4  7  2  0  0  0  0
  5  9  1  0  0  0  0
  7 11  1  0  0  0  0
  7  9  1  0  0  0  0
  8  4  1  0  0  0  0
  8  1  1  0  0  0  0
 10  3  1  0  0  0  0
 11 10  1  0  0  0  0
 12  2  1  0  0  0  0
 13 16  1  1  0  0  0
 13 14  1  0  0  0  0
 14  3  1  0  0  0  0
 15 12  1  0  0  0  0
 15  4  1  0  0  0  0
 16 21  2  0  0  0  0
 18 23  1  1  0  0  0
 18 17  1  0  0  0  0
 19 22  2  0  0  0  0
 19 21  1  0  0  0  0
 20 17  1  0  0  0  0
 21 20  1  0  0  0  0
 22 18  1  0  0  0  0
 24 23  1  0  0  0  0
 25 28  2  0  0  0  0
 25 27  1  0  0  0  0
 27 29  1  0  0  0  0
 29 30  2  0  0  0  0
 29 26  1  0  0  0  0
 31 26  1  6  0  0  0
 31 35  1  0  0  0  0
 32 34  1  0  0  0  0
 33 31  1  1  0  0  0
 33 32  1  0  0  0  0
 33 34  1  0  0  0  0
 35 42  1  6  0  0  0
 35 36  1  0  0  0  0
 36 40  1  0  0  0  0
 37 39  2  0  0  0  0
 39 38  1  0  0  0  0
 40 38  2  0  0  0  0
 41 36  2  0  0  0  0
 41 37  1  0  0  0  0
 42 43  1  0  0  0  0
M  END
>  <MODEL>
7

>  <REMARK>
 VINA RESULT:      -6.9      3.656     10.739
  Name = 
  8 active torsions:
  status: ('A' for Active; 'I' for Inactive)
    1  A    between atoms: N_1  and  C_34
    2  A    between atoms: C_2  and  C_13
    3  A    between atoms: N_3  and  C_4
    4  A    between atoms: C_4  and  C_15
    5  A    between atoms: C_4  and  C_22
    6  A    between atoms: C_11  and  C_22
    7  A    between atoms: S_14  and  C_22
    8  A    between atoms: C_19  and  O_25
                            x       y       z     vdW  Elec       q    Type
                         _______ _______ _______ _____ _____    ______ ____

>  <TORSDO>
F 8

$$$$
=
 OpenBabel10272414223D

 43 48  0  0  1  0  0  0  0  0999 V2000
  185.6590  172.9420  134.7260 C   0  0  2  0  0  3  0  0  0  0  0  0
  190.4580  174.5030  135.9030 C   0  0  0  0  0  0  0  0  0  0  0  0
  190.1900  176.4390  138.0340 C   0  0  2  0  0  3  0  0  0  0  0  0
  188.1660  173.1340  134.9090 C   0  0  0  0  0  0  0  0  0  0  0  0
  185.6140  173.3820  136.1790 C   0  0  0  0  0  2  0  0  0  0  0  0
  184.5520  171.9460  134.4600 C   0  0  0  0  0  1  0  0  0  0  0  0
  188.0310  174.0570  135.8850 C   0  0  0  0  0  0  0  0  0  0  0  0
  187.0090  172.2930  134.4380 C   0  0  0  0  0  2  0  0  0  0  0  0
  186.6720  174.4560  136.4090 C   0  0  0  0  0  2  0  0  0  0  0  0
  189.0890  175.6140  137.5520 N   0  0  0  0  0  2  0  0  0  0  0  0
  189.2320  174.7410  136.4220 C   0  0  0  0  0  0  0  0  0  0  0  0
  190.5950  173.7350  134.6150 C   0  0  0  0  0  2  0  0  0  0  0  0
  191.6830  175.1950  136.4690 C   0  0  1  0  0  3  0  0  0  0  0  0
  191.4990  175.6760  137.9120 C   0  0  0  0  0  2  0  0  0  0  0  0
  189.4710  172.8260  134.4120 N   0  0  0  0  0  2  0  0  0  0  0  0
  192.8870  174.3670  136.3450 N   0  0  0  0  0  0  0  0  0  0  0  0
  195.8370  176.5610  135.8660 C   0  0  0  0  0  2  0  0  0  0  0  0
  196.6780  175.5630  135.0730 C   0  0  2  0  0  3  0  0  0  0  0  0
  195.1670  173.7960  135.9230 C   0  0  0  0  0  3  0  0  0  0  0  0
  194.3540  176.2330  135.6930 C   0  0  0  0  0  2  0  0  0  0  0  0
  194.0770  174.7840  136.0200 C   0  0  0  0  0  0  0  0  0  0  0  0
  196.3860  174.1560  135.5150 C   0  0  0  0  0  3  0  0  0  0  0  0
  198.0350  175.8440  135.2360 O   0  0  0  0  0  0  0  0  0  0  0  0
  198.6860  174.9700  134.3650 C   0  0  0  0  0  1  0  0  0  0  0  0
  189.9460  176.8440  139.4500 C   0  0  0  0  0  0  0  0  0  0  0  0
  189.7960  177.5500  142.3560 N   0  0  0  0  0  2  0  0  0  0  0  0
  190.4480  176.0180  140.5060 N   0  0  0  0  0  2  0  0  0  0  0  0
  189.2940  177.8930  139.6990 O   0  0  0  0  0  0  0  0  0  0  0  0
  190.3670  176.3200  141.9020 C   0  0  0  0  0  0  0  0  0  0  0  0
  190.8200  175.4910  142.7360 O   0  0  0  0  0  0  0  0  0  0  0  0
  189.7380  177.9050  143.7670 C   0  0  1  0  0  3  0  0  0  0  0  0
  191.9810  178.9030  143.7130 C   0  0  0  0  0  2  0  0  0  0  0  0
  190.5570  179.1590  144.0160 C   0  0  2  0  0  3  0  0  0  0  0  0
  191.4940  178.9030  145.0320 O   0  0  0  0  0  0  0  0  0  0  0  0
  188.2910  178.0950  144.2360 C   0  0  2  0  0  3  0  0  0  0  0  0
  188.1590  177.9670  145.7240 C   0  0  0  0  0  0  0  0  0  0  0  0
  189.1120  177.2580  147.8390 C   0  0  0  0  0  3  0  0  0  0  0  0
  186.8800  178.1960  147.7760 C   0  0  0  0  0  3  0  0  0  0  0  0
  187.9450  177.6490  148.5010 C   0  0  0  0  0  3  0  0  0  0  0  0
  186.9850  178.3530  146.3920 C   0  0  0  0  0  3  0  0  0  0  0  0
  189.2180  177.4150  146.4540 C   0  0  0  0  0  3  0  0  0  0  0  0
  187.1000  177.0310  143.3450 S   0  0  0  0  0  0  0  0  0  0  0  0
  186.2700  178.4630  142.6000 C   0  0  0  0  0  1  0  0  0  0  0  0
  1  6  1  1  0  0  0
  1  5  1  0  0  0  0
  2 11  2  0  0  0  0
  2 13  1  0  0  0  0
  3 25  1  1  0  0  0
  4  7  2  0  0  0  0
  5  9  1  0  0  0  0
  7  9  1  0  0  0  0
  7 11  1  0  0  0  0
  8  1  1  0  0  0  0
  8  4  1  0  0  0  0
 10  3  1  0  0  0  0
 11 10  1  0  0  0  0
 12  2  1  0  0  0  0
 13 16  1  1  0  0  0
 13 14  1  0  0  0  0
 14  3  1  0  0  0  0
 15 12  1  0  0  0  0
 15  4  1  0  0  0  0
 18 23  1  1  0  0  0
 18 22  1  0  0  0  0
 18 17  1  0  0  0  0
 19 21  1  0  0  0  0
 20 17  1  0  0  0  0
 20 21  1  0  0  0  0
 21 16  2  0  0  0  0
 22 19  2  0  0  0  0
 24 23  1  0  0  0  0
 25 28  2  0  0  0  0
 25 27  1  0  0  0  0
 27 29  1  0  0  0  0
 29 26  1  0  0  0  0
 29 30  2  0  0  0  0
 31 26  1  6  0  0  0
 31 35  1  0  0  0  0
 32 33  1  0  0  0  0
 32 34  1  0  0  0  0
 33 31  1  6  0  0  0
 33 34  1  0  0  0  0
 35 42  1  6  0  0  0
 35 36  1  0  0  0  0
 36 40  2  0  0  0  0
 36 41  1  0  0  0  0
 37 39  1  0  0  0  0
 38 39  2  0  0  0  0
 40 38  1  0  0  0  0
 41 37  2  0  0  0  0
 43 42  1  0  0  0  0
M  END
>  <MODEL>
8

>  <REMARK>
 VINA RESULT:      -6.8      3.310     10.911
  Name = 
  8 active torsions:
  status: ('A' for Active; 'I' for Inactive)
    1  A    between atoms: N_1  and  C_34
    2  A    between atoms: C_2  and  C_13
    3  A    between atoms: N_3  and  C_4
    4  A    between atoms: C_4  and  C_15
    5  A    between atoms: C_4  and  C_22
    6  A    between atoms: C_11  and  C_22
    7  A    between atoms: S_14  and  C_22
    8  A    between atoms: C_19  and  O_25
                            x       y       z     vdW  Elec       q    Type
                         _______ _______ _______ _____ _____    ______ ____

>  <TORSDO>
F 8

$$$$
=
 OpenBabel10272414223D

 43 48  0  0  1  0  0  0  0  0999 V2000
  182.2920  178.9510  143.6060 C   0  0  2  0  0  3  0  0  0  0  0  0
  187.0130  177.5990  145.2560 C   0  0  0  0  0  0  0  0  0  0  0  0
  188.4200  176.5580  142.9550 C   0  0  2  0  0  3  0  0  0  0  0  0
  184.3910  178.6750  144.9740 C   0  0  0  0  0  0  0  0  0  0  0  0
  183.2060  179.0550  142.3980 C   0  0  0  0  0  2  0  0  0  0  0  0
  181.0960  179.8590  143.4200 C   0  0  0  0  0  1  0  0  0  0  0  0
  185.0320  178.1660  143.9000 C   0  0  0  0  0  0  0  0  0  0  0  0
  183.0600  179.3690  144.8550 C   0  0  0  0  0  2  0  0  0  0  0  0
  184.3550  178.0640  142.5540 C   0  0  0  0  0  2  0  0  0  0  0  0
  187.1280  177.2310  142.8740 N   0  0  0  0  0  2  0  0  0  0  0  0
  186.4100  177.6380  144.0470 C   0  0  0  0  0  0  0  0  0  0  0  0
  186.2140  177.8530  146.5070 C   0  0  0  0  0  2  0  0  0  0  0  0
  188.4290  177.0720  145.3960 C   0  0  1  0  0  3  0  0  0  0  0  0
  189.2360  177.1430  144.0960 C   0  0  0  0  0  2  0  0  0  0  0  0
  185.0570  178.7030  146.2380 N   0  0  0  0  0  2  0  0  0  0  0  0
  189.1510  177.7240  146.4940 N   0  0  0  0  0  0  0  0  0  0  0  0
  192.3340  175.9230  147.1040 C   0  0  0  0  0  2  0  0  0  0  0  0
  192.4530  176.2660  148.5880 C   0  0  2  0  0  3  0  0  0  0  0  0
  190.8030  178.0650  148.1840 C   0  0  0  0  0  3  0  0  0  0  0  0
  190.8640  175.9670  146.6850 C   0  0  0  0  0  2  0  0  0  0  0  0
  190.2270  177.2800  147.0770 C   0  0  0  0  0  0  0  0  0  0  0  0
  191.8570  177.6170  148.8700 C   0  0  0  0  0  3  0  0  0  0  0  0
  193.7930  176.2430  148.9780 O   0  0  0  0  0  0  0  0  0  0  0  0
  193.8470  177.0580  150.1090 C   0  0  0  0  0  1  0  0  0  0  0  0
  189.1500  176.6950  141.6600 C   0  0  0  0  0  0  0  0  0  0  0  0
  190.9000  176.8250  139.2340 N   0  0  0  0  0  2  0  0  0  0  0  0
  190.5130  177.1330  141.6730 N   0  0  0  0  0  2  0  0  0  0  0  0
  188.5610  176.4380  140.5760 O   0  0  0  0  0  0  0  0  0  0  0  0
  191.3630  177.2290  140.5250 C   0  0  0  0  0  0  0  0  0  0  0  0
  192.5370  177.6610  140.6670 O   0  0  0  0  0  0  0  0  0  0  0  0
  191.7550  176.8700  138.0550 C   0  0  1  0  0  3  0  0  0  0  0  0
  194.1370  176.3850  138.4030 C   0  0  0  0  0  2  0  0  0  0  0  0
  192.8120  175.7830  138.1450 C   0  0  2  0  0  3  0  0  0  0  0  0
  193.7520  175.9700  137.1160 O   0  0  0  0  0  0  0  0  0  0  0  0
  190.9350  176.7290  136.7670 C   0  0  2  0  0  3  0  0  0  0  0  0
  189.5520  177.2880  136.9160 C   0  0  0  0  0  0  0  0  0  0  0  0
  187.1670  176.8980  137.1240 C   0  0  0  0  0  3  0  0  0  0  0  0
  188.0140  179.1650  137.0350 C   0  0  0  0  0  3  0  0  0  0  0  0
  186.9380  178.2770  137.1360 C   0  0  0  0  0  3  0  0  0  0  0  0
  189.3170  178.6730  136.9220 C   0  0  0  0  0  3  0  0  0  0  0  0
  188.4700  176.4050  137.0120 C   0  0  0  0  0  3  0  0  0  0  0  0
  190.9220  175.0250  136.1050 S   0  0  0  0  0  0  0  0  0  0  0  0
  191.0770  175.6130  134.3940 C   0  0  0  0  0  1  0  0  0  0  0  0
  1  6  1  6  0  0  0
  1  8  1  0  0  0  0
  2 13  1  0  0  0  0
  2 12  1  0  0  0  0
  3 25  1  6  0  0  0
  3 14  1  0  0  0  0
  4 15  1  0  0  0  0
  5  9  1  0  0  0  0
  5  1  1  0  0  0  0
  7 11  1  0  0  0  0
  7  4  2  0  0  0  0
  8  4  1  0  0  0  0
  9  7  1  0  0  0  0
 10  3  1  0  0  0  0
 10 11  1  0  0  0  0
 11  2  2  0  0  0  0
 13 16  1  1  0  0  0
 14 13  1  0  0  0  0
 15 12  1  0  0  0  0
 16 21  2  0  0  0  0
 17 18  1  0  0  0  0
 18 22  1  0  0  0  0
 18 23  1  6  0  0  0
 19 22  2  0  0  0  0
 20 21  1  0  0  0  0
 20 17  1  0  0  0  0
 21 19  1  0  0  0  0
 23 24  1  0  0  0  0
 25 27  1  0  0  0  0
 26 29  1  0  0  0  0
 28 25  2  0  0  0  0
 29 30  2  0  0  0  0
 29 27  1  0  0  0  0
 31 26  1  1  0  0  0
 33 31  1  6  0  0  0
 33 32  1  0  0  0  0
 34 33  1  0  0  0  0
 34 32  1  0  0  0  0
 35 42  1  1  0  0  0
 35 36  1  0  0  0  0
 35 31  1  0  0  0  0
 36 40  2  0  0  0  0
 36 41  1  0  0  0  0
 37 39  1  0  0  0  0
 38 39  2  0  0  0  0
 40 38  1  0  0  0  0
 41 37  2  0  0  0  0
 43 42  1  0  0  0  0
M  END
>  <MODEL>
9

>  <REMARK>
 VINA RESULT:      -6.7      2.636      6.939
  Name = 
  8 active torsions:
  status: ('A' for Active; 'I' for Inactive)
    1  A    between atoms: N_1  and  C_34
    2  A    between atoms: C_2  and  C_13
    3  A    between atoms: N_3  and  C_4
    4  A    between atoms: C_4  and  C_15
    5  A    between atoms: C_4  and  C_22
    6  A    between atoms: C_11  and  C_22
    7  A    between atoms: S_14  and  C_22
    8  A    between atoms: C_19  and  O_25
                            x       y       z     vdW  Elec       q    Type
                         _______ _______ _______ _____ _____    ______ ____

>  <TORSDO>
F 8

$$$$
