=
 OpenBabel10272414103D

 43 48  0  0  1  0  0  0  0  0999 V2000
  188.0610  177.9260  148.2270 C   0  0  0  0  0  0  0  0  0  0  0  0
  186.5640  178.4100  143.3780 C   0  0  2  0  0  3  0  0  0  0  0  0
  188.8280  177.7860  141.8590 C   0  0  0  0  0  0  0  0  0  0  0  0
  186.7300  178.2210  146.2210 C   0  0  0  0  0  0  0  0  0  0  0  0
  189.0910  177.3660  147.4680 C   0  0  0  0  0  3  0  0  0  0  0  0
  188.2010  178.0530  149.5680 F   0  0  0  0  0  0  0  0  0  0  0  0
  187.7880  177.6880  145.4450 C   0  0  0  0  0  0  0  0  0  0  0  0
  186.8850  178.3540  147.6050 C   0  0  0  0  0  3  0  0  0  0  0  0
  188.9520  177.2400  146.0840 C   0  0  0  0  0  3  0  0  0  0  0  0
  188.8320  177.6050  143.2470 O   0  0  0  0  0  0  0  0  0  0  0  0
  187.6070  177.4660  143.9660 C   0  0  2  0  0  3  0  0  0  0  0  0
  185.2660  178.2400  144.1590 C   0  0  0  0  0  2  0  0  0  0  0  0
  186.4030  178.0680  141.8960 C   0  0  2  0  0  3  0  0  0  0  0  0
  187.7090  178.0140  141.2300 N   0  0  0  0  0  0  0  0  0  0  0  0
  185.4710  178.7550  145.5830 C   0  0  0  0  0  2  0  0  0  0  0  0
  190.1240  177.7220  141.1150 C   0  0  1  0  0  3  0  0  0  0  0  0
  191.2540  177.4520  142.0920 C   0  0  0  0  0  1  0  0  0  0  0  0
  190.0860  176.6810  140.0940 N   0  0  0  0  0  2  0  0  0  0  0  0
  190.5510  176.8790  138.7590 C   0  0  0  0  0  0  0  0  0  0  0  0
  192.0870  176.4350  138.3990 S   0  0  0  0  0  0  0  0  0  0  0  0
  189.6740  177.4440  137.7690 N   0  0  0  0  0  2  0  0  0  0  0  0
  188.9630  176.7390  136.7060 C   0  0  1  0  0  3  0  0  0  0  0  0
  190.4340  174.5390  134.3460 C   0  0  0  0  0  2  0  0  0  0  0  0
  189.8250  176.4680  135.6080 O   0  0  0  0  0  0  0  0  0  0  0  0
  188.4430  175.3620  137.1690 C   0  0  2  0  0  3  0  0  0  0  0  0
  188.9560  174.4430  136.2120 O   0  0  0  0  0  0  0  0  0  0  0  0
  189.7700  175.1210  135.3300 C   0  0  0  0  0  0  0  0  0  0  0  0
  186.1900  176.4970  137.0500 C   0  0  0  0  0  3  0  0  0  0  0  0
  186.9490  175.3230  137.1870 C   0  0  0  0  0  0  0  0  0  0  0  0
  184.2780  172.8290  137.4070 F   0  0  0  0  0  0  0  0  0  0  0  0
  184.1500  175.1980  137.1660 C   0  0  0  0  0  3  0  0  0  0  0  0
  184.9030  174.0290  137.3060 C   0  0  0  0  0  0  0  0  0  0  0  0
  184.7940  176.4330  137.0410 C   0  0  0  0  0  3  0  0  0  0  0  0
  186.2990  174.0910  137.3110 C   0  0  0  0  0  3  0  0  0  0  0  0
  185.5270  179.1070  141.2100 C   0  0  0  0  0  2  0  0  0  0  0  0
  182.7000  179.1800  138.7140 C   0  0  0  0  0  2  0  0  0  0  0  0
  181.7730  178.9670  139.9140 C   0  0  0  0  0  0  0  0  0  0  0  0
  181.1650  180.1650  140.2390 F   0  0  0  0  0  0  0  0  0  0  0  0
  183.6350  177.6490  140.7280 O   0  0  0  0  0  0  0  0  0  0  0  0
  184.1090  179.5340  139.1730 C   0  0  0  0  0  2  0  0  0  0  0  0
  184.6410  178.4660  140.1470 C   0  0  1  0  0  3  0  0  0  0  0  0
  180.8020  178.0460  139.5700 F   0  0  0  0  0  0  0  0  0  0  0  0
  182.5510  178.4560  141.1330 C   0  0  0  0  0  2  0  0  0  0  0  0
  1  6  1  0  0  0  0
  2 11  1  0  0  0  0
  2 12  1  1  0  0  0
  3 10  1  0  0  0  0
  4  8  2  0  0  0  0
  5  1  2  0  0  0  0
  7  9  2  0  0  0  0
  7  4  1  0  0  0  0
  8  1  1  0  0  0  0
  9  5  1  0  0  0  0
 11 10  1  6  0  0  0
 11  7  1  0  0  0  0
 12 15  1  0  0  0  0
 13 35  1  6  0  0  0
 13  2  1  0  0  0  0
 14  3  2  0  0  0  0
 14 13  1  0  0  0  0
 15  4  1  0  0  0  0
 16  3  1  0  0  0  0
 16 17  1  1  0  0  0
 18 16  1  0  0  0  0
 19 18  1  0  0  0  0
 20 19  2  0  0  0  0
 21 19  1  0  0  0  0
 22 25  1  0  0  0  0
 22 21  1  1  0  0  0
 23 27  2  0  0  0  0
 24 22  1  0  0  0  0
 25 29  1  6  0  0  0
 26 25  1  0  0  0  0
 27 24  1  0  0  0  0
 27 26  1  0  0  0  0
 28 29  1  0  0  0  0
 29 34  2  0  0  0  0
 31 32  2  0  0  0  0
 32 34  1  0  0  0  0
 32 30  1  0  0  0  0
 33 28  2  0  0  0  0
 33 31  1  0  0  0  0
 36 40  1  0  0  0  0
 36 37  1  0  0  0  0
 37 38  1  0  0  0  0
 37 43  1  0  0  0  0
 39 43  1  0  0  0  0
 40 41  1  0  0  0  0
 41 39  1  0  0  0  0
 41 35  1  1  0  0  0
 42 37  1  0  0  0  0
M  END
>  <MODEL>
1

>  <REMARK>
 VINA RESULT:      -9.7      0.000      0.000
  Name = 
  8 active torsions:
  status: ('A' for Active; 'I' for Inactive)
    1  A    between atoms: C_1  and  C_34
    2  A    between atoms: C_1  and  C_35
    3  A    between atoms: C_2  and  N_6
    4  A    between atoms: C_2  and  C_13
    5  A    between atoms: N_3  and  C_4
    6  A    between atoms: N_3  and  C_12
    7  A    between atoms: N_6  and  C_12
    8  A    between atoms: C_14  and  C_22
                            x       y       z     vdW  Elec       q    Type
                         _______ _______ _______ _____ _____    ______ ____

>  <TORSDO>
F 8

$$$$
=
 OpenBabel10272414103D

 43 48  0  0  1  0  0  0  0  0999 V2000
  182.1560  179.1370  140.4260 C   0  0  0  0  0  0  0  0  0  0  0  0
  186.7550  177.9420  142.2710 C   0  0  2  0  0  3  0  0  0  0  0  0
  188.4540  177.9770  140.0500 C   0  0  0  0  0  0  0  0  0  0  0  0
  184.0120  178.6400  141.9060 C   0  0  0  0  0  0  0  0  0  0  0  0
  183.0480  179.4080  139.3870 C   0  0  0  0  0  3  0  0  0  0  0  0
  180.8220  179.2470  140.2180 F   0  0  0  0  0  0  0  0  0  0  0  0
  184.9180  178.8790  140.8430 C   0  0  0  0  0  0  0  0  0  0  0  0
  182.6360  178.7510  141.6810 C   0  0  0  0  0  3  0  0  0  0  0  0
  184.4240  179.2880  139.5970 C   0  0  0  0  0  3  0  0  0  0  0  0
  187.1290  178.4140  139.9370 O   0  0  0  0  0  0  0  0  0  0  0  0
  186.4040  178.8400  141.0900 C   0  0  2  0  0  3  0  0  0  0  0  0
  185.9720  178.4190  143.4880 C   0  0  0  0  0  2  0  0  0  0  0  0
  188.2680  178.0160  142.4840 C   0  0  2  0  0  3  0  0  0  0  0  0
  188.9830  177.7780  141.2250 N   0  0  0  0  0  0  0  0  0  0  0  0
  184.4840  178.1600  143.2560 C   0  0  0  0  0  2  0  0  0  0  0  0
  189.2470  177.7350  138.8040 C   0  0  1  0  0  3  0  0  0  0  0  0
  190.5700  177.0860  139.1650 C   0  0  0  0  0  1  0  0  0  0  0  0
  188.5080  176.8850  137.8760 N   0  0  0  0  0  2  0  0  0  0  0  0
  188.0430  177.3380  136.6040 C   0  0  0  0  0  0  0  0  0  0  0  0
  189.1520  177.6370  135.4340 S   0  0  0  0  0  0  0  0  0  0  0  0
  186.6340  177.5080  136.3750 N   0  0  0  0  0  2  0  0  0  0  0  0
  185.6420  176.4640  136.1270 C   0  0  1  0  0  3  0  0  0  0  0  0
  186.3340  173.0100  135.7320 C   0  0  0  0  0  2  0  0  0  0  0  0
  186.2150  175.3700  135.4230 O   0  0  0  0  0  0  0  0  0  0  0  0
  185.0910  175.8650  137.4380 C   0  0  2  0  0  3  0  0  0  0  0  0
  185.2870  174.4630  137.3030 O   0  0  0  0  0  0  0  0  0  0  0  0
  185.9600  174.2150  136.1260 C   0  0  0  0  0  0  0  0  0  0  0  0
  182.9320  176.9040  136.6390 C   0  0  0  0  0  3  0  0  0  0  0  0
  183.6390  176.1790  137.6110 C   0  0  0  0  0  0  0  0  0  0  0  0
  180.9610  175.5020  140.0130 F   0  0  0  0  0  0  0  0  0  0  0  0
  180.9060  176.6930  137.9480 C   0  0  0  0  0  3  0  0  0  0  0  0
  181.6090  175.9730  138.9170 C   0  0  0  0  0  0  0  0  0  0  0  0
  181.5690  177.1610  136.8090 C   0  0  0  0  0  3  0  0  0  0  0  0
  182.9710  175.7130  138.7470 C   0  0  0  0  0  3  0  0  0  0  0  0
  188.7040  176.9870  143.5170 C   0  0  0  0  0  2  0  0  0  0  0  0
  190.5600  176.9100  146.8000 C   0  0  0  0  0  2  0  0  0  0  0  0
  189.1960  177.1360  147.4570 C   0  0  0  0  0  0  0  0  0  0  0  0
  188.7420  175.9430  147.9890 F   0  0  0  0  0  0  0  0  0  0  0  0
  188.7960  178.4500  145.4620 O   0  0  0  0  0  0  0  0  0  0  0  0
  190.3990  176.5520  145.3270 C   0  0  0  0  0  2  0  0  0  0  0  0
  189.5650  177.6240  144.6010 C   0  0  1  0  0  3  0  0  0  0  0  0
  189.3380  178.0590  148.4750 F   0  0  0  0  0  0  0  0  0  0  0  0
  188.1690  177.6520  146.4420 C   0  0  0  0  0  2  0  0  0  0  0  0
  1  8  1  0  0  0  0
  2 13  1  0  0  0  0
  2 12  1  1  0  0  0
  3 14  2  0  0  0  0
  4 15  1  0  0  0  0
  5  9  1  0  0  0  0
  5  1  2  0  0  0  0
  6  1  1  0  0  0  0
  7 11  1  0  0  0  0
  7  4  1  0  0  0  0
  8  4  2  0  0  0  0
  9  7  2  0  0  0  0
 10  3  1  0  0  0  0
 11 10  1  6  0  0  0
 11  2  1  0  0  0  0
 13 35  1  1  0  0  0
 14 13  1  0  0  0  0
 15 12  1  0  0  0  0
 16 17  1  1  0  0  0
 16  3  1  0  0  0  0
 18 16  1  0  0  0  0
 19 18  1  0  0  0  0
 20 19  2  0  0  0  0
 21 19  1  0  0  0  0
 22 21  1  1  0  0  0
 22 25  1  0  0  0  0
 23 27  2  0  0  0  0
 24 27  1  0  0  0  0
 24 22  1  0  0  0  0
 25 29  1  6  0  0  0
 26 25  1  0  0  0  0
 27 26  1  0  0  0  0
 28 33  2  0  0  0  0
 28 29  1  0  0  0  0
 29 34  2  0  0  0  0
 31 32  2  0  0  0  0
 32 30  1  0  0  0  0
 33 31  1  0  0  0  0
 34 32  1  0  0  0  0
 36 37  1  0  0  0  0
 37 38  1  0  0  0  0
 37 42  1  0  0  0  0
 39 43  1  0  0  0  0
 40 36  1  0  0  0  0
 41 35  1  6  0  0  0
 41 40  1  0  0  0  0
 41 39  1  0  0  0  0
 43 37  1  0  0  0  0
M  END
>  <MODEL>
2

>  <REMARK>
 VINA RESULT:      -9.5      2.035      6.142
  Name = 
  8 active torsions:
  status: ('A' for Active; 'I' for Inactive)
    1  A    between atoms: C_1  and  C_34
    2  A    between atoms: C_1  and  C_35
    3  A    between atoms: C_2  and  N_6
    4  A    between atoms: C_2  and  C_13
    5  A    between atoms: N_3  and  C_4
    6  A    between atoms: N_3  and  C_12
    7  A    between atoms: N_6  and  C_12
    8  A    between atoms: C_14  and  C_22
                            x       y       z     vdW  Elec       q    Type
                         _______ _______ _______ _____ _____    ______ ____

>  <TORSDO>
F 8

$$$$
=
 OpenBabel10272414103D

 43 48  0  0  1  0  0  0  0  0999 V2000
  188.8810  177.9600  147.8830 C   0  0  0  0  0  0  0  0  0  0  0  0
  186.1000  178.3870  143.6320 C   0  0  2  0  0  3  0  0  0  0  0  0
  187.9000  177.9190  141.5430 C   0  0  0  0  0  0  0  0  0  0  0  0
  187.0410  178.1870  146.3190 C   0  0  0  0  0  0  0  0  0  0  0  0
  189.6980  177.4720  146.8600 C   0  0  0  0  0  3  0  0  0  0  0  0
  189.3720  178.0850  149.1390 F   0  0  0  0  0  0  0  0  0  0  0  0
  187.8790  177.7280  145.2730 C   0  0  0  0  0  0  0  0  0  0  0  0
  187.5580  178.3190  147.6130 C   0  0  0  0  0  3  0  0  0  0  0  0
  189.1960  177.3480  145.5630 C   0  0  0  0  0  3  0  0  0  0  0  0
  188.2900  177.7270  142.8740 O   0  0  0  0  0  0  0  0  0  0  0  0
  187.3170  177.5060  143.8930 C   0  0  2  0  0  3  0  0  0  0  0  0
  185.0750  178.1310  144.7300 C   0  0  0  0  0  2  0  0  0  0  0  0
  185.5630  178.0480  142.2410 C   0  0  2  0  0  3  0  0  0  0  0  0
  186.6400  178.0810  141.2450 N   0  0  0  0  0  0  0  0  0  0  0  0
  185.6270  178.6460  146.0580 C   0  0  0  0  0  2  0  0  0  0  0  0
  188.9470  177.9410  140.4750 C   0  0  1  0  0  3  0  0  0  0  0  0
  190.1490  177.1340  140.9300 C   0  0  0  0  0  1  0  0  0  0  0  0
  188.4250  177.4010  139.2240 N   0  0  0  0  0  2  0  0  0  0  0  0
  187.9850  178.2220  138.1430 C   0  0  0  0  0  0  0  0  0  0  0  0
  189.1110  179.0650  137.3010 S   0  0  0  0  0  0  0  0  0  0  0  0
  186.5870  178.2830  137.8120 N   0  0  0  0  0  2  0  0  0  0  0  0
  185.8690  177.4680  136.8350 C   0  0  1  0  0  3  0  0  0  0  0  0
  187.2490  174.7890  134.9690 C   0  0  0  0  0  2  0  0  0  0  0  0
  186.7550  176.9460  135.8540 O   0  0  0  0  0  0  0  0  0  0  0  0
  185.2040  176.2370  137.4850 C   0  0  2  0  0  3  0  0  0  0  0  0
  185.6780  175.1300  136.7270 O   0  0  0  0  0  0  0  0  0  0  0  0
  186.5920  175.5800  135.7990 C   0  0  0  0  0  0  0  0  0  0  0  0
  183.0730  176.9680  136.3450 C   0  0  0  0  0  3  0  0  0  0  0  0
  183.7130  176.3230  137.4140 C   0  0  0  0  0  0  0  0  0  0  0  0
  180.8110  175.1640  139.3220 F   0  0  0  0  0  0  0  0  0  0  0  0
  180.9150  176.4080  137.2910 C   0  0  0  0  0  3  0  0  0  0  0  0
  181.5510  175.7670  138.3570 C   0  0  0  0  0  0  0  0  0  0  0  0
  181.6770  177.0120  136.2850 C   0  0  0  0  0  3  0  0  0  0  0  0
  182.9460  175.7200  138.4160 C   0  0  0  0  0  3  0  0  0  0  0  0
  184.4750  179.0360  141.8430 C   0  0  0  0  0  2  0  0  0  0  0  0
  182.2660  179.5640  138.8310 C   0  0  0  0  0  2  0  0  0  0  0  0
  181.1020  179.6090  139.8240 C   0  0  0  0  0  0  0  0  0  0  0  0
  180.7110  180.9220  140.0100 F   0  0  0  0  0  0  0  0  0  0  0  0
  182.4470  177.9780  141.0050 O   0  0  0  0  0  0  0  0  0  0  0  0
  183.6020  179.6420  139.5600 C   0  0  0  0  0  2  0  0  0  0  0  0
  183.6970  178.5390  140.6300 C   0  0  1  0  0  3  0  0  0  0  0  0
  180.0420  178.8920  139.3010 F   0  0  0  0  0  0  0  0  0  0  0  0
  181.5020  179.0110  141.1780 C   0  0  0  0  0  2  0  0  0  0  0  0
  1  6  1  0  0  0  0
  2 11  1  0  0  0  0
  2 12  1  1  0  0  0
  3 10  1  0  0  0  0
  4  8  2  0  0  0  0
  5  1  2  0  0  0  0
  7  9  2  0  0  0  0
  7  4  1  0  0  0  0
  8  1  1  0  0  0  0
  9  5  1  0  0  0  0
 11 10  1  6  0  0  0
 11  7  1  0  0  0  0
 12 15  1  0  0  0  0
 13 35  1  6  0  0  0
 13  2  1  0  0  0  0
 14  3  2  0  0  0  0
 14 13  1  0  0  0  0
 15  4  1  0  0  0  0
 16 17  1  1  0  0  0
 16  3  1  0  0  0  0
 18 16  1  0  0  0  0
 19 18  1  0  0  0  0
 20 19  2  0  0  0  0
 21 19  1  0  0  0  0
 22 25  1  0  0  0  0
 22 21  1  1  0  0  0
 23 27  2  0  0  0  0
 24 22  1  0  0  0  0
 25 29  1  6  0  0  0
 26 25  1  0  0  0  0
 27 24  1  0  0  0  0
 27 26  1  0  0  0  0
 28 29  1  0  0  0  0
 29 34  2  0  0  0  0
 31 32  2  0  0  0  0
 32 34  1  0  0  0  0
 32 30  1  0  0  0  0
 33 28  2  0  0  0  0
 33 31  1  0  0  0  0
 36 40  1  0  0  0  0
 36 37  1  0  0  0  0
 37 38  1  0  0  0  0
 37 43  1  0  0  0  0
 39 43  1  0  0  0  0
 40 41  1  0  0  0  0
 41 39  1  0  0  0  0
 41 35  1  1  0  0  0
 42 37  1  0  0  0  0
M  END
>  <MODEL>
3

>  <REMARK>
 VINA RESULT:      -9.5      1.772      2.274
  Name = 
  8 active torsions:
  status: ('A' for Active; 'I' for Inactive)
    1  A    between atoms: C_1  and  C_34
    2  A    between atoms: C_1  and  C_35
    3  A    between atoms: C_2  and  N_6
    4  A    between atoms: C_2  and  C_13
    5  A    between atoms: N_3  and  C_4
    6  A    between atoms: N_3  and  C_12
    7  A    between atoms: N_6  and  C_12
    8  A    between atoms: C_14  and  C_22
                            x       y       z     vdW  Elec       q    Type
                         _______ _______ _______ _____ _____    ______ ____

>  <TORSDO>
F 8

$$$$
=
 OpenBabel10272414103D

 43 48  0  0  1  0  0  0  0  0999 V2000
  188.1750  177.9520  147.8950 C   0  0  0  0  0  0  0  0  0  0  0  0
  185.8420  178.5130  143.3980 C   0  0  2  0  0  3  0  0  0  0  0  0
  187.8200  177.9960  141.4900 C   0  0  0  0  0  0  0  0  0  0  0  0
  186.5070  178.2580  146.1620 C   0  0  0  0  0  0  0  0  0  0  0  0
  189.0710  177.4430  146.9520 C   0  0  0  0  0  3  0  0  0  0  0  0
  188.5440  178.0500  149.1950 F   0  0  0  0  0  0  0  0  0  0  0  0
  187.4260  177.7770  145.1980 C   0  0  0  0  0  0  0  0  0  0  0  0
  186.8980  178.3610  147.5010 C   0  0  0  0  0  3  0  0  0  0  0  0
  188.6950  177.3480  145.6100 C   0  0  0  0  0  3  0  0  0  0  0  0
  188.0710  177.7800  142.8500 O   0  0  0  0  0  0  0  0  0  0  0  0
  186.9950  177.5870  143.7670 C   0  0  2  0  0  3  0  0  0  0  0  0
  184.7050  178.2850  144.3880 C   0  0  0  0  0  2  0  0  0  0  0  0
  185.4330  178.2040  141.9570 C   0  0  2  0  0  3  0  0  0  0  0  0
  186.6020  178.2060  141.0720 N   0  0  0  0  0  0  0  0  0  0  0  0
  185.1420  178.7690  145.7690 C   0  0  0  0  0  2  0  0  0  0  0  0
  188.9670  177.9900  140.5300 C   0  0  1  0  0  3  0  0  0  0  0  0
  190.1840  177.3790  141.2010 C   0  0  0  0  0  1  0  0  0  0  0  0
  188.6310  177.2400  139.3240 N   0  0  0  0  0  2  0  0  0  0  0  0
  188.1530  177.8580  138.1290 C   0  0  0  0  0  0  0  0  0  0  0  0
  189.0390  179.0720  137.4760 S   0  0  0  0  0  0  0  0  0  0  0  0
  186.9310  177.4010  137.5250 N   0  0  0  0  0  2  0  0  0  0  0  0
  186.7700  176.3320  136.5430 C   0  0  1  0  0  3  0  0  0  0  0  0
  189.3930  174.7850  134.7270 C   0  0  0  0  0  2  0  0  0  0  0  0
  187.8190  176.3570  135.5830 O   0  0  0  0  0  0  0  0  0  0  0  0
  186.8400  174.9340  137.1920 C   0  0  2  0  0  3  0  0  0  0  0  0
  187.8420  174.2450  136.4530 O   0  0  0  0  0  0  0  0  0  0  0  0
  188.4000  175.1100  135.5380 C   0  0  0  0  0  0  0  0  0  0  0  0
  185.4330  172.8430  137.3380 C   0  0  0  0  0  3  0  0  0  0  0  0
  185.5300  174.2210  137.0930 C   0  0  0  0  0  0  0  0  0  0  0  0
  182.0220  175.0250  136.4220 F   0  0  0  0  0  0  0  0  0  0  0  0
  183.0430  172.9370  136.9540 C   0  0  0  0  0  3  0  0  0  0  0  0
  183.1390  174.3090  136.7070 C   0  0  0  0  0  0  0  0  0  0  0  0
  184.1920  172.2030  137.2670 C   0  0  0  0  0  3  0  0  0  0  0  0
  184.3780  174.9510  136.7800 C   0  0  0  0  0  3  0  0  0  0  0  0
  184.4240  179.2330  141.4660 C   0  0  0  0  0  2  0  0  0  0  0  0
  182.4180  176.9930  139.1890 C   0  0  0  0  0  2  0  0  0  0  0  0
  182.3850  178.1800  138.2220 C   0  0  0  0  0  0  0  0  0  0  0  0
  183.2900  177.9630  137.2010 F   0  0  0  0  0  0  0  0  0  0  0  0
  182.3080  179.4580  140.2780 O   0  0  0  0  0  0  0  0  0  0  0  0
  183.4240  177.2330  140.3080 C   0  0  0  0  0  2  0  0  0  0  0  0
  183.1280  178.5660  141.0200 C   0  0  1  0  0  3  0  0  0  0  0  0
  181.1150  178.2830  137.6860 F   0  0  0  0  0  0  0  0  0  0  0  0
  182.7440  179.4880  138.9370 C   0  0  0  0  0  2  0  0  0  0  0  0
  1  6  1  0  0  0  0
  2 11  1  0  0  0  0
  2 12  1  1  0  0  0
  3 10  1  0  0  0  0
  4  8  2  0  0  0  0
  5  1  2  0  0  0  0
  7  9  2  0  0  0  0
  7  4  1  0  0  0  0
  8  1  1  0  0  0  0
  9  5  1  0  0  0  0
 11 10  1  6  0  0  0
 11  7  1  0  0  0  0
 12 15  1  0  0  0  0
 13 35  1  6  0  0  0
 13  2  1  0  0  0  0
 14  3  2  0  0  0  0
 14 13  1  0  0  0  0
 15  4  1  0  0  0  0
 16 17  1  1  0  0  0
 16  3  1  0  0  0  0
 18 16  1  0  0  0  0
 19 18  1  0  0  0  0
 20 19  2  0  0  0  0
 21 19  1  0  0  0  0
 22 25  1  0  0  0  0
 22 21  1  1  0  0  0
 23 27  2  0  0  0  0
 24 22  1  0  0  0  0
 25 29  1  6  0  0  0
 26 25  1  0  0  0  0
 27 24  1  0  0  0  0
 27 26  1  0  0  0  0
 29 28  2  0  0  0  0
 30 32  1  0  0  0  0
 31 33  2  0  0  0  0
 32 34  2  0  0  0  0
 32 31  1  0  0  0  0
 33 28  1  0  0  0  0
 34 29  1  0  0  0  0
 36 40  1  0  0  0  0
 37 43  1  0  0  0  0
 37 36  1  0  0  0  0
 38 37  1  0  0  0  0
 39 41  1  0  0  0  0
 40 41  1  0  0  0  0
 41 35  1  6  0  0  0
 42 37  1  0  0  0  0
 43 39  1  0  0  0  0
M  END
>  <MODEL>
4

>  <REMARK>
 VINA RESULT:      -9.4      1.561      2.027
  Name = 
  8 active torsions:
  status: ('A' for Active; 'I' for Inactive)
    1  A    between atoms: C_1  and  C_34
    2  A    between atoms: C_1  and  C_35
    3  A    between atoms: C_2  and  N_6
    4  A    between atoms: C_2  and  C_13
    5  A    between atoms: N_3  and  C_4
    6  A    between atoms: N_3  and  C_12
    7  A    between atoms: N_6  and  C_12
    8  A    between atoms: C_14  and  C_22
                            x       y       z     vdW  Elec       q    Type
                         _______ _______ _______ _____ _____    ______ ____

>  <TORSDO>
F 8

$$$$
=
 OpenBabel10272414103D

 43 48  0  0  1  0  0  0  0  0999 V2000
  187.9890  177.9580  148.1260 C   0  0  0  0  0  0  0  0  0  0  0  0
  186.3120  178.4560  143.3380 C   0  0  2  0  0  3  0  0  0  0  0  0
  188.5060  177.8000  141.7330 C   0  0  0  0  0  0  0  0  0  0  0  0
  186.5850  178.2690  146.1730 C   0  0  0  0  0  0  0  0  0  0  0  0
  188.9820  177.3840  147.3280 C   0  0  0  0  0  3  0  0  0  0  0  0
  188.1830  178.0860  149.4600 F   0  0  0  0  0  0  0  0  0  0  0  0
  187.6050  177.7210  145.3570 C   0  0  0  0  0  0  0  0  0  0  0  0
  186.7960  178.4020  147.5490 C   0  0  0  0  0  3  0  0  0  0  0  0
  188.7870  177.2580  145.9510 C   0  0  0  0  0  3  0  0  0  0  0  0
  188.5620  177.6200  143.1200 O   0  0  0  0  0  0  0  0  0  0  0  0
  187.3640  177.4990  143.8860 C   0  0  2  0  0  3  0  0  0  0  0  0
  185.0430  178.3050  144.1690 C   0  0  0  0  0  2  0  0  0  0  0  0
  186.0880  178.1140  141.8640 C   0  0  2  0  0  3  0  0  0  0  0  0
  187.3660  178.0420  141.1470 N   0  0  0  0  0  0  0  0  0  0  0  0
  185.3100  178.8190  145.5830 C   0  0  0  0  0  2  0  0  0  0  0  0
  189.7710  177.7170  140.9390 C   0  0  1  0  0  3  0  0  0  0  0  0
  190.8690  177.1200  141.8000 C   0  0  0  0  0  1  0  0  0  0  0  0
  189.5800  176.9090  139.7400 N   0  0  0  0  0  2  0  0  0  0  0  0
  190.1290  177.2560  138.4680 C   0  0  0  0  0  0  0  0  0  0  0  0
  189.3480  178.3820  137.5690 S   0  0  0  0  0  0  0  0  0  0  0  0
  191.3410  176.6300  138.0150 N   0  0  0  0  0  2  0  0  0  0  0  0
  191.6120  175.2000  137.8950 C   0  0  1  0  0  3  0  0  0  0  0  0
  189.8060  172.9200  135.8680 C   0  0  0  0  0  2  0  0  0  0  0  0
  190.4320  174.4830  137.5550 O   0  0  0  0  0  0  0  0  0  0  0  0
  192.6180  174.8920  136.7680 C   0  0  2  0  0  3  0  0  0  0  0  0
  191.9630  173.9270  135.9540 O   0  0  0  0  0  0  0  0  0  0  0  0
  190.6870  173.7280  136.4330 C   0  0  0  0  0  0  0  0  0  0  0  0
  194.5510  173.2700  136.6860 C   0  0  0  0  0  3  0  0  0  0  0  0
  193.8960  174.3400  137.3140 C   0  0  0  0  0  0  0  0  0  0  0  0
  196.2190  175.0220  140.0600 F   0  0  0  0  0  0  0  0  0  0  0  0
  196.3180  173.3750  138.3380 C   0  0  0  0  0  3  0  0  0  0  0  0
  195.6660  174.4390  138.9660 C   0  0  0  0  0  0  0  0  0  0  0  0
  195.7590  172.7880  137.1980 C   0  0  0  0  0  3  0  0  0  0  0  0
  194.4600  174.9230  138.4530 C   0  0  0  0  0  3  0  0  0  0  0  0
  185.2000  179.1640  141.2110 C   0  0  0  0  0  2  0  0  0  0  0  0
  182.3220  179.2640  138.7740 C   0  0  0  0  0  2  0  0  0  0  0  0
  181.4250  178.9820  139.9830 C   0  0  0  0  0  0  0  0  0  0  0  0
  180.7950  180.1500  140.3670 F   0  0  0  0  0  0  0  0  0  0  0  0
  183.3350  177.6800  140.7080 O   0  0  0  0  0  0  0  0  0  0  0  0
  183.7310  179.6340  139.2200 C   0  0  0  0  0  2  0  0  0  0  0  0
  184.3090  178.5440  140.1410 C   0  0  1  0  0  3  0  0  0  0  0  0
  180.4700  178.0500  139.6220 F   0  0  0  0  0  0  0  0  0  0  0  0
  182.2400  178.4430  141.1650 C   0  0  0  0  0  2  0  0  0  0  0  0
  1  6  1  0  0  0  0
  2 11  1  0  0  0  0
  2 12  1  1  0  0  0
  3 10  1  0  0  0  0
  4  8  2  0  0  0  0
  5  1  2  0  0  0  0
  7  9  2  0  0  0  0
  7  4  1  0  0  0  0
  8  1  1  0  0  0  0
  9  5  1  0  0  0  0
 11 10  1  6  0  0  0
 11  7  1  0  0  0  0
 12 15  1  0  0  0  0
 13 35  1  6  0  0  0
 13  2  1  0  0  0  0
 14  3  2  0  0  0  0
 14 13  1  0  0  0  0
 15  4  1  0  0  0  0
 16  3  1  0  0  0  0
 16 17  1  1  0  0  0
 18 16  1  0  0  0  0
 19 18  1  0  0  0  0
 20 19  2  0  0  0  0
 21 19  1  0  0  0  0
 22 21  1  6  0  0  0
 23 27  2  0  0  0  0
 24 22  1  0  0  0  0
 25 29  1  1  0  0  0
 25 22  1  0  0  0  0
 26 27  1  0  0  0  0
 26 25  1  0  0  0  0
 27 24  1  0  0  0  0
 28 33  2  0  0  0  0
 28 29  1  0  0  0  0
 29 34  2  0  0  0  0
 31 32  2  0  0  0  0
 32 30  1  0  0  0  0
 33 31  1  0  0  0  0
 34 32  1  0  0  0  0
 36 40  1  0  0  0  0
 36 37  1  0  0  0  0
 37 38  1  0  0  0  0
 37 43  1  0  0  0  0
 39 43  1  0  0  0  0
 40 41  1  0  0  0  0
 41 39  1  0  0  0  0
 41 35  1  1  0  0  0
 42 37  1  0  0  0  0
M  END
>  <MODEL>
5

>  <REMARK>
 VINA RESULT:      -9.4      3.015      4.399
  Name = 
  8 active torsions:
  status: ('A' for Active; 'I' for Inactive)
    1  A    between atoms: C_1  and  C_34
    2  A    between atoms: C_1  and  C_35
    3  A    between atoms: C_2  and  N_6
    4  A    between atoms: C_2  and  C_13
    5  A    between atoms: N_3  and  C_4
    6  A    between atoms: N_3  and  C_12
    7  A    between atoms: N_6  and  C_12
    8  A    between atoms: C_14  and  C_22
                            x       y       z     vdW  Elec       q    Type
                         _______ _______ _______ _____ _____    ______ ____

>  <TORSDO>
F 8

$$$$
=
 OpenBabel10272414103D

 43 48  0  0  1  0  0  0  0  0999 V2000
  182.1490  179.0510  140.8300 C   0  0  0  0  0  0  0  0  0  0  0  0
  186.7970  177.9480  142.6090 C   0  0  2  0  0  3  0  0  0  0  0  0
  188.4310  177.8450  140.3420 C   0  0  0  0  0  0  0  0  0  0  0  0
  184.0460  178.6350  142.2830 C   0  0  0  0  0  0  0  0  0  0  0  0
  183.0120  179.2570  139.7520 C   0  0  0  0  0  3  0  0  0  0  0  0
  180.8100  179.1550  140.6540 F   0  0  0  0  0  0  0  0  0  0  0  0
  184.9210  178.8070  141.1830 C   0  0  0  0  0  0  0  0  0  0  0  0
  182.6640  178.7380  142.0910 C   0  0  0  0  0  3  0  0  0  0  0  0
  184.3930  179.1440  139.9290 C   0  0  0  0  0  3  0  0  0  0  0  0
  187.1040  178.2800  140.2420 O   0  0  0  0  0  0  0  0  0  0  0  0
  186.4140  178.7760  141.3880 C   0  0  2  0  0  3  0  0  0  0  0  0
  186.0500  178.4980  143.8190 C   0  0  0  0  0  2  0  0  0  0  0  0
  188.3150  178.0280  142.7740 C   0  0  2  0  0  3  0  0  0  0  0  0
  188.9930  177.7140  141.5120 N   0  0  0  0  0  0  0  0  0  0  0  0
  184.5560  178.2320  143.6450 C   0  0  0  0  0  2  0  0  0  0  0  0
  189.1870  177.5270  139.0910 C   0  0  1  0  0  3  0  0  0  0  0  0
  189.1840  178.7400  138.1780 C   0  0  0  0  0  1  0  0  0  0  0  0
  190.5580  177.1340  139.3980 N   0  0  0  0  0  2  0  0  0  0  0  0
  191.2960  176.1990  138.6110 C   0  0  0  0  0  0  0  0  0  0  0  0
  192.8850  176.4970  138.3410 S   0  0  0  0  0  0  0  0  0  0  0  0
  190.6450  175.0270  138.0910 N   0  0  0  0  0  2  0  0  0  0  0  0
  189.9960  174.8750  136.7910 C   0  0  1  0  0  3  0  0  0  0  0  0
  189.4740  171.8090  135.0900 C   0  0  0  0  0  2  0  0  0  0  0  0
  190.4690  173.7170  136.1160 O   0  0  0  0  0  0  0  0  0  0  0  0
  188.4720  174.6810  136.9230 C   0  0  2  0  0  3  0  0  0  0  0  0
  188.1970  173.4880  136.1980 O   0  0  0  0  0  0  0  0  0  0  0  0
  189.3850  172.9460  135.7590 C   0  0  0  0  0  0  0  0  0  0  0  0
  188.2150  176.5280  135.2220 C   0  0  0  0  0  3  0  0  0  0  0  0
  187.7230  175.8350  136.3390 C   0  0  0  0  0  0  0  0  0  0  0  0
  184.5700  177.6120  136.8880 F   0  0  0  0  0  0  0  0  0  0  0  0
  186.2580  177.9550  135.2390 C   0  0  0  0  0  3  0  0  0  0  0  0
  185.7690  177.2680  136.3530 C   0  0  0  0  0  0  0  0  0  0  0  0
  187.4840  177.5870  134.6750 C   0  0  0  0  0  3  0  0  0  0  0  0
  186.4970  176.2080  136.8990 C   0  0  0  0  0  3  0  0  0  0  0  0
  188.7780  177.0590  143.8530 C   0  0  0  0  0  2  0  0  0  0  0  0
  191.8840  176.6420  145.9520 C   0  0  0  0  0  2  0  0  0  0  0  0
  190.9350  176.5390  147.1490 C   0  0  0  0  0  0  0  0  0  0  0  0
  190.8210  175.2140  147.5290 F   0  0  0  0  0  0  0  0  0  0  0  0
  189.6360  178.1300  145.8660 O   0  0  0  0  0  0  0  0  0  0  0  0
  191.1140  176.5460  144.6410 C   0  0  0  0  0  2  0  0  0  0  0  0
  189.9930  177.6010  144.5970 C   0  0  1  0  0  3  0  0  0  0  0  0
  191.4610  177.2660  148.2000 F   0  0  0  0  0  0  0  0  0  0  0  0
  189.5430  177.0790  146.8020 C   0  0  0  0  0  2  0  0  0  0  0  0
  1  8  1  0  0  0  0
  2 13  1  0  0  0  0
  2 12  1  1  0  0  0
  3 14  2  0  0  0  0
  4 15  1  0  0  0  0
  5  9  1  0  0  0  0
  5  1  2  0  0  0  0
  6  1  1  0  0  0  0
  7 11  1  0  0  0  0
  7  4  1  0  0  0  0
  8  4  2  0  0  0  0
  9  7  2  0  0  0  0
 10  3  1  0  0  0  0
 11 10  1  6  0  0  0
 11  2  1  0  0  0  0
 13 35  1  1  0  0  0
 14 13  1  0  0  0  0
 15 12  1  0  0  0  0
 16 17  1  6  0  0  0
 16 18  1  0  0  0  0
 16  3  1  0  0  0  0
 19 18  1  0  0  0  0
 20 19  2  0  0  0  0
 21 19  1  0  0  0  0
 22 25  1  0  0  0  0
 22 21  1  1  0  0  0
 23 27  2  0  0  0  0
 24 22  1  0  0  0  0
 25 29  1  6  0  0  0
 26 25  1  0  0  0  0
 27 24  1  0  0  0  0
 27 26  1  0  0  0  0
 28 29  1  0  0  0  0
 29 34  2  0  0  0  0
 31 32  2  0  0  0  0
 32 30  1  0  0  0  0
 32 34  1  0  0  0  0
 33 28  2  0  0  0  0
 33 31  1  0  0  0  0
 36 37  1  0  0  0  0
 37 38  1  0  0  0  0
 37 42  1  0  0  0  0
 39 43  1  0  0  0  0
 40 36  1  0  0  0  0
 41 35  1  1  0  0  0
 41 40  1  0  0  0  0
 41 39  1  0  0  0  0
 43 37  1  0  0  0  0
M  END
>  <MODEL>
6

>  <REMARK>
 VINA RESULT:      -9.4      2.010      6.134
  Name = 
  8 active torsions:
  status: ('A' for Active; 'I' for Inactive)
    1  A    between atoms: C_1  and  C_34
    2  A    between atoms: C_1  and  C_35
    3  A    between atoms: C_2  and  N_6
    4  A    between atoms: C_2  and  C_13
    5  A    between atoms: N_3  and  C_4
    6  A    between atoms: N_3  and  C_12
    7  A    between atoms: N_6  and  C_12
    8  A    between atoms: C_14  and  C_22
                            x       y       z     vdW  Elec       q    Type
                         _______ _______ _______ _____ _____    ______ ____

>  <TORSDO>
F 8

$$$$
=
 OpenBabel10272414103D

 43 48  0  0  1  0  0  0  0  0999 V2000
  188.7200  177.9280  148.0770 C   0  0  0  0  0  0  0  0  0  0  0  0
  185.7010  178.4940  144.0090 C   0  0  2  0  0  3  0  0  0  0  0  0
  187.2860  177.7560  141.8260 C   0  0  0  0  0  0  0  0  0  0  0  0
  186.8070  178.2940  146.6330 C   0  0  0  0  0  0  0  0  0  0  0  0
  189.4050  177.3170  147.0250 C   0  0  0  0  0  3  0  0  0  0  0  0
  189.3100  178.0460  149.2900 F   0  0  0  0  0  0  0  0  0  0  0  0
  187.5130  177.7080  145.5540 C   0  0  0  0  0  0  0  0  0  0  0  0
  187.4260  178.4180  147.8810 C   0  0  0  0  0  3  0  0  0  0  0  0
  188.8010  177.1990  145.7710 C   0  0  0  0  0  3  0  0  0  0  0  0
  187.7490  177.5730  143.1350 O   0  0  0  0  0  0  0  0  0  0  0  0
  186.8330  177.4980  144.2260 C   0  0  2  0  0  3  0  0  0  0  0  0
  184.7360  178.3920  145.1850 C   0  0  0  0  0  2  0  0  0  0  0  0
  185.0320  178.1640  142.6740 C   0  0  2  0  0  3  0  0  0  0  0  0
  186.0320  178.0420  141.6070 N   0  0  0  0  0  0  0  0  0  0  0  0
  185.4340  178.8930  146.4470 C   0  0  0  0  0  2  0  0  0  0  0  0
  188.2500  177.6260  140.6900 C   0  0  1  0  0  3  0  0  0  0  0  0
  187.7480  178.4320  139.5060 C   0  0  0  0  0  1  0  0  0  0  0  0
  189.5780  178.0850  141.0820 N   0  0  0  0  0  2  0  0  0  0  0  0
  190.7180  177.2260  141.1330 C   0  0  0  0  0  0  0  0  0  0  0  0
  191.6790  177.2910  142.4590 S   0  0  0  0  0  0  0  0  0  0  0  0
  190.9880  176.3270  140.0430 N   0  0  0  0  0  2  0  0  0  0  0  0
  191.0870  176.6570  138.6230 C   0  0  1  0  0  3  0  0  0  0  0  0
  193.8420  175.9150  136.5190 C   0  0  0  0  0  2  0  0  0  0  0  0
  192.4440  176.8130  138.2280 O   0  0  0  0  0  0  0  0  0  0  0  0
  190.5240  175.5350  137.7270 C   0  0  2  0  0  3  0  0  0  0  0  0
  191.5760  175.2420  136.8150 O   0  0  0  0  0  0  0  0  0  0  0  0
  192.6830  175.9920  137.1490 C   0  0  0  0  0  0  0  0  0  0  0  0
  189.2880  177.1990  136.2840 C   0  0  0  0  0  3  0  0  0  0  0  0
  189.3030  175.9870  136.9920 C   0  0  0  0  0  0  0  0  0  0  0  0
  185.9320  174.7560  136.2700 F   0  0  0  0  0  0  0  0  0  0  0  0
  187.0120  176.7660  135.5810 C   0  0  0  0  0  3  0  0  0  0  0  0
  187.0240  175.5610  136.2880 C   0  0  0  0  0  0  0  0  0  0  0  0
  188.1440  177.5870  135.5810 C   0  0  0  0  0  3  0  0  0  0  0  0
  188.1680  175.1700  136.9880 C   0  0  0  0  0  3  0  0  0  0  0  0
  184.0280  179.2470  142.3060 C   0  0  0  0  0  2  0  0  0  0  0  0
  182.9810  177.0660  139.4130 C   0  0  0  0  0  2  0  0  0  0  0  0
  183.6530  178.1110  138.5180 C   0  0  0  0  0  0  0  0  0  0  0  0
  184.8780  177.6280  138.0930 F   0  0  0  0  0  0  0  0  0  0  0  0
  182.8440  179.6380  140.2140 O   0  0  0  0  0  0  0  0  0  0  0  0
  183.3440  177.2920  140.8750 C   0  0  0  0  0  2  0  0  0  0  0  0
  183.0080  178.7340  141.2970 C   0  0  1  0  0  3  0  0  0  0  0  0
  182.8510  178.3370  137.4150 F   0  0  0  0  0  0  0  0  0  0  0  0
  183.8700  179.4290  139.2690 C   0  0  0  0  0  2  0  0  0  0  0  0
  1  6  1  0  0  0  0
  2 11  1  0  0  0  0
  2 12  1  1  0  0  0
  3 10  1  0  0  0  0
  4  8  2  0  0  0  0
  5  1  2  0  0  0  0
  7  9  2  0  0  0  0
  7  4  1  0  0  0  0
  8  1  1  0  0  0  0
  9  5  1  0  0  0  0
 11 10  1  6  0  0  0
 11  7  1  0  0  0  0
 12 15  1  0  0  0  0
 13 35  1  6  0  0  0
 13  2  1  0  0  0  0
 14  3  2  0  0  0  0
 14 13  1  0  0  0  0
 15  4  1  0  0  0  0
 16 17  1  6  0  0  0
 16 18  1  0  0  0  0
 16  3  1  0  0  0  0
 18 19  1  0  0  0  0
 19 20  2  0  0  0  0
 21 19  1  0  0  0  0
 22 21  1  1  0  0  0
 23 27  2  0  0  0  0
 24 22  1  0  0  0  0
 25 29  1  6  0  0  0
 25 22  1  0  0  0  0
 26 27  1  0  0  0  0
 26 25  1  0  0  0  0
 27 24  1  0  0  0  0
 28 29  1  0  0  0  0
 30 32  1  0  0  0  0
 31 32  2  0  0  0  0
 32 34  1  0  0  0  0
 33 31  1  0  0  0  0
 33 28  2  0  0  0  0
 34 29  2  0  0  0  0
 36 40  1  0  0  0  0
 37 43  1  0  0  0  0
 37 36  1  0  0  0  0
 38 37  1  0  0  0  0
 39 41  1  0  0  0  0
 40 41  1  0  0  0  0
 41 35  1  1  0  0  0
 42 37  1  0  0  0  0
 43 39  1  0  0  0  0
M  END
>  <MODEL>
7

>  <REMARK>
 VINA RESULT:      -9.0      1.885      2.535
  Name = 
  8 active torsions:
  status: ('A' for Active; 'I' for Inactive)
    1  A    between atoms: C_1  and  C_34
    2  A    between atoms: C_1  and  C_35
    3  A    between atoms: C_2  and  N_6
    4  A    between atoms: C_2  and  C_13
    5  A    between atoms: N_3  and  C_4
    6  A    between atoms: N_3  and  C_12
    7  A    between atoms: N_6  and  C_12
    8  A    between atoms: C_14  and  C_22
                            x       y       z     vdW  Elec       q    Type
                         _______ _______ _______ _____ _____    ______ ____

>  <TORSDO>
F 8

$$$$
=
 OpenBabel10272414103D

 43 48  0  0  1  0  0  0  0  0999 V2000
  192.0820  174.8740  136.2770 C   0  0  0  0  0  0  0  0  0  0  0  0
  187.9680  177.3390  138.0040 C   0  0  2  0  0  3  0  0  0  0  0  0
  188.5870  178.0110  140.6480 C   0  0  0  0  0  0  0  0  0  0  0  0
  189.9440  176.0070  136.4320 C   0  0  0  0  0  0  0  0  0  0  0  0
  192.4770  175.4400  137.4910 C   0  0  0  0  0  3  0  0  0  0  0  0
  192.9250  174.0520  135.6070 F   0  0  0  0  0  0  0  0  0  0  0  0
  190.3280  176.5530  137.6820 C   0  0  0  0  0  0  0  0  0  0  0  0
  190.8190  175.1550  135.7510 C   0  0  0  0  0  3  0  0  0  0  0  0
  191.6070  176.2820  138.1870 C   0  0  0  0  0  3  0  0  0  0  0  0
  189.5600  177.4540  139.8100 O   0  0  0  0  0  0  0  0  0  0  0  0
  189.4300  177.5330  138.3910 C   0  0  2  0  0  3  0  0  0  0  0  0
  187.8550  177.4310  136.4870 C   0  0  0  0  0  2  0  0  0  0  0  0
  187.1460  178.4130  138.7180 C   0  0  2  0  0  3  0  0  0  0  0  0
  187.4620  178.4440  140.1500 N   0  0  0  0  0  0  0  0  0  0  0  0
  188.5650  176.2330  135.8610 C   0  0  0  0  0  2  0  0  0  0  0  0
  188.8550  178.0920  142.1170 C   0  0  1  0  0  3  0  0  0  0  0  0
  187.6780  177.5080  142.8780 C   0  0  0  0  0  1  0  0  0  0  0  0
  190.0790  177.3760  142.4620 N   0  0  0  0  0  2  0  0  0  0  0  0
  190.9400  177.7720  143.5300 C   0  0  0  0  0  0  0  0  0  0  0  0
  191.2140  179.3720  143.7520 S   0  0  0  0  0  0  0  0  0  0  0  0
  191.5290  176.7750  144.3820 N   0  0  0  0  0  2  0  0  0  0  0  0
  191.0540  176.3310  145.6900 C   0  0  1  0  0  3  0  0  0  0  0  0
  193.1060  175.4130  148.4310 C   0  0  0  0  0  2  0  0  0  0  0  0
  192.0050  175.4810  146.3180 O   0  0  0  0  0  0  0  0  0  0  0  0
  190.8490  177.5090  146.6640 C   0  0  2  0  0  3  0  0  0  0  0  0
  191.6060  177.1590  147.8160 O   0  0  0  0  0  0  0  0  0  0  0  0
  192.2790  175.9820  147.5710 C   0  0  0  0  0  0  0  0  0  0  0  0
  189.0190  178.2450  148.2400 C   0  0  0  0  0  3  0  0  0  0  0  0
  189.4060  177.6800  147.0150 C   0  0  0  0  0  0  0  0  0  0  0  0
  186.1300  177.1170  145.4810 F   0  0  0  0  0  0  0  0  0  0  0  0
  186.6910  178.0370  147.6080 C   0  0  0  0  0  3  0  0  0  0  0  0
  187.0740  177.4710  146.3890 C   0  0  0  0  0  0  0  0  0  0  0  0
  187.6640  178.4210  148.5360 C   0  0  0  0  0  3  0  0  0  0  0  0
  188.4280  177.2980  146.0910 C   0  0  0  0  0  3  0  0  0  0  0  0
  185.6590  178.1460  138.5330 C   0  0  0  0  0  2  0  0  0  0  0  0
  182.5490  178.4230  140.6490 C   0  0  0  0  0  2  0  0  0  0  0  0
  181.9740  179.2670  139.5080 C   0  0  0  0  0  0  0  0  0  0  0  0
  181.0870  178.5010  138.7760 F   0  0  0  0  0  0  0  0  0  0  0  0
  184.2740  179.9980  139.2990 O   0  0  0  0  0  0  0  0  0  0  0  0
  183.8320  177.7260  140.2140 C   0  0  0  0  0  2  0  0  0  0  0  0
  184.8440  178.7510  139.6700 C   0  0  1  0  0  3  0  0  0  0  0  0
  181.3000  180.3470  140.0480 F   0  0  0  0  0  0  0  0  0  0  0  0
  183.0830  179.7720  138.5780 C   0  0  0  0  0  2  0  0  0  0  0  0
  1  5  1  0  0  0  0
  2 12  1  6  0  0  0
  2 11  1  0  0  0  0
  2 13  1  0  0  0  0
  3 16  1  0  0  0  0
  4  7  2  0  0  0  0
  5  9  2  0  0  0  0
  6  1  1  0  0  0  0
  7  9  1  0  0  0  0
  8  1  2  0  0  0  0
  8  4  1  0  0  0  0
 10  3  1  0  0  0  0
 11  7  1  6  0  0  0
 11 10  1  0  0  0  0
 13 35  1  1  0  0  0
 13 14  1  0  0  0  0
 14  3  2  0  0  0  0
 15  4  1  0  0  0  0
 15 12  1  0  0  0  0
 16 18  1  0  0  0  0
 16 17  1  1  0  0  0
 18 19  1  0  0  0  0
 19 20  2  0  0  0  0
 19 21  1  0  0  0  0
 22 21  1  6  0  0  0
 22 24  1  0  0  0  0
 22 25  1  0  0  0  0
 24 27  1  0  0  0  0
 25 29  1  1  0  0  0
 25 26  1  0  0  0  0
 27 26  1  0  0  0  0
 27 23  2  0  0  0  0
 28 33  1  0  0  0  0
 29 28  2  0  0  0  0
 30 32  1  0  0  0  0
 31 33  2  0  0  0  0
 32 31  1  0  0  0  0
 34 32  2  0  0  0  0
 34 29  1  0  0  0  0
 37 42  1  0  0  0  0
 37 36  1  0  0  0  0
 38 37  1  0  0  0  0
 39 41  1  0  0  0  0
 40 36  1  0  0  0  0
 41 35  1  6  0  0  0
 41 40  1  0  0  0  0
 43 39  1  0  0  0  0
 43 37  1  0  0  0  0
M  END
>  <MODEL>
8

>  <REMARK>
 VINA RESULT:      -8.9      2.783      8.333
  Name = 
  8 active torsions:
  status: ('A' for Active; 'I' for Inactive)
    1  A    between atoms: C_1  and  C_34
    2  A    between atoms: C_1  and  C_35
    3  A    between atoms: C_2  and  N_6
    4  A    between atoms: C_2  and  C_13
    5  A    between atoms: N_3  and  C_4
    6  A    between atoms: N_3  and  C_12
    7  A    between atoms: N_6  and  C_12
    8  A    between atoms: C_14  and  C_22
                            x       y       z     vdW  Elec       q    Type
                         _______ _______ _______ _____ _____    ______ ____

>  <TORSDO>
F 8

$$$$
=
 OpenBabel10272414103D

 43 48  0  0  1  0  0  0  0  0999 V2000
  190.8450  177.0160  139.3810 C   0  0  0  0  0  0  0  0  0  0  0  0
  186.2040  176.7180  137.2940 C   0  0  2  0  0  3  0  0  0  0  0  0
  184.6040  178.4060  138.8480 C   0  0  0  0  0  0  0  0  0  0  0  0
  188.9860  176.5250  137.9040 C   0  0  0  0  0  0  0  0  0  0  0  0
  190.1090  178.0450  139.9750 C   0  0  0  0  0  3  0  0  0  0  0  0
  192.1040  176.7540  139.8050 F   0  0  0  0  0  0  0  0  0  0  0  0
  188.2240  177.5430  138.5290 C   0  0  0  0  0  0  0  0  0  0  0  0
  190.2830  176.2570  138.3510 C   0  0  0  0  0  3  0  0  0  0  0  0
  188.8080  178.3130  139.5450 C   0  0  0  0  0  3  0  0  0  0  0  0
  185.9900  178.3620  139.0420 O   0  0  0  0  0  0  0  0  0  0  0  0
  186.8550  177.8960  138.0080 C   0  0  2  0  0  3  0  0  0  0  0  0
  187.1450  176.2410  136.1940 C   0  0  0  0  0  2  0  0  0  0  0  0
  184.8550  177.1870  136.7470 C   0  0  2  0  0  3  0  0  0  0  0  0
  184.0720  177.8520  137.7940 N   0  0  0  0  0  0  0  0  0  0  0  0
  188.3950  175.6410  136.8330 C   0  0  0  0  0  2  0  0  0  0  0  0
  183.7490  179.0880  139.8680 C   0  0  1  0  0  3  0  0  0  0  0  0
  182.4540  179.5410  139.2190 C   0  0  0  0  0  1  0  0  0  0  0  0
  183.4630  178.1960  140.9860 N   0  0  0  0  0  2  0  0  0  0  0  0
  184.0720  178.3340  142.2700 C   0  0  0  0  0  0  0  0  0  0  0  0
  183.2120  179.0600  143.4620 S   0  0  0  0  0  0  0  0  0  0  0  0
  185.4010  177.8310  142.4920 N   0  0  0  0  0  2  0  0  0  0  0  0
  186.3470  178.2460  143.5250 C   0  0  1  0  0  3  0  0  0  0  0  0
  185.6040  178.6330  146.9700 C   0  0  0  0  0  2  0  0  0  0  0  0
  185.6780  178.8910  144.6020 O   0  0  0  0  0  0  0  0  0  0  0  0
  187.0790  177.0440  144.1570 C   0  0  2  0  0  3  0  0  0  0  0  0
  186.8650  177.1880  145.5560 O   0  0  0  0  0  0  0  0  0  0  0  0
  186.0310  178.2630  145.7750 C   0  0  0  0  0  0  0  0  0  0  0  0
  189.1750  175.9700  143.2480 C   0  0  0  0  0  3  0  0  0  0  0  0
  188.5400  177.0710  143.8440 C   0  0  0  0  0  0  0  0  0  0  0  0
  191.3450  179.4140  144.0670 F   0  0  0  0  0  0  0  0  0  0  0  0
  191.2690  177.1870  143.2180 C   0  0  0  0  0  3  0  0  0  0  0  0
  190.6390  178.2820  143.8140 C   0  0  0  0  0  0  0  0  0  0  0  0
  190.5370  176.0280  142.9380 C   0  0  0  0  0  3  0  0  0  0  0  0
  189.2770  178.2270  144.1210 C   0  0  0  0  0  3  0  0  0  0  0  0
  184.0690  176.0030  136.2010 C   0  0  0  0  0  2  0  0  0  0  0  0
  184.0040  172.3770  137.2410 C   0  0  0  0  0  2  0  0  0  0  0  0
  182.5480  172.3760  136.7680 C   0  0  0  0  0  0  0  0  0  0  0  0
  182.4680  171.7500  135.5380 F   0  0  0  0  0  0  0  0  0  0  0  0
  182.5980  174.6510  137.5960 O   0  0  0  0  0  0  0  0  0  0  0  0
  184.7220  173.6410  136.7820 C   0  0  0  0  0  2  0  0  0  0  0  0
  183.9520  174.8930  137.2400 C   0  0  1  0  0  3  0  0  0  0  0  0
  181.7830  171.6760  137.6820 F   0  0  0  0  0  0  0  0  0  0  0  0
  182.0050  173.8040  136.6370 C   0  0  0  0  0  2  0  0  0  0  0  0
  1  6  1  0  0  0  0
  1  5  1  0  0  0  0
  2 12  1  6  0  0  0
  2 11  1  0  0  0  0
  3 10  1  0  0  0  0
  3 16  1  0  0  0  0
  4  8  1  0  0  0  0
  4  7  2  0  0  0  0
  7  9  1  0  0  0  0
  8  1  2  0  0  0  0
  9  5  2  0  0  0  0
 11  7  1  1  0  0  0
 11 10  1  0  0  0  0
 12 15  1  0  0  0  0
 13 35  1  1  0  0  0
 13  2  1  0  0  0  0
 13 14  1  0  0  0  0
 14  3  2  0  0  0  0
 15  4  1  0  0  0  0
 16 17  1  6  0  0  0
 16 18  1  0  0  0  0
 18 19  1  0  0  0  0
 19 21  1  0  0  0  0
 19 20  2  0  0  0  0
 22 21  1  6  0  0  0
 22 25  1  0  0  0  0
 22 24  1  0  0  0  0
 24 27  1  0  0  0  0
 25 29  1  1  0  0  0
 25 26  1  0  0  0  0
 26 27  1  0  0  0  0
 27 23  2  0  0  0  0
 28 29  1  0  0  0  0
 29 34  2  0  0  0  0
 31 32  2  0  0  0  0
 32 30  1  0  0  0  0
 32 34  1  0  0  0  0
 33 31  1  0  0  0  0
 33 28  2  0  0  0  0
 37 36  1  0  0  0  0
 37 42  1  0  0  0  0
 38 37  1  0  0  0  0
 40 41  1  0  0  0  0
 40 36  1  0  0  0  0
 41 35  1  6  0  0  0
 41 39  1  0  0  0  0
 43 37  1  0  0  0  0
 43 39  1  0  0  0  0
M  END
>  <MODEL>
9

>  <REMARK>
 VINA RESULT:      -8.8      3.449      8.180
  Name = 
  8 active torsions:
  status: ('A' for Active; 'I' for Inactive)
    1  A    between atoms: C_1  and  C_34
    2  A    between atoms: C_1  and  C_35
    3  A    between atoms: C_2  and  N_6
    4  A    between atoms: C_2  and  C_13
    5  A    between atoms: N_3  and  C_4
    6  A    between atoms: N_3  and  C_12
    7  A    between atoms: N_6  and  C_12
    8  A    between atoms: C_14  and  C_22
                            x       y       z     vdW  Elec       q    Type
                         _______ _______ _______ _____ _____    ______ ____

>  <TORSDO>
F 8

$$$$
