=
 OpenBabel10272413093D

 32 37  0  0  0  0  0  0  0  0999 V2000
  186.6680  178.2160  143.4980 C   0  0  0  0  0  0  0  0  0  0  0  0
  186.4220  178.5860  141.2250 N   0  0  0  0  0  0  0  0  0  0  0  0
  185.9570  177.9600  144.8110 C   0  0  0  0  0  2  0  0  0  0  0  0
  185.9280  178.5540  142.4470 C   0  0  0  0  0  0  0  0  0  0  0  0
  185.4230  178.7110  140.3460 C   0  0  0  0  0  0  0  0  0  0  0  0
  189.6640  177.7250  137.7580 C   0  0  0  0  0  3  0  0  0  0  0  0
  187.7320  178.2200  140.9280 N   0  0  0  0  0  0  0  0  0  0  0  0
  187.3470  178.2190  137.2200 C   0  0  0  0  0  3  0  0  0  0  0  0
  187.0490  178.3170  138.5810 C   0  0  0  0  0  0  0  0  0  0  0  0
  184.5710  178.7350  142.4200 C   0  0  0  0  0  0  0  0  0  0  0  0
  185.6520  178.5910  139.0310 C   0  0  0  0  0  3  0  0  0  0  0  0
  183.7260  178.5360  143.6410 C   0  0  0  0  0  2  0  0  0  0  0  0
  188.5760  177.8700  142.0050 N   0  0  0  0  0  0  0  0  0  0  0  0
  188.1140  177.8790  143.2380 C   0  0  0  0  0  0  0  0  0  0  0  0
  188.0770  178.1110  139.5400 C   0  0  0  0  0  0  0  0  0  0  0  0
  184.2250  178.8320  141.0650 C   0  0  0  0  0  0  0  0  0  0  0  0
  184.6060  178.7180  144.9000 C   0  0  0  0  0  2  0  0  0  0  0  0
  188.6530  177.9270  136.8100 C   0  0  0  0  0  3  0  0  0  0  0  0
  189.3780  177.8160  139.1240 C   0  0  0  0  0  3  0  0  0  0  0  0
  191.0000  176.3960  145.2150 C   0  0  0  0  0  0  0  0  0  0  0  0
  192.1250  175.6620  145.0300 F   0  0  0  0  0  0  0  0  0  0  0  0
  189.0110  177.4920  144.3400 C   0  0  0  0  0  0  0  0  0  0  0  0
  190.6620  176.8130  146.5040 C   0  0  0  0  0  3  0  0  0  0  0  0
  188.6780  177.8900  145.6420 C   0  0  0  0  0  3  0  0  0  0  0  0
  190.1770  176.7240  144.1270 C   0  0  0  0  0  0  0  0  0  0  0  0
  190.5910  176.0990  142.5320 Cl  0  0  0  0  0  0  0  0  0  0  0  0
  189.4970  177.5520  146.7210 C   0  0  0  0  0  0  0  0  0  0  0  0
  187.6700  178.3460  148.1730 C   0  0  0  0  0  1  0  0  0  0  0  0
  189.1450  178.0030  148.0960 C   0  0  0  0  0  2  0  0  0  0  0  0
  182.8900  178.8730  140.5530 N   0  0  0  0  0  2  0  0  0  0  0  0
  181.9860  177.7380  140.6050 C   0  0  0  0  0  2  0  0  0  0  0  0
  182.4940  176.6460  139.6890 C   0  0  0  0  0  1  0  0  0  0  0  0
  1  3  1  0  0  0  0
  2  4  1  0  0  0  0
  3 17  1  0  0  0  0
  4  1  2  0  0  0  0
  5 16  1  0  0  0  0
  5  2  1  0  0  0  0
  6 19  1  0  0  0  0
  7  2  1  0  0  0  0
  7 13  1  0  0  0  0
  8  9  2  0  0  0  0
  9 11  1  0  0  0  0
  9 15  1  0  0  0  0
 10  4  1  0  0  0  0
 10 12  1  0  0  0  0
 11  5  2  0  0  0  0
 12 17  1  0  0  0  0
 13 14  2  0  0  0  0
 14  1  1  0  0  0  0
 14 22  1  0  0  0  0
 15  7  1  0  0  0  0
 16 10  2  0  0  0  0
 18  8  1  0  0  0  0
 18  6  2  0  0  0  0
 19 15  2  0  0  0  0
 20 23  1  0  0  0  0
 21 20  1  0  0  0  0
 22 24  2  0  0  0  0
 23 27  2  0  0  0  0
 24 27  1  0  0  0  0
 25 22  1  0  0  0  0
 25 20  2  0  0  0  0
 26 25  1  0  0  0  0
 27 29  1  0  0  0  0
 29 28  1  0  0  0  0
 30 31  1  0  0  0  0
 30 16  1  0  0  0  0
 32 31  1  0  0  0  0
M  END
>  <MODEL>
1

>  <REMARK>
 VINA RESULT:     -10.7      0.000      0.000
  Name = 
  4 active torsions:
  status: ('A' for Active; 'I' for Inactive)
    1  A    between atoms: C_13  and  N_18
    2  A    between atoms: C_15  and  C_26
    3  A    between atoms: C_16  and  C_27
    4  A    between atoms: N_18  and  C_29
                            x       y       z     vdW  Elec       q    Type
                         _______ _______ _______ _____ _____    ______ ____

>  <TORSDO>
F 4

$$$$
=
 OpenBabel10272413093D

 32 37  0  0  0  0  0  0  0  0999 V2000
  189.5020  177.4410  142.2360 C   0  0  0  0  0  0  0  0  0  0  0  0
  187.8890  177.9730  143.8110 N   0  0  0  0  0  0  0  0  0  0  0  0
  190.8290  176.7560  141.9820 C   0  0  0  0  0  2  0  0  0  0  0  0
  189.1110  177.5900  143.4970 C   0  0  0  0  0  0  0  0  0  0  0  0
  187.6920  177.8030  145.1220 C   0  0  0  0  0  0  0  0  0  0  0  0
  183.2290  178.9310  143.0100 C   0  0  0  0  0  3  0  0  0  0  0  0
  186.8990  178.2010  142.8580 N   0  0  0  0  0  0  0  0  0  0  0  0
  184.0630  178.5270  145.2550 C   0  0  0  0  0  3  0  0  0  0  0  0
  185.3470  178.3200  144.7450 C   0  0  0  0  0  0  0  0  0  0  0  0
  189.7990  177.2170  144.6220 C   0  0  0  0  0  0  0  0  0  0  0  0
  186.4730  177.9550  145.6550 C   0  0  0  0  0  3  0  0  0  0  0  0
  191.1330  176.5420  144.5390 C   0  0  0  0  0  2  0  0  0  0  0  0
  187.2580  178.0800  141.4970 N   0  0  0  0  0  0  0  0  0  0  0  0
  188.4870  177.7440  141.1640 C   0  0  0  0  0  0  0  0  0  0  0  0
  185.5680  178.4180  143.3450 C   0  0  0  0  0  0  0  0  0  0  0  0
  188.8920  177.3430  145.6840 C   0  0  0  0  0  0  0  0  0  0  0  0
  191.7970  176.8940  143.1870 C   0  0  0  0  0  2  0  0  0  0  0  0
  183.0080  178.8340  144.3890 C   0  0  0  0  0  3  0  0  0  0  0  0
  184.5080  178.7220  142.4850 C   0  0  0  0  0  3  0  0  0  0  0  0
  188.3010  177.7930  137.3690 C   0  0  0  0  0  0  0  0  0  0  0  0
  187.4380  178.1020  136.3690 F   0  0  0  0  0  0  0  0  0  0  0  0
  188.8280  177.6070  139.7380 C   0  0  0  0  0  0  0  0  0  0  0  0
  189.5760  177.3210  137.0490 C   0  0  0  0  0  3  0  0  0  0  0  0
  190.0990  177.1220  139.4000 C   0  0  0  0  0  3  0  0  0  0  0  0
  187.9140  177.9320  138.7110 C   0  0  0  0  0  0  0  0  0  0  0  0
  186.2660  178.4410  139.0700 Cl  0  0  0  0  0  0  0  0  0  0  0  0
  190.4720  176.9770  138.0630 C   0  0  0  0  0  0  0  0  0  0  0  0
  192.8060  176.8000  138.8380 C   0  0  0  0  0  1  0  0  0  0  0  0
  191.8350  176.4840  137.7170 C   0  0  0  0  0  2  0  0  0  0  0  0
  189.1290  176.9150  147.0280 N   0  0  0  0  0  2  0  0  0  0  0  0
  189.3770  177.8380  148.1210 C   0  0  0  0  0  2  0  0  0  0  0  0
  188.1020  178.0390  148.9100 C   0  0  0  0  0  1  0  0  0  0  0  0
  1  4  2  0  0  0  0
  2  5  1  0  0  0  0
  3  1  1  0  0  0  0
  3 17  1  0  0  0  0
  4  2  1  0  0  0  0
  4 10  1  0  0  0  0
  5 11  2  0  0  0  0
  5 16  1  0  0  0  0
  6 18  1  0  0  0  0
  7 15  1  0  0  0  0
  7  2  1  0  0  0  0
  9  8  1  0  0  0  0
  9 11  1  0  0  0  0
 10 16  2  0  0  0  0
 12 10  1  0  0  0  0
 13  7  1  0  0  0  0
 14 13  2  0  0  0  0
 14  1  1  0  0  0  0
 15  9  2  0  0  0  0
 16 30  1  0  0  0  0
 17 12  1  0  0  0  0
 18  8  2  0  0  0  0
 19  6  2  0  0  0  0
 19 15  1  0  0  0  0
 20 25  1  0  0  0  0
 21 20  1  0  0  0  0
 22 14  1  0  0  0  0
 23 20  2  0  0  0  0
 23 27  1  0  0  0  0
 24 22  1  0  0  0  0
 25 26  1  0  0  0  0
 25 22  2  0  0  0  0
 27 24  2  0  0  0  0
 29 27  1  0  0  0  0
 29 28  1  0  0  0  0
 30 31  1  0  0  0  0
 31 32  1  0  0  0  0
M  END
>  <MODEL>
2

>  <REMARK>
 VINA RESULT:     -10.5      2.621      7.296
  Name = 
  4 active torsions:
  status: ('A' for Active; 'I' for Inactive)
    1  A    between atoms: C_13  and  N_18
    2  A    between atoms: C_15  and  C_26
    3  A    between atoms: C_16  and  C_27
    4  A    between atoms: N_18  and  C_29
                            x       y       z     vdW  Elec       q    Type
                         _______ _______ _______ _____ _____    ______ ____

>  <TORSDO>
F 4

$$$$
=
 OpenBabel10272413093D

 32 37  0  0  0  0  0  0  0  0999 V2000
  185.3750  178.2480  144.0980 C   0  0  0  0  0  0  0  0  0  0  0  0
  187.5700  177.6320  143.6910 N   0  0  0  0  0  0  0  0  0  0  0  0
  184.3940  178.7990  145.1140 C   0  0  0  0  0  2  0  0  0  0  0  0
  186.5880  177.9130  144.5250 C   0  0  0  0  0  0  0  0  0  0  0  0
  188.7220  177.5740  144.3660 C   0  0  0  0  0  0  0  0  0  0  0  0
  189.8020  177.4280  139.4190 C   0  0  0  0  0  3  0  0  0  0  0  0
  187.4350  177.7130  142.3080 N   0  0  0  0  0  0  0  0  0  0  0  0
  191.0500  177.2940  141.4990 C   0  0  0  0  0  3  0  0  0  0  0  0
  189.8630  177.4320  142.2230 C   0  0  0  0  0  0  0  0  0  0  0  0
  187.0550  177.9770  145.8110 C   0  0  0  0  0  0  0  0  0  0  0  0
  189.8890  177.4760  143.7160 C   0  0  0  0  0  3  0  0  0  0  0  0
  186.2030  178.4850  146.9330 C   0  0  0  0  0  2  0  0  0  0  0  0
  186.1630  178.0440  141.7910 N   0  0  0  0  0  0  0  0  0  0  0  0
  185.1580  178.2810  142.6070 C   0  0  0  0  0  0  0  0  0  0  0  0
  188.6310  177.5740  141.5300 C   0  0  0  0  0  0  0  0  0  0  0  0
  188.4390  177.7670  145.7260 C   0  0  0  0  0  0  0  0  0  0  0  0
  184.7130  178.3160  146.5540 C   0  0  0  0  0  2  0  0  0  0  0  0
  191.0180  177.2880  140.1000 C   0  0  0  0  0  3  0  0  0  0  0  0
  188.6070  177.5720  140.1320 C   0  0  0  0  0  3  0  0  0  0  0  0
  182.3760  179.1560  140.1710 C   0  0  0  0  0  0  0  0  0  0  0  0
  182.1670  179.3340  138.8430 F   0  0  0  0  0  0  0  0  0  0  0  0
  183.8470  178.6430  142.0410 C   0  0  0  0  0  0  0  0  0  0  0  0
  181.3080  179.3200  141.0570 C   0  0  0  0  0  3  0  0  0  0  0  0
  182.7690  178.8240  142.9180 C   0  0  0  0  0  3  0  0  0  0  0  0
  183.6510  178.8250  140.6540 C   0  0  0  0  0  0  0  0  0  0  0  0
  184.9890  178.7200  139.5110 Cl  0  0  0  0  0  0  0  0  0  0  0  0
  181.5050  179.1630  142.4310 C   0  0  0  0  0  0  0  0  0  0  0  0
  180.0870  178.0250  144.0960 C   0  0  0  0  0  1  0  0  0  0  0  0
  180.3620  179.3290  143.3720 C   0  0  0  0  0  2  0  0  0  0  0  0
  189.3630  177.9000  146.8090 N   0  0  0  0  0  2  0  0  0  0  0  0
  189.9770  176.7620  147.4710 C   0  0  0  0  0  2  0  0  0  0  0  0
  191.3640  176.5390  146.9080 C   0  0  0  0  0  1  0  0  0  0  0  0
  1  4  2  0  0  0  0
  1  3  1  0  0  0  0
  2  5  1  0  0  0  0
  2  4  1  0  0  0  0
  3 17  1  0  0  0  0
  4 10  1  0  0  0  0
  5 16  1  0  0  0  0
  6 18  2  0  0  0  0
  6 19  1  0  0  0  0
  7  2  1  0  0  0  0
  8  9  2  0  0  0  0
  9 11  1  0  0  0  0
 10 12  1  0  0  0  0
 11  5  2  0  0  0  0
 13  7  1  0  0  0  0
 13 14  2  0  0  0  0
 14  1  1  0  0  0  0
 15  9  1  0  0  0  0
 15  7  1  0  0  0  0
 16 10  2  0  0  0  0
 16 30  1  0  0  0  0
 17 12  1  0  0  0  0
 18  8  1  0  0  0  0
 19 15  2  0  0  0  0
 20 25  2  0  0  0  0
 20 23  1  0  0  0  0
 21 20  1  0  0  0  0
 22 14  1  0  0  0  0
 22 24  2  0  0  0  0
 23 27  2  0  0  0  0
 25 22  1  0  0  0  0
 26 25  1  0  0  0  0
 27 24  1  0  0  0  0
 27 29  1  0  0  0  0
 29 28  1  0  0  0  0
 30 31  1  0  0  0  0
 32 31  1  0  0  0  0
M  END
>  <MODEL>
3

>  <REMARK>
 VINA RESULT:     -10.4      3.074      6.650
  Name = 
  4 active torsions:
  status: ('A' for Active; 'I' for Inactive)
    1  A    between atoms: C_13  and  N_18
    2  A    between atoms: C_15  and  C_26
    3  A    between atoms: C_16  and  C_27
    4  A    between atoms: N_18  and  C_29
                            x       y       z     vdW  Elec       q    Type
                         _______ _______ _______ _____ _____    ______ ____

>  <TORSDO>
F 4

$$$$
=
 OpenBabel10272413093D

 32 37  0  0  0  0  0  0  0  0999 V2000
  187.2400  178.1360  143.5070 C   0  0  0  0  0  0  0  0  0  0  0  0
  187.4490  178.2780  141.2050 N   0  0  0  0  0  0  0  0  0  0  0  0
  186.2800  178.0530  144.6770 C   0  0  0  0  0  2  0  0  0  0  0  0
  186.7350  178.3980  142.3070 C   0  0  0  0  0  0  0  0  0  0  0  0
  186.6440  178.3590  140.1420 C   0  0  0  0  0  0  0  0  0  0  0  0
  191.2190  176.9070  138.5250 C   0  0  0  0  0  3  0  0  0  0  0  0
  188.7640  177.8210  141.2020 N   0  0  0  0  0  0  0  0  0  0  0  0
  189.0820  177.4530  137.5070 C   0  0  0  0  0  3  0  0  0  0  0  0
  188.5410  177.7050  138.7690 C   0  0  0  0  0  0  0  0  0  0  0  0
  185.4210  178.6410  142.0020 C   0  0  0  0  0  0  0  0  0  0  0  0
  187.1060  178.0930  138.9140 C   0  0  0  0  0  3  0  0  0  0  0  0
  184.3520  178.6100  143.0490 C   0  0  0  0  0  2  0  0  0  0  0  0
  189.3670  177.5450  142.4500 N   0  0  0  0  0  0  0  0  0  0  0  0
  188.6830  177.7050  143.5640 C   0  0  0  0  0  0  0  0  0  0  0  0
  189.3550  177.5520  139.9240 C   0  0  0  0  0  0  0  0  0  0  0  0
  185.3430  178.6120  140.6020 C   0  0  0  0  0  0  0  0  0  0  0  0
  184.9900  178.8800  144.4320 C   0  0  0  0  0  2  0  0  0  0  0  0
  190.4190  177.0570  137.3850 C   0  0  0  0  0  3  0  0  0  0  0  0
  190.6890  177.1520  139.7960 C   0  0  0  0  0  3  0  0  0  0  0  0
  191.1760  176.5250  146.1780 C   0  0  0  0  0  0  0  0  0  0  0  0
  192.3990  175.9470  146.2700 F   0  0  0  0  0  0  0  0  0  0  0  0
  189.3300  177.3920  144.8500 C   0  0  0  0  0  0  0  0  0  0  0  0
  190.4830  176.8440  147.3490 C   0  0  0  0  0  3  0  0  0  0  0  0
  188.6420  177.6940  146.0330 C   0  0  0  0  0  3  0  0  0  0  0  0
  190.6040  176.7880  144.9240 C   0  0  0  0  0  0  0  0  0  0  0  0
  191.4720  176.2830  143.4750 Cl  0  0  0  0  0  0  0  0  0  0  0  0
  189.2130  177.4200  147.2780 C   0  0  0  0  0  0  0  0  0  0  0  0
  187.2560  178.6010  148.2020 C   0  0  0  0  0  1  0  0  0  0  0  0
  188.4810  177.7690  148.5280 C   0  0  0  0  0  2  0  0  0  0  0  0
  184.1330  178.6640  139.8410 N   0  0  0  0  0  2  0  0  0  0  0  0
  183.8000  179.7670  138.9570 C   0  0  0  0  0  2  0  0  0  0  0  0
  182.2970  179.9430  138.9160 C   0  0  0  0  0  1  0  0  0  0  0  0
  1 14  1  0  0  0  0
  1  3  1  0  0  0  0
  2  4  1  0  0  0  0
  4  1  2  0  0  0  0
  5 16  1  0  0  0  0
  5  2  1  0  0  0  0
  6 19  1  0  0  0  0
  7  2  1  0  0  0  0
  7 13  1  0  0  0  0
  8  9  2  0  0  0  0
  9 11  1  0  0  0  0
  9 15  1  0  0  0  0
 10  4  1  0  0  0  0
 10 12  1  0  0  0  0
 11  5  2  0  0  0  0
 12 17  1  0  0  0  0
 13 14  2  0  0  0  0
 14 22  1  0  0  0  0
 15  7  1  0  0  0  0
 16 10  2  0  0  0  0
 17  3  1  0  0  0  0
 18  8  1  0  0  0  0
 18  6  2  0  0  0  0
 19 15  2  0  0  0  0
 20 21  1  0  0  0  0
 20 23  1  0  0  0  0
 22 25  1  0  0  0  0
 22 24  2  0  0  0  0
 24 27  1  0  0  0  0
 25 20  2  0  0  0  0
 26 25  1  0  0  0  0
 27 23  2  0  0  0  0
 27 29  1  0  0  0  0
 28 29  1  0  0  0  0
 30 16  1  0  0  0  0
 31 30  1  0  0  0  0
 32 31  1  0  0  0  0
M  END
>  <MODEL>
4

>  <REMARK>
 VINA RESULT:     -10.3      1.164      1.404
  Name = 
  4 active torsions:
  status: ('A' for Active; 'I' for Inactive)
    1  A    between atoms: C_13  and  N_18
    2  A    between atoms: C_15  and  C_26
    3  A    between atoms: C_16  and  C_27
    4  A    between atoms: N_18  and  C_29
                            x       y       z     vdW  Elec       q    Type
                         _______ _______ _______ _____ _____    ______ ____

>  <TORSDO>
F 4

$$$$
=
 OpenBabel10272413093D

 32 37  0  0  0  0  0  0  0  0999 V2000
  187.9290  177.7940  142.9850 C   0  0  0  0  0  0  0  0  0  0  0  0
  185.8190  178.0570  142.0670 N   0  0  0  0  0  0  0  0  0  0  0  0
  189.4220  177.8950  142.7470 C   0  0  0  0  0  2  0  0  0  0  0  0
  187.1230  177.9150  141.9350 C   0  0  0  0  0  0  0  0  0  0  0  0
  185.2890  178.4010  140.8900 C   0  0  0  0  0  0  0  0  0  0  0  0
  181.6920  178.8870  144.4220 C   0  0  0  0  0  3  0  0  0  0  0  0
  185.1880  178.1430  143.3050 N   0  0  0  0  0  0  0  0  0  0  0  0
  181.8360  179.1330  142.0100 C   0  0  0  0  0  3  0  0  0  0  0  0
  183.1890  178.7890  142.0530 C   0  0  0  0  0  0  0  0  0  0  0  0
  187.4950  178.0910  140.6290 C   0  0  0  0  0  0  0  0  0  0  0  0
  184.0050  178.7720  140.8020 C   0  0  0  0  0  3  0  0  0  0  0  0
  188.9340  178.1950  140.2270 C   0  0  0  0  0  2  0  0  0  0  0  0
  185.9880  178.0010  144.4610 N   0  0  0  0  0  0  0  0  0  0  0  0
  187.2860  177.8110  144.3480 C   0  0  0  0  0  0  0  0  0  0  0  0
  183.7980  178.4940  143.3020 C   0  0  0  0  0  0  0  0  0  0  0  0
  186.3180  178.4130  139.9370 C   0  0  0  0  0  0  0  0  0  0  0  0
  189.8090  177.5020  141.2970 C   0  0  0  0  0  2  0  0  0  0  0  0
  181.0890  179.1790  143.1930 C   0  0  0  0  0  3  0  0  0  0  0  0
  183.0470  178.5450  144.4800 C   0  0  0  0  0  3  0  0  0  0  0  0
  188.4190  177.8850  147.9740 C   0  0  0  0  0  0  0  0  0  0  0  0
  187.9590  178.2180  149.2060 F   0  0  0  0  0  0  0  0  0  0  0  0
  188.0990  177.6840  145.5700 C   0  0  0  0  0  0  0  0  0  0  0  0
  189.7210  177.3970  147.8410 C   0  0  0  0  0  3  0  0  0  0  0  0
  189.4120  177.2100  145.4510 C   0  0  0  0  0  3  0  0  0  0  0  0
  187.6020  178.0390  146.8430 C   0  0  0  0  0  0  0  0  0  0  0  0
  186.0000  178.7450  147.0450 Cl  0  0  0  0  0  0  0  0  0  0  0  0
  190.2220  177.0680  146.5800 C   0  0  0  0  0  0  0  0  0  0  0  0
  192.0090  175.7920  147.7000 C   0  0  0  0  0  1  0  0  0  0  0  0
  191.6070  176.5380  146.4430 C   0  0  0  0  0  2  0  0  0  0  0  0
  186.2510  178.8320  138.5710 N   0  0  0  0  0  2  0  0  0  0  0  0
  186.4490  177.9260  137.4540 C   0  0  0  0  0  2  0  0  0  0  0  0
  187.5460  178.4600  136.5590 C   0  0  0  0  0  1  0  0  0  0  0  0
  1 14  1  0  0  0  0
  2  7  1  0  0  0  0
  3  1  1  0  0  0  0
  4  2  1  0  0  0  0
  4  1  2  0  0  0  0
  5  2  1  0  0  0  0
  6 19  1  0  0  0  0
  7 13  1  0  0  0  0
  8  9  2  0  0  0  0
  8 18  1  0  0  0  0
  9 15  1  0  0  0  0
 10  4  1  0  0  0  0
 11  5  2  0  0  0  0
 11  9  1  0  0  0  0
 12 10  1  0  0  0  0
 12 17  1  0  0  0  0
 14 13  2  0  0  0  0
 14 22  1  0  0  0  0
 15  7  1  0  0  0  0
 15 19  2  0  0  0  0
 16 10  2  0  0  0  0
 16  5  1  0  0  0  0
 17  3  1  0  0  0  0
 18  6  2  0  0  0  0
 20 21  1  0  0  0  0
 22 25  1  0  0  0  0
 23 20  1  0  0  0  0
 24 22  2  0  0  0  0
 24 27  1  0  0  0  0
 25 26  1  0  0  0  0
 25 20  2  0  0  0  0
 27 23  2  0  0  0  0
 29 27  1  0  0  0  0
 29 28  1  0  0  0  0
 30 16  1  0  0  0  0
 31 30  1  0  0  0  0
 32 31  1  0  0  0  0
M  END
>  <MODEL>
5

>  <REMARK>
 VINA RESULT:     -10.2      2.246      4.984
  Name = 
  4 active torsions:
  status: ('A' for Active; 'I' for Inactive)
    1  A    between atoms: C_13  and  N_18
    2  A    between atoms: C_15  and  C_26
    3  A    between atoms: C_16  and  C_27
    4  A    between atoms: N_18  and  C_29
                            x       y       z     vdW  Elec       q    Type
                         _______ _______ _______ _____ _____    ______ ____

>  <TORSDO>
F 4

$$$$
=
 OpenBabel10272413093D

 32 37  0  0  0  0  0  0  0  0999 V2000
  187.3180  177.9350  141.5890 C   0  0  0  0  0  0  0  0  0  0  0  0
  186.7250  177.9040  143.8280 N   0  0  0  0  0  0  0  0  0  0  0  0
  186.9470  178.4130  140.2000 C   0  0  0  0  0  2  0  0  0  0  0  0
  186.4210  178.0860  142.5580 C   0  0  0  0  0  0  0  0  0  0  0  0
  185.7260  178.3550  144.5930 C   0  0  0  0  0  0  0  0  0  0  0  0
  189.6490  177.2920  147.6160 C   0  0  0  0  0  3  0  0  0  0  0  0
  188.0100  177.5910  144.2610 N   0  0  0  0  0  0  0  0  0  0  0  0
  187.3600  178.0540  147.9020 C   0  0  0  0  0  3  0  0  0  0  0  0
  187.1720  178.0180  146.5190 C   0  0  0  0  0  0  0  0  0  0  0  0
  185.1590  178.6050  142.4370 C   0  0  0  0  0  0  0  0  0  0  0  0
  185.8700  178.4410  145.9220 C   0  0  0  0  0  3  0  0  0  0  0  0
  184.6370  179.1080  141.1270 C   0  0  0  0  0  2  0  0  0  0  0  0
  189.0050  177.3960  143.2770 N   0  0  0  0  0  0  0  0  0  0  0  0
  188.7090  177.5280  142.0010 C   0  0  0  0  0  0  0  0  0  0  0  0
  188.2420  177.6160  145.6760 C   0  0  0  0  0  0  0  0  0  0  0  0
  184.6960  178.7920  143.7470 C   0  0  0  0  0  0  0  0  0  0  0  0
  185.4120  178.4220  139.9770 C   0  0  0  0  0  2  0  0  0  0  0  0
  188.5960  177.6880  148.4490 C   0  0  0  0  0  3  0  0  0  0  0  0
  189.4750  177.2560  146.2280 C   0  0  0  0  0  3  0  0  0  0  0  0
  192.1070  177.2880  140.3160 C   0  0  0  0  0  0  0  0  0  0  0  0
  193.4250  177.4330  140.5970 F   0  0  0  0  0  0  0  0  0  0  0  0
  189.7710  177.3370  140.9980 C   0  0  0  0  0  0  0  0  0  0  0  0
  191.7200  176.9420  139.0190 C   0  0  0  0  0  3  0  0  0  0  0  0
  189.3980  177.0040  139.6890 C   0  0  0  0  0  3  0  0  0  0  0  0
  191.1380  177.4950  141.3110 C   0  0  0  0  0  0  0  0  0  0  0  0
  191.6650  178.0210  142.9090 Cl  0  0  0  0  0  0  0  0  0  0  0  0
  190.3660  176.8090  138.7020 C   0  0  0  0  0  0  0  0  0  0  0  0
  188.4460  176.3830  137.2150 C   0  0  0  0  0  1  0  0  0  0  0  0
  189.9580  176.4300  137.3200 C   0  0  0  0  0  2  0  0  0  0  0  0
  183.4820  179.4570  144.1080 N   0  0  0  0  0  2  0  0  0  0  0  0
  182.1930  178.7880  144.1440 C   0  0  0  0  0  2  0  0  0  0  0  0
  181.3960  179.1630  142.9140 C   0  0  0  0  0  1  0  0  0  0  0  0
  1 14  1  0  0  0  0
  1  4  2  0  0  0  0
  2  7  1  0  0  0  0
  2  5  1  0  0  0  0
  3  1  1  0  0  0  0
  4  2  1  0  0  0  0
  5 11  2  0  0  0  0
  6 18  1  0  0  0  0
  7 15  1  0  0  0  0
  8 18  2  0  0  0  0
  9  8  1  0  0  0  0
 10  4  1  0  0  0  0
 10 16  2  0  0  0  0
 11  9  1  0  0  0  0
 12 10  1  0  0  0  0
 13  7  1  0  0  0  0
 14 13  2  0  0  0  0
 15 19  1  0  0  0  0
 15  9  2  0  0  0  0
 16 30  1  0  0  0  0
 16  5  1  0  0  0  0
 17  3  1  0  0  0  0
 17 12  1  0  0  0  0
 19  6  2  0  0  0  0
 20 21  1  0  0  0  0
 20 25  1  0  0  0  0
 22 25  2  0  0  0  0
 22 14  1  0  0  0  0
 23 20  2  0  0  0  0
 24 22  1  0  0  0  0
 25 26  1  0  0  0  0
 27 23  1  0  0  0  0
 27 24  2  0  0  0  0
 28 29  1  0  0  0  0
 29 27  1  0  0  0  0
 30 31  1  0  0  0  0
 32 31  1  0  0  0  0
M  END
>  <MODEL>
6

>  <REMARK>
 VINA RESULT:     -10.2      1.915      6.072
  Name = 
  4 active torsions:
  status: ('A' for Active; 'I' for Inactive)
    1  A    between atoms: C_13  and  N_18
    2  A    between atoms: C_15  and  C_26
    3  A    between atoms: C_16  and  C_27
    4  A    between atoms: N_18  and  C_29
                            x       y       z     vdW  Elec       q    Type
                         _______ _______ _______ _____ _____    ______ ____

>  <TORSDO>
F 4

$$$$
=
 OpenBabel10272413093D

 32 37  0  0  0  0  0  0  0  0999 V2000
  185.8570  178.4920  139.6180 C   0  0  0  0  0  0  0  0  0  0  0  0
  186.8160  178.3710  141.7220 N   0  0  0  0  0  0  0  0  0  0  0  0
  186.0030  178.1430  138.1510 C   0  0  0  0  0  2  0  0  0  0  0  0
  186.9080  178.3040  140.4090 C   0  0  0  0  0  0  0  0  0  0  0  0
  187.9420  177.9050  142.2700 C   0  0  0  0  0  0  0  0  0  0  0  0
  184.5530  178.5500  145.9790 C   0  0  0  0  0  3  0  0  0  0  0  0
  185.6130  178.5910  142.3870 N   0  0  0  0  0  0  0  0  0  0  0  0
  186.8800  177.8700  145.8180 C   0  0  0  0  0  3  0  0  0  0  0  0
  186.8320  178.0240  144.4300 C   0  0  0  0  0  0  0  0  0  0  0  0
  188.1470  177.8520  140.0370 C   0  0  0  0  0  0  0  0  0  0  0  0
  188.0270  177.7080  143.5920 C   0  0  0  0  0  3  0  0  0  0  0  0
  188.4560  177.4800  138.6210 C   0  0  0  0  0  2  0  0  0  0  0  0
  184.4610  178.8200  141.6020 N   0  0  0  0  0  0  0  0  0  0  0  0
  184.5430  178.8030  140.2870 C   0  0  0  0  0  0  0  0  0  0  0  0
  185.6230  178.4440  143.8130 C   0  0  0  0  0  0  0  0  0  0  0  0
  188.8290  177.5830  141.2320 C   0  0  0  0  0  0  0  0  0  0  0  0
  187.4780  178.2190  137.6770 C   0  0  0  0  0  2  0  0  0  0  0  0
  185.7430  178.1360  146.5900 C   0  0  0  0  0  3  0  0  0  0  0  0
  184.4900  178.7040  144.5900 C   0  0  0  0  0  3  0  0  0  0  0  0
  181.3220  178.2390  138.3510 C   0  0  0  0  0  0  0  0  0  0  0  0
  180.4980  177.2340  137.9630 F   0  0  0  0  0  0  0  0  0  0  0  0
  183.3220  179.0260  139.4930 C   0  0  0  0  0  0  0  0  0  0  0  0
  181.0130  179.5520  137.9890 C   0  0  0  0  0  3  0  0  0  0  0  0
  183.0060  180.3360  139.1100 C   0  0  0  0  0  3  0  0  0  0  0  0
  182.4790  177.9640  139.0970 C   0  0  0  0  0  0  0  0  0  0  0  0
  182.8790  176.2850  139.4510 Cl  0  0  0  0  0  0  0  0  0  0  0  0
  181.8580  180.6000  138.3600 C   0  0  0  0  0  0  0  0  0  0  0  0
  180.6220  182.0100  136.7600 C   0  0  0  0  0  1  0  0  0  0  0  0
  181.5200  182.0010  137.9810 C   0  0  0  0  0  2  0  0  0  0  0  0
  190.1060  176.9460  141.3300 N   0  0  0  0  0  2  0  0  0  0  0  0
  191.2420  177.5480  142.0040 C   0  0  0  0  0  2  0  0  0  0  0  0
  191.5890  176.7360  143.2320 C   0  0  0  0  0  1  0  0  0  0  0  0
  1 14  1  0  0  0  0
  1  4  2  0  0  0  0
  2  5  1  0  0  0  0
  2  7  1  0  0  0  0
  3  1  1  0  0  0  0
  4  2  1  0  0  0  0
  5 11  2  0  0  0  0
  6 18  1  0  0  0  0
  7 15  1  0  0  0  0
  8 18  2  0  0  0  0
  9  8  1  0  0  0  0
 10  4  1  0  0  0  0
 10 16  2  0  0  0  0
 11  9  1  0  0  0  0
 12 10  1  0  0  0  0
 13  7  1  0  0  0  0
 14 13  2  0  0  0  0
 15  9  2  0  0  0  0
 15 19  1  0  0  0  0
 16 30  1  0  0  0  0
 16  5  1  0  0  0  0
 17  3  1  0  0  0  0
 17 12  1  0  0  0  0
 19  6  2  0  0  0  0
 20 25  1  0  0  0  0
 21 20  1  0  0  0  0
 22 14  1  0  0  0  0
 23 20  2  0  0  0  0
 23 27  1  0  0  0  0
 24 22  1  0  0  0  0
 25 26  1  0  0  0  0
 25 22  2  0  0  0  0
 27 24  2  0  0  0  0
 28 29  1  0  0  0  0
 29 27  1  0  0  0  0
 30 31  1  0  0  0  0
 31 32  1  0  0  0  0
M  END
>  <MODEL>
7

>  <REMARK>
 VINA RESULT:      -9.8      3.527      8.355
  Name = 
  4 active torsions:
  status: ('A' for Active; 'I' for Inactive)
    1  A    between atoms: C_13  and  N_18
    2  A    between atoms: C_15  and  C_26
    3  A    between atoms: C_16  and  C_27
    4  A    between atoms: N_18  and  C_29
                            x       y       z     vdW  Elec       q    Type
                         _______ _______ _______ _____ _____    ______ ____

>  <TORSDO>
F 4

$$$$
=
 OpenBabel10272413093D

 32 37  0  0  0  0  0  0  0  0999 V2000
  187.7730  178.1290  141.4740 C   0  0  0  0  0  0  0  0  0  0  0  0
  189.6530  177.7230  142.7650 N   0  0  0  0  0  0  0  0  0  0  0  0
  187.1710  178.0780  140.0850 C   0  0  0  0  0  2  0  0  0  0  0  0
  189.0780  177.9120  141.5930 C   0  0  0  0  0  0  0  0  0  0  0  0
  190.9030  177.2880  142.5820 C   0  0  0  0  0  0  0  0  0  0  0  0
  189.8060  176.8540  147.5080 C   0  0  0  0  0  3  0  0  0  0  0  0
  188.9390  177.6810  143.9590 N   0  0  0  0  0  0  0  0  0  0  0  0
  191.7460  176.4750  146.0950 C   0  0  0  0  0  3  0  0  0  0  0  0
  191.0130  176.8790  144.9760 C   0  0  0  0  0  0  0  0  0  0  0  0
  189.9690  177.6770  140.5790 C   0  0  0  0  0  0  0  0  0  0  0  0
  191.6340  176.8580  143.6180 C   0  0  0  0  0  3  0  0  0  0  0  0
  189.5340  177.6110  139.1490 C   0  0  0  0  0  2  0  0  0  0  0  0
  187.5480  177.9250  143.9020 N   0  0  0  0  0  0  0  0  0  0  0  0
  186.9650  178.1630  142.7460 C   0  0  0  0  0  0  0  0  0  0  0  0
  189.6570  177.2720  145.1310 C   0  0  0  0  0  0  0  0  0  0  0  0
  191.1560  177.2640  141.2030 C   0  0  0  0  0  0  0  0  0  0  0  0
  188.2150  178.4030  138.9840 C   0  0  0  0  0  2  0  0  0  0  0  0
  191.1430  176.4660  147.3580 C   0  0  0  0  0  3  0  0  0  0  0  0
  189.0600  177.2570  146.3950 C   0  0  0  0  0  3  0  0  0  0  0  0
  183.3600  178.7440  143.7980 C   0  0  0  0  0  0  0  0  0  0  0  0
  182.6040  178.8580  144.9180 F   0  0  0  0  0  0  0  0  0  0  0  0
  185.5110  178.3960  142.7130 C   0  0  0  0  0  0  0  0  0  0  0  0
  182.7470  178.8480  142.5480 C   0  0  0  0  0  3  0  0  0  0  0  0
  184.8790  178.4890  141.4660 C   0  0  0  0  0  3  0  0  0  0  0  0
  184.7410  178.5100  143.8920 C   0  0  0  0  0  0  0  0  0  0  0  0
  185.4570  178.2920  145.4870 Cl  0  0  0  0  0  0  0  0  0  0  0  0
  183.5030  178.7120  141.3810 C   0  0  0  0  0  0  0  0  0  0  0  0
  183.8250  179.3920  139.0340 C   0  0  0  0  0  1  0  0  0  0  0  0
  182.8470  178.8340  140.0490 C   0  0  0  0  0  2  0  0  0  0  0  0
  192.3140  176.7650  140.5270 N   0  0  0  0  0  2  0  0  0  0  0  0
  192.9700  177.4770  139.4450 C   0  0  0  0  0  2  0  0  0  0  0  0
  193.0500  176.5820  138.2280 C   0  0  0  0  0  1  0  0  0  0  0  0
  1  4  2  0  0  0  0
  1 14  1  0  0  0  0
  2  7  1  0  0  0  0
  3  1  1  0  0  0  0
  4  2  1  0  0  0  0
  5  2  1  0  0  0  0
  5 11  2  0  0  0  0
  7 15  1  0  0  0  0
  8 18  2  0  0  0  0
  9 15  2  0  0  0  0
  9  8  1  0  0  0  0
 10 16  2  0  0  0  0
 10  4  1  0  0  0  0
 11  9  1  0  0  0  0
 12 10  1  0  0  0  0
 13  7  1  0  0  0  0
 14 13  2  0  0  0  0
 15 19  1  0  0  0  0
 16  5  1  0  0  0  0
 17 12  1  0  0  0  0
 17  3  1  0  0  0  0
 18  6  1  0  0  0  0
 19  6  2  0  0  0  0
 20 25  1  0  0  0  0
 20 21  1  0  0  0  0
 22 14  1  0  0  0  0
 22 25  2  0  0  0  0
 23 20  2  0  0  0  0
 24 22  1  0  0  0  0
 25 26  1  0  0  0  0
 27 24  2  0  0  0  0
 27 23  1  0  0  0  0
 28 29  1  0  0  0  0
 29 27  1  0  0  0  0
 30 16  1  0  0  0  0
 31 30  1  0  0  0  0
 32 31  1  0  0  0  0
M  END
>  <MODEL>
8

>  <REMARK>
 VINA RESULT:      -9.6      2.739      7.473
  Name = 
  4 active torsions:
  status: ('A' for Active; 'I' for Inactive)
    1  A    between atoms: C_13  and  N_18
    2  A    between atoms: C_15  and  C_26
    3  A    between atoms: C_16  and  C_27
    4  A    between atoms: N_18  and  C_29
                            x       y       z     vdW  Elec       q    Type
                         _______ _______ _______ _____ _____    ______ ____

>  <TORSDO>
F 4

$$$$
=
 OpenBabel10272413093D

 32 37  0  0  0  0  0  0  0  0999 V2000
  189.1270  177.6170  143.2570 C   0  0  0  0  0  0  0  0  0  0  0  0
  189.1880  177.4870  140.9460 N   0  0  0  0  0  0  0  0  0  0  0  0
  189.9370  177.7920  144.5260 C   0  0  0  0  0  2  0  0  0  0  0  0
  189.7870  177.4340  142.1190 C   0  0  0  0  0  0  0  0  0  0  0  0
  190.1090  177.5170  139.9780 C   0  0  0  0  0  0  0  0  0  0  0  0
  185.6000  178.4550  137.8700 C   0  0  0  0  0  3  0  0  0  0  0  0
  187.8370  177.7890  140.7990 N   0  0  0  0  0  0  0  0  0  0  0  0
  187.8840  178.1760  137.0920 C   0  0  0  0  0  3  0  0  0  0  0  0
  188.3090  177.9680  138.4060 C   0  0  0  0  0  0  0  0  0  0  0  0
  191.1450  177.3490  141.9600 C   0  0  0  0  0  0  0  0  0  0  0  0
  189.7550  177.7470  138.7070 C   0  0  0  0  0  3  0  0  0  0  0  0
  192.0830  177.4870  143.1190 C   0  0  0  0  0  2  0  0  0  0  0  0
  187.0740  177.9740  141.9740 N   0  0  0  0  0  0  0  0  0  0  0  0
  187.6460  177.8770  143.1560 C   0  0  0  0  0  0  0  0  0  0  0  0
  187.3620  178.0080  139.4640 C   0  0  0  0  0  0  0  0  0  0  0  0
  191.3720  177.4090  140.5780 C   0  0  0  0  0  0  0  0  0  0  0  0
  191.3330  177.1240  144.4230 C   0  0  0  0  0  2  0  0  0  0  0  0
  186.5310  178.4160  136.8250 C   0  0  0  0  0  3  0  0  0  0  0  0
  186.0130  178.2530  139.1910 C   0  0  0  0  0  3  0  0  0  0  0  0
  184.7350  178.6260  145.4810 C   0  0  0  0  0  0  0  0  0  0  0  0
  183.4220  178.9610  145.4370 F   0  0  0  0  0  0  0  0  0  0  0  0
  186.8300  178.0940  144.3640 C   0  0  0  0  0  0  0  0  0  0  0  0
  185.3590  178.4740  146.7220 C   0  0  0  0  0  3  0  0  0  0  0  0
  187.4450  177.9590  145.6160 C   0  0  0  0  0  3  0  0  0  0  0  0
  185.4640  178.4450  144.2960 C   0  0  0  0  0  0  0  0  0  0  0  0
  184.6610  178.7370  142.7540 Cl  0  0  0  0  0  0  0  0  0  0  0  0
  186.7150  178.1500  146.7910 C   0  0  0  0  0  0  0  0  0  0  0  0
  188.7880  177.4620  147.9340 C   0  0  0  0  0  1  0  0  0  0  0  0
  187.3750  177.9790  148.1150 C   0  0  0  0  0  2  0  0  0  0  0  0
  192.6550  177.5090  139.9540 N   0  0  0  0  0  2  0  0  0  0  0  0
  193.2740  176.4110  139.2320 C   0  0  0  0  0  2  0  0  0  0  0  0
  193.0120  176.5710  137.7500 C   0  0  0  0  0  1  0  0  0  0  0  0
  1  3  1  0  0  0  0
  2  4  1  0  0  0  0
  4  1  2  0  0  0  0
  5 16  1  0  0  0  0
  5  2  1  0  0  0  0
  6 19  1  0  0  0  0
  7  2  1  0  0  0  0
  7 13  1  0  0  0  0
  8  9  2  0  0  0  0
  9 11  1  0  0  0  0
  9 15  1  0  0  0  0
 10  4  1  0  0  0  0
 10 12  1  0  0  0  0
 11  5  2  0  0  0  0
 12 17  1  0  0  0  0
 13 14  2  0  0  0  0
 14  1  1  0  0  0  0
 14 22  1  0  0  0  0
 15  7  1  0  0  0  0
 16 10  2  0  0  0  0
 17  3  1  0  0  0  0
 18  8  1  0  0  0  0
 18  6  2  0  0  0  0
 19 15  2  0  0  0  0
 20 23  1  0  0  0  0
 21 20  1  0  0  0  0
 22 24  2  0  0  0  0
 23 27  2  0  0  0  0
 24 27  1  0  0  0  0
 25 22  1  0  0  0  0
 25 20  2  0  0  0  0
 26 25  1  0  0  0  0
 27 29  1  0  0  0  0
 28 29  1  0  0  0  0
 30 16  1  0  0  0  0
 31 30  1  0  0  0  0
 32 31  1  0  0  0  0
M  END
>  <MODEL>
9

>  <REMARK>
 VINA RESULT:      -9.5      2.654      5.413
  Name = 
  4 active torsions:
  status: ('A' for Active; 'I' for Inactive)
    1  A    between atoms: C_13  and  N_18
    2  A    between atoms: C_15  and  C_26
    3  A    between atoms: C_16  and  C_27
    4  A    between atoms: N_18  and  C_29
                            x       y       z     vdW  Elec       q    Type
                         _______ _______ _______ _____ _____    ______ ____

>  <TORSDO>
F 4

$$$$
