=
 OpenBabel10272400593D

 27 31  0  0  1  0  0  0  0  0999 V2000
  188.4180  177.7970  137.0680 C   0  0  2  0  0  0  0  0  0  0  0  0
  186.7570  177.8310  139.0180 C   0  0  2  0  0  3  0  0  0  0  0  0
  189.2270  177.5030  139.4160 O   0  0  0  0  0  0  0  0  0  0  0  0
  186.0520  178.4240  142.9700 C   0  0  0  0  0  3  0  0  0  0  0  0
  186.5690  177.8370  145.3290 C   0  0  0  0  0  1  0  0  0  0  0  0
  185.6380  178.6760  139.4390 N   0  0  0  0  0  0  0  0  0  0  0  0
  188.3500  177.0450  142.0510 C   0  0  0  0  0  2  0  0  0  0  0  0
  190.6000  174.9110  137.8730 C   0  0  0  0  0  1  0  0  0  0  0  0
  188.2730  177.3340  143.5540 C   0  0  0  0  0  2  0  0  0  0  0  0
  190.9010  176.7700  136.2310 C   0  0  0  0  0  2  0  0  0  0  0  0
  188.0510  178.2230  139.7710 C   0  0  2  0  0  3  0  0  0  0  0  0
  186.9320  177.9090  137.4930 C   0  0  2  0  0  3  0  0  0  0  0  0
  186.9540  177.8560  143.9320 N   0  0  0  0  0  0  0  0  0  0  0  0
  186.4290  178.5830  141.7010 C   0  0  0  0  0  0  0  0  0  0  0  0
  189.0100  179.2040  137.0190 C   0  0  0  0  0  1  0  0  0  0  0  0
  187.8510  178.2750  141.2980 C   0  0  1  0  0  3  0  0  0  0  0  0
  190.5410  176.4130  137.6810 C   0  0  1  0  0  3  0  0  0  0  0  0
  185.4500  178.9910  140.6860 C   0  0  0  0  0  3  0  0  0  0  0  0
  189.7480  176.6870  135.3570 N   0  0  0  0  0  0  0  0  0  0  0  0
  188.6040  177.1710  135.7060 C   0  0  0  0  0  3  0  0  0  0  0  0
  189.1590  176.9320  138.1190 C   0  0  2  0  0  3  0  0  0  0  0  0
  184.2990  175.1040  135.6400 N   0  0  0  0  0  0  0  0  0  0  0  0
  186.0000  176.9310  136.8280 C   0  0  0  0  0  0  0  0  0  0  0  0
  185.1060  177.3440  135.8320 C   0  0  0  0  0  3  0  0  0  0  0  0
  184.2550  176.4040  135.2450 C   0  0  0  0  0  3  0  0  0  0  0  0
  185.1590  174.6820  136.6070 C   0  0  0  0  0  3  0  0  0  0  0  0
  186.0250  175.5900  137.2190 C   0  0  0  0  0  3  0  0  0  0  0  0
  1 15  1  6  0  0  0
  1 12  1  0  0  0  0
  1 21  1  0  0  0  0
  2  6  1  1  0  0  0
  2 11  1  0  0  0  0
  4 13  1  0  0  0  0
  6 18  2  0  0  0  0
  7  9  1  0  0  0  0
  9 13  1  0  0  0  0
 10 17  1  0  0  0  0
 11  3  1  1  0  0  0
 11 16  1  0  0  0  0
 12 23  1  6  0  0  0
 12  2  1  0  0  0  0
 13  5  1  0  0  0  0
 14  4  2  0  0  0  0
 16 14  1  0  0  0  0
 16  7  1  1  0  0  0
 17  8  1  6  0  0  0
 17 21  1  0  0  0  0
 18 14  1  0  0  0  0
 19 20  2  0  0  0  0
 19 10  1  0  0  0  0
 20  1  1  0  0  0  0
 21  3  1  1  0  0  0
 22 26  1  0  0  0  0
 23 27  1  0  0  0  0
 24 23  2  0  0  0  0
 25 22  2  0  0  0  0
 25 24  1  0  0  0  0
 26 27  2  0  0  0  0
M  END
>  <MODEL>
1

>  <REMARK>
 VINA RESULT:      -6.7      0.000      0.000
  Name = 
  1 active torsions:
  status: ('A' for Active; 'I' for Inactive)
    1  A    between atoms: C_9  and  C_15
                            x       y       z     vdW  Elec       q    Type
                         _______ _______ _______ _____ _____    ______ ____

>  <TORSDO>
F 1

$$$$
=
 OpenBabel10272400593D

 27 31  0  0  1  0  0  0  0  0999 V2000
  188.6330  177.9420  138.3540 C   0  0  2  0  0  0  0  0  0  0  0  0
  190.8360  176.8150  139.0170 C   0  0  2  0  0  3  0  0  0  0  0  0
  189.6580  176.2100  136.8690 O   0  0  0  0  0  0  0  0  0  0  0  0
  194.1960  174.8320  137.9010 C   0  0  0  0  0  3  0  0  0  0  0  0
  195.2290  172.8780  136.7650 C   0  0  0  0  0  1  0  0  0  0  0  0
  192.1410  177.2550  139.5150 N   0  0  0  0  0  0  0  0  0  0  0  0
  191.6660  174.2400  136.7730 C   0  0  0  0  0  2  0  0  0  0  0  0
  186.5520  175.1010  137.1960 C   0  0  0  0  0  1  0  0  0  0  0  0
  192.8780  173.5280  136.1630 C   0  0  0  0  0  2  0  0  0  0  0  0
  186.2450  177.5640  136.9130 C   0  0  0  0  0  2  0  0  0  0  0  0
  190.8820  176.5970  137.4860 C   0  0  2  0  0  3  0  0  0  0  0  0
  189.7500  177.8230  139.4220 C   0  0  2  0  0  3  0  0  0  0  0  0
  194.0880  173.7510  136.9630 N   0  0  0  0  0  0  0  0  0  0  0  0
  193.2210  175.7350  138.0080 C   0  0  0  0  0  0  0  0  0  0  0  0
  189.0240  179.0440  137.3730 C   0  0  0  0  0  1  0  0  0  0  0  0
  192.0510  175.6890  137.0540 C   0  0  1  0  0  3  0  0  0  0  0  0
  187.2320  176.3940  136.7910 C   0  0  1  0  0  3  0  0  0  0  0  0
  193.2490  176.7280  139.0890 C   0  0  0  0  0  3  0  0  0  0  0  0
  186.2040  178.0940  138.2610 N   0  0  0  0  0  0  0  0  0  0  0  0
  187.2850  178.2990  138.9350 C   0  0  0  0  0  3  0  0  0  0  0  0
  188.5140  176.5800  137.6230 C   0  0  2  0  0  3  0  0  0  0  0  0
  188.4290  176.9210  143.3820 N   0  0  0  0  0  0  0  0  0  0  0  0
  189.2720  177.5150  140.8160 C   0  0  0  0  0  0  0  0  0  0  0  0
  188.3020  178.3090  141.4430 C   0  0  0  0  0  3  0  0  0  0  0  0
  187.8910  177.9910  142.7390 C   0  0  0  0  0  3  0  0  0  0  0  0
  189.3730  176.1370  142.7920 C   0  0  0  0  0  3  0  0  0  0  0  0
  189.8110  176.4210  141.4980 C   0  0  0  0  0  3  0  0  0  0  0  0
  1 15  1  6  0  0  0
  1 20  1  0  0  0  0
  1 12  1  0  0  0  0
  2 12  1  0  0  0  0
  2  6  1  6  0  0  0
  4 14  2  0  0  0  0
  5 13  1  0  0  0  0
  9  7  1  0  0  0  0
  9 13  1  0  0  0  0
 10 19  1  0  0  0  0
 11  3  1  1  0  0  0
 11  2  1  0  0  0  0
 12 23  1  1  0  0  0
 13  4  1  0  0  0  0
 14 18  1  0  0  0  0
 16  7  1  1  0  0  0
 16 11  1  0  0  0  0
 16 14  1  0  0  0  0
 17 10  1  0  0  0  0
 17  8  1  1  0  0  0
 17 21  1  0  0  0  0
 18  6  2  0  0  0  0
 19 20  2  0  0  0  0
 21  3  1  6  0  0  0
 21  1  1  0  0  0  0
 23 24  2  0  0  0  0
 23 27  1  0  0  0  0
 24 25  1  0  0  0  0
 25 22  2  0  0  0  0
 26 22  1  0  0  0  0
 27 26  2  0  0  0  0
M  END
>  <MODEL>
2

>  <REMARK>
 VINA RESULT:      -6.0      2.433      6.698
  Name = 
  1 active torsions:
  status: ('A' for Active; 'I' for Inactive)
    1  A    between atoms: C_9  and  C_15
                            x       y       z     vdW  Elec       q    Type
                         _______ _______ _______ _____ _____    ______ ____

>  <TORSDO>
F 1

$$$$
=
 OpenBabel10272400593D

 27 31  0  0  1  0  0  0  0  0999 V2000
  188.4850  176.9520  136.3000 C   0  0  2  0  0  0  0  0  0  0  0  0
  187.5920  177.2900  138.6780 C   0  0  2  0  0  3  0  0  0  0  0  0
  190.0090  176.6930  138.2670 O   0  0  0  0  0  0  0  0  0  0  0  0
  188.3220  178.1800  142.5690 C   0  0  0  0  0  3  0  0  0  0  0  0
  189.5490  177.6670  144.6690 C   0  0  0  0  0  1  0  0  0  0  0  0
  186.7650  178.2840  139.3640 N   0  0  0  0  0  0  0  0  0  0  0  0
  190.0350  176.4890  141.0730 C   0  0  0  0  0  2  0  0  0  0  0  0
  190.5320  173.8760  136.6020 C   0  0  0  0  0  1  0  0  0  0  0  0
  190.4980  176.8680  142.4840 C   0  0  0  0  0  2  0  0  0  0  0  0
  190.4320  175.5920  134.7890 C   0  0  0  0  0  2  0  0  0  0  0  0
  189.0940  177.5670  138.9220 C   0  0  2  0  0  3  0  0  0  0  0  0
  187.2480  177.2630  137.1800 C   0  0  2  0  0  3  0  0  0  0  0  0
  189.4390  177.5630  143.2270 N   0  0  0  0  0  0  0  0  0  0  0  0
  188.2620  178.2230  141.2370 C   0  0  0  0  0  0  0  0  0  0  0  0
  189.1540  178.2730  135.9300 C   0  0  0  0  0  1  0  0  0  0  0  0
  189.4290  177.7260  140.4180 C   0  0  1  0  0  3  0  0  0  0  0  0
  190.5520  175.3610  136.3030 C   0  0  1  0  0  3  0  0  0  0  0  0
  187.0400  178.6870  140.5690 C   0  0  0  0  0  3  0  0  0  0  0  0
  189.0490  175.5980  134.3560 N   0  0  0  0  0  0  0  0  0  0  0  0
  188.1410  176.2330  135.0170 C   0  0  0  0  0  3  0  0  0  0  0  0
  189.4540  176.0630  137.1230 C   0  0  2  0  0  3  0  0  0  0  0  0
  183.8960  174.6890  136.5610 N   0  0  0  0  0  0  0  0  0  0  0  0
  186.0590  176.3670  136.9520 C   0  0  0  0  0  0  0  0  0  0  0  0
  184.8790  176.8590  136.3800 C   0  0  0  0  0  3  0  0  0  0  0  0
  183.7980  175.9940  136.1910 C   0  0  0  0  0  3  0  0  0  0  0  0
  185.0330  174.1920  137.1200 C   0  0  0  0  0  3  0  0  0  0  0  0
  186.1350  175.0230  137.3260 C   0  0  0  0  0  3  0  0  0  0  0  0
  1 15  1  6  0  0  0
  1 21  1  0  0  0  0
  1 12  1  0  0  0  0
  2 11  1  0  0  0  0
  2  6  1  1  0  0  0
  4 13  1  0  0  0  0
  6 18  2  0  0  0  0
  7  9  1  0  0  0  0
  9 13  1  0  0  0  0
 10 17  1  0  0  0  0
 11  3  1  1  0  0  0
 11 16  1  0  0  0  0
 12 23  1  1  0  0  0
 12  2  1  0  0  0  0
 13  5  1  0  0  0  0
 14  4  2  0  0  0  0
 16  7  1  1  0  0  0
 16 14  1  0  0  0  0
 17  8  1  6  0  0  0
 17 21  1  0  0  0  0
 18 14  1  0  0  0  0
 19 10  1  0  0  0  0
 19 20  2  0  0  0  0
 20  1  1  0  0  0  0
 21  3  1  1  0  0  0
 22 26  1  0  0  0  0
 23 27  1  0  0  0  0
 24 23  2  0  0  0  0
 25 24  1  0  0  0  0
 25 22  2  0  0  0  0
 26 27  2  0  0  0  0
M  END
>  <MODEL>
3

>  <REMARK>
 VINA RESULT:      -5.7      1.427      1.643
  Name = 
  1 active torsions:
  status: ('A' for Active; 'I' for Inactive)
    1  A    between atoms: C_9  and  C_15
                            x       y       z     vdW  Elec       q    Type
                         _______ _______ _______ _____ _____    ______ ____

>  <TORSDO>
F 1

$$$$
=
 OpenBabel10272400593D

 27 31  0  0  1  0  0  0  0  0999 V2000
  187.4640  177.6560  137.0390 C   0  0  2  0  0  0  0  0  0  0  0  0
  185.0060  177.1330  137.5360 C   0  0  2  0  0  3  0  0  0  0  0  0
  186.3960  178.5020  139.1370 O   0  0  0  0  0  0  0  0  0  0  0  0
  181.5690  178.1020  139.4650 C   0  0  0  0  0  3  0  0  0  0  0  0
  180.3920  178.5510  141.6070 C   0  0  0  0  0  1  0  0  0  0  0  0
  183.7440  177.1810  136.7950 N   0  0  0  0  0  0  0  0  0  0  0  0
  184.0950  178.2580  140.7390 C   0  0  0  0  0  2  0  0  0  0  0  0
  189.1300  177.0270  140.2900 C   0  0  0  0  0  1  0  0  0  0  0  0
  182.8910  178.7910  141.5230 C   0  0  0  0  0  2  0  0  0  0  0  0
  189.9460  178.2080  138.2460 C   0  0  0  0  0  2  0  0  0  0  0  0
  185.1810  178.4050  138.3990 C   0  0  2  0  0  3  0  0  0  0  0  0
  186.1790  176.9290  136.5650 C   0  0  2  0  0  3  0  0  0  0  0  0
  181.6270  178.4630  140.8530 N   0  0  0  0  0  0  0  0  0  0  0  0
  182.6670  178.1460  138.7080 C   0  0  0  0  0  0  0  0  0  0  0  0
  187.4640  179.0630  136.4480 C   0  0  0  0  0  1  0  0  0  0  0  0
  183.9520  178.6910  139.2840 C   0  0  1  0  0  3  0  0  0  0  0  0
  188.7890  178.0710  139.2470 C   0  0  1  0  0  3  0  0  0  0  0  0
  182.6450  177.6040  137.3440 C   0  0  0  0  0  3  0  0  0  0  0  0
  189.8560  177.2250  137.1840 N   0  0  0  0  0  0  0  0  0  0  0  0
  188.7360  176.9700  136.5990 C   0  0  0  0  0  3  0  0  0  0  0  0
  187.4430  177.7170  138.5880 C   0  0  2  0  0  3  0  0  0  0  0  0
  186.6320  172.7560  135.7840 N   0  0  0  0  0  0  0  0  0  0  0  0
  186.3440  175.4620  136.2750 C   0  0  0  0  0  0  0  0  0  0  0  0
  186.5590  175.0000  134.9690 C   0  0  0  0  0  3  0  0  0  0  0  0
  186.7020  173.6290  134.7440 C   0  0  0  0  0  3  0  0  0  0  0  0
  186.4240  173.1830  137.0590 C   0  0  0  0  0  3  0  0  0  0  0  0
  186.2760  174.5450  137.3270 C   0  0  0  0  0  3  0  0  0  0  0  0
  1 15  1  6  0  0  0
  1 21  1  0  0  0  0
  2  6  1  6  0  0  0
  2 11  1  0  0  0  0
  4 13  1  0  0  0  0
  6 18  2  0  0  0  0
  7  9  1  0  0  0  0
 10 17  1  0  0  0  0
 11  3  1  1  0  0  0
 11 16  1  0  0  0  0
 12 23  1  1  0  0  0
 12  1  1  0  0  0  0
 12  2  1  0  0  0  0
 13  9  1  0  0  0  0
 13  5  1  0  0  0  0
 14 16  1  0  0  0  0
 14  4  2  0  0  0  0
 16  7  1  1  0  0  0
 17  8  1  1  0  0  0
 18 14  1  0  0  0  0
 19 10  1  0  0  0  0
 20  1  1  0  0  0  0
 20 19  2  0  0  0  0
 21  3  1  6  0  0  0
 21 17  1  0  0  0  0
 22 26  1  0  0  0  0
 23 27  1  0  0  0  0
 24 23  2  0  0  0  0
 25 24  1  0  0  0  0
 25 22  2  0  0  0  0
 26 27  2  0  0  0  0
M  END
>  <MODEL>
4

>  <REMARK>
 VINA RESULT:      -5.6      2.521      3.674
  Name = 
  1 active torsions:
  status: ('A' for Active; 'I' for Inactive)
    1  A    between atoms: C_9  and  C_15
                            x       y       z     vdW  Elec       q    Type
                         _______ _______ _______ _____ _____    ______ ____

>  <TORSDO>
F 1

$$$$
=
 OpenBabel10272400593D

 27 31  0  0  1  0  0  0  0  0999 V2000
  184.2470  178.9430  140.1400 C   0  0  2  0  0  0  0  0  0  0  0  0
  186.6970  178.2240  139.9260 C   0  0  2  0  0  3  0  0  0  0  0  0
  184.9600  177.4450  138.2680 O   0  0  0  0  0  0  0  0  0  0  0  0
  189.7350  176.8960  137.5860 C   0  0  0  0  0  3  0  0  0  0  0  0
  190.6130  175.1760  136.0220 C   0  0  0  0  0  1  0  0  0  0  0  0
  188.0010  178.8860  139.9810 N   0  0  0  0  0  0  0  0  0  0  0  0
  187.1040  175.8720  137.3460 C   0  0  0  0  0  2  0  0  0  0  0  0
  182.3920  175.7880  139.5490 C   0  0  0  0  0  1  0  0  0  0  0  0
  188.1270  175.3980  136.3080 C   0  0  0  0  0  2  0  0  0  0  0  0
  181.6030  178.1590  139.5740 C   0  0  0  0  0  2  0  0  0  0  0  0
  186.2410  178.0380  138.4590 C   0  0  2  0  0  3  0  0  0  0  0  0
  185.6690  179.0140  140.7520 C   0  0  2  0  0  3  0  0  0  0  0  0
  189.4860  175.8260  136.6620 N   0  0  0  0  0  0  0  0  0  0  0  0
  188.7230  177.6060  138.0860 C   0  0  0  0  0  0  0  0  0  0  0  0
  184.0830  180.1100  139.1700 C   0  0  0  0  0  1  0  0  0  0  0  0
  187.3190  177.3630  137.5880 C   0  0  1  0  0  3  0  0  0  0  0  0
  182.6650  177.1880  139.0360 C   0  0  1  0  0  3  0  0  0  0  0  0
  188.9620  178.5730  139.1650 C   0  0  0  0  0  3  0  0  0  0  0  0
  181.9490  178.6550  140.8920 N   0  0  0  0  0  0  0  0  0  0  0  0
  183.1470  179.0420  141.1710 C   0  0  0  0  0  3  0  0  0  0  0  0
  184.1070  177.5910  139.3930 C   0  0  2  0  0  3  0  0  0  0  0  0
  185.9820  177.8370  144.8450 N   0  0  0  0  0  0  0  0  0  0  0  0
  185.7650  178.6060  142.1980 C   0  0  0  0  0  0  0  0  0  0  0  0
  184.9160  179.1590  143.1650 C   0  0  0  0  0  3  0  0  0  0  0  0
  185.0420  178.7560  144.4970 C   0  0  0  0  0  3  0  0  0  0  0  0
  186.8170  177.2880  143.9210 C   0  0  0  0  0  3  0  0  0  0  0  0
  186.7230  177.6640  142.5800 C   0  0  0  0  0  3  0  0  0  0  0  0
  1 15  1  6  0  0  0
  1 12  1  0  0  0  0
  1 20  1  0  0  0  0
  2  6  1  6  0  0  0
  2 12  1  0  0  0  0
  4 14  2  0  0  0  0
  5 13  1  0  0  0  0
  9 13  1  0  0  0  0
  9  7  1  0  0  0  0
 10 19  1  0  0  0  0
 11  3  1  1  0  0  0
 11  2  1  0  0  0  0
 12 23  1  1  0  0  0
 13  4  1  0  0  0  0
 14 18  1  0  0  0  0
 16  7  1  1  0  0  0
 16 14  1  0  0  0  0
 16 11  1  0  0  0  0
 17 21  1  0  0  0  0
 17  8  1  1  0  0  0
 17 10  1  0  0  0  0
 18  6  2  0  0  0  0
 19 20  2  0  0  0  0
 21  3  1  6  0  0  0
 21  1  1  0  0  0  0
 23 27  2  0  0  0  0
 23 24  1  0  0  0  0
 24 25  2  0  0  0  0
 25 22  1  0  0  0  0
 26 22  2  0  0  0  0
 27 26  1  0  0  0  0
M  END
>  <MODEL>
5

>  <REMARK>
 VINA RESULT:      -5.3      2.223      6.789
  Name = 
  1 active torsions:
  status: ('A' for Active; 'I' for Inactive)
    1  A    between atoms: C_9  and  C_15
                            x       y       z     vdW  Elec       q    Type
                         _______ _______ _______ _____ _____    ______ ____

>  <TORSDO>
F 1

$$$$
=
 OpenBabel10272400593D

 27 31  0  0  1  0  0  0  0  0999 V2000
  188.9980  176.3490  135.6190 C   0  0  2  0  0  0  0  0  0  0  0  0
  186.9670  176.6370  137.1540 C   0  0  2  0  0  3  0  0  0  0  0  0
  189.2530  177.4470  137.8520 O   0  0  0  0  0  0  0  0  0  0  0  0
  185.1740  178.6220  140.2070 C   0  0  0  0  0  3  0  0  0  0  0  0
  185.2370  179.3790  142.5730 C   0  0  0  0  0  1  0  0  0  0  0  0
  185.5880  177.1080  137.0070 N   0  0  0  0  0  0  0  0  0  0  0  0
  187.9190  177.9240  140.2830 C   0  0  0  0  0  2  0  0  0  0  0  0
  191.6320  175.1420  137.9300 C   0  0  0  0  0  1  0  0  0  0  0  0
  187.3970  178.8000  141.4270 C   0  0  0  0  0  2  0  0  0  0  0  0
  191.7950  176.0420  135.6050 C   0  0  0  0  0  2  0  0  0  0  0  0
  187.8720  177.7640  137.7050 C   0  0  2  0  0  3  0  0  0  0  0  0
  187.4820  176.0870  135.8150 C   0  0  2  0  0  3  0  0  0  0  0  0
  185.9340  178.9130  141.3890 N   0  0  0  0  0  0  0  0  0  0  0  0
  185.7920  178.3250  139.0620 C   0  0  0  0  0  0  0  0  0  0  0  0
  189.1650  177.6930  134.9160 C   0  0  0  0  0  1  0  0  0  0  0  0
  187.2970  178.4130  138.9790 C   0  0  1  0  0  3  0  0  0  0  0  0
  191.2050  176.2640  137.0050 C   0  0  1  0  0  3  0  0  0  0  0  0
  185.0190  177.8510  137.9080 C   0  0  0  0  0  3  0  0  0  0  0  0
  190.9640  175.1650  134.8050 N   0  0  0  0  0  0  0  0  0  0  0  0
  189.6810  175.2990  134.7750 C   0  0  0  0  0  3  0  0  0  0  0  0
  189.6690  176.3780  137.0160 C   0  0  2  0  0  3  0  0  0  0  0  0
  186.2730  172.0100  135.4270 N   0  0  0  0  0  0  0  0  0  0  0  0
  187.0550  174.6520  135.6620 C   0  0  0  0  0  0  0  0  0  0  0  0
  186.5510  174.1700  134.4470 C   0  0  0  0  0  3  0  0  0  0  0  0
  186.1620  172.8330  134.3490 C   0  0  0  0  0  3  0  0  0  0  0  0
  186.7590  172.4580  136.6160 C   0  0  0  0  0  3  0  0  0  0  0  0
  187.1590  173.7880  136.7550 C   0  0  0  0  0  3  0  0  0  0  0  0
  1 15  1  6  0  0  0
  1 12  1  0  0  0  0
  1 21  1  0  0  0  0
  2  6  1  6  0  0  0
  2 11  1  0  0  0  0
  4 13  1  0  0  0  0
  6 18  2  0  0  0  0
  7  9  1  0  0  0  0
 10 17  1  0  0  0  0
 11  3  1  1  0  0  0
 11 16  1  0  0  0  0
 12 23  1  1  0  0  0
 12  2  1  0  0  0  0
 13  9  1  0  0  0  0
 13  5  1  0  0  0  0
 14  4  2  0  0  0  0
 16 14  1  0  0  0  0
 16  7  1  1  0  0  0
 17 21  1  0  0  0  0
 17  8  1  1  0  0  0
 18 14  1  0  0  0  0
 19 10  1  0  0  0  0
 20 19  2  0  0  0  0
 20  1  1  0  0  0  0
 21  3  1  6  0  0  0
 22 26  1  0  0  0  0
 23 27  1  0  0  0  0
 24 23  2  0  0  0  0
 25 24  1  0  0  0  0
 25 22  2  0  0  0  0
 26 27  2  0  0  0  0
M  END
>  <MODEL>
6

>  <REMARK>
 VINA RESULT:      -5.2      1.818      2.586
  Name = 
  1 active torsions:
  status: ('A' for Active; 'I' for Inactive)
    1  A    between atoms: C_9  and  C_15
                            x       y       z     vdW  Elec       q    Type
                         _______ _______ _______ _____ _____    ______ ____

>  <TORSDO>
F 1

$$$$
=
 OpenBabel10272400593D

 27 31  0  0  1  0  0  0  0  0999 V2000
  195.4970  173.6840  135.6490 C   0  0  2  0  0  0  0  0  0  0  0  0
  193.2740  173.7910  136.9200 C   0  0  2  0  0  3  0  0  0  0  0  0
  194.9960  175.6220  137.1480 O   0  0  0  0  0  0  0  0  0  0  0  0
  190.4420  176.0230  138.7820 C   0  0  0  0  0  3  0  0  0  0  0  0
  189.8610  177.6640  140.5560 C   0  0  0  0  0  1  0  0  0  0  0  0
  191.8610  173.5920  136.5960 N   0  0  0  0  0  0  0  0  0  0  0  0
  193.2090  176.5270  139.1260 C   0  0  0  0  0  2  0  0  0  0  0  0
  197.9810  174.6630  138.2190 C   0  0  0  0  0  1  0  0  0  0  0  0
  192.2400  177.5290  139.7620 C   0  0  0  0  0  2  0  0  0  0  0  0
  198.1910  174.4920  135.7360 C   0  0  0  0  0  2  0  0  0  0  0  0
  193.6330  175.2960  136.8940 C   0  0  2  0  0  3  0  0  0  0  0  0
  194.1550  172.9730  135.9630 C   0  0  2  0  0  3  0  0  0  0  0  0
  190.8550  177.0490  139.6980 N   0  0  0  0  0  0  0  0  0  0  0  0
  191.2990  175.5350  137.8840 C   0  0  0  0  0  0  0  0  0  0  0  0
  195.2970  174.5600  134.4150 C   0  0  0  0  0  1  0  0  0  0  0  0
  192.6730  176.1460  137.7500 C   0  0  1  0  0  3  0  0  0  0  0  0
  197.3450  175.0370  136.8960 C   0  0  1  0  0  3  0  0  0  0  0  0
  190.9330  174.3640  137.0760 C   0  0  0  0  0  3  0  0  0  0  0  0
  197.8540  173.1170  135.4260 N   0  0  0  0  0  0  0  0  0  0  0  0
  196.6270  172.7260  135.3570 C   0  0  0  0  0  3  0  0  0  0  0  0
  195.8840  174.5500  136.8750 C   0  0  2  0  0  3  0  0  0  0  0  0
  194.5010  168.9590  137.3770 N   0  0  0  0  0  0  0  0  0  0  0  0
  194.2820  171.5640  136.4760 C   0  0  0  0  0  0  0  0  0  0  0  0
  194.9820  171.2810  137.6570 C   0  0  0  0  0  3  0  0  0  0  0  0
  195.0800  169.9590  138.0940 C   0  0  0  0  0  3  0  0  0  0  0  0
  193.8180  169.2110  136.2270 C   0  0  0  0  0  3  0  0  0  0  0  0
  193.6960  170.5190  135.7560 C   0  0  0  0  0  3  0  0  0  0  0  0
  1 15  1  6  0  0  0
  1 12  1  0  0  0  0
  1 21  1  0  0  0  0
  2  6  1  6  0  0  0
  4 13  1  0  0  0  0
  6 18  2  0  0  0  0
  7  9  1  0  0  0  0
 10 17  1  0  0  0  0
 11  2  1  0  0  0  0
 11  3  1  1  0  0  0
 11 16  1  0  0  0  0
 12 23  1  1  0  0  0
 12  2  1  0  0  0  0
 13  9  1  0  0  0  0
 13  5  1  0  0  0  0
 14  4  2  0  0  0  0
 16 14  1  0  0  0  0
 16  7  1  1  0  0  0
 17  8  1  1  0  0  0
 18 14  1  0  0  0  0
 19 10  1  0  0  0  0
 20 19  2  0  0  0  0
 20  1  1  0  0  0  0
 21 17  1  0  0  0  0
 21  3  1  6  0  0  0
 22 25  1  0  0  0  0
 23 24  1  0  0  0  0
 24 25  2  0  0  0  0
 26 22  2  0  0  0  0
 27 26  1  0  0  0  0
 27 23  2  0  0  0  0
M  END
>  <MODEL>
7

>  <REMARK>
 VINA RESULT:      -5.1      5.399      8.350
  Name = 
  1 active torsions:
  status: ('A' for Active; 'I' for Inactive)
    1  A    between atoms: C_9  and  C_15
                            x       y       z     vdW  Elec       q    Type
                         _______ _______ _______ _____ _____    ______ ____

>  <TORSDO>
F 1

$$$$
=
 OpenBabel10272400593D

 27 31  0  0  1  0  0  0  0  0999 V2000
  188.4390  177.8100  137.6450 C   0  0  2  0  0  0  0  0  0  0  0  0
  185.9810  177.6440  138.3500 C   0  0  2  0  0  3  0  0  0  0  0  0
  187.7630  178.3450  139.9930 O   0  0  0  0  0  0  0  0  0  0  0  0
  183.0080  178.7670  140.8730 C   0  0  0  0  0  3  0  0  0  0  0  0
  182.1480  178.9320  143.1990 C   0  0  0  0  0  1  0  0  0  0  0  0
  184.6940  178.0860  137.8080 N   0  0  0  0  0  0  0  0  0  0  0  0
  185.6160  178.1720  141.8050 C   0  0  0  0  0  2  0  0  0  0  0  0
  190.2280  176.1780  140.4520 C   0  0  0  0  0  1  0  0  0  0  0  0
  184.6250  178.7270  142.8330 C   0  0  0  0  0  2  0  0  0  0  0  0
  191.0810  177.6180  138.5970 C   0  0  0  0  0  2  0  0  0  0  0  0
  186.4930  178.6380  139.4200 C   0  0  2  0  0  3  0  0  0  0  0  0
  186.9940  177.4530  137.2100 C   0  0  2  0  0  3  0  0  0  0  0  0
  183.2650  178.7920  142.2850 N   0  0  0  0  0  0  0  0  0  0  0  0
  184.0170  178.7780  140.0020 C   0  0  0  0  0  0  0  0  0  0  0  0
  188.6760  179.2890  137.3540 C   0  0  0  0  0  1  0  0  0  0  0  0
  185.4340  178.9380  140.4990 C   0  0  1  0  0  3  0  0  0  0  0  0
  190.0160  177.4740  139.6950 C   0  0  1  0  0  3  0  0  0  0  0  0
  183.7600  178.5680  138.5710 C   0  0  0  0  0  3  0  0  0  0  0  0
  190.6940  176.9300  137.3810 N   0  0  0  0  0  0  0  0  0  0  0  0
  189.4970  177.0200  136.9110 C   0  0  0  0  0  3  0  0  0  0  0  0
  188.5720  177.5260  139.1640 C   0  0  2  0  0  3  0  0  0  0  0  0
  186.5210  173.5840  135.4680 N   0  0  0  0  0  0  0  0  0  0  0  0
  186.8260  176.0820  136.6110 C   0  0  0  0  0  0  0  0  0  0  0  0
  186.9480  174.9280  137.3950 C   0  0  0  0  0  3  0  0  0  0  0  0
  186.7900  173.6750  136.7970 C   0  0  0  0  0  3  0  0  0  0  0  0
  186.3990  174.6920  134.6880 C   0  0  0  0  0  3  0  0  0  0  0  0
  186.5500  175.9620  135.2470 C   0  0  0  0  0  3  0  0  0  0  0  0
  1 15  1  6  0  0  0
  1 21  1  0  0  0  0
  2  6  1  6  0  0  0
  2 11  1  0  0  0  0
  4 13  1  0  0  0  0
  6 18  2  0  0  0  0
  7  9  1  0  0  0  0
 10 17  1  0  0  0  0
 11  3  1  1  0  0  0
 11 16  1  0  0  0  0
 12 23  1  1  0  0  0
 12  1  1  0  0  0  0
 12  2  1  0  0  0  0
 13  9  1  0  0  0  0
 13  5  1  0  0  0  0
 14 16  1  0  0  0  0
 14  4  2  0  0  0  0
 16  7  1  1  0  0  0
 17  8  1  6  0  0  0
 18 14  1  0  0  0  0
 19 10  1  0  0  0  0
 20 19  2  0  0  0  0
 20  1  1  0  0  0  0
 21 17  1  0  0  0  0
 21  3  1  1  0  0  0
 22 25  1  0  0  0  0
 23 24  1  0  0  0  0
 25 24  2  0  0  0  0
 26 27  1  0  0  0  0
 26 22  2  0  0  0  0
 27 23  2  0  0  0  0
M  END
>  <MODEL>
8

>  <REMARK>
 VINA RESULT:      -4.9      1.989      2.662
  Name = 
  1 active torsions:
  status: ('A' for Active; 'I' for Inactive)
    1  A    between atoms: C_9  and  C_15
                            x       y       z     vdW  Elec       q    Type
                         _______ _______ _______ _____ _____    ______ ____

>  <TORSDO>
F 1

$$$$
=
 OpenBabel10272400593D

 27 31  0  0  1  0  0  0  0  0999 V2000
  189.0600  175.9920  136.2150 C   0  0  2  0  0  0  0  0  0  0  0  0
  191.4920  175.7640  136.9890 C   0  0  2  0  0  3  0  0  0  0  0  0
  190.3750  173.9430  135.6460 O   0  0  0  0  0  0  0  0  0  0  0  0
  195.1540  174.0900  136.4850 C   0  0  0  0  0  3  0  0  0  0  0  0
  196.5440  172.0370  136.3220 C   0  0  0  0  0  1  0  0  0  0  0  0
  192.6860  176.6120  136.9860 N   0  0  0  0  0  0  0  0  0  0  0  0
  192.7700  172.5820  136.2220 C   0  0  0  0  0  2  0  0  0  0  0  0
  187.6230  172.6600  136.9720 C   0  0  0  0  0  1  0  0  0  0  0  0
  194.0800  171.8730  135.8620 C   0  0  0  0  0  2  0  0  0  0  0  0
  186.7510  174.5250  135.5560 C   0  0  0  0  0  2  0  0  0  0  0  0
  191.5090  174.7940  135.7840 C   0  0  2  0  0  3  0  0  0  0  0  0
  190.2270  176.6360  137.0070 C   0  0  2  0  0  3  0  0  0  0  0  0
  195.2470  172.6790  136.2390 N   0  0  0  0  0  0  0  0  0  0  0  0
  194.0060  174.7380  136.2830 C   0  0  0  0  0  0  0  0  0  0  0  0
  189.1410  176.4720  134.7690 C   0  0  0  0  0  1  0  0  0  0  0  0
  192.8300  174.0070  135.6800 C   0  0  1  0  0  3  0  0  0  0  0  0
  187.9700  173.6480  135.8760 C   0  0  1  0  0  3  0  0  0  0  0  0
  193.8620  176.1360  136.7080 C   0  0  0  0  0  3  0  0  0  0  0  0
  186.6590  175.6620  136.4500 N   0  0  0  0  0  0  0  0  0  0  0  0
  187.6970  176.3660  136.7500 C   0  0  0  0  0  3  0  0  0  0  0  0
  189.2170  174.4520  136.2880 C   0  0  2  0  0  3  0  0  0  0  0  0
  189.3400  177.7050  141.0460 N   0  0  0  0  0  0  0  0  0  0  0  0
  189.9020  177.0220  138.4260 C   0  0  0  0  0  0  0  0  0  0  0  0
  189.0340  178.0860  138.7080 C   0  0  0  0  0  3  0  0  0  0  0  0
  188.7630  178.4130  140.0380 C   0  0  0  0  0  3  0  0  0  0  0  0
  190.1860  176.6690  140.7940 C   0  0  0  0  0  3  0  0  0  0  0  0
  190.4820  176.3100  139.4780 C   0  0  0  0  0  3  0  0  0  0  0  0
  1 15  1  6  0  0  0
  1 21  1  0  0  0  0
  1 20  1  0  0  0  0
  1 12  1  0  0  0  0
  2  6  1  6  0  0  0
  2 12  1  0  0  0  0
  9  7  1  0  0  0  0
  9 13  1  0  0  0  0
 10 17  1  0  0  0  0
 10 19  1  0  0  0  0
 11  3  1  1  0  0  0
 11  2  1  0  0  0  0
 12 23  1  1  0  0  0
 13  5  1  0  0  0  0
 13  4  1  0  0  0  0
 14  4  2  0  0  0  0
 14 18  1  0  0  0  0
 16 11  1  0  0  0  0
 16  7  1  1  0  0  0
 16 14  1  0  0  0  0
 17 21  1  0  0  0  0
 17  8  1  1  0  0  0
 18  6  2  0  0  0  0
 19 20  2  0  0  0  0
 21  3  1  6  0  0  0
 23 24  2  0  0  0  0
 23 27  1  0  0  0  0
 24 25  1  0  0  0  0
 25 22  2  0  0  0  0
 26 22  1  0  0  0  0
 27 26  2  0  0  0  0
M  END
>  <MODEL>
9

>  <REMARK>
 VINA RESULT:      -4.8      3.337      7.378
  Name = 
  1 active torsions:
  status: ('A' for Active; 'I' for Inactive)
    1  A    between atoms: C_9  and  C_15
                            x       y       z     vdW  Elec       q    Type
                         _______ _______ _______ _____ _____    ______ ____

>  <TORSDO>
F 1

$$$$
