=
 OpenBabel10272414463D

 37 44  0  0  1  0  0  0  0  0999 V2000
  182.5610  177.2070  137.6750 O   0  0  0  0  0  0  0  0  0  0  0  0
  186.0850  174.9250  136.6600 C   0  0  0  0  0  0  0  0  0  0  0  0
  186.6910  177.8210  138.8650 C   0  0  0  0  0  0  0  0  0  0  0  0
  182.1120  178.4540  137.2040 C   0  0  2  0  0  3  0  0  0  0  0  0
  184.1430  178.6630  141.7550 C   0  0  0  0  0  2  0  0  0  0  0  0
  188.3720  175.8080  137.0550 C   0  0  0  0  0  3  0  0  0  0  0  0
  185.6020  178.5760  139.6200 C   0  0  2  0  0  3  0  0  0  0  0  0
  180.8660  178.5730  139.4750 C   0  0  2  0  0  3  0  0  0  0  0  0
  186.3140  176.9620  137.8860 C   0  0  0  0  0  0  0  0  0  0  0  0
  185.3920  178.0380  141.0800 C   0  0  1  0  0  3  0  0  0  0  0  0
  189.3930  176.7540  137.4930 C   0  0  0  0  0  3  0  0  0  0  0  0
  180.8680  178.9070  137.9730 C   0  0  0  0  0  2  0  0  0  0  0  0
  184.9290  176.8440  137.3340 C   0  0  1  0  0  3  0  0  0  0  0  0
  186.2330  173.5550  137.2970 C   0  0  0  0  0  1  0  0  0  0  0  0
  188.4990  178.6750  140.3880 C   0  0  0  0  0  3  0  0  0  0  0  0
  189.2820  177.6930  138.4240 C   0  0  0  0  0  3  0  0  0  0  0  0
  184.7450  175.4470  136.9400 N   0  0  0  0  0  2  0  0  0  0  0  0
  181.8980  179.2770  140.3800 C   0  0  1  0  0  3  0  0  0  0  0  0
  183.0110  178.3590  140.8050 C   0  0  1  0  0  3  0  0  0  0  0  0
  188.1270  178.0380  139.2640 C   0  0  0  0  0  0  0  0  0  0  0  0
  184.2640  178.6990  138.8410 C   0  0  2  0  0  3  0  0  0  0  0  0
  187.0590  175.8920  137.2590 C   0  0  0  0  0  0  0  0  0  0  0  0
  186.6700  178.1160  141.9350 C   0  0  1  0  0  3  0  0  0  0  0  0
  186.2720  174.8100  135.1550 C   0  0  0  0  0  1  0  0  0  0  0  0
  183.2810  179.4450  139.7560 C   0  0  1  0  0  3  0  0  0  0  0  0
  180.7540  177.2000  139.7160 O   0  0  0  0  0  1  0  0  0  0  0  0
  183.8410  177.3160  138.2840 C   0  0  1  0  0  3  0  0  0  0  0  0
  187.6170  179.2100  141.4710 C   0  0  0  0  0  2  0  0  0  0  0  0
  185.2320  178.4650  143.9910 C   0  0  0  0  0  3  0  0  0  0  0  0
  186.4610  178.0960  143.4220 C   0  0  0  0  0  0  0  0  0  0  0  0
  187.5030  177.6630  144.2500 C   0  0  0  0  0  3  0  0  0  0  0  0
  188.6340  177.0730  146.6640 Cl  0  0  0  0  0  0  0  0  0  0  0  0
  186.1030  177.9870  146.1990 C   0  0  0  0  0  3  0  0  0  0  0  0
  187.3250  177.6120  145.6350 C   0  0  0  0  0  0  0  0  0  0  0  0
  185.0550  178.4130  145.3760 C   0  0  0  0  0  3  0  0  0  0  0  0
  180.8470  179.4990  135.3280 C   0  0  0  0  0  1  0  0  0  0  0  0
  181.7810  178.3710  135.7240 C   0  0  0  0  0  2  0  0  0  0  0  0
  1 27  1  0  0  0  0
  2 17  1  0  0  0  0
  2 22  1  0  0  0  0
  2 14  1  0  0  0  0
  3 20  1  0  0  0  0
  4 37  1  6  0  0  0
  4  1  1  0  0  0  0
  4 12  1  0  0  0  0
  6 22  2  0  0  0  0
  6 11  1  0  0  0  0
  7  3  1  6  0  0  0
  7 10  1  0  0  0  0
  8 26  1  6  0  0  0
  8 18  1  0  0  0  0
  9  3  2  0  0  0  0
 10  5  1  1  0  0  0
 10 23  1  0  0  0  0
 11 16  2  0  0  0  0
 12  8  1  0  0  0  0
 13 17  1  1  0  0  0
 13  9  1  0  0  0  0
 13 27  1  0  0  0  0
 15 28  1  0  0  0  0
 16 20  1  0  0  0  0
 18 19  1  0  0  0  0
 19  5  1  0  0  0  0
 20 15  2  0  0  0  0
 21  7  1  0  0  0  0
 21 25  1  0  0  0  0
 22  9  1  0  0  0  0
 23 30  1  0  0  0  0
 24  2  1  0  0  0  0
 25 18  1  0  0  0  0
 25 19  1  0  0  0  0
 27 21  1  0  0  0  0
 28 23  1  0  0  0  0
 29 35  1  0  0  0  0
 30 29  2  0  0  0  0
 30 31  1  0  0  0  0
 31 34  2  0  0  0  0
 34 33  1  0  0  0  0
 34 32  1  0  0  0  0
 35 33  2  0  0  0  0
 36 37  1  0  0  0  0
M  END
>  <MODEL>
1

>  <REMARK>
 VINA RESULT:      -8.5      0.000      0.000
  Name = 
  2 active torsions:
  status: ('A' for Active; 'I' for Inactive)
    1  A    between atoms: C_5  and  C_23
    2  A    between atoms: C_6  and  C_31
                            x       y       z     vdW  Elec       q    Type
                         _______ _______ _______ _____ _____    ______ ____

>  <TORSDO>
F 2

$$$$
=
 OpenBabel10272414463D

 37 44  0  0  1  0  0  0  0  0999 V2000
  182.7080  177.2850  138.0090 O   0  0  0  0  0  0  0  0  0  0  0  0
  185.3560  174.5960  135.9090 C   0  0  0  0  0  0  0  0  0  0  0  0
  187.0260  177.4270  137.5870 C   0  0  0  0  0  0  0  0  0  0  0  0
  182.2500  178.5710  137.6680 C   0  0  2  0  0  3  0  0  0  0  0  0
  185.8160  178.5930  141.1550 C   0  0  0  0  0  2  0  0  0  0  0  0
  187.7070  175.2110  135.4000 C   0  0  0  0  0  3  0  0  0  0  0  0
  186.3740  178.3130  138.6440 C   0  0  2  0  0  3  0  0  0  0  0  0
  181.9420  178.8600  140.2260 C   0  0  2  0  0  3  0  0  0  0  0  0
  186.2290  176.6070  136.8590 C   0  0  0  0  0  0  0  0  0  0  0  0
  186.6590  177.8200  140.1070 C   0  0  1  0  0  3  0  0  0  0  0  0
  188.9110  176.0370  135.3870 C   0  0  0  0  0  3  0  0  0  0  0  0
  181.4280  179.1740  138.8110 C   0  0  0  0  0  2  0  0  0  0  0  0
  184.7340  176.6440  136.8530 C   0  0  1  0  0  3  0  0  0  0  0  0
  185.5840  173.2260  136.5220 C   0  0  0  0  0  1  0  0  0  0  0  0
  189.3450  178.0820  138.3020 C   0  0  0  0  0  3  0  0  0  0  0  0
  189.2470  176.9930  136.2430 C   0  0  0  0  0  3  0  0  0  0  0  0
  184.2740  175.2750  136.6280 N   0  0  0  0  0  2  0  0  0  0  0  0
  183.3020  179.4490  140.6570 C   0  0  1  0  0  3  0  0  0  0  0  0
  184.3900  178.4130  140.6970 C   0  0  1  0  0  3  0  0  0  0  0  0
  188.5230  177.4800  137.4260 C   0  0  0  0  0  0  0  0  0  0  0  0
  184.8650  178.5820  138.3970 C   0  0  2  0  0  3  0  0  0  0  0  0
  186.5770  175.4500  136.0620 C   0  0  0  0  0  0  0  0  0  0  0  0
  188.1620  177.7580  140.4350 C   0  0  1  0  0  3  0  0  0  0  0  0
  184.9650  174.4430  134.4470 C   0  0  0  0  0  1  0  0  0  0  0  0
  184.3690  179.4480  139.5660 C   0  0  1  0  0  3  0  0  0  0  0  0
  181.7840  177.5120  140.5640 O   0  0  0  0  0  1  0  0  0  0  0  0
  184.1260  177.2510  138.1060 C   0  0  1  0  0  3  0  0  0  0  0  0
  188.9810  178.7290  139.6010 C   0  0  0  0  0  2  0  0  0  0  0  0
  187.7050  177.1380  142.8480 C   0  0  0  0  0  3  0  0  0  0  0  0
  188.5110  177.7790  141.8950 C   0  0  0  0  0  0  0  0  0  0  0  0
  189.6850  178.4220  142.3040 C   0  0  0  0  0  3  0  0  0  0  0  0
  191.5120  179.2440  144.1590 Cl  0  0  0  0  0  0  0  0  0  0  0  0
  189.2360  177.8010  144.6020 C   0  0  0  0  0  3  0  0  0  0  0  0
  190.0450  178.4350  143.6550 C   0  0  0  0  0  0  0  0  0  0  0  0
  188.0660  177.1520  144.1980 C   0  0  0  0  0  3  0  0  0  0  0  0
  180.6490  179.8170  136.2210 C   0  0  0  0  0  1  0  0  0  0  0  0
  181.3930  178.5090  136.4160 C   0  0  0  0  0  2  0  0  0  0  0  0
  1 27  1  0  0  0  0
  2 22  1  0  0  0  0
  2 14  1  0  0  0  0
  2 17  1  0  0  0  0
  4 37  1  6  0  0  0
  4  1  1  0  0  0  0
  4 12  1  0  0  0  0
  6 22  2  0  0  0  0
  7  3  1  6  0  0  0
  7 10  1  0  0  0  0
  8 26  1  6  0  0  0
  8 18  1  0  0  0  0
  9  3  2  0  0  0  0
 10 23  1  0  0  0  0
 10  5  1  1  0  0  0
 11  6  1  0  0  0  0
 11 16  2  0  0  0  0
 12  8  1  0  0  0  0
 13 17  1  1  0  0  0
 13  9  1  0  0  0  0
 13 27  1  0  0  0  0
 15 28  1  0  0  0  0
 16 20  1  0  0  0  0
 18 19  1  0  0  0  0
 19  5  1  0  0  0  0
 20  3  1  0  0  0  0
 20 15  2  0  0  0  0
 21  7  1  0  0  0  0
 21 25  1  0  0  0  0
 22  9  1  0  0  0  0
 23 30  1  0  0  0  0
 24  2  1  0  0  0  0
 25 18  1  0  0  0  0
 25 19  1  0  0  0  0
 27 21  1  0  0  0  0
 28 23  1  0  0  0  0
 29 35  1  0  0  0  0
 30 31  1  0  0  0  0
 30 29  2  0  0  0  0
 31 34  2  0  0  0  0
 34 32  1  0  0  0  0
 34 33  1  0  0  0  0
 35 33  2  0  0  0  0
 36 37  1  0  0  0  0
M  END
>  <MODEL>
2

>  <REMARK>
 VINA RESULT:      -8.3      1.511      1.975
  Name = 
  2 active torsions:
  status: ('A' for Active; 'I' for Inactive)
    1  A    between atoms: C_5  and  C_23
    2  A    between atoms: C_6  and  C_31
                            x       y       z     vdW  Elec       q    Type
                         _______ _______ _______ _____ _____    ______ ____

>  <TORSDO>
F 2

$$$$
=
 OpenBabel10272414463D

 37 44  0  0  1  0  0  0  0  0999 V2000
  181.6650  178.0650  141.2580 O   0  0  0  0  0  0  0  0  0  0  0  0
  183.4720  175.9910  137.9280 C   0  0  0  0  0  0  0  0  0  0  0  0
  185.7390  178.2490  139.7670 C   0  0  0  0  0  0  0  0  0  0  0  0
  181.2460  179.4020  141.3850 C   0  0  2  0  0  3  0  0  0  0  0  0
  185.5570  178.4440  143.7020 C   0  0  0  0  0  2  0  0  0  0  0  0
  185.6650  176.6830  136.9930 C   0  0  0  0  0  3  0  0  0  0  0  0
  185.4470  178.8320  141.1470 C   0  0  2  0  0  3  0  0  0  0  0  0
  181.6100  179.0060  143.9210 C   0  0  2  0  0  3  0  0  0  0  0  0
  184.7190  177.6640  139.0910 C   0  0  0  0  0  0  0  0  0  0  0  0
  186.0450  177.9640  142.3100 C   0  0  1  0  0  3  0  0  0  0  0  0
  186.8920  177.4640  136.8730 C   0  0  0  0  0  3  0  0  0  0  0  0
  180.7880  179.6920  142.8170 C   0  0  0  0  0  2  0  0  0  0  0  0
  183.2790  177.7240  139.4880 C   0  0  1  0  0  3  0  0  0  0  0  0
  183.7290  174.5040  138.0930 C   0  0  0  0  0  1  0  0  0  0  0  0
  188.2080  178.6550  139.9910 C   0  0  0  0  0  3  0  0  0  0  0  0
  187.5100  178.1540  137.8240 C   0  0  0  0  0  3  0  0  0  0  0  0
  182.6640  176.4700  139.0530 N   0  0  0  0  0  2  0  0  0  0  0  0
  183.0790  179.4400  144.1150 C   0  0  1  0  0  3  0  0  0  0  0  0
  184.0520  178.4130  143.6050 C   0  0  1  0  0  3  0  0  0  0  0  0
  187.1470  178.3200  139.2380 C   0  0  0  0  0  0  0  0  0  0  0  0
  183.9520  179.1800  141.3810 C   0  0  2  0  0  3  0  0  0  0  0  0
  184.7590  176.7550  137.9660 C   0  0  0  0  0  0  0  0  0  0  0  0
  187.5710  177.7940  142.2050 C   0  0  1  0  0  3  0  0  0  0  0  0
  182.7180  176.2370  136.6310 C   0  0  0  0  0  1  0  0  0  0  0  0
  183.8370  179.7110  142.8180 C   0  0  1  0  0  3  0  0  0  0  0  0
  181.4290  177.6190  143.9370 O   0  0  0  0  0  1  0  0  0  0  0  0
  183.0550  177.9850  140.9680 C   0  0  1  0  0  3  0  0  0  0  0  0
  188.2360  178.9390  141.4590 C   0  0  0  0  0  2  0  0  0  0  0  0
  189.5630  176.8680  143.4680 C   0  0  0  0  0  3  0  0  0  0  0  0
  188.2740  177.4220  143.4800 C   0  0  0  0  0  0  0  0  0  0  0  0
  187.6400  177.6690  144.7020 C   0  0  0  0  0  3  0  0  0  0  0  0
  187.4820  177.6630  147.4280 Cl  0  0  0  0  0  0  0  0  0  0  0  0
  189.5630  176.7970  145.8870 C   0  0  0  0  0  3  0  0  0  0  0  0
  188.2820  177.3540  145.9030 C   0  0  0  0  0  0  0  0  0  0  0  0
  190.2050  176.5540  144.6690 C   0  0  0  0  0  3  0  0  0  0  0  0
  180.6050  180.4500  139.2170 C   0  0  0  0  0  1  0  0  0  0  0  0
  180.1020  179.6890  140.4280 C   0  0  0  0  0  2  0  0  0  0  0  0
  1  4  1  0  0  0  0
  2 22  1  0  0  0  0
  2 14  1  0  0  0  0
  2 17  1  0  0  0  0
  4 37  1  6  0  0  0
  4 12  1  0  0  0  0
  6 22  2  0  0  0  0
  7  3  1  6  0  0  0
  7 21  1  0  0  0  0
  7 10  1  0  0  0  0
  8 26  1  6  0  0  0
  8 18  1  0  0  0  0
  9 13  1  0  0  0  0
  9  3  2  0  0  0  0
 10  5  1  1  0  0  0
 11  6  1  0  0  0  0
 11 16  2  0  0  0  0
 12  8  1  0  0  0  0
 13 17  1  1  0  0  0
 13 27  1  0  0  0  0
 15 28  1  0  0  0  0
 16 20  1  0  0  0  0
 19  5  1  0  0  0  0
 19 18  1  0  0  0  0
 20  3  1  0  0  0  0
 20 15  2  0  0  0  0
 21 25  1  0  0  0  0
 22  9  1  0  0  0  0
 23 10  1  0  0  0  0
 23 30  1  0  0  0  0
 24  2  1  0  0  0  0
 25 19  1  0  0  0  0
 25 18  1  0  0  0  0
 27  1  1  0  0  0  0
 27 21  1  0  0  0  0
 28 23  1  0  0  0  0
 29 30  2  0  0  0  0
 29 35  1  0  0  0  0
 30 31  1  0  0  0  0
 31 34  2  0  0  0  0
 33 34  1  0  0  0  0
 34 32  1  0  0  0  0
 35 33  2  0  0  0  0
 36 37  1  0  0  0  0
M  END
>  <MODEL>
3

>  <REMARK>
 VINA RESULT:      -7.8      1.826      3.112
  Name = 
  2 active torsions:
  status: ('A' for Active; 'I' for Inactive)
    1  A    between atoms: C_5  and  C_23
    2  A    between atoms: C_6  and  C_31
                            x       y       z     vdW  Elec       q    Type
                         _______ _______ _______ _____ _____    ______ ____

>  <TORSDO>
F 2

$$$$
=
 OpenBabel10272414463D

 37 44  0  0  1  0  0  0  0  0999 V2000
  191.3770  176.0780  139.2110 O   0  0  0  0  0  0  0  0  0  0  0  0
  188.8600  177.0310  142.5890 C   0  0  0  0  0  0  0  0  0  0  0  0
  187.3880  177.7900  139.2920 C   0  0  0  0  0  0  0  0  0  0  0  0
  192.1330  176.9140  138.3680 C   0  0  2  0  0  3  0  0  0  0  0  0
  187.9020  175.2910  136.2840 C   0  0  0  0  0  2  0  0  0  0  0  0
  186.8550  178.4760  142.3570 C   0  0  0  0  0  3  0  0  0  0  0  0
  187.9200  177.2580  137.9640 C   0  0  2  0  0  3  0  0  0  0  0  0
  191.8670  174.9890  136.6510 C   0  0  2  0  0  3  0  0  0  0  0  0
  188.1710  177.6640  140.3910 C   0  0  2  0  0  3  0  0  0  0  0  0
  187.2070  175.9340  137.5120 C   0  0  1  0  0  3  0  0  0  0  0  0
  185.8630  179.3040  141.6790 C   0  0  0  0  0  3  0  0  0  0  0  0
  192.7540  176.1080  137.2230 C   0  0  0  0  0  2  0  0  0  0  0  0
  189.6040  177.2370  140.3810 C   0  0  1  0  0  3  0  0  0  0  0  0
  188.2440  175.8690  143.3460 C   0  0  0  0  0  1  0  0  0  0  0  0
  185.1280  178.2940  138.3160 C   0  0  0  0  0  2  0  0  0  0  0  0
  185.5140  179.2670  140.3990 C   0  0  0  0  0  3  0  0  0  0  0  0
  189.8450  176.5180  141.6320 N   0  0  0  0  0  2  0  0  0  0  0  0
  190.5760  175.3900  135.9050 C   0  0  1  0  0  3  0  0  0  0  0  0
  189.3380  175.1170  136.7130 C   0  0  1  0  0  3  0  0  0  0  0  0
  186.0100  178.3970  139.3240 C   0  0  0  0  0  0  0  0  0  0  0  0
  189.4670  177.1420  137.9050 C   0  0  2  0  0  3  0  0  0  0  0  0
  187.8180  177.7520  141.7920 C   0  0  0  0  0  0  0  0  0  0  0  0
  185.6850  176.0990  137.3550 C   0  0  1  0  0  3  0  0  0  0  0  0
  189.5550  177.9660  143.5670 C   0  0  0  0  0  1  0  0  0  0  0  0
  189.8200  176.5600  136.5280 C   0  0  1  0  0  3  0  0  0  0  0  0
  191.6880  173.9360  137.5530 O   0  0  0  0  0  1  0  0  0  0  0  0
  189.9960  176.4120  139.1660 C   0  0  1  0  0  3  0  0  0  0  0  0
  185.2820  177.5300  137.0390 C   0  0  0  0  0  2  0  0  0  0  0  0
  184.7080  175.3510  135.1410 C   0  0  0  0  0  3  0  0  0  0  0  0
  185.0060  175.0800  136.4850 C   0  0  0  0  0  0  0  0  0  0  0  0
  184.7010  173.8240  137.0210 C   0  0  0  0  0  3  0  0  0  0  0  0
  183.7120  171.2820  136.9020 Cl  0  0  0  0  0  0  0  0  0  0  0  0
  183.7910  173.1250  134.8890 C   0  0  0  0  0  3  0  0  0  0  0  0
  184.0920  172.8500  136.2250 C   0  0  0  0  0  0  0  0  0  0  0  0
  184.0990  174.3760  134.3460 C   0  0  0  0  0  3  0  0  0  0  0  0
  193.1000  177.2880  140.6340 C   0  0  0  0  0  1  0  0  0  0  0  0
  193.2390  177.5950  139.1550 C   0  0  0  0  0  2  0  0  0  0  0  0
  2 14  1  0  0  0  0
  2 24  1  0  0  0  0
  3 20  2  0  0  0  0
  4 37  1  1  0  0  0
  4  1  1  0  0  0  0
  5 19  1  0  0  0  0
  7  3  1  1  0  0  0
  8 12  1  0  0  0  0
  8 26  1  1  0  0  0
  9  3  1  6  0  0  0
  9 22  1  0  0  0  0
 10  5  1  6  0  0  0
 10  7  1  0  0  0  0
 11  6  1  0  0  0  0
 12  4  1  0  0  0  0
 13  9  1  0  0  0  0
 13 17  1  1  0  0  0
 15 20  1  0  0  0  0
 16 11  2  0  0  0  0
 17  2  1  0  0  0  0
 18 25  1  0  0  0  0
 18  8  1  0  0  0  0
 18 19  1  0  0  0  0
 20 16  1  0  0  0  0
 21  7  1  0  0  0  0
 21 27  1  0  0  0  0
 22  6  2  0  0  0  0
 22  2  1  0  0  0  0
 23 10  1  0  0  0  0
 25 19  1  0  0  0  0
 25 21  1  0  0  0  0
 27  1  1  0  0  0  0
 27 13  1  0  0  0  0
 28 23  1  0  0  0  0
 28 15  1  0  0  0  0
 29 30  1  0  0  0  0
 30 31  2  0  0  0  0
 30 23  1  0  0  0  0
 33 34  2  0  0  0  0
 34 32  1  0  0  0  0
 34 31  1  0  0  0  0
 35 33  1  0  0  0  0
 35 29  2  0  0  0  0
 37 36  1  0  0  0  0
M  END
>  <MODEL>
4

>  <REMARK>
 VINA RESULT:      -7.8      3.982      8.377
  Name = 
  2 active torsions:
  status: ('A' for Active; 'I' for Inactive)
    1  A    between atoms: C_5  and  C_23
    2  A    between atoms: C_6  and  C_31
                            x       y       z     vdW  Elec       q    Type
                         _______ _______ _______ _____ _____    ______ ____

>  <TORSDO>
F 2

$$$$
=
 OpenBabel10272414463D

 37 44  0  0  1  0  0  0  0  0999 V2000
  182.3950  177.9670  140.9100 O   0  0  0  0  0  0  0  0  0  0  0  0
  183.6480  175.7060  137.4500 C   0  0  0  0  0  0  0  0  0  0  0  0
  186.1790  178.0360  138.7820 C   0  0  0  0  0  0  0  0  0  0  0  0
  182.0020  179.3130  141.0300 C   0  0  2  0  0  3  0  0  0  0  0  0
  186.6270  178.4390  142.6800 C   0  0  0  0  0  2  0  0  0  0  0  0
  185.6640  176.3290  136.1420 C   0  0  0  0  0  3  0  0  0  0  0  0
  186.1110  178.6930  140.1580 C   0  0  2  0  0  3  0  0  0  0  0  0
  182.7660  179.0470  143.4940 C   0  0  2  0  0  3  0  0  0  0  0  0
  185.0650  177.4260  138.3090 C   0  0  2  0  0  3  0  0  0  0  0  0
  186.8860  177.8830  141.2560 C   0  0  1  0  0  3  0  0  0  0  0  0
  186.8570  177.0920  135.7880 C   0  0  0  0  0  3  0  0  0  0  0  0
  181.7790  179.6810  142.5000 C   0  0  0  0  0  2  0  0  0  0  0  0
  183.7060  177.5200  138.9260 C   0  0  1  0  0  3  0  0  0  0  0  0
  183.9280  174.2280  137.6500 C   0  0  0  0  0  1  0  0  0  0  0  0
  188.6530  178.4320  138.5890 C   0  0  0  0  0  2  0  0  0  0  0  0
  187.6180  177.8250  136.5900 C   0  0  0  0  0  3  0  0  0  0  0  0
  183.0290  176.2500  138.6620 N   0  0  0  0  0  2  0  0  0  0  0  0
  184.2460  179.4770  143.4280 C   0  0  1  0  0  3  0  0  0  0  0  0
  185.1260  178.4170  142.8250 C   0  0  1  0  0  3  0  0  0  0  0  0
  187.4850  178.0680  138.0330 C   0  0  0  0  0  0  0  0  0  0  0  0
  184.6730  179.0660  140.6080 C   0  0  2  0  0  3  0  0  0  0  0  0
  184.9250  176.4590  137.2410 C   0  0  0  0  0  0  0  0  0  0  0  0
  188.3770  177.6940  140.9180 C   0  0  1  0  0  3  0  0  0  0  0  0
  182.6970  175.8900  136.2770 C   0  0  0  0  0  1  0  0  0  0  0  0
  184.7880  179.6730  142.0150 C   0  0  1  0  0  3  0  0  0  0  0  0
  182.5890  177.6640  143.6120 O   0  0  0  0  0  1  0  0  0  0  0  0
  183.7210  177.8600  140.4070 C   0  0  1  0  0  3  0  0  0  0  0  0
  188.9150  178.7930  140.0170 C   0  0  0  0  0  2  0  0  0  0  0  0
  189.3720  176.0820  142.6010 C   0  0  0  0  0  3  0  0  0  0  0  0
  189.2730  177.3830  142.0830 C   0  0  0  0  0  0  0  0  0  0  0  0
  190.0520  178.4070  142.6340 C   0  0  0  0  0  3  0  0  0  0  0  0
  191.8800  179.4240  144.3880 Cl  0  0  0  0  0  0  0  0  0  0  0  0
  191.0030  176.8430  144.2200 C   0  0  0  0  0  3  0  0  0  0  0  0
  190.9120  178.1380  143.7020 C   0  0  0  0  0  0  0  0  0  0  0  0
  190.2320  175.8140  143.6690 C   0  0  0  0  0  3  0  0  0  0  0  0
  180.9070  180.7020  139.2760 C   0  0  0  0  0  1  0  0  0  0  0  0
  180.7200  179.5590  140.2540 C   0  0  0  0  0  2  0  0  0  0  0  0
  1  4  1  0  0  0  0
  2 14  1  0  0  0  0
  2 17  1  0  0  0  0
  4 37  1  6  0  0  0
  4 12  1  0  0  0  0
  5 19  1  0  0  0  0
  6 22  2  0  0  0  0
  7  3  1  6  0  0  0
  7 21  1  0  0  0  0
  7 10  1  0  0  0  0
  8 26  1  6  0  0  0
  9 22  1  1  0  0  0
  9  3  1  0  0  0  0
  9 13  1  0  0  0  0
 10  5  1  1  0  0  0
 11  6  1  0  0  0  0
 11 16  2  0  0  0  0
 12  8  1  0  0  0  0
 13 17  1  1  0  0  0
 13 27  1  0  0  0  0
 15 28  1  0  0  0  0
 16 20  1  0  0  0  0
 18  8  1  0  0  0  0
 19 18  1  0  0  0  0
 20 15  1  0  0  0  0
 20  3  2  0  0  0  0
 21 25  1  0  0  0  0
 22  2  1  0  0  0  0
 23 10  1  0  0  0  0
 23 30  1  0  0  0  0
 24  2  1  0  0  0  0
 25 19  1  0  0  0  0
 25 18  1  0  0  0  0
 27 21  1  0  0  0  0
 27  1  1  0  0  0  0
 28 23  1  0  0  0  0
 29 35  1  0  0  0  0
 30 29  2  0  0  0  0
 30 31  1  0  0  0  0
 31 34  2  0  0  0  0
 34 33  1  0  0  0  0
 34 32  1  0  0  0  0
 35 33  2  0  0  0  0
 36 37  1  0  0  0  0
M  END
>  <MODEL>
5

>  <REMARK>
 VINA RESULT:      -6.9      2.121      3.323
  Name = 
  2 active torsions:
  status: ('A' for Active; 'I' for Inactive)
    1  A    between atoms: C_5  and  C_23
    2  A    between atoms: C_6  and  C_31
                            x       y       z     vdW  Elec       q    Type
                         _______ _______ _______ _____ _____    ______ ____

>  <TORSDO>
F 2

$$$$
=
 OpenBabel10272414463D

 37 44  0  0  1  0  0  0  0  0999 V2000
  190.8560  176.3500  140.0510 O   0  0  0  0  0  0  0  0  0  0  0  0
  188.2390  176.6870  143.4700 C   0  0  0  0  0  0  0  0  0  0  0  0
  186.9840  178.2840  140.3900 C   0  0  0  0  0  0  0  0  0  0  0  0
  191.7030  177.2990  139.4500 C   0  0  2  0  0  3  0  0  0  0  0  0
  187.4880  176.5080  136.9050 C   0  0  0  0  0  2  0  0  0  0  0  0
  186.3430  178.2890  143.5110 C   0  0  0  0  0  3  0  0  0  0  0  0
  187.5460  178.0320  138.9940 C   0  0  2  0  0  3  0  0  0  0  0  0
  191.4020  175.8420  137.3260 C   0  0  2  0  0  3  0  0  0  0  0  0
  187.7020  177.8540  141.4560 C   0  0  2  0  0  3  0  0  0  0  0  0
  186.7750  176.9030  138.2240 C   0  0  1  0  0  3  0  0  0  0  0  0
  185.4400  179.3210  143.0100 C   0  0  0  0  0  3  0  0  0  0  0  0
  192.3280  176.7330  138.1720 C   0  0  0  0  0  2  0  0  0  0  0  0
  189.1030  177.3370  141.3960 C   0  0  1  0  0  3  0  0  0  0  0  0
  187.5130  175.4310  143.9160 C   0  0  0  0  0  1  0  0  0  0  0  0
  184.8110  179.1620  139.4810 C   0  0  0  0  0  2  0  0  0  0  0  0
  185.1530  179.6020  141.7450 C   0  0  0  0  0  3  0  0  0  0  0  0
  189.2350  176.3360  142.4540 N   0  0  0  0  0  2  0  0  0  0  0  0
  190.1780  176.4960  136.6500 C   0  0  1  0  0  3  0  0  0  0  0  0
  188.8860  176.1360  137.3300 C   0  0  1  0  0  3  0  0  0  0  0  0
  185.6470  178.9660  140.5160 C   0  0  0  0  0  0  0  0  0  0  0  0
  189.0840  177.8210  138.9630 C   0  0  2  0  0  3  0  0  0  0  0  0
  187.2850  177.6450  142.8260 C   0  0  0  0  0  0  0  0  0  0  0  0
  185.2750  177.2100  138.0580 C   0  0  1  0  0  3  0  0  0  0  0  0
  188.9420  177.3200  144.6610 C   0  0  0  0  0  1  0  0  0  0  0  0
  189.4670  177.5450  137.5010 C   0  0  1  0  0  3  0  0  0  0  0  0
  191.1120  174.6260  137.9540 O   0  0  0  0  0  1  0  0  0  0  0  0
  189.5020  176.7860  140.0380 C   0  0  1  0  0  3  0  0  0  0  0  0
  184.9800  178.7000  138.0680 C   0  0  0  0  0  2  0  0  0  0  0  0
  184.2060  177.1130  135.7640 C   0  0  0  0  0  3  0  0  0  0  0  0
  184.5770  176.4690  136.9540 C   0  0  0  0  0  0  0  0  0  0  0  0
  184.3290  175.1000  137.1050 C   0  0  0  0  0  3  0  0  0  0  0  0
  183.3940  172.6710  136.2780 Cl  0  0  0  0  0  0  0  0  0  0  0  0
  183.3290  175.0280  134.9000 C   0  0  0  0  0  3  0  0  0  0  0  0
  183.7040  174.3820  136.0810 C   0  0  0  0  0  0  0  0  0  0  0  0
  183.5810  176.3940  134.7410 C   0  0  0  0  0  3  0  0  0  0  0  0
  194.0680  176.9030  140.1270 C   0  0  0  0  0  1  0  0  0  0  0  0
  192.8090  177.7000  140.4100 C   0  0  0  0  0  2  0  0  0  0  0  0
  2 14  1  0  0  0  0
  2 24  1  0  0  0  0
  3 20  2  0  0  0  0
  4  1  1  0  0  0  0
  4 37  1  1  0  0  0
  5 19  1  0  0  0  0
  7  3  1  1  0  0  0
  8 26  1  1  0  0  0
  8 12  1  0  0  0  0
  9  3  1  6  0  0  0
  9 22  1  0  0  0  0
 10  5  1  6  0  0  0
 10  7  1  0  0  0  0
 11  6  1  0  0  0  0
 12  4  1  0  0  0  0
 13  9  1  0  0  0  0
 13 17  1  1  0  0  0
 15 20  1  0  0  0  0
 16 11  2  0  0  0  0
 17  2  1  0  0  0  0
 18  8  1  0  0  0  0
 18 19  1  0  0  0  0
 18 25  1  0  0  0  0
 19 25  1  0  0  0  0
 20 16  1  0  0  0  0
 21  7  1  0  0  0  0
 21 27  1  0  0  0  0
 22  2  1  0  0  0  0
 22  6  2  0  0  0  0
 23 28  1  0  0  0  0
 23 10  1  0  0  0  0
 25 21  1  0  0  0  0
 27  1  1  0  0  0  0
 27 13  1  0  0  0  0
 28 15  1  0  0  0  0
 29 30  1  0  0  0  0
 30 31  2  0  0  0  0
 30 23  1  0  0  0  0
 33 34  2  0  0  0  0
 34 32  1  0  0  0  0
 34 31  1  0  0  0  0
 35 33  1  0  0  0  0
 35 29  2  0  0  0  0
 36 37  1  0  0  0  0
M  END
>  <MODEL>
6

>  <REMARK>
 VINA RESULT:      -6.7      3.752      8.157
  Name = 
  2 active torsions:
  status: ('A' for Active; 'I' for Inactive)
    1  A    between atoms: C_5  and  C_23
    2  A    between atoms: C_6  and  C_31
                            x       y       z     vdW  Elec       q    Type
                         _______ _______ _______ _____ _____    ______ ____

>  <TORSDO>
F 2

$$$$
=
 OpenBabel10272414463D

 37 44  0  0  1  0  0  0  0  0999 V2000
  185.7730  177.1090  138.3910 O   0  0  0  0  0  0  0  0  0  0  0  0
  188.6470  174.2990  136.8110 C   0  0  0  0  0  0  0  0  0  0  0  0
  190.0620  176.8880  139.0270 C   0  0  0  0  0  0  0  0  0  0  0  0
  185.5090  178.4450  138.0370 C   0  0  2  0  0  3  0  0  0  0  0  0
  188.1060  177.9860  142.2710 C   0  0  0  0  0  2  0  0  0  0  0  0
  191.0890  174.7260  136.9230 C   0  0  0  0  0  3  0  0  0  0  0  0
  189.2390  177.7770  139.9540 C   0  0  2  0  0  3  0  0  0  0  0  0
  184.6070  178.6390  140.4610 C   0  0  2  0  0  3  0  0  0  0  0  0
  189.4080  176.1770  138.0750 C   0  0  0  0  0  0  0  0  0  0  0  0
  189.1190  177.1920  141.4060 C   0  0  1  0  0  3  0  0  0  0  0  0
  192.3180  175.4420  137.2550 C   0  0  0  0  0  3  0  0  0  0  0  0
  184.4800  179.0640  138.9880 C   0  0  0  0  0  2  0  0  0  0  0  0
  187.9670  176.3470  137.7140 C   0  0  1  0  0  3  0  0  0  0  0  0
  188.6150  172.8870  137.3660 C   0  0  0  0  0  1  0  0  0  0  0  0
  192.1770  177.3000  140.3200 C   0  0  0  0  0  3  0  0  0  0  0  0
  192.5050  176.3230  138.2290 C   0  0  0  0  0  3  0  0  0  0  0  0
  187.4750  175.0360  137.2940 N   0  0  0  0  0  2  0  0  0  0  0  0
  185.8600  179.0840  141.2440 C   0  0  1  0  0  3  0  0  0  0  0  0
  186.8260  177.9550  141.4740 C   0  0  1  0  0  3  0  0  0  0  0  0
  191.5520  176.8160  139.2330 C   0  0  0  0  0  0  0  0  0  0  0  0
  187.8600  178.1900  139.3720 C   0  0  2  0  0  3  0  0  0  0  0  0
  189.8530  175.0330  137.3090 C   0  0  0  0  0  0  0  0  0  0  0  0
  190.4880  176.9810  142.0800 C   0  0  1  0  0  3  0  0  0  0  0  0
  188.6150  174.2500  135.2910 C   0  0  0  0  0  1  0  0  0  0  0  0
  187.1590  179.0400  140.4430 C   0  0  1  0  0  3  0  0  0  0  0  0
  184.2720  177.2950  140.6600 O   0  0  0  0  0  1  0  0  0  0  0  0
  187.1180  176.9450  138.8230 C   0  0  1  0  0  3  0  0  0  0  0  0
  191.5560  177.9140  141.5350 C   0  0  0  0  0  2  0  0  0  0  0  0
  191.6200  176.5590  144.3070 C   0  0  0  0  0  3  0  0  0  0  0  0
  190.4700  176.9020  143.5800 C   0  0  0  0  0  0  0  0  0  0  0  0
  189.2890  177.2150  144.2620 C   0  0  0  0  0  3  0  0  0  0  0  0
  187.7720  177.5640  146.5060 Cl  0  0  0  0  0  0  0  0  0  0  0  0
  190.3980  176.8250  146.3790 C   0  0  0  0  0  3  0  0  0  0  0  0
  189.2530  177.1740  145.6590 C   0  0  0  0  0  0  0  0  0  0  0  0
  191.5830  176.5180  145.7030 C   0  0  0  0  0  3  0  0  0  0  0  0
  184.5620  177.1430  136.1350 C   0  0  0  0  0  1  0  0  0  0  0  0
  184.9820  178.5190  136.6150 C   0  0  0  0  0  2  0  0  0  0  0  0
  1 27  1  0  0  0  0
  2 17  1  0  0  0  0
  2 22  1  0  0  0  0
  2 14  1  0  0  0  0
  3 20  1  0  0  0  0
  4 37  1  6  0  0  0
  4  1  1  0  0  0  0
  4 12  1  0  0  0  0
  6 11  1  0  0  0  0
  6 22  2  0  0  0  0
  7  3  1  6  0  0  0
  7 10  1  0  0  0  0
  8 26  1  6  0  0  0
  8 18  1  0  0  0  0
  9  3  2  0  0  0  0
 10 23  1  0  0  0  0
 10  5  1  1  0  0  0
 11 16  2  0  0  0  0
 12  8  1  0  0  0  0
 13 17  1  1  0  0  0
 13  9  1  0  0  0  0
 13 27  1  0  0  0  0
 15 28  1  0  0  0  0
 16 20  1  0  0  0  0
 18 19  1  0  0  0  0
 19  5  1  0  0  0  0
 20 15  2  0  0  0  0
 21  7  1  0  0  0  0
 21 25  1  0  0  0  0
 22  9  1  0  0  0  0
 23 30  1  0  0  0  0
 24  2  1  0  0  0  0
 25 18  1  0  0  0  0
 25 19  1  0  0  0  0
 27 21  1  0  0  0  0
 28 23  1  0  0  0  0
 29 35  1  0  0  0  0
 30 31  1  0  0  0  0
 30 29  2  0  0  0  0
 31 34  2  0  0  0  0
 34 33  1  0  0  0  0
 34 32  1  0  0  0  0
 35 33  2  0  0  0  0
 36 37  1  0  0  0  0
M  END
>  <MODEL>
7

>  <REMARK>
 VINA RESULT:      -6.6      2.352      3.714
  Name = 
  2 active torsions:
  status: ('A' for Active; 'I' for Inactive)
    1  A    between atoms: C_5  and  C_23
    2  A    between atoms: C_6  and  C_31
                            x       y       z     vdW  Elec       q    Type
                         _______ _______ _______ _____ _____    ______ ____

>  <TORSDO>
F 2

$$$$
=
 OpenBabel10272414463D

 37 44  0  0  1  0  0  0  0  0999 V2000
  182.6920  177.6060  140.3370 O   0  0  0  0  0  0  0  0  0  0  0  0
  183.6870  174.9930  137.0440 C   0  0  0  0  0  0  0  0  0  0  0  0
  186.1850  177.6130  137.7590 C   0  0  0  0  0  0  0  0  0  0  0  0
  182.2210  178.9320  140.3430 C   0  0  2  0  0  3  0  0  0  0  0  0
  187.0590  178.5350  141.4920 C   0  0  0  0  0  2  0  0  0  0  0  0
  185.4860  175.5550  135.4290 C   0  0  0  0  0  3  0  0  0  0  0  0
  186.2330  178.4360  139.0430 C   0  0  2  0  0  3  0  0  0  0  0  0
  183.2860  179.0260  142.7050 C   0  0  2  0  0  3  0  0  0  0  0  0
  185.0690  176.8860  137.5060 C   0  0  2  0  0  3  0  0  0  0  0  0
  187.1870  177.8170  140.1240 C   0  0  1  0  0  3  0  0  0  0  0  0
  186.5720  176.3310  134.8380 C   0  0  0  0  0  3  0  0  0  0  0  0
  182.1460  179.4720  141.7730 C   0  0  0  0  0  2  0  0  0  0  0  0
  183.7890  176.9820  138.2720 C   0  0  1  0  0  3  0  0  0  0  0  0
  184.0920  173.5710  137.3840 C   0  0  0  0  0  1  0  0  0  0  0  0
  188.5850  178.1180  137.2100 C   0  0  0  0  0  2  0  0  0  0  0  0
  187.3680  177.2020  135.4450 C   0  0  0  0  0  3  0  0  0  0  0  0
  183.1780  175.6530  138.2500 N   0  0  0  0  0  2  0  0  0  0  0  0
  184.7150  179.5260  142.4030 C   0  0  1  0  0  3  0  0  0  0  0  0
  185.5900  178.4480  141.8260 C   0  0  1  0  0  3  0  0  0  0  0  0
  187.3890  177.6210  136.8530 C   0  0  0  0  0  0  0  0  0  0  0  0
  184.8350  178.7830  139.6220 C   0  0  2  0  0  3  0  0  0  0  0  0
  184.8730  175.7840  136.5880 C   0  0  0  0  0  0  0  0  0  0  0  0
  188.6370  177.6700  139.6280 C   0  0  1  0  0  3  0  0  0  0  0  0
  182.5940  174.9730  135.9870 C   0  0  0  0  0  1  0  0  0  0  0  0
  185.0710  179.5700  140.9190 C   0  0  1  0  0  3  0  0  0  0  0  0
  183.2230  177.6630  143.0100 O   0  0  0  0  0  1  0  0  0  0  0  0
  183.9540  177.5090  139.6880 C   0  0  1  0  0  3  0  0  0  0  0  0
  188.9860  178.6720  138.5400 C   0  0  0  0  0  2  0  0  0  0  0  0
  191.0360  177.3610  140.3820 C   0  0  0  0  0  3  0  0  0  0  0  0
  189.6840  177.5600  140.6990 C   0  0  0  0  0  0  0  0  0  0  0  0
  189.3030  177.6980  142.0390 C   0  0  0  0  0  3  0  0  0  0  0  0
  189.7760  177.7960  144.7260 Cl  0  0  0  0  0  0  0  0  0  0  0  0
  191.6060  177.4200  142.7340 C   0  0  0  0  0  3  0  0  0  0  0  0
  190.2610  177.6250  143.0540 C   0  0  0  0  0  0  0  0  0  0  0  0
  191.9940  177.2890  141.3970 C   0  0  0  0  0  3  0  0  0  0  0  0
  180.9580  179.2960  138.2260 C   0  0  0  0  0  1  0  0  0  0  0  0
  180.8430  179.0040  139.7100 C   0  0  0  0  0  2  0  0  0  0  0  0
  1  4  1  0  0  0  0
  2 14  1  0  0  0  0
  2 17  1  0  0  0  0
  4 37  1  1  0  0  0
  4 12  1  0  0  0  0
  5 19  1  0  0  0  0
  6 22  2  0  0  0  0
  7  3  1  6  0  0  0
  7 21  1  0  0  0  0
  7 10  1  0  0  0  0
  8 26  1  6  0  0  0
  9 22  1  1  0  0  0
  9  3  1  0  0  0  0
  9 13  1  0  0  0  0
 10  5  1  1  0  0  0
 11  6  1  0  0  0  0
 11 16  2  0  0  0  0
 12  8  1  0  0  0  0
 13 17  1  1  0  0  0
 13 27  1  0  0  0  0
 15 28  1  0  0  0  0
 16 20  1  0  0  0  0
 18  8  1  0  0  0  0
 19 18  1  0  0  0  0
 20 15  1  0  0  0  0
 20  3  2  0  0  0  0
 21 27  1  0  0  0  0
 21 25  1  0  0  0  0
 22  2  1  0  0  0  0
 23 10  1  0  0  0  0
 23 30  1  0  0  0  0
 24  2  1  0  0  0  0
 25 19  1  0  0  0  0
 25 18  1  0  0  0  0
 27  1  1  0  0  0  0
 28 23  1  0  0  0  0
 29 30  2  0  0  0  0
 29 35  1  0  0  0  0
 30 31  1  0  0  0  0
 31 34  2  0  0  0  0
 33 34  1  0  0  0  0
 34 32  1  0  0  0  0
 35 33  2  0  0  0  0
 36 37  1  0  0  0  0
M  END
>  <MODEL>
8

>  <REMARK>
 VINA RESULT:      -6.3      1.937      3.497
  Name = 
  2 active torsions:
  status: ('A' for Active; 'I' for Inactive)
    1  A    between atoms: C_5  and  C_23
    2  A    between atoms: C_6  and  C_31
                            x       y       z     vdW  Elec       q    Type
                         _______ _______ _______ _____ _____    ______ ____

>  <TORSDO>
F 2

$$$$
=
 OpenBabel10272414463D

 37 44  0  0  1  0  0  0  0  0999 V2000
  182.7960  177.6680  141.0030 O   0  0  0  0  0  0  0  0  0  0  0  0
  182.3800  175.1030  137.5540 C   0  0  0  0  0  0  0  0  0  0  0  0
  185.0660  177.6200  137.3020 C   0  0  0  0  0  0  0  0  0  0  0  0
  182.4150  179.0080  141.1980 C   0  0  2  0  0  3  0  0  0  0  0  0
  187.3110  178.4240  140.4440 C   0  0  0  0  0  2  0  0  0  0  0  0
  183.4630  175.6420  135.3860 C   0  0  0  0  0  3  0  0  0  0  0  0
  185.6240  178.4100  138.4820 C   0  0  2  0  0  3  0  0  0  0  0  0
  184.2910  179.0110  142.9890 C   0  0  2  0  0  3  0  0  0  0  0  0
  183.9090  176.9370  137.4800 C   0  0  2  0  0  3  0  0  0  0  0  0
  186.8890  177.7340  139.1210 C   0  0  1  0  0  3  0  0  0  0  0  0
  184.2780  176.3960  134.4390 C   0  0  0  0  0  3  0  0  0  0  0  0
  182.9040  179.5170  142.5580 C   0  0  0  0  0  2  0  0  0  0  0  0
  183.0140  177.0570  138.6720 C   0  0  1  0  0  3  0  0  0  0  0  0
  182.8260  173.6600  137.7030 C   0  0  0  0  0  1  0  0  0  0  0  0
  187.1030  178.0580  135.8980 C   0  0  0  0  0  2  0  0  0  0  0  0
  185.2780  177.2250  134.7100 C   0  0  0  0  0  3  0  0  0  0  0  0
  182.3870  175.7500  138.8690 N   0  0  0  0  0  2  0  0  0  0  0  0
  185.5210  179.4710  142.1770 C   0  0  1  0  0  3  0  0  0  0  0  0
  186.0720  178.3780  141.3040 C   0  0  1  0  0  3  0  0  0  0  0  0
  185.8410  177.6090  136.0110 C   0  0  0  0  0  0  0  0  0  0  0  0
  184.5600  178.7890  139.5470 C   0  0  2  0  0  3  0  0  0  0  0  0
  183.3390  175.8640  136.6930 C   0  0  0  0  0  0  0  0  0  0  0  0
  188.0400  177.5510  138.1150 C   0  0  1  0  0  3  0  0  0  0  0  0
  180.9700  175.1440  136.9840 C   0  0  0  0  0  1  0  0  0  0  0  0
  185.2970  179.5380  140.6690 C   0  0  1  0  0  3  0  0  0  0  0  0
  184.2930  177.6440  143.2820 O   0  0  0  0  0  1  0  0  0  0  0  0
  183.7180  177.5450  139.9280 C   0  0  1  0  0  3  0  0  0  0  0  0
  187.9950  178.5660  136.9850 C   0  0  0  0  0  2  0  0  0  0  0  0
  189.6130  177.4740  140.0990 C   0  0  0  0  0  3  0  0  0  0  0  0
  189.4070  177.3810  138.7140 C   0  0  0  0  0  0  0  0  0  0  0  0
  190.4860  177.0880  137.8730 C   0  0  0  0  0  3  0  0  0  0  0  0
  193.1090  176.5380  137.3500 Cl  0  0  0  0  0  0  0  0  0  0  0  0
  191.9670  177.0020  139.7870 C   0  0  0  0  0  3  0  0  0  0  0  0
  191.7640  176.9010  138.4080 C   0  0  0  0  0  0  0  0  0  0  0  0
  190.8910  177.2880  140.6330 C   0  0  0  0  0  3  0  0  0  0  0  0
  180.3380  179.4440  142.5040 C   0  0  0  0  0  1  0  0  0  0  0  0
  180.9040  179.1420  141.1300 C   0  0  0  0  0  2  0  0  0  0  0  0
  1  4  1  0  0  0  0
  2 14  1  0  0  0  0
  2 17  1  0  0  0  0
  3  9  1  0  0  0  0
  4 37  1  1  0  0  0
  4 12  1  0  0  0  0
  5 19  1  0  0  0  0
  6 22  2  0  0  0  0
  7  3  1  6  0  0  0
  7 10  1  0  0  0  0
  7 21  1  0  0  0  0
  8 26  1  6  0  0  0
  9 22  1  1  0  0  0
  9 13  1  0  0  0  0
 10  5  1  1  0  0  0
 11 16  2  0  0  0  0
 11  6  1  0  0  0  0
 12  8  1  0  0  0  0
 13 17  1  1  0  0  0
 13 27  1  0  0  0  0
 15 20  1  0  0  0  0
 15 28  1  0  0  0  0
 16 20  1  0  0  0  0
 18  8  1  0  0  0  0
 19 18  1  0  0  0  0
 20  3  2  0  0  0  0
 21 27  1  0  0  0  0
 21 25  1  0  0  0  0
 22  2  1  0  0  0  0
 23 30  1  0  0  0  0
 23 10  1  0  0  0  0
 24  2  1  0  0  0  0
 25 19  1  0  0  0  0
 25 18  1  0  0  0  0
 27  1  1  0  0  0  0
 28 23  1  0  0  0  0
 29 35  1  0  0  0  0
 30 29  2  0  0  0  0
 31 34  2  0  0  0  0
 31 30  1  0  0  0  0
 32 34  1  0  0  0  0
 33 35  2  0  0  0  0
 34 33  1  0  0  0  0
 37 36  1  0  0  0  0
M  END
>  <MODEL>
9

>  <REMARK>
 VINA RESULT:      -5.7      2.810      5.029
  Name = 
  2 active torsions:
  status: ('A' for Active; 'I' for Inactive)
    1  A    between atoms: C_5  and  C_23
    2  A    between atoms: C_6  and  C_31
                            x       y       z     vdW  Elec       q    Type
                         _______ _______ _______ _____ _____    ______ ____

>  <TORSDO>
F 2

$$$$
