=
 OpenBabel10272414533D

 37 40  0  0  1  0  0  0  0  0999 V2000
  189.1390  177.9300  136.2440 C   0  0  0  0  0  2  0  0  0  0  0  0
  191.6740  174.7010  137.5590 C   0  0  0  0  0  2  0  0  0  0  0  0
  186.4900  173.9080  135.3240 N   0  0  0  0  0  2  0  0  0  0  0  0
  189.4510  176.6420  136.9920 C   0  0  2  0  0  3  0  0  0  0  0  0
  187.4050  175.0050  135.6490 C   0  0  2  0  0  3  0  0  0  0  0  0
  190.4870  176.8820  138.0910 C   0  0  2  0  0  3  0  0  0  0  0  0
  187.3060  176.1040  134.6030 C   0  0  0  0  0  2  0  0  0  0  0  0
  188.8360  174.4600  135.7920 C   0  0  2  0  0  3  0  0  0  0  0  0
  188.1120  172.4360  136.4750 C   0  0  0  0  0  2  0  0  0  0  0  0
  187.1220  179.0720  136.7550 O   0  0  0  0  0  0  0  0  0  0  0  0
  186.8520  177.3320  135.2420 N   0  0  0  0  0  2  0  0  0  0  0  0
  188.8730  173.5560  136.8670 O   0  0  0  0  0  0  0  0  0  0  0  0
  190.9660  175.5400  138.6290 C   0  0  0  0  0  2  0  0  0  0  0  0
  187.6620  178.1390  136.1060 C   0  0  0  0  0  0  0  0  0  0  0  0
  189.8850  175.5710  135.9680 C   0  0  2  0  0  3  0  0  0  0  0  0
  186.6330  172.8160  136.2990 C   0  0  1  0  0  3  0  0  0  0  0  0
  191.3520  175.0700  136.0860 C   0  0  1  0  0  0  0  0  0  0  0  0
  185.9990  173.1780  137.6370 C   0  0  0  0  0  2  0  0  0  0  0  0
  184.4900  173.2380  137.5070 C   0  0  0  0  0  1  0  0  0  0  0  0
  192.2960  176.2140  135.6470 C   0  0  0  0  0  2  0  0  0  0  0  0
  193.6780  176.1470  136.2940 C   0  0  0  0  0  2  0  0  0  0  0  0
  195.3670  177.3940  134.9870 C   0  0  0  0  0  1  0  0  0  0  0  0
  194.7650  176.0290  135.2440 C   0  0  0  0  0  2  0  0  0  0  0  0
  191.5070  173.9350  135.2420 O   0  0  0  0  0  0  0  0  0  0  0  0
  192.1440  172.8860  135.9310 C   0  0  0  0  0  2  0  0  0  0  0  0
  193.3400  172.4140  135.1340 C   0  0  0  0  0  2  0  0  0  0  0  0
  194.7910  172.7240  137.1110 C   0  0  0  0  0  1  0  0  0  0  0  0
  194.3270  171.7370  136.0610 C   0  0  0  0  0  2  0  0  0  0  0  0
  189.8680  177.6910  139.2190 C   0  0  0  0  0  2  0  0  0  0  0  0
  190.1220  177.0150  140.5560 C   0  0  0  0  0  2  0  0  0  0  0  0
  188.9350  176.4580  142.7760 C   0  0  0  0  0  2  0  0  0  0  0  0
  188.9720  177.2330  141.4780 C   0  0  0  0  0  0  0  0  0  0  0  0
  188.0520  178.1560  141.1770 C   0  0  0  0  0  3  0  0  0  0  0  0
  186.0690  179.2870  141.7940 O   0  0  0  0  0  0  0  0  0  0  0  0
  186.7750  177.6020  143.2940 C   0  0  0  0  0  3  0  0  0  0  0  0
  186.9200  178.4040  142.0760 C   0  0  0  0  0  0  0  0  0  0  0  0
  187.6990  176.6920  143.6110 C   0  0  0  0  0  3  0  0  0  0  0  0
  2 13  1  0  0  0  0
  3  5  1  0  0  0  0
  3 16  1  0  0  0  0
  4  1  1  6  0  0  0
  4  6  1  0  0  0  0
  5  7  1  6  0  0  0
  5  8  1  0  0  0  0
  6 13  1  0  0  0  0
  6 29  1  1  0  0  0
  7 11  1  0  0  0  0
  8 15  1  0  0  0  0
  8 12  1  1  0  0  0
  9 12  1  0  0  0  0
 11 14  1  0  0  0  0
 14  1  1  0  0  0  0
 14 10  2  0  0  0  0
 15 17  1  0  0  0  0
 15  4  1  0  0  0  0
 16  9  1  0  0  0  0
 16 18  1  0  0  0  0
 17  2  1  0  0  0  0
 19 18  1  0  0  0  0
 20 17  1  0  0  0  0
 20 21  1  0  0  0  0
 22 23  1  0  0  0  0
 23 21  1  0  0  0  0
 24 25  1  0  0  0  0
 24 17  1  0  0  0  0
 26 25  1  0  0  0  0
 26 28  1  0  0  0  0
 28 27  1  0  0  0  0
 29 30  1  0  0  0  0
 30 32  1  0  0  0  0
 31 37  1  0  0  0  0
 32 31  1  0  0  0  0
 33 32  2  0  0  0  0
 33 36  1  0  0  0  0
 34 36  2  0  0  0  0
 35 37  2  0  0  0  0
 36 35  1  0  0  0  0
M  END
>  <MODEL>
1

>  <REMARK>
 VINA RESULT:      -6.0      0.000      0.000
  Name = 
  11 active torsions:
  status: ('A' for Active; 'I' for Inactive)
    1  A    between atoms: C_1  and  C_5
    2  A    between atoms: C_1  and  C_36
    3  A    between atoms: C_3  and  C_32
    4  A    between atoms: C_5  and  C_23
    5  A    between atoms: C_6  and  C_31
    6  A    between atoms: C_14  and  C_37
    7  A    between atoms: C_17  and  C_26
    8  A    between atoms: C_17  and  O_33
    9  A    between atoms: C_26  and  C_34
   10  A    between atoms: C_31  and  C_37
   11  A    between atoms: O_33  and  C_36
                            x       y       z     vdW  Elec       q    Type
                         _______ _______ _______ _____ _____    ______ ____

>  <TORSDO>
F 11

$$$$
=
 OpenBabel10272414533D

 37 40  0  0  1  0  0  0  0  0999 V2000
  187.7750  178.6850  141.1440 C   0  0  0  0  0  2  0  0  0  0  0  0
  191.2800  176.2380  141.7030 C   0  0  0  0  0  2  0  0  0  0  0  0
  188.3890  176.5020  136.7970 N   0  0  0  0  0  2  0  0  0  0  0  0
  188.5830  177.3980  141.0610 C   0  0  2  0  0  3  0  0  0  0  0  0
  188.3480  177.0770  138.1440 C   0  0  2  0  0  3  0  0  0  0  0  0
  188.9420  176.8840  142.4560 C   0  0  2  0  0  3  0  0  0  0  0  0
  187.8920  178.5270  138.0870 C   0  0  0  0  0  2  0  0  0  0  0  0
  189.7240  176.9220  138.8140 C   0  0  2  0  0  3  0  0  0  0  0  0
  190.1970  175.0470  137.6540 C   0  0  0  0  0  2  0  0  0  0  0  0
  185.4280  178.5690  140.8070 O   0  0  0  0  0  0  0  0  0  0  0  0
  186.6520  178.6670  138.8360 N   0  0  0  0  0  2  0  0  0  0  0  0
  190.0090  175.5530  138.9550 O   0  0  0  0  0  0  0  0  0  0  0  0
  189.9630  175.7610  142.3280 C   0  0  0  0  0  2  0  0  0  0  0  0
  186.5630  178.6290  140.2660 C   0  0  0  0  0  0  0  0  0  0  0  0
  189.8160  177.6480  140.1670 C   0  0  2  0  0  3  0  0  0  0  0  0
  188.8920  175.1210  136.8450 C   0  0  1  0  0  3  0  0  0  0  0  0
  191.2000  177.5450  140.8690 C   0  0  1  0  0  0  0  0  0  0  0  0
  187.8460  174.1670  137.4090 C   0  0  0  0  0  2  0  0  0  0  0  0
  188.1520  172.7420  136.9900 C   0  0  0  0  0  1  0  0  0  0  0  0
  191.3530  178.7500  141.8270 C   0  0  0  0  0  2  0  0  0  0  0  0
  191.9970  178.3900  143.1630 C   0  0  0  0  0  2  0  0  0  0  0  0
  191.1420  177.6880  145.3750 C   0  0  0  0  0  1  0  0  0  0  0  0
  191.0980  178.7750  144.3210 C   0  0  0  0  0  2  0  0  0  0  0  0
  192.2120  177.5620  139.8690 O   0  0  0  0  0  0  0  0  0  0  0  0
  193.2910  176.7380  140.2400 C   0  0  0  0  0  2  0  0  0  0  0  0
  193.8180  176.0180  139.0170 C   0  0  0  0  0  2  0  0  0  0  0  0
  193.8630  176.0110  136.5460 C   0  0  0  0  0  1  0  0  0  0  0  0
  193.2910  176.6950  137.7700 C   0  0  0  0  0  2  0  0  0  0  0  0
  187.6960  176.3620  143.1530 C   0  0  0  0  0  2  0  0  0  0  0  0
  187.7160  176.7410  144.6250 C   0  0  0  0  0  2  0  0  0  0  0  0
  186.2070  177.7610  146.4500 C   0  0  0  0  0  2  0  0  0  0  0  0
  186.4790  177.4880  144.9870 C   0  0  0  0  0  0  0  0  0  0  0  0
  185.6880  177.9630  144.0190 C   0  0  0  0  0  3  0  0  0  0  0  0
  183.7450  179.1770  143.4300 O   0  0  0  0  0  0  0  0  0  0  0  0
  184.1040  178.9150  145.7520 C   0  0  0  0  0  3  0  0  0  0  0  0
  184.4740  178.7170  144.3480 C   0  0  0  0  0  0  0  0  0  0  0  0
  184.8980  178.4610  146.7240 C   0  0  0  0  0  3  0  0  0  0  0  0
  2 13  1  0  0  0  0
  3 16  1  0  0  0  0
  3  5  1  0  0  0  0
  4  1  1  1  0  0  0
  4  6  1  0  0  0  0
  5  7  1  6  0  0  0
  5  8  1  0  0  0  0
  6 29  1  6  0  0  0
  7 11  1  0  0  0  0
  8 12  1  1  0  0  0
  8 15  1  0  0  0  0
  9 12  1  0  0  0  0
 11 14  1  0  0  0  0
 13  6  1  0  0  0  0
 14 10  2  0  0  0  0
 14  1  1  0  0  0  0
 15 17  1  0  0  0  0
 15  4  1  0  0  0  0
 16 18  1  0  0  0  0
 16  9  1  0  0  0  0
 17  2  1  0  0  0  0
 17 20  1  0  0  0  0
 19 18  1  0  0  0  0
 20 21  1  0  0  0  0
 21 23  1  0  0  0  0
 23 22  1  0  0  0  0
 24 25  1  0  0  0  0
 24 17  1  0  0  0  0
 26 25  1  0  0  0  0
 27 28  1  0  0  0  0
 28 26  1  0  0  0  0
 29 30  1  0  0  0  0
 30 32  1  0  0  0  0
 31 37  1  0  0  0  0
 32 31  1  0  0  0  0
 33 36  1  0  0  0  0
 33 32  2  0  0  0  0
 34 36  2  0  0  0  0
 35 37  2  0  0  0  0
 36 35  1  0  0  0  0
M  END
>  <MODEL>
2

>  <REMARK>
 VINA RESULT:      -5.3      2.438      5.031
  Name = 
  11 active torsions:
  status: ('A' for Active; 'I' for Inactive)
    1  A    between atoms: C_1  and  C_5
    2  A    between atoms: C_1  and  C_36
    3  A    between atoms: C_3  and  C_32
    4  A    between atoms: C_5  and  C_23
    5  A    between atoms: C_6  and  C_31
    6  A    between atoms: C_14  and  C_37
    7  A    between atoms: C_17  and  C_26
    8  A    between atoms: C_17  and  O_33
    9  A    between atoms: C_26  and  C_34
   10  A    between atoms: C_31  and  C_37
   11  A    between atoms: O_33  and  C_36
                            x       y       z     vdW  Elec       q    Type
                         _______ _______ _______ _____ _____    ______ ____

>  <TORSDO>
F 11

$$$$
=
 OpenBabel10272414533D

 37 40  0  0  1  0  0  0  0  0999 V2000
  187.3480  178.6730  141.5130 C   0  0  0  0  0  2  0  0  0  0  0  0
  190.9290  176.3550  142.1320 C   0  0  0  0  0  2  0  0  0  0  0  0
  188.2990  176.7790  137.0920 N   0  0  0  0  0  2  0  0  0  0  0  0
  188.2190  177.4300  141.4040 C   0  0  2  0  0  3  0  0  0  0  0  0
  188.1590  177.2710  138.4640 C   0  0  2  0  0  3  0  0  0  0  0  0
  188.5260  176.8510  142.7850 C   0  0  2  0  0  3  0  0  0  0  0  0
  187.6380  178.7010  138.4640 C   0  0  0  0  0  2  0  0  0  0  0  0
  189.5010  177.1390  139.2020 C   0  0  2  0  0  3  0  0  0  0  0  0
  190.1260  175.3580  137.9670 C   0  0  0  0  0  2  0  0  0  0  0  0
  185.0310  178.4730  141.0370 O   0  0  0  0  0  0  0  0  0  0  0  0
  186.3530  178.7410  139.1470 N   0  0  0  0  0  2  0  0  0  0  0  0
  189.8430  175.7780  139.2810 O   0  0  0  0  0  0  0  0  0  0  0  0
  189.6050  175.7840  142.6530 C   0  0  0  0  0  2  0  0  0  0  0  0
  186.1890  178.6140  140.5660 C   0  0  0  0  0  0  0  0  0  0  0  0
  189.4860  177.7870  140.5970 C   0  0  2  0  0  3  0  0  0  0  0  0
  188.8640  175.4220  137.0900 C   0  0  1  0  0  3  0  0  0  0  0  0
  190.8320  177.7040  141.3700 C   0  0  1  0  0  0  0  0  0  0  0  0
  187.8350  174.3900  137.5390 C   0  0  0  0  0  2  0  0  0  0  0  0
  188.1950  173.0190  137.0010 C   0  0  0  0  0  1  0  0  0  0  0  0
  190.8760  178.8560  142.4010 C   0  0  0  0  0  2  0  0  0  0  0  0
  191.7650  178.5630  143.6070 C   0  0  0  0  0  2  0  0  0  0  0  0
  191.4460  177.1950  145.6410 C   0  0  0  0  0  1  0  0  0  0  0  0
  190.9380  178.3900  144.8640 C   0  0  0  0  0  2  0  0  0  0  0  0
  191.8950  177.8250  140.4310 O   0  0  0  0  0  0  0  0  0  0  0  0
  192.9280  176.9160  140.7300 C   0  0  0  0  0  2  0  0  0  0  0  0
  193.9480  176.9280  139.6120 C   0  0  0  0  0  2  0  0  0  0  0  0
  193.8750  175.2600  137.7900 C   0  0  0  0  0  1  0  0  0  0  0  0
  193.2730  176.5470  138.3120 C   0  0  0  0  0  2  0  0  0  0  0  0
  187.2700  176.2340  143.3800 C   0  0  0  0  0  2  0  0  0  0  0  0
  186.3350  177.3210  143.8830 C   0  0  0  0  0  2  0  0  0  0  0  0
  185.7710  178.6690  146.0070 C   0  0  0  0  0  2  0  0  0  0  0  0
  186.6670  177.6850  145.2890 C   0  0  0  0  0  0  0  0  0  0  0  0
  187.6910  177.0810  145.9020 C   0  0  0  0  0  3  0  0  0  0  0  0
  188.9810  176.8190  147.8680 O   0  0  0  0  0  0  0  0  0  0  0  0
  187.2610  178.4360  147.9990 C   0  0  0  0  0  3  0  0  0  0  0  0
  188.0280  177.4070  147.2920 C   0  0  0  0  0  0  0  0  0  0  0  0
  186.2260  179.0310  147.4010 C   0  0  0  0  0  3  0  0  0  0  0  0
  2 13  1  0  0  0  0
  3  5  1  0  0  0  0
  4  1  1  1  0  0  0
  4  6  1  0  0  0  0
  5  7  1  6  0  0  0
  5  8  1  0  0  0  0
  6 29  1  6  0  0  0
  7 11  1  0  0  0  0
  8 12  1  1  0  0  0
  8 15  1  0  0  0  0
  9 12  1  0  0  0  0
 11 14  1  0  0  0  0
 13  6  1  0  0  0  0
 14 10  2  0  0  0  0
 14  1  1  0  0  0  0
 15 17  1  0  0  0  0
 15  4  1  0  0  0  0
 16  3  1  0  0  0  0
 16 18  1  0  0  0  0
 16  9  1  0  0  0  0
 17  2  1  0  0  0  0
 17 20  1  0  0  0  0
 19 18  1  0  0  0  0
 20 21  1  0  0  0  0
 21 23  1  0  0  0  0
 23 22  1  0  0  0  0
 24 25  1  0  0  0  0
 24 17  1  0  0  0  0
 26 25  1  0  0  0  0
 27 28  1  0  0  0  0
 28 26  1  0  0  0  0
 29 30  1  0  0  0  0
 30 32  1  0  0  0  0
 31 37  1  0  0  0  0
 32 33  2  0  0  0  0
 32 31  1  0  0  0  0
 33 36  1  0  0  0  0
 36 34  2  0  0  0  0
 36 35  1  0  0  0  0
 37 35  2  0  0  0  0
M  END
>  <MODEL>
3

>  <REMARK>
 VINA RESULT:      -5.2      2.877      5.548
  Name = 
  11 active torsions:
  status: ('A' for Active; 'I' for Inactive)
    1  A    between atoms: C_1  and  C_5
    2  A    between atoms: C_1  and  C_36
    3  A    between atoms: C_3  and  C_32
    4  A    between atoms: C_5  and  C_23
    5  A    between atoms: C_6  and  C_31
    6  A    between atoms: C_14  and  C_37
    7  A    between atoms: C_17  and  C_26
    8  A    between atoms: C_17  and  O_33
    9  A    between atoms: C_26  and  C_34
   10  A    between atoms: C_31  and  C_37
   11  A    between atoms: O_33  and  C_36
                            x       y       z     vdW  Elec       q    Type
                         _______ _______ _______ _____ _____    ______ ____

>  <TORSDO>
F 11

$$$$
=
 OpenBabel10272414533D

 37 40  0  0  1  0  0  0  0  0999 V2000
  192.2760  176.5570  137.7080 C   0  0  0  0  0  2  0  0  0  0  0  0
  187.9840  176.4160  138.0890 C   0  0  0  0  0  2  0  0  0  0  0  0
  191.4860  177.5090  142.4520 N   0  0  0  0  0  2  0  0  0  0  0  0
  190.9640  176.1270  138.3490 C   0  0  2  0  0  3  0  0  0  0  0  0
  191.5540  177.2220  141.0180 C   0  0  2  0  0  3  0  0  0  0  0  0
  190.1390  175.2690  137.3890 C   0  0  2  0  0  3  0  0  0  0  0  0
  192.6770  178.0190  140.3710 C   0  0  0  0  0  2  0  0  0  0  0  0
  190.1880  177.5040  140.3690 C   0  0  2  0  0  3  0  0  0  0  0  0
  189.0670  177.0220  142.2660 C   0  0  0  0  0  2  0  0  0  0  0  0
  194.2630  175.4150  138.3270 O   0  0  0  0  0  0  0  0  0  0  0  0
  193.6520  177.0970  139.8070 N   0  0  0  0  0  2  0  0  0  0  0  0
  189.2340  176.6330  140.9230 O   0  0  0  0  0  0  0  0  0  0  0  0
  188.7380  175.0870  137.9580 C   0  0  0  0  0  2  0  0  0  0  0  0
  193.4370  176.3180  138.6240 C   0  0  0  0  0  0  0  0  0  0  0  0
  190.2180  177.3880  138.8350 C   0  0  2  0  0  3  0  0  0  0  0  0
  190.3600  176.7900  143.0660 C   0  0  1  0  0  3  0  0  0  0  0  0
  188.8660  177.6940  138.1320 C   0  0  1  0  0  0  0  0  0  0  0  0
  190.6570  175.3010  143.2010 C   0  0  0  0  0  2  0  0  0  0  0  0
  191.8740  175.0850  144.0800 C   0  0  0  0  0  1  0  0  0  0  0  0
  189.1590  178.1380  136.6790 C   0  0  0  0  0  2  0  0  0  0  0  0
  188.0550  177.7680  135.6920 C   0  0  0  0  0  2  0  0  0  0  0  0
  187.6210  175.7390  134.3480 C   0  0  0  0  0  1  0  0  0  0  0  0
  188.5880  176.8790  134.5870 C   0  0  0  0  0  2  0  0  0  0  0  0
  188.2090  178.7290  138.8540 O   0  0  0  0  0  0  0  0  0  0  0  0
  186.8540  178.4080  139.0620 C   0  0  0  0  0  2  0  0  0  0  0  0
  186.4860  178.6930  140.5020 C   0  0  0  0  0  2  0  0  0  0  0  0
  184.3480  178.7420  139.2620 C   0  0  0  0  0  1  0  0  0  0  0  0
  185.0190  179.0560  140.5830 C   0  0  0  0  0  2  0  0  0  0  0  0
  190.7970  173.9100  137.2110 C   0  0  0  0  0  2  0  0  0  0  0  0
  191.1970  173.7020  135.7600 C   0  0  0  0  0  2  0  0  0  0  0  0
  193.4230  174.5700  134.7910 C   0  0  0  0  0  2  0  0  0  0  0  0
  192.6760  173.5670  135.6400 C   0  0  0  0  0  0  0  0  0  0  0  0
  193.3100  172.6210  136.3420 C   0  0  0  0  0  3  0  0  0  0  0  0
  195.3580  171.5980  136.9360 O   0  0  0  0  0  0  0  0  0  0  0  0
  195.5280  173.3540  135.3620 C   0  0  0  0  0  3  0  0  0  0  0  0
  194.7670  172.4780  136.2570 C   0  0  0  0  0  0  0  0  0  0  0  0
  194.9050  174.3120  134.6720 C   0  0  0  0  0  3  0  0  0  0  0  0
  1 14  1  0  0  0  0
  2 17  1  0  0  0  0
  3 16  1  0  0  0  0
  4  1  1  6  0  0  0
  4 15  1  0  0  0  0
  5  7  1  6  0  0  0
  5  3  1  0  0  0  0
  6 29  1  1  0  0  0
  6 13  1  0  0  0  0
  6  4  1  0  0  0  0
  8 12  1  1  0  0  0
  8  5  1  0  0  0  0
  9 16  1  0  0  0  0
 10 14  2  0  0  0  0
 11  7  1  0  0  0  0
 12  9  1  0  0  0  0
 13  2  1  0  0  0  0
 14 11  1  0  0  0  0
 15  8  1  0  0  0  0
 16 18  1  0  0  0  0
 17 15  1  0  0  0  0
 17 24  1  0  0  0  0
 18 19  1  0  0  0  0
 20 17  1  0  0  0  0
 21 20  1  0  0  0  0
 22 23  1  0  0  0  0
 23 21  1  0  0  0  0
 24 25  1  0  0  0  0
 25 26  1  0  0  0  0
 26 28  1  0  0  0  0
 27 28  1  0  0  0  0
 30 29  1  0  0  0  0
 31 32  1  0  0  0  0
 32 30  1  0  0  0  0
 32 33  2  0  0  0  0
 35 36  1  0  0  0  0
 36 33  1  0  0  0  0
 36 34  2  0  0  0  0
 37 31  1  0  0  0  0
 37 35  2  0  0  0  0
M  END
>  <MODEL>
4

>  <REMARK>
 VINA RESULT:      -5.1      2.985      8.011
  Name = 
  11 active torsions:
  status: ('A' for Active; 'I' for Inactive)
    1  A    between atoms: C_1  and  C_5
    2  A    between atoms: C_1  and  C_36
    3  A    between atoms: C_3  and  C_32
    4  A    between atoms: C_5  and  C_23
    5  A    between atoms: C_6  and  C_31
    6  A    between atoms: C_14  and  C_37
    7  A    between atoms: C_17  and  C_26
    8  A    between atoms: C_17  and  O_33
    9  A    between atoms: C_26  and  C_34
   10  A    between atoms: C_31  and  C_37
   11  A    between atoms: O_33  and  C_36
                            x       y       z     vdW  Elec       q    Type
                         _______ _______ _______ _____ _____    ______ ____

>  <TORSDO>
F 11

$$$$
=
 OpenBabel10272414533D

 37 40  0  0  1  0  0  0  0  0999 V2000
  188.0220  176.8180  137.8220 C   0  0  0  0  0  2  0  0  0  0  0  0
  187.6300  173.7320  134.8380 C   0  0  0  0  0  2  0  0  0  0  0  0
  192.6110  175.2170  137.1780 N   0  0  0  0  0  2  0  0  0  0  0  0
  188.3880  176.0940  136.5340 C   0  0  2  0  0  3  0  0  0  0  0  0
  191.1930  175.5750  137.2610 C   0  0  2  0  0  3  0  0  0  0  0  0
  187.2360  176.1430  135.5300 C   0  0  2  0  0  3  0  0  0  0  0  0
  190.8160  175.9140  138.6950 C   0  0  0  0  0  2  0  0  0  0  0  0
  190.3370  174.4350  136.6850 C   0  0  2  0  0  3  0  0  0  0  0  0
  191.9660  173.7850  135.2670 C   0  0  0  0  0  2  0  0  0  0  0  0
  188.8930  178.9980  138.1780 O   0  0  0  0  0  0  0  0  0  0  0  0
  190.3650  177.2970  138.7550 N   0  0  0  0  0  2  0  0  0  0  0  0
  190.6470  174.2770  135.3230 O   0  0  0  0  0  0  0  0  0  0  0  0
  187.5340  175.1920  134.3790 C   0  0  0  0  0  2  0  0  0  0  0  0
  189.1070  177.7590  138.2470 C   0  0  0  0  0  0  0  0  0  0  0  0
  188.8290  174.6570  136.8860 C   0  0  2  0  0  3  0  0  0  0  0  0
  192.9610  174.8260  135.8040 C   0  0  1  0  0  3  0  0  0  0  0  0
  187.9230  173.5140  136.3470 C   0  0  1  0  0  0  0  0  0  0  0  0
  193.0340  176.0380  134.8820 C   0  0  0  0  0  2  0  0  0  0  0  0
  194.4550  176.5620  134.8120 C   0  0  0  0  0  1  0  0  0  0  0  0
  186.5830  173.5460  137.1180 C   0  0  0  0  0  2  0  0  0  0  0  0
  185.4100  172.9670  136.3300 C   0  0  0  0  0  2  0  0  0  0  0  0
  183.6820  171.2110  136.5320 C   0  0  0  0  0  1  0  0  0  0  0  0
  184.3910  172.3360  137.2560 C   0  0  0  0  0  2  0  0  0  0  0  0
  188.5950  172.2760  136.5510 O   0  0  0  0  0  0  0  0  0  0  0  0
  188.5870  171.5060  135.3730 C   0  0  0  0  0  2  0  0  0  0  0  0
  187.8840  170.1920  135.6360 C   0  0  0  0  0  2  0  0  0  0  0  0
  186.0610  168.6980  134.8930 C   0  0  0  0  0  1  0  0  0  0  0  0
  186.7310  170.0360  134.6670 C   0  0  0  0  0  2  0  0  0  0  0  0
  187.0750  177.5570  134.9940 C   0  0  0  0  0  2  0  0  0  0  0  0
  185.6740  177.7550  134.4380 C   0  0  0  0  0  2  0  0  0  0  0  0
  184.5330  177.4070  136.7240 C   0  0  0  0  0  2  0  0  0  0  0  0
  184.6760  177.0220  135.2680 C   0  0  0  0  0  0  0  0  0  0  0  0
  183.8860  176.1080  134.6950 C   0  0  0  0  0  3  0  0  0  0  0  0
  182.1300  174.5420  134.9350 O   0  0  0  0  0  0  0  0  0  0  0  0
  182.7770  175.6410  136.9250 C   0  0  0  0  0  3  0  0  0  0  0  0
  182.8830  175.3870  135.4860 C   0  0  0  0  0  0  0  0  0  0  0  0
  183.5500  176.5650  137.5010 C   0  0  0  0  0  3  0  0  0  0  0  0
  1 14  1  0  0  0  0
  2 17  1  0  0  0  0
  3  5  1  0  0  0  0
  4 15  1  0  0  0  0
  4  1  1  1  0  0  0
  5  7  1  1  0  0  0
  6 29  1  6  0  0  0
  6  4  1  0  0  0  0
  7 11  1  0  0  0  0
  8 12  1  6  0  0  0
  8 15  1  0  0  0  0
  8  5  1  0  0  0  0
  9 12  1  0  0  0  0
  9 16  1  0  0  0  0
 10 14  2  0  0  0  0
 13  2  1  0  0  0  0
 13  6  1  0  0  0  0
 14 11  1  0  0  0  0
 16  3  1  0  0  0  0
 17 24  1  0  0  0  0
 17 15  1  0  0  0  0
 17 20  1  0  0  0  0
 18 16  1  0  0  0  0
 19 18  1  0  0  0  0
 21 20  1  0  0  0  0
 21 23  1  0  0  0  0
 22 23  1  0  0  0  0
 25 26  1  0  0  0  0
 25 24  1  0  0  0  0
 28 27  1  0  0  0  0
 28 26  1  0  0  0  0
 30 29  1  0  0  0  0
 30 32  1  0  0  0  0
 31 37  1  0  0  0  0
 32 31  1  0  0  0  0
 33 32  2  0  0  0  0
 33 36  1  0  0  0  0
 34 36  2  0  0  0  0
 35 37  2  0  0  0  0
 36 35  1  0  0  0  0
M  END
>  <MODEL>
5

>  <REMARK>
 VINA RESULT:      -4.7      2.723      6.681
  Name = 
  11 active torsions:
  status: ('A' for Active; 'I' for Inactive)
    1  A    between atoms: C_1  and  C_5
    2  A    between atoms: C_1  and  C_36
    3  A    between atoms: C_3  and  C_32
    4  A    between atoms: C_5  and  C_23
    5  A    between atoms: C_6  and  C_31
    6  A    between atoms: C_14  and  C_37
    7  A    between atoms: C_17  and  C_26
    8  A    between atoms: C_17  and  O_33
    9  A    between atoms: C_26  and  C_34
   10  A    between atoms: C_31  and  C_37
   11  A    between atoms: O_33  and  C_36
                            x       y       z     vdW  Elec       q    Type
                         _______ _______ _______ _____ _____    ______ ____

>  <TORSDO>
F 11

$$$$
=
 OpenBabel10272414533D

 37 40  0  0  1  0  0  0  0  0999 V2000
  182.2000  179.2080  138.4170 C   0  0  0  0  0  2  0  0  0  0  0  0
  182.0700  175.8590  135.7070 C   0  0  0  0  0  2  0  0  0  0  0  0
  186.8470  177.6540  138.2470 N   0  0  0  0  0  2  0  0  0  0  0  0
  182.6680  178.3800  137.2300 C   0  0  2  0  0  3  0  0  0  0  0  0
  185.4220  177.9880  138.1970 C   0  0  2  0  0  3  0  0  0  0  0  0
  181.5910  178.3140  136.1470 C   0  0  2  0  0  3  0  0  0  0  0  0
  184.9370  178.4460  139.5640 C   0  0  0  0  0  2  0  0  0  0  0  0
  184.6270  176.7820  137.6690 C   0  0  2  0  0  3  0  0  0  0  0  0
  186.3630  176.0430  136.4340 C   0  0  0  0  0  2  0  0  0  0  0  0
  183.0110  181.4290  138.6340 O   0  0  0  0  0  0  0  0  0  0  0  0
  184.4620  179.8190  139.4660 N   0  0  0  0  0  2  0  0  0  0  0  0
  185.0360  176.5100  136.3520 O   0  0  0  0  0  0  0  0  0  0  0  0
  181.9860  177.2690  135.1110 C   0  0  0  0  0  2  0  0  0  0  0  0
  183.2370  180.2070  138.8310 C   0  0  0  0  0  0  0  0  0  0  0  0
  183.1040  176.9900  137.7420 C   0  0  2  0  0  3  0  0  0  0  0  0
  187.3010  177.1490  136.9430 C   0  0  1  0  0  3  0  0  0  0  0  0
  182.2570  175.7840  137.2460 C   0  0  1  0  0  0  0  0  0  0  0  0
  187.4220  178.2740  135.9210 C   0  0  0  0  0  2  0  0  0  0  0  0
  187.9120  177.7300  134.5940 C   0  0  0  0  0  1  0  0  0  0  0  0
  180.8640  175.8570  137.9150 C   0  0  0  0  0  2  0  0  0  0  0  0
  180.8740  175.4620  139.3900 C   0  0  0  0  0  2  0  0  0  0  0  0
  181.0200  177.2950  141.0440 C   0  0  0  0  0  1  0  0  0  0  0  0
  180.0750  176.4450  140.2220 C   0  0  0  0  0  2  0  0  0  0  0  0
  182.9300  174.5840  137.6090 O   0  0  0  0  0  0  0  0  0  0  0  0
  182.9980  173.7010  136.5150 C   0  0  0  0  0  2  0  0  0  0  0  0
  183.1170  172.2800  137.0220 C   0  0  0  0  0  2  0  0  0  0  0  0
  183.7920  172.0640  134.6540 C   0  0  0  0  0  1  0  0  0  0  0  0
  183.9220  171.4610  136.0370 C   0  0  0  0  0  2  0  0  0  0  0  0
  181.4480  179.6700  135.4740 C   0  0  0  0  0  2  0  0  0  0  0  0
  180.0500  180.2240  135.6940 C   0  0  0  0  0  2  0  0  0  0  0  0
  179.9830  182.0760  137.4870 C   0  0  0  0  0  2  0  0  0  0  0  0
  180.1120  181.6730  136.0350 C   0  0  0  0  0  0  0  0  0  0  0  0
  180.3570  182.5670  135.0710 C   0  0  0  0  0  3  0  0  0  0  0  0
  180.6920  184.8310  134.4720 O   0  0  0  0  0  0  0  0  0  0  0  0
  180.2130  184.4530  136.7560 C   0  0  0  0  0  3  0  0  0  0  0  0
  180.4420  183.9980  135.3820 C   0  0  0  0  0  0  0  0  0  0  0  0
  179.9860  183.5660  137.7270 C   0  0  0  0  0  3  0  0  0  0  0  0
  1 14  1  0  0  0  0
  2 17  1  0  0  0  0
  4 15  1  0  0  0  0
  4  1  1  1  0  0  0
  5  3  1  0  0  0  0
  5  7  1  1  0  0  0
  6 29  1  6  0  0  0
  6  4  1  0  0  0  0
  8 12  1  6  0  0  0
  8 15  1  0  0  0  0
  8  5  1  0  0  0  0
  9 16  1  0  0  0  0
 10 14  2  0  0  0  0
 11  7  1  0  0  0  0
 12  9  1  0  0  0  0
 13  2  1  0  0  0  0
 13  6  1  0  0  0  0
 14 11  1  0  0  0  0
 16  3  1  0  0  0  0
 17 24  1  0  0  0  0
 17 15  1  0  0  0  0
 17 20  1  0  0  0  0
 18 16  1  0  0  0  0
 19 18  1  0  0  0  0
 20 21  1  0  0  0  0
 21 23  1  0  0  0  0
 23 22  1  0  0  0  0
 25 26  1  0  0  0  0
 25 24  1  0  0  0  0
 27 28  1  0  0  0  0
 28 26  1  0  0  0  0
 29 30  1  0  0  0  0
 30 32  1  0  0  0  0
 31 37  1  0  0  0  0
 32 31  1  0  0  0  0
 33 36  1  0  0  0  0
 33 32  2  0  0  0  0
 34 36  2  0  0  0  0
 35 37  2  0  0  0  0
 36 35  1  0  0  0  0
M  END
>  <MODEL>
6

>  <REMARK>
 VINA RESULT:      -4.6      5.607      9.378
  Name = 
  11 active torsions:
  status: ('A' for Active; 'I' for Inactive)
    1  A    between atoms: C_1  and  C_5
    2  A    between atoms: C_1  and  C_36
    3  A    between atoms: C_3  and  C_32
    4  A    between atoms: C_5  and  C_23
    5  A    between atoms: C_6  and  C_31
    6  A    between atoms: C_14  and  C_37
    7  A    between atoms: C_17  and  C_26
    8  A    between atoms: C_17  and  O_33
    9  A    between atoms: C_26  and  C_34
   10  A    between atoms: C_31  and  C_37
   11  A    between atoms: O_33  and  C_36
                            x       y       z     vdW  Elec       q    Type
                         _______ _______ _______ _____ _____    ______ ____

>  <TORSDO>
F 11

$$$$
=
 OpenBabel10272414533D

 37 40  0  0  1  0  0  0  0  0999 V2000
  185.3690  176.3990  136.6110 C   0  0  0  0  0  2  0  0  0  0  0  0
  181.3010  176.0700  137.9970 C   0  0  0  0  0  2  0  0  0  0  0  0
  185.1510  179.5390  140.3690 N   0  0  0  0  0  2  0  0  0  0  0  0
  184.2830  176.2310  137.6630 C   0  0  2  0  0  3  0  0  0  0  0  0
  185.0510  178.5740  139.2720 C   0  0  2  0  0  3  0  0  0  0  0  0
  183.5040  174.9330  137.4460 C   0  0  2  0  0  3  0  0  0  0  0  0
  185.8820  179.0350  138.0840 C   0  0  0  0  0  2  0  0  0  0  0  0
  183.5730  178.3600  138.9040 C   0  0  2  0  0  3  0  0  0  0  0  0
  182.8760  178.8010  141.0040 C   0  0  0  0  0  2  0  0  0  0  0  0
  187.6130  175.9170  137.2170 O   0  0  0  0  0  0  0  0  0  0  0  0
  186.9210  178.0500  137.8170 N   0  0  0  0  0  2  0  0  0  0  0  0
  182.9060  177.8040  140.0090 O   0  0  0  0  0  0  0  0  0  0  0  0
  182.2710  174.9340  138.3410 C   0  0  0  0  0  2  0  0  0  0  0  0
  186.6820  176.7640  137.2320 C   0  0  0  0  0  0  0  0  0  0  0  0
  183.3880  177.4880  137.6500 C   0  0  2  0  0  3  0  0  0  0  0  0
  184.2970  179.1260  141.4930 C   0  0  1  0  0  3  0  0  0  0  0  0
  181.9100  177.2690  137.2220 C   0  0  1  0  0  0  0  0  0  0  0  0
  184.8990  177.9450  142.2460 C   0  0  0  0  0  2  0  0  0  0  0  0
  185.2350  178.3440  143.6700 C   0  0  0  0  0  1  0  0  0  0  0  0
  181.8820  176.9440  135.7100 C   0  0  0  0  0  2  0  0  0  0  0  0
  180.7680  175.9790  135.3130 C   0  0  0  0  0  2  0  0  0  0  0  0
  180.9540  173.5400  134.9500 C   0  0  0  0  0  1  0  0  0  0  0  0
  181.2860  174.9030  134.3800 C   0  0  0  0  0  2  0  0  0  0  0  0
  181.1820  178.4610  137.4960 O   0  0  0  0  0  0  0  0  0  0  0  0
  181.1030  179.2710  136.3470 C   0  0  0  0  0  2  0  0  0  0  0  0
  180.4470  180.5870  136.7040 C   0  0  0  0  0  2  0  0  0  0  0  0
  181.3580  182.3950  138.1220 C   0  0  0  0  0  1  0  0  0  0  0  0
  180.8330  180.9750  138.1160 C   0  0  0  0  0  2  0  0  0  0  0  0
  184.3800  173.7390  137.7880 C   0  0  0  0  0  2  0  0  0  0  0  0
  183.9550  172.5230  136.9810 C   0  0  0  0  0  2  0  0  0  0  0  0
  184.9180  170.6770  135.4610 C   0  0  0  0  0  2  0  0  0  0  0  0
  185.1170  171.9590  136.2380 C   0  0  0  0  0  0  0  0  0  0  0  0
  186.2720  172.6320  136.2110 C   0  0  0  0  0  3  0  0  0  0  0  0
  188.5030  172.7580  135.4360 O   0  0  0  0  0  0  0  0  0  0  0  0
  187.3220  170.8150  134.7930 C   0  0  0  0  0  3  0  0  0  0  0  0
  187.4260  172.1090  135.4720 C   0  0  0  0  0  0  0  0  0  0  0  0
  186.1670  170.1450  134.7990 C   0  0  0  0  0  3  0  0  0  0  0  0
  1 14  1  0  0  0  0
  2 13  1  0  0  0  0
  3 16  1  0  0  0  0
  4  1  1  6  0  0  0
  5  7  1  6  0  0  0
  5  3  1  0  0  0  0
  6  4  1  0  0  0  0
  6 29  1  1  0  0  0
  6 13  1  0  0  0  0
  8  5  1  0  0  0  0
  8 12  1  1  0  0  0
  9 16  1  0  0  0  0
 10 14  2  0  0  0  0
 11  7  1  0  0  0  0
 12  9  1  0  0  0  0
 14 11  1  0  0  0  0
 15  4  1  0  0  0  0
 15  8  1  0  0  0  0
 16 18  1  0  0  0  0
 17 24  1  0  0  0  0
 17 15  1  0  0  0  0
 17  2  1  0  0  0  0
 18 19  1  0  0  0  0
 20 17  1  0  0  0  0
 21 20  1  0  0  0  0
 23 22  1  0  0  0  0
 23 21  1  0  0  0  0
 25 26  1  0  0  0  0
 25 24  1  0  0  0  0
 26 28  1  0  0  0  0
 28 27  1  0  0  0  0
 30 29  1  0  0  0  0
 31 32  1  0  0  0  0
 32 30  1  0  0  0  0
 33 32  2  0  0  0  0
 34 36  2  0  0  0  0
 35 37  2  0  0  0  0
 35 36  1  0  0  0  0
 36 33  1  0  0  0  0
 37 31  1  0  0  0  0
M  END
>  <MODEL>
7

>  <REMARK>
 VINA RESULT:      -4.4      4.409      9.688
  Name = 
  11 active torsions:
  status: ('A' for Active; 'I' for Inactive)
    1  A    between atoms: C_1  and  C_5
    2  A    between atoms: C_1  and  C_36
    3  A    between atoms: C_3  and  C_32
    4  A    between atoms: C_5  and  C_23
    5  A    between atoms: C_6  and  C_31
    6  A    between atoms: C_14  and  C_37
    7  A    between atoms: C_17  and  C_26
    8  A    between atoms: C_17  and  O_33
    9  A    between atoms: C_26  and  C_34
   10  A    between atoms: C_31  and  C_37
   11  A    between atoms: O_33  and  C_36
                            x       y       z     vdW  Elec       q    Type
                         _______ _______ _______ _____ _____    ______ ____

>  <TORSDO>
F 11

$$$$
=
 OpenBabel10272414533D

 37 40  0  0  1  0  0  0  0  0999 V2000
  187.6870  176.4200  134.7130 C   0  0  0  0  0  2  0  0  0  0  0  0
  184.4170  175.9190  137.4770 C   0  0  0  0  0  2  0  0  0  0  0  0
  189.1120  178.9180  138.6840 N   0  0  0  0  0  2  0  0  0  0  0  0
  187.0630  176.0980  136.0630 C   0  0  2  0  0  3  0  0  0  0  0  0
  188.5410  178.1440  137.5800 C   0  0  2  0  0  3  0  0  0  0  0  0
  186.1690  174.8610  135.9740 C   0  0  2  0  0  3  0  0  0  0  0  0
  188.8990  178.7800  136.2450 C   0  0  0  0  0  2  0  0  0  0  0  0
  187.0210  178.0080  137.7740 C   0  0  2  0  0  3  0  0  0  0  0  0
  187.1910  178.1150  140.0210 C   0  0  0  0  0  2  0  0  0  0  0  0
  189.9550  175.8220  134.3460 O   0  0  0  0  0  0  0  0  0  0  0  0
  189.6900  177.8390  135.4650 N   0  0  0  0  0  2  0  0  0  0  0  0
  186.7770  177.2900  138.9570 O   0  0  0  0  0  0  0  0  0  0  0  0
  185.3620  174.7320  137.2590 C   0  0  0  0  0  2  0  0  0  0  0  0
  189.1590  176.6660  134.8360 C   0  0  0  0  0  0  0  0  0  0  0  0
  186.3200  177.3510  136.5730 C   0  0  2  0  0  3  0  0  0  0  0  0
  188.7120  178.3410  139.9760 C   0  0  1  0  0  3  0  0  0  0  0  0
  184.7770  177.2210  136.7110 C   0  0  1  0  0  0  0  0  0  0  0  0
  189.4650  177.0480  140.2650 C   0  0  0  0  0  2  0  0  0  0  0  0
  190.9610  177.2880  140.2200 C   0  0  0  0  0  1  0  0  0  0  0  0
  184.1640  177.1430  135.2930 C   0  0  0  0  0  2  0  0  0  0  0  0
  182.7910  176.4760  135.2570 C   0  0  0  0  0  2  0  0  0  0  0  0
  180.6880  177.2890  136.2730 C   0  0  0  0  0  1  0  0  0  0  0  0
  181.6860  177.5080  135.1560 C   0  0  0  0  0  2  0  0  0  0  0  0
  184.2910  178.3610  137.4100 O   0  0  0  0  0  0  0  0  0  0  0  0
  183.4830  177.9730  138.4940 C   0  0  0  0  0  2  0  0  0  0  0  0
  183.2060  179.1750  139.3710 C   0  0  0  0  0  2  0  0  0  0  0  0
  183.8370  178.3990  141.6310 C   0  0  0  0  0  1  0  0  0  0  0  0
  182.6760  178.7100  140.7100 C   0  0  0  0  0  2  0  0  0  0  0  0
  187.0220  173.6170  135.7810 C   0  0  0  0  0  2  0  0  0  0  0  0
  187.8830  173.3720  137.0090 C   0  0  0  0  0  2  0  0  0  0  0  0
  189.7480  172.5830  135.4130 C   0  0  0  0  0  2  0  0  0  0  0  0
  189.3270  173.3610  136.6400 C   0  0  0  0  0  0  0  0  0  0  0  0
  190.1930  174.0940  137.3470 C   0  0  0  0  0  3  0  0  0  0  0  0
  192.4230  174.8240  137.6510 O   0  0  0  0  0  0  0  0  0  0  0  0
  192.0970  173.2930  135.8800 C   0  0  0  0  0  3  0  0  0  0  0  0
  191.6160  174.1160  136.9920 C   0  0  0  0  0  0  0  0  0  0  0  0
  191.2360  172.5720  135.1580 C   0  0  0  0  0  3  0  0  0  0  0  0
  1 14  1  0  0  0  0
  3 16  1  0  0  0  0
  4  1  1  6  0  0  0
  4 15  1  0  0  0  0
  5  7  1  6  0  0  0
  5  8  1  0  0  0  0
  5  3  1  0  0  0  0
  6 29  1  1  0  0  0
  6  4  1  0  0  0  0
  6 13  1  0  0  0  0
  8 12  1  1  0  0  0
 10 14  2  0  0  0  0
 11  7  1  0  0  0  0
 12  9  1  0  0  0  0
 13  2  1  0  0  0  0
 14 11  1  0  0  0  0
 15 17  1  0  0  0  0
 15  8  1  0  0  0  0
 16  9  1  0  0  0  0
 16 18  1  0  0  0  0
 17 24  1  0  0  0  0
 17  2  1  0  0  0  0
 19 18  1  0  0  0  0
 20 17  1  0  0  0  0
 21 20  1  0  0  0  0
 23 21  1  0  0  0  0
 23 22  1  0  0  0  0
 24 25  1  0  0  0  0
 25 26  1  0  0  0  0
 26 28  1  0  0  0  0
 28 27  1  0  0  0  0
 29 30  1  0  0  0  0
 31 32  1  0  0  0  0
 32 30  1  0  0  0  0
 32 33  2  0  0  0  0
 35 36  1  0  0  0  0
 36 33  1  0  0  0  0
 36 34  2  0  0  0  0
 37 31  1  0  0  0  0
 37 35  2  0  0  0  0
M  END
>  <MODEL>
8

>  <REMARK>
 VINA RESULT:      -4.3      2.756      8.059
  Name = 
  11 active torsions:
  status: ('A' for Active; 'I' for Inactive)
    1  A    between atoms: C_1  and  C_5
    2  A    between atoms: C_1  and  C_36
    3  A    between atoms: C_3  and  C_32
    4  A    between atoms: C_5  and  C_23
    5  A    between atoms: C_6  and  C_31
    6  A    between atoms: C_14  and  C_37
    7  A    between atoms: C_17  and  C_26
    8  A    between atoms: C_17  and  O_33
    9  A    between atoms: C_26  and  C_34
   10  A    between atoms: C_31  and  C_37
   11  A    between atoms: O_33  and  C_36
                            x       y       z     vdW  Elec       q    Type
                         _______ _______ _______ _____ _____    ______ ____

>  <TORSDO>
F 11

$$$$
=
 OpenBabel10272414533D

 37 40  0  0  1  0  0  0  0  0999 V2000
  186.0900  176.3100  135.3660 C   0  0  0  0  0  2  0  0  0  0  0  0
  183.3030  176.6420  138.6380 C   0  0  0  0  0  2  0  0  0  0  0  0
  188.5710  178.8140  138.7730 N   0  0  0  0  0  2  0  0  0  0  0  0
  185.6600  176.2170  136.8230 C   0  0  2  0  0  3  0  0  0  0  0  0
  187.6980  178.0710  137.8610 C   0  0  2  0  0  3  0  0  0  0  0  0
  184.5690  175.1620  137.0080 C   0  0  2  0  0  3  0  0  0  0  0  0
  187.9250  178.5220  136.4260 C   0  0  0  0  0  2  0  0  0  0  0  0
  186.2330  178.2340  138.3010 C   0  0  2  0  0  3  0  0  0  0  0  0
  186.8000  178.4870  140.4690 C   0  0  0  0  0  2  0  0  0  0  0  0
  188.1280  175.2780  134.7220 O   0  0  0  0  0  0  0  0  0  0  0  0
  188.4010  177.3930  135.6410 N   0  0  0  0  0  2  0  0  0  0  0  0
  186.0770  177.6690  139.5780 O   0  0  0  0  0  0  0  0  0  0  0  0
  183.9840  175.2870  138.4090 C   0  0  0  0  0  2  0  0  0  0  0  0
  187.5810  176.2900  135.2330 C   0  0  0  0  0  0  0  0  0  0  0  0
  185.2360  177.6230  137.3010 C   0  0  2  0  0  3  0  0  0  0  0  0
  188.3060  178.4260  140.1660 C   0  0  1  0  0  3  0  0  0  0  0  0
  183.7400  177.7890  137.6880 C   0  0  1  0  0  0  0  0  0  0  0  0
  188.8690  177.0430  140.4760 C   0  0  0  0  0  2  0  0  0  0  0  0
  189.1240  176.8990  141.9630 C   0  0  0  0  0  1  0  0  0  0  0  0
  182.8900  177.7120  136.3980 C   0  0  0  0  0  2  0  0  0  0  0  0
  181.4920  177.1370  136.6210 C   0  0  0  0  0  2  0  0  0  0  0  0
  182.2670  176.0560  134.5370 C   0  0  0  0  0  1  0  0  0  0  0  0
  181.1120  176.1830  135.5080 C   0  0  0  0  0  2  0  0  0  0  0  0
  183.5790  179.0520  138.3240 O   0  0  0  0  0  0  0  0  0  0  0  0
  182.7400  178.9390  139.4480 C   0  0  0  0  0  2  0  0  0  0  0  0
  181.5170  179.8090  139.2520 C   0  0  0  0  0  2  0  0  0  0  0  0
  180.6170  181.2920  137.4910 C   0  0  0  0  0  1  0  0  0  0  0  0
  181.8490  180.9340  138.2950 C   0  0  0  0  0  2  0  0  0  0  0  0
  185.1550  173.7720  136.8230 C   0  0  0  0  0  2  0  0  0  0  0  0
  184.4390  172.7730  137.7180 C   0  0  0  0  0  2  0  0  0  0  0  0
  182.0000  172.4850  136.9340 C   0  0  0  0  0  2  0  0  0  0  0  0
  183.4330  172.0010  136.9350 C   0  0  0  0  0  0  0  0  0  0  0  0
  183.8290  170.9580  136.1990 C   0  0  0  0  0  3  0  0  0  0  0  0
  183.2470  169.2250  134.6980 O   0  0  0  0  0  0  0  0  0  0  0  0
  181.4420  170.5510  135.4540 C   0  0  0  0  0  3  0  0  0  0  0  0
  182.8620  170.1940  135.4050 C   0  0  0  0  0  0  0  0  0  0  0  0
  181.0400  171.6020  136.1730 C   0  0  0  0  0  3  0  0  0  0  0  0
  3 16  1  0  0  0  0
  4  1  1  6  0  0  0
  4  6  1  0  0  0  0
  4 15  1  0  0  0  0
  5  7  1  6  0  0  0
  5  8  1  0  0  0  0
  5  3  1  0  0  0  0
  6 29  1  1  0  0  0
  6 13  1  0  0  0  0
  8 12  1  1  0  0  0
 10 14  2  0  0  0  0
 11  7  1  0  0  0  0
 12  9  1  0  0  0  0
 13  2  1  0  0  0  0
 14  1  1  0  0  0  0
 14 11  1  0  0  0  0
 15 17  1  0  0  0  0
 15  8  1  0  0  0  0
 16  9  1  0  0  0  0
 16 18  1  0  0  0  0
 17 24  1  0  0  0  0
 17  2  1  0  0  0  0
 18 19  1  0  0  0  0
 20 21  1  0  0  0  0
 20 17  1  0  0  0  0
 22 23  1  0  0  0  0
 23 21  1  0  0  0  0
 24 25  1  0  0  0  0
 26 25  1  0  0  0  0
 27 28  1  0  0  0  0
 28 26  1  0  0  0  0
 29 30  1  0  0  0  0
 31 32  1  0  0  0  0
 32 30  1  0  0  0  0
 33 32  2  0  0  0  0
 34 36  2  0  0  0  0
 35 37  2  0  0  0  0
 36 35  1  0  0  0  0
 36 33  1  0  0  0  0
 37 31  1  0  0  0  0
M  END
>  <MODEL>
9

>  <REMARK>
 VINA RESULT:      -4.3      3.889      9.182
  Name = 
  11 active torsions:
  status: ('A' for Active; 'I' for Inactive)
    1  A    between atoms: C_1  and  C_5
    2  A    between atoms: C_1  and  C_36
    3  A    between atoms: C_3  and  C_32
    4  A    between atoms: C_5  and  C_23
    5  A    between atoms: C_6  and  C_31
    6  A    between atoms: C_14  and  C_37
    7  A    between atoms: C_17  and  C_26
    8  A    between atoms: C_17  and  O_33
    9  A    between atoms: C_26  and  C_34
   10  A    between atoms: C_31  and  C_37
   11  A    between atoms: O_33  and  C_36
                            x       y       z     vdW  Elec       q    Type
                         _______ _______ _______ _____ _____    ______ ____

>  <TORSDO>
F 11

$$$$
