=
 OpenBabel10272414003D

 30 32  0  0  1  0  0  0  0  0999 V2000
  190.5960  176.3790  141.6810 C   0  0  0  0  0  2  0  0  0  0  0  0
  189.1380  176.8630  141.5060 C   0  0  2  0  0  3  0  0  0  0  0  0
  192.1010  178.7700  144.2970 C   0  0  0  0  0  1  0  0  0  0  0  0
  185.6100  178.4550  139.4080 C   0  0  0  0  0  2  0  0  0  0  0  0
  186.9100  177.4100  142.6250 C   0  0  0  0  0  2  0  0  0  0  0  0
  188.7360  178.7680  144.2330 O   0  0  0  0  0  0  0  0  0  0  0  0
  189.0080  178.1690  140.6580 C   0  0  2  0  0  3  0  0  0  0  0  0
  186.9010  178.7630  141.9180 C   0  0  2  0  0  3  0  0  0  0  0  0
  184.7270  178.5160  140.6530 C   0  0  0  0  0  2  0  0  0  0  0  0
  191.5060  177.4500  142.2930 C   0  0  0  0  0  2  0  0  0  0  0  0
  190.2890  177.0060  144.5120 C   0  0  2  0  0  3  0  0  0  0  0  0
  191.6030  177.4150  143.8230 C   0  0  2  0  0  3  0  0  0  0  0  0
  188.1900  175.5400  143.2530 O   0  0  0  0  0  1  0  0  0  0  0  0
  189.0580  177.6310  143.9210 C   0  0  0  0  0  0  0  0  0  0  0  0
  188.3290  176.8670  142.8350 C   0  0  1  0  0  0  0  0  0  0  0  0
  185.4680  179.2730  141.7580 C   0  0  0  0  0  2  0  0  0  0  0  0
  186.8090  177.7840  139.7070 O   0  0  0  0  0  0  0  0  0  0  0  0
  187.5560  178.6460  140.5370 C   0  0  2  0  0  3  0  0  0  0  0  0
  189.6130  178.1220  139.3130 N   0  0  0  0  0  0  0  0  0  0  0  0
  189.4560  176.7880  138.7570 C   0  0  0  0  0  1  0  0  0  0  0  0
  189.0180  179.0850  138.3910 C   0  0  0  0  0  2  0  0  0  0  0  0
  189.1030  178.5790  137.0340 N   0  0  0  0  0  2  0  0  0  0  0  0
  187.9340  178.3230  136.3080 C   0  0  0  0  0  0  0  0  0  0  0  0
  186.9260  178.1040  135.6830 C   0  0  0  0  0  3  0  0  0  0  0  0
  190.2830  176.8550  146.0430 C   0  0  1  0  0  3  0  0  0  0  0  0
  191.6960  177.1260  147.9940 C   0  0  0  0  0  1  0  0  0  0  0  0
  191.6480  176.7540  146.5840 N   0  0  0  0  0  0  0  0  0  0  0  0
  192.0790  175.3690  146.4830 C   0  0  0  0  0  1  0  0  0  0  0  0
  188.2470  177.0990  147.4660 C   0  0  0  0  0  1  0  0  0  0  0  0
  189.3740  177.8460  146.7820 C   0  0  0  0  0  2  0  0  0  0  0  0
  1 10  1  0  0  0  0
  2  1  1  1  0  0  0
  2 15  1  0  0  0  0
  4 17  1  0  0  0  0
  4  9  1  0  0  0  0
  5 15  1  0  0  0  0
  7 19  1  6  0  0  0
  7  2  1  0  0  0  0
  8 16  1  6  0  0  0
  8  5  1  0  0  0  0
  9 16  1  0  0  0  0
 10 12  1  0  0  0  0
 11 25  1  1  0  0  0
 12  3  1  1  0  0  0
 12 11  1  0  0  0  0
 14  6  2  0  0  0  0
 14 11  1  0  0  0  0
 15 13  1  1  0  0  0
 15 14  1  0  0  0  0
 18 17  1  6  0  0  0
 18  7  1  0  0  0  0
 18  8  1  0  0  0  0
 20 19  1  0  0  0  0
 21 19  1  0  0  0  0
 22 21  1  0  0  0  0
 23 22  1  0  0  0  0
 24 23  3  0  0  0  0
 25 27  1  0  0  0  0
 25 30  1  1  0  0  0
 27 26  1  0  0  0  0
 28 27  1  0  0  0  0
 30 29  1  0  0  0  0
M  END
>  <MODEL>
1

>  <REMARK>
 VINA RESULT:      -6.5      0.000      0.000
  Name = 
  7 active torsions:
  status: ('A' for Active; 'I' for Inactive)
    1  A    between atoms: C_6  and  N_8
    2  A    between atoms: C_6  and  N_21
    3  A    between atoms: N_8  and  C_13
    4  A    between atoms: C_9  and  N_21
    5  A    between atoms: N_14  and  C_28
    6  A    between atoms: C_19  and  C_28
    7  A    between atoms: C_28  and  C_29
                            x       y       z     vdW  Elec       q    Type
                         _______ _______ _______ _____ _____    ______ ____

>  <TORSDO>
F 7

$$$$
=
 OpenBabel10272414003D

 30 32  0  0  1  0  0  0  0  0999 V2000
  186.7160  176.8420  143.3000 C   0  0  0  0  0  2  0  0  0  0  0  0
  187.9570  176.6780  144.2070 C   0  0  2  0  0  3  0  0  0  0  0  0
  187.5890  179.8030  140.9980 C   0  0  0  0  0  1  0  0  0  0  0  0
  190.2610  176.5510  147.9570 C   0  0  0  0  0  2  0  0  0  0  0  0
  190.4830  176.3380  144.3460 C   0  0  0  0  0  2  0  0  0  0  0  0
  190.2600  178.4240  142.5120 O   0  0  0  0  0  0  0  0  0  0  0  0
  188.0620  177.7580  145.3300 C   0  0  2  0  0  3  0  0  0  0  0  0
  190.5760  177.5200  145.3070 C   0  0  2  0  0  3  0  0  0  0  0  0
  191.6110  176.3270  147.2790 C   0  0  0  0  0  2  0  0  0  0  0  0
  186.6380  178.2290  142.6500 C   0  0  0  0  0  2  0  0  0  0  0  0
  188.5790  177.4710  141.1470 C   0  0  2  0  0  3  0  0  0  0  0  0
  187.3130  178.3360  141.2770 C   0  0  2  0  0  3  0  0  0  0  0  0
  189.1610  175.1990  142.7700 O   0  0  0  0  0  1  0  0  0  0  0  0
  189.4760  177.5000  142.3510 C   0  0  0  0  0  0  0  0  0  0  0  0
  189.2710  176.4360  143.4100 C   0  0  1  0  0  0  0  0  0  0  0  0
  191.8130  177.3900  146.1970 C   0  0  0  0  0  2  0  0  0  0  0  0
  189.2290  176.4490  147.0070 O   0  0  0  0  0  0  0  0  0  0  0  0
  189.3220  177.5920  146.1860 C   0  0  2  0  0  3  0  0  0  0  0  0
  186.8900  177.8760  146.2180 N   0  0  0  0  0  0  0  0  0  0  0  0
  187.3350  178.0100  147.5960 C   0  0  0  0  0  1  0  0  0  0  0  0
  186.0420  179.0180  145.8880 C   0  0  0  0  0  2  0  0  0  0  0  0
  184.6490  178.6690  146.0930 N   0  0  0  0  0  2  0  0  0  0  0  0
  183.7290  178.8150  145.0490 C   0  0  0  0  0  0  0  0  0  0  0  0
  182.9370  178.9420  144.1490 C   0  0  0  0  0  3  0  0  0  0  0  0
  189.2990  177.4310  139.7880 C   0  0  1  0  0  3  0  0  0  0  0  0
  190.4210  175.6620  138.5690 C   0  0  0  0  0  1  0  0  0  0  0  0
  190.4060  176.4610  139.7890 N   0  0  0  0  0  0  0  0  0  0  0  0
  191.6590  177.1960  139.8450 C   0  0  0  0  0  1  0  0  0  0  0  0
  188.6020  178.5230  137.6550 C   0  0  0  0  0  1  0  0  0  0  0  0
  188.3700  177.3390  138.5710 C   0  0  0  0  0  2  0  0  0  0  0  0
  2  1  1  6  0  0  0
  2  7  1  0  0  0  0
  7 18  1  0  0  0  0
  7 19  1  1  0  0  0
  8  5  1  6  0  0  0
  8 18  1  0  0  0  0
  8 16  1  0  0  0  0
  9  4  1  0  0  0  0
 10  1  1  0  0  0  0
 11 25  1  6  0  0  0
 11 12  1  0  0  0  0
 11 14  1  0  0  0  0
 12  3  1  1  0  0  0
 12 10  1  0  0  0  0
 14  6  2  0  0  0  0
 14 15  1  0  0  0  0
 15 13  1  6  0  0  0
 15  2  1  0  0  0  0
 15  5  1  0  0  0  0
 16  9  1  0  0  0  0
 17  4  1  0  0  0  0
 18 17  1  6  0  0  0
 19 20  1  0  0  0  0
 21 22  1  0  0  0  0
 21 19  1  0  0  0  0
 23 22  1  0  0  0  0
 24 23  3  0  0  0  0
 25 30  1  6  0  0  0
 25 27  1  0  0  0  0
 26 27  1  0  0  0  0
 27 28  1  0  0  0  0
 29 30  1  0  0  0  0
M  END
>  <MODEL>
2

>  <REMARK>
 VINA RESULT:      -6.3      2.390      6.928
  Name = 
  7 active torsions:
  status: ('A' for Active; 'I' for Inactive)
    1  A    between atoms: C_6  and  N_8
    2  A    between atoms: C_6  and  N_21
    3  A    between atoms: N_8  and  C_13
    4  A    between atoms: C_9  and  N_21
    5  A    between atoms: N_14  and  C_28
    6  A    between atoms: C_19  and  C_28
    7  A    between atoms: C_28  and  C_29
                            x       y       z     vdW  Elec       q    Type
                         _______ _______ _______ _____ _____    ______ ____

>  <TORSDO>
F 7

$$$$
=
 OpenBabel10272414003D

 30 32  0  0  1  0  0  0  0  0999 V2000
  187.7380  179.2200  141.7890 C   0  0  0  0  0  2  0  0  0  0  0  0
  188.6640  178.5620  140.7410 C   0  0  2  0  0  3  0  0  0  0  0  0
  186.7800  176.3500  144.1700 C   0  0  0  0  0  1  0  0  0  0  0  0
  190.0070  177.2480  136.7590 C   0  0  0  0  0  2  0  0  0  0  0  0
  190.7700  177.1880  140.3010 C   0  0  0  0  0  2  0  0  0  0  0  0
  189.4910  175.7040  142.2820 O   0  0  0  0  0  0  0  0  0  0  0  0
  187.9050  177.6950  139.6870 C   0  0  2  0  0  3  0  0  0  0  0  0
  189.9570  176.2470  139.4160 C   0  0  2  0  0  3  0  0  0  0  0  0
  191.2560  176.5290  137.2670 C   0  0  0  0  0  2  0  0  0  0  0  0
  186.8680  178.2010  142.5330 C   0  0  0  0  0  2  0  0  0  0  0  0
  189.0100  177.4890  143.7590 C   0  0  2  0  0  3  0  0  0  0  0  0
  187.4820  177.6520  143.8270 C   0  0  2  0  0  3  0  0  0  0  0  0
  190.7080  178.8780  141.9350 O   0  0  0  0  0  1  0  0  0  0  0  0
  189.5150  176.9120  142.4670 C   0  0  0  0  0  0  0  0  0  0  0  0
  189.9120  177.8770  141.3700 C   0  0  1  0  0  0  0  0  0  0  0  0
  190.8600  175.5650  138.3880 C   0  0  0  0  0  2  0  0  0  0  0  0
  189.4150  177.9730  137.8090 O   0  0  0  0  0  0  0  0  0  0  0  0
  188.8530  177.0240  138.6880 C   0  0  2  0  0  3  0  0  0  0  0  0
  186.8320  178.3830  138.9440 N   0  0  0  0  0  0  0  0  0  0  0  0
  186.5930  177.6940  137.6860 C   0  0  0  0  0  1  0  0  0  0  0  0
  185.5770  178.4450  139.6880 C   0  0  0  0  0  2  0  0  0  0  0  0
  184.9080  179.7020  139.4150 N   0  0  0  0  0  2  0  0  0  0  0  0
  183.5550  179.7120  139.0560 C   0  0  0  0  0  0  0  0  0  0  0  0
  182.3900  179.7210  138.7460 C   0  0  0  0  0  3  0  0  0  0  0  0
  189.7520  177.0240  145.0240 C   0  0  1  0  0  3  0  0  0  0  0  0
  191.8540  178.1870  144.7010 C   0  0  0  0  0  1  0  0  0  0  0  0
  191.1980  176.8870  144.7860 N   0  0  0  0  0  0  0  0  0  0  0  0
  191.7820  176.1770  145.9130 C   0  0  0  0  0  1  0  0  0  0  0  0
  188.6780  176.8640  147.2710 C   0  0  0  0  0  1  0  0  0  0  0  0
  189.3840  177.7890  146.3020 C   0  0  0  0  0  2  0  0  0  0  0  0
  1 10  1  0  0  0  0
  2 15  1  0  0  0  0
  2  1  1  1  0  0  0
  4  9  1  0  0  0  0
  4 17  1  0  0  0  0
  5 15  1  0  0  0  0
  6 14  2  0  0  0  0
  7 19  1  6  0  0  0
  7  2  1  0  0  0  0
  8 16  1  6  0  0  0
  8  5  1  0  0  0  0
  9 16  1  0  0  0  0
 10 12  1  0  0  0  0
 11 12  1  0  0  0  0
 11 25  1  1  0  0  0
 12  3  1  6  0  0  0
 14 11  1  0  0  0  0
 15 13  1  1  0  0  0
 15 14  1  0  0  0  0
 18 17  1  6  0  0  0
 18  8  1  0  0  0  0
 18  7  1  0  0  0  0
 19 21  1  0  0  0  0
 20 19  1  0  0  0  0
 22 21  1  0  0  0  0
 23 22  1  0  0  0  0
 24 23  3  0  0  0  0
 25 30  1  1  0  0  0
 26 27  1  0  0  0  0
 27 25  1  0  0  0  0
 27 28  1  0  0  0  0
 30 29  1  0  0  0  0
M  END
>  <MODEL>
3

>  <REMARK>
 VINA RESULT:      -6.1      1.915      3.984
  Name = 
  7 active torsions:
  status: ('A' for Active; 'I' for Inactive)
    1  A    between atoms: C_6  and  N_8
    2  A    between atoms: C_6  and  N_21
    3  A    between atoms: N_8  and  C_13
    4  A    between atoms: C_9  and  N_21
    5  A    between atoms: N_14  and  C_28
    6  A    between atoms: C_19  and  C_28
    7  A    between atoms: C_28  and  C_29
                            x       y       z     vdW  Elec       q    Type
                         _______ _______ _______ _____ _____    ______ ____

>  <TORSDO>
F 7

$$$$
=
 OpenBabel10272414003D

 30 32  0  0  1  0  0  0  0  0999 V2000
  190.3510  176.1150  142.1130 C   0  0  0  0  0  2  0  0  0  0  0  0
  188.9490  176.7230  141.8780 C   0  0  2  0  0  3  0  0  0  0  0  0
  192.1370  178.6550  144.3890 C   0  0  0  0  0  1  0  0  0  0  0  0
  185.5710  178.3890  139.5990 C   0  0  0  0  0  2  0  0  0  0  0  0
  186.8070  177.6410  142.9220 C   0  0  0  0  0  2  0  0  0  0  0  0
  188.7890  178.9970  144.3350 O   0  0  0  0  0  0  0  0  0  0  0  0
  188.9400  177.9140  140.8680 C   0  0  2  0  0  3  0  0  0  0  0  0
  186.9270  178.8830  142.0440 C   0  0  2  0  0  3  0  0  0  0  0  0
  184.7190  178.7040  140.8270 C   0  0  0  0  0  2  0  0  0  0  0  0
  191.3770  177.1560  142.5770 C   0  0  0  0  0  2  0  0  0  0  0  0
  190.1560  177.1330  144.8380 C   0  0  2  0  0  3  0  0  0  0  0  0
  191.4940  177.3110  144.0980 C   0  0  2  0  0  3  0  0  0  0  0  0
  187.8970  175.7450  143.7860 O   0  0  0  0  0  1  0  0  0  0  0  0
  188.9870  177.8020  144.1730 C   0  0  0  0  0  0  0  0  0  0  0  0
  188.1660  176.9840  143.1980 C   0  0  1  0  0  0  0  0  0  0  0  0
  185.5520  179.5150  141.8220 C   0  0  0  0  0  2  0  0  0  0  0  0
  186.6990  177.6410  139.9800 O   0  0  0  0  0  0  0  0  0  0  0  0
  187.5450  178.5200  140.6880 C   0  0  2  0  0  3  0  0  0  0  0  0
  189.5160  177.6300  139.5390 N   0  0  0  0  0  0  0  0  0  0  0  0
  189.2320  178.7370  138.6400 C   0  0  0  0  0  1  0  0  0  0  0  0
  190.9610  177.4220  139.5800 C   0  0  0  0  0  2  0  0  0  0  0  0
  191.3130  176.2730  138.7680 N   0  0  0  0  0  2  0  0  0  0  0  0
  192.3890  176.3480  137.8770 C   0  0  0  0  0  0  0  0  0  0  0  0
  193.3160  176.4130  137.1090 C   0  0  0  0  0  3  0  0  0  0  0  0
  190.1590  177.1840  146.3750 C   0  0  1  0  0  3  0  0  0  0  0  0
  187.9210  176.6760  147.1540 C   0  0  0  0  0  1  0  0  0  0  0  0
  188.8980  177.7290  146.9020 N   0  0  0  0  0  0  0  0  0  0  0  0
  189.1760  178.3790  148.1730 C   0  0  0  0  0  1  0  0  0  0  0  0
  192.0890  176.0330  147.4610 C   0  0  0  0  0  1  0  0  0  0  0  0
  190.6350  175.8960  147.0590 C   0  0  0  0  0  2  0  0  0  0  0  0
  1 10  1  0  0  0  0
  2  1  1  1  0  0  0
  2 15  1  0  0  0  0
  4 17  1  0  0  0  0
  4  9  1  0  0  0  0
  5 15  1  0  0  0  0
  7 19  1  6  0  0  0
  7  2  1  0  0  0  0
  8 16  1  6  0  0  0
  8  5  1  0  0  0  0
  9 16  1  0  0  0  0
 10 12  1  0  0  0  0
 11 25  1  1  0  0  0
 12  3  1  6  0  0  0
 12 11  1  0  0  0  0
 14  6  2  0  0  0  0
 14 11  1  0  0  0  0
 15 13  1  1  0  0  0
 15 14  1  0  0  0  0
 18 17  1  1  0  0  0
 18  7  1  0  0  0  0
 18  8  1  0  0  0  0
 19 21  1  0  0  0  0
 20 19  1  0  0  0  0
 22 21  1  0  0  0  0
 23 22  1  0  0  0  0
 24 23  3  0  0  0  0
 25 27  1  0  0  0  0
 25 30  1  1  0  0  0
 27 26  1  0  0  0  0
 27 28  1  0  0  0  0
 30 29  1  0  0  0  0
M  END
>  <MODEL>
4

>  <REMARK>
 VINA RESULT:      -6.0      1.355      2.347
  Name = 
  7 active torsions:
  status: ('A' for Active; 'I' for Inactive)
    1  A    between atoms: C_6  and  N_8
    2  A    between atoms: C_6  and  N_21
    3  A    between atoms: N_8  and  C_13
    4  A    between atoms: C_9  and  N_21
    5  A    between atoms: N_14  and  C_28
    6  A    between atoms: C_19  and  C_28
    7  A    between atoms: C_28  and  C_29
                            x       y       z     vdW  Elec       q    Type
                         _______ _______ _______ _____ _____    ______ ____

>  <TORSDO>
F 7

$$$$
=
 OpenBabel10272414003D

 30 32  0  0  1  0  0  0  0  0999 V2000
  188.5140  176.5220  142.7030 C   0  0  0  0  0  2  0  0  0  0  0  0
  187.1060  177.0760  143.0200 C   0  0  2  0  0  3  0  0  0  0  0  0
  190.9290  179.0120  144.3750 C   0  0  0  0  0  1  0  0  0  0  0  0
  183.1000  178.7050  142.1970 C   0  0  0  0  0  2  0  0  0  0  0  0
  185.4510  177.8310  144.8120 C   0  0  0  0  0  2  0  0  0  0  0  0
  187.7720  179.1990  145.5260 O   0  0  0  0  0  0  0  0  0  0  0  0
  186.7110  178.3190  142.1620 C   0  0  2  0  0  3  0  0  0  0  0  0
  185.2220  179.1250  144.0360 C   0  0  2  0  0  3  0  0  0  0  0  0
  182.7320  178.9100  143.6650 C   0  0  0  0  0  2  0  0  0  0  0  0
  189.6130  177.5820  142.8470 C   0  0  0  0  0  2  0  0  0  0  0  0
  189.2730  177.3760  145.3860 C   0  0  2  0  0  3  0  0  0  0  0  0
  190.2570  177.6570  144.2370 C   0  0  2  0  0  3  0  0  0  0  0  0
  186.8230  175.9440  145.1040 O   0  0  0  0  0  1  0  0  0  0  0  0
  187.9290  178.0250  145.2230 C   0  0  0  0  0  0  0  0  0  0  0  0
  186.8350  177.2250  144.5460 C   0  0  1  0  0  0  0  0  0  0  0  0
  183.8430  179.7030  144.3560 C   0  0  0  0  0  2  0  0  0  0  0  0
  184.3080  177.9910  142.1040 O   0  0  0  0  0  0  0  0  0  0  0  0
  185.3280  178.8680  142.5280 C   0  0  2  0  0  3  0  0  0  0  0  0
  186.7850  178.1380  140.7000 N   0  0  0  0  0  0  0  0  0  0  0  0
  185.7220  178.8980  140.0610 C   0  0  0  0  0  1  0  0  0  0  0  0
  188.0640  178.5640  140.1400 C   0  0  0  0  0  2  0  0  0  0  0  0
  188.4550  177.6640  139.0710 N   0  0  0  0  0  2  0  0  0  0  0  0
  189.6820  176.9940  139.1330 C   0  0  0  0  0  0  0  0  0  0  0  0
  190.7400  176.4180  139.1870 C   0  0  0  0  0  3  0  0  0  0  0  0
  189.8200  177.3410  146.8230 C   0  0  1  0  0  3  0  0  0  0  0  0
  188.0520  176.7860  148.3870 C   0  0  0  0  0  1  0  0  0  0  0  0
  188.8390  177.8600  147.7900 N   0  0  0  0  0  0  0  0  0  0  0  0
  189.5600  178.5220  148.8650 C   0  0  0  0  0  1  0  0  0  0  0  0
  191.9820  176.1230  147.0920 C   0  0  0  0  0  1  0  0  0  0  0  0
  190.4770  176.0160  147.2290 C   0  0  0  0  0  2  0  0  0  0  0  0
  1 10  1  0  0  0  0
  2  1  1  1  0  0  0
  2 15  1  0  0  0  0
  4  9  1  0  0  0  0
  7 19  1  6  0  0  0
  7 18  1  0  0  0  0
  7  2  1  0  0  0  0
  8 16  1  6  0  0  0
  8  5  1  0  0  0  0
  9 16  1  0  0  0  0
 10 12  1  0  0  0  0
 11 25  1  1  0  0  0
 12  3  1  1  0  0  0
 12 11  1  0  0  0  0
 14 11  1  0  0  0  0
 14  6  2  0  0  0  0
 15  5  1  0  0  0  0
 15 13  1  1  0  0  0
 15 14  1  0  0  0  0
 17  4  1  0  0  0  0
 18 17  1  1  0  0  0
 18  8  1  0  0  0  0
 20 19  1  0  0  0  0
 21 19  1  0  0  0  0
 22 23  1  0  0  0  0
 22 21  1  0  0  0  0
 23 24  3  0  0  0  0
 25 30  1  1  0  0  0
 25 27  1  0  0  0  0
 27 26  1  0  0  0  0
 27 28  1  0  0  0  0
 29 30  1  0  0  0  0
M  END
>  <MODEL>
5

>  <REMARK>
 VINA RESULT:      -5.9      1.887      2.983
  Name = 
  7 active torsions:
  status: ('A' for Active; 'I' for Inactive)
    1  A    between atoms: C_6  and  N_8
    2  A    between atoms: C_6  and  N_21
    3  A    between atoms: N_8  and  C_13
    4  A    between atoms: C_9  and  N_21
    5  A    between atoms: N_14  and  C_28
    6  A    between atoms: C_19  and  C_28
    7  A    between atoms: C_28  and  C_29
                            x       y       z     vdW  Elec       q    Type
                         _______ _______ _______ _____ _____    ______ ____

>  <TORSDO>
F 7

$$$$
=
 OpenBabel10272414003D

 30 32  0  0  1  0  0  0  0  0999 V2000
  186.1110  179.3130  142.1590 C   0  0  0  0  0  2  0  0  0  0  0  0
  186.8000  179.0230  140.8060 C   0  0  2  0  0  3  0  0  0  0  0  0
  186.7310  176.1460  144.2580 C   0  0  0  0  0  1  0  0  0  0  0  0
  187.1220  178.4130  136.4580 C   0  0  0  0  0  2  0  0  0  0  0  0
  188.9440  178.3590  139.5900 C   0  0  0  0  0  2  0  0  0  0  0  0
  188.7840  176.4440  141.6070 O   0  0  0  0  0  0  0  0  0  0  0  0
  186.0030  178.0380  139.8930 C   0  0  2  0  0  3  0  0  0  0  0  0
  188.1690  177.2780  138.8410 C   0  0  2  0  0  3  0  0  0  0  0  0
  188.6080  178.0620  136.4790 C   0  0  0  0  0  2  0  0  0  0  0  0
  185.8160  178.0390  142.9590 C   0  0  0  0  0  2  0  0  0  0  0  0
  188.3420  177.9130  143.4090 C   0  0  2  0  0  3  0  0  0  0  0  0
  186.9250  177.6150  143.9290 C   0  0  2  0  0  3  0  0  0  0  0  0
  188.9580  179.8500  141.4080 O   0  0  0  0  0  1  0  0  0  0  0  0
  188.5490  177.5920  141.9560 C   0  0  0  0  0  0  0  0  0  0  0  0
  188.3160  178.6980  140.9480 C   0  0  1  0  0  0  0  0  0  0  0  0
  188.8500  176.9570  137.5100 C   0  0  0  0  0  2  0  0  0  0  0  0
  186.7210  178.8650  137.7280 O   0  0  0  0  0  0  0  0  0  0  0  0
  186.7310  177.7390  138.5780 C   0  0  2  0  0  3  0  0  0  0  0  0
  184.6110  178.4260  139.5950 N   0  0  0  0  0  0  0  0  0  0  0  0
  184.2880  178.0600  138.2250 C   0  0  0  0  0  1  0  0  0  0  0  0
  183.6430  177.7940  140.4870 C   0  0  0  0  0  2  0  0  0  0  0  0
  182.7080  178.7890  140.9780 N   0  0  0  0  0  2  0  0  0  0  0  0
  182.3280  178.7880  142.3240 C   0  0  0  0  0  0  0  0  0  0  0  0
  182.0000  178.7880  143.4850 C   0  0  0  0  0  3  0  0  0  0  0  0
  189.5370  177.6080  144.3280 C   0  0  1  0  0  3  0  0  0  0  0  0
  191.5860  178.8820  144.0960 C   0  0  0  0  0  1  0  0  0  0  0  0
  190.8180  177.7390  143.6160 N   0  0  0  0  0  0  0  0  0  0  0  0
  191.6070  176.5450  143.8700 C   0  0  0  0  0  1  0  0  0  0  0  0
  189.2910  177.2820  146.7910 C   0  0  0  0  0  1  0  0  0  0  0  0
  189.4910  178.3070  145.6930 C   0  0  0  0  0  2  0  0  0  0  0  0
  1 10  1  0  0  0  0
  2 15  1  0  0  0  0
  2  1  1  1  0  0  0
  4  9  1  0  0  0  0
  4 17  1  0  0  0  0
  5 15  1  0  0  0  0
  6 14  2  0  0  0  0
  7 19  1  6  0  0  0
  7  2  1  0  0  0  0
  8 16  1  6  0  0  0
  8  5  1  0  0  0  0
  9 16  1  0  0  0  0
 10 12  1  0  0  0  0
 11 12  1  0  0  0  0
 11 25  1  1  0  0  0
 12  3  1  6  0  0  0
 14 11  1  0  0  0  0
 15 13  1  1  0  0  0
 15 14  1  0  0  0  0
 18 17  1  6  0  0  0
 18  8  1  0  0  0  0
 18  7  1  0  0  0  0
 19 21  1  0  0  0  0
 20 19  1  0  0  0  0
 21 22  1  0  0  0  0
 22 23  1  0  0  0  0
 23 24  3  0  0  0  0
 25 30  1  1  0  0  0
 27 28  1  0  0  0  0
 27 26  1  0  0  0  0
 27 25  1  0  0  0  0
 30 29  1  0  0  0  0
M  END
>  <MODEL>
6

>  <REMARK>
 VINA RESULT:      -5.4      2.294      4.659
  Name = 
  7 active torsions:
  status: ('A' for Active; 'I' for Inactive)
    1  A    between atoms: C_6  and  N_8
    2  A    between atoms: C_6  and  N_21
    3  A    between atoms: N_8  and  C_13
    4  A    between atoms: C_9  and  N_21
    5  A    between atoms: N_14  and  C_28
    6  A    between atoms: C_19  and  C_28
    7  A    between atoms: C_28  and  C_29
                            x       y       z     vdW  Elec       q    Type
                         _______ _______ _______ _____ _____    ______ ____

>  <TORSDO>
F 7

$$$$
=
 OpenBabel10272414003D

 30 32  0  0  1  0  0  0  0  0999 V2000
  188.2200  178.8110  137.3790 C   0  0  0  0  0  2  0  0  0  0  0  0
  187.1620  177.8710  136.7570 C   0  0  2  0  0  3  0  0  0  0  0  0
  190.3320  176.5270  139.6470 C   0  0  0  0  0  1  0  0  0  0  0  0
  183.1490  176.3100  135.8400 C   0  0  0  0  0  2  0  0  0  0  0  0
  186.7040  175.7400  135.4270 C   0  0  0  0  0  2  0  0  0  0  0  0
  188.5110  174.8620  137.3570 O   0  0  0  0  0  0  0  0  0  0  0  0
  186.0150  177.4770  137.7410 C   0  0  2  0  0  3  0  0  0  0  0  0
  185.7170  175.2960  136.5030 C   0  0  2  0  0  3  0  0  0  0  0  0
  183.6500  175.0940  135.0630 C   0  0  0  0  0  2  0  0  0  0  0  0
  188.8480  178.2360  138.6540 C   0  0  0  0  0  2  0  0  0  0  0  0
  190.1000  176.5990  137.1210 C   0  0  2  0  0  3  0  0  0  0  0  0
  190.1190  177.4080  138.4290 C   0  0  2  0  0  3  0  0  0  0  0  0
  188.4590  177.2010  134.8670 O   0  0  0  0  0  1  0  0  0  0  0  0
  188.7900  175.9270  136.8260 C   0  0  0  0  0  0  0  0  0  0  0  0
  187.7870  176.6790  135.9750 C   0  0  1  0  0  0  0  0  0  0  0  0
  184.6770  174.3420  135.9140 C   0  0  0  0  0  2  0  0  0  0  0  0
  184.2260  177.1650  136.1320 O   0  0  0  0  0  0  0  0  0  0  0  0
  185.0060  176.5120  137.1090 C   0  0  2  0  0  3  0  0  0  0  0  0
  185.2850  178.6020  138.3560 N   0  0  0  0  0  0  0  0  0  0  0  0
  183.8530  178.3720  138.2410 C   0  0  0  0  0  1  0  0  0  0  0  0
  185.6150  178.7880  139.7660 C   0  0  0  0  0  2  0  0  0  0  0  0
  184.4240  178.6090  140.5750 N   0  0  0  0  0  2  0  0  0  0  0  0
  184.5320  178.5040  141.9670 C   0  0  0  0  0  0  0  0  0  0  0  0
  184.6260  178.4130  143.1650 C   0  0  0  0  0  3  0  0  0  0  0  0
  191.3550  175.7920  136.7430 C   0  0  1  0  0  3  0  0  0  0  0  0
  192.1120  175.8380  134.4410 C   0  0  0  0  0  1  0  0  0  0  0  0
  191.2310  175.1900  135.4060 N   0  0  0  0  0  0  0  0  0  0  0  0
  191.6310  173.7950  135.4930 C   0  0  0  0  0  1  0  0  0  0  0  0
  193.5070  175.7400  138.0070 C   0  0  0  0  0  1  0  0  0  0  0  0
  192.6840  176.5150  136.9980 C   0  0  0  0  0  2  0  0  0  0  0  0
  1 10  1  0  0  0  0
  2  1  1  1  0  0  0
  2  7  1  0  0  0  0
  4 17  1  0  0  0  0
  5 15  1  0  0  0  0
  7 19  1  6  0  0  0
  8  5  1  6  0  0  0
  8 18  1  0  0  0  0
  9  4  1  0  0  0  0
  9 16  1  0  0  0  0
 11 25  1  1  0  0  0
 11 12  1  0  0  0  0
 12 10  1  0  0  0  0
 12  3  1  1  0  0  0
 14 11  1  0  0  0  0
 14  6  2  0  0  0  0
 15 13  1  6  0  0  0
 15  2  1  0  0  0  0
 15 14  1  0  0  0  0
 16  8  1  0  0  0  0
 18 17  1  6  0  0  0
 18  7  1  0  0  0  0
 19 21  1  0  0  0  0
 20 19  1  0  0  0  0
 21 22  1  0  0  0  0
 22 23  1  0  0  0  0
 23 24  3  0  0  0  0
 25 30  1  6  0  0  0
 26 27  1  0  0  0  0
 27 28  1  0  0  0  0
 27 25  1  0  0  0  0
 30 29  1  0  0  0  0
M  END
>  <MODEL>
7

>  <REMARK>
 VINA RESULT:      -5.4      4.587      7.472
  Name = 
  7 active torsions:
  status: ('A' for Active; 'I' for Inactive)
    1  A    between atoms: C_6  and  N_8
    2  A    between atoms: C_6  and  N_21
    3  A    between atoms: N_8  and  C_13
    4  A    between atoms: C_9  and  N_21
    5  A    between atoms: N_14  and  C_28
    6  A    between atoms: C_19  and  C_28
    7  A    between atoms: C_28  and  C_29
                            x       y       z     vdW  Elec       q    Type
                         _______ _______ _______ _____ _____    ______ ____

>  <TORSDO>
F 7

$$$$
=
 OpenBabel10272414003D

 30 32  0  0  1  0  0  0  0  0999 V2000
  191.7260  174.7810  134.8840 C   0  0  0  0  0  2  0  0  0  0  0  0
  190.9990  175.3470  136.1250 C   0  0  2  0  0  3  0  0  0  0  0  0
  195.0250  176.7590  134.7100 C   0  0  0  0  0  1  0  0  0  0  0  0
  187.8020  177.3410  138.4030 C   0  0  0  0  0  2  0  0  0  0  0  0
  191.0970  175.8490  138.6260 C   0  0  0  0  0  2  0  0  0  0  0  0
  193.5020  176.9150  137.7080 O   0  0  0  0  0  0  0  0  0  0  0  0
  190.3580  176.7530  135.8900 C   0  0  2  0  0  3  0  0  0  0  0  0
  190.6400  177.2780  138.3440 C   0  0  2  0  0  3  0  0  0  0  0  0
  188.5350  177.2870  139.7420 C   0  0  0  0  0  2  0  0  0  0  0  0
  192.8080  175.7260  134.3490 C   0  0  0  0  0  2  0  0  0  0  0  0
  194.1960  175.0640  136.4070 C   0  0  2  0  0  3  0  0  0  0  0  0
  194.2090  175.4980  134.9310 C   0  0  2  0  0  3  0  0  0  0  0  0
  191.9690  173.8610  137.7220 O   0  0  0  0  0  1  0  0  0  0  0  0
  193.2160  175.8120  137.2640 C   0  0  0  0  0  0  0  0  0  0  0  0
  191.8310  175.2210  137.4340 C   0  0  1  0  0  0  0  0  0  0  0  0
  189.9410  177.8670  139.5700 C   0  0  0  0  0  2  0  0  0  0  0  0
  188.5030  176.5870  137.4450 O   0  0  0  0  0  0  0  0  0  0  0  0
  189.6810  177.3050  137.1490 C   0  0  2  0  0  3  0  0  0  0  0  0
  189.4180  176.8470  134.7570 N   0  0  0  0  0  0  0  0  0  0  0  0
  188.7470  175.5690  134.5760 C   0  0  0  0  0  1  0  0  0  0  0  0
  188.4060  177.8820  134.9450 C   0  0  0  0  0  2  0  0  0  0  0  0
  187.1550  177.4580  134.3460 N   0  0  0  0  0  2  0  0  0  0  0  0
  186.0010  177.3580  135.1310 C   0  0  0  0  0  0  0  0  0  0  0  0
  185.0070  177.2730  135.8080 C   0  0  0  0  0  3  0  0  0  0  0  0
  195.5370  174.7250  137.0800 C   0  0  1  0  0  3  0  0  0  0  0  0
  195.3530  172.7470  138.4700 C   0  0  0  0  0  1  0  0  0  0  0  0
  195.3440  174.2060  138.4440 N   0  0  0  0  0  0  0  0  0  0  0  0
  196.4510  174.6630  139.2690 C   0  0  0  0  0  1  0  0  0  0  0  0
  197.7510  174.7110  135.9270 C   0  0  0  0  0  1  0  0  0  0  0  0
  196.5010  173.9040  136.2140 C   0  0  0  0  0  2  0  0  0  0  0  0
  2  1  1  6  0  0  0
  2 15  1  0  0  0  0
  4  9  1  0  0  0  0
  7 19  1  6  0  0  0
  7  2  1  0  0  0  0
  7 18  1  0  0  0  0
  8  5  1  1  0  0  0
  8 16  1  0  0  0  0
 10  1  1  0  0  0  0
 10 12  1  0  0  0  0
 11 25  1  1  0  0  0
 11 14  1  0  0  0  0
 12  3  1  1  0  0  0
 12 11  1  0  0  0  0
 14 15  1  0  0  0  0
 14  6  2  0  0  0  0
 15 13  1  1  0  0  0
 15  5  1  0  0  0  0
 16  9  1  0  0  0  0
 17  4  1  0  0  0  0
 18 17  1  1  0  0  0
 18  8  1  0  0  0  0
 19 21  1  0  0  0  0
 20 19  1  0  0  0  0
 22 21  1  0  0  0  0
 22 23  1  0  0  0  0
 23 24  3  0  0  0  0
 25 30  1  6  0  0  0
 25 27  1  0  0  0  0
 27 26  1  0  0  0  0
 27 28  1  0  0  0  0
 29 30  1  0  0  0  0
M  END
>  <MODEL>
8

>  <REMARK>
 VINA RESULT:      -5.3      4.853      7.540
  Name = 
  7 active torsions:
  status: ('A' for Active; 'I' for Inactive)
    1  A    between atoms: C_6  and  N_8
    2  A    between atoms: C_6  and  N_21
    3  A    between atoms: N_8  and  C_13
    4  A    between atoms: C_9  and  N_21
    5  A    between atoms: N_14  and  C_28
    6  A    between atoms: C_19  and  C_28
    7  A    between atoms: C_28  and  C_29
                            x       y       z     vdW  Elec       q    Type
                         _______ _______ _______ _____ _____    ______ ____

>  <TORSDO>
F 7

$$$$
=
 OpenBabel10272414003D

 30 32  0  0  1  0  0  0  0  0999 V2000
  190.5300  178.4650  144.6090 C   0  0  0  0  0  2  0  0  0  0  0  0
  189.0190  178.5970  144.3110 C   0  0  2  0  0  3  0  0  0  0  0  0
  191.5000  175.0240  143.1800 C   0  0  0  0  0  1  0  0  0  0  0  0
  184.7280  179.0550  145.1860 C   0  0  0  0  0  2  0  0  0  0  0  0
  187.1670  178.5480  142.5540 C   0  0  0  0  0  2  0  0  0  0  0  0
  188.5870  176.2180  141.9910 O   0  0  0  0  0  0  0  0  0  0  0  0
  188.1140  177.7430  145.2560 C   0  0  2  0  0  3  0  0  0  0  0  0
  186.3850  177.5670  143.4240 C   0  0  2  0  0  3  0  0  0  0  0  0
  184.2780  178.9290  143.7320 C   0  0  0  0  0  2  0  0  0  0  0  0
  191.0170  177.0120  144.5680 C   0  0  0  0  0  2  0  0  0  0  0  0
  190.7600  177.1530  142.0160 C   0  0  2  0  0  3  0  0  0  0  0  0
  191.5280  176.5420  143.2000 C   0  0  2  0  0  3  0  0  0  0  0  0
  189.2450  179.5670  142.1410 O   0  0  0  0  0  1  0  0  0  0  0  0
  189.2710  177.2080  142.2040 C   0  0  0  0  0  0  0  0  0  0  0  0
  188.6800  178.4710  142.7970 C   0  0  1  0  0  0  0  0  0  0  0  0
  184.8880  177.6630  143.1250 C   0  0  0  0  0  2  0  0  0  0  0  0
  186.1310  179.1400  145.2450 O   0  0  0  0  0  0  0  0  0  0  0  0
  186.6270  177.8630  144.9090 C   0  0  2  0  0  3  0  0  0  0  0  0
  188.2930  177.9830  146.7010 N   0  0  0  0  0  0  0  0  0  0  0  0
  186.9920  178.1510  147.3290 C   0  0  0  0  0  1  0  0  0  0  0  0
  188.9980  176.8960  147.3730 C   0  0  0  0  0  2  0  0  0  0  0  0
  190.2860  177.3680  147.8460 N   0  0  0  0  0  2  0  0  0  0  0  0
  191.3990  176.5200  147.8100 C   0  0  0  0  0  0  0  0  0  0  0  0
  192.3570  175.7880  147.7800 C   0  0  0  0  0  3  0  0  0  0  0  0
  191.2330  176.8220  140.5900 C   0  0  1  0  0  3  0  0  0  0  0  0
  189.7990  178.0370  139.0590 C   0  0  0  0  0  1  0  0  0  0  0  0
  190.1040  176.7390  139.6490 N   0  0  0  0  0  0  0  0  0  0  0  0
  190.4770  175.8440  138.5650 C   0  0  0  0  0  1  0  0  0  0  0  0
  193.6520  176.7950  139.9770 C   0  0  0  0  0  1  0  0  0  0  0  0
  192.4160  177.6630  140.0940 C   0  0  0  0  0  2  0  0  0  0  0  0
  2  1  1  6  0  0  0
  2  7  1  0  0  0  0
  4 17  1  0  0  0  0
  5 15  1  0  0  0  0
  6 14  2  0  0  0  0
  7 19  1  1  0  0  0
  8  5  1  6  0  0  0
  8 18  1  0  0  0  0
  9  4  1  0  0  0  0
 10  1  1  0  0  0  0
 11 25  1  6  0  0  0
 11 14  1  0  0  0  0
 11 12  1  0  0  0  0
 12  3  1  1  0  0  0
 12 10  1  0  0  0  0
 14 15  1  0  0  0  0
 15 13  1  6  0  0  0
 15  2  1  0  0  0  0
 16  8  1  0  0  0  0
 16  9  1  0  0  0  0
 18 17  1  6  0  0  0
 18  7  1  0  0  0  0
 19 20  1  0  0  0  0
 19 21  1  0  0  0  0
 21 22  1  0  0  0  0
 23 22  1  0  0  0  0
 24 23  3  0  0  0  0
 25 30  1  6  0  0  0
 26 27  1  0  0  0  0
 27 25  1  0  0  0  0
 28 27  1  0  0  0  0
 29 30  1  0  0  0  0
M  END
>  <MODEL>
9

>  <REMARK>
 VINA RESULT:      -5.2      1.987      6.483
  Name = 
  7 active torsions:
  status: ('A' for Active; 'I' for Inactive)
    1  A    between atoms: C_6  and  N_8
    2  A    between atoms: C_6  and  N_21
    3  A    between atoms: N_8  and  C_13
    4  A    between atoms: C_9  and  N_21
    5  A    between atoms: N_14  and  C_28
    6  A    between atoms: C_19  and  C_28
    7  A    between atoms: C_28  and  C_29
                            x       y       z     vdW  Elec       q    Type
                         _______ _______ _______ _____ _____    ______ ____

>  <TORSDO>
F 7

$$$$
