=
 OpenBabel10272413503D

 30 30  0  0  1  0  0  0  0  0999 V2000
  184.3070  178.6710  142.7940 C   0  0  0  0  0  2  0  0  0  0  0  0
  183.9820  178.1830  141.3910 C   0  0  0  0  0  2  0  0  0  0  0  0
  185.7330  179.7380  140.9110 O   0  0  0  0  0  1  0  0  0  0  0  0
  185.0850  178.5960  140.4330 C   0  0  2  0  0  3  0  0  0  0  0  0
  184.5300  178.8210  139.0150 C   0  0  2  0  0  3  0  0  0  0  0  0
  182.4370  180.1800  138.6940 C   0  0  0  0  0  1  0  0  0  0  0  0
  182.9950  178.8010  139.0060 C   0  0  0  0  0  3  0  0  0  0  0  0
  182.4700  177.8340  137.9550 C   0  0  0  0  0  1  0  0  0  0  0  0
  185.0950  177.7950  138.0280 C   0  0  0  0  0  2  0  0  0  0  0  0
  186.4600  177.8760  136.0710 O   0  0  0  0  0  1  0  0  0  0  0  0
  186.3870  178.2990  137.3990 C   0  0  2  0  0  3  0  0  0  0  0  0
  189.0160  179.6500  137.4130 O   0  0  0  0  0  0  0  0  0  0  0  0
  187.5530  177.8180  138.1400 N   0  0  0  0  0  2  0  0  0  0  0  0
  188.8240  178.4770  138.1360 C   0  0  0  0  0  0  0  0  0  0  0  0
  189.7800  177.9900  138.7950 O   0  0  0  0  0  1  0  0  0  0  0  0
  183.0350  178.8660  143.5930 C   0  0  0  0  0  2  0  0  0  0  0  0
  183.3150  178.8760  145.0870 C   0  0  0  0  0  2  0  0  0  0  0  0
  184.7530  179.3000  145.3330 C   0  0  0  0  0  2  0  0  0  0  0  0
  185.2180  178.7580  146.6020 N   0  0  0  0  0  2  0  0  0  0  0  0
  186.6440  178.4980  146.4670 C   0  0  1  0  0  3  0  0  0  0  0  0
  187.2180  178.1420  147.8230 C   0  0  0  0  0  1  0  0  0  0  0  0
  186.8700  177.3330  145.5100 C   0  0  0  0  0  2  0  0  0  0  0  0
  190.1490  177.6670  142.7550 C   0  0  1  0  0  3  0  0  0  0  0  0
  188.3890  178.6860  141.5150 F   0  0  0  0  0  0  0  0  0  0  0  0
  191.1220  177.3970  141.7910 O   0  0  0  0  0  1  0  0  0  0  0  0
  188.0080  177.6320  144.5480 C   0  0  2  0  0  3  0  0  0  0  0  0
  188.7510  177.5070  142.1390 C   0  0  2  0  0  3  0  0  0  0  0  0
  190.3440  176.7430  143.9530 C   0  0  0  0  0  2  0  0  0  0  0  0
  187.6740  177.1060  143.1560 C   0  0  0  0  0  2  0  0  0  0  0  0
  189.3280  177.0370  145.0650 C   0  0  0  0  0  2  0  0  0  0  0  0
  1 16  1  0  0  0  0
  2  1  1  0  0  0  0
  4  3  1  1  0  0  0
  4  2  1  0  0  0  0
  5  9  1  6  0  0  0
  5  4  1  0  0  0  0
  6  7  1  0  0  0  0
  7  5  1  0  0  0  0
  8  7  1  0  0  0  0
 11 10  1  6  0  0  0
 11  9  1  0  0  0  0
 11 13  1  0  0  0  0
 12 14  2  0  0  0  0
 14 13  1  0  0  0  0
 14 15  1  0  0  0  0
 16 17  1  0  0  0  0
 17 18  1  0  0  0  0
 18 19  1  0  0  0  0
 20 19  1  0  0  0  0
 20 21  1  1  0  0  0
 22 20  1  0  0  0  0
 23 25  1  6  0  0  0
 23 28  1  0  0  0  0
 26 30  1  0  0  0  0
 26 22  1  1  0  0  0
 27 24  1  1  0  0  0
 27 23  1  0  0  0  0
 27 29  1  0  0  0  0
 28 30  1  0  0  0  0
 29 26  1  0  0  0  0
M  END
>  <MODEL>
1

>  <REMARK>
 VINA RESULT:      -7.1      0.000      0.000
  Name = 
  14 active torsions:
  status: ('A' for Active; 'I' for Inactive)
    1  A    between atoms: C_3  and  C_11
    2  A    between atoms: C_3  and  C_19
    3  A    between atoms: C_4  and  C_13
    4  A    between atoms: C_7  and  C_16
    5  A    between atoms: C_7  and  C_30
    6  A    between atoms: C_8  and  C_12
    7  A    between atoms: C_8  and  C_13
    8  A    between atoms: N_9  and  C_12
    9  A    between atoms: C_10  and  C_15
   10  A    between atoms: C_10  and  N_25
   11  A    between atoms: C_11  and  N_25
   12  A    between atoms: C_13  and  C_30
   13  A    between atoms: C_15  and  C_26
   14  A    between atoms: C_16  and  C_26
                            x       y       z     vdW  Elec       q    Type
                         _______ _______ _______ _____ _____    ______ ____

>  <TORSDO>
F 14

$$$$
=
 OpenBabel10272413503D

 30 30  0  0  1  0  0  0  0  0999 V2000
  186.6840  178.0480  142.7420 C   0  0  0  0  0  2  0  0  0  0  0  0
  188.1050  178.0830  142.2010 C   0  0  0  0  0  2  0  0  0  0  0  0
  188.4940  175.9120  143.1240 O   0  0  0  0  0  1  0  0  0  0  0  0
  189.0040  177.2110  143.0600 C   0  0  2  0  0  3  0  0  0  0  0  0
  189.1790  177.8140  144.4660 C   0  0  2  0  0  3  0  0  0  0  0  0
  191.4870  176.8270  144.6370 C   0  0  0  0  0  1  0  0  0  0  0  0
  190.6560  178.0920  144.7750 C   0  0  0  0  0  3  0  0  0  0  0  0
  191.2250  179.1320  143.8210 C   0  0  0  0  0  1  0  0  0  0  0  0
  188.5570  176.9140  145.5370 C   0  0  0  0  0  2  0  0  0  0  0  0
  188.0210  177.2530  147.8380 O   0  0  0  0  0  1  0  0  0  0  0  0
  187.7740  177.7360  146.5520 C   0  0  2  0  0  3  0  0  0  0  0  0
  185.8440  179.7890  147.4410 O   0  0  0  0  0  1  0  0  0  0  0  0
  186.3400  177.6900  146.2700 N   0  0  0  0  0  2  0  0  0  0  0  0
  185.4120  178.6880  146.7090 C   0  0  0  0  0  0  0  0  0  0  0  0
  184.1900  178.5680  146.4300 O   0  0  0  0  0  0  0  0  0  0  0  0
  185.8070  179.0220  141.9830 C   0  0  0  0  0  2  0  0  0  0  0  0
  184.4760  178.3920  141.6080 C   0  0  0  0  0  2  0  0  0  0  0  0
  183.9100  179.0890  140.3820 C   0  0  0  0  0  2  0  0  0  0  0  0
  184.9840  179.3990  139.4490 N   0  0  0  0  0  2  0  0  0  0  0  0
  185.2260  178.2040  138.6530 C   0  0  1  0  0  3  0  0  0  0  0  0
  184.0060  177.9150  137.8020 C   0  0  0  0  0  1  0  0  0  0  0  0
  186.4270  178.4230  137.7420 C   0  0  0  0  0  2  0  0  0  0  0  0
  189.9120  176.0260  138.4950 C   0  0  1  0  0  3  0  0  0  0  0  0
  190.3590  177.9400  139.8410 F   0  0  0  0  0  0  0  0  0  0  0  0
  191.1530  175.3960  138.3900 O   0  0  0  0  0  1  0  0  0  0  0  0
  187.6080  177.5730  138.1830 C   0  0  2  0  0  3  0  0  0  0  0  0
  190.1060  177.5500  138.5400 C   0  0  2  0  0  3  0  0  0  0  0  0
  189.0240  175.6080  137.3280 C   0  0  0  0  0  2  0  0  0  0  0  0
  188.9120  178.3380  137.9840 C   0  0  0  0  0  2  0  0  0  0  0  0
  187.6260  176.2350  137.4270 C   0  0  0  0  0  2  0  0  0  0  0  0
  2  1  1  0  0  0  0
  2  4  1  0  0  0  0
  4  3  1  1  0  0  0
  4  5  1  0  0  0  0
  5  7  1  0  0  0  0
  5  9  1  1  0  0  0
  6  7  1  0  0  0  0
  8  7  1  0  0  0  0
  9 11  1  0  0  0  0
 11 10  1  1  0  0  0
 13 11  1  0  0  0  0
 13 14  1  0  0  0  0
 14 12  1  0  0  0  0
 15 14  2  0  0  0  0
 16  1  1  0  0  0  0
 17 16  1  0  0  0  0
 18 17  1  0  0  0  0
 19 18  1  0  0  0  0
 20 21  1  6  0  0  0
 20 19  1  0  0  0  0
 22 20  1  0  0  0  0
 23 25  1  6  0  0  0
 23 27  1  0  0  0  0
 26 22  1  6  0  0  0
 27 24  1  1  0  0  0
 28 30  1  0  0  0  0
 28 23  1  0  0  0  0
 29 26  1  0  0  0  0
 29 27  1  0  0  0  0
 30 26  1  0  0  0  0
M  END
>  <MODEL>
2

>  <REMARK>
 VINA RESULT:      -6.9      2.678      7.495
  Name = 
  14 active torsions:
  status: ('A' for Active; 'I' for Inactive)
    1  A    between atoms: C_3  and  C_11
    2  A    between atoms: C_3  and  C_19
    3  A    between atoms: C_4  and  C_13
    4  A    between atoms: C_7  and  C_16
    5  A    between atoms: C_7  and  C_30
    6  A    between atoms: C_8  and  C_12
    7  A    between atoms: C_8  and  C_13
    8  A    between atoms: N_9  and  C_12
    9  A    between atoms: C_10  and  C_15
   10  A    between atoms: C_10  and  N_25
   11  A    between atoms: C_11  and  N_25
   12  A    between atoms: C_13  and  C_30
   13  A    between atoms: C_15  and  C_26
   14  A    between atoms: C_16  and  C_26
                            x       y       z     vdW  Elec       q    Type
                         _______ _______ _______ _____ _____    ______ ____

>  <TORSDO>
F 14

$$$$
=
 OpenBabel10272413503D

 30 30  0  0  1  0  0  0  0  0999 V2000
  189.5710  177.3410  140.4110 C   0  0  0  0  0  2  0  0  0  0  0  0
  188.8610  178.4260  139.6160 C   0  0  0  0  0  2  0  0  0  0  0  0
  188.9740  179.5070  137.4870 O   0  0  0  0  0  1  0  0  0  0  0  0
  189.2050  178.2950  138.1430 C   0  0  2  0  0  3  0  0  0  0  0  0
  188.4150  177.1460  137.4910 C   0  0  2  0  0  3  0  0  0  0  0  0
  190.7940  176.5390  136.9440 C   0  0  0  0  0  1  0  0  0  0  0  0
  189.3320  176.2370  136.6620 C   0  0  0  0  0  3  0  0  0  0  0  0
  189.0850  174.7720  136.9890 C   0  0  0  0  0  1  0  0  0  0  0  0
  187.2600  177.6800  136.6390 C   0  0  0  0  0  2  0  0  0  0  0  0
  184.8990  177.3690  136.4710 O   0  0  0  0  0  1  0  0  0  0  0  0
  185.9360  177.5670  137.3840 C   0  0  2  0  0  3  0  0  0  0  0  0
  183.9080  177.7300  139.5280 O   0  0  0  0  0  0  0  0  0  0  0  0
  185.6780  178.7660  138.1790 N   0  0  0  0  0  2  0  0  0  0  0  0
  184.6890  178.8370  139.2130 C   0  0  0  0  0  0  0  0  0  0  0  0
  184.5240  179.9140  139.8440 O   0  0  0  0  0  1  0  0  0  0  0  0
  191.0560  177.6290  140.4870 C   0  0  0  0  0  2  0  0  0  0  0  0
  191.6520  177.1180  141.7880 C   0  0  0  0  0  2  0  0  0  0  0  0
  190.5990  176.3470  142.5640 C   0  0  0  0  0  2  0  0  0  0  0  0
  190.9160  176.3710  143.9850 N   0  0  0  0  0  2  0  0  0  0  0  0
  189.7760  176.9580  144.6740 C   0  0  1  0  0  3  0  0  0  0  0  0
  189.9770  178.4550  144.7860 C   0  0  0  0  0  1  0  0  0  0  0  0
  188.4990  176.6850  143.8900 C   0  0  0  0  0  2  0  0  0  0  0  0
  185.0600  179.0440  144.9190 C   0  0  1  0  0  3  0  0  0  0  0  0
  186.2700  179.0610  146.9700 F   0  0  0  0  0  0  0  0  0  0  0  0
  183.7760  179.4530  145.2870 O   0  0  0  0  0  1  0  0  0  0  0  0
  187.3990  177.6570  144.2860 C   0  0  2  0  0  3  0  0  0  0  0  0
  185.6830  178.2130  146.0510 C   0  0  2  0  0  3  0  0  0  0  0  0
  184.9920  178.2570  143.6150 C   0  0  0  0  0  2  0  0  0  0  0  0
  186.7110  177.1840  145.5620 C   0  0  0  0  0  2  0  0  0  0  0  0
  186.3880  177.8290  143.1400 C   0  0  0  0  0  2  0  0  0  0  0  0
  1 16  1  0  0  0  0
  2  1  1  0  0  0  0
  4  3  1  6  0  0  0
  4  2  1  0  0  0  0
  5  9  1  6  0  0  0
  5  4  1  0  0  0  0
  7  6  1  0  0  0  0
  7  8  1  0  0  0  0
  7  5  1  0  0  0  0
  9 11  1  0  0  0  0
 11 10  1  6  0  0  0
 11 13  1  0  0  0  0
 13 14  1  0  0  0  0
 14 12  2  0  0  0  0
 14 15  1  0  0  0  0
 16 17  1  0  0  0  0
 17 18  1  0  0  0  0
 18 19  1  0  0  0  0
 19 20  1  0  0  0  0
 20 21  1  6  0  0  0
 22 20  1  0  0  0  0
 23 25  1  1  0  0  0
 23 27  1  0  0  0  0
 26 22  1  6  0  0  0
 26 29  1  0  0  0  0
 27 24  1  1  0  0  0
 28 23  1  0  0  0  0
 29 27  1  0  0  0  0
 30 28  1  0  0  0  0
 30 26  1  0  0  0  0
M  END
>  <MODEL>
3

>  <REMARK>
 VINA RESULT:      -6.9      2.486      5.554
  Name = 
  14 active torsions:
  status: ('A' for Active; 'I' for Inactive)
    1  A    between atoms: C_3  and  C_11
    2  A    between atoms: C_3  and  C_19
    3  A    between atoms: C_4  and  C_13
    4  A    between atoms: C_7  and  C_16
    5  A    between atoms: C_7  and  C_30
    6  A    between atoms: C_8  and  C_12
    7  A    between atoms: C_8  and  C_13
    8  A    between atoms: N_9  and  C_12
    9  A    between atoms: C_10  and  C_15
   10  A    between atoms: C_10  and  N_25
   11  A    between atoms: C_11  and  N_25
   12  A    between atoms: C_13  and  C_30
   13  A    between atoms: C_15  and  C_26
   14  A    between atoms: C_16  and  C_26
                            x       y       z     vdW  Elec       q    Type
                         _______ _______ _______ _____ _____    ______ ____

>  <TORSDO>
F 14

$$$$
=
 OpenBabel10272413503D

 30 30  0  0  1  0  0  0  0  0999 V2000
  188.7650  177.3020  139.5520 C   0  0  0  0  0  2  0  0  0  0  0  0
  189.3250  178.3590  138.6130 C   0  0  0  0  0  2  0  0  0  0  0  0
  188.1070  179.7180  137.0690 O   0  0  0  0  0  1  0  0  0  0  0  0
  188.5010  178.4040  137.3380 C   0  0  2  0  0  3  0  0  0  0  0  0
  187.2860  177.4640  137.4320 C   0  0  2  0  0  3  0  0  0  0  0  0
  188.5470  176.5550  135.4540 C   0  0  0  0  0  1  0  0  0  0  0  0
  187.3570  176.3530  136.3760 C   0  0  0  0  0  3  0  0  0  0  0  0
  187.4990  174.9870  137.0320 C   0  0  0  0  0  1  0  0  0  0  0  0
  185.9710  178.2420  137.3190 C   0  0  0  0  0  2  0  0  0  0  0  0
  183.8110  178.4240  138.3180 O   0  0  0  0  0  1  0  0  0  0  0  0
  185.1400  178.0930  138.5870 C   0  0  2  0  0  3  0  0  0  0  0  0
  184.1810  178.0100  141.3810 O   0  0  0  0  0  0  0  0  0  0  0  0
  185.6590  178.9430  139.6570 N   0  0  0  0  0  2  0  0  0  0  0  0
  185.1840  178.8990  141.0070 C   0  0  0  0  0  0  0  0  0  0  0  0
  185.6800  179.6740  141.8670 O   0  0  0  0  0  1  0  0  0  0  0  0
  189.1360  177.6200  140.9860 C   0  0  0  0  0  2  0  0  0  0  0  0
  190.4160  176.9140  141.3970 C   0  0  0  0  0  2  0  0  0  0  0  0
  191.2300  177.8210  142.3040 C   0  0  0  0  0  2  0  0  0  0  0  0
  191.7690  177.0520  143.4170 N   0  0  0  0  0  2  0  0  0  0  0  0
  191.1760  177.5810  144.6370 C   0  0  1  0  0  3  0  0  0  0  0  0
  190.6390  178.9720  144.3700 C   0  0  0  0  0  1  0  0  0  0  0  0
  190.0300  176.6840  145.0880 C   0  0  0  0  0  2  0  0  0  0  0  0
  186.4500  178.5770  146.5210 C   0  0  1  0  0  3  0  0  0  0  0  0
  187.9610  179.0170  148.3090 F   0  0  0  0  0  0  0  0  0  0  0  0
  185.1940  178.8190  147.0800 O   0  0  0  0  0  1  0  0  0  0  0  0
  188.8580  177.5100  145.5930 C   0  0  2  0  0  3  0  0  0  0  0  0
  187.3870  177.9880  147.5870 C   0  0  2  0  0  3  0  0  0  0  0  0
  186.3070  177.6440  145.3230 C   0  0  0  0  0  2  0  0  0  0  0  0
  188.4840  177.0840  147.0090 C   0  0  0  0  0  2  0  0  0  0  0  0
  187.6570  177.3890  144.6400 C   0  0  0  0  0  2  0  0  0  0  0  0
  1 16  1  0  0  0  0
  2  1  1  0  0  0  0
  4  3  1  1  0  0  0
  4  5  1  0  0  0  0
  4  2  1  0  0  0  0
  5  9  1  6  0  0  0
  6  7  1  0  0  0  0
  7  8  1  0  0  0  0
  7  5  1  0  0  0  0
  9 11  1  0  0  0  0
 11 10  1  6  0  0  0
 11 13  1  0  0  0  0
 13 14  1  0  0  0  0
 14 12  2  0  0  0  0
 14 15  1  0  0  0  0
 16 17  1  0  0  0  0
 17 18  1  0  0  0  0
 18 19  1  0  0  0  0
 19 20  1  0  0  0  0
 20 21  1  6  0  0  0
 20 22  1  0  0  0  0
 23 25  1  1  0  0  0
 23 27  1  0  0  0  0
 26 22  1  6  0  0  0
 26 29  1  0  0  0  0
 27 24  1  6  0  0  0
 28 23  1  0  0  0  0
 29 27  1  0  0  0  0
 30 28  1  0  0  0  0
 30 26  1  0  0  0  0
M  END
>  <MODEL>
4

>  <REMARK>
 VINA RESULT:      -6.9      2.723      5.353
  Name = 
  14 active torsions:
  status: ('A' for Active; 'I' for Inactive)
    1  A    between atoms: C_3  and  C_11
    2  A    between atoms: C_3  and  C_19
    3  A    between atoms: C_4  and  C_13
    4  A    between atoms: C_7  and  C_16
    5  A    between atoms: C_7  and  C_30
    6  A    between atoms: C_8  and  C_12
    7  A    between atoms: C_8  and  C_13
    8  A    between atoms: N_9  and  C_12
    9  A    between atoms: C_10  and  C_15
   10  A    between atoms: C_10  and  N_25
   11  A    between atoms: C_11  and  N_25
   12  A    between atoms: C_13  and  C_30
   13  A    between atoms: C_15  and  C_26
   14  A    between atoms: C_16  and  C_26
                            x       y       z     vdW  Elec       q    Type
                         _______ _______ _______ _____ _____    ______ ____

>  <TORSDO>
F 14

$$$$
=
 OpenBabel10272413503D

 30 30  0  0  1  0  0  0  0  0999 V2000
  188.2100  177.9920  141.6910 C   0  0  0  0  0  2  0  0  0  0  0  0
  186.9380  178.8220  141.6130 C   0  0  0  0  0  2  0  0  0  0  0  0
  186.0440  177.1950  143.1190 O   0  0  0  0  0  1  0  0  0  0  0  0
  186.0790  178.5630  142.8380 C   0  0  2  0  0  3  0  0  0  0  0  0
  184.6610  179.1320  142.6480 C   0  0  2  0  0  3  0  0  0  0  0  0
  182.7550  178.7510  144.2450 C   0  0  0  0  0  1  0  0  0  0  0  0
  184.0340  179.5300  143.9910 C   0  0  0  0  0  3  0  0  0  0  0  0
  184.9900  179.2500  145.1410 C   0  0  0  0  0  1  0  0  0  0  0  0
  183.7630  178.1450  141.8970 C   0  0  0  0  0  2  0  0  0  0  0  0
  181.8890  179.0140  140.7000 O   0  0  0  0  0  1  0  0  0  0  0  0
  183.2560  178.7520  140.5950 C   0  0  2  0  0  3  0  0  0  0  0  0
  185.3300  179.2120  138.5410 O   0  0  0  0  0  1  0  0  0  0  0  0
  183.5060  177.8560  139.4670 N   0  0  0  0  0  2  0  0  0  0  0  0
  184.5100  178.0910  138.4730 C   0  0  0  0  0  0  0  0  0  0  0  0
  184.6530  177.2720  137.5280 O   0  0  0  0  0  0  0  0  0  0  0  0
  188.7630  177.7440  140.3030 C   0  0  0  0  0  2  0  0  0  0  0  0
  190.1790  177.1930  140.3610 C   0  0  0  0  0  2  0  0  0  0  0  0
  190.5200  176.8150  141.7920 C   0  0  0  0  0  2  0  0  0  0  0  0
  191.7820  177.4300  142.1780 N   0  0  0  0  0  2  0  0  0  0  0  0
  191.7210  177.6820  143.6110 C   0  0  1  0  0  3  0  0  0  0  0  0
  191.2940  179.1160  143.8490 C   0  0  0  0  0  1  0  0  0  0  0  0
  190.7070  176.7470  144.2590 C   0  0  0  0  0  2  0  0  0  0  0  0
  188.7250  178.0940  147.8240 C   0  0  1  0  0  3  0  0  0  0  0  0
  190.9970  178.0560  148.5380 F   0  0  0  0  0  0  0  0  0  0  0  0
  188.0030  178.1450  149.0180 O   0  0  0  0  0  1  0  0  0  0  0  0
  190.1050  177.3760  145.5050 C   0  0  2  0  0  3  0  0  0  0  0  0
  189.9960  177.2530  148.0240 C   0  0  2  0  0  3  0  0  0  0  0  0
  187.8440  177.5260  146.7160 C   0  0  0  0  0  2  0  0  0  0  0  0
  190.4860  176.5680  146.7410 C   0  0  0  0  0  2  0  0  0  0  0  0
  188.5780  177.4980  145.3690 C   0  0  0  0  0  2  0  0  0  0  0  0
  2  1  1  0  0  0  0
  2  4  1  0  0  0  0
  4  3  1  6  0  0  0
  5  9  1  1  0  0  0
  5  4  1  0  0  0  0
  5  7  1  0  0  0  0
  7  6  1  0  0  0  0
  7  8  1  0  0  0  0
 11 10  1  1  0  0  0
 11  9  1  0  0  0  0
 13 11  1  0  0  0  0
 14 12  1  0  0  0  0
 14 13  1  0  0  0  0
 15 14  2  0  0  0  0
 16 17  1  0  0  0  0
 16  1  1  0  0  0  0
 17 18  1  0  0  0  0
 18 19  1  0  0  0  0
 19 20  1  0  0  0  0
 20 21  1  6  0  0  0
 20 22  1  0  0  0  0
 23 27  1  0  0  0  0
 23 25  1  1  0  0  0
 26 22  1  6  0  0  0
 26 29  1  0  0  0  0
 27 24  1  6  0  0  0
 28 23  1  0  0  0  0
 29 27  1  0  0  0  0
 30 26  1  0  0  0  0
 30 28  1  0  0  0  0
M  END
>  <MODEL>
5

>  <REMARK>
 VINA RESULT:      -6.7      2.950      5.420
  Name = 
  14 active torsions:
  status: ('A' for Active; 'I' for Inactive)
    1  A    between atoms: C_3  and  C_11
    2  A    between atoms: C_3  and  C_19
    3  A    between atoms: C_4  and  C_13
    4  A    between atoms: C_7  and  C_16
    5  A    between atoms: C_7  and  C_30
    6  A    between atoms: C_8  and  C_12
    7  A    between atoms: C_8  and  C_13
    8  A    between atoms: N_9  and  C_12
    9  A    between atoms: C_10  and  C_15
   10  A    between atoms: C_10  and  N_25
   11  A    between atoms: C_11  and  N_25
   12  A    between atoms: C_13  and  C_30
   13  A    between atoms: C_15  and  C_26
   14  A    between atoms: C_16  and  C_26
                            x       y       z     vdW  Elec       q    Type
                         _______ _______ _______ _____ _____    ______ ____

>  <TORSDO>
F 14

$$$$
=
 OpenBabel10272413503D

 30 30  0  0  1  0  0  0  0  0999 V2000
  187.0930  178.3800  141.9860 C   0  0  0  0  0  2  0  0  0  0  0  0
  188.2420  178.6990  141.0420 C   0  0  0  0  0  2  0  0  0  0  0  0
  189.9350  177.0350  141.3230 O   0  0  0  0  0  1  0  0  0  0  0  0
  188.8540  177.4110  140.5210 C   0  0  2  0  0  3  0  0  0  0  0  0
  189.2750  177.5550  139.0470 C   0  0  2  0  0  3  0  0  0  0  0  0
  189.0120  179.0960  137.0760 C   0  0  0  0  0  1  0  0  0  0  0  0
  188.3220  178.4820  138.2820 C   0  0  0  0  0  3  0  0  0  0  0  0
  187.1030  177.7180  137.7860 C   0  0  0  0  0  1  0  0  0  0  0  0
  189.3770  176.1890  138.3620 C   0  0  0  0  0  2  0  0  0  0  0  0
  191.5800  176.8070  137.6800 O   0  0  0  0  0  1  0  0  0  0  0  0
  190.8310  175.7590  138.2190 C   0  0  2  0  0  3  0  0  0  0  0  0
  193.3670  174.3350  137.6940 O   0  0  0  0  0  1  0  0  0  0  0  0
  190.9460  174.5760  137.3690 N   0  0  0  0  0  2  0  0  0  0  0  0
  192.1810  173.8950  137.1160 C   0  0  0  0  0  0  0  0  0  0  0  0
  192.1930  172.8860  136.3620 O   0  0  0  0  0  0  0  0  0  0  0  0
  185.7970  178.9510  141.4500 C   0  0  0  0  0  2  0  0  0  0  0  0
  184.6300  178.6330  142.3700 C   0  0  0  0  0  2  0  0  0  0  0  0
  184.6810  179.5380  143.5900 C   0  0  0  0  0  2  0  0  0  0  0  0
  184.5440  178.7420  144.8010 N   0  0  0  0  0  2  0  0  0  0  0  0
  185.8080  178.8220  145.5190 C   0  0  1  0  0  3  0  0  0  0  0  0
  185.5450  179.2440  146.9500 C   0  0  0  0  0  1  0  0  0  0  0  0
  186.4910  177.4600  145.5210 C   0  0  0  0  0  2  0  0  0  0  0  0
  190.7110  177.3440  146.3130 C   0  0  1  0  0  3  0  0  0  0  0  0
  190.6780  178.1250  144.0630 F   0  0  0  0  0  0  0  0  0  0  0  0
  192.0290  176.9210  146.4980 O   0  0  0  0  0  1  0  0  0  0  0  0
  187.9840  177.5990  145.7710 C   0  0  2  0  0  3  0  0  0  0  0  0
  190.2790  177.0710  144.8630 C   0  0  2  0  0  3  0  0  0  0  0  0
  189.8010  176.6380  147.3120 C   0  0  0  0  0  2  0  0  0  0  0  0
  188.7700  176.8420  144.7060 C   0  0  0  0  0  2  0  0  0  0  0  0
  188.3460  177.1090  147.1830 C   0  0  0  0  0  2  0  0  0  0  0  0
  2  1  1  0  0  0  0
  4  2  1  0  0  0  0
  4  3  1  1  0  0  0
  5  9  1  6  0  0  0
  5  4  1  0  0  0  0
  6  7  1  0  0  0  0
  7  5  1  0  0  0  0
  8  7  1  0  0  0  0
 11 10  1  6  0  0  0
 11  9  1  0  0  0  0
 13 11  1  0  0  0  0
 14 13  1  0  0  0  0
 14 12  1  0  0  0  0
 15 14  2  0  0  0  0
 16  1  1  0  0  0  0
 16 17  1  0  0  0  0
 17 18  1  0  0  0  0
 18 19  1  0  0  0  0
 19 20  1  0  0  0  0
 20 22  1  0  0  0  0
 20 21  1  1  0  0  0
 23 25  1  6  0  0  0
 23 28  1  0  0  0  0
 26 22  1  6  0  0  0
 26 30  1  0  0  0  0
 27 24  1  6  0  0  0
 27 23  1  0  0  0  0
 29 27  1  0  0  0  0
 29 26  1  0  0  0  0
 30 28  1  0  0  0  0
M  END
>  <MODEL>
6

>  <REMARK>
 VINA RESULT:      -6.7      2.707      4.178
  Name = 
  14 active torsions:
  status: ('A' for Active; 'I' for Inactive)
    1  A    between atoms: C_3  and  C_11
    2  A    between atoms: C_3  and  C_19
    3  A    between atoms: C_4  and  C_13
    4  A    between atoms: C_7  and  C_16
    5  A    between atoms: C_7  and  C_30
    6  A    between atoms: C_8  and  C_12
    7  A    between atoms: C_8  and  C_13
    8  A    between atoms: N_9  and  C_12
    9  A    between atoms: C_10  and  C_15
   10  A    between atoms: C_10  and  N_25
   11  A    between atoms: C_11  and  N_25
   12  A    between atoms: C_13  and  C_30
   13  A    between atoms: C_15  and  C_26
   14  A    between atoms: C_16  and  C_26
                            x       y       z     vdW  Elec       q    Type
                         _______ _______ _______ _____ _____    ______ ____

>  <TORSDO>
F 14

$$$$
=
 OpenBabel10272413503D

 30 30  0  0  1  0  0  0  0  0999 V2000
  186.5350  177.6240  142.9420 C   0  0  0  0  0  2  0  0  0  0  0  0
  187.1870  176.9330  144.1290 C   0  0  0  0  0  2  0  0  0  0  0  0
  188.8490  178.6500  144.1950 O   0  0  0  0  0  1  0  0  0  0  0  0
  187.9250  177.9530  144.9780 C   0  0  2  0  0  3  0  0  0  0  0  0
  188.6070  177.2800  146.1830 C   0  0  2  0  0  3  0  0  0  0  0  0
  188.6540  178.0220  148.5860 C   0  0  0  0  0  1  0  0  0  0  0  0
  187.7890  177.4690  147.4670 C   0  0  0  0  0  3  0  0  0  0  0  0
  186.6390  178.4390  147.2400 C   0  0  0  0  0  1  0  0  0  0  0  0
  190.0390  177.7910  146.3670 C   0  0  0  0  0  2  0  0  0  0  0  0
  191.9780  176.5490  146.9970 O   0  0  0  0  0  1  0  0  0  0  0  0
  191.0530  176.7270  145.9670 C   0  0  2  0  0  3  0  0  0  0  0  0
  190.3220  175.7230  143.2850 O   0  0  0  0  0  1  0  0  0  0  0  0
  191.7450  177.1010  144.7340 N   0  0  0  0  0  2  0  0  0  0  0  0
  191.3870  176.6050  143.4400 C   0  0  0  0  0  0  0  0  0  0  0  0
  192.0430  176.9720  142.4290 O   0  0  0  0  0  0  0  0  0  0  0  0
  185.1210  178.0430  143.2870 C   0  0  0  0  0  2  0  0  0  0  0  0
  184.4680  178.7880  142.1340 C   0  0  0  0  0  2  0  0  0  0  0  0
  185.5290  179.2130  141.1350 C   0  0  0  0  0  2  0  0  0  0  0  0
  184.9130  179.4820  139.8430 N   0  0  0  0  0  2  0  0  0  0  0  0
  185.0960  178.2960  139.0200 C   0  0  1  0  0  3  0  0  0  0  0  0
  183.8080  177.9950  138.2820 C   0  0  0  0  0  1  0  0  0  0  0  0
  186.2070  178.5360  138.0040 C   0  0  0  0  0  2  0  0  0  0  0  0
  189.9410  176.5240  138.6790 C   0  0  1  0  0  3  0  0  0  0  0  0
  189.1920  176.8820  140.9120 F   0  0  0  0  0  0  0  0  0  0  0  0
  191.2980  176.2310  138.8270 O   0  0  0  0  0  1  0  0  0  0  0  0
  187.4300  177.6930  138.3240 C   0  0  2  0  0  3  0  0  0  0  0  0
  189.5130  177.5470  139.7430 C   0  0  2  0  0  3  0  0  0  0  0  0
  189.6780  177.0380  137.2680 C   0  0  0  0  0  2  0  0  0  0  0  0
  188.3360  178.4290  139.3070 C   0  0  0  0  0  2  0  0  0  0  0  0
  188.1880  177.3250  137.0380 C   0  0  0  0  0  2  0  0  0  0  0  0
  1 16  1  0  0  0  0
  1  2  1  0  0  0  0
  2  4  1  0  0  0  0
  4  3  1  6  0  0  0
  4  5  1  0  0  0  0
  5  9  1  1  0  0  0
  5  7  1  0  0  0  0
  7  6  1  0  0  0  0
  8  7  1  0  0  0  0
 11  9  1  0  0  0  0
 11 10  1  1  0  0  0
 12 14  1  0  0  0  0
 13 11  1  0  0  0  0
 14 13  1  0  0  0  0
 15 14  2  0  0  0  0
 17 16  1  0  0  0  0
 18 17  1  0  0  0  0
 19 18  1  0  0  0  0
 20 21  1  6  0  0  0
 20 19  1  0  0  0  0
 22 20  1  0  0  0  0
 23 25  1  6  0  0  0
 23 27  1  0  0  0  0
 26 22  1  6  0  0  0
 26 29  1  0  0  0  0
 27 24  1  1  0  0  0
 28 23  1  0  0  0  0
 29 27  1  0  0  0  0
 30 28  1  0  0  0  0
 30 26  1  0  0  0  0
M  END
>  <MODEL>
7

>  <REMARK>
 VINA RESULT:      -6.6      2.552      7.086
  Name = 
  14 active torsions:
  status: ('A' for Active; 'I' for Inactive)
    1  A    between atoms: C_3  and  C_11
    2  A    between atoms: C_3  and  C_19
    3  A    between atoms: C_4  and  C_13
    4  A    between atoms: C_7  and  C_16
    5  A    between atoms: C_7  and  C_30
    6  A    between atoms: C_8  and  C_12
    7  A    between atoms: C_8  and  C_13
    8  A    between atoms: N_9  and  C_12
    9  A    between atoms: C_10  and  C_15
   10  A    between atoms: C_10  and  N_25
   11  A    between atoms: C_11  and  N_25
   12  A    between atoms: C_13  and  C_30
   13  A    between atoms: C_15  and  C_26
   14  A    between atoms: C_16  and  C_26
                            x       y       z     vdW  Elec       q    Type
                         _______ _______ _______ _____ _____    ______ ____

>  <TORSDO>
F 14

$$$$
=
 OpenBabel10272413503D

 30 30  0  0  1  0  0  0  0  0999 V2000
  184.4880  178.5180  143.1410 C   0  0  0  0  0  2  0  0  0  0  0  0
  183.9220  178.7360  141.7460 C   0  0  0  0  0  2  0  0  0  0  0  0
  186.0670  179.5570  141.0800 O   0  0  0  0  0  1  0  0  0  0  0  0
  185.0410  178.6780  140.7210 C   0  0  2  0  0  3  0  0  0  0  0  0
  184.5120  178.9830  139.3080 C   0  0  2  0  0  3  0  0  0  0  0  0
  182.5550  180.4290  138.6670 C   0  0  0  0  0  1  0  0  0  0  0  0
  182.9840  179.1150  139.3000 C   0  0  0  0  0  3  0  0  0  0  0  0
  182.3440  177.9840  138.5090 C   0  0  0  0  0  1  0  0  0  0  0  0
  184.9750  177.9260  138.3010 C   0  0  0  0  0  2  0  0  0  0  0  0
  186.7720  179.1760  137.3480 O   0  0  0  0  0  1  0  0  0  0  0  0
  186.4780  178.0170  138.0690 C   0  0  2  0  0  3  0  0  0  0  0  0
  189.0480  176.6740  138.6390 O   0  0  0  0  0  1  0  0  0  0  0  0
  186.9680  176.8440  137.3470 N   0  0  0  0  0  2  0  0  0  0  0  0
  188.2180  176.2030  137.6270 C   0  0  0  0  0  0  0  0  0  0  0  0
  188.5690  175.2010  136.9510 O   0  0  0  0  0  0  0  0  0  0  0  0
  183.4840  178.9480  144.1910 C   0  0  0  0  0  2  0  0  0  0  0  0
  184.0410  178.7740  145.5940 C   0  0  0  0  0  2  0  0  0  0  0  0
  185.5100  179.1610  145.6110 C   0  0  0  0  0  2  0  0  0  0  0  0
  186.1290  178.6970  146.8450 N   0  0  0  0  0  2  0  0  0  0  0  0
  187.3800  178.0460  146.4860 C   0  0  1  0  0  3  0  0  0  0  0  0
  187.9190  177.3010  147.6890 C   0  0  0  0  0  1  0  0  0  0  0  0
  187.1420  177.0540  145.3530 C   0  0  0  0  0  2  0  0  0  0  0  0
  190.4590  177.1910  142.6280 C   0  0  1  0  0  3  0  0  0  0  0  0
  191.5790  177.1880  144.7300 F   0  0  0  0  0  0  0  0  0  0  0  0
  191.4390  177.6180  141.7300 O   0  0  0  0  0  1  0  0  0  0  0  0
  188.3670  176.9430  144.4600 C   0  0  2  0  0  3  0  0  0  0  0  0
  190.6560  177.8920  143.9810 C   0  0  2  0  0  3  0  0  0  0  0  0
  189.0760  177.4680  142.0480 C   0  0  0  0  0  2  0  0  0  0  0  0
  189.3570  178.0580  144.7810 C   0  0  0  0  0  2  0  0  0  0  0  0
  187.9620  176.9670  142.9770 C   0  0  0  0  0  2  0  0  0  0  0  0
  1 16  1  0  0  0  0
  2  1  1  0  0  0  0
  4  3  1  1  0  0  0
  4  2  1  0  0  0  0
  5  9  1  6  0  0  0
  5  4  1  0  0  0  0
  6  7  1  0  0  0  0
  7  5  1  0  0  0  0
  8  7  1  0  0  0  0
 11 10  1  6  0  0  0
 11  9  1  0  0  0  0
 13 14  1  0  0  0  0
 13 11  1  0  0  0  0
 14 12  1  0  0  0  0
 15 14  2  0  0  0  0
 16 17  1  0  0  0  0
 17 18  1  0  0  0  0
 18 19  1  0  0  0  0
 20 19  1  0  0  0  0
 20 21  1  1  0  0  0
 22 20  1  0  0  0  0
 23 25  1  6  0  0  0
 23 27  1  0  0  0  0
 26 29  1  0  0  0  0
 26 22  1  1  0  0  0
 27 24  1  1  0  0  0
 27 29  1  0  0  0  0
 28 23  1  0  0  0  0
 28 30  1  0  0  0  0
 30 26  1  0  0  0  0
M  END
>  <MODEL>
8

>  <REMARK>
 VINA RESULT:      -6.6      1.411      1.740
  Name = 
  14 active torsions:
  status: ('A' for Active; 'I' for Inactive)
    1  A    between atoms: C_3  and  C_11
    2  A    between atoms: C_3  and  C_19
    3  A    between atoms: C_4  and  C_13
    4  A    between atoms: C_7  and  C_16
    5  A    between atoms: C_7  and  C_30
    6  A    between atoms: C_8  and  C_12
    7  A    between atoms: C_8  and  C_13
    8  A    between atoms: N_9  and  C_12
    9  A    between atoms: C_10  and  C_15
   10  A    between atoms: C_10  and  N_25
   11  A    between atoms: C_11  and  N_25
   12  A    between atoms: C_13  and  C_30
   13  A    between atoms: C_15  and  C_26
   14  A    between atoms: C_16  and  C_26
                            x       y       z     vdW  Elec       q    Type
                         _______ _______ _______ _____ _____    ______ ____

>  <TORSDO>
F 14

$$$$
=
 OpenBabel10272413503D

 30 30  0  0  1  0  0  0  0  0999 V2000
  183.9840  178.0270  141.5890 C   0  0  0  0  0  2  0  0  0  0  0  0
  183.4830  178.3710  140.1950 C   0  0  0  0  0  2  0  0  0  0  0  0
  184.4730  180.2900  139.1710 O   0  0  0  0  0  1  0  0  0  0  0  0
  184.6250  178.9130  139.3550 C   0  0  2  0  0  3  0  0  0  0  0  0
  184.7190  178.1750  138.0070 C   0  0  2  0  0  3  0  0  0  0  0  0
  182.6850  177.6200  136.6350 C   0  0  0  0  0  1  0  0  0  0  0  0
  183.5450  177.2060  137.8180 C   0  0  0  0  0  3  0  0  0  0  0  0
  184.0430  175.7910  137.5620 C   0  0  0  0  0  1  0  0  0  0  0  0
  186.0580  177.4460  137.8650 C   0  0  0  0  0  2  0  0  0  0  0  0
  187.4440  179.0470  136.7620 O   0  0  0  0  0  1  0  0  0  0  0  0
  187.2240  178.4180  137.9890 C   0  0  2  0  0  3  0  0  0  0  0  0
  188.0730  178.1610  140.8080 O   0  0  0  0  0  1  0  0  0  0  0  0
  188.4380  177.7280  138.4200 N   0  0  0  0  0  2  0  0  0  0  0  0
  188.8440  177.6130  139.7890 C   0  0  0  0  0  0  0  0  0  0  0  0
  189.9120  177.0080  140.0730 O   0  0  0  0  0  0  0  0  0  0  0  0
  185.0700  178.9940  142.0120 C   0  0  0  0  0  2  0  0  0  0  0  0
  184.8100  179.5440  143.4050 C   0  0  0  0  0  2  0  0  0  0  0  0
  184.1800  178.4660  144.2690 C   0  0  0  0  0  2  0  0  0  0  0  0
  184.2680  178.8440  145.6720 N   0  0  0  0  0  2  0  0  0  0  0  0
  185.6810  178.9460  146.0070 C   0  0  1  0  0  3  0  0  0  0  0  0
  185.8240  179.2630  147.4810 C   0  0  0  0  0  1  0  0  0  0  0  0
  186.3810  177.6250  145.7120 C   0  0  0  0  0  2  0  0  0  0  0  0
  190.6490  177.6920  145.2330 C   0  0  1  0  0  3  0  0  0  0  0  0
  189.9290  178.5800  143.1440 F   0  0  0  0  0  0  0  0  0  0  0  0
  191.9770  177.3310  145.0010 O   0  0  0  0  0  1  0  0  0  0  0  0
  187.8750  177.8300  145.5250 C   0  0  2  0  0  3  0  0  0  0  0  0
  189.8210  177.4690  143.9580 C   0  0  2  0  0  3  0  0  0  0  0  0
  190.0980  176.8910  146.4080 C   0  0  0  0  0  2  0  0  0  0  0  0
  188.3410  177.1680  144.2330 C   0  0  0  0  0  2  0  0  0  0  0  0
  188.6530  177.2910  146.7380 C   0  0  0  0  0  2  0  0  0  0  0  0
  1 16  1  0  0  0  0
  2  1  1  0  0  0  0
  4  3  1  6  0  0  0
  4  2  1  0  0  0  0
  5  9  1  1  0  0  0
  5  4  1  0  0  0  0
  6  7  1  0  0  0  0
  7  5  1  0  0  0  0
  8  7  1  0  0  0  0
  9 11  1  0  0  0  0
 11 10  1  6  0  0  0
 11 13  1  0  0  0  0
 13 14  1  0  0  0  0
 14 15  2  0  0  0  0
 14 12  1  0  0  0  0
 16 17  1  0  0  0  0
 17 18  1  0  0  0  0
 18 19  1  0  0  0  0
 19 20  1  0  0  0  0
 20 21  1  1  0  0  0
 22 20  1  0  0  0  0
 23 25  1  6  0  0  0
 23 28  1  0  0  0  0
 26 22  1  1  0  0  0
 26 30  1  0  0  0  0
 27 24  1  6  0  0  0
 27 29  1  0  0  0  0
 27 23  1  0  0  0  0
 28 30  1  0  0  0  0
 29 26  1  0  0  0  0
M  END
>  <MODEL>
9

>  <REMARK>
 VINA RESULT:      -6.6      1.539      2.001
  Name = 
  14 active torsions:
  status: ('A' for Active; 'I' for Inactive)
    1  A    between atoms: C_3  and  C_11
    2  A    between atoms: C_3  and  C_19
    3  A    between atoms: C_4  and  C_13
    4  A    between atoms: C_7  and  C_16
    5  A    between atoms: C_7  and  C_30
    6  A    between atoms: C_8  and  C_12
    7  A    between atoms: C_8  and  C_13
    8  A    between atoms: N_9  and  C_12
    9  A    between atoms: C_10  and  C_15
   10  A    between atoms: C_10  and  N_25
   11  A    between atoms: C_11  and  N_25
   12  A    between atoms: C_13  and  C_30
   13  A    between atoms: C_15  and  C_26
   14  A    between atoms: C_16  and  C_26
                            x       y       z     vdW  Elec       q    Type
                         _______ _______ _______ _____ _____    ______ ____

>  <TORSDO>
F 14

$$$$
