=
 OpenBabel10272400423D

 25 28  0  0  1  0  0  0  0  0999 V2000
  186.9850  178.1250  143.0800 N   0  0  0  0  0  0  0  0  0  0  0  0
  188.1590  177.5220  143.4160 C   0  0  0  0  0  0  0  0  0  0  0  0
  187.7190  178.5310  140.8570 C   0  0  0  0  0  3  0  0  0  0  0  0
  185.8620  178.3690  143.7750 C   0  0  0  0  0  0  0  0  0  0  0  0
  190.2430  176.9150  146.4780 N   0  0  0  0  0  2  0  0  0  0  0  0
  183.1840  178.7450  144.6420 C   0  0  0  0  0  2  0  0  0  0  0  0
  188.9020  177.9270  141.1690 N   0  0  0  0  0  0  0  0  0  0  0  0
  184.9700  178.9850  142.9270 C   0  0  0  0  0  0  0  0  0  0  0  0
  183.6190  179.4660  143.3560 C   0  0  0  0  0  2  0  0  0  0  0  0
  190.4380  176.7150  142.7370 C   0  0  1  0  0  3  0  0  0  0  0  0
  191.6040  177.2660  141.9330 C   0  0  0  0  0  1  0  0  0  0  0  0
  188.3900  176.9050  144.7660 C   0  0  0  0  0  2  0  0  0  0  0  0
  184.3130  178.7350  145.6840 C   0  0  0  0  0  2  0  0  0  0  0  0
  186.7490  178.6250  141.8510 C   0  0  0  0  0  0  0  0  0  0  0  0
  185.5220  179.1740  141.7070 N   0  0  0  0  0  0  0  0  0  0  0  0
  190.7570  176.8020  144.1650 N   0  0  0  0  0  0  0  0  0  0  0  0
  185.5320  177.9520  145.1760 C   0  0  0  0  0  2  0  0  0  0  0  0
  189.8540  176.8750  145.1030 C   0  0  0  0  0  0  0  0  0  0  0  0
  189.1530  177.4340  142.4220 C   0  0  0  0  0  0  0  0  0  0  0  0
  191.6360  176.9150  146.9090 C   0  0  1  0  0  3  0  0  0  0  0  0
  191.7630  177.6460  148.0920 O   0  0  0  0  0  1  0  0  0  0  0  0
  193.2370  175.4920  147.9400 F   0  0  0  0  0  0  0  0  0  0  0  0
  192.1210  175.4870  147.1220 C   0  0  0  0  0  0  0  0  0  0  0  0
  192.4470  174.9050  145.9100 F   0  0  0  0  0  0  0  0  0  0  0  0
  191.1240  174.7460  147.7300 F   0  0  0  0  0  0  0  0  0  0  0  0
  1  2  1  0  0  0  0
  1  4  1  0  0  0  0
  2 12  1  0  0  0  0
  3  7  2  0  0  0  0
  3 14  1  0  0  0  0
  4 17  1  0  0  0  0
  5 20  1  0  0  0  0
  6 13  1  0  0  0  0
  7 19  1  0  0  0  0
  8  9  1  0  0  0  0
  8  4  2  0  0  0  0
  9  6  1  0  0  0  0
 10 11  1  6  0  0  0
 10 16  1  0  0  0  0
 12 18  1  0  0  0  0
 14  1  1  0  0  0  0
 15 14  2  0  0  0  0
 15  8  1  0  0  0  0
 16 18  2  0  0  0  0
 17 13  1  0  0  0  0
 18  5  1  0  0  0  0
 19 10  1  0  0  0  0
 19  2  2  0  0  0  0
 20 23  1  0  0  0  0
 20 21  1  1  0  0  0
 23 25  1  0  0  0  0
 23 22  1  0  0  0  0
 24 23  1  0  0  0  0
M  END
>  <MODEL>
1

>  <REMARK>
 VINA RESULT:      -9.5      0.000      0.000
  Name = 
  2 active torsions:
  status: ('A' for Active; 'I' for Inactive)
    1  A    between atoms: N_6  and  C_15
    2  A    between atoms: C_7  and  C_15
                            x       y       z     vdW  Elec       q    Type
                         _______ _______ _______ _____ _____    ______ ____

>  <TORSDO>
F 2

$$$$
=
 OpenBabel10272400423D

 25 28  0  0  1  0  0  0  0  0999 V2000
  189.6800  177.4400  143.3520 N   0  0  0  0  0  0  0  0  0  0  0  0
  188.5070  177.4200  144.0430 C   0  0  0  0  0  0  0  0  0  0  0  0
  190.9660  177.4950  145.3480 C   0  0  0  0  0  3  0  0  0  0  0  0
  189.9560  177.4250  142.0370 C   0  0  0  0  0  0  0  0  0  0  0  0
  184.9270  178.4390  143.5540 N   0  0  0  0  0  2  0  0  0  0  0  0
  191.0690  177.0020  139.4590 C   0  0  0  0  0  2  0  0  0  0  0  0
  189.8040  177.4720  146.0620 N   0  0  0  0  0  0  0  0  0  0  0  0
  191.3250  177.4270  141.8970 C   0  0  0  0  0  0  0  0  0  0  0  0
  192.0190  177.4710  140.5720 C   0  0  0  0  0  2  0  0  0  0  0  0
  187.3060  177.3610  146.2480 C   0  0  1  0  0  3  0  0  0  0  0  0
  187.4280  178.0730  147.5840 C   0  0  0  0  0  1  0  0  0  0  0  0
  187.1720  177.3050  143.3620 C   0  0  0  0  0  2  0  0  0  0  0  0
  189.6940  177.6770  139.5780 C   0  0  0  0  0  2  0  0  0  0  0  0
  190.8820  177.4800  143.9590 C   0  0  0  0  0  0  0  0  0  0  0  0
  191.9300  177.4820  143.1050 N   0  0  0  0  0  0  0  0  0  0  0  0
  186.1760  177.9260  145.5050 N   0  0  0  0  0  0  0  0  0  0  0  0
  188.9980  177.2950  140.8920 C   0  0  0  0  0  2  0  0  0  0  0  0
  186.0820  177.9030  144.2040 C   0  0  0  0  0  0  0  0  0  0  0  0
  188.5790  177.4490  145.4490 C   0  0  0  0  0  0  0  0  0  0  0  0
  183.8260  179.0620  144.2780 C   0  0  1  0  0  3  0  0  0  0  0  0
  184.0700  180.4310  144.4170 O   0  0  0  0  0  1  0  0  0  0  0  0
  182.7670  178.2470  142.3120 F   0  0  0  0  0  0  0  0  0  0  0  0
  182.5140  178.8370  143.5370 C   0  0  0  0  0  0  0  0  0  0  0  0
  181.8640  180.0420  143.3370 F   0  0  0  0  0  0  0  0  0  0  0  0
  181.7020  177.9990  144.2790 F   0  0  0  0  0  0  0  0  0  0  0  0
  1 14  1  0  0  0  0
  1  2  1  0  0  0  0
  2 19  2  0  0  0  0
  3  7  2  0  0  0  0
  4  1  1  0  0  0  0
  5 18  1  0  0  0  0
  5 20  1  0  0  0  0
  6 13  1  0  0  0  0
  6  9  1  0  0  0  0
  8  4  2  0  0  0  0
  8 15  1  0  0  0  0
  9  8  1  0  0  0  0
 10 11  1  1  0  0  0
 12  2  1  0  0  0  0
 12 18  1  0  0  0  0
 13 17  1  0  0  0  0
 14  3  1  0  0  0  0
 15 14  2  0  0  0  0
 16 10  1  0  0  0  0
 17  4  1  0  0  0  0
 18 16  2  0  0  0  0
 19  7  1  0  0  0  0
 19 10  1  0  0  0  0
 20 21  1  6  0  0  0
 22 23  1  0  0  0  0
 23 20  1  0  0  0  0
 23 25  1  0  0  0  0
 24 23  1  0  0  0  0
M  END
>  <MODEL>
2

>  <REMARK>
 VINA RESULT:      -8.5      4.512      7.240
  Name = 
  2 active torsions:
  status: ('A' for Active; 'I' for Inactive)
    1  A    between atoms: N_6  and  C_15
    2  A    between atoms: C_7  and  C_15
                            x       y       z     vdW  Elec       q    Type
                         _______ _______ _______ _____ _____    ______ ____

>  <TORSDO>
F 2

$$$$
=
 OpenBabel10272400423D

 25 28  0  0  1  0  0  0  0  0999 V2000
  187.9930  177.6460  145.1720 N   0  0  0  0  0  0  0  0  0  0  0  0
  187.4210  177.6470  143.9360 C   0  0  0  0  0  0  0  0  0  0  0  0
  186.0090  178.4540  146.1970 C   0  0  0  0  0  3  0  0  0  0  0  0
  189.2190  177.3020  145.6010 C   0  0  0  0  0  0  0  0  0  0  0  0
  188.4680  177.9420  140.3430 N   0  0  0  0  0  2  0  0  0  0  0  0
  191.4600  176.3380  147.0540 C   0  0  0  0  0  2  0  0  0  0  0  0
  185.4130  178.4610  144.9700 N   0  0  0  0  0  0  0  0  0  0  0  0
  189.2460  177.4680  146.9670 C   0  0  0  0  0  0  0  0  0  0  0  0
  190.4660  177.2390  147.8030 C   0  0  0  0  0  2  0  0  0  0  0  0
  185.3990  178.0360  142.4980 C   0  0  1  0  0  3  0  0  0  0  0  0
  184.3270  179.1070  142.3760 C   0  0  0  0  0  1  0  0  0  0  0  0
  188.1400  177.1480  142.7150 C   0  0  0  0  0  2  0  0  0  0  0  0
  191.6550  176.8070  145.6040 C   0  0  0  0  0  2  0  0  0  0  0  0
  187.3330  178.0350  146.2800 C   0  0  0  0  0  0  0  0  0  0  0  0
  188.0650  177.9510  147.4140 N   0  0  0  0  0  0  0  0  0  0  0  0
  186.3620  178.1940  141.4050 N   0  0  0  0  0  0  0  0  0  0  0  0
  190.3450  176.7120  144.8070 C   0  0  0  0  0  2  0  0  0  0  0  0
  187.6000  177.7900  141.4690 C   0  0  0  0  0  0  0  0  0  0  0  0
  186.0860  178.0830  143.8380 C   0  0  0  0  0  0  0  0  0  0  0  0
  188.0500  178.5740  139.0980 C   0  0  1  0  0  3  0  0  0  0  0  0
  189.0960  179.3440  138.5860 O   0  0  0  0  0  1  0  0  0  0  0  0
  188.1870  176.2960  138.4320 F   0  0  0  0  0  0  0  0  0  0  0  0
  187.6340  177.5160  138.0840 C   0  0  0  0  0  0  0  0  0  0  0  0
  188.0680  177.8680  136.8180 F   0  0  0  0  0  0  0  0  0  0  0  0
  186.2570  177.3970  138.0770 F   0  0  0  0  0  0  0  0  0  0  0  0
  1  4  1  0  0  0  0
  1 14  1  0  0  0  0
  2  1  1  0  0  0  0
  3 14  1  0  0  0  0
  4  8  2  0  0  0  0
  5 18  1  0  0  0  0
  6  9  1  0  0  0  0
  7  3  2  0  0  0  0
  8 15  1  0  0  0  0
  8  9  1  0  0  0  0
 10 11  1  1  0  0  0
 10 19  1  0  0  0  0
 12  2  1  0  0  0  0
 13  6  1  0  0  0  0
 14 15  2  0  0  0  0
 16 18  2  0  0  0  0
 16 10  1  0  0  0  0
 17  4  1  0  0  0  0
 17 13  1  0  0  0  0
 18 12  1  0  0  0  0
 19  2  2  0  0  0  0
 19  7  1  0  0  0  0
 20 21  1  6  0  0  0
 20  5  1  0  0  0  0
 23 22  1  0  0  0  0
 23 20  1  0  0  0  0
 24 23  1  0  0  0  0
 25 23  1  0  0  0  0
M  END
>  <MODEL>
3

>  <REMARK>
 VINA RESULT:      -8.4      4.234      7.032
  Name = 
  2 active torsions:
  status: ('A' for Active; 'I' for Inactive)
    1  A    between atoms: N_6  and  C_15
    2  A    between atoms: C_7  and  C_15
                            x       y       z     vdW  Elec       q    Type
                         _______ _______ _______ _____ _____    ______ ____

>  <TORSDO>
F 2

$$$$
=
 OpenBabel10272400423D

 25 28  0  0  1  0  0  0  0  0999 V2000
  187.5040  177.9660  144.0860 N   0  0  0  0  0  0  0  0  0  0  0  0
  188.3180  178.0120  142.9960 C   0  0  0  0  0  0  0  0  0  0  0  0
  189.2750  177.2550  145.5000 C   0  0  0  0  0  3  0  0  0  0  0  0
  186.1990  178.2370  144.2530 C   0  0  0  0  0  0  0  0  0  0  0  0
  188.0550  177.7060  139.2640 N   0  0  0  0  0  2  0  0  0  0  0  0
  183.6550  179.0580  145.2100 C   0  0  0  0  0  2  0  0  0  0  0  0
  190.1120  177.2960  144.4230 N   0  0  0  0  0  0  0  0  0  0  0  0
  185.8990  178.0530  145.5830 C   0  0  0  0  0  0  0  0  0  0  0  0
  184.5210  178.2040  146.1480 C   0  0  0  0  0  2  0  0  0  0  0  0
  190.6130  177.7520  142.0080 C   0  0  1  0  0  3  0  0  0  0  0  0
  191.7450  176.7440  142.1090 C   0  0  0  0  0  1  0  0  0  0  0  0
  187.8410  178.4870  141.6530 C   0  0  0  0  0  2  0  0  0  0  0  0
  183.7910  178.5980  143.7510 C   0  0  0  0  0  2  0  0  0  0  0  0
  187.9410  177.5990  145.3070 C   0  0  0  0  0  0  0  0  0  0  0  0
  186.9870  177.6290  146.2650 N   0  0  0  0  0  0  0  0  0  0  0  0
  189.9070  177.5560  140.7390 N   0  0  0  0  0  0  0  0  0  0  0  0
  185.2290  178.7740  143.2430 C   0  0  0  0  0  2  0  0  0  0  0  0
  188.6620  177.8910  140.5450 C   0  0  0  0  0  0  0  0  0  0  0  0
  189.6670  177.6510  143.1760 C   0  0  0  0  0  0  0  0  0  0  0  0
  188.7570  177.1140  138.1320 C   0  0  1  0  0  3  0  0  0  0  0  0
  188.0740  175.9760  137.6970 O   0  0  0  0  0  1  0  0  0  0  0  0
  189.7380  177.6420  136.0320 F   0  0  0  0  0  0  0  0  0  0  0  0
  188.8690  178.1220  136.9950 C   0  0  0  0  0  0  0  0  0  0  0  0
  189.3410  179.3320  137.4730 F   0  0  0  0  0  0  0  0  0  0  0  0
  187.6250  178.3130  136.4220 F   0  0  0  0  0  0  0  0  0  0  0  0
  1  4  1  0  0  0  0
  1 14  1  0  0  0  0
  2 19  2  0  0  0  0
  2  1  1  0  0  0  0
  4  8  2  0  0  0  0
  5 18  1  0  0  0  0
  6  9  1  0  0  0  0
  7  3  2  0  0  0  0
  8  9  1  0  0  0  0
  8 15  1  0  0  0  0
 10 11  1  1  0  0  0
 10 19  1  0  0  0  0
 12  2  1  0  0  0  0
 13  6  1  0  0  0  0
 14  3  1  0  0  0  0
 14 15  2  0  0  0  0
 16 10  1  0  0  0  0
 17 13  1  0  0  0  0
 17  4  1  0  0  0  0
 18 16  2  0  0  0  0
 18 12  1  0  0  0  0
 19  7  1  0  0  0  0
 20 21  1  6  0  0  0
 20  5  1  0  0  0  0
 22 23  1  0  0  0  0
 23 24  1  0  0  0  0
 23 20  1  0  0  0  0
 25 23  1  0  0  0  0
M  END
>  <MODEL>
4

>  <REMARK>
 VINA RESULT:      -8.3      4.664      6.193
  Name = 
  2 active torsions:
  status: ('A' for Active; 'I' for Inactive)
    1  A    between atoms: N_6  and  C_15
    2  A    between atoms: C_7  and  C_15
                            x       y       z     vdW  Elec       q    Type
                         _______ _______ _______ _____ _____    ______ ____

>  <TORSDO>
F 2

$$$$
=
 OpenBabel10272400423D

 25 28  0  0  1  0  0  0  0  0999 V2000
  188.4870  177.6620  143.2420 N   0  0  0  0  0  0  0  0  0  0  0  0
  187.9900  178.0840  142.0460 C   0  0  0  0  0  0  0  0  0  0  0  0
  190.5050  176.9030  142.2430 C   0  0  0  0  0  3  0  0  0  0  0  0
  187.9910  177.6930  144.4890 C   0  0  0  0  0  0  0  0  0  0  0  0
  184.6530  178.6360  140.4170 N   0  0  0  0  0  2  0  0  0  0  0  0
  187.5980  177.8830  147.2950 C   0  0  0  0  0  2  0  0  0  0  0  0
  190.0290  177.3210  141.0350 N   0  0  0  0  0  0  0  0  0  0  0  0
  188.9390  177.1560  145.3300 C   0  0  0  0  0  0  0  0  0  0  0  0
  188.7270  176.9670  146.8000 C   0  0  0  0  0  2  0  0  0  0  0  0
  188.3020  178.4040  139.5750 C   0  0  1  0  0  3  0  0  0  0  0  0
  188.8390  177.5770  138.4190 C   0  0  0  0  0  1  0  0  0  0  0  0
  186.6680  178.7880  141.9270 C   0  0  0  0  0  2  0  0  0  0  0  0
  186.3720  177.8060  146.3720 C   0  0  0  0  0  2  0  0  0  0  0  0
  189.6990  177.0850  143.3630 C   0  0  0  0  0  0  0  0  0  0  0  0
  190.0220  176.7470  144.6310 N   0  0  0  0  0  0  0  0  0  0  0  0
  186.8370  178.4130  139.5180 N   0  0  0  0  0  0  0  0  0  0  0  0
  186.7070  178.3060  144.9600 C   0  0  0  0  0  2  0  0  0  0  0  0
  186.0750  178.5980  140.5600 C   0  0  0  0  0  0  0  0  0  0  0  0
  188.7910  177.8920  140.9040 C   0  0  0  0  0  0  0  0  0  0  0  0
  183.9790  178.4380  139.1400 C   0  0  1  0  0  3  0  0  0  0  0  0
  183.3770  177.1780  139.1160 O   0  0  0  0  0  1  0  0  0  0  0  0
  183.5490  180.7580  138.8460 F   0  0  0  0  0  0  0  0  0  0  0  0
  182.9310  179.5220  138.9240 C   0  0  0  0  0  0  0  0  0  0  0  0
  182.0260  179.5300  139.9710 F   0  0  0  0  0  0  0  0  0  0  0  0
  182.2550  179.2840  137.7410 F   0  0  0  0  0  0  0  0  0  0  0  0
  1 14  1  0  0  0  0
  1  4  1  0  0  0  0
  2  1  1  0  0  0  0
  3 14  1  0  0  0  0
  4 17  1  0  0  0  0
  4  8  2  0  0  0  0
  5 18  1  0  0  0  0
  7  3  2  0  0  0  0
  8  9  1  0  0  0  0
  9  6  1  0  0  0  0
 10 11  1  6  0  0  0
 10 19  1  0  0  0  0
 12  2  1  0  0  0  0
 13  6  1  0  0  0  0
 14 15  2  0  0  0  0
 15  8  1  0  0  0  0
 16 10  1  0  0  0  0
 16 18  2  0  0  0  0
 17 13  1  0  0  0  0
 18 12  1  0  0  0  0
 19  7  1  0  0  0  0
 19  2  2  0  0  0  0
 20 21  1  1  0  0  0
 20  5  1  0  0  0  0
 22 23  1  0  0  0  0
 23 20  1  0  0  0  0
 23 24  1  0  0  0  0
 25 23  1  0  0  0  0
M  END
>  <MODEL>
5

>  <REMARK>
 VINA RESULT:      -8.3      5.525      7.451
  Name = 
  2 active torsions:
  status: ('A' for Active; 'I' for Inactive)
    1  A    between atoms: N_6  and  C_15
    2  A    between atoms: C_7  and  C_15
                            x       y       z     vdW  Elec       q    Type
                         _______ _______ _______ _____ _____    ______ ____

>  <TORSDO>
F 2

$$$$
=
 OpenBabel10272400423D

 25 28  0  0  1  0  0  0  0  0999 V2000
  188.0660  177.4300  145.0710 N   0  0  0  0  0  0  0  0  0  0  0  0
  186.8450  177.5890  144.4870 C   0  0  0  0  0  0  0  0  0  0  0  0
  187.2270  178.0280  147.2110 C   0  0  0  0  0  3  0  0  0  0  0  0
  189.2620  177.0650  144.5810 C   0  0  0  0  0  0  0  0  0  0  0  0
  185.4180  178.4170  141.1150 N   0  0  0  0  0  2  0  0  0  0  0  0
  191.8480  175.9710  144.1540 C   0  0  0  0  0  2  0  0  0  0  0  0
  185.9940  178.1900  146.6500 N   0  0  0  0  0  0  0  0  0  0  0  0
  190.1530  177.0370  145.6300 C   0  0  0  0  0  0  0  0  0  0  0  0
  191.6080  176.7280  145.4690 C   0  0  0  0  0  2  0  0  0  0  0  0
  184.4010  178.1180  144.7140 C   0  0  1  0  0  3  0  0  0  0  0  0
  183.5650  179.1630  145.4330 C   0  0  0  0  0  1  0  0  0  0  0  0
  186.6020  177.2870  143.0350 C   0  0  0  0  0  2  0  0  0  0  0  0
  191.1180  176.6460  142.9820 C   0  0  0  0  0  2  0  0  0  0  0  0
  188.2770  177.6400  146.3850 C   0  0  0  0  0  0  0  0  0  0  0  0
  189.5510  177.4190  146.7790 N   0  0  0  0  0  0  0  0  0  0  0  0
  184.4700  178.4560  143.2900 N   0  0  0  0  0  0  0  0  0  0  0  0
  189.5960  176.6260  143.1880 C   0  0  0  0  0  2  0  0  0  0  0  0
  185.4430  178.0830  142.5060 C   0  0  0  0  0  0  0  0  0  0  0  0
  185.7780  177.9950  145.3110 C   0  0  0  0  0  0  0  0  0  0  0  0
  184.3530  179.2060  140.5080 C   0  0  1  0  0  3  0  0  0  0  0  0
  184.8560  179.9120  139.4130 O   0  0  0  0  0  1  0  0  0  0  0  0
  183.5870  176.9740  140.2150 F   0  0  0  0  0  0  0  0  0  0  0  0
  183.2130  178.2980  140.0650 C   0  0  0  0  0  0  0  0  0  0  0  0
  182.8980  178.5360  138.7390 F   0  0  0  0  0  0  0  0  0  0  0  0
  182.0990  178.5400  140.8470 F   0  0  0  0  0  0  0  0  0  0  0  0
  1 14  1  0  0  0  0
  2  1  1  0  0  0  0
  2 19  2  0  0  0  0
  4  1  1  0  0  0  0
  4  8  2  0  0  0  0
  5 18  1  0  0  0  0
  6  9  1  0  0  0  0
  7  3  2  0  0  0  0
  8 15  1  0  0  0  0
  9  8  1  0  0  0  0
 10 19  1  0  0  0  0
 10 11  1  1  0  0  0
 12  2  1  0  0  0  0
 13 17  1  0  0  0  0
 13  6  1  0  0  0  0
 14 15  2  0  0  0  0
 14  3  1  0  0  0  0
 16 10  1  0  0  0  0
 17  4  1  0  0  0  0
 18 12  1  0  0  0  0
 18 16  2  0  0  0  0
 19  7  1  0  0  0  0
 20 21  1  6  0  0  0
 20  5  1  0  0  0  0
 23 22  1  0  0  0  0
 23 20  1  0  0  0  0
 23 25  1  0  0  0  0
 24 23  1  0  0  0  0
M  END
>  <MODEL>
6

>  <REMARK>
 VINA RESULT:      -8.2      4.951      7.850
  Name = 
  2 active torsions:
  status: ('A' for Active; 'I' for Inactive)
    1  A    between atoms: N_6  and  C_15
    2  A    between atoms: C_7  and  C_15
                            x       y       z     vdW  Elec       q    Type
                         _______ _______ _______ _____ _____    ______ ____

>  <TORSDO>
F 2

$$$$
=
 OpenBabel10272400423D

 25 28  0  0  1  0  0  0  0  0999 V2000
  188.2550  177.6340  142.8540 N   0  0  0  0  0  0  0  0  0  0  0  0
  188.5630  177.7590  141.5330 C   0  0  0  0  0  0  0  0  0  0  0  0
  190.3930  176.7340  143.3650 C   0  0  0  0  0  3  0  0  0  0  0  0
  187.1500  177.9300  143.5570 C   0  0  0  0  0  0  0  0  0  0  0  0
  186.7980  177.8220  138.2200 N   0  0  0  0  0  2  0  0  0  0  0  0
  185.2690  178.7350  145.5260 C   0  0  0  0  0  2  0  0  0  0  0  0
  190.7250  176.8530  142.0470 N   0  0  0  0  0  0  0  0  0  0  0  0
  187.3990  177.6280  144.8760 C   0  0  0  0  0  0  0  0  0  0  0  0
  186.3800  177.7680  145.9630 C   0  0  0  0  0  2  0  0  0  0  0  0
  190.2410  177.5230  139.6800 C   0  0  1  0  0  3  0  0  0  0  0  0
  191.2460  176.4740  139.2350 C   0  0  0  0  0  1  0  0  0  0  0  0
  187.6180  178.3760  140.5400 C   0  0  0  0  0  2  0  0  0  0  0  0
  184.7740  178.4130  144.1080 C   0  0  0  0  0  2  0  0  0  0  0  0
  189.1220  177.1380  143.7590 C   0  0  0  0  0  0  0  0  0  0  0  0
  188.6380  177.1060  145.0210 N   0  0  0  0  0  0  0  0  0  0  0  0
  189.0730  177.4730  138.7970 N   0  0  0  0  0  0  0  0  0  0  0  0
  185.8950  178.5920  143.0730 C   0  0  0  0  0  2  0  0  0  0  0  0
  187.8810  177.8630  139.1530 C   0  0  0  0  0  0  0  0  0  0  0  0
  189.8420  177.3400  141.1200 C   0  0  0  0  0  0  0  0  0  0  0  0
  186.9420  177.3200  136.8590 C   0  0  1  0  0  3  0  0  0  0  0  0
  185.7050  176.8760  136.3880 O   0  0  0  0  0  1  0  0  0  0  0  0
  186.7320  178.4730  134.7910 F   0  0  0  0  0  0  0  0  0  0  0  0
  187.4870  178.4130  135.9490 C   0  0  0  0  0  0  0  0  0  0  0  0
  188.8050  178.1510  135.6210 F   0  0  0  0  0  0  0  0  0  0  0  0
  187.4120  179.6330  136.5960 F   0  0  0  0  0  0  0  0  0  0  0  0
  1  4  1  0  0  0  0
  1 14  1  0  0  0  0
  2  1  1  0  0  0  0
  3 14  1  0  0  0  0
  4  8  2  0  0  0  0
  5 18  1  0  0  0  0
  6  9  1  0  0  0  0
  7  3  2  0  0  0  0
  8 15  1  0  0  0  0
  8  9  1  0  0  0  0
 10 11  1  6  0  0  0
 10 19  1  0  0  0  0
 12  2  1  0  0  0  0
 13  6  1  0  0  0  0
 14 15  2  0  0  0  0
 16 18  2  0  0  0  0
 16 10  1  0  0  0  0
 17  4  1  0  0  0  0
 17 13  1  0  0  0  0
 18 12  1  0  0  0  0
 19  2  2  0  0  0  0
 19  7  1  0  0  0  0
 20 21  1  6  0  0  0
 20  5  1  0  0  0  0
 22 23  1  0  0  0  0
 23 25  1  0  0  0  0
 23 20  1  0  0  0  0
 24 23  1  0  0  0  0
M  END
>  <MODEL>
7

>  <REMARK>
 VINA RESULT:      -8.1      5.384      7.126
  Name = 
  2 active torsions:
  status: ('A' for Active; 'I' for Inactive)
    1  A    between atoms: N_6  and  C_15
    2  A    between atoms: C_7  and  C_15
                            x       y       z     vdW  Elec       q    Type
                         _______ _______ _______ _____ _____    ______ ____

>  <TORSDO>
F 2

$$$$
=
 OpenBabel10272400423D

 25 28  0  0  1  0  0  0  0  0999 V2000
  186.2600  178.2590  144.9350 N   0  0  0  0  0  0  0  0  0  0  0  0
  186.2220  178.0410  143.5910 C   0  0  0  0  0  0  0  0  0  0  0  0
  184.0680  179.1740  144.9450 C   0  0  0  0  0  3  0  0  0  0  0  0
  187.2010  178.0230  145.8630 C   0  0  0  0  0  0  0  0  0  0  0  0
  188.6120  177.7620  140.7100 N   0  0  0  0  0  2  0  0  0  0  0  0
  188.6470  177.3730  148.2200 C   0  0  0  0  0  2  0  0  0  0  0  0
  184.0050  178.9620  143.5990 N   0  0  0  0  0  0  0  0  0  0  0  0
  186.6950  178.4150  147.0820 C   0  0  0  0  0  0  0  0  0  0  0  0
  187.4770  178.3590  148.3570 C   0  0  0  0  0  2  0  0  0  0  0  0
  184.9480  178.1320  141.4280 C   0  0  1  0  0  3  0  0  0  0  0  0
  184.0580  179.1390  140.7200 C   0  0  0  0  0  1  0  0  0  0  0  0
  187.3420  177.3640  142.8530 C   0  0  0  0  0  2  0  0  0  0  0  0
  189.4170  177.6000  146.9090 C   0  0  0  0  0  2  0  0  0  0  0  0
  185.2330  178.8100  145.6120 C   0  0  0  0  0  0  0  0  0  0  0  0
  185.4550  178.9350  146.9400 N   0  0  0  0  0  0  0  0  0  0  0  0
  186.2700  178.1310  140.7950 N   0  0  0  0  0  0  0  0  0  0  0  0
  188.5240  177.3400  145.6870 C   0  0  0  0  0  2  0  0  0  0  0  0
  187.3650  177.7760  141.4090 C   0  0  0  0  0  0  0  0  0  0  0  0
  185.0530  178.4190  142.9030 C   0  0  0  0  0  0  0  0  0  0  0  0
  188.7450  178.1670  139.3160 C   0  0  1  0  0  3  0  0  0  0  0  0
  188.9820  179.5410  139.2450 O   0  0  0  0  0  1  0  0  0  0  0  0
  190.0900  177.8950  137.3750 F   0  0  0  0  0  0  0  0  0  0  0  0
  189.8850  177.4050  138.6520 C   0  0  0  0  0  0  0  0  0  0  0  0
  189.5820  176.0570  138.5800 F   0  0  0  0  0  0  0  0  0  0  0  0
  191.0440  177.5730  139.3880 F   0  0  0  0  0  0  0  0  0  0  0  0
  1 14  1  0  0  0  0
  1  4  1  0  0  0  0
  2  1  1  0  0  0  0
  3 14  1  0  0  0  0
  4  8  2  0  0  0  0
  5 18  1  0  0  0  0
  6  9  1  0  0  0  0
  7  3  2  0  0  0  0
  8  9  1  0  0  0  0
 10 11  1  6  0  0  0
 10 19  1  0  0  0  0
 12  2  1  0  0  0  0
 13  6  1  0  0  0  0
 14 15  2  0  0  0  0
 15  8  1  0  0  0  0
 16 18  2  0  0  0  0
 16 10  1  0  0  0  0
 17  4  1  0  0  0  0
 17 13  1  0  0  0  0
 18 12  1  0  0  0  0
 19  2  2  0  0  0  0
 19  7  1  0  0  0  0
 20 21  1  1  0  0  0
 20  5  1  0  0  0  0
 22 23  1  0  0  0  0
 23 20  1  0  0  0  0
 23 25  1  0  0  0  0
 24 23  1  0  0  0  0
M  END
>  <MODEL>
8

>  <REMARK>
 VINA RESULT:      -8.1      4.014      6.259
  Name = 
  2 active torsions:
  status: ('A' for Active; 'I' for Inactive)
    1  A    between atoms: N_6  and  C_15
    2  A    between atoms: C_7  and  C_15
                            x       y       z     vdW  Elec       q    Type
                         _______ _______ _______ _____ _____    ______ ____

>  <TORSDO>
F 2

$$$$
=
 OpenBabel10272400423D

 25 28  0  0  1  0  0  0  0  0999 V2000
  183.6660  178.6620  142.2030 N   0  0  0  0  0  0  0  0  0  0  0  0
  184.7850  178.6180  142.9790 C   0  0  0  0  0  0  0  0  0  0  0  0
  182.2470  178.8890  144.0950 C   0  0  0  0  0  3  0  0  0  0  0  0
  183.4840  178.6020  140.8740 C   0  0  0  0  0  0  0  0  0  0  0  0
  188.2620  177.2110  142.8360 N   0  0  0  0  0  2  0  0  0  0  0  0
  182.6020  178.9340  138.1960 C   0  0  0  0  0  2  0  0  0  0  0  0
  183.3540  178.8510  144.8920 N   0  0  0  0  0  0  0  0  0  0  0  0
  182.1350  178.7260  140.6300 C   0  0  0  0  0  0  0  0  0  0  0  0
  181.5330  178.6490  139.2620 C   0  0  0  0  0  2  0  0  0  0  0  0
  185.8310  178.7260  145.2600 C   0  0  1  0  0  3  0  0  0  0  0  0
  185.5430  178.1350  146.6290 C   0  0  0  0  0  1  0  0  0  0  0  0
  186.1680  178.5450  142.3950 C   0  0  0  0  0  2  0  0  0  0  0  0
  183.8860  178.1360  138.4660 C   0  0  0  0  0  2  0  0  0  0  0  0
  182.4280  178.7880  142.7190 C   0  0  0  0  0  0  0  0  0  0  0  0
  181.4470  178.8260  141.7900 N   0  0  0  0  0  0  0  0  0  0  0  0
  186.9440  177.9950  144.6460 N   0  0  0  0  0  0  0  0  0  0  0  0
  184.5270  178.5470  139.7990 C   0  0  0  0  0  2  0  0  0  0  0  0
  187.1280  177.9080  143.3580 C   0  0  0  0  0  0  0  0  0  0  0  0
  184.6130  178.7040  144.3740 C   0  0  0  0  0  0  0  0  0  0  0  0
  189.2390  176.5380  143.6840 C   0  0  1  0  0  3  0  0  0  0  0  0
  189.8480  175.5040  142.9710 O   0  0  0  0  0  1  0  0  0  0  0  0
  190.0090  177.9100  145.4670 F   0  0  0  0  0  0  0  0  0  0  0  0
  190.2900  177.5300  144.1660 C   0  0  0  0  0  0  0  0  0  0  0  0
  190.2990  178.6510  143.3560 F   0  0  0  0  0  0  0  0  0  0  0  0
  191.5380  176.9350  144.1330 F   0  0  0  0  0  0  0  0  0  0  0  0
  1 14  1  0  0  0  0
  1  2  1  0  0  0  0
  2 19  2  0  0  0  0
  3  7  2  0  0  0  0
  4  1  1  0  0  0  0
  5 18  1  0  0  0  0
  5 20  1  0  0  0  0
  6 13  1  0  0  0  0
  6  9  1  0  0  0  0
  8  4  2  0  0  0  0
  8 15  1  0  0  0  0
  9  8  1  0  0  0  0
 10 11  1  1  0  0  0
 12  2  1  0  0  0  0
 12 18  1  0  0  0  0
 13 17  1  0  0  0  0
 14  3  1  0  0  0  0
 15 14  2  0  0  0  0
 16 10  1  0  0  0  0
 17  4  1  0  0  0  0
 18 16  2  0  0  0  0
 19  7  1  0  0  0  0
 19 10  1  0  0  0  0
 20 21  1  6  0  0  0
 20 23  1  0  0  0  0
 23 22  1  0  0  0  0
 24 23  1  0  0  0  0
 25 23  1  0  0  0  0
M  END
>  <MODEL>
9

>  <REMARK>
 VINA RESULT:      -8.0      3.051      5.017
  Name = 
  2 active torsions:
  status: ('A' for Active; 'I' for Inactive)
    1  A    between atoms: N_6  and  C_15
    2  A    between atoms: C_7  and  C_15
                            x       y       z     vdW  Elec       q    Type
                         _______ _______ _______ _____ _____    ______ ____

>  <TORSDO>
F 2

$$$$
