=
 OpenBabel10272401043D

 27 31  0  0  0  0  0  0  0  0999 V2000
  188.9360  176.6500  142.7320 O   0  0  0  0  0  0  0  0  0  0  0  0
  187.1820  177.7750  143.9850 C   0  0  0  0  0  0  0  0  0  0  0  0
  186.6890  178.1560  141.5950 C   0  0  0  0  0  3  0  0  0  0  0  0
  183.1470  178.8250  144.7450 C   0  0  0  0  0  3  0  0  0  0  0  0
  180.9550  179.3340  143.9630 F   0  0  0  0  0  0  0  0  0  0  0  0
  186.6700  177.9630  145.2850 C   0  0  0  0  0  3  0  0  0  0  0  0
  184.0030  178.5580  142.1040 C   0  0  0  0  0  3  0  0  0  0  0  0
  189.2630  178.3800  138.9660 C   0  0  0  0  0  0  0  0  0  0  0  0
  182.6730  178.8840  142.3770 C   0  0  0  0  0  3  0  0  0  0  0  0
  189.3540  178.9030  137.8260 O   0  0  0  0  0  0  0  0  0  0  0  0
  184.9340  178.3530  143.1460 C   0  0  0  0  0  0  0  0  0  0  0  0
  188.4420  177.2570  143.8890 C   0  0  0  0  0  0  0  0  0  0  0  0
  182.2450  179.0160  143.6980 C   0  0  0  0  0  0  0  0  0  0  0  0
  184.4780  178.4940  144.4770 C   0  0  0  0  0  0  0  0  0  0  0  0
  189.0260  177.2530  141.4890 C   0  0  0  0  0  0  0  0  0  0  0  0
  186.3020  178.0410  142.8800 C   0  0  0  0  0  0  0  0  0  0  0  0
  188.1300  178.5420  139.7000 N   0  0  0  0  0  2  0  0  0  0  0  0
  185.3550  178.3230  145.5330 C   0  0  0  0  0  3  0  0  0  0  0  0
  190.3180  177.6250  139.4740 C   0  0  0  0  0  3  0  0  0  0  0  0
  190.1890  177.0560  140.7400 C   0  0  0  0  0  3  0  0  0  0  0  0
  187.9880  178.0090  140.9450 C   0  0  0  0  0  0  0  0  0  0  0  0
  191.0230  176.8730  147.3020 C   0  0  0  0  0  3  0  0  0  0  0  0
  189.3550  177.1620  145.0610 C   0  0  0  0  0  0  0  0  0  0  0  0
  190.7270  176.9070  144.9000 C   0  0  0  0  0  3  0  0  0  0  0  0
  191.5580  176.7700  146.0150 C   0  0  0  0  0  3  0  0  0  0  0  0
  189.6560  177.1050  147.4730 C   0  0  0  0  0  3  0  0  0  0  0  0
  188.8250  177.2430  146.3570 C   0  0  0  0  0  3  0  0  0  0  0  0
  1 12  1  0  0  0  0
  2  6  1  0  0  0  0
  3 16  2  0  0  0  0
  6 18  2  0  0  0  0
  7  9  2  0  0  0  0
  7 11  1  0  0  0  0
  8 19  1  0  0  0  0
  8 17  1  0  0  0  0
  9 13  1  0  0  0  0
 10  8  2  0  0  0  0
 11 14  2  0  0  0  0
 12  2  2  0  0  0  0
 12 23  1  0  0  0  0
 13  5  1  0  0  0  0
 13  4  2  0  0  0  0
 14  4  1  0  0  0  0
 14 18  1  0  0  0  0
 15  1  1  0  0  0  0
 16 11  1  0  0  0  0
 16  2  1  0  0  0  0
 17 21  1  0  0  0  0
 19 20  2  0  0  0  0
 20 15  1  0  0  0  0
 21 15  2  0  0  0  0
 21  3  1  0  0  0  0
 22 26  1  0  0  0  0
 23 27  1  0  0  0  0
 24 23  2  0  0  0  0
 24 25  1  0  0  0  0
 25 22  2  0  0  0  0
 27 26  2  0  0  0  0
M  END
>  <MODEL>
1

>  <REMARK>
 VINA RESULT:     -12.5      0.000      0.000
  Name = 
  1 active torsions:
  status: ('A' for Active; 'I' for Inactive)
    1  A    between atoms: C_9  and  C_15
                            x       y       z     vdW  Elec       q    Type
                         _______ _______ _______ _____ _____    ______ ____

>  <TORSDO>
F 1

$$$$
=
 OpenBabel10272401043D

 27 31  0  0  0  0  0  0  0  0999 V2000
  187.4150  178.7450  141.6090 O   0  0  0  0  0  0  0  0  0  0  0  0
  187.6770  177.7570  143.8140 C   0  0  0  0  0  0  0  0  0  0  0  0
  189.6910  177.1380  142.5280 C   0  0  0  0  0  3  0  0  0  0  0  0
  189.8920  176.7990  147.2980 C   0  0  0  0  0  3  0  0  0  0  0  0
  191.9480  176.2180  148.3530 F   0  0  0  0  0  0  0  0  0  0  0  0
  187.1000  177.7030  145.0990 C   0  0  0  0  0  3  0  0  0  0  0  0
  191.1850  176.7950  144.8260 C   0  0  0  0  0  3  0  0  0  0  0  0
  189.7360  176.6430  138.8750 C   0  0  0  0  0  0  0  0  0  0  0  0
  191.9010  176.5010  145.9890 C   0  0  0  0  0  3  0  0  0  0  0  0
  190.4440  176.0070  138.0520 O   0  0  0  0  0  0  0  0  0  0  0  0
  189.8070  177.1030  144.8740 C   0  0  0  0  0  0  0  0  0  0  0  0
  186.8980  178.2600  142.8120 C   0  0  0  0  0  0  0  0  0  0  0  0
  191.2540  176.5040  147.2250 C   0  0  0  0  0  0  0  0  0  0  0  0
  189.1720  177.0970  146.1380 C   0  0  0  0  0  0  0  0  0  0  0  0
  188.1910  178.0190  140.7210 C   0  0  0  0  0  0  0  0  0  0  0  0
  189.0580  177.3820  143.6910 C   0  0  0  0  0  0  0  0  0  0  0  0
  189.9980  176.5590  140.2060 N   0  0  0  0  0  2  0  0  0  0  0  0
  187.8210  177.3730  146.2360 C   0  0  0  0  0  3  0  0  0  0  0  0
  188.6890  177.4430  138.4220 C   0  0  0  0  0  3  0  0  0  0  0  0
  187.9210  178.1380  139.3550 C   0  0  0  0  0  3  0  0  0  0  0  0
  189.2510  177.2150  141.1370 C   0  0  0  0  0  0  0  0  0  0  0  0
  182.6890  178.9940  143.2740 C   0  0  0  0  0  3  0  0  0  0  0  0
  185.4320  178.4710  142.9710 C   0  0  0  0  0  0  0  0  0  0  0  0
  184.5400  178.2370  141.9110 C   0  0  0  0  0  3  0  0  0  0  0  0
  183.1750  178.4910  142.0640 C   0  0  0  0  0  3  0  0  0  0  0  0
  183.5710  179.2500  144.3270 C   0  0  0  0  0  3  0  0  0  0  0  0
  184.9370  178.9950  144.1740 C   0  0  0  0  0  3  0  0  0  0  0  0
  1 12  1  0  0  0  0
  2  6  1  0  0  0  0
  3 16  2  0  0  0  0
  6 18  2  0  0  0  0
  7 11  2  0  0  0  0
  7  9  1  0  0  0  0
  8 17  1  0  0  0  0
  9 13  2  0  0  0  0
 10  8  2  0  0  0  0
 11 14  1  0  0  0  0
 12 23  1  0  0  0  0
 12  2  2  0  0  0  0
 13  4  1  0  0  0  0
 13  5  1  0  0  0  0
 14 18  1  0  0  0  0
 14  4  2  0  0  0  0
 15 21  2  0  0  0  0
 15  1  1  0  0  0  0
 16  2  1  0  0  0  0
 16 11  1  0  0  0  0
 17 21  1  0  0  0  0
 19  8  1  0  0  0  0
 19 20  2  0  0  0  0
 20 15  1  0  0  0  0
 21  3  1  0  0  0  0
 22 26  1  0  0  0  0
 23 27  1  0  0  0  0
 24 25  1  0  0  0  0
 24 23  2  0  0  0  0
 25 22  2  0  0  0  0
 27 26  2  0  0  0  0
M  END
>  <MODEL>
2

>  <REMARK>
 VINA RESULT:     -12.3      2.645      5.862
  Name = 
  1 active torsions:
  status: ('A' for Active; 'I' for Inactive)
    1  A    between atoms: C_9  and  C_15
                            x       y       z     vdW  Elec       q    Type
                         _______ _______ _______ _____ _____    ______ ____

>  <TORSDO>
F 1

$$$$
=
 OpenBabel10272401043D

 27 31  0  0  0  0  0  0  0  0999 V2000
  187.2000  178.8720  140.4730 O   0  0  0  0  0  0  0  0  0  0  0  0
  186.4930  178.1920  142.6980 C   0  0  0  0  0  0  0  0  0  0  0  0
  188.8240  177.4190  142.4390 C   0  0  0  0  0  3  0  0  0  0  0  0
  187.0490  177.7290  146.8740 C   0  0  0  0  0  3  0  0  0  0  0  0
  188.4660  177.3110  148.7420 F   0  0  0  0  0  0  0  0  0  0  0  0
  185.4410  178.3080  143.6290 C   0  0  0  0  0  3  0  0  0  0  0  0
  189.2340  177.4010  145.1700 C   0  0  0  0  0  3  0  0  0  0  0  0
  190.3270  176.4370  139.2190 C   0  0  0  0  0  0  0  0  0  0  0  0
  189.3990  177.2720  146.5520 C   0  0  0  0  0  3  0  0  0  0  0  0
  191.2770  175.7010  138.8470 O   0  0  0  0  0  0  0  0  0  0  0  0
  187.9730  177.7020  144.6110 C   0  0  0  0  0  0  0  0  0  0  0  0
  186.2150  178.5500  141.4090 C   0  0  0  0  0  0  0  0  0  0  0  0
  188.3070  177.4370  147.4020 C   0  0  0  0  0  0  0  0  0  0  0  0
  186.8790  177.8630  145.4930 C   0  0  0  0  0  0  0  0  0  0  0  0
  188.2340  178.0380  140.0810 C   0  0  0  0  0  0  0  0  0  0  0  0
  187.7850  177.8140  143.2000 C   0  0  0  0  0  0  0  0  0  0  0  0
  190.0200  176.5340  140.5400 N   0  0  0  0  0  2  0  0  0  0  0  0
  185.6200  178.1390  144.9930 C   0  0  0  0  0  3  0  0  0  0  0  0
  189.5960  177.1610  138.2810 C   0  0  0  0  0  3  0  0  0  0  0  0
  188.5490  177.9690  138.7210 C   0  0  0  0  0  3  0  0  0  0  0  0
  188.9920  177.3050  140.9920 C   0  0  0  0  0  0  0  0  0  0  0  0
  182.2190  179.0930  139.9250 C   0  0  0  0  0  3  0  0  0  0  0  0
  184.8240  178.7690  140.9260 C   0  0  0  0  0  0  0  0  0  0  0  0
  183.7130  178.3650  141.6850 C   0  0  0  0  0  3  0  0  0  0  0  0
  182.4170  178.5320  141.1900 C   0  0  0  0  0  3  0  0  0  0  0  0
  183.3180  179.4790  139.1540 C   0  0  0  0  0  3  0  0  0  0  0  0
  184.6150  179.3120  139.6500 C   0  0  0  0  0  3  0  0  0  0  0  0
  1 12  1  0  0  0  0
  2 16  1  0  0  0  0
  2  6  1  0  0  0  0
  3 16  2  0  0  0  0
  4 13  1  0  0  0  0
  6 18  2  0  0  0  0
  7  9  1  0  0  0  0
  8 17  1  0  0  0  0
  9 13  2  0  0  0  0
 10  8  2  0  0  0  0
 11  7  2  0  0  0  0
 11 14  1  0  0  0  0
 12  2  2  0  0  0  0
 13  5  1  0  0  0  0
 14  4  2  0  0  0  0
 15  1  1  0  0  0  0
 15 21  2  0  0  0  0
 16 11  1  0  0  0  0
 17 21  1  0  0  0  0
 18 14  1  0  0  0  0
 19 20  2  0  0  0  0
 19  8  1  0  0  0  0
 20 15  1  0  0  0  0
 21  3  1  0  0  0  0
 22 25  1  0  0  0  0
 23 12  1  0  0  0  0
 23 24  1  0  0  0  0
 25 24  2  0  0  0  0
 26 27  1  0  0  0  0
 26 22  2  0  0  0  0
 27 23  2  0  0  0  0
M  END
>  <MODEL>
3

>  <REMARK>
 VINA RESULT:     -11.6      2.433      5.755
  Name = 
  1 active torsions:
  status: ('A' for Active; 'I' for Inactive)
    1  A    between atoms: C_9  and  C_15
                            x       y       z     vdW  Elec       q    Type
                         _______ _______ _______ _____ _____    ______ ____

>  <TORSDO>
F 1

$$$$
=
 OpenBabel10272401043D

 27 31  0  0  0  0  0  0  0  0999 V2000
  186.6000  178.8490  141.2020 O   0  0  0  0  0  0  0  0  0  0  0  0
  186.1660  178.1940  143.5020 C   0  0  0  0  0  0  0  0  0  0  0  0
  188.5460  177.6970  143.0710 C   0  0  0  0  0  3  0  0  0  0  0  0
  187.1130  177.9960  147.6290 C   0  0  0  0  0  3  0  0  0  0  0  0
  188.7190  177.8400  149.3810 F   0  0  0  0  0  0  0  0  0  0  0  0
  185.1870  178.2240  144.5160 C   0  0  0  0  0  3  0  0  0  0  0  0
  189.1760  177.8560  145.7560 C   0  0  0  0  0  3  0  0  0  0  0  0
  189.8940  176.7550  139.7720 C   0  0  0  0  0  0  0  0  0  0  0  0
  189.4680  177.8130  147.1210 C   0  0  0  0  0  3  0  0  0  0  0  0
  190.8950  176.1230  139.3450 O   0  0  0  0  0  0  0  0  0  0  0  0
  187.8460  177.9760  145.2970 C   0  0  0  0  0  0  0  0  0  0  0  0
  185.7420  178.4540  142.2310 C   0  0  0  0  0  0  0  0  0  0  0  0
  188.4360  177.8840  148.0570 C   0  0  0  0  0  0  0  0  0  0  0  0
  186.8170  178.0440  146.2640 C   0  0  0  0  0  0  0  0  0  0  0  0
  187.6940  178.1300  140.7520 C   0  0  0  0  0  0  0  0  0  0  0  0
  187.5320  177.9990  143.9040 C   0  0  0  0  0  0  0  0  0  0  0  0
  189.6860  176.8760  141.1100 N   0  0  0  0  0  2  0  0  0  0  0  0
  185.4960  178.1420  145.8650 C   0  0  0  0  0  3  0  0  0  0  0  0
  189.0040  177.3400  138.8740 C   0  0  0  0  0  3  0  0  0  0  0  0
  187.9040  178.0360  139.3740 C   0  0  0  0  0  3  0  0  0  0  0  0
  188.6100  177.5370  141.6210 C   0  0  0  0  0  0  0  0  0  0  0  0
  181.5790  178.4030  141.1680 C   0  0  0  0  0  3  0  0  0  0  0  0
  184.3000  178.4810  141.8620 C   0  0  0  0  0  0  0  0  0  0  0  0
  183.3200  178.9170  142.7690 C   0  0  0  0  0  3  0  0  0  0  0  0
  181.9670  178.8850  142.4210 C   0  0  0  0  0  3  0  0  0  0  0  0
  182.5440  177.9470  140.2670 C   0  0  0  0  0  3  0  0  0  0  0  0
  183.8980  177.9800  140.6140 C   0  0  0  0  0  3  0  0  0  0  0  0
  1 12  1  0  0  0  0
  2 16  1  0  0  0  0
  2  6  1  0  0  0  0
  3 16  2  0  0  0  0
  4 13  1  0  0  0  0
  6 18  2  0  0  0  0
  7  9  1  0  0  0  0
  8 17  1  0  0  0  0
  9 13  2  0  0  0  0
 10  8  2  0  0  0  0
 11  7  2  0  0  0  0
 11 14  1  0  0  0  0
 12  2  2  0  0  0  0
 13  5  1  0  0  0  0
 14  4  2  0  0  0  0
 15  1  1  0  0  0  0
 15 21  2  0  0  0  0
 16 11  1  0  0  0  0
 17 21  1  0  0  0  0
 18 14  1  0  0  0  0
 19 20  2  0  0  0  0
 19  8  1  0  0  0  0
 20 15  1  0  0  0  0
 21  3  1  0  0  0  0
 22 25  1  0  0  0  0
 23 12  1  0  0  0  0
 23 24  1  0  0  0  0
 25 24  2  0  0  0  0
 26 27  1  0  0  0  0
 26 22  2  0  0  0  0
 27 23  2  0  0  0  0
M  END
>  <MODEL>
4

>  <REMARK>
 VINA RESULT:     -11.4      2.410      5.718
  Name = 
  1 active torsions:
  status: ('A' for Active; 'I' for Inactive)
    1  A    between atoms: C_9  and  C_15
                            x       y       z     vdW  Elec       q    Type
                         _______ _______ _______ _____ _____    ______ ____

>  <TORSDO>
F 1

$$$$
=
 OpenBabel10272401043D

 27 31  0  0  0  0  0  0  0  0999 V2000
  189.8020  178.4560  142.8690 O   0  0  0  0  0  0  0  0  0  0  0  0
  187.4620  178.1120  142.3070 C   0  0  0  0  0  0  0  0  0  0  0  0
  187.6250  177.9240  144.7630 C   0  0  0  0  0  3  0  0  0  0  0  0
  183.3040  178.7150  142.8620 C   0  0  0  0  0  3  0  0  0  0  0  0
  181.4360  179.0850  144.2930 F   0  0  0  0  0  0  0  0  0  0  0  0
  186.5430  178.1520  141.2380 C   0  0  0  0  0  3  0  0  0  0  0  0
  184.9670  178.5980  145.0980 C   0  0  0  0  0  3  0  0  0  0  0  0
  190.6060  176.6910  146.5460 C   0  0  0  0  0  0  0  0  0  0  0  0
  183.5960  178.8160  145.2580 C   0  0  0  0  0  3  0  0  0  0  0  0
  190.8430  176.1600  147.6620 O   0  0  0  0  0  0  0  0  0  0  0  0
  185.5370  178.4400  143.8160 C   0  0  0  0  0  0  0  0  0  0  0  0
  188.7870  178.1010  141.9780 C   0  0  0  0  0  0  0  0  0  0  0  0
  182.7650  178.8750  144.1390 C   0  0  0  0  0  0  0  0  0  0  0  0
  184.6750  178.5010  142.6970 C   0  0  0  0  0  0  0  0  0  0  0  0
  190.0400  177.8500  144.0920 C   0  0  0  0  0  0  0  0  0  0  0  0
  186.9320  178.1940  143.6400 C   0  0  0  0  0  0  0  0  0  0  0  0
  189.3280  176.9880  146.1930 N   0  0  0  0  0  2  0  0  0  0  0  0
  185.1810  178.3320  141.4210 C   0  0  0  0  0  3  0  0  0  0  0  0
  191.6540  176.9840  145.6770 C   0  0  0  0  0  3  0  0  0  0  0  0
  191.3630  177.5740  144.4470 C   0  0  0  0  0  3  0  0  0  0  0  0
  189.0180  177.5490  144.9910 C   0  0  0  0  0  0  0  0  0  0  0  0
  190.0870  177.2630  137.9690 C   0  0  0  0  0  3  0  0  0  0  0  0
  189.2610  177.8490  140.5890 C   0  0  0  0  0  0  0  0  0  0  0  0
  188.8150  178.6300  139.5100 C   0  0  0  0  0  3  0  0  0  0  0  0
  189.2310  178.3430  138.2070 C   0  0  0  0  0  3  0  0  0  0  0  0
  190.5180  176.4680  139.0320 C   0  0  0  0  0  3  0  0  0  0  0  0
  190.1030  176.7550  140.3360 C   0  0  0  0  0  3  0  0  0  0  0  0
  1 15  1  0  0  0  0
  2 16  1  0  0  0  0
  3 21  1  0  0  0  0
  4 13  1  0  0  0  0
  6 18  2  0  0  0  0
  6  2  1  0  0  0  0
  7  9  1  0  0  0  0
  8 10  2  0  0  0  0
 11  7  2  0  0  0  0
 12  2  2  0  0  0  0
 12  1  1  0  0  0  0
 13  5  1  0  0  0  0
 13  9  2  0  0  0  0
 14  4  2  0  0  0  0
 14 11  1  0  0  0  0
 15 20  1  0  0  0  0
 15 21  2  0  0  0  0
 16 11  1  0  0  0  0
 16  3  2  0  0  0  0
 17  8  1  0  0  0  0
 18 14  1  0  0  0  0
 19  8  1  0  0  0  0
 20 19  2  0  0  0  0
 21 17  1  0  0  0  0
 22 25  2  0  0  0  0
 22 26  1  0  0  0  0
 23 12  1  0  0  0  0
 24 23  2  0  0  0  0
 25 24  1  0  0  0  0
 26 27  2  0  0  0  0
 27 23  1  0  0  0  0
M  END
>  <MODEL>
5

>  <REMARK>
 VINA RESULT:     -11.4      1.904      5.108
  Name = 
  1 active torsions:
  status: ('A' for Active; 'I' for Inactive)
    1  A    between atoms: C_9  and  C_15
                            x       y       z     vdW  Elec       q    Type
                         _______ _______ _______ _____ _____    ______ ____

>  <TORSDO>
F 1

$$$$
=
 OpenBabel10272401043D

 27 31  0  0  0  0  0  0  0  0999 V2000
  187.2860  176.8190  144.6880 O   0  0  0  0  0  0  0  0  0  0  0  0
  187.5830  177.7560  142.4640 C   0  0  0  0  0  0  0  0  0  0  0  0
  189.8260  177.0790  143.2430 C   0  0  0  0  0  3  0  0  0  0  0  0
  189.2050  177.7810  138.5490 C   0  0  0  0  0  3  0  0  0  0  0  0
  190.9860  177.3050  137.0410 F   0  0  0  0  0  0  0  0  0  0  0  0
  186.8790  178.2450  141.3460 C   0  0  0  0  0  3  0  0  0  0  0  0
  190.7670  176.8350  140.6580 C   0  0  0  0  0  3  0  0  0  0  0  0
  190.8690  177.0740  146.7790 C   0  0  0  0  0  0  0  0  0  0  0  0
  191.2750  176.8330  139.3560 C   0  0  0  0  0  3  0  0  0  0  0  0
  191.9580  177.1490  147.4060 O   0  0  0  0  0  0  0  0  0  0  0  0
  189.4640  177.3040  140.9330 C   0  0  0  0  0  0  0  0  0  0  0  0
  186.8780  177.6310  143.6280 C   0  0  0  0  0  0  0  0  0  0  0  0
  190.4930  177.3050  138.3030 C   0  0  0  0  0  0  0  0  0  0  0  0
  188.6910  177.7800  139.8490 C   0  0  0  0  0  0  0  0  0  0  0  0
  188.4910  176.9260  145.3610 C   0  0  0  0  0  0  0  0  0  0  0  0
  188.9410  177.3320  142.2610 C   0  0  0  0  0  0  0  0  0  0  0  0
  190.8600  177.1530  145.4220 N   0  0  0  0  0  2  0  0  0  0  0  0
  187.4160  178.2690  140.0680 C   0  0  0  0  0  3  0  0  0  0  0  0
  189.6750  176.9000  147.4740 C   0  0  0  0  0  3  0  0  0  0  0  0
  188.4840  176.8190  146.7540 C   0  0  0  0  0  3  0  0  0  0  0  0
  189.7070  177.0940  144.6990 C   0  0  0  0  0  0  0  0  0  0  0  0
  182.9420  179.2760  144.1440 C   0  0  0  0  0  3  0  0  0  0  0  0
  185.5330  178.2410  143.8130 C   0  0  0  0  0  0  0  0  0  0  0  0
  185.0950  178.6780  145.0750 C   0  0  0  0  0  3  0  0  0  0  0  0
  183.8090  179.1990  145.2380 C   0  0  0  0  0  3  0  0  0  0  0  0
  183.3610  178.8250  142.8900 C   0  0  0  0  0  3  0  0  0  0  0  0
  184.6480  178.3040  142.7270 C   0  0  0  0  0  3  0  0  0  0  0  0
  1 15  1  0  0  0  0
  2 12  2  0  0  0  0
  3 21  1  0  0  0  0
  4 14  1  0  0  0  0
  5 13  1  0  0  0  0
  6  2  1  0  0  0  0
  7 11  1  0  0  0  0
  8 10  2  0  0  0  0
  8 19  1  0  0  0  0
  9  7  2  0  0  0  0
 11 16  1  0  0  0  0
 12 23  1  0  0  0  0
 12  1  1  0  0  0  0
 13  4  2  0  0  0  0
 13  9  1  0  0  0  0
 14 18  1  0  0  0  0
 14 11  2  0  0  0  0
 15 20  1  0  0  0  0
 16  2  1  0  0  0  0
 16  3  2  0  0  0  0
 17  8  1  0  0  0  0
 18  6  2  0  0  0  0
 20 19  2  0  0  0  0
 21 15  2  0  0  0  0
 21 17  1  0  0  0  0
 22 25  1  0  0  0  0
 23 24  1  0  0  0  0
 24 25  2  0  0  0  0
 26 22  2  0  0  0  0
 27 26  1  0  0  0  0
 27 23  2  0  0  0  0
M  END
>  <MODEL>
6

>  <REMARK>
 VINA RESULT:     -10.9      3.194      6.826
  Name = 
  1 active torsions:
  status: ('A' for Active; 'I' for Inactive)
    1  A    between atoms: C_9  and  C_15
                            x       y       z     vdW  Elec       q    Type
                         _______ _______ _______ _____ _____    ______ ____

>  <TORSDO>
F 1

$$$$
=
 OpenBabel10272401043D

 27 31  0  0  0  0  0  0  0  0999 V2000
  187.0290  177.1240  142.0490 O   0  0  0  0  0  0  0  0  0  0  0  0
  189.2030  177.3540  143.1120 C   0  0  0  0  0  0  0  0  0  0  0  0
  187.5190  177.6630  144.8910 C   0  0  0  0  0  3  0  0  0  0  0  0
  192.0020  176.6250  146.2100 C   0  0  0  0  0  3  0  0  0  0  0  0
  192.4970  176.2550  148.5110 F   0  0  0  0  0  0  0  0  0  0  0  0
  190.5880  177.2300  142.8810 C   0  0  0  0  0  3  0  0  0  0  0  0
  189.3040  176.9080  146.8600 C   0  0  0  0  0  3  0  0  0  0  0  0
  184.1650  179.0880  144.3330 C   0  0  0  0  0  0  0  0  0  0  0  0
  190.2400  176.6480  147.8630 C   0  0  0  0  0  3  0  0  0  0  0  0
  183.3010  179.6790  145.0310 O   0  0  0  0  0  0  0  0  0  0  0  0
  189.6950  177.0270  145.5080 C   0  0  0  0  0  0  0  0  0  0  0  0
  188.3980  177.3980  142.0100 C   0  0  0  0  0  0  0  0  0  0  0  0
  191.5890  176.5060  147.5380 C   0  0  0  0  0  0  0  0  0  0  0  0
  191.0680  176.8820  145.2020 C   0  0  0  0  0  0  0  0  0  0  0  0
  186.1010  177.7950  142.8260 C   0  0  0  0  0  0  0  0  0  0  0  0
  188.7520  177.3150  144.4760 C   0  0  0  0  0  0  0  0  0  0  0  0
  185.3540  178.7270  144.8850 N   0  0  0  0  0  2  0  0  0  0  0  0
  191.5060  177.0090  143.8970 C   0  0  0  0  0  3  0  0  0  0  0  0
  183.9000  178.7930  142.9980 C   0  0  0  0  0  3  0  0  0  0  0  0
  184.8750  178.1360  142.2480 C   0  0  0  0  0  3  0  0  0  0  0  0
  186.3270  178.1000  144.1680 C   0  0  0  0  0  0  0  0  0  0  0  0
  189.9080  177.8740  138.0150 C   0  0  0  0  0  3  0  0  0  0  0  0
  188.9370  177.6030  140.6370 C   0  0  0  0  0  0  0  0  0  0  0  0
  188.3630  178.5350  139.7570 C   0  0  0  0  0  3  0  0  0  0  0  0
  188.8500  178.6750  138.4550 C   0  0  0  0  0  3  0  0  0  0  0  0
  190.4720  176.9290  138.8760 C   0  0  0  0  0  3  0  0  0  0  0  0
  189.9840  176.7900  140.1790 C   0  0  0  0  0  3  0  0  0  0  0  0
  1 15  1  0  0  0  0
  2 16  1  0  0  0  0
  4 13  1  0  0  0  0
  6  2  1  0  0  0  0
  6 18  2  0  0  0  0
  7  9  1  0  0  0  0
  8 17  1  0  0  0  0
  8 10  2  0  0  0  0
 11  7  2  0  0  0  0
 12  1  1  0  0  0  0
 12  2  2  0  0  0  0
 13  9  2  0  0  0  0
 13  5  1  0  0  0  0
 14 11  1  0  0  0  0
 14  4  2  0  0  0  0
 15 21  2  0  0  0  0
 16  3  2  0  0  0  0
 16 11  1  0  0  0  0
 18 14  1  0  0  0  0
 19  8  1  0  0  0  0
 20 15  1  0  0  0  0
 20 19  2  0  0  0  0
 21 17  1  0  0  0  0
 21  3  1  0  0  0  0
 22 25  2  0  0  0  0
 22 26  1  0  0  0  0
 23 12  1  0  0  0  0
 24 23  2  0  0  0  0
 25 24  1  0  0  0  0
 26 27  2  0  0  0  0
 27 23  1  0  0  0  0
M  END
>  <MODEL>
7

>  <REMARK>
 VINA RESULT:     -10.5      3.157      6.918
  Name = 
  1 active torsions:
  status: ('A' for Active; 'I' for Inactive)
    1  A    between atoms: C_9  and  C_15
                            x       y       z     vdW  Elec       q    Type
                         _______ _______ _______ _____ _____    ______ ____

>  <TORSDO>
F 1

$$$$
=
 OpenBabel10272401043D

 27 31  0  0  0  0  0  0  0  0999 V2000
  187.6090  178.7280  144.7180 O   0  0  0  0  0  0  0  0  0  0  0  0
  188.7870  177.5810  142.9280 C   0  0  0  0  0  0  0  0  0  0  0  0
  186.6100  178.2790  141.9970 C   0  0  0  0  0  3  0  0  0  0  0  0
  190.1020  177.1530  138.9220 C   0  0  0  0  0  3  0  0  0  0  0  0
  189.7530  177.4470  136.5830 F   0  0  0  0  0  0  0  0  0  0  0  0
  190.0270  177.0040  142.5850 C   0  0  0  0  0  3  0  0  0  0  0  0
  187.5880  178.2590  139.4130 C   0  0  0  0  0  3  0  0  0  0  0  0
  183.5200  178.5940  143.9820 C   0  0  0  0  0  0  0  0  0  0  0  0
  188.0490  178.1280  138.1010 C   0  0  0  0  0  3  0  0  0  0  0  0
  182.2840  178.5550  143.7520 O   0  0  0  0  0  0  0  0  0  0  0  0
  188.3770  177.8460  140.5090 C   0  0  0  0  0  0  0  0  0  0  0  0
  188.5710  177.8290  144.2530 C   0  0  0  0  0  0  0  0  0  0  0  0
  189.3060  177.5760  137.8560 C   0  0  0  0  0  0  0  0  0  0  0  0
  189.6470  177.2870  140.2360 C   0  0  0  0  0  0  0  0  0  0  0  0
  186.2520  178.6590  144.4500 C   0  0  0  0  0  0  0  0  0  0  0  0
  187.9090  177.9540  141.8540 C   0  0  0  0  0  0  0  0  0  0  0  0
  184.4060  178.3880  142.9720 N   0  0  0  0  0  2  0  0  0  0  0  0
  190.4490  176.8480  141.2740 C   0  0  0  0  0  3  0  0  0  0  0  0
  183.9820  178.8580  145.2690 C   0  0  0  0  0  3  0  0  0  0  0  0
  185.3570  178.8960  145.4960 C   0  0  0  0  0  3  0  0  0  0  0  0
  185.7530  178.4040  143.1730 C   0  0  0  0  0  0  0  0  0  0  0  0
  191.1520  176.3220  147.3410 C   0  0  0  0  0  3  0  0  0  0  0  0
  189.4430  177.2680  145.3220 C   0  0  0  0  0  0  0  0  0  0  0  0
  188.9530  177.0300  146.6170 C   0  0  0  0  0  3  0  0  0  0  0  0
  189.8020  176.5530  147.6190 C   0  0  0  0  0  3  0  0  0  0  0  0
  191.6530  176.5760  146.0620 C   0  0  0  0  0  3  0  0  0  0  0  0
  190.8040  177.0530  145.0590 C   0  0  0  0  0  3  0  0  0  0  0  0
  2 12  2  0  0  0  0
  3 21  1  0  0  0  0
  4 14  1  0  0  0  0
  5 13  1  0  0  0  0
  6  2  1  0  0  0  0
  7 11  1  0  0  0  0
  8 19  1  0  0  0  0
  9  7  2  0  0  0  0
 10  8  2  0  0  0  0
 11 16  1  0  0  0  0
 12  1  1  0  0  0  0
 12 23  1  0  0  0  0
 13  9  1  0  0  0  0
 13  4  2  0  0  0  0
 14 11  2  0  0  0  0
 14 18  1  0  0  0  0
 15  1  1  0  0  0  0
 15 20  1  0  0  0  0
 16  3  2  0  0  0  0
 16  2  1  0  0  0  0
 17 21  1  0  0  0  0
 17  8  1  0  0  0  0
 18  6  2  0  0  0  0
 19 20  2  0  0  0  0
 21 15  2  0  0  0  0
 22 25  1  0  0  0  0
 23 24  1  0  0  0  0
 24 25  2  0  0  0  0
 26 22  2  0  0  0  0
 27 23  2  0  0  0  0
 27 26  1  0  0  0  0
M  END
>  <MODEL>
8

>  <REMARK>
 VINA RESULT:     -10.3      2.999      5.673
  Name = 
  1 active torsions:
  status: ('A' for Active; 'I' for Inactive)
    1  A    between atoms: C_9  and  C_15
                            x       y       z     vdW  Elec       q    Type
                         _______ _______ _______ _____ _____    ______ ____

>  <TORSDO>
F 1

$$$$
=
 OpenBabel10272401043D

 27 31  0  0  0  0  0  0  0  0999 V2000
  185.9030  179.1480  144.5280 O   0  0  0  0  0  0  0  0  0  0  0  0
  187.6770  177.9580  143.3670 C   0  0  0  0  0  0  0  0  0  0  0  0
  185.9190  178.4000  141.6910 C   0  0  0  0  0  3  0  0  0  0  0  0
  190.3020  177.3150  140.1030 C   0  0  0  0  0  3  0  0  0  0  0  0
  190.7610  177.3890  137.7660 F   0  0  0  0  0  0  0  0  0  0  0  0
  188.9850  177.4570  143.5220 C   0  0  0  0  0  3  0  0  0  0  0  0
  187.7220  178.2500  139.6030 C   0  0  0  0  0  3  0  0  0  0  0  0
  182.3240  178.6230  142.4790 C   0  0  0  0  0  0  0  0  0  0  0  0
  188.6090  178.0510  138.5440 C   0  0  0  0  0  3  0  0  0  0  0  0
  181.2450  178.4660  141.8520 O   0  0  0  0  0  0  0  0  0  0  0  0
  188.1070  177.9920  140.9380 C   0  0  0  0  0  0  0  0  0  0  0  0
  187.0080  178.2940  144.5090 C   0  0  0  0  0  0  0  0  0  0  0  0
  189.9000  177.5840  138.7940 C   0  0  0  0  0  0  0  0  0  0  0  0
  189.4190  177.5170  141.1670 C   0  0  0  0  0  0  0  0  0  0  0  0
  184.7250  178.9470  143.8280 C   0  0  0  0  0  0  0  0  0  0  0  0
  187.2020  178.1700  142.0280 C   0  0  0  0  0  0  0  0  0  0  0  0
  183.5120  178.4090  141.8520 N   0  0  0  0  0  2  0  0  0  0  0  0
  189.8380  177.2310  142.4530 C   0  0  0  0  0  3  0  0  0  0  0  0
  182.3040  179.0270  143.8110 C   0  0  0  0  0  3  0  0  0  0  0  0
  183.5150  179.1950  144.4820 C   0  0  0  0  0  3  0  0  0  0  0  0
  184.7060  178.5500  142.4910 C   0  0  0  0  0  0  0  0  0  0  0  0
  188.4950  177.2180  148.3950 C   0  0  0  0  0  3  0  0  0  0  0  0
  187.4880  177.8950  145.8610 C   0  0  0  0  0  0  0  0  0  0  0  0
  186.8250  178.3120  147.0260 C   0  0  0  0  0  3  0  0  0  0  0  0
  187.3210  177.9700  148.2870 C   0  0  0  0  0  3  0  0  0  0  0  0
  189.1740  176.8160  147.2420 C   0  0  0  0  0  3  0  0  0  0  0  0
  188.6760  177.1580  145.9810 C   0  0  0  0  0  3  0  0  0  0  0  0
  2  6  1  0  0  0  0
  2 12  2  0  0  0  0
  3 16  2  0  0  0  0
  3 21  1  0  0  0  0
  4 14  1  0  0  0  0
  5 13  1  0  0  0  0
  7 11  1  0  0  0  0
  8 19  1  0  0  0  0
  9 13  1  0  0  0  0
  9  7  2  0  0  0  0
 10  8  2  0  0  0  0
 11 14  2  0  0  0  0
 11 16  1  0  0  0  0
 12  1  1  0  0  0  0
 12 23  1  0  0  0  0
 13  4  2  0  0  0  0
 14 18  1  0  0  0  0
 15 20  1  0  0  0  0
 15  1  1  0  0  0  0
 16  2  1  0  0  0  0
 17  8  1  0  0  0  0
 17 21  1  0  0  0  0
 18  6  2  0  0  0  0
 19 20  2  0  0  0  0
 21 15  2  0  0  0  0
 23 27  2  0  0  0  0
 23 24  1  0  0  0  0
 24 25  2  0  0  0  0
 25 22  1  0  0  0  0
 26 22  2  0  0  0  0
 27 26  1  0  0  0  0
M  END
>  <MODEL>
9

>  <REMARK>
 VINA RESULT:     -10.2      3.162      5.777
  Name = 
  1 active torsions:
  status: ('A' for Active; 'I' for Inactive)
    1  A    between atoms: C_9  and  C_15
                            x       y       z     vdW  Elec       q    Type
                         _______ _______ _______ _____ _____    ______ ____

>  <TORSDO>
F 1

$$$$
