=
 OpenBabel10272415103D

 34 38  0  0  1  0  0  0  0  0999 V2000
  182.7070  179.0110  140.2560 C   0  0  0  0  0  0  0  0  0  0  0  0
  180.0510  177.4450  138.0770 C   0  0  0  0  0  3  0  0  0  0  0  0
  180.2440  177.3870  140.5270 C   0  0  0  0  0  2  0  0  0  0  0  0
  183.8210  179.5650  140.2140 O   0  0  0  0  0  0  0  0  0  0  0  0
  182.5140  179.2460  142.8030 C   0  0  2  0  0  3  0  0  0  0  0  0
  181.2580  179.0690  143.6690 C   0  0  0  0  0  2  0  0  0  0  0  0
  180.6200  178.4930  141.4780 C   0  0  2  0  0  3  0  0  0  0  0  0
  182.0440  178.7010  141.5050 N   0  0  0  0  0  0  0  0  0  0  0  0
  180.2960  178.1340  142.9040 C   0  0  0  0  0  2  0  0  0  0  0  0
  180.5640  177.7880  136.7420 C   0  0  0  0  0  2  0  0  0  0  0  0
  181.1030  179.2750  136.7190 C   0  0  2  0  0  3  0  0  0  0  0  0
  180.7140  177.8210  139.1720 C   0  0  0  0  0  0  0  0  0  0  0  0
  181.8920  179.7150  137.9710 C   0  0  0  0  0  2  0  0  0  0  0  0
  182.0140  178.5990  138.9970 C   0  0  1  0  0  3  0  0  0  0  0  0
  183.6480  178.3500  143.3030 C   0  0  0  0  0  2  0  0  0  0  0  0
  184.8290  179.1800  143.7330 C   0  0  0  0  0  2  0  0  0  0  0  0
  187.2500  177.5290  143.5550 O   0  0  0  0  0  0  0  0  0  0  0  0
  185.9160  178.6840  147.2750 C   0  0  0  0  0  3  0  0  0  0  0  0
  189.7330  176.9120  147.1200 C   0  0  2  0  0  3  0  0  0  0  0  0
  189.0440  177.2720  145.7760 C   0  0  0  0  0  2  0  0  0  0  0  0
  187.5450  177.3550  145.9360 C   0  0  1  0  0  3  0  0  0  0  0  0
  185.5890  178.5300  144.8980 N   0  0  0  0  0  0  0  0  0  0  0  0
  187.9240  177.9790  148.4590 C   0  0  0  0  0  2  0  0  0  0  0  0
  187.0980  178.1140  147.1910 C   0  0  0  0  0  0  0  0  0  0  0  0
  189.3810  177.9880  148.1480 C   0  0  0  0  0  2  0  0  0  0  0  0
  184.9240  178.6250  146.1800 C   0  0  0  0  0  2  0  0  0  0  0  0
  186.7820  177.8310  144.7030 C   0  0  0  0  0  0  0  0  0  0  0  0
  191.2010  176.9050  146.9200 C   0  0  0  0  0  0  0  0  0  0  0  0
  191.9830  176.7520  147.8590 O   0  0  0  0  0  1  0  0  0  0  0  0
  191.6890  177.0850  145.6120 O   0  0  0  0  0  0  0  0  0  0  0  0
  180.0990  180.2400  136.4550 N   0  0  0  0  0  2  0  0  0  0  0  0
  180.3590  181.5360  135.9860 C   0  0  0  0  0  0  0  0  0  0  0  0
  180.3310  182.9120  136.9360 S   0  0  0  0  0  0  0  0  0  0  0  0
  180.7850  181.6800  134.5600 C   0  0  0  0  0  1  0  0  0  0  0  0
  1  8  1  0  0  0  0
  2 12  2  0  0  0  0
  4  1  2  0  0  0  0
  5 15  1  1  0  0  0
  5  6  1  0  0  0  0
  7  3  1  6  0  0  0
  7  8  1  0  0  0  0
  7  9  1  0  0  0  0
  8  5  1  0  0  0  0
  9  6  1  0  0  0  0
 10  2  1  0  0  0  0
 11 31  1  1  0  0  0
 11 10  1  0  0  0  0
 11 13  1  0  0  0  0
 12  3  1  0  0  0  0
 14 13  1  1  0  0  0
 14 12  1  0  0  0  0
 14  1  1  0  0  0  0
 15 16  1  0  0  0  0
 16 22  1  0  0  0  0
 17 27  2  0  0  0  0
 19 28  1  6  0  0  0
 19 25  1  0  0  0  0
 20 19  1  0  0  0  0
 21 20  1  6  0  0  0
 21 24  1  0  0  0  0
 22 26  1  0  0  0  0
 24 18  2  0  0  0  0
 24 23  1  0  0  0  0
 25 23  1  0  0  0  0
 26 18  1  0  0  0  0
 27 22  1  0  0  0  0
 27 21  1  0  0  0  0
 28 29  1  0  0  0  0
 30 28  2  0  0  0  0
 32 31  1  0  0  0  0
 32 33  2  0  0  0  0
 34 32  1  0  0  0  0
M  END
>  <MODEL>
1

>  <REMARK>
 VINA RESULT:      -9.3      0.000      0.000
  Name = 
  6 active torsions:
  status: ('A' for Active; 'I' for Inactive)
    1  A    between atoms: C_3  and  N_25
    2  A    between atoms: C_7  and  C_11
    3  A    between atoms: C_8  and  C_17
    4  A    between atoms: C_8  and  N_18
    5  A    between atoms: C_10  and  C_17
    6  A    between atoms: N_25  and  C_27
                            x       y       z     vdW  Elec       q    Type
                         _______ _______ _______ _____ _____    ______ ____

>  <TORSDO>
F 6

$$$$
=
 OpenBabel10272415103D

 34 38  0  0  1  0  0  0  0  0999 V2000
  191.1940  176.6730  138.8040 C   0  0  0  0  0  0  0  0  0  0  0  0
  192.2860  174.2070  136.1620 C   0  0  0  0  0  3  0  0  0  0  0  0
  190.1990  175.5010  136.2710 C   0  0  0  0  0  2  0  0  0  0  0  0
  191.4770  177.0970  139.9390 O   0  0  0  0  0  0  0  0  0  0  0  0
  189.2060  178.2720  138.5350 C   0  0  2  0  0  3  0  0  0  0  0  0
  188.4480  178.6190  137.2450 C   0  0  0  0  0  2  0  0  0  0  0  0
  189.9930  176.9430  136.6580 C   0  0  2  0  0  3  0  0  0  0  0  0
  190.0130  177.1100  138.0870 N   0  0  0  0  0  0  0  0  0  0  0  0
  188.6210  177.4310  136.2720 C   0  0  0  0  0  2  0  0  0  0  0  0
  193.5630  173.7520  136.7330 C   0  0  0  0  0  2  0  0  0  0  0  0
  194.3700  174.9740  137.3300 C   0  0  2  0  0  3  0  0  0  0  0  0
  191.5450  175.1130  136.8030 C   0  0  0  0  0  0  0  0  0  0  0  0
  193.5280  176.0180  138.0930 C   0  0  0  0  0  2  0  0  0  0  0  0
  192.0530  175.6480  138.1380 C   0  0  1  0  0  3  0  0  0  0  0  0
  188.2410  177.7820  139.6160 C   0  0  0  0  0  2  0  0  0  0  0  0
  188.0020  178.8580  140.6410 C   0  0  0  0  0  2  0  0  0  0  0  0
  189.6600  177.6980  142.7680 O   0  0  0  0  0  0  0  0  0  0  0  0
  185.6570  178.3160  143.5000 C   0  0  0  0  0  3  0  0  0  0  0  0
  188.0330  177.2920  146.8220 C   0  0  2  0  0  3  0  0  0  0  0  0
  188.7540  177.6150  145.4860 C   0  0  0  0  0  2  0  0  0  0  0  0
  187.8340  177.4100  144.3070 C   0  0  1  0  0  3  0  0  0  0  0  0
  187.5160  178.2770  141.9760 N   0  0  0  0  0  0  0  0  0  0  0  0
  185.8040  177.9090  145.8970 C   0  0  0  0  0  2  0  0  0  0  0  0
  186.4260  177.9810  144.5130 C   0  0  0  0  0  0  0  0  0  0  0  0
  186.8150  178.2080  146.9500 C   0  0  0  0  0  2  0  0  0  0  0  0
  186.0780  178.1550  142.0930 C   0  0  0  0  0  2  0  0  0  0  0  0
  188.4050  177.8250  142.9530 C   0  0  0  0  0  0  0  0  0  0  0  0
  188.9580  177.5690  147.9460 C   0  0  0  0  0  0  0  0  0  0  0  0
  188.5730  178.0990  148.9880 O   0  0  0  0  0  1  0  0  0  0  0  0
  190.3110  177.2130  147.7900 O   0  0  0  0  0  0  0  0  0  0  0  0
  195.1700  175.6500  136.3740 N   0  0  0  0  0  2  0  0  0  0  0  0
  196.4770  175.2720  136.0360 C   0  0  0  0  0  0  0  0  0  0  0  0
  197.2910  175.7910  134.6700 S   0  0  0  0  0  0  0  0  0  0  0  0
  197.2260  174.4260  137.0160 C   0  0  0  0  0  1  0  0  0  0  0  0
  1  4  2  0  0  0  0
  2 10  1  0  0  0  0
  2 12  2  0  0  0  0
  3 12  1  0  0  0  0
  5 15  1  1  0  0  0
  6  5  1  0  0  0  0
  7  3  1  1  0  0  0
  7  8  1  0  0  0  0
  8  5  1  0  0  0  0
  8  1  1  0  0  0  0
  9  7  1  0  0  0  0
  9  6  1  0  0  0  0
 10 11  1  0  0  0  0
 11 31  1  6  0  0  0
 11 13  1  0  0  0  0
 12 14  1  0  0  0  0
 14 13  1  6  0  0  0
 14  1  1  0  0  0  0
 15 16  1  0  0  0  0
 16 22  1  0  0  0  0
 17 27  2  0  0  0  0
 18 24  2  0  0  0  0
 19 25  1  0  0  0  0
 19 28  1  1  0  0  0
 20 19  1  0  0  0  0
 21 24  1  0  0  0  0
 21 20  1  1  0  0  0
 22 26  1  0  0  0  0
 22 27  1  0  0  0  0
 23 25  1  0  0  0  0
 24 23  1  0  0  0  0
 26 18  1  0  0  0  0
 27 21  1  0  0  0  0
 28 29  1  0  0  0  0
 30 28  2  0  0  0  0
 32 31  1  0  0  0  0
 32 34  1  0  0  0  0
 33 32  2  0  0  0  0
M  END
>  <MODEL>
2

>  <REMARK>
 VINA RESULT:      -9.1      7.527      9.476
  Name = 
  6 active torsions:
  status: ('A' for Active; 'I' for Inactive)
    1  A    between atoms: C_3  and  N_25
    2  A    between atoms: C_7  and  C_11
    3  A    between atoms: C_8  and  C_17
    4  A    between atoms: C_8  and  N_18
    5  A    between atoms: C_10  and  C_17
    6  A    between atoms: N_25  and  C_27
                            x       y       z     vdW  Elec       q    Type
                         _______ _______ _______ _____ _____    ______ ____

>  <TORSDO>
F 6

$$$$
=
 OpenBabel10272415103D

 34 38  0  0  1  0  0  0  0  0999 V2000
  183.5740  179.2010  140.4850 C   0  0  0  0  0  0  0  0  0  0  0  0
  180.1590  178.5230  139.0240 C   0  0  0  0  0  3  0  0  0  0  0  0
  180.9410  178.1300  141.3210 C   0  0  0  0  0  2  0  0  0  0  0  0
  184.7410  179.5010  140.1730 O   0  0  0  0  0  0  0  0  0  0  0  0
  184.0890  179.1640  142.9970 C   0  0  2  0  0  3  0  0  0  0  0  0
  183.0870  179.1620  144.1610 C   0  0  0  0  0  2  0  0  0  0  0  0
  181.7990  179.0060  142.1970 C   0  0  2  0  0  3  0  0  0  0  0  0
  183.1910  178.8950  141.8470 N   0  0  0  0  0  0  0  0  0  0  0  0
  181.7670  178.5570  143.6340 C   0  0  0  0  0  2  0  0  0  0  0  0
  180.3890  178.9040  137.6220 C   0  0  0  0  0  2  0  0  0  0  0  0
  181.2460  180.2300  137.5400 C   0  0  2  0  0  3  0  0  0  0  0  0
  181.1470  178.6110  139.9170 C   0  0  0  0  0  0  0  0  0  0  0  0
  182.4060  180.3350  138.5530 C   0  0  0  0  0  2  0  0  0  0  0  0
  182.5090  179.1040  139.4400 C   0  0  1  0  0  3  0  0  0  0  0  0
  185.0620  177.9910  143.1170 C   0  0  0  0  0  2  0  0  0  0  0  0
  185.6160  177.9010  144.5140 C   0  0  0  0  0  2  0  0  0  0  0  0
  187.3690  178.0800  146.8610 O   0  0  0  0  0  0  0  0  0  0  0  0
  189.0530  177.2530  143.1970 C   0  0  0  0  0  3  0  0  0  0  0  0
  191.5590  176.8160  146.5530 C   0  0  2  0  0  3  0  0  0  0  0  0
  190.0460  177.0570  146.8030 C   0  0  0  0  0  2  0  0  0  0  0  0
  189.3990  177.7330  145.6180 C   0  0  1  0  0  3  0  0  0  0  0  0
  187.1510  177.8920  144.5210 N   0  0  0  0  0  0  0  0  0  0  0  0
  191.2380  176.6480  144.0880 C   0  0  0  0  0  2  0  0  0  0  0  0
  189.8110  177.1400  144.2660 C   0  0  0  0  0  0  0  0  0  0  0  0
  191.7100  175.9380  145.3090 C   0  0  0  0  0  2  0  0  0  0  0  0
  187.7600  177.9690  143.2100 C   0  0  0  0  0  2  0  0  0  0  0  0
  187.8840  177.9000  145.7080 C   0  0  0  0  0  0  0  0  0  0  0  0
  192.1290  176.0970  147.7160 C   0  0  0  0  0  0  0  0  0  0  0  0
  192.8650  176.6570  148.5280 O   0  0  0  0  0  1  0  0  0  0  0  0
  191.8100  174.7340  147.8700 O   0  0  0  0  0  0  0  0  0  0  0  0
  180.4710  181.4150  137.6150 N   0  0  0  0  0  2  0  0  0  0  0  0
  180.6430  182.5210  136.7710 C   0  0  0  0  0  0  0  0  0  0  0  0
  181.0380  184.0600  137.2920 S   0  0  0  0  0  0  0  0  0  0  0  0
  180.5640  182.2810  135.2960 C   0  0  0  0  0  1  0  0  0  0  0  0
  1  8  1  0  0  0  0
  2 12  2  0  0  0  0
  4  1  2  0  0  0  0
  5 15  1  1  0  0  0
  5  6  1  0  0  0  0
  7  3  1  6  0  0  0
  7  9  1  0  0  0  0
  8  7  1  0  0  0  0
  8  5  1  0  0  0  0
  9  6  1  0  0  0  0
 10  2  1  0  0  0  0
 11 31  1  1  0  0  0
 11 10  1  0  0  0  0
 11 13  1  0  0  0  0
 12  3  1  0  0  0  0
 14 13  1  1  0  0  0
 14 12  1  0  0  0  0
 14  1  1  0  0  0  0
 15 16  1  0  0  0  0
 16 22  1  0  0  0  0
 18 26  1  0  0  0  0
 18 24  2  0  0  0  0
 19 20  1  0  0  0  0
 19 28  1  1  0  0  0
 21 27  1  0  0  0  0
 21 20  1  1  0  0  0
 22 27  1  0  0  0  0
 23 24  1  0  0  0  0
 23 25  1  0  0  0  0
 24 21  1  0  0  0  0
 25 19  1  0  0  0  0
 26 22  1  0  0  0  0
 27 17  2  0  0  0  0
 28 30  2  0  0  0  0
 28 29  1  0  0  0  0
 32 33  2  0  0  0  0
 32 31  1  0  0  0  0
 34 32  1  0  0  0  0
M  END
>  <MODEL>
3

>  <REMARK>
 VINA RESULT:      -9.0      1.521      2.360
  Name = 
  6 active torsions:
  status: ('A' for Active; 'I' for Inactive)
    1  A    between atoms: C_3  and  N_25
    2  A    between atoms: C_7  and  C_11
    3  A    between atoms: C_8  and  C_17
    4  A    between atoms: C_8  and  N_18
    5  A    between atoms: C_10  and  C_17
    6  A    between atoms: N_25  and  C_27
                            x       y       z     vdW  Elec       q    Type
                         _______ _______ _______ _____ _____    ______ ____

>  <TORSDO>
F 6

$$$$
=
 OpenBabel10272415103D

 34 38  0  0  1  0  0  0  0  0999 V2000
  191.0870  175.5560  137.8580 C   0  0  0  0  0  0  0  0  0  0  0  0
  192.5330  173.0460  135.4360 C   0  0  0  0  0  3  0  0  0  0  0  0
  190.5370  174.4550  135.1630 C   0  0  0  0  0  2  0  0  0  0  0  0
  191.1690  175.9570  139.0330 O   0  0  0  0  0  0  0  0  0  0  0  0
  189.2770  177.2650  137.2380 C   0  0  2  0  0  3  0  0  0  0  0  0
  188.8020  177.6610  135.8320 C   0  0  0  0  0  2  0  0  0  0  0  0
  190.3380  175.9040  135.5260 C   0  0  2  0  0  3  0  0  0  0  0  0
  190.0920  176.0630  136.9350 N   0  0  0  0  0  0  0  0  0  0  0  0
  189.0950  176.4710  134.8920 C   0  0  0  0  0  2  0  0  0  0  0  0
  193.6490  172.5180  136.2340 C   0  0  0  0  0  2  0  0  0  0  0  0
  194.3910  173.6890  136.9940 C   0  0  2  0  0  3  0  0  0  0  0  0
  191.7320  173.9890  135.9370 C   0  0  0  0  0  0  0  0  0  0  0  0
  193.4750  174.7740  137.5990 C   0  0  0  0  0  2  0  0  0  0  0  0
  192.0020  174.4880  137.3530 C   0  0  1  0  0  3  0  0  0  0  0  0
  188.0970  176.8250  138.1050 C   0  0  0  0  0  2  0  0  0  0  0  0
  187.3550  178.0210  138.6390 C   0  0  0  0  0  2  0  0  0  0  0  0
  185.6190  179.5090  140.4790 O   0  0  0  0  0  0  0  0  0  0  0  0
  188.6200  177.1710  142.0520 C   0  0  0  0  0  3  0  0  0  0  0  0
  185.8060  178.6990  144.7870 C   0  0  2  0  0  3  0  0  0  0  0  0
  185.5150  178.8740  143.2720 C   0  0  0  0  0  2  0  0  0  0  0  0
  186.7870  178.8100  142.4620 C   0  0  1  0  0  3  0  0  0  0  0  0
  187.5370  178.1760  140.1550 N   0  0  0  0  0  0  0  0  0  0  0  0
  187.8280  177.3120  144.3510 C   0  0  0  0  0  2  0  0  0  0  0  0
  187.7310  177.6770  142.8800 C   0  0  0  0  0  0  0  0  0  0  0  0
  186.4860  177.3460  144.9960 C   0  0  0  0  0  2  0  0  0  0  0  0
  188.7890  177.6630  140.6680 C   0  0  0  0  0  2  0  0  0  0  0  0
  186.5990  178.8410  140.9470 C   0  0  0  0  0  0  0  0  0  0  0  0
  184.5210  178.7070  145.5260 C   0  0  0  0  0  0  0  0  0  0  0  0
  184.4810  178.7360  146.7560 O   0  0  0  0  0  1  0  0  0  0  0  0
  183.3300  178.6730  144.7780 O   0  0  0  0  0  0  0  0  0  0  0  0
  195.3950  174.3240  136.2210 N   0  0  0  0  0  2  0  0  0  0  0  0
  196.7690  174.2300  136.4880 C   0  0  0  0  0  0  0  0  0  0  0  0
  197.4990  172.9420  137.2650 S   0  0  0  0  0  0  0  0  0  0  0  0
  197.6500  175.3140  135.9520 C   0  0  0  0  0  1  0  0  0  0  0  0
  1  4  2  0  0  0  0
  2 12  2  0  0  0  0
  2 10  1  0  0  0  0
  3  7  1  0  0  0  0
  3 12  1  0  0  0  0
  5 15  1  1  0  0  0
  6  5  1  0  0  0  0
  7  9  1  6  0  0  0
  7  8  1  0  0  0  0
  8  5  1  0  0  0  0
  8  1  1  0  0  0  0
  9  6  1  0  0  0  0
 10 11  1  0  0  0  0
 11 31  1  6  0  0  0
 11 13  1  0  0  0  0
 12 14  1  0  0  0  0
 14 13  1  6  0  0  0
 14  1  1  0  0  0  0
 15 16  1  0  0  0  0
 16 22  1  0  0  0  0
 17 27  2  0  0  0  0
 18 24  2  0  0  0  0
 19 25  1  0  0  0  0
 19 28  1  1  0  0  0
 20 19  1  0  0  0  0
 21 24  1  0  0  0  0
 21 20  1  1  0  0  0
 22 26  1  0  0  0  0
 22 27  1  0  0  0  0
 23 25  1  0  0  0  0
 24 23  1  0  0  0  0
 26 18  1  0  0  0  0
 27 21  1  0  0  0  0
 28 29  1  0  0  0  0
 30 28  2  0  0  0  0
 31 32  1  0  0  0  0
 32 33  2  0  0  0  0
 34 32  1  0  0  0  0
M  END
>  <MODEL>
4

>  <REMARK>
 VINA RESULT:      -7.9      8.300     10.466
  Name = 
  6 active torsions:
  status: ('A' for Active; 'I' for Inactive)
    1  A    between atoms: C_3  and  N_25
    2  A    between atoms: C_7  and  C_11
    3  A    between atoms: C_8  and  C_17
    4  A    between atoms: C_8  and  N_18
    5  A    between atoms: C_10  and  C_17
    6  A    between atoms: N_25  and  C_27
                            x       y       z     vdW  Elec       q    Type
                         _______ _______ _______ _____ _____    ______ ____

>  <TORSDO>
F 6

$$$$
=
 OpenBabel10272415103D

 34 38  0  0  1  0  0  0  0  0999 V2000
  190.7930  175.1140  137.4970 C   0  0  0  0  0  0  0  0  0  0  0  0
  194.0830  174.9060  135.6560 C   0  0  0  0  0  3  0  0  0  0  0  0
  193.3880  176.5380  137.3580 C   0  0  0  0  0  2  0  0  0  0  0  0
  189.6350  174.6600  137.5070 O   0  0  0  0  0  0  0  0  0  0  0  0
  190.3970  176.5890  139.5590 C   0  0  2  0  0  3  0  0  0  0  0  0
  191.4520  177.2910  140.4270 C   0  0  0  0  0  2  0  0  0  0  0  0
  192.6310  176.3110  138.6410 C   0  0  2  0  0  3  0  0  0  0  0  0
  191.2200  176.1640  138.3990 N   0  0  0  0  0  0  0  0  0  0  0  0
  192.7030  177.5110  139.5480 C   0  0  0  0  0  2  0  0  0  0  0  0
  193.8130  173.7760  134.7540 C   0  0  0  0  0  2  0  0  0  0  0  0
  193.0400  172.6280  135.5180 C   0  0  2  0  0  3  0  0  0  0  0  0
  193.1470  175.3270  136.5100 C   0  0  0  0  0  0  0  0  0  0  0  0
  191.9390  173.1000  136.4910 C   0  0  0  0  0  2  0  0  0  0  0  0
  191.7980  174.6140  136.5110 C   0  0  1  0  0  3  0  0  0  0  0  0
  189.3570  177.5890  139.0540 C   0  0  0  0  0  2  0  0  0  0  0  0
  189.1360  178.6810  140.0650 C   0  0  0  0  0  2  0  0  0  0  0  0
  189.3140  177.7010  142.8260 O   0  0  0  0  0  0  0  0  0  0  0  0
  185.6320  178.8140  141.3590 C   0  0  0  0  0  3  0  0  0  0  0  0
  185.8550  178.0770  145.4990 C   0  0  2  0  0  3  0  0  0  0  0  0
  187.1830  178.1220  144.6970 C   0  0  0  0  0  2  0  0  0  0  0  0
  186.9470  177.8310  143.2340 C   0  0  1  0  0  3  0  0  0  0  0  0
  187.9670  178.3610  141.0070 N   0  0  0  0  0  0  0  0  0  0  0  0
  184.5080  178.7620  143.5190 C   0  0  0  0  0  2  0  0  0  0  0  0
  185.7350  178.5620  142.6460 C   0  0  0  0  0  0  0  0  0  0  0  0
  184.9000  179.1170  144.9120 C   0  0  0  0  0  2  0  0  0  0  0  0
  186.6620  178.4000  140.3820 C   0  0  0  0  0  2  0  0  0  0  0  0
  188.1700  177.9780  142.3330 C   0  0  0  0  0  0  0  0  0  0  0  0
  186.1350  178.4300  146.9110 C   0  0  0  0  0  0  0  0  0  0  0  0
  185.6120  179.4040  147.4520 O   0  0  0  0  0  0  0  0  0  0  0  0
  187.0310  177.6160  147.6290 O   0  0  0  0  0  1  0  0  0  0  0  0
  193.8930  171.7260  136.2040 N   0  0  0  0  0  2  0  0  0  0  0  0
  193.8510  170.3330  136.0490 C   0  0  0  0  0  0  0  0  0  0  0  0
  194.2600  169.2330  137.2400 S   0  0  0  0  0  0  0  0  0  0  0  0
  193.3110  169.7990  134.7610 C   0  0  0  0  0  1  0  0  0  0  0  0
  1  4  2  0  0  0  0
  1  8  1  0  0  0  0
  2 12  2  0  0  0  0
  5 15  1  6  0  0  0
  5  6  1  0  0  0  0
  7  3  1  6  0  0  0
  7  9  1  0  0  0  0
  8  7  1  0  0  0  0
  8  5  1  0  0  0  0
  9  6  1  0  0  0  0
 10 11  1  0  0  0  0
 10  2  1  0  0  0  0
 11 31  1  1  0  0  0
 11 13  1  0  0  0  0
 12 14  1  0  0  0  0
 12  3  1  0  0  0  0
 14 13  1  1  0  0  0
 14  1  1  0  0  0  0
 15 16  1  0  0  0  0
 16 22  1  0  0  0  0
 18 24  2  0  0  0  0
 19 28  1  1  0  0  0
 20 19  1  0  0  0  0
 21 20  1  1  0  0  0
 22 27  1  0  0  0  0
 23 25  1  0  0  0  0
 24 21  1  0  0  0  0
 24 23  1  0  0  0  0
 25 19  1  0  0  0  0
 26 22  1  0  0  0  0
 26 18  1  0  0  0  0
 27 17  2  0  0  0  0
 27 21  1  0  0  0  0
 28 29  2  0  0  0  0
 28 30  1  0  0  0  0
 32 31  1  0  0  0  0
 32 33  2  0  0  0  0
 34 32  1  0  0  0  0
M  END
>  <MODEL>
5

>  <REMARK>
 VINA RESULT:      -7.7      8.297     10.356
  Name = 
  6 active torsions:
  status: ('A' for Active; 'I' for Inactive)
    1  A    between atoms: C_3  and  N_25
    2  A    between atoms: C_7  and  C_11
    3  A    between atoms: C_8  and  C_17
    4  A    between atoms: C_8  and  N_18
    5  A    between atoms: C_10  and  C_17
    6  A    between atoms: N_25  and  C_27
                            x       y       z     vdW  Elec       q    Type
                         _______ _______ _______ _____ _____    ______ ____

>  <TORSDO>
F 6

$$$$
=
 OpenBabel10272415103D

 34 38  0  0  1  0  0  0  0  0999 V2000
  184.2960  177.7920  138.7020 C   0  0  0  0  0  0  0  0  0  0  0  0
  182.5320  174.7720  137.2810 C   0  0  0  0  0  3  0  0  0  0  0  0
  182.2900  175.7690  139.5150 C   0  0  0  0  0  2  0  0  0  0  0  0
  185.2320  178.5830  138.4860 O   0  0  0  0  0  0  0  0  0  0  0  0
  183.5980  178.9690  140.8720 C   0  0  2  0  0  3  0  0  0  0  0  0
  182.2870  178.7960  141.6540 C   0  0  0  0  0  2  0  0  0  0  0  0
  182.2110  177.2230  139.9050 C   0  0  2  0  0  3  0  0  0  0  0  0
  183.5140  177.8330  139.9210 N   0  0  0  0  0  0  0  0  0  0  0  0
  181.7320  177.3930  141.3220 C   0  0  0  0  0  2  0  0  0  0  0  0
  183.1790  174.6800  135.9640 C   0  0  0  0  0  2  0  0  0  0  0  0
  183.3380  176.1170  135.3230 C   0  0  2  0  0  3  0  0  0  0  0  0
  182.8770  175.7360  138.1370 C   0  0  0  0  0  0  0  0  0  0  0  0
  183.7600  177.2370  136.2970 C   0  0  0  0  0  2  0  0  0  0  0  0
  183.9610  176.7230  137.7140 C   0  0  1  0  0  3  0  0  0  0  0  0
  184.8060  178.7310  141.7790 C   0  0  0  0  0  2  0  0  0  0  0  0
  184.6560  179.4880  143.0720 C   0  0  0  0  0  2  0  0  0  0  0  0
  187.0440  177.7850  142.9430 O   0  0  0  0  0  0  0  0  0  0  0  0
  185.5310  178.7880  146.6380 C   0  0  0  0  0  3  0  0  0  0  0  0
  189.3080  176.9250  146.6010 C   0  0  2  0  0  3  0  0  0  0  0  0
  188.7050  177.3700  145.2420 C   0  0  0  0  0  2  0  0  0  0  0  0
  187.2010  177.4850  145.3240 C   0  0  1  0  0  3  0  0  0  0  0  0
  185.3350  178.7610  144.2420 N   0  0  0  0  0  0  0  0  0  0  0  0
  187.4530  177.9720  147.8930 C   0  0  0  0  0  2  0  0  0  0  0  0
  186.7030  178.1910  146.5900 C   0  0  0  0  0  0  0  0  0  0  0  0
  188.9250  177.9580  147.6620 C   0  0  0  0  0  2  0  0  0  0  0  0
  184.6020  178.8090  145.4890 C   0  0  0  0  0  2  0  0  0  0  0  0
  186.5200  178.0420  144.0770 C   0  0  0  0  0  0  0  0  0  0  0  0
  190.7850  176.8900  146.4820 C   0  0  0  0  0  0  0  0  0  0  0  0
  191.3730  177.4180  145.5390 O   0  0  0  0  0  0  0  0  0  0  0  0
  191.5110  176.2210  147.4860 O   0  0  0  0  0  1  0  0  0  0  0  0
  182.1950  176.5500  134.6040 N   0  0  0  0  0  2  0  0  0  0  0  0
  181.3050  177.5330  135.0600 C   0  0  0  0  0  0  0  0  0  0  0  0
  181.3180  179.1290  134.5630 S   0  0  0  0  0  0  0  0  0  0  0  0
  180.2090  177.0960  135.9800 C   0  0  0  0  0  1  0  0  0  0  0  0
  1  8  1  0  0  0  0
  2 12  2  0  0  0  0
  4  1  2  0  0  0  0
  5  6  1  0  0  0  0
  5 15  1  1  0  0  0
  7  3  1  1  0  0  0
  7  8  1  0  0  0  0
  7  9  1  0  0  0  0
  8  5  1  0  0  0  0
  9  6  1  0  0  0  0
 10  2  1  0  0  0  0
 11 31  1  1  0  0  0
 11 10  1  0  0  0  0
 11 13  1  0  0  0  0
 12  3  1  0  0  0  0
 14 13  1  6  0  0  0
 14 12  1  0  0  0  0
 14  1  1  0  0  0  0
 15 16  1  0  0  0  0
 16 22  1  0  0  0  0
 17 27  2  0  0  0  0
 19 28  1  6  0  0  0
 19 25  1  0  0  0  0
 20 19  1  0  0  0  0
 21 20  1  6  0  0  0
 21 24  1  0  0  0  0
 22 26  1  0  0  0  0
 24 18  2  0  0  0  0
 24 23  1  0  0  0  0
 25 23  1  0  0  0  0
 26 18  1  0  0  0  0
 27 22  1  0  0  0  0
 27 21  1  0  0  0  0
 28 30  1  0  0  0  0
 29 28  2  0  0  0  0
 31 32  1  0  0  0  0
 32 34  1  0  0  0  0
 33 32  2  0  0  0  0
M  END
>  <MODEL>
6

>  <REMARK>
 VINA RESULT:      -7.6      2.186      2.608
  Name = 
  6 active torsions:
  status: ('A' for Active; 'I' for Inactive)
    1  A    between atoms: C_3  and  N_25
    2  A    between atoms: C_7  and  C_11
    3  A    between atoms: C_8  and  C_17
    4  A    between atoms: C_8  and  N_18
    5  A    between atoms: C_10  and  C_17
    6  A    between atoms: N_25  and  C_27
                            x       y       z     vdW  Elec       q    Type
                         _______ _______ _______ _____ _____    ______ ____

>  <TORSDO>
F 6

$$$$
=
 OpenBabel10272415103D

 34 38  0  0  1  0  0  0  0  0999 V2000
  188.0800  177.3550  138.1320 C   0  0  0  0  0  0  0  0  0  0  0  0
  187.5860  177.6630  134.4020 C   0  0  0  0  0  3  0  0  0  0  0  0
  189.6780  177.2870  135.6380 C   0  0  0  0  0  2  0  0  0  0  0  0
  187.5020  177.5160  139.2230 O   0  0  0  0  0  0  0  0  0  0  0  0
  190.2410  176.5100  139.2260 C   0  0  2  0  0  3  0  0  0  0  0  0
  191.4150  175.7880  138.5490 C   0  0  0  0  0  2  0  0  0  0  0  0
  189.9360  176.3840  136.8170 C   0  0  2  0  0  3  0  0  0  0  0  0
  189.4760  176.9790  138.0440 N   0  0  0  0  0  0  0  0  0  0  0  0
  191.4110  176.1930  137.0580 C   0  0  0  0  0  2  0  0  0  0  0  0
  186.1450  177.9500  134.3460 C   0  0  0  0  0  2  0  0  0  0  0  0
  185.3570  177.0370  135.3690 C   0  0  2  0  0  3  0  0  0  0  0  0
  188.1930  177.4800  135.5760 C   0  0  0  0  0  0  0  0  0  0  0  0
  186.0370  176.8350  136.7400 C   0  0  0  0  0  2  0  0  0  0  0  0
  187.3550  177.5870  136.8460 C   0  0  1  0  0  3  0  0  0  0  0  0
  190.7290  177.7430  139.9870 C   0  0  0  0  0  2  0  0  0  0  0  0
  191.3630  177.3450  141.2930 C   0  0  0  0  0  2  0  0  0  0  0  0
  191.8390  176.9450  144.1610 O   0  0  0  0  0  0  0  0  0  0  0  0
  187.9550  177.1810  142.8190 C   0  0  0  0  0  3  0  0  0  0  0  0
  188.5050  177.2870  146.9920 C   0  0  2  0  0  3  0  0  0  0  0  0
  189.7650  177.3810  146.0910 C   0  0  0  0  0  2  0  0  0  0  0  0
  189.5070  176.7850  144.7280 C   0  0  1  0  0  3  0  0  0  0  0  0
  190.3120  177.0330  142.3670 N   0  0  0  0  0  0  0  0  0  0  0  0
  186.9650  177.3690  145.0360 C   0  0  0  0  0  2  0  0  0  0  0  0
  188.1620  177.1970  144.1170 C   0  0  0  0  0  0  0  0  0  0  0  0
  187.3620  178.0370  146.3070 C   0  0  0  0  0  2  0  0  0  0  0  0
  188.9880  176.7520  141.8530 C   0  0  0  0  0  2  0  0  0  0  0  0
  190.6430  176.9450  143.7200 C   0  0  0  0  0  0  0  0  0  0  0  0
  188.7930  177.9390  148.2910 C   0  0  0  0  0  0  0  0  0  0  0  0
  189.9180  178.3490  148.5760 O   0  0  0  0  0  0  0  0  0  0  0  0
  187.7340  178.0770  149.2090 O   0  0  0  0  0  1  0  0  0  0  0  0
  185.0080  175.7660  134.8460 N   0  0  0  0  0  2  0  0  0  0  0  0
  185.5500  174.5540  135.2990 C   0  0  0  0  0  0  0  0  0  0  0  0
  184.8200  173.5470  136.4170 S   0  0  0  0  0  0  0  0  0  0  0  0
  186.8200  174.0870  134.6620 C   0  0  0  0  0  1  0  0  0  0  0  0
  1  4  2  0  0  0  0
  2 12  2  0  0  0  0
  5 15  1  6  0  0  0
  6  5  1  0  0  0  0
  7  3  1  6  0  0  0
  7  9  1  0  0  0  0
  7  8  1  0  0  0  0
  8  1  1  0  0  0  0
  8  5  1  0  0  0  0
  9  6  1  0  0  0  0
 10  2  1  0  0  0  0
 10 11  1  0  0  0  0
 11 31  1  6  0  0  0
 11 13  1  0  0  0  0
 12  3  1  0  0  0  0
 12 14  1  0  0  0  0
 14 13  1  6  0  0  0
 14  1  1  0  0  0  0
 15 16  1  0  0  0  0
 16 22  1  0  0  0  0
 18 24  2  0  0  0  0
 19 28  1  1  0  0  0
 20 19  1  0  0  0  0
 21 20  1  1  0  0  0
 22 27  1  0  0  0  0
 23 25  1  0  0  0  0
 24 21  1  0  0  0  0
 24 23  1  0  0  0  0
 25 19  1  0  0  0  0
 26 22  1  0  0  0  0
 26 18  1  0  0  0  0
 27 17  2  0  0  0  0
 27 21  1  0  0  0  0
 28 29  2  0  0  0  0
 28 30  1  0  0  0  0
 31 32  1  0  0  0  0
 32 33  2  0  0  0  0
 34 32  1  0  0  0  0
M  END
>  <MODEL>
7

>  <REMARK>
 VINA RESULT:      -7.6      5.616      6.973
  Name = 
  6 active torsions:
  status: ('A' for Active; 'I' for Inactive)
    1  A    between atoms: C_3  and  N_25
    2  A    between atoms: C_7  and  C_11
    3  A    between atoms: C_8  and  C_17
    4  A    between atoms: C_8  and  N_18
    5  A    between atoms: C_10  and  C_17
    6  A    between atoms: N_25  and  C_27
                            x       y       z     vdW  Elec       q    Type
                         _______ _______ _______ _____ _____    ______ ____

>  <TORSDO>
F 6

$$$$
=
 OpenBabel10272415103D

 34 38  0  0  1  0  0  0  0  0999 V2000
  182.3770  176.6480  139.6870 C   0  0  0  0  0  0  0  0  0  0  0  0
  180.8440  177.8320  136.4460 C   0  0  0  0  0  3  0  0  0  0  0  0
  182.3880  179.0360  137.9330 C   0  0  0  0  0  2  0  0  0  0  0  0
  182.3090  175.7460  140.5420 O   0  0  0  0  0  0  0  0  0  0  0  0
  184.3140  177.8400  140.8740 C   0  0  2  0  0  3  0  0  0  0  0  0
  185.2320  178.9320  140.3060 C   0  0  0  0  0  2  0  0  0  0  0  0
  183.6110  178.5240  138.6500 C   0  0  2  0  0  3  0  0  0  0  0  0
  183.2550  177.7900  139.8350 N   0  0  0  0  0  0  0  0  0  0  0  0
  184.4560  179.6520  139.1810 C   0  0  0  0  0  2  0  0  0  0  0  0
  179.9830  176.6840  136.1240 C   0  0  0  0  0  2  0  0  0  0  0  0
  180.7370  175.3250  136.4150 C   0  0  2  0  0  3  0  0  0  0  0  0
  181.5880  177.8270  137.5540 C   0  0  0  0  0  0  0  0  0  0  0  0
  181.5830  175.2980  137.7050 C   0  0  0  0  0  2  0  0  0  0  0  0
  181.5100  176.6100  138.4710 C   0  0  1  0  0  3  0  0  0  0  0  0
  183.6670  178.2990  142.1800 C   0  0  0  0  0  2  0  0  0  0  0  0
  184.5610  179.2720  142.9020 C   0  0  0  0  0  2  0  0  0  0  0  0
  186.9600  177.5830  142.8100 O   0  0  0  0  0  0  0  0  0  0  0  0
  185.5280  178.7800  146.4790 C   0  0  0  0  0  3  0  0  0  0  0  0
  189.3190  176.9470  146.4540 C   0  0  2  0  0  3  0  0  0  0  0  0
  188.6800  177.3100  145.0870 C   0  0  0  0  0  2  0  0  0  0  0  0
  187.1770  177.4180  145.2000 C   0  0  1  0  0  3  0  0  0  0  0  0
  185.2750  178.6170  144.0940 N   0  0  0  0  0  0  0  0  0  0  0  0
  187.4860  178.0500  147.7300 C   0  0  0  0  0  2  0  0  0  0  0  0
  186.7030  178.1900  146.4360 C   0  0  0  0  0  0  0  0  0  0  0  0
  188.9520  178.0340  147.4650 C   0  0  0  0  0  2  0  0  0  0  0  0
  184.5710  178.7300  145.3540 C   0  0  0  0  0  2  0  0  0  0  0  0
  186.4610  177.8990  143.9400 C   0  0  0  0  0  0  0  0  0  0  0  0
  190.7930  176.9160  146.3010 C   0  0  0  0  0  0  0  0  0  0  0  0
  191.3300  176.8820  145.1940 O   0  0  0  0  0  0  0  0  0  0  0  0
  191.5770  176.9190  147.4700 O   0  0  0  0  0  1  0  0  0  0  0  0
  181.5410  174.8780  135.3370 N   0  0  0  0  0  2  0  0  0  0  0  0
  182.6250  173.9980  135.4770 C   0  0  0  0  0  0  0  0  0  0  0  0
  182.5010  172.4180  136.0100 S   0  0  0  0  0  0  0  0  0  0  0  0
  183.9670  174.4800  135.0250 C   0  0  0  0  0  1  0  0  0  0  0  0
  1  8  1  0  0  0  0
  1  4  2  0  0  0  0
  2 12  2  0  0  0  0
  5 15  1  1  0  0  0
  6  5  1  0  0  0  0
  7  3  1  1  0  0  0
  7  9  1  0  0  0  0
  7  8  1  0  0  0  0
  8  5  1  0  0  0  0
  9  6  1  0  0  0  0
 10 11  1  0  0  0  0
 10  2  1  0  0  0  0
 11 31  1  6  0  0  0
 11 13  1  0  0  0  0
 12  3  1  0  0  0  0
 12 14  1  0  0  0  0
 14 13  1  6  0  0  0
 14  1  1  0  0  0  0
 15 16  1  0  0  0  0
 16 22  1  0  0  0  0
 17 27  2  0  0  0  0
 19 28  1  6  0  0  0
 19 25  1  0  0  0  0
 20 19  1  0  0  0  0
 21 20  1  6  0  0  0
 21 24  1  0  0  0  0
 22 26  1  0  0  0  0
 24 18  2  0  0  0  0
 24 23  1  0  0  0  0
 25 23  1  0  0  0  0
 26 18  1  0  0  0  0
 27 22  1  0  0  0  0
 27 21  1  0  0  0  0
 28 30  1  0  0  0  0
 29 28  2  0  0  0  0
 31 32  1  0  0  0  0
 32 33  2  0  0  0  0
 34 32  1  0  0  0  0
M  END
>  <MODEL>
8

>  <REMARK>
 VINA RESULT:      -7.6      2.811      3.721
  Name = 
  6 active torsions:
  status: ('A' for Active; 'I' for Inactive)
    1  A    between atoms: C_3  and  N_25
    2  A    between atoms: C_7  and  C_11
    3  A    between atoms: C_8  and  C_17
    4  A    between atoms: C_8  and  N_18
    5  A    between atoms: C_10  and  C_17
    6  A    between atoms: N_25  and  C_27
                            x       y       z     vdW  Elec       q    Type
                         _______ _______ _______ _____ _____    ______ ____

>  <TORSDO>
F 6

$$$$
=
 OpenBabel10272415103D

 34 38  0  0  1  0  0  0  0  0999 V2000
  189.0080  175.6650  137.7620 C   0  0  0  0  0  0  0  0  0  0  0  0
  188.0970  173.5120  134.7970 C   0  0  0  0  0  3  0  0  0  0  0  0
  187.1480  175.6820  135.4570 C   0  0  0  0  0  2  0  0  0  0  0  0
  189.6540  175.6610  138.8270 O   0  0  0  0  0  0  0  0  0  0  0  0
  188.2520  178.0990  138.0500 C   0  0  2  0  0  3  0  0  0  0  0  0
  187.6320  179.0210  136.9900 C   0  0  0  0  0  2  0  0  0  0  0  0
  187.8520  176.9130  135.9670 C   0  0  2  0  0  3  0  0  0  0  0  0
  188.1850  176.7870  137.3610 N   0  0  0  0  0  0  0  0  0  0  0  0
  186.9530  178.1210  135.9340 C   0  0  0  0  0  2  0  0  0  0  0  0
  188.9670  172.3500  135.0340 C   0  0  0  0  0  2  0  0  0  0  0  0
  190.4020  172.8180  135.5040 C   0  0  2  0  0  3  0  0  0  0  0  0
  188.1050  174.5440  135.6430 C   0  0  0  0  0  0  0  0  0  0  0  0
  190.4240  173.9960  136.5010 C   0  0  0  0  0  2  0  0  0  0  0  0
  189.0260  174.4760  136.8570 C   0  0  1  0  0  3  0  0  0  0  0  0
  187.3610  178.0230  139.2910 C   0  0  0  0  0  2  0  0  0  0  0  0
  188.0690  178.5960  140.4890 C   0  0  0  0  0  2  0  0  0  0  0  0
  189.2690  177.3140  142.8420 O   0  0  0  0  0  0  0  0  0  0  0  0
  185.4210  178.7490  143.1220 C   0  0  0  0  0  3  0  0  0  0  0  0
  187.2430  177.5570  146.7260 C   0  0  2  0  0  3  0  0  0  0  0  0
  188.1290  177.6270  145.4530 C   0  0  0  0  0  2  0  0  0  0  0  0
  187.2940  177.5080  144.2010 C   0  0  1  0  0  3  0  0  0  0  0  0
  187.3610  178.2290  141.8010 N   0  0  0  0  0  0  0  0  0  0  0  0
  185.2730  178.5150  145.5420 C   0  0  0  0  0  2  0  0  0  0  0  0
  186.0150  178.3540  144.2260 C   0  0  0  0  0  0  0  0  0  0  0  0
  186.2260  178.6980  146.6720 C   0  0  0  0  0  2  0  0  0  0  0  0
  185.9240  178.3960  141.7770 C   0  0  0  0  0  2  0  0  0  0  0  0
  188.0530  177.6950  142.8890 C   0  0  0  0  0  0  0  0  0  0  0  0
  188.1030  177.7410  147.9190 C   0  0  0  0  0  0  0  0  0  0  0  0
  189.3070  177.9780  147.8220 O   0  0  0  0  0  0  0  0  0  0  0  0
  187.5020  177.6310  149.1880 O   0  0  0  0  0  1  0  0  0  0  0  0
  191.2830  173.1150  134.4340 N   0  0  0  0  0  2  0  0  0  0  0  0
  192.6590  173.3410  134.5880 C   0  0  0  0  0  0  0  0  0  0  0  0
  193.4110  174.8140  134.3460 S   0  0  0  0  0  0  0  0  0  0  0  0
  193.4910  172.2070  135.0990 C   0  0  0  0  0  1  0  0  0  0  0  0
  1  4  2  0  0  0  0
  2 10  1  0  0  0  0
  2 12  2  0  0  0  0
  3 12  1  0  0  0  0
  5 15  1  1  0  0  0
  6  5  1  0  0  0  0
  7  3  1  1  0  0  0
  7  8  1  0  0  0  0
  8  1  1  0  0  0  0
  8  5  1  0  0  0  0
  9  7  1  0  0  0  0
  9  6  1  0  0  0  0
 10 11  1  0  0  0  0
 11 31  1  6  0  0  0
 11 13  1  0  0  0  0
 12 14  1  0  0  0  0
 14 13  1  6  0  0  0
 14  1  1  0  0  0  0
 15 16  1  0  0  0  0
 16 22  1  0  0  0  0
 17 27  2  0  0  0  0
 18 24  2  0  0  0  0
 19 28  1  1  0  0  0
 20 19  1  0  0  0  0
 21 24  1  0  0  0  0
 21 20  1  1  0  0  0
 22 27  1  0  0  0  0
 23 25  1  0  0  0  0
 24 23  1  0  0  0  0
 25 19  1  0  0  0  0
 26 22  1  0  0  0  0
 26 18  1  0  0  0  0
 27 21  1  0  0  0  0
 28 30  1  0  0  0  0
 29 28  2  0  0  0  0
 31 32  1  0  0  0  0
 32 34  1  0  0  0  0
 33 32  2  0  0  0  0
M  END
>  <MODEL>
9

>  <REMARK>
 VINA RESULT:      -7.4      7.079      8.135
  Name = 
  6 active torsions:
  status: ('A' for Active; 'I' for Inactive)
    1  A    between atoms: C_3  and  N_25
    2  A    between atoms: C_7  and  C_11
    3  A    between atoms: C_8  and  C_17
    4  A    between atoms: C_8  and  N_18
    5  A    between atoms: C_10  and  C_17
    6  A    between atoms: N_25  and  C_27
                            x       y       z     vdW  Elec       q    Type
                         _______ _______ _______ _____ _____    ______ ____

>  <TORSDO>
F 6

$$$$
