=
 OpenBabel10272401033D

 27 31  0  0  1  0  0  0  0  0999 V2000
  188.8970  178.7530  136.4420 C   0  0  0  0  0  2  0  0  0  0  0  0
  189.9980  177.3690  138.2610 C   0  0  1  0  0  0  0  0  0  0  0  0
  189.6380  174.9330  137.7230 C   0  0  0  0  0  2  0  0  0  0  0  0
  193.9770  175.7680  137.7140 C   0  0  0  0  0  3  0  0  0  0  0  0
  194.2340  175.6080  135.2660 C   0  0  0  0  0  3  0  0  0  0  0  0
  191.0770  177.4530  139.2350 N   0  0  0  0  0  2  0  0  0  0  0  0
  191.7940  175.9590  135.5230 N   0  0  0  0  0  0  0  0  0  0  0  0
  188.5980  177.7060  138.7440 C   0  0  2  0  0  3  0  0  0  0  0  0
  186.1270  174.9620  136.2770 C   0  0  0  0  0  2  0  0  0  0  0  0
  193.0120  175.8270  134.7870 C   0  0  0  0  0  3  0  0  0  0  0  0
  185.8010  176.3770  135.8230 C   0  0  0  0  0  2  0  0  0  0  0  0
  191.5730  176.1630  136.7850 C   0  0  0  0  0  0  0  0  0  0  0  0
  189.3830  178.7190  137.8940 C   0  0  2  0  0  3  0  0  0  0  0  0
  194.6190  175.4620  136.6330 N   0  0  0  0  0  0  0  0  0  0  0  0
  192.6340  176.3410  137.8130 C   0  0  0  0  0  0  0  0  0  0  0  0
  187.3750  178.8390  136.3480 C   0  0  0  0  0  2  0  0  0  0  0  0
  190.1370  176.2750  137.2030 C   0  0  2  0  0  3  0  0  0  0  0  0
  187.1690  174.9850  137.3840 C   0  0  0  0  0  2  0  0  0  0  0  0
  192.3460  176.9200  138.9440 N   0  0  0  0  0  0  0  0  0  0  0  0
  187.0000  176.9940  135.1130 C   0  0  0  0  0  2  0  0  0  0  0  0
  186.9170  178.3950  135.0960 O   0  0  0  0  0  0  0  0  0  0  0  0
  188.4880  174.4450  136.8580 C   0  0  0  0  0  2  0  0  0  0  0  0
  187.9310  177.1840  142.2520 C   0  0  0  0  0  2  0  0  0  0  0  0
  188.5520  178.1760  140.1920 C   0  0  2  0  0  3  0  0  0  0  0  0
  188.8880  177.0240  141.1120 C   0  0  0  0  0  2  0  0  0  0  0  0
  187.1270  178.4070  141.8850 C   0  0  0  0  0  2  0  0  0  0  0  0
  187.2650  178.6310  140.5070 O   0  0  0  0  0  0  0  0  0  0  0  0
  2  8  1  0  0  0  0
  2  6  1  1  0  0  0
  4 15  1  0  0  0  0
  5 14  1  0  0  0  0
  7 12  2  0  0  0  0
  8 24  1  1  0  0  0
  9 18  1  0  0  0  0
 10  5  2  0  0  0  0
 10  7  1  0  0  0  0
 11  9  1  0  0  0  0
 12 17  1  0  0  0  0
 12 15  1  0  0  0  0
 13  1  1  6  0  0  0
 13  2  1  0  0  0  0
 13  8  1  0  0  0  0
 14  4  2  0  0  0  0
 15 19  2  0  0  0  0
 16  1  1  0  0  0  0
 17  3  1  1  0  0  0
 17  2  1  0  0  0  0
 19  6  1  0  0  0  0
 20 11  1  0  0  0  0
 21 20  1  0  0  0  0
 21 16  1  0  0  0  0
 22 18  1  0  0  0  0
 22  3  1  0  0  0  0
 24 27  1  0  0  0  0
 24 25  1  1  0  0  0
 25 23  1  0  0  0  0
 26 23  1  0  0  0  0
 27 26  1  0  0  0  0
M  END
>  <MODEL>
1

>  <REMARK>
 VINA RESULT:      -5.9      0.000      0.000
  Name = 
  1 active torsions:
  status: ('A' for Active; 'I' for Inactive)
    1  A    between atoms: C_9  and  C_11
                            x       y       z     vdW  Elec       q    Type
                         _______ _______ _______ _____ _____    ______ ____

>  <TORSDO>
F 1

$$$$
=
 OpenBabel10272401033D

 27 31  0  0  1  0  0  0  0  0999 V2000
  184.0900  179.1560  138.8480 C   0  0  0  0  0  2  0  0  0  0  0  0
  181.7920  178.9410  137.7940 C   0  0  1  0  0  0  0  0  0  0  0  0
  180.0970  179.8880  139.4010 C   0  0  0  0  0  2  0  0  0  0  0  0
  180.0140  182.2660  135.6780 C   0  0  0  0  0  3  0  0  0  0  0  0
  181.0990  184.2550  136.6550 C   0  0  0  0  0  3  0  0  0  0  0  0
  181.1640  178.8620  136.4830 N   0  0  0  0  0  2  0  0  0  0  0  0
  181.7010  182.4730  138.2690 N   0  0  0  0  0  0  0  0  0  0  0  0
  182.0790  177.6310  138.5080 C   0  0  2  0  0  3  0  0  0  0  0  0
  181.5040  178.7960  142.7550 C   0  0  0  0  0  2  0  0  0  0  0  0
  181.7510  183.7910  137.7170 C   0  0  0  0  0  3  0  0  0  0  0  0
  182.9810  178.4790  142.5800 C   0  0  0  0  0  2  0  0  0  0  0  0
  181.2600  181.3560  137.7790 C   0  0  0  0  0  0  0  0  0  0  0  0
  183.2230  178.4050  137.8330 C   0  0  2  0  0  3  0  0  0  0  0  0
  180.2010  183.5410  135.8060 N   0  0  0  0  0  0  0  0  0  0  0  0
  180.6860  181.1960  136.4150 C   0  0  0  0  0  0  0  0  0  0  0  0
  184.4860  178.2710  140.0290 C   0  0  0  0  0  2  0  0  0  0  0  0
  181.3980  180.1430  138.6510 C   0  0  2  0  0  3  0  0  0  0  0  0
  180.7620  178.6170  141.4390 C   0  0  0  0  0  2  0  0  0  0  0  0
  180.6380  180.0140  135.8700 N   0  0  0  0  0  0  0  0  0  0  0  0
  183.6470  179.5280  141.6990 C   0  0  0  0  0  2  0  0  0  0  0  0
  184.8440  179.0450  141.1460 O   0  0  0  0  0  0  0  0  0  0  0  0
  180.3440  179.9720  140.8970 C   0  0  0  0  0  2  0  0  0  0  0  0
  180.5440  174.3910  138.0900 C   0  0  0  0  0  2  0  0  0  0  0  0
  181.7310  176.4010  137.6800 C   0  0  2  0  0  3  0  0  0  0  0  0
  180.3720  175.8790  138.0880 C   0  0  0  0  0  2  0  0  0  0  0  0
  181.9850  174.1900  137.6890 C   0  0  0  0  0  2  0  0  0  0  0  0
  182.6770  175.3910  137.9050 O   0  0  0  0  0  0  0  0  0  0  0  0
  1 16  1  0  0  0  0
  2  6  1  6  0  0  0
  2 13  1  0  0  0  0
  2  8  1  0  0  0  0
  2 17  1  0  0  0  0
  3 22  1  0  0  0  0
  4 14  2  0  0  0  0
  4 15  1  0  0  0  0
  5 10  2  0  0  0  0
  8 24  1  6  0  0  0
 10  7  1  0  0  0  0
 11  9  1  0  0  0  0
 12  7  2  0  0  0  0
 12 17  1  0  0  0  0
 13  8  1  0  0  0  0
 13  1  1  1  0  0  0
 14  5  1  0  0  0  0
 15 12  1  0  0  0  0
 16 21  1  0  0  0  0
 17  3  1  6  0  0  0
 18  9  1  0  0  0  0
 19 15  2  0  0  0  0
 19  6  1  0  0  0  0
 20 11  1  0  0  0  0
 21 20  1  0  0  0  0
 22 18  1  0  0  0  0
 24 27  1  0  0  0  0
 24 25  1  1  0  0  0
 25 23  1  0  0  0  0
 26 27  1  0  0  0  0
 26 23  1  0  0  0  0
M  END
>  <MODEL>
2

>  <REMARK>
 VINA RESULT:      -4.8      7.399     10.249
  Name = 
  1 active torsions:
  status: ('A' for Active; 'I' for Inactive)
    1  A    between atoms: C_9  and  C_11
                            x       y       z     vdW  Elec       q    Type
                         _______ _______ _______ _____ _____    ______ ____

>  <TORSDO>
F 1

$$$$
=
 OpenBabel10272401033D

 27 31  0  0  1  0  0  0  0  0999 V2000
  189.9110  174.3510  137.7200 C   0  0  0  0  0  2  0  0  0  0  0  0
  191.3550  176.3750  138.2220 C   0  0  1  0  0  0  0  0  0  0  0  0
  189.8970  178.4290  138.1150 C   0  0  0  0  0  2  0  0  0  0  0  0
  191.5120  178.0410  142.2090 C   0  0  0  0  0  3  0  0  0  0  0  0
  189.3720  177.3620  143.2340 C   0  0  0  0  0  3  0  0  0  0  0  0
  192.5730  176.7340  138.9350 N   0  0  0  0  0  0  0  0  0  0  0  0
  188.9820  176.9030  140.8300 N   0  0  0  0  0  0  0  0  0  0  0  0
  191.4750  176.1010  136.7330 C   0  0  2  0  0  3  0  0  0  0  0  0
  187.5610  177.5800  135.2440 C   0  0  0  0  0  2  0  0  0  0  0  0
  188.6560  176.8800  142.2220 C   0  0  0  0  0  3  0  0  0  0  0  0
  187.5690  176.0720  135.0430 C   0  0  0  0  0  2  0  0  0  0  0  0
  190.1010  177.1310  140.2150 C   0  0  0  0  0  0  0  0  0  0  0  0
  191.3270  174.9320  137.7210 C   0  0  2  0  0  3  0  0  0  0  0  0
  190.6440  178.0090  143.1690 N   0  0  0  0  0  2  0  0  0  0  0  0
  191.3950  177.4190  140.8900 C   0  0  0  0  0  0  0  0  0  0  0  0
  189.3940  174.1000  136.3040 C   0  0  0  0  0  2  0  0  0  0  0  0
  190.0720  177.0410  138.7180 C   0  0  2  0  0  3  0  0  0  0  0  0
  188.8640  178.0380  135.8800 C   0  0  0  0  0  2  0  0  0  0  0  0
  192.5130  177.2450  140.2440 N   0  0  0  0  0  0  0  0  0  0  0  0
  187.5290  175.3590  136.3880 C   0  0  0  0  0  2  0  0  0  0  0  0
  187.9910  174.0370  136.2790 O   0  0  0  0  0  0  0  0  0  0  0  0
  188.6090  178.4780  137.3110 C   0  0  0  0  0  2  0  0  0  0  0  0
  194.0510  175.2690  134.3460 C   0  0  0  0  0  2  0  0  0  0  0  0
  192.9070  176.1630  136.2190 C   0  0  2  0  0  3  0  0  0  0  0  0
  192.9060  176.1650  134.7070 C   0  0  0  0  0  2  0  0  0  0  0  0
  194.6040  174.8280  135.6790 C   0  0  0  0  0  2  0  0  0  0  0  0
  193.6220  175.0400  136.6580 O   0  0  0  0  0  0  0  0  0  0  0  0
  2 17  1  0  0  0  0
  2  6  1  1  0  0  0
  4 14  1  0  0  0  0
  6 19  2  0  0  0  0
  7 10  1  0  0  0  0
  8 24  1  1  0  0  0
  8 13  1  0  0  0  0
  8  2  1  0  0  0  0
  9 18  1  0  0  0  0
 10  5  2  0  0  0  0
 11  9  1  0  0  0  0
 11 20  1  0  0  0  0
 12  7  2  0  0  0  0
 12 15  1  0  0  0  0
 13  1  1  6  0  0  0
 13  2  1  0  0  0  0
 14  5  1  0  0  0  0
 15  4  2  0  0  0  0
 16  1  1  0  0  0  0
 17  3  1  6  0  0  0
 17 12  1  0  0  0  0
 18 22  1  0  0  0  0
 19 15  1  0  0  0  0
 21 16  1  0  0  0  0
 21 20  1  0  0  0  0
 22  3  1  0  0  0  0
 23 25  1  0  0  0  0
 23 26  1  0  0  0  0
 24 25  1  6  0  0  0
 24 27  1  0  0  0  0
 26 27  1  0  0  0  0
M  END
>  <MODEL>
3

>  <REMARK>
 VINA RESULT:      -4.8      2.298      5.699
  Name = 
  1 active torsions:
  status: ('A' for Active; 'I' for Inactive)
    1  A    between atoms: C_9  and  C_11
                            x       y       z     vdW  Elec       q    Type
                         _______ _______ _______ _____ _____    ______ ____

>  <TORSDO>
F 1

$$$$
=
 OpenBabel10272401033D

 27 31  0  0  1  0  0  0  0  0999 V2000
  182.8150  176.8870  139.0480 C   0  0  0  0  0  2  0  0  0  0  0  0
  183.8100  175.2260  137.4090 C   0  0  1  0  0  0  0  0  0  0  0  0
  184.1680  176.4080  135.2110 C   0  0  0  0  0  2  0  0  0  0  0  0
  188.0810  175.0560  136.7560 C   0  0  0  0  0  3  0  0  0  0  0  0
  188.8760  177.3110  137.3630 C   0  0  0  0  0  3  0  0  0  0  0  0
  184.6080  174.0090  137.3920 N   0  0  0  0  0  2  0  0  0  0  0  0
  186.4250  177.6390  137.1930 N   0  0  0  0  0  0  0  0  0  0  0  0
  182.3010  175.0690  137.3410 C   0  0  2  0  0  3  0  0  0  0  0  0
  181.1370  178.6890  135.0470 C   0  0  0  0  0  2  0  0  0  0  0  0
  187.7660  178.0320  137.4960 C   0  0  0  0  0  3  0  0  0  0  0  0
  180.5830  178.8610  136.4530 C   0  0  0  0  0  2  0  0  0  0  0  0
  185.9030  176.4710  136.9790 C   0  0  0  0  0  0  0  0  0  0  0  0
  182.9790  175.4100  138.6780 C   0  0  2  0  0  3  0  0  0  0  0  0
  188.9900  175.9670  136.8950 N   0  0  0  0  0  0  0  0  0  0  0  0
  186.6490  175.1850  137.0320 C   0  0  0  0  0  0  0  0  0  0  0  0
  181.3710  177.3610  138.8910 C   0  0  0  0  0  2  0  0  0  0  0  0
  184.4270  176.4380  136.7120 C   0  0  2  0  0  3  0  0  0  0  0  0
  181.8870  177.3710  134.9280 C   0  0  0  0  0  2  0  0  0  0  0  0
  186.0000  174.0680  137.1970 N   0  0  0  0  0  0  0  0  0  0  0  0
  181.7190  179.0550  137.4490 C   0  0  0  0  0  2  0  0  0  0  0  0
  181.3070  178.7580  138.7580 O   0  0  0  0  0  0  0  0  0  0  0  0
  183.3760  177.6390  134.8040 C   0  0  0  0  0  2  0  0  0  0  0  0
  180.3930  172.3110  136.0070 C   0  0  0  0  0  2  0  0  0  0  0  0
  181.8410  173.6170  137.3530 C   0  0  2  0  0  3  0  0  0  0  0  0
  181.6420  173.1340  135.9350 C   0  0  0  0  0  2  0  0  0  0  0  0
  179.9820  172.3980  137.4570 C   0  0  0  0  0  2  0  0  0  0  0  0
  180.6190  173.5070  138.0310 O   0  0  0  0  0  0  0  0  0  0  0  0
  2  6  1  6  0  0  0
  2 13  1  0  0  0  0
  4 14  2  0  0  0  0
  4 15  1  0  0  0  0
  5 10  2  0  0  0  0
  7 10  1  0  0  0  0
  8 24  1  1  0  0  0
  8  2  1  0  0  0  0
  8 13  1  0  0  0  0
  9 11  1  0  0  0  0
 11 20  1  0  0  0  0
 12 15  1  0  0  0  0
 12  7  2  0  0  0  0
 13  1  1  6  0  0  0
 14  5  1  0  0  0  0
 15 19  2  0  0  0  0
 16  1  1  0  0  0  0
 17  3  1  6  0  0  0
 17 12  1  0  0  0  0
 17  2  1  0  0  0  0
 18  9  1  0  0  0  0
 19  6  1  0  0  0  0
 20 21  1  0  0  0  0
 21 16  1  0  0  0  0
 22 18  1  0  0  0  0
 22  3  1  0  0  0  0
 23 26  1  0  0  0  0
 24 25  1  6  0  0  0
 24 27  1  0  0  0  0
 25 23  1  0  0  0  0
 26 27  1  0  0  0  0
M  END
>  <MODEL>
4

>  <REMARK>
 VINA RESULT:      -4.7      4.666      7.131
  Name = 
  1 active torsions:
  status: ('A' for Active; 'I' for Inactive)
    1  A    between atoms: C_9  and  C_11
                            x       y       z     vdW  Elec       q    Type
                         _______ _______ _______ _____ _____    ______ ____

>  <TORSDO>
F 1

$$$$
=
 OpenBabel10272401033D

 27 31  0  0  1  0  0  0  0  0999 V2000
  182.6950  179.8070  138.2200 C   0  0  0  0  0  2  0  0  0  0  0  0
  184.6960  178.5590  139.1550 C   0  0  1  0  0  0  0  0  0  0  0  0
  184.3880  176.1040  138.6720 C   0  0  0  0  0  2  0  0  0  0  0  0
  188.0340  177.5160  136.6130 C   0  0  0  0  0  3  0  0  0  0  0  0
  187.0630  177.4260  134.3460 C   0  0  0  0  0  3  0  0  0  0  0  0
  186.0980  178.7730  139.4820 N   0  0  0  0  0  2  0  0  0  0  0  0
  185.0470  177.4410  135.7890 N   0  0  0  0  0  0  0  0  0  0  0  0
  183.6900  178.6980  140.2850 C   0  0  2  0  0  3  0  0  0  0  0  0
  180.6430  175.6790  139.1320 C   0  0  0  0  0  2  0  0  0  0  0  0
  185.7490  177.4850  134.5440 C   0  0  0  0  0  3  0  0  0  0  0  0
  179.9820  177.0440  139.0070 C   0  0  0  0  0  2  0  0  0  0  0  0
  185.4580  177.5960  137.0090 C   0  0  0  0  0  0  0  0  0  0  0  0
  183.8350  179.8180  139.2420 C   0  0  2  0  0  3  0  0  0  0  0  0
  188.0860  177.3140  135.3350 N   0  0  0  0  0  0  0  0  0  0  0  0
  186.8610  177.9020  137.3990 C   0  0  0  0  0  0  0  0  0  0  0  0
  181.3260  179.6890  138.8880 C   0  0  0  0  0  2  0  0  0  0  0  0
  184.4140  177.5080  138.0820 C   0  0  2  0  0  3  0  0  0  0  0  0
  182.0860  175.8280  139.5870 C   0  0  0  0  0  2  0  0  0  0  0  0
  187.1080  178.4210  138.5680 N   0  0  0  0  0  0  0  0  0  0  0  0
  180.5970  177.8260  137.8530 C   0  0  0  0  0  2  0  0  0  0  0  0
  180.3620  179.2040  137.9890 O   0  0  0  0  0  0  0  0  0  0  0  0
  183.0230  175.4780  138.4440 C   0  0  0  0  0  2  0  0  0  0  0  0
  184.9730  178.0290  143.5920 C   0  0  0  0  0  2  0  0  0  0  0  0
  184.3150  179.1360  141.6030 C   0  0  2  0  0  3  0  0  0  0  0  0
  185.2340  178.0520  142.1170 C   0  0  0  0  0  2  0  0  0  0  0  0
  183.9240  179.0960  143.7930 C   0  0  0  0  0  2  0  0  0  0  0  0
  183.3130  179.3550  142.5580 O   0  0  0  0  0  0  0  0  0  0  0  0
  1 16  1  0  0  0  0
  2 13  1  0  0  0  0
  2  6  1  1  0  0  0
  2  8  1  0  0  0  0
  4 15  1  0  0  0  0
  5 10  2  0  0  0  0
  5 14  1  0  0  0  0
  7 12  2  0  0  0  0
  8 24  1  1  0  0  0
  9 18  1  0  0  0  0
 10  7  1  0  0  0  0
 11  9  1  0  0  0  0
 12 15  1  0  0  0  0
 12 17  1  0  0  0  0
 13  1  1  6  0  0  0
 13  8  1  0  0  0  0
 14  4  2  0  0  0  0
 15 19  2  0  0  0  0
 17  3  1  1  0  0  0
 17  2  1  0  0  0  0
 19  6  1  0  0  0  0
 20 21  1  0  0  0  0
 20 11  1  0  0  0  0
 21 16  1  0  0  0  0
 22  3  1  0  0  0  0
 22 18  1  0  0  0  0
 23 26  1  0  0  0  0
 24 25  1  1  0  0  0
 24 27  1  0  0  0  0
 25 23  1  0  0  0  0
 27 26  1  0  0  0  0
M  END
>  <MODEL>
5

>  <REMARK>
 VINA RESULT:      -4.5      4.369      5.940
  Name = 
  1 active torsions:
  status: ('A' for Active; 'I' for Inactive)
    1  A    between atoms: C_9  and  C_11
                            x       y       z     vdW  Elec       q    Type
                         _______ _______ _______ _____ _____    ______ ____

>  <TORSDO>
F 1

$$$$
=
 OpenBabel10272401033D

 27 31  0  0  1  0  0  0  0  0999 V2000
  188.1100  174.5480  137.6700 C   0  0  0  0  0  2  0  0  0  0  0  0
  190.2050  175.9180  138.0820 C   0  0  1  0  0  0  0  0  0  0  0  0
  189.6190  178.3540  137.8030 C   0  0  0  0  0  2  0  0  0  0  0  0
  190.9640  177.6800  141.9570 C   0  0  0  0  0  3  0  0  0  0  0  0
  188.7240  177.9200  142.9630 C   0  0  0  0  0  3  0  0  0  0  0  0
  191.4670  175.8460  138.8040 N   0  0  0  0  0  0  0  0  0  0  0  0
  188.1950  177.4720  140.5830 N   0  0  0  0  0  0  0  0  0  0  0  0
  190.2170  175.5160  136.6180 C   0  0  2  0  0  3  0  0  0  0  0  0
  187.1410  178.2380  134.9280 C   0  0  0  0  0  2  0  0  0  0  0  0
  187.8820  177.6700  141.9640 C   0  0  0  0  0  3  0  0  0  0  0  0
  186.5860  176.8250  134.8240 C   0  0  0  0  0  2  0  0  0  0  0  0
  189.3190  177.2240  139.9870 C   0  0  0  0  0  0  0  0  0  0  0  0
  189.6410  174.5580  137.6740 C   0  0  2  0  0  3  0  0  0  0  0  0
  190.1450  178.0400  142.8920 N   0  0  0  0  0  2  0  0  0  0  0  0
  190.6260  177.0550  140.6780 C   0  0  0  0  0  0  0  0  0  0  0  0
  187.5400  174.4080  136.2600 C   0  0  0  0  0  2  0  0  0  0  0  0
  189.2620  177.0470  138.4990 C   0  0  2  0  0  3  0  0  0  0  0  0
  188.5200  178.2210  135.5700 C   0  0  0  0  0  2  0  0  0  0  0  0
  191.5990  176.4330  140.0750 N   0  0  0  0  0  0  0  0  0  0  0  0
  186.2800  176.2740  136.2110 C   0  0  0  0  0  2  0  0  0  0  0  0
  186.2150  174.8720  136.1990 O   0  0  0  0  0  0  0  0  0  0  0  0
  188.4450  178.8240  136.9620 C   0  0  0  0  0  2  0  0  0  0  0  0
  193.0230  175.5410  134.3490 C   0  0  0  0  0  2  0  0  0  0  0  0
  191.5690  175.0040  136.1410 C   0  0  2  0  0  3  0  0  0  0  0  0
  192.3680  176.1440  135.5520 C   0  0  0  0  0  2  0  0  0  0  0  0
  192.5400  174.1110  134.3480 C   0  0  0  0  0  2  0  0  0  0  0  0
  191.3890  174.0320  135.1460 O   0  0  0  0  0  0  0  0  0  0  0  0
  2 17  1  0  0  0  0
  2  6  1  1  0  0  0
  4 14  1  0  0  0  0
  6 19  2  0  0  0  0
  7 10  1  0  0  0  0
  8 24  1  1  0  0  0
  8 13  1  0  0  0  0
  8  2  1  0  0  0  0
  9 18  1  0  0  0  0
 10  5  2  0  0  0  0
 11  9  1  0  0  0  0
 11 20  1  0  0  0  0
 12  7  2  0  0  0  0
 12 15  1  0  0  0  0
 13  1  1  6  0  0  0
 13  2  1  0  0  0  0
 14  5  1  0  0  0  0
 15  4  2  0  0  0  0
 16  1  1  0  0  0  0
 17  3  1  6  0  0  0
 17 12  1  0  0  0  0
 18 22  1  0  0  0  0
 19 15  1  0  0  0  0
 21 20  1  0  0  0  0
 21 16  1  0  0  0  0
 22  3  1  0  0  0  0
 23 25  1  0  0  0  0
 24 25  1  6  0  0  0
 26 23  1  0  0  0  0
 26 27  1  0  0  0  0
 27 24  1  0  0  0  0
M  END
>  <MODEL>
6

>  <REMARK>
 VINA RESULT:      -4.5      2.013      5.584
  Name = 
  1 active torsions:
  status: ('A' for Active; 'I' for Inactive)
    1  A    between atoms: C_9  and  C_11
                            x       y       z     vdW  Elec       q    Type
                         _______ _______ _______ _____ _____    ______ ____

>  <TORSDO>
F 1

$$$$
=
 OpenBabel10272401033D

 27 31  0  0  1  0  0  0  0  0999 V2000
  182.0090  179.0090  136.6050 C   0  0  0  0  0  2  0  0  0  0  0  0
  183.3970  178.3050  138.6090 C   0  0  1  0  0  0  0  0  0  0  0  0
  183.9430  175.8560  138.3670 C   0  0  0  0  0  2  0  0  0  0  0  0
  187.7110  178.1640  138.3680 C   0  0  0  0  0  3  0  0  0  0  0  0
  188.1730  177.8450  135.9650 C   0  0  0  0  0  3  0  0  0  0  0  0
  184.3110  178.8670  139.5930 N   0  0  0  0  0  2  0  0  0  0  0  0
  185.7520  177.3370  136.1140 N   0  0  0  0  0  0  0  0  0  0  0  0
  181.9380  178.1750  139.0110 C   0  0  2  0  0  3  0  0  0  0  0  0
  180.7480  174.4890  136.8390 C   0  0  0  0  0  2  0  0  0  0  0  0
  186.9870  177.5660  135.4320 C   0  0  0  0  0  3  0  0  0  0  0  0
  179.9820  175.6410  136.2050 C   0  0  0  0  0  2  0  0  0  0  0  0
  185.3890  177.5820  137.3350 C   0  0  0  0  0  0  0  0  0  0  0  0
  182.3770  179.3030  138.0630 C   0  0  2  0  0  3  0  0  0  0  0  0
  188.4910  177.9910  137.3490 N   0  0  0  0  0  0  0  0  0  0  0  0
  186.2500  178.2330  138.3610 C   0  0  0  0  0  0  0  0  0  0  0  0
  180.5620  178.5410  136.4620 C   0  0  0  0  0  2  0  0  0  0  0  0
  183.9790  177.2250  137.6990 C   0  0  2  0  0  3  0  0  0  0  0  0
  181.6390  174.9960  137.9610 C   0  0  0  0  0  2  0  0  0  0  0  0
  185.7030  178.7900  139.4030 N   0  0  0  0  0  0  0  0  0  0  0  0
  180.9370  176.5620  135.4560 C   0  0  0  0  0  2  0  0  0  0  0  0
  180.3730  177.8330  135.2640 O   0  0  0  0  0  0  0  0  0  0  0  0
  183.0960  174.9050  137.5410 C   0  0  0  0  0  2  0  0  0  0  0  0
  179.9840  178.3490  142.0400 C   0  0  0  0  0  2  0  0  0  0  0  0
  181.6340  178.7500  140.3880 C   0  0  2  0  0  3  0  0  0  0  0  0
  181.0790  177.6650  141.2820 C   0  0  0  0  0  2  0  0  0  0  0  0
  180.0020  179.7630  141.5120 C   0  0  0  0  0  2  0  0  0  0  0  0
  180.6750  179.7670  140.2820 O   0  0  0  0  0  0  0  0  0  0  0  0
  2  8  1  0  0  0  0
  2  6  1  1  0  0  0
  5 14  1  0  0  0  0
  7 12  2  0  0  0  0
  8 24  1  1  0  0  0
  9 18  1  0  0  0  0
 10  5  2  0  0  0  0
 10  7  1  0  0  0  0
 11  9  1  0  0  0  0
 12 17  1  0  0  0  0
 12 15  1  0  0  0  0
 13  1  1  6  0  0  0
 13  2  1  0  0  0  0
 13  8  1  0  0  0  0
 14  4  2  0  0  0  0
 15  4  1  0  0  0  0
 15 19  2  0  0  0  0
 16  1  1  0  0  0  0
 17  3  1  1  0  0  0
 17  2  1  0  0  0  0
 19  6  1  0  0  0  0
 20 11  1  0  0  0  0
 21 20  1  0  0  0  0
 21 16  1  0  0  0  0
 22 18  1  0  0  0  0
 22  3  1  0  0  0  0
 24 25  1  1  0  0  0
 25 23  1  0  0  0  0
 26 23  1  0  0  0  0
 27 24  1  0  0  0  0
 27 26  1  0  0  0  0
M  END
>  <MODEL>
7

>  <REMARK>
 VINA RESULT:      -4.4      4.967      6.593
  Name = 
  1 active torsions:
  status: ('A' for Active; 'I' for Inactive)
    1  A    between atoms: C_9  and  C_11
                            x       y       z     vdW  Elec       q    Type
                         _______ _______ _______ _____ _____    ______ ____

>  <TORSDO>
F 1

$$$$
=
 OpenBabel10272401033D

 27 31  0  0  1  0  0  0  0  0999 V2000
  183.9880  176.9670  138.4550 C   0  0  0  0  0  2  0  0  0  0  0  0
  182.3750  176.4260  136.5730 C   0  0  1  0  0  0  0  0  0  0  0  0
  183.7210  175.7280  134.5590 C   0  0  0  0  0  2  0  0  0  0  0  0
  181.1650  172.3460  135.8070 C   0  0  0  0  0  3  0  0  0  0  0  0
  183.0140  170.9860  136.7120 C   0  0  0  0  0  3  0  0  0  0  0  0
  181.0040  175.9820  136.3650 N   0  0  0  0  0  2  0  0  0  0  0  0
  184.0060  173.2570  136.6450 N   0  0  0  0  0  0  0  0  0  0  0  0
  182.6380  177.9210  136.5180 C   0  0  2  0  0  3  0  0  0  0  0  0
  186.7280  178.0340  134.7900 C   0  0  0  0  0  2  0  0  0  0  0  0
  183.9790  171.8650  136.9710 C   0  0  0  0  0  3  0  0  0  0  0  0
  186.8380  178.5460  136.2190 C   0  0  0  0  0  2  0  0  0  0  0  0
  183.0640  174.0690  136.2780 C   0  0  0  0  0  0  0  0  0  0  0  0
  182.5900  177.1980  137.8740 C   0  0  2  0  0  3  0  0  0  0  0  0
  181.7700  171.2290  136.0540 N   0  0  0  0  0  0  0  0  0  0  0  0
  181.6310  173.6950  136.1310 C   0  0  0  0  0  0  0  0  0  0  0  0
  184.8490  178.2290  138.3990 C   0  0  0  0  0  2  0  0  0  0  0  0
  183.4650  175.4950  136.0430 C   0  0  2  0  0  3  0  0  0  0  0  0
  185.2890  177.6630  134.4680 C   0  0  0  0  0  2  0  0  0  0  0  0
  180.7170  174.6220  136.1490 N   0  0  0  0  0  0  0  0  0  0  0  0
  186.5770  177.4150  137.2060 C   0  0  0  0  0  2  0  0  0  0  0  0
  186.2160  177.9140  138.4680 O   0  0  0  0  0  0  0  0  0  0  0  0
  185.1630  176.1540  134.3490 C   0  0  0  0  0  2  0  0  0  0  0  0
  180.7320  180.5150  134.8860 C   0  0  0  0  0  2  0  0  0  0  0  0
  181.3760  178.7520  136.3320 C   0  0  2  0  0  3  0  0  0  0  0  0
  181.2000  179.0920  134.8700 C   0  0  0  0  0  2  0  0  0  0  0  0
  180.6880  180.8680  136.3530 C   0  0  0  0  0  2  0  0  0  0  0  0
  181.4810  179.9490  137.0540 O   0  0  0  0  0  0  0  0  0  0  0  0
  2  6  1  6  0  0  0
  2 13  1  0  0  0  0
  4 14  2  0  0  0  0
  4 15  1  0  0  0  0
  5 10  2  0  0  0  0
  7 10  1  0  0  0  0
  8 24  1  1  0  0  0
  8  2  1  0  0  0  0
  8 13  1  0  0  0  0
  9 11  1  0  0  0  0
 11 20  1  0  0  0  0
 12  7  2  0  0  0  0
 13  1  1  6  0  0  0
 14  5  1  0  0  0  0
 15 19  2  0  0  0  0
 15 12  1  0  0  0  0
 16  1  1  0  0  0  0
 16 21  1  0  0  0  0
 17  3  1  6  0  0  0
 17 12  1  0  0  0  0
 17  2  1  0  0  0  0
 18  9  1  0  0  0  0
 19  6  1  0  0  0  0
 20 21  1  0  0  0  0
 22 18  1  0  0  0  0
 22  3  1  0  0  0  0
 23 26  1  0  0  0  0
 24 25  1  6  0  0  0
 24 27  1  0  0  0  0
 25 23  1  0  0  0  0
 26 27  1  0  0  0  0
M  END
>  <MODEL>
8

>  <REMARK>
 VINA RESULT:      -4.4      5.463      8.438
  Name = 
  1 active torsions:
  status: ('A' for Active; 'I' for Inactive)
    1  A    between atoms: C_9  and  C_11
                            x       y       z     vdW  Elec       q    Type
                         _______ _______ _______ _____ _____    ______ ____

>  <TORSDO>
F 1

$$$$
=
 OpenBabel10272401033D

 27 31  0  0  1  0  0  0  0  0999 V2000
  183.4020  175.3020  138.3850 C   0  0  0  0  0  2  0  0  0  0  0  0
  184.9460  174.1480  136.7350 C   0  0  1  0  0  0  0  0  0  0  0  0
  185.6110  175.8240  134.9740 C   0  0  0  0  0  2  0  0  0  0  0  0
  189.2390  174.4940  137.1150 C   0  0  0  0  0  3  0  0  0  0  0  0
  189.5700  176.6110  138.3380 C   0  0  0  0  0  3  0  0  0  0  0  0
  185.8860  173.0380  136.6670 N   0  0  0  0  0  0  0  0  0  0  0  0
  187.1940  176.7590  137.6490 N   0  0  0  0  0  0  0  0  0  0  0  0
  183.5230  173.8820  136.2740 C   0  0  2  0  0  3  0  0  0  0  0  0
  182.4070  177.8170  134.5420 C   0  0  0  0  0  2  0  0  0  0  0  0
  188.3700  177.1860  138.3400 C   0  0  0  0  0  3  0  0  0  0  0  0
  181.5420  177.6170  135.7780 C   0  0  0  0  0  2  0  0  0  0  0  0
  186.8930  175.6310  137.0840 C   0  0  0  0  0  0  0  0  0  0  0  0
  183.8420  173.9670  137.7750 C   0  0  2  0  0  3  0  0  0  0  0  0
  189.9640  175.4230  137.6510 N   0  0  0  0  0  2  0  0  0  0  0  0
  187.7780  174.4350  137.0570 C   0  0  0  0  0  0  0  0  0  0  0  0
  181.9760  175.6750  137.9810 C   0  0  0  0  0  2  0  0  0  0  0  0
  185.5300  175.5340  136.4670 C   0  0  2  0  0  3  0  0  0  0  0  0
  183.3370  176.6300  134.3460 C   0  0  0  0  0  2  0  0  0  0  0  0
  187.2660  173.2590  136.8310 N   0  0  0  0  0  0  0  0  0  0  0  0
  182.3970  177.6760  137.0380 C   0  0  0  0  0  2  0  0  0  0  0  0
  181.7540  177.0540  138.1200 O   0  0  0  0  0  0  0  0  0  0  0  0
  184.7670  177.0440  134.6430 C   0  0  0  0  0  2  0  0  0  0  0  0
  181.8190  171.3370  134.3650 C   0  0  0  0  0  2  0  0  0  0  0  0
  183.2740  172.4320  135.8810 C   0  0  2  0  0  3  0  0  0  0  0  0
  182.9160  172.3550  134.4150 C   0  0  0  0  0  2  0  0  0  0  0  0
  181.6390  170.9240  135.8060 C   0  0  0  0  0  2  0  0  0  0  0  0
  182.2040  171.9130  136.6240 O   0  0  0  0  0  0  0  0  0  0  0  0
  2  6  1  6  0  0  0
  2 13  1  0  0  0  0
  4 14  1  0  0  0  0
  5 10  2  0  0  0  0
  6 19  2  0  0  0  0
  7 10  1  0  0  0  0
  8 24  1  1  0  0  0
  8  2  1  0  0  0  0
  8 13  1  0  0  0  0
  9 11  1  0  0  0  0
 11 20  1  0  0  0  0
 12  7  2  0  0  0  0
 13  1  1  6  0  0  0
 14  5  1  0  0  0  0
 15 12  1  0  0  0  0
 15  4  2  0  0  0  0
 16 21  1  0  0  0  0
 16  1  1  0  0  0  0
 17  3  1  6  0  0  0
 17  2  1  0  0  0  0
 17 12  1  0  0  0  0
 18  9  1  0  0  0  0
 18 22  1  0  0  0  0
 19 15  1  0  0  0  0
 20 21  1  0  0  0  0
 22  3  1  0  0  0  0
 23 25  1  0  0  0  0
 23 26  1  0  0  0  0
 24 25  1  6  0  0  0
 24 27  1  0  0  0  0
 26 27  1  0  0  0  0
M  END
>  <MODEL>
9

>  <REMARK>
 VINA RESULT:      -4.2      3.980      6.791
  Name = 
  1 active torsions:
  status: ('A' for Active; 'I' for Inactive)
    1  A    between atoms: C_9  and  C_11
                            x       y       z     vdW  Elec       q    Type
                         _______ _______ _______ _____ _____    ______ ____

>  <TORSDO>
F 1

$$$$
