=
 OpenBabel10272400203D

 31 33  0  0  1  0  0  0  0  0999 V2000
  190.9220  177.1640  139.6690 C   0  0  0  0  0  0  0  0  0  0  0  0
  191.4190  176.6570  138.3690 C   0  0  0  0  0  0  0  0  0  0  0  0
  191.0200  175.8430  136.1150 C   0  0  0  0  0  3  0  0  0  0  0  0
  190.5310  176.3130  137.3380 C   0  0  0  0  0  3  0  0  0  0  0  0
  193.6910  176.8770  139.2080 N   0  0  0  0  0  0  0  0  0  0  0  0
  192.8800  175.2490  134.6990 O   0  0  0  0  0  1  0  0  0  0  0  0
  191.8150  177.4520  140.6500 C   0  0  0  0  0  0  0  0  0  0  0  0
  192.3970  175.7160  135.9140 C   0  0  0  0  0  0  0  0  0  0  0  0
  193.1940  177.3220  140.4160 O   0  0  0  0  0  0  0  0  0  0  0  0
  192.7980  176.5250  138.1560 C   0  0  0  0  0  0  0  0  0  0  0  0
  193.2890  176.0570  136.9350 C   0  0  0  0  0  2  0  0  0  0  0  0
  189.4970  177.2830  139.8420 N   0  0  0  0  0  2  0  0  0  0  0  0
  188.8740  179.1620  138.6160 O   0  0  0  0  0  1  0  0  0  0  0  0
  188.7280  178.5210  139.8460 C   0  0  1  0  0  3  0  0  0  0  0  0
  187.2620  178.2170  140.0820 C   0  0  0  0  0  2  0  0  0  0  0  0
  186.8340  178.7330  141.4440 C   0  0  0  0  0  2  0  0  0  0  0  0
  185.3530  179.0640  141.4400 C   0  0  2  0  0  3  0  0  0  0  0  0
  184.6340  177.9430  141.8090 F   0  0  0  0  0  0  0  0  0  0  0  0
  184.9420  179.4810  140.1110 N   0  0  0  0  0  1  0  0  0  0  0  0
  191.3980  177.8860  142.0160 C   0  0  0  0  0  2  0  0  0  0  0  0
  191.7570  176.8160  143.0380 C   0  0  0  0  0  2  0  0  0  0  0  0
  190.3090  174.9160  142.9810 F   0  0  0  0  0  0  0  0  0  0  0  0
  190.5170  176.1370  143.6020 C   0  0  2  0  0  3  0  0  0  0  0  0
  189.2920  177.0310  143.4540 C   0  0  0  0  0  2  0  0  0  0  0  0
  188.8730  177.7290  147.1530 C   0  0  0  0  0  0  0  0  0  0  0  0
  186.6800  177.6460  146.1280 C   0  0  0  0  0  3  0  0  0  0  0  0
  189.6490  177.8980  148.2500 F   0  0  0  0  0  0  0  0  0  0  0  0
  189.4630  177.4690  145.9130 C   0  0  0  0  0  3  0  0  0  0  0  0
  187.2700  177.3850  144.8870 C   0  0  0  0  0  3  0  0  0  0  0  0
  188.6620  177.2940  144.7780 C   0  0  0  0  0  0  0  0  0  0  0  0
  187.4810  177.8180  147.2610 C   0  0  0  0  0  3  0  0  0  0  0  0
  1 12  1  0  0  0  0
  1  7  2  0  0  0  0
  2  1  1  0  0  0  0
  3  4  1  0  0  0  0
  4  2  2  0  0  0  0
  5  9  1  0  0  0  0
  6  8  1  0  0  0  0
  7 20  1  0  0  0  0
  8  3  2  0  0  0  0
  8 11  1  0  0  0  0
  9  7  1  0  0  0  0
 10  2  1  0  0  0  0
 10  5  2  0  0  0  0
 11 10  1  0  0  0  0
 12 14  1  0  0  0  0
 14 13  1  6  0  0  0
 14 15  1  0  0  0  0
 15 16  1  0  0  0  0
 17 19  1  6  0  0  0
 17 16  1  0  0  0  0
 17 18  1  0  0  0  0
 20 21  1  0  0  0  0
 21 23  1  0  0  0  0
 23 22  1  6  0  0  0
 24 23  1  0  0  0  0
 24 30  1  0  0  0  0
 25 31  1  0  0  0  0
 25 27  1  0  0  0  0
 26 31  2  0  0  0  0
 28 25  2  0  0  0  0
 29 26  1  0  0  0  0
 30 29  2  0  0  0  0
 30 28  1  0  0  0  0
M  END
>  <MODEL>
1

>  <REMARK>
 VINA RESULT:      -8.5      0.000      0.000
  Name = 
  10 active torsions:
  status: ('A' for Active; 'I' for Inactive)
    1  A    between atoms: C_2  and  C_13
    2  A    between atoms: C_3  and  C_9
    3  A    between atoms: C_3  and  C_22
    4  A    between atoms: C_4  and  N_12
    5  A    between atoms: C_9  and  C_23
    6  A    between atoms: N_12  and  C_27
    7  A    between atoms: C_13  and  C_28
    8  A    between atoms: C_15  and  C_21
    9  A    between atoms: C_15  and  C_23
   10  A    between atoms: C_27  and  C_28
                            x       y       z     vdW  Elec       q    Type
                         _______ _______ _______ _____ _____    ______ ____

>  <TORSDO>
F 10

$$$$
=
 OpenBabel10272400203D

 31 33  0  0  1  0  0  0  0  0999 V2000
  184.7710  178.4340  141.5150 C   0  0  0  0  0  0  0  0  0  0  0  0
  183.6850  178.4690  140.5090 C   0  0  0  0  0  0  0  0  0  0  0  0
  181.3320  178.3430  139.9200 C   0  0  0  0  0  3  0  0  0  0  0  0
  182.3440  178.2990  140.8840 C   0  0  0  0  0  3  0  0  0  0  0  0
  185.3600  178.8570  138.7880 N   0  0  0  0  0  0  0  0  0  0  0  0
  180.6470  178.6010  137.6220 O   0  0  0  0  0  1  0  0  0  0  0  0
  186.0570  178.5700  141.1030 C   0  0  0  0  0  0  0  0  0  0  0  0
  181.6530  178.5580  138.5770 C   0  0  0  0  0  0  0  0  0  0  0  0
  186.3500  178.7940  139.7480 O   0  0  0  0  0  0  0  0  0  0  0  0
  183.9960  178.6850  139.1590 C   0  0  0  0  0  0  0  0  0  0  0  0
  182.9870  178.7300  138.1950 C   0  0  0  0  0  2  0  0  0  0  0  0
  184.4040  178.2110  142.8900 N   0  0  0  0  0  2  0  0  0  0  0  0
  182.7600  178.6190  144.4870 O   0  0  0  0  0  1  0  0  0  0  0  0
  183.8310  179.1920  143.8020 C   0  0  1  0  0  3  0  0  0  0  0  0
  184.8800  179.6450  144.7980 C   0  0  0  0  0  2  0  0  0  0  0  0
  185.6870  178.4550  145.2850 C   0  0  0  0  0  2  0  0  0  0  0  0
  185.5920  178.3360  146.7950 C   0  0  2  0  0  3  0  0  0  0  0  0
  184.3120  177.9490  147.1420 F   0  0  0  0  0  0  0  0  0  0  0  0
  185.8900  179.6160  147.4130 N   0  0  0  0  0  1  0  0  0  0  0  0
  187.2170  178.4620  142.0370 C   0  0  0  0  0  2  0  0  0  0  0  0
  188.2860  177.5550  141.4420 C   0  0  0  0  0  2  0  0  0  0  0  0
  188.7680  175.9720  143.1660 F   0  0  0  0  0  0  0  0  0  0  0  0
  189.2720  177.0770  142.5000 C   0  0  2  0  0  3  0  0  0  0  0  0
  189.6010  178.1950  143.4810 C   0  0  0  0  0  2  0  0  0  0  0  0
  189.5520  177.1380  147.1190 C   0  0  0  0  0  0  0  0  0  0  0  0
  191.6930  176.5290  146.1650 C   0  0  0  0  0  3  0  0  0  0  0  0
  188.7060  177.1730  148.1750 F   0  0  0  0  0  0  0  0  0  0  0  0
  189.1560  177.6720  145.8890 C   0  0  0  0  0  3  0  0  0  0  0  0
  191.2980  177.0640  144.9350 C   0  0  0  0  0  3  0  0  0  0  0  0
  190.0290  177.6390  144.7960 C   0  0  0  0  0  0  0  0  0  0  0  0
  190.8210  176.5670  147.2570 C   0  0  0  0  0  3  0  0  0  0  0  0
  1 12  1  0  0  0  0
  2  4  2  0  0  0  0
  2  1  1  0  0  0  0
  3  4  1  0  0  0  0
  5 10  2  0  0  0  0
  5  9  1  0  0  0  0
  6  8  1  0  0  0  0
  7  1  2  0  0  0  0
  7 20  1  0  0  0  0
  8  3  2  0  0  0  0
  9  7  1  0  0  0  0
 10  2  1  0  0  0  0
 11  8  1  0  0  0  0
 11 10  1  0  0  0  0
 12 14  1  0  0  0  0
 14 13  1  1  0  0  0
 14 15  1  0  0  0  0
 15 16  1  0  0  0  0
 16 17  1  0  0  0  0
 17 18  1  6  0  0  0
 17 19  1  0  0  0  0
 21 20  1  0  0  0  0
 21 23  1  0  0  0  0
 23 22  1  1  0  0  0
 23 24  1  0  0  0  0
 24 30  1  0  0  0  0
 25 31  1  0  0  0  0
 25 27  1  0  0  0  0
 26 31  2  0  0  0  0
 28 25  2  0  0  0  0
 29 26  1  0  0  0  0
 30 29  2  0  0  0  0
 30 28  1  0  0  0  0
M  END
>  <MODEL>
2

>  <REMARK>
 VINA RESULT:      -8.4      4.129      6.653
  Name = 
  10 active torsions:
  status: ('A' for Active; 'I' for Inactive)
    1  A    between atoms: C_2  and  C_13
    2  A    between atoms: C_3  and  C_9
    3  A    between atoms: C_3  and  C_22
    4  A    between atoms: C_4  and  N_12
    5  A    between atoms: C_9  and  C_23
    6  A    between atoms: N_12  and  C_27
    7  A    between atoms: C_13  and  C_28
    8  A    between atoms: C_15  and  C_21
    9  A    between atoms: C_15  and  C_23
   10  A    between atoms: C_27  and  C_28
                            x       y       z     vdW  Elec       q    Type
                         _______ _______ _______ _____ _____    ______ ____

>  <TORSDO>
F 10

$$$$
=
 OpenBabel10272400203D

 31 33  0  0  1  0  0  0  0  0999 V2000
  185.5650  178.1700  143.7060 C   0  0  0  0  0  0  0  0  0  0  0  0
  184.2360  178.4290  143.1040 C   0  0  1  0  0  3  0  0  0  0  0  0
  182.7500  178.4780  141.1840 C   0  0  0  0  0  3  0  0  0  0  0  0
  184.0120  178.2340  141.7330 C   0  0  0  0  0  3  0  0  0  0  0  0
  183.4170  179.0610  145.3050 N   0  0  0  0  0  0  0  0  0  0  0  0
  180.4500  179.1550  141.4540 O   0  0  0  0  0  1  0  0  0  0  0  0
  185.7450  178.4040  145.0310 C   0  0  0  0  0  0  0  0  0  0  0  0
  181.7030  178.9150  142.0010 C   0  0  0  0  0  0  0  0  0  0  0  0
  184.6740  178.8340  145.8290 O   0  0  0  0  0  0  0  0  0  0  0  0
  183.1800  178.8670  143.9140 C   0  0  0  0  0  0  0  0  0  0  0  0
  181.9170  179.1100  143.3680 C   0  0  0  0  0  3  0  0  0  0  0  0
  186.6190  177.7190  142.8350 N   0  0  0  0  0  2  0  0  0  0  0  0
  188.8840  178.2480  142.7320 O   0  0  0  0  0  1  0  0  0  0  0  0
  187.6320  178.5530  142.2010 C   0  0  1  0  0  3  0  0  0  0  0  0
  187.6460  178.3010  140.7060 C   0  0  0  0  0  2  0  0  0  0  0  0
  188.7550  177.3270  140.3510 C   0  0  0  0  0  2  0  0  0  0  0  0
  189.4880  177.7940  139.1060 C   0  0  2  0  0  3  0  0  0  0  0  0
  190.8360  177.9060  139.3850 F   0  0  0  0  0  0  0  0  0  0  0  0
  188.9760  179.0860  138.6860 N   0  0  0  0  0  1  0  0  0  0  0  0
  187.0700  178.2510  145.7020 C   0  0  0  0  0  2  0  0  0  0  0  0
  186.8940  177.5920  147.0640 C   0  0  0  0  0  2  0  0  0  0  0  0
  188.1360  177.9500  149.0750 F   0  0  0  0  0  0  0  0  0  0  0  0
  188.2230  177.4380  147.7900 C   0  0  2  0  0  3  0  0  0  0  0  0
  189.3480  178.1150  147.0170 C   0  0  0  0  0  2  0  0  0  0  0  0
  191.6820  175.9490  144.9640 C   0  0  0  0  0  0  0  0  0  0  0  0
  192.1560  175.5880  147.3120 C   0  0  0  0  0  3  0  0  0  0  0  0
  191.9400  175.6860  143.6610 F   0  0  0  0  0  0  0  0  0  0  0  0
  190.6780  176.8600  145.3070 C   0  0  0  0  0  3  0  0  0  0  0  0
  191.1510  176.4980  147.6550 C   0  0  0  0  0  3  0  0  0  0  0  0
  190.4080  177.1330  146.6530 C   0  0  0  0  0  0  0  0  0  0  0  0
  192.4210  175.3140  145.9670 C   0  0  0  0  0  3  0  0  0  0  0  0
  1  7  2  0  0  0  0
  2  4  1  1  0  0  0
  2  1  1  0  0  0  0
  2 10  1  0  0  0  0
  3  4  2  0  0  0  0
  3  8  1  0  0  0  0
  5  9  1  0  0  0  0
  6  8  1  0  0  0  0
  7 20  1  0  0  0  0
  7  9  1  0  0  0  0
  8 11  2  0  0  0  0
 10  5  2  0  0  0  0
 11 10  1  0  0  0  0
 12  1  1  0  0  0  0
 14 13  1  1  0  0  0
 14 12  1  0  0  0  0
 15 14  1  0  0  0  0
 16 15  1  0  0  0  0
 17 19  1  1  0  0  0
 17 18  1  0  0  0  0
 17 16  1  0  0  0  0
 20 21  1  0  0  0  0
 21 23  1  0  0  0  0
 23 22  1  1  0  0  0
 24 23  1  0  0  0  0
 25 28  2  0  0  0  0
 25 31  1  0  0  0  0
 26 29  1  0  0  0  0
 27 25  1  0  0  0  0
 28 30  1  0  0  0  0
 30 24  1  0  0  0  0
 30 29  2  0  0  0  0
 31 26  2  0  0  0  0
M  END
>  <MODEL>
3

>  <REMARK>
 VINA RESULT:      -8.3      3.422      7.476
  Name = 
  10 active torsions:
  status: ('A' for Active; 'I' for Inactive)
    1  A    between atoms: C_2  and  C_13
    2  A    between atoms: C_3  and  C_9
    3  A    between atoms: C_3  and  C_22
    4  A    between atoms: C_4  and  N_12
    5  A    between atoms: C_9  and  C_23
    6  A    between atoms: N_12  and  C_27
    7  A    between atoms: C_13  and  C_28
    8  A    between atoms: C_15  and  C_21
    9  A    between atoms: C_15  and  C_23
   10  A    between atoms: C_27  and  C_28
                            x       y       z     vdW  Elec       q    Type
                         _______ _______ _______ _____ _____    ______ ____

>  <TORSDO>
F 10

$$$$
=
 OpenBabel10272400203D

 31 33  0  0  1  0  0  0  0  0999 V2000
  190.6650  177.1360  139.8590 C   0  0  0  0  0  0  0  0  0  0  0  0
  191.1060  176.6950  138.5150 C   0  0  0  0  0  0  0  0  0  0  0  0
  190.6090  175.9690  136.2510 C   0  0  0  0  0  3  0  0  0  0  0  0
  190.1740  176.3770  137.5160 C   0  0  0  0  0  3  0  0  0  0  0  0
  193.4120  176.9270  139.2500 N   0  0  0  0  0  0  0  0  0  0  0  0
  192.4060  175.4740  134.7200 O   0  0  0  0  0  1  0  0  0  0  0  0
  191.6000  177.4020  140.8060 C   0  0  0  0  0  0  0  0  0  0  0  0
  191.9770  175.8790  135.9770 C   0  0  0  0  0  0  0  0  0  0  0  0
  192.9680  177.3110  140.4990 O   0  0  0  0  0  0  0  0  0  0  0  0
  192.4750  176.6010  138.2290 C   0  0  0  0  0  0  0  0  0  0  0  0
  192.9120  176.1950  136.9660 C   0  0  0  0  0  2  0  0  0  0  0  0
  189.2480  177.2190  140.1060 N   0  0  0  0  0  2  0  0  0  0  0  0
  187.6710  178.5190  138.9920 O   0  0  0  0  0  1  0  0  0  0  0  0
  188.4480  178.4360  140.1470 C   0  0  1  0  0  3  0  0  0  0  0  0
  187.5410  178.4160  141.3620 C   0  0  0  0  0  2  0  0  0  0  0  0
  186.1320  178.8230  140.9680 C   0  0  0  0  0  2  0  0  0  0  0  0
  185.1880  178.6600  142.1460 C   0  0  2  0  0  3  0  0  0  0  0  0
  185.7070  177.7240  143.0200 F   0  0  0  0  0  0  0  0  0  0  0  0
  183.8880  178.2120  141.6800 N   0  0  0  0  0  1  0  0  0  0  0  0
  191.2450  177.7700  142.2080 C   0  0  0  0  0  2  0  0  0  0  0  0
  191.2040  176.5240  143.0820 C   0  0  0  0  0  2  0  0  0  0  0  0
  188.9870  175.6320  143.0130 F   0  0  0  0  0  0  0  0  0  0  0  0
  189.8630  176.3750  143.7880 C   0  0  2  0  0  3  0  0  0  0  0  0
  189.2670  177.7370  144.1180 C   0  0  0  0  0  2  0  0  0  0  0  0
  186.9070  178.0410  147.0650 C   0  0  0  0  0  0  0  0  0  0  0  0
  189.1240  177.5320  147.8980 C   0  0  0  0  0  3  0  0  0  0  0  0
  185.5970  178.2920  147.2950 F   0  0  0  0  0  0  0  0  0  0  0  0
  187.3960  178.0260  145.7550 C   0  0  0  0  0  3  0  0  0  0  0  0
  189.6130  177.5180  146.5880 C   0  0  0  0  0  3  0  0  0  0  0  0
  188.7500  177.7680  145.5150 C   0  0  0  0  0  0  0  0  0  0  0  0
  187.7710  177.7940  148.1370 C   0  0  0  0  0  3  0  0  0  0  0  0
  1 12  1  0  0  0  0
  1  7  2  0  0  0  0
  2  1  1  0  0  0  0
  3  4  1  0  0  0  0
  4  2  2  0  0  0  0
  5  9  1  0  0  0  0
  6  8  1  0  0  0  0
  7 20  1  0  0  0  0
  8  3  2  0  0  0  0
  8 11  1  0  0  0  0
  9  7  1  0  0  0  0
 10  2  1  0  0  0  0
 10  5  2  0  0  0  0
 11 10  1  0  0  0  0
 12 14  1  0  0  0  0
 14 13  1  6  0  0  0
 14 15  1  0  0  0  0
 16 15  1  0  0  0  0
 16 17  1  0  0  0  0
 17 19  1  6  0  0  0
 17 18  1  0  0  0  0
 20 21  1  0  0  0  0
 21 23  1  0  0  0  0
 23 22  1  6  0  0  0
 23 24  1  0  0  0  0
 24 30  1  0  0  0  0
 25 27  1  0  0  0  0
 25 31  1  0  0  0  0
 26 31  2  0  0  0  0
 28 25  2  0  0  0  0
 29 26  1  0  0  0  0
 30 28  1  0  0  0  0
 30 29  2  0  0  0  0
M  END
>  <MODEL>
4

>  <REMARK>
 VINA RESULT:      -8.3      1.141      1.440
  Name = 
  10 active torsions:
  status: ('A' for Active; 'I' for Inactive)
    1  A    between atoms: C_2  and  C_13
    2  A    between atoms: C_3  and  C_9
    3  A    between atoms: C_3  and  C_22
    4  A    between atoms: C_4  and  N_12
    5  A    between atoms: C_9  and  C_23
    6  A    between atoms: N_12  and  C_27
    7  A    between atoms: C_13  and  C_28
    8  A    between atoms: C_15  and  C_21
    9  A    between atoms: C_15  and  C_23
   10  A    between atoms: C_27  and  C_28
                            x       y       z     vdW  Elec       q    Type
                         _______ _______ _______ _____ _____    ______ ____

>  <TORSDO>
F 10

$$$$
=
 OpenBabel10272400203D

 31 33  0  0  1  0  0  0  0  0999 V2000
  188.1070  177.8240  140.4750 C   0  0  0  0  0  0  0  0  0  0  0  0
  188.2490  177.8150  139.0010 C   0  0  0  0  0  0  0  0  0  0  0  0
  187.2850  177.9530  136.7760 C   0  0  0  0  0  3  0  0  0  0  0  0
  187.1310  177.9560  138.1650 C   0  0  0  0  0  3  0  0  0  0  0  0
  190.6480  177.5290  139.2820 N   0  0  0  0  0  0  0  0  0  0  0  0
  188.7070  177.8070  134.8330 O   0  0  0  0  0  1  0  0  0  0  0  0
  189.2120  177.6490  141.2450 C   0  0  0  0  0  0  0  0  0  0  0  0
  188.5570  177.8100  136.2130 C   0  0  0  0  0  0  0  0  0  0  0  0
  190.4780  177.5160  140.6520 O   0  0  0  0  0  0  0  0  0  0  0  0
  189.5190  177.6720  138.4260 C   0  0  0  0  0  0  0  0  0  0  0  0
  189.6760  177.6690  137.0380 C   0  0  0  0  0  2  0  0  0  0  0  0
  186.7830  177.9740  141.0210 N   0  0  0  0  0  2  0  0  0  0  0  0
  185.1930  179.6340  140.6530 O   0  0  0  0  0  1  0  0  0  0  0  0
  186.1920  179.2060  141.5270 C   0  0  1  0  0  3  0  0  0  0  0  0
  185.5890  178.9640  142.8970 C   0  0  0  0  0  2  0  0  0  0  0  0
  184.1790  178.4210  142.7590 C   0  0  0  0  0  2  0  0  0  0  0  0
  183.2460  179.1250  143.7270 C   0  0  2  0  0  3  0  0  0  0  0  0
  183.2630  178.4640  144.9400 F   0  0  0  0  0  0  0  0  0  0  0  0
  181.8920  179.1240  143.2000 N   0  0  0  0  0  1  0  0  0  0  0  0
  189.1500  177.5600  142.7340 C   0  0  0  0  0  2  0  0  0  0  0  0
  190.1450  178.5290  143.3590 C   0  0  0  0  0  2  0  0  0  0  0  0
  191.9730  177.5520  144.5490 F   0  0  0  0  0  0  0  0  0  0  0  0
  190.6740  178.0120  144.6900 C   0  0  2  0  0  3  0  0  0  0  0  0
  189.7730  176.9170  145.2450 C   0  0  0  0  0  2  0  0  0  0  0  0
  186.7310  178.2550  147.0650 C   0  0  0  0  0  0  0  0  0  0  0  0
  188.5650  178.0910  148.6390 C   0  0  0  0  0  3  0  0  0  0  0  0
  185.4420  178.5670  146.7940 F   0  0  0  0  0  0  0  0  0  0  0  0
  187.5610  177.7700  146.0490 C   0  0  0  0  0  3  0  0  0  0  0  0
  189.3950  177.6070  147.6230 C   0  0  0  0  0  3  0  0  0  0  0  0
  188.8940  177.4480  146.3250 C   0  0  0  0  0  0  0  0  0  0  0  0
  187.2340  178.4160  148.3600 C   0  0  0  0  0  3  0  0  0  0  0  0
  1 12  1  0  0  0  0
  1  7  2  0  0  0  0
  2  1  1  0  0  0  0
  3  4  1  0  0  0  0
  4  2  2  0  0  0  0
  5  9  1  0  0  0  0
  6  8  1  0  0  0  0
  7 20  1  0  0  0  0
  8  3  2  0  0  0  0
  8 11  1  0  0  0  0
  9  7  1  0  0  0  0
 10  2  1  0  0  0  0
 10  5  2  0  0  0  0
 11 10  1  0  0  0  0
 12 14  1  0  0  0  0
 14 13  1  6  0  0  0
 14 15  1  0  0  0  0
 16 15  1  0  0  0  0
 16 17  1  0  0  0  0
 17 19  1  6  0  0  0
 17 18  1  0  0  0  0
 20 21  1  0  0  0  0
 21 23  1  0  0  0  0
 23 22  1  6  0  0  0
 23 24  1  0  0  0  0
 24 30  1  0  0  0  0
 25 31  1  0  0  0  0
 27 25  1  0  0  0  0
 28 30  1  0  0  0  0
 28 25  2  0  0  0  0
 29 26  1  0  0  0  0
 30 29  2  0  0  0  0
 31 26  2  0  0  0  0
M  END
>  <MODEL>
5

>  <REMARK>
 VINA RESULT:      -8.1      2.475      3.284
  Name = 
  10 active torsions:
  status: ('A' for Active; 'I' for Inactive)
    1  A    between atoms: C_2  and  C_13
    2  A    between atoms: C_3  and  C_9
    3  A    between atoms: C_3  and  C_22
    4  A    between atoms: C_4  and  N_12
    5  A    between atoms: C_9  and  C_23
    6  A    between atoms: N_12  and  C_27
    7  A    between atoms: C_13  and  C_28
    8  A    between atoms: C_15  and  C_21
    9  A    between atoms: C_15  and  C_23
   10  A    between atoms: C_27  and  C_28
                            x       y       z     vdW  Elec       q    Type
                         _______ _______ _______ _____ _____    ______ ____

>  <TORSDO>
F 10

$$$$
=
 OpenBabel10272400203D

 31 33  0  0  1  0  0  0  0  0999 V2000
  187.9670  178.2050  139.9810 C   0  0  0  0  0  0  0  0  0  0  0  0
  188.0840  178.0650  138.5110 C   0  0  0  0  0  0  0  0  0  0  0  0
  189.3960  177.5900  136.5220 C   0  0  0  0  0  3  0  0  0  0  0  0
  189.3060  177.7240  137.9110 C   0  0  0  0  0  3  0  0  0  0  0  0
  185.7230  178.6130  138.3200 N   0  0  0  0  0  0  0  0  0  0  0  0
  188.3570  177.6600  134.3460 O   0  0  0  0  0  1  0  0  0  0  0  0
  186.7740  178.5700  140.5160 C   0  0  0  0  0  0  0  0  0  0  0  0
  188.2660  177.7940  135.7240 C   0  0  0  0  0  0  0  0  0  0  0  0
  185.6530  178.7600  139.6910 O   0  0  0  0  0  0  0  0  0  0  0  0
  186.9580  178.2680  137.7010 C   0  0  0  0  0  0  0  0  0  0  0  0
  187.0450  178.1330  136.3140 C   0  0  0  0  0  2  0  0  0  0  0  0
  189.1510  177.9860  140.7720 N   0  0  0  0  0  2  0  0  0  0  0  0
  190.7160  176.2680  140.6380 O   0  0  0  0  0  1  0  0  0  0  0  0
  189.5930  176.7160  141.3330 C   0  0  1  0  0  3  0  0  0  0  0  0
  189.9460  176.8940  142.7960 C   0  0  0  0  0  2  0  0  0  0  0  0
  189.9350  178.3670  143.1610 C   0  0  0  0  0  2  0  0  0  0  0  0
  190.9070  178.6360  144.2950 C   0  0  2  0  0  3  0  0  0  0  0  0
  191.8310  179.5800  143.8910 F   0  0  0  0  0  0  0  0  0  0  0  0
  191.6000  177.4110  144.6550 N   0  0  0  0  0  1  0  0  0  0  0  0
  186.5880  178.8150  141.9760 C   0  0  0  0  0  2  0  0  0  0  0  0
  185.1240  179.1060  142.2760 C   0  0  0  0  0  2  0  0  0  0  0  0
  183.3430  178.0160  143.4400 F   0  0  0  0  0  0  0  0  0  0  0  0
  184.6640  178.4200  143.5550 C   0  0  2  0  0  3  0  0  0  0  0  0
  184.8430  179.3350  144.7590 C   0  0  0  0  0  2  0  0  0  0  0  0
  187.7860  177.3790  146.1240 C   0  0  0  0  0  0  0  0  0  0  0  0
  186.7970  178.6500  147.9320 C   0  0  0  0  0  3  0  0  0  0  0  0
  188.7290  176.5170  145.6750 F   0  0  0  0  0  0  0  0  0  0  0  0
  186.8300  177.8890  145.2420 C   0  0  0  0  0  3  0  0  0  0  0  0
  185.8390  179.1610  147.0500 C   0  0  0  0  0  3  0  0  0  0  0  0
  185.8530  178.7790  145.7030 C   0  0  0  0  0  0  0  0  0  0  0  0
  187.7690  177.7590  147.4700 C   0  0  0  0  0  3  0  0  0  0  0  0
  1  7  2  0  0  0  0
  1 12  1  0  0  0  0
  2  1  1  0  0  0  0
  3  4  1  0  0  0  0
  4  2  2  0  0  0  0
  5  9  1  0  0  0  0
  6  8  1  0  0  0  0
  7 20  1  0  0  0  0
  8 11  1  0  0  0  0
  8  3  2  0  0  0  0
  9  7  1  0  0  0  0
 10  5  2  0  0  0  0
 10  2  1  0  0  0  0
 11 10  1  0  0  0  0
 12 14  1  0  0  0  0
 14 13  1  6  0  0  0
 14 15  1  0  0  0  0
 15 16  1  0  0  0  0
 16 17  1  0  0  0  0
 17 18  1  6  0  0  0
 17 19  1  0  0  0  0
 20 21  1  0  0  0  0
 21 23  1  0  0  0  0
 23 22  1  6  0  0  0
 23 24  1  0  0  0  0
 24 30  1  0  0  0  0
 25 31  1  0  0  0  0
 27 25  1  0  0  0  0
 28 30  1  0  0  0  0
 28 25  2  0  0  0  0
 29 26  1  0  0  0  0
 30 29  2  0  0  0  0
 31 26  2  0  0  0  0
M  END
>  <MODEL>
6

>  <REMARK>
 VINA RESULT:      -8.0      2.489      5.009
  Name = 
  10 active torsions:
  status: ('A' for Active; 'I' for Inactive)
    1  A    between atoms: C_2  and  C_13
    2  A    between atoms: C_3  and  C_9
    3  A    between atoms: C_3  and  C_22
    4  A    between atoms: C_4  and  N_12
    5  A    between atoms: C_9  and  C_23
    6  A    between atoms: N_12  and  C_27
    7  A    between atoms: C_13  and  C_28
    8  A    between atoms: C_15  and  C_21
    9  A    between atoms: C_15  and  C_23
   10  A    between atoms: C_27  and  C_28
                            x       y       z     vdW  Elec       q    Type
                         _______ _______ _______ _____ _____    ______ ____

>  <TORSDO>
F 10

$$$$
=
 OpenBabel10272400203D

 31 33  0  0  1  0  0  0  0  0999 V2000
  188.2820  177.3320  144.1660 C   0  0  0  0  0  0  0  0  0  0  0  0
  189.3510  177.0750  145.1590 C   0  0  1  0  0  3  0  0  0  0  0  0
  191.6250  176.4190  145.7070 C   0  0  0  0  0  3  0  0  0  0  0  0
  190.6260  176.6490  144.7560 C   0  0  0  0  0  3  0  0  0  0  0  0
  187.7960  177.6980  146.9220 N   0  0  0  0  0  0  0  0  0  0  0  0
  192.3490  176.3830  148.0080 O   0  0  0  0  0  1  0  0  0  0  0  0
  187.0540  177.7090  144.6020 C   0  0  0  0  0  0  0  0  0  0  0  0
  191.3560  176.6130  147.0660 C   0  0  0  0  0  0  0  0  0  0  0  0
  186.8150  177.9050  145.9730 O   0  0  0  0  0  0  0  0  0  0  0  0
  189.0930  177.2660  146.5230 C   0  0  0  0  0  0  0  0  0  0  0  0
  190.0890  177.0370  147.4750 C   0  0  0  0  0  3  0  0  0  0  0  0
  188.5940  177.1230  142.7750 N   0  0  0  0  0  2  0  0  0  0  0  0
  190.4080  177.6390  141.4110 O   0  0  0  0  0  1  0  0  0  0  0  0
  189.1720  178.1000  141.8630 C   0  0  1  0  0  3  0  0  0  0  0  0
  188.2510  178.3080  140.6780 C   0  0  0  0  0  2  0  0  0  0  0  0
  188.7150  177.4680  139.5010 C   0  0  0  0  0  2  0  0  0  0  0  0
  188.5680  178.2470  138.2070 C   0  0  2  0  0  3  0  0  0  0  0  0
  189.2010  179.4680  138.3350 F   0  0  0  0  0  0  0  0  0  0  0  0
  187.1610  178.4640  137.9170 N   0  0  0  0  0  1  0  0  0  0  0  0
  185.8970  177.9070  143.6800 C   0  0  0  0  0  2  0  0  0  0  0  0
  185.1590  179.1910  144.0330 C   0  0  0  0  0  2  0  0  0  0  0  0
  182.8830  178.9390  144.7170 F   0  0  0  0  0  0  0  0  0  0  0  0
  183.6970  179.1330  143.6130 C   0  0  2  0  0  3  0  0  0  0  0  0
  183.4700  178.0390  142.5780 C   0  0  0  0  0  2  0  0  0  0  0  0
  181.5980  179.3660  139.5640 C   0  0  0  0  0  0  0  0  0  0  0  0
  183.9760  179.5780  139.1540 C   0  0  0  0  0  3  0  0  0  0  0  0
  180.3180  179.5360  139.1580 F   0  0  0  0  0  0  0  0  0  0  0  0
  181.8650  178.8030  140.8160 C   0  0  0  0  0  3  0  0  0  0  0  0
  184.2430  179.0150  140.4060 C   0  0  0  0  0  3  0  0  0  0  0  0
  183.1870  178.6240  141.2380 C   0  0  0  0  0  0  0  0  0  0  0  0
  182.6540  179.7530  138.7330 C   0  0  0  0  0  3  0  0  0  0  0  0
  1  7  2  0  0  0  0
  1  2  1  0  0  0  0
  2  4  1  6  0  0  0
  2 10  1  0  0  0  0
  3  8  1  0  0  0  0
  4  3  2  0  0  0  0
  7  9  1  0  0  0  0
  8 11  2  0  0  0  0
  8  6  1  0  0  0  0
  9  5  1  0  0  0  0
 10  5  2  0  0  0  0
 10 11  1  0  0  0  0
 12  1  1  0  0  0  0
 14 13  1  6  0  0  0
 14 12  1  0  0  0  0
 15 14  1  0  0  0  0
 16 15  1  0  0  0  0
 17 19  1  1  0  0  0
 17 18  1  0  0  0  0
 17 16  1  0  0  0  0
 20 21  1  0  0  0  0
 20  7  1  0  0  0  0
 23 21  1  0  0  0  0
 23 22  1  1  0  0  0
 24 23  1  0  0  0  0
 25 28  1  0  0  0  0
 26 29  2  0  0  0  0
 27 25  1  0  0  0  0
 28 30  2  0  0  0  0
 29 30  1  0  0  0  0
 30 24  1  0  0  0  0
 31 26  1  0  0  0  0
 31 25  2  0  0  0  0
M  END
>  <MODEL>
7

>  <REMARK>
 VINA RESULT:      -8.0      3.603      7.833
  Name = 
  10 active torsions:
  status: ('A' for Active; 'I' for Inactive)
    1  A    between atoms: C_2  and  C_13
    2  A    between atoms: C_3  and  C_9
    3  A    between atoms: C_3  and  C_22
    4  A    between atoms: C_4  and  N_12
    5  A    between atoms: C_9  and  C_23
    6  A    between atoms: N_12  and  C_27
    7  A    between atoms: C_13  and  C_28
    8  A    between atoms: C_15  and  C_21
    9  A    between atoms: C_15  and  C_23
   10  A    between atoms: C_27  and  C_28
                            x       y       z     vdW  Elec       q    Type
                         _______ _______ _______ _____ _____    ______ ____

>  <TORSDO>
F 10

$$$$
=
 OpenBabel10272400203D

 31 33  0  0  1  0  0  0  0  0999 V2000
  188.2730  177.4290  142.5190 C   0  0  0  0  0  0  0  0  0  0  0  0
  187.3000  177.7610  143.5860 C   0  0  1  0  0  3  0  0  0  0  0  0
  186.5680  177.6520  145.8990 C   0  0  0  0  0  3  0  0  0  0  0  0
  187.4930  177.3230  144.9040 C   0  0  0  0  0  3  0  0  0  0  0  0
  185.9840  178.9750  141.9400 N   0  0  0  0  0  0  0  0  0  0  0  0
  184.5290  178.7500  146.5740 O   0  0  0  0  0  1  0  0  0  0  0  0
  188.0280  177.8460  141.2510 C   0  0  0  0  0  0  0  0  0  0  0  0
  185.4460  178.4240  145.5840 C   0  0  0  0  0  0  0  0  0  0  0  0
  186.8970  178.6270  140.9640 O   0  0  0  0  0  0  0  0  0  0  0  0
  186.1710  178.5340  143.2810 C   0  0  0  0  0  0  0  0  0  0  0  0
  185.2460  178.8660  144.2730 C   0  0  0  0  0  3  0  0  0  0  0  0
  189.4180  176.6340  142.8800 N   0  0  0  0  0  2  0  0  0  0  0  0
  190.7010  178.5100  143.3830 O   0  0  0  0  0  1  0  0  0  0  0  0
  190.7530  177.1300  143.1860 C   0  0  1  0  0  3  0  0  0  0  0  0
  191.2750  176.4630  144.4430 C   0  0  0  0  0  2  0  0  0  0  0  0
  191.2320  177.4360  145.6080 C   0  0  0  0  0  2  0  0  0  0  0  0
  190.7970  176.7230  146.8750 C   0  0  2  0  0  3  0  0  0  0  0  0
  189.8240  177.4710  147.5080 F   0  0  0  0  0  0  0  0  0  0  0  0
  191.9320  176.5590  147.7650 N   0  0  0  0  0  1  0  0  0  0  0  0
  188.9090  177.4850  140.1010 C   0  0  0  0  0  2  0  0  0  0  0  0
  188.2610  177.9110  138.7900 C   0  0  0  0  0  2  0  0  0  0  0  0
  189.0180  179.6810  137.3730 F   0  0  0  0  0  0  0  0  0  0  0  0
  189.2960  178.3860  137.7790 C   0  0  2  0  0  3  0  0  0  0  0  0
  189.3570  177.4470  136.5810 C   0  0  0  0  0  2  0  0  0  0  0  0
  192.4370  175.5660  137.7320 C   0  0  0  0  0  0  0  0  0  0  0  0
  190.9540  174.0120  136.6140 C   0  0  0  0  0  3  0  0  0  0  0  0
  193.5950  175.8180  138.3880 F   0  0  0  0  0  0  0  0  0  0  0  0
  191.5280  176.6030  137.4970 C   0  0  0  0  0  3  0  0  0  0  0  0
  190.0450  175.0480  136.3790 C   0  0  0  0  0  3  0  0  0  0  0  0
  190.3320  176.3460  136.8180 C   0  0  0  0  0  0  0  0  0  0  0  0
  192.1500  174.2710  137.2900 C   0  0  0  0  0  3  0  0  0  0  0  0
  1 12  1  0  0  0  0
  1  2  1  0  0  0  0
  2  4  1  1  0  0  0
  4  3  2  0  0  0  0
  5 10  2  0  0  0  0
  7  1  2  0  0  0  0
  8  3  1  0  0  0  0
  8  6  1  0  0  0  0
  9  7  1  0  0  0  0
  9  5  1  0  0  0  0
 10  2  1  0  0  0  0
 10 11  1  0  0  0  0
 11  8  2  0  0  0  0
 12 14  1  0  0  0  0
 14 13  1  1  0  0  0
 14 15  1  0  0  0  0
 15 16  1  0  0  0  0
 16 17  1  0  0  0  0
 17 18  1  1  0  0  0
 17 19  1  0  0  0  0
 20  7  1  0  0  0  0
 21 20  1  0  0  0  0
 23 22  1  6  0  0  0
 23 21  1  0  0  0  0
 24 30  1  0  0  0  0
 24 23  1  0  0  0  0
 25 27  1  0  0  0  0
 26 31  1  0  0  0  0
 28 25  1  0  0  0  0
 29 26  2  0  0  0  0
 29 30  1  0  0  0  0
 30 28  2  0  0  0  0
 31 25  2  0  0  0  0
M  END
>  <MODEL>
8

>  <REMARK>
 VINA RESULT:      -7.9      3.202      8.444
  Name = 
  10 active torsions:
  status: ('A' for Active; 'I' for Inactive)
    1  A    between atoms: C_2  and  C_13
    2  A    between atoms: C_3  and  C_9
    3  A    between atoms: C_3  and  C_22
    4  A    between atoms: C_4  and  N_12
    5  A    between atoms: C_9  and  C_23
    6  A    between atoms: N_12  and  C_27
    7  A    between atoms: C_13  and  C_28
    8  A    between atoms: C_15  and  C_21
    9  A    between atoms: C_15  and  C_23
   10  A    between atoms: C_27  and  C_28
                            x       y       z     vdW  Elec       q    Type
                         _______ _______ _______ _____ _____    ______ ____

>  <TORSDO>
F 10

$$$$
=
 OpenBabel10272400203D

 31 33  0  0  1  0  0  0  0  0999 V2000
  189.5910  177.1700  139.1230 C   0  0  0  0  0  0  0  0  0  0  0  0
  190.7160  176.8150  138.2290 C   0  0  0  0  0  0  0  0  0  0  0  0
  191.5680  176.1190  136.0620 C   0  0  0  0  0  3  0  0  0  0  0  0
  190.4920  176.4450  136.8940 C   0  0  0  0  0  3  0  0  0  0  0  0
  192.2480  177.2320  140.0710 N   0  0  0  0  0  0  0  0  0  0  0  0
  193.9400  175.8400  135.7310 O   0  0  0  0  0  1  0  0  0  0  0  0
  189.8510  177.4890  140.4170 C   0  0  0  0  0  0  0  0  0  0  0  0
  192.8740  176.1630  136.5580 C   0  0  0  0  0  0  0  0  0  0  0  0
  191.1750  177.5340  140.8850 O   0  0  0  0  0  0  0  0  0  0  0  0
  192.0300  176.8550  138.7150 C   0  0  0  0  0  0  0  0  0  0  0  0
  193.1070  176.5320  137.8860 C   0  0  0  0  0  2  0  0  0  0  0  0
  188.2580  177.1150  138.5790 N   0  0  0  0  0  2  0  0  0  0  0  0
  188.1950  179.1630  137.4740 O   0  0  0  0  0  1  0  0  0  0  0  0
  187.4300  178.2530  138.2040 C   0  0  1  0  0  3  0  0  0  0  0  0
  186.2630  177.7860  137.3570 C   0  0  0  0  0  2  0  0  0  0  0  0
  184.9680  177.9050  138.1410 C   0  0  0  0  0  2  0  0  0  0  0  0
  185.1690  178.7880  139.3590 C   0  0  2  0  0  3  0  0  0  0  0  0
  184.7540  178.1080  140.4880 F   0  0  0  0  0  0  0  0  0  0  0  0
  184.3920  180.0070  139.2200 N   0  0  0  0  0  1  0  0  0  0  0  0
  188.7730  177.7770  141.4080 C   0  0  0  0  0  2  0  0  0  0  0  0
  189.3830  178.1830  142.7430 C   0  0  0  0  0  2  0  0  0  0  0  0
  190.1160  176.1150  143.6920 F   0  0  0  0  0  0  0  0  0  0  0  0
  189.1660  177.1170  143.8080 C   0  0  2  0  0  3  0  0  0  0  0  0
  187.7600  176.5390  143.7210 C   0  0  0  0  0  2  0  0  0  0  0  0
  185.9820  178.6150  146.3440 C   0  0  0  0  0  0  0  0  0  0  0  0
  184.8050  178.8530  144.2400 C   0  0  0  0  0  3  0  0  0  0  0  0
  186.1090  178.9170  147.6580 F   0  0  0  0  0  0  0  0  0  0  0  0
  186.9010  177.7560  145.7330 C   0  0  0  0  0  3  0  0  0  0  0  0
  185.7240  177.9940  143.6280 C   0  0  0  0  0  3  0  0  0  0  0  0
  186.7710  177.4420  144.3750 C   0  0  0  0  0  0  0  0  0  0  0  0
  184.9340  179.1630  145.5970 C   0  0  0  0  0  3  0  0  0  0  0  0
  1  7  2  0  0  0  0
  2 10  1  0  0  0  0
  2  1  1  0  0  0  0
  3  8  2  0  0  0  0
  3  4  1  0  0  0  0
  4  2  2  0  0  0  0
  5  9  1  0  0  0  0
  6  8  1  0  0  0  0
  7  9  1  0  0  0  0
  7 20  1  0  0  0  0
  8 11  1  0  0  0  0
 10  5  2  0  0  0  0
 11 10  1  0  0  0  0
 12  1  1  0  0  0  0
 14 13  1  6  0  0  0
 14 12  1  0  0  0  0
 15 16  1  0  0  0  0
 15 14  1  0  0  0  0
 16 17  1  0  0  0  0
 17 19  1  6  0  0  0
 17 18  1  0  0  0  0
 20 21  1  0  0  0  0
 21 23  1  0  0  0  0
 23 22  1  6  0  0  0
 24 23  1  0  0  0  0
 24 30  1  0  0  0  0
 25 27  1  0  0  0  0
 26 31  1  0  0  0  0
 28 25  1  0  0  0  0
 29 26  2  0  0  0  0
 29 30  1  0  0  0  0
 30 28  2  0  0  0  0
 31 25  2  0  0  0  0
M  END
>  <MODEL>
9

>  <REMARK>
 VINA RESULT:      -7.8      1.734      2.133
  Name = 
  10 active torsions:
  status: ('A' for Active; 'I' for Inactive)
    1  A    between atoms: C_2  and  C_13
    2  A    between atoms: C_3  and  C_9
    3  A    between atoms: C_3  and  C_22
    4  A    between atoms: C_4  and  N_12
    5  A    between atoms: C_9  and  C_23
    6  A    between atoms: N_12  and  C_27
    7  A    between atoms: C_13  and  C_28
    8  A    between atoms: C_15  and  C_21
    9  A    between atoms: C_15  and  C_23
   10  A    between atoms: C_27  and  C_28
                            x       y       z     vdW  Elec       q    Type
                         _______ _______ _______ _____ _____    ______ ____

>  <TORSDO>
F 10

$$$$
