=
 OpenBabel10272402073D

 32 37  0  0  1  0  0  0  0  0999 V2000
  182.7040  176.9220  137.0120 C   0  0  0  0  0  0  0  0  0  0  0  0
  184.2030  176.7090  137.3870 C   0  0  2  0  0  3  0  0  0  0  0  0
  183.3230  177.3740  140.1450 C   0  0  0  0  0  2  0  0  0  0  0  0
  188.5690  177.0770  138.3970 C   0  0  0  0  0  2  0  0  0  0  0  0
  184.8320  177.9110  138.1180 C   0  0  1  0  0  3  0  0  0  0  0  0
  187.7630  178.4320  140.3660 C   0  0  0  0  0  2  0  0  0  0  0  0
  186.4040  178.3220  139.7550 C   0  0  2  0  0  3  0  0  0  0  0  0
  184.1340  178.4370  139.4030 C   0  0  2  0  0  3  0  0  0  0  0  0
  182.2590  178.3300  136.6500 C   0  0  0  0  0  2  0  0  0  0  0  0
  185.2950  178.8080  140.2780 C   0  0  0  0  0  2  0  0  0  0  0  0
  181.7000  176.1510  137.6380 O   0  0  0  0  0  0  0  0  0  0  0  0
  182.3620  177.2650  135.5750 C   0  0  0  0  0  2  0  0  0  0  0  0
  186.8200  175.6380  136.8660 S   0  0  0  0  0  0  0  0  0  0  0  0
  182.0300  177.2900  139.6240 O   0  0  0  0  0  0  0  0  0  0  0  0
  185.0910  176.0160  136.2930 C   0  0  1  0  0  0  0  0  0  0  0  0
  186.1810  177.6250  138.5460 N   0  0  2  0  0  0  0  0  0  0  0  0
  181.9850  176.0330  139.0120 C   0  0  0  0  0  2  0  0  0  0  0  0
  188.8300  178.3010  139.2780 C   0  0  0  0  0  2  0  0  0  0  0  0
  187.2460  177.2290  137.6400 C   0  0  1  0  0  3  0  0  0  0  0  0
  183.7300  172.4390  136.7320 C   0  0  0  0  0  3  0  0  0  0  0  0
  183.4300  173.1060  134.4300 C   0  0  0  0  0  3  0  0  0  0  0  0
  184.4620  174.6530  136.0100 C   0  0  0  0  0  0  0  0  0  0  0  0
  183.2840  172.1510  135.4350 C   0  0  0  0  0  0  0  0  0  0  0  0
  184.0130  174.3410  134.7140 C   0  0  0  0  0  3  0  0  0  0  0  0
  184.3170  173.6730  137.0240 C   0  0  0  0  0  0  0  0  0  0  0  0
  184.7510  173.9140  138.3220 O   0  0  0  0  0  1  0  0  0  0  0  0
  181.1800  170.8350  135.4860 C   0  0  0  0  0  1  0  0  0  0  0  0
  183.3370  169.7550  135.7890 N   0  0  0  0  0  1  0  0  0  0  0  0
  182.6500  170.8370  135.1080 C   0  0  2  0  0  3  0  0  0  0  0  0
  185.1200  176.7470  135.0690 O   0  0  0  0  0  0  0  0  0  0  0  0
  186.4210  176.8470  134.5570 C   0  0  0  0  0  2  0  0  0  0  0  0
  186.7700  178.3060  134.3460 C   0  0  0  0  0  1  0  0  0  0  0  0
  1 11  1  0  0  0  0
  2  1  1  6  0  0  0
  2  5  1  0  0  0  0
  4 18  1  0  0  0  0
  5 16  1  0  0  0  0
  5  8  1  0  0  0  0
  7 10  1  0  0  0  0
  7  6  1  0  0  0  0
  8  3  1  0  0  0  0
  8 10  1  0  0  0  0
  9  1  1  0  0  0  0
 11 17  1  0  0  0  0
 12  9  1  0  0  0  0
 12  1  1  0  0  0  0
 13 19  1  0  0  0  0
 14  3  1  0  0  0  0
 15 13  1  0  0  0  0
 15  2  1  0  0  0  0
 16  7  1  0  0  0  0
 17 14  1  0  0  0  0
 18  6  1  0  0  0  0
 19  4  1  0  0  0  0
 19 16  1  0  0  0  0
 20 25  1  0  0  0  0
 21 24  2  0  0  0  0
 21 23  1  0  0  0  0
 22 15  1  0  0  0  0
 22 25  2  0  0  0  0
 23 20  2  0  0  0  0
 24 22  1  0  0  0  0
 25 26  1  0  0  0  0
 29 23  1  0  0  0  0
 29 27  1  0  0  0  0
 29 28  1  0  0  0  0
 30 15  1  0  0  0  0
 31 30  1  0  0  0  0
 32 31  1  0  0  0  0
M  END
>  <MODEL>
1

>  <REMARK>
 VINA RESULT:      -4.9      0.000      0.000
  Name = 
  4 active torsions:
  status: ('A' for Active; 'I' for Inactive)
    1  A    between atoms: O_1  and  C_4
    2  A    between atoms: O_1  and  C_27
    3  A    between atoms: C_16  and  C_27
    4  A    between atoms: C_19  and  C_26
                            x       y       z     vdW  Elec       q    Type
                         _______ _______ _______ _____ _____    ______ ____

>  <TORSDO>
F 4

$$$$
=
 OpenBabel10272402073D

 32 37  0  0  1  0  0  0  0  0999 V2000
  183.8890  176.1830  135.8560 C   0  0  0  0  0  0  0  0  0  0  0  0
  185.2000  176.1150  136.6980 C   0  0  2  0  0  3  0  0  0  0  0  0
  183.5200  177.1950  138.8960 C   0  0  0  0  0  2  0  0  0  0  0  0
  189.0480  176.8770  138.8960 C   0  0  0  0  0  2  0  0  0  0  0  0
  185.5790  177.4560  137.3570 C   0  0  1  0  0  3  0  0  0  0  0  0
  187.6810  178.5050  140.2540 C   0  0  0  0  0  2  0  0  0  0  0  0
  186.5750  178.2220  139.2910 C   0  0  2  0  0  3  0  0  0  0  0  0
  184.5220  178.1560  138.2560 C   0  0  2  0  0  3  0  0  0  0  0  0
  183.5810  177.4830  135.1310 C   0  0  0  0  0  2  0  0  0  0  0  0
  185.3610  178.7310  139.3590 C   0  0  0  0  0  2  0  0  0  0  0  0
  182.7400  175.4790  136.2770 O   0  0  0  0  0  0  0  0  0  0  0  0
  184.0050  176.2570  134.3460 C   0  0  0  0  0  2  0  0  0  0  0  0
  187.8480  175.1090  137.1910 S   0  0  0  0  0  0  0  0  0  0  0  0
  182.4480  176.9560  138.0320 O   0  0  0  0  0  0  0  0  0  0  0  0
  186.3790  175.2930  136.0650 C   0  0  1  0  0  0  0  0  0  0  0  0
  186.7310  177.3180  138.2160 N   0  0  2  0  0  0  0  0  0  0  0  0
  182.5890  175.6130  137.6700 C   0  0  0  0  0  2  0  0  0  0  0  0
  189.0310  178.2460  139.5810 C   0  0  0  0  0  2  0  0  0  0  0  0
  188.0210  176.8290  137.7600 C   0  0  1  0  0  3  0  0  0  0  0  0
  184.8310  171.8200  136.6830 C   0  0  0  0  0  3  0  0  0  0  0  0
  185.4760  171.9800  134.3600 C   0  0  0  0  0  3  0  0  0  0  0  0
  185.8630  173.8700  135.8540 C   0  0  0  0  0  0  0  0  0  0  0  0
  184.9160  171.2470  135.4070 C   0  0  0  0  0  0  0  0  0  0  0  0
  185.9450  173.2750  134.5820 C   0  0  0  0  0  3  0  0  0  0  0  0
  185.3000  173.1150  136.9130 C   0  0  0  0  0  0  0  0  0  0  0  0
  185.2010  173.6420  138.1960 O   0  0  0  0  0  1  0  0  0  0  0  0
  183.5970  169.3510  136.3150 C   0  0  0  0  0  1  0  0  0  0  0  0
  185.5220  168.9620  134.8800 N   0  0  0  0  0  1  0  0  0  0  0  0
  184.4150  169.8630  135.1430 C   0  0  2  0  0  3  0  0  0  0  0  0
  186.7840  175.8040  134.7970 O   0  0  0  0  0  0  0  0  0  0  0  0
  188.1800  175.8630  134.6850 C   0  0  0  0  0  2  0  0  0  0  0  0
  188.6040  177.2900  134.4040 C   0  0  0  0  0  1  0  0  0  0  0  0
  1 11  1  0  0  0  0
  2  1  1  6  0  0  0
  2  5  1  0  0  0  0
  4 18  1  0  0  0  0
  5 16  1  0  0  0  0
  5  8  1  0  0  0  0
  7 10  1  0  0  0  0
  7  6  1  0  0  0  0
  8  3  1  0  0  0  0
  8 10  1  0  0  0  0
  9  1  1  0  0  0  0
 11 17  1  0  0  0  0
 12  9  1  0  0  0  0
 12  1  1  0  0  0  0
 13 19  1  0  0  0  0
 14  3  1  0  0  0  0
 15  2  1  0  0  0  0
 15 13  1  0  0  0  0
 16  7  1  0  0  0  0
 17 14  1  0  0  0  0
 18  6  1  0  0  0  0
 19 16  1  0  0  0  0
 19  4  1  0  0  0  0
 20 25  1  0  0  0  0
 21 24  2  0  0  0  0
 21 23  1  0  0  0  0
 22 15  1  0  0  0  0
 22 25  2  0  0  0  0
 23 20  2  0  0  0  0
 24 22  1  0  0  0  0
 25 26  1  0  0  0  0
 28 29  1  0  0  0  0
 29 23  1  0  0  0  0
 29 27  1  0  0  0  0
 30 15  1  0  0  0  0
 31 30  1  0  0  0  0
 32 31  1  0  0  0  0
M  END
>  <MODEL>
2

>  <REMARK>
 VINA RESULT:      -4.7      1.529      1.637
  Name = 
  4 active torsions:
  status: ('A' for Active; 'I' for Inactive)
    1  A    between atoms: O_1  and  C_4
    2  A    between atoms: O_1  and  C_27
    3  A    between atoms: C_16  and  C_27
    4  A    between atoms: C_19  and  C_26
                            x       y       z     vdW  Elec       q    Type
                         _______ _______ _______ _____ _____    ______ ____

>  <TORSDO>
F 4

$$$$
=
 OpenBabel10272402073D

 32 37  0  0  1  0  0  0  0  0999 V2000
  197.4070  174.4210  135.7070 C   0  0  0  0  0  0  0  0  0  0  0  0
  196.9990  173.0780  136.3880 C   0  0  2  0  0  3  0  0  0  0  0  0
  199.5460  173.3810  137.8860 C   0  0  0  0  0  2  0  0  0  0  0  0
  196.4290  168.8080  137.6790 C   0  0  0  0  0  2  0  0  0  0  0  0
  198.0780  171.9820  136.2840 C   0  0  1  0  0  3  0  0  0  0  0  0
  198.9050  168.8650  138.1590 C   0  0  0  0  0  2  0  0  0  0  0  0
  198.8920  170.2200  137.5310 C   0  0  2  0  0  3  0  0  0  0  0  0
  199.5090  172.3100  136.7950 C   0  0  2  0  0  3  0  0  0  0  0  0
  198.2770  174.3470  134.4630 C   0  0  0  0  0  2  0  0  0  0  0  0
  199.9380  171.0160  137.4210 C   0  0  0  0  0  2  0  0  0  0  0  0
  197.6310  175.5730  136.4930 O   0  0  0  0  0  0  0  0  0  0  0  0
  196.8190  174.7480  134.3490 C   0  0  0  0  0  2  0  0  0  0  0  0
  195.0460  171.1030  137.1340 S   0  0  0  0  0  0  0  0  0  0  0  0
  199.5870  174.6580  137.3210 O   0  0  0  0  0  0  0  0  0  0  0  0
  195.5150  172.6170  136.1600 C   0  0  1  0  0  0  0  0  0  0  0  0
  197.7070  170.8000  137.0240 N   0  0  2  0  0  0  0  0  0  0  0  0
  198.3500  175.2210  137.6510 C   0  0  0  0  0  2  0  0  0  0  0  0
  197.7450  168.0310  137.6100 C   0  0  0  0  0  2  0  0  0  0  0  0
  196.4870  170.0480  136.7810 C   0  0  1  0  0  3  0  0  0  0  0  0
  193.9060  175.2250  138.4940 C   0  0  0  0  0  3  0  0  0  0  0  0
  192.8100  175.3270  136.3440 C   0  0  0  0  0  3  0  0  0  0  0  0
  194.6180  173.7280  136.7030 C   0  0  0  0  0  0  0  0  0  0  0  0
  192.9400  175.7920  137.6530 C   0  0  0  0  0  0  0  0  0  0  0  0
  193.6380  174.3070  135.8750 C   0  0  0  0  0  3  0  0  0  0  0  0
  194.7390  174.2020  138.0330 C   0  0  0  0  0  0  0  0  0  0  0  0
  195.6790  173.6640  138.9040 O   0  0  0  0  0  1  0  0  0  0  0  0
  191.7330  176.7340  139.6060 C   0  0  0  0  0  1  0  0  0  0  0  0
  190.8130  176.9140  137.3620 N   0  0  0  0  0  1  0  0  0  0  0  0
  192.0460  176.8910  138.1290 C   0  0  2  0  0  3  0  0  0  0  0  0
  195.2040  172.4380  134.7800 O   0  0  0  0  0  0  0  0  0  0  0  0
  194.7060  171.1530  134.5250 C   0  0  0  0  0  2  0  0  0  0  0  0
  193.2030  171.2210  134.3460 C   0  0  0  0  0  1  0  0  0  0  0  0
  1 11  1  0  0  0  0
  2  1  1  6  0  0  0
  5  2  1  0  0  0  0
  5  8  1  0  0  0  0
  5 16  1  0  0  0  0
  7  6  1  0  0  0  0
  8 10  1  0  0  0  0
  8  3  1  0  0  0  0
  9  1  1  0  0  0  0
 10  7  1  0  0  0  0
 11 17  1  0  0  0  0
 12  9  1  0  0  0  0
 12  1  1  0  0  0  0
 14 17  1  0  0  0  0
 14  3  1  0  0  0  0
 15  2  1  0  0  0  0
 15 22  1  0  0  0  0
 15 13  1  0  0  0  0
 16  7  1  0  0  0  0
 18  4  1  0  0  0  0
 18  6  1  0  0  0  0
 19 16  1  0  0  0  0
 19 13  1  0  0  0  0
 19  4  1  0  0  0  0
 21 23  1  0  0  0  0
 22 25  2  0  0  0  0
 23 29  1  0  0  0  0
 23 20  2  0  0  0  0
 24 21  2  0  0  0  0
 24 22  1  0  0  0  0
 25 20  1  0  0  0  0
 25 26  1  0  0  0  0
 28 29  1  0  0  0  0
 29 27  1  0  0  0  0
 30 15  1  0  0  0  0
 31 30  1  0  0  0  0
 32 31  1  0  0  0  0
M  END
>  <MODEL>
3

>  <REMARK>
 VINA RESULT:      -4.4      9.972     13.191
  Name = 
  4 active torsions:
  status: ('A' for Active; 'I' for Inactive)
    1  A    between atoms: O_1  and  C_4
    2  A    between atoms: O_1  and  C_27
    3  A    between atoms: C_16  and  C_27
    4  A    between atoms: C_19  and  C_26
                            x       y       z     vdW  Elec       q    Type
                         _______ _______ _______ _____ _____    ______ ____

>  <TORSDO>
F 4

$$$$
=
 OpenBabel10272402073D

 32 37  0  0  1  0  0  0  0  0999 V2000
  189.3970  176.9680  138.0630 C   0  0  0  0  0  0  0  0  0  0  0  0
  188.6000  176.2570  136.9260 C   0  0  2  0  0  3  0  0  0  0  0  0
  187.1370  178.8330  136.7160 C   0  0  0  0  0  2  0  0  0  0  0  0
  185.6380  174.0510  134.3600 C   0  0  0  0  0  2  0  0  0  0  0  0
  187.0730  176.2840  137.1340 C   0  0  1  0  0  3  0  0  0  0  0  0
  184.0750  175.9440  134.9410 C   0  0  0  0  0  2  0  0  0  0  0  0
  185.1480  176.4100  135.8690 C   0  0  2  0  0  3  0  0  0  0  0  0
  186.3870  177.6610  137.3500 C   0  0  2  0  0  3  0  0  0  0  0  0
  188.8360  176.8910  139.4740 C   0  0  0  0  0  2  0  0  0  0  0  0
  185.0930  177.5020  136.6060 C   0  0  0  0  0  2  0  0  0  0  0  0
  190.1030  178.1600  137.7940 O   0  0  0  0  0  0  0  0  0  0  0  0
  190.0820  176.1090  139.1080 C   0  0  0  0  0  2  0  0  0  0  0  0
  188.3070  174.2000  134.9380 S   0  0  0  0  0  0  0  0  0  0  0  0
  188.1130  179.3210  137.5880 O   0  0  0  0  0  0  0  0  0  0  0  0
  189.2080  174.9060  136.4040 C   0  0  1  0  0  0  0  0  0  0  0  0
  186.3740  175.7190  136.0050 N   0  0  2  0  0  0  0  0  0  0  0  0
  189.3240  178.9930  136.9690 C   0  0  0  0  0  2  0  0  0  0  0  0
  184.2020  174.4350  134.7220 C   0  0  0  0  0  2  0  0  0  0  0  0
  186.5890  174.3660  135.5190 C   0  0  1  0  0  3  0  0  0  0  0  0
  192.1370  176.4760  134.4580 C   0  0  0  0  0  3  0  0  0  0  0  0
  193.0130  174.7910  135.9500 C   0  0  0  0  0  3  0  0  0  0  0  0
  190.6110  175.2210  135.8900 C   0  0  0  0  0  0  0  0  0  0  0  0
  193.2280  175.7700  134.9810 C   0  0  0  0  0  0  0  0  0  0  0  0
  191.7200  174.5190  136.3990 C   0  0  0  0  0  3  0  0  0  0  0  0
  190.8390  176.2090  134.9000 C   0  0  0  0  0  0  0  0  0  0  0  0
  189.7860  176.9290  134.3490 O   0  0  0  0  0  1  0  0  0  0  0  0
  195.4140  174.7600  134.3780 C   0  0  0  0  0  1  0  0  0  0  0  0
  195.2970  176.9410  135.4490 N   0  0  0  0  0  1  0  0  0  0  0  0
  194.6240  176.0480  134.5220 C   0  0  2  0  0  3  0  0  0  0  0  0
  189.3280  173.9270  137.4340 O   0  0  0  0  0  0  0  0  0  0  0  0
  189.0410  172.6400  136.9600 C   0  0  0  0  0  2  0  0  0  0  0  0
  187.8530  172.0770  137.7140 C   0  0  0  0  0  1  0  0  0  0  0  0
  1 12  1  0  0  0  0
  1  9  1  0  0  0  0
  2  5  1  0  0  0  0
  2  1  1  1  0  0  0
  3  8  1  0  0  0  0
  3 14  1  0  0  0  0
  4 18  1  0  0  0  0
  4 19  1  0  0  0  0
  5  8  1  0  0  0  0
  6  7  1  0  0  0  0
  7 16  1  0  0  0  0
  7 10  1  0  0  0  0
 10  8  1  0  0  0  0
 11  1  1  0  0  0  0
 12  9  1  0  0  0  0
 13 19  1  0  0  0  0
 13 15  1  0  0  0  0
 15  2  1  0  0  0  0
 15 30  1  0  0  0  0
 16  5  1  0  0  0  0
 17 14  1  0  0  0  0
 17 11  1  0  0  0  0
 18  6  1  0  0  0  0
 19 16  1  0  0  0  0
 20 25  2  0  0  0  0
 20 23  1  0  0  0  0
 21 24  1  0  0  0  0
 22 24  2  0  0  0  0
 22 15  1  0  0  0  0
 23 21  2  0  0  0  0
 25 22  1  0  0  0  0
 26 25  1  0  0  0  0
 27 29  1  0  0  0  0
 29 23  1  0  0  0  0
 29 28  1  0  0  0  0
 31 30  1  0  0  0  0
 31 32  1  0  0  0  0
M  END
>  <MODEL>
4

>  <REMARK>
 VINA RESULT:      -4.3      4.181      7.613
  Name = 
  4 active torsions:
  status: ('A' for Active; 'I' for Inactive)
    1  A    between atoms: O_1  and  C_4
    2  A    between atoms: O_1  and  C_27
    3  A    between atoms: C_16  and  C_27
    4  A    between atoms: C_19  and  C_26
                            x       y       z     vdW  Elec       q    Type
                         _______ _______ _______ _____ _____    ______ ____

>  <TORSDO>
F 4

$$$$
=
 OpenBabel10272402073D

 32 37  0  0  1  0  0  0  0  0999 V2000
  187.4380  174.4420  135.6730 C   0  0  0  0  0  0  0  0  0  0  0  0
  186.7230  175.4240  136.6510 C   0  0  2  0  0  3  0  0  0  0  0  0
  185.4240  172.9770  137.7210 C   0  0  0  0  0  2  0  0  0  0  0  0
  183.9200  178.1910  138.8220 C   0  0  0  0  0  2  0  0  0  0  0  0
  185.1860  175.3060  136.6290 C   0  0  1  0  0  3  0  0  0  0  0  0
  182.4080  176.1770  138.9600 C   0  0  0  0  0  2  0  0  0  0  0  0
  183.4060  175.4940  138.0830 C   0  0  2  0  0  3  0  0  0  0  0  0
  184.5540  173.9080  136.8770 C   0  0  2  0  0  3  0  0  0  0  0  0
  186.7360  174.1100  134.3660 C   0  0  0  0  0  2  0  0  0  0  0  0
  183.3350  174.2390  137.6860 C   0  0  0  0  0  2  0  0  0  0  0  0
  188.2290  173.3880  136.1800 O   0  0  0  0  0  0  0  0  0  0  0  0
  187.9710  174.9910  134.3630 C   0  0  0  0  0  2  0  0  0  0  0  0
  186.5220  177.9470  138.0170 S   0  0  0  0  0  0  0  0  0  0  0  0
  186.3330  172.2870  136.9140 O   0  0  0  0  0  0  0  0  0  0  0  0
  187.3080  176.8800  136.7120 C   0  0  1  0  0  0  0  0  0  0  0  0
  184.5740  176.1470  137.6290 N   0  0  2  0  0  0  0  0  0  0  0  0
  187.5800  172.8010  137.2820 C   0  0  0  0  0  2  0  0  0  0  0  0
  182.4770  177.6900  138.7400 C   0  0  0  0  0  2  0  0  0  0  0  0
  184.7660  177.5870  137.6970 C   0  0  1  0  0  3  0  0  0  0  0  0
  191.1590  176.9290  136.6680 C   0  0  0  0  0  3  0  0  0  0  0  0
  190.4170  176.2070  138.8510 C   0  0  0  0  0  3  0  0  0  0  0  0
  188.7700  176.7530  137.1350 C   0  0  0  0  0  0  0  0  0  0  0  0
  191.4570  176.5080  137.9710 C   0  0  0  0  0  0  0  0  0  0  0  0
  189.0900  176.3270  138.4370 C   0  0  0  0  0  3  0  0  0  0  0  0
  189.8340  177.0500  136.2450 C   0  0  0  0  0  0  0  0  0  0  0  0
  189.5840  177.4640  134.9420 O   0  0  0  0  0  1  0  0  0  0  0  0
  193.1180  177.2460  139.6620 C   0  0  0  0  0  1  0  0  0  0  0  0
  193.7950  176.7420  137.3810 N   0  0  0  0  0  1  0  0  0  0  0  0
  192.8710  176.3790  138.4400 C   0  0  2  0  0  3  0  0  0  0  0  0
  187.2740  177.5350  135.4460 O   0  0  0  0  0  0  0  0  0  0  0  0
  186.1550  178.3710  135.3260 C   0  0  0  0  0  2  0  0  0  0  0  0
  185.1730  177.7610  134.3460 C   0  0  0  0  0  1  0  0  0  0  0  0
  1 11  1  0  0  0  0
  2  1  1  6  0  0  0
  2 15  1  0  0  0  0
  5  2  1  0  0  0  0
  5  8  1  0  0  0  0
  5 16  1  0  0  0  0
  7  6  1  0  0  0  0
  8 10  1  0  0  0  0
  8  3  1  0  0  0  0
  9  1  1  0  0  0  0
 10  7  1  0  0  0  0
 11 17  1  0  0  0  0
 12  9  1  0  0  0  0
 12  1  1  0  0  0  0
 14 17  1  0  0  0  0
 14  3  1  0  0  0  0
 15 22  1  0  0  0  0
 15 13  1  0  0  0  0
 16 19  1  0  0  0  0
 16  7  1  0  0  0  0
 18  4  1  0  0  0  0
 18  6  1  0  0  0  0
 19 13  1  0  0  0  0
 19  4  1  0  0  0  0
 20 23  1  0  0  0  0
 22 24  2  0  0  0  0
 23 29  1  0  0  0  0
 23 21  2  0  0  0  0
 24 21  1  0  0  0  0
 25 20  2  0  0  0  0
 25 22  1  0  0  0  0
 26 25  1  0  0  0  0
 28 29  1  0  0  0  0
 29 27  1  0  0  0  0
 30 15  1  0  0  0  0
 31 30  1  0  0  0  0
 32 31  1  0  0  0  0
M  END
>  <MODEL>
5

>  <REMARK>
 VINA RESULT:      -4.3      2.901      6.689
  Name = 
  4 active torsions:
  status: ('A' for Active; 'I' for Inactive)
    1  A    between atoms: O_1  and  C_4
    2  A    between atoms: O_1  and  C_27
    3  A    between atoms: C_16  and  C_27
    4  A    between atoms: C_19  and  C_26
                            x       y       z     vdW  Elec       q    Type
                         _______ _______ _______ _____ _____    ______ ____

>  <TORSDO>
F 4

$$$$
=
 OpenBabel10272402073D

 32 37  0  0  1  0  0  0  0  0999 V2000
  185.2790  175.8780  135.8410 C   0  0  0  0  0  0  0  0  0  0  0  0
  183.8800  175.1950  135.9490 C   0  0  2  0  0  3  0  0  0  0  0  0
  185.4350  172.6770  136.2030 C   0  0  0  0  0  2  0  0  0  0  0  0
  179.9840  173.0460  135.3000 C   0  0  0  0  0  2  0  0  0  0  0  0
  183.6670  174.0620  134.9260 C   0  0  1  0  0  3  0  0  0  0  0  0
  181.4370  171.0830  134.6690 C   0  0  0  0  0  2  0  0  0  0  0  0
  182.5880  172.0290  134.7830 C   0  0  2  0  0  3  0  0  0  0  0  0
  184.7100  172.9110  134.8780 C   0  0  2  0  0  3  0  0  0  0  0  0
  185.9040  175.9940  134.4600 C   0  0  0  0  0  2  0  0  0  0  0  0
  183.8550  171.7060  134.6150 C   0  0  0  0  0  2  0  0  0  0  0  0
  186.2200  175.7320  136.8830 O   0  0  0  0  0  0  0  0  0  0  0  0
  185.3700  177.2290  135.1600 C   0  0  0  0  0  2  0  0  0  0  0  0
  181.0540  175.2710  136.4740 S   0  0  0  0  0  0  0  0  0  0  0  0
  186.5470  173.5150  136.3100 O   0  0  0  0  0  0  0  0  0  0  0  0
  182.6630  176.1590  136.1850 C   0  0  1  0  0  0  0  0  0  0  0  0
  182.4100  173.3850  135.1380 N   0  0  2  0  0  0  0  0  0  0  0  0
  186.2150  174.4000  137.3400 C   0  0  0  0  0  2  0  0  0  0  0  0
  180.1590  171.8610  134.3480 C   0  0  0  0  0  2  0  0  0  0  0  0
  181.1210  174.0570  135.1200 C   0  0  1  0  0  3  0  0  0  0  0  0
  183.3430  176.9520  139.8920 C   0  0  0  0  0  3  0  0  0  0  0  0
  183.3070  179.0230  138.6500 C   0  0  0  0  0  3  0  0  0  0  0  0
  182.9380  176.9100  137.4860 C   0  0  0  0  0  0  0  0  0  0  0  0
  183.4560  178.3480  139.8620 C   0  0  0  0  0  0  0  0  0  0  0  0
  183.0500  178.3130  137.4770 C   0  0  0  0  0  3  0  0  0  0  0  0
  183.0840  176.2330  138.7230 C   0  0  0  0  0  0  0  0  0  0  0  0
  182.9740  174.8500  138.8010 O   0  0  0  0  0  1  0  0  0  0  0  0
  185.2200  179.1170  141.4290 C   0  0  0  0  0  1  0  0  0  0  0  0
  182.9800  178.6000  142.2230 N   0  0  0  0  0  1  0  0  0  0  0  0
  183.7380  179.1310  141.1040 C   0  0  2  0  0  3  0  0  0  0  0  0
  182.5200  177.1230  135.1440 O   0  0  0  0  0  0  0  0  0  0  0  0
  181.1750  177.3170  134.8000 C   0  0  0  0  0  2  0  0  0  0  0  0
  180.9590  178.7630  134.4040 C   0  0  0  0  0  1  0  0  0  0  0  0
  1 11  1  0  0  0  0
  2  1  1  6  0  0  0
  2 15  1  0  0  0  0
  3 14  1  0  0  0  0
  5 16  1  0  0  0  0
  5  2  1  0  0  0  0
  6  7  1  0  0  0  0
  7 16  1  0  0  0  0
  8  5  1  0  0  0  0
  8  3  1  0  0  0  0
  9 12  1  0  0  0  0
  9  1  1  0  0  0  0
 10  7  1  0  0  0  0
 10  8  1  0  0  0  0
 11 17  1  0  0  0  0
 12  1  1  0  0  0  0
 14 17  1  0  0  0  0
 15 13  1  0  0  0  0
 15 22  1  0  0  0  0
 18  6  1  0  0  0  0
 18  4  1  0  0  0  0
 19 16  1  0  0  0  0
 19  4  1  0  0  0  0
 19 13  1  0  0  0  0
 21 23  2  0  0  0  0
 22 25  1  0  0  0  0
 23 20  1  0  0  0  0
 23 29  1  0  0  0  0
 24 22  2  0  0  0  0
 24 21  1  0  0  0  0
 25 26  1  0  0  0  0
 25 20  2  0  0  0  0
 29 27  1  0  0  0  0
 29 28  1  0  0  0  0
 30 15  1  0  0  0  0
 31 30  1  0  0  0  0
 32 31  1  0  0  0  0
M  END
>  <MODEL>
6

>  <REMARK>
 VINA RESULT:      -4.1      2.356      6.912
  Name = 
  4 active torsions:
  status: ('A' for Active; 'I' for Inactive)
    1  A    between atoms: O_1  and  C_4
    2  A    between atoms: O_1  and  C_27
    3  A    between atoms: C_16  and  C_27
    4  A    between atoms: C_19  and  C_26
                            x       y       z     vdW  Elec       q    Type
                         _______ _______ _______ _____ _____    ______ ____

>  <TORSDO>
F 4

$$$$
=
 OpenBabel10272402073D

 32 37  0  0  1  0  0  0  0  0999 V2000
  185.3380  176.1240  135.7670 C   0  0  0  0  0  0  0  0  0  0  0  0
  184.4220  174.8920  136.0420 C   0  0  2  0  0  3  0  0  0  0  0  0
  186.9740  173.4410  136.4970 C   0  0  0  0  0  2  0  0  0  0  0  0
  181.9840  171.1160  135.8960 C   0  0  0  0  0  2  0  0  0  0  0  0
  184.7640  173.6640  135.1760 C   0  0  1  0  0  3  0  0  0  0  0  0
  184.1870  169.9860  135.4140 C   0  0  0  0  0  2  0  0  0  0  0  0
  184.7620  171.3630  135.3430 C   0  0  2  0  0  3  0  0  0  0  0  0
  186.2240  173.1320  135.2010 C   0  0  2  0  0  3  0  0  0  0  0  0
  185.8370  176.3300  134.3460 C   0  0  0  0  0  2  0  0  0  0  0  0
  186.0330  171.6460  135.1360 C   0  0  0  0  0  2  0  0  0  0  0  0
  186.2380  176.5730  136.7590 O   0  0  0  0  0  0  0  0  0  0  0  0
  184.7870  177.2580  134.9260 C   0  0  0  0  0  2  0  0  0  0  0  0
  181.8880  173.7190  136.7280 S   0  0  0  0  0  0  0  0  0  0  0  0
  187.5640  174.7060  136.4340 O   0  0  0  0  0  0  0  0  0  0  0  0
  182.8950  175.2030  136.2370 C   0  0  1  0  0  0  0  0  0  0  0  0
  183.9700  172.5160  135.5450 N   0  0  2  0  0  0  0  0  0  0  0  0
  186.8550  175.4650  137.3700 C   0  0  0  0  0  2  0  0  0  0  0  0
  182.6940  170.0320  135.0820 C   0  0  0  0  0  2  0  0  0  0  0  0
  182.5160  172.5040  135.5270 C   0  0  1  0  0  3  0  0  0  0  0  0
  182.3000  178.3650  138.3550 C   0  0  0  0  0  3  0  0  0  0  0  0
  182.9800  176.5670  139.8180 C   0  0  0  0  0  3  0  0  0  0  0  0
  182.7850  176.1630  137.4190 C   0  0  0  0  0  0  0  0  0  0  0  0
  182.5910  177.8950  139.6420 C   0  0  0  0  0  0  0  0  0  0  0  0
  183.0780  175.7130  138.7200 C   0  0  0  0  0  3  0  0  0  0  0  0
  182.3970  177.5160  137.2490 C   0  0  0  0  0  0  0  0  0  0  0  0
  182.1060  178.0260  135.9900 O   0  0  0  0  0  1  0  0  0  0  0  0
  183.6280  178.5360  141.8040 C   0  0  0  0  0  1  0  0  0  0  0  0
  181.2150  178.5960  141.5080 N   0  0  0  0  0  1  0  0  0  0  0  0
  182.4870  178.7900  140.8360 C   0  0  2  0  0  3  0  0  0  0  0  0
  182.3190  175.8420  135.0990 O   0  0  0  0  0  0  0  0  0  0  0  0
  181.2660  175.0880  134.5610 C   0  0  0  0  0  2  0  0  0  0  0  0
  180.0620  175.9830  134.3480 C   0  0  0  0  0  1  0  0  0  0  0  0
  1 11  1  0  0  0  0
  2  1  1  6  0  0  0
  2 15  1  0  0  0  0
  5  8  1  0  0  0  0
  5 16  1  0  0  0  0
  5  2  1  0  0  0  0
  7  6  1  0  0  0  0
  7 16  1  0  0  0  0
  8  3  1  0  0  0  0
  9 12  1  0  0  0  0
  9  1  1  0  0  0  0
 10  8  1  0  0  0  0
 10  7  1  0  0  0  0
 11 17  1  0  0  0  0
 12  1  1  0  0  0  0
 14  3  1  0  0  0  0
 14 17  1  0  0  0  0
 15 13  1  0  0  0  0
 15 22  1  0  0  0  0
 18  6  1  0  0  0  0
 18  4  1  0  0  0  0
 19 16  1  0  0  0  0
 19  4  1  0  0  0  0
 19 13  1  0  0  0  0
 20 23  1  0  0  0  0
 22 24  2  0  0  0  0
 23 21  2  0  0  0  0
 23 29  1  0  0  0  0
 24 21  1  0  0  0  0
 25 22  1  0  0  0  0
 25 20  2  0  0  0  0
 26 25  1  0  0  0  0
 29 28  1  0  0  0  0
 29 27  1  0  0  0  0
 30 15  1  0  0  0  0
 31 30  1  0  0  0  0
 32 31  1  0  0  0  0
M  END
>  <MODEL>
7

>  <REMARK>
 VINA RESULT:      -4.0      2.520      6.749
  Name = 
  4 active torsions:
  status: ('A' for Active; 'I' for Inactive)
    1  A    between atoms: O_1  and  C_4
    2  A    between atoms: O_1  and  C_27
    3  A    between atoms: C_16  and  C_27
    4  A    between atoms: C_19  and  C_26
                            x       y       z     vdW  Elec       q    Type
                         _______ _______ _______ _____ _____    ______ ____

>  <TORSDO>
F 4

$$$$
=
 OpenBabel10272402073D

 32 37  0  0  1  0  0  0  0  0999 V2000
  190.0670  176.1970  135.8810 C   0  0  0  0  0  0  0  0  0  0  0  0
  188.7660  175.4260  136.2630 C   0  0  2  0  0  3  0  0  0  0  0  0
  190.3250  172.9990  135.5560 C   0  0  0  0  0  2  0  0  0  0  0  0
  184.8550  173.2110  136.3900 C   0  0  0  0  0  2  0  0  0  0  0  0
  188.2550  174.4910  135.1500 C   0  0  1  0  0  3  0  0  0  0  0  0
  186.0510  171.4860  134.9920 C   0  0  0  0  0  2  0  0  0  0  0  0
  187.1830  172.4590  134.9420 C   0  0  2  0  0  3  0  0  0  0  0  0
  189.2350  173.4310  134.5750 C   0  0  2  0  0  3  0  0  0  0  0  0
  190.2480  176.6010  134.4270 C   0  0  0  0  0  2  0  0  0  0  0  0
  188.3410  172.2470  134.3480 C   0  0  0  0  0  2  0  0  0  0  0  0
  191.2790  175.9170  136.5500 O   0  0  0  0  0  0  0  0  0  0  0  0
  189.9490  177.6540  135.4780 C   0  0  0  0  0  2  0  0  0  0  0  0
  186.2290  175.2410  137.6030 S   0  0  0  0  0  0  0  0  0  0  0  0
  191.4180  173.8660  135.4890 O   0  0  0  0  0  0  0  0  0  0  0  0
  187.6760  176.2580  137.0290 C   0  0  1  0  0  0  0  0  0  0  0  0
  187.1200  173.7140  135.5880 N   0  0  2  0  0  0  0  0  0  0  0  0
  191.4110  174.5260  136.7230 C   0  0  0  0  0  2  0  0  0  0  0  0
  184.7360  172.2340  135.2180 C   0  0  0  0  0  2  0  0  0  0  0  0
  185.8850  174.3020  136.0810 C   0  0  1  0  0  3  0  0  0  0  0  0
  188.4470  178.3390  140.1770 C   0  0  0  0  0  3  0  0  0  0  0  0
  190.0770  176.5660  140.0010 C   0  0  0  0  0  3  0  0  0  0  0  0
  188.3300  176.7720  138.3100 C   0  0  0  0  0  0  0  0  0  0  0  0
  189.5720  177.6750  140.6810 C   0  0  0  0  0  0  0  0  0  0  0  0
  189.4640  176.1210  138.8300 C   0  0  0  0  0  3  0  0  0  0  0  0
  187.8280  177.9010  139.0040 C   0  0  0  0  0  0  0  0  0  0  0  0
  186.7170  178.5950  138.5360 O   0  0  0  0  0  1  0  0  0  0  0  0
  191.5510  177.3890  142.1520 C   0  0  0  0  0  1  0  0  0  0  0  0
  189.3700  177.9290  143.0810 N   0  0  0  0  0  1  0  0  0  0  0  0
  190.2430  178.1280  141.9380 C   0  0  2  0  0  3  0  0  0  0  0  0
  187.2270  177.3870  136.2830 O   0  0  0  0  0  0  0  0  0  0  0  0
  185.9110  177.2180  135.8300 C   0  0  0  0  0  2  0  0  0  0  0  0
  185.8400  177.5450  134.3530 C   0  0  0  0  0  1  0  0  0  0  0  0
  1 11  1  0  0  0  0
  2  1  1  6  0  0  0
  2 15  1  0  0  0  0
  5 16  1  0  0  0  0
  5  2  1  0  0  0  0
  6 18  1  0  0  0  0
  7  6  1  0  0  0  0
  7 16  1  0  0  0  0
  8  5  1  0  0  0  0
  8  3  1  0  0  0  0
  9 12  1  0  0  0  0
  9  1  1  0  0  0  0
 10  8  1  0  0  0  0
 10  7  1  0  0  0  0
 11 17  1  0  0  0  0
 12  1  1  0  0  0  0
 14  3  1  0  0  0  0
 14 17  1  0  0  0  0
 15 13  1  0  0  0  0
 15 22  1  0  0  0  0
 16 19  1  0  0  0  0
 18  4  1  0  0  0  0
 19  4  1  0  0  0  0
 19 13  1  0  0  0  0
 20 23  1  0  0  0  0
 21 23  2  0  0  0  0
 22 24  2  0  0  0  0
 22 25  1  0  0  0  0
 23 29  1  0  0  0  0
 24 21  1  0  0  0  0
 25 20  2  0  0  0  0
 26 25  1  0  0  0  0
 29 27  1  0  0  0  0
 29 28  1  0  0  0  0
 30 15  1  0  0  0  0
 31 30  1  0  0  0  0
 32 31  1  0  0  0  0
M  END
>  <MODEL>
8

>  <REMARK>
 VINA RESULT:      -4.0      3.436      7.891
  Name = 
  4 active torsions:
  status: ('A' for Active; 'I' for Inactive)
    1  A    between atoms: O_1  and  C_4
    2  A    between atoms: O_1  and  C_27
    3  A    between atoms: C_16  and  C_27
    4  A    between atoms: C_19  and  C_26
                            x       y       z     vdW  Elec       q    Type
                         _______ _______ _______ _____ _____    ______ ____

>  <TORSDO>
F 4

$$$$
=
 OpenBabel10272402073D

 32 37  0  0  1  0  0  0  0  0999 V2000
  190.1910  176.3040  135.7930 C   0  0  0  0  0  0  0  0  0  0  0  0
  189.1370  175.1840  136.0560 C   0  0  2  0  0  3  0  0  0  0  0  0
  191.4830  173.3630  136.0800 C   0  0  0  0  0  2  0  0  0  0  0  0
  186.1740  171.8080  135.8430 C   0  0  0  0  0  2  0  0  0  0  0  0
  189.2080  174.0210  135.0480 C   0  0  1  0  0  3  0  0  0  0  0  0
  188.1290  170.4510  135.0090 C   0  0  0  0  0  2  0  0  0  0  0  0
  188.8880  171.7370  135.0010 C   0  0  2  0  0  3  0  0  0  0  0  0
  190.5710  173.2990  134.8550 C   0  0  2  0  0  3  0  0  0  0  0  0
  190.5690  176.5920  134.3500 C   0  0  0  0  0  2  0  0  0  0  0  0
  190.1590  171.8670  134.6760 C   0  0  0  0  0  2  0  0  0  0  0  0
  191.2410  176.5180  136.7120 O   0  0  0  0  0  0  0  0  0  0  0  0
  189.7280  177.5860  135.1290 C   0  0  0  0  0  2  0  0  0  0  0  0
  186.5410  174.2960  136.9170 S   0  0  0  0  0  0  0  0  0  0  0  0
  192.2420  174.5360  136.0670 O   0  0  0  0  0  0  0  0  0  0  0  0
  187.6980  175.6750  136.4520 C   0  0  1  0  0  0  0  0  0  0  0  0
  188.2960  172.9580  135.3970 N   0  0  2  0  0  0  0  0  0  0  0  0
  191.7490  175.2780  137.1440 C   0  0  0  0  0  2  0  0  0  0  0  0
  186.6330  170.7320  134.8570 C   0  0  0  0  0  2  0  0  0  0  0  0
  186.8620  173.1440  135.5450 C   0  0  1  0  0  3  0  0  0  0  0  0
  187.1490  178.3330  139.1860 C   0  0  0  0  0  3  0  0  0  0  0  0
  189.0250  176.9480  139.8160 C   0  0  0  0  0  3  0  0  0  0  0  0
  187.8490  176.5090  137.7230 C   0  0  0  0  0  0  0  0  0  0  0  0
  188.1670  178.0130  140.0930 C   0  0  0  0  0  0  0  0  0  0  0  0
  188.8690  176.2070  138.6450 C   0  0  0  0  0  3  0  0  0  0  0  0
  186.9860  177.5960  138.0100 C   0  0  0  0  0  0  0  0  0  0  0  0
  185.9670  177.9530  137.1350 O   0  0  0  0  0  1  0  0  0  0  0  0
  189.3410  178.0980  142.2780 C   0  0  0  0  0  1  0  0  0  0  0  0
  187.0800  178.9600  142.0400 N   0  0  0  0  0  1  0  0  0  0  0  0
  188.3500  178.7880  141.3580 C   0  0  2  0  0  3  0  0  0  0  0  0
  187.1100  176.5040  135.4520 O   0  0  0  0  0  0  0  0  0  0  0  0
  186.3320  175.7590  134.5550 C   0  0  0  0  0  2  0  0  0  0  0  0
  185.0010  176.4510  134.3460 C   0  0  0  0  0  1  0  0  0  0  0  0
  1 11  1  0  0  0  0
  2  1  1  6  0  0  0
  2 15  1  0  0  0  0
  5 16  1  0  0  0  0
  5  2  1  0  0  0  0
  7  6  1  0  0  0  0
  7 16  1  0  0  0  0
  8  5  1  0  0  0  0
  8  3  1  0  0  0  0
  9 12  1  0  0  0  0
  9  1  1  0  0  0  0
 10  8  1  0  0  0  0
 10  7  1  0  0  0  0
 11 17  1  0  0  0  0
 12  1  1  0  0  0  0
 14  3  1  0  0  0  0
 14 17  1  0  0  0  0
 15 13  1  0  0  0  0
 15 22  1  0  0  0  0
 16 19  1  0  0  0  0
 18  6  1  0  0  0  0
 18  4  1  0  0  0  0
 19  4  1  0  0  0  0
 19 13  1  0  0  0  0
 20 23  1  0  0  0  0
 21 23  2  0  0  0  0
 22 25  1  0  0  0  0
 22 24  2  0  0  0  0
 23 29  1  0  0  0  0
 24 21  1  0  0  0  0
 25 20  2  0  0  0  0
 26 25  1  0  0  0  0
 29 28  1  0  0  0  0
 29 27  1  0  0  0  0
 30 15  1  0  0  0  0
 31 30  1  0  0  0  0
 32 31  1  0  0  0  0
M  END
>  <MODEL>
9

>  <REMARK>
 VINA RESULT:      -4.0      3.698      7.870
  Name = 
  4 active torsions:
  status: ('A' for Active; 'I' for Inactive)
    1  A    between atoms: O_1  and  C_4
    2  A    between atoms: O_1  and  C_27
    3  A    between atoms: C_16  and  C_27
    4  A    between atoms: C_19  and  C_26
                            x       y       z     vdW  Elec       q    Type
                         _______ _______ _______ _____ _____    ______ ____

>  <TORSDO>
F 4

$$$$
