=
 OpenBabel10272414543D

 37 41  0  0  1  0  0  0  0  0999 V2000
  191.1660  174.6920  134.9710 C   0  0  0  0  0  2  0  0  0  0  0  0
  191.5760  176.4780  139.1460 C   0  0  0  0  0  2  0  0  0  0  0  0
  188.4730  178.0960  141.6810 C   0  0  0  0  0  2  0  0  0  0  0  0
  192.0650  176.2220  136.7520 C   0  0  2  0  0  3  0  0  0  0  0  0
  190.3010  176.8260  139.8520 C   0  0  2  0  0  0  0  0  0  0  0  0
  191.2140  175.8080  137.8920 N   0  0  2  0  0  0  0  0  0  0  0  0
  190.0550  176.2410  141.2490 C   0  0  0  0  0  2  0  0  0  0  0  0
  189.8830  176.1980  137.6050 N   0  0  1  0  0  0  0  0  0  0  0  0
  189.8600  173.4450  137.1390 S   0  0  0  0  0  0  0  0  0  0  0  0
  189.1140  175.1120  136.9740 C   0  0  0  0  0  2  0  0  0  0  0  0
  188.3390  178.4740  140.2010 C   0  0  1  0  0  3  0  0  0  0  0  0
  189.2250  176.4790  138.8720 C   0  0  2  0  0  3  0  0  0  0  0  0
  192.3610  175.0260  135.8470 C   0  0  0  0  0  2  0  0  0  0  0  0
  188.6950  176.6000  141.8210 C   0  0  1  0  0  3  0  0  0  0  0  0
  190.4820  173.3980  135.4170 C   0  0  0  0  0  2  0  0  0  0  0  0
  189.4420  177.9430  139.2580 C   0  0  2  0  0  3  0  0  0  0  0  0
  193.4000  176.8840  137.1340 C   0  0  0  0  0  2  0  0  0  0  0  0
  194.4540  175.9330  137.1310 O   0  0  0  0  0  0  0  0  0  0  0  0
  194.7580  175.2410  138.2760 N   0  0  0  0  0  2  0  0  0  0  0  0
  195.9440  174.9600  138.5370 O   0  0  0  0  0  1  0  0  0  0  0  0
  186.9140  178.3580  139.6390 C   0  0  2  0  0  3  0  0  0  0  0  0
  186.0640  177.4210  137.1960 S   0  0  0  0  0  1  0  0  0  0  0  0
  186.9330  178.6960  138.1560 C   0  0  0  0  0  2  0  0  0  0  0  0
  186.0340  179.2160  140.3110 O   0  0  0  0  0  0  0  0  0  0  0  0
  184.7860  178.5900  140.2490 C   0  0  0  0  0  2  0  0  0  0  0  0
  184.2790  178.3310  141.6280 C   0  0  0  0  0  3  0  0  0  0  0  0
  184.7310  179.0390  142.6630 C   0  0  0  0  0  3  0  0  0  0  0  0
  182.7190  178.8720  144.0890 C   0  0  0  0  0  1  0  0  0  0  0  0
  184.2330  178.7750  144.0460 C   0  0  0  0  0  2  0  0  0  0  0  0
  188.6350  176.1760  143.2800 C   0  0  0  0  0  2  0  0  0  0  0  0
  189.8580  177.5840  144.9880 C   0  0  0  0  0  2  0  0  0  0  0  0
  188.5350  177.3770  144.2120 C   0  0  2  0  0  3  0  0  0  0  0  0
  187.2980  177.2090  145.1090 C   0  0  0  0  0  2  0  0  0  0  0  0
  186.0060  178.9470  146.9300 Cl  0  0  0  0  0  0  0  0  0  0  0  0
  188.5490  178.0950  147.0270 C   0  0  0  0  0  3  0  0  0  0  0  0
  187.3940  178.0390  146.3600 C   0  0  0  0  0  0  0  0  0  0  0  0
  189.7270  177.3350  146.4960 C   0  0  0  0  0  2  0  0  0  0  0  0
  1 15  1  0  0  0  0
  1 13  1  0  0  0  0
  3 14  1  0  0  0  0
  4 17  1  1  0  0  0
  4  6  1  0  0  0  0
  5  2  1  6  0  0  0
  5  7  1  0  0  0  0
  6  2  1  1  0  0  0
  7 14  1  0  0  0  0
  8 10  1  1  0  0  0
  8  6  1  0  0  0  0
  8 12  1  0  0  0  0
 10  9  1  0  0  0  0
 11 21  1  6  0  0  0
 11  3  1  0  0  0  0
 12 16  1  0  0  0  0
 12  5  1  0  0  0  0
 13  4  1  0  0  0  0
 14 30  1  0  0  0  0
 15  9  1  0  0  0  0
 16  5  1  0  0  0  0
 16 11  1  0  0  0  0
 18 17  1  0  0  0  0
 18 19  1  0  0  0  0
 19 20  1  0  0  0  0
 21 24  1  0  0  0  0
 22 23  1  0  0  0  0
 23 21  1  0  0  0  0
 25 24  1  0  0  0  0
 25 26  1  0  0  0  0
 26 27  2  0  0  0  0
 27 29  1  0  0  0  0
 29 28  1  0  0  0  0
 30 32  1  0  0  0  0
 31 37  1  0  0  0  0
 32 31  1  0  0  0  0
 32 33  1  0  0  0  0
 33 36  1  0  0  0  0
 36 34  1  0  0  0  0
 36 35  2  0  0  0  0
 37 35  1  0  0  0  0
M  END
>  <MODEL>
1

>  <REMARK>
 VINA RESULT:      -7.4      0.000      0.000
  Name = 
  11 active torsions:
  status: ('A' for Active; 'I' for Inactive)
    1  A    between atoms: C_1  and  C_17
    2  A    between atoms: C_5  and  C_23
    3  A    between atoms: C_6  and  C_37
    4  A    between atoms: C_9  and  C_16
    5  A    between atoms: C_16  and  O_24
    6  A    between atoms: C_17  and  O_26
    7  A    between atoms: N_22  and  O_24
    8  A    between atoms: O_26  and  C_33
    9  A    between atoms: C_27  and  C_33
   10  A    between atoms: C_31  and  C_37
   11  A    between atoms: C_33  and  C_34
                            x       y       z     vdW  Elec       q    Type
                         _______ _______ _______ _____ _____    ______ ____

>  <TORSDO>
F 11

$$$$
=
 OpenBabel10272414543D

 37 41  0  0  1  0  0  0  0  0999 V2000
  191.9890  174.2460  134.3790 C   0  0  0  0  0  2  0  0  0  0  0  0
  192.1830  176.5330  138.3180 C   0  0  0  0  0  2  0  0  0  0  0  0
  188.9280  178.2710  140.5670 C   0  0  0  0  0  2  0  0  0  0  0  0
  192.7570  176.0220  135.9850 C   0  0  2  0  0  3  0  0  0  0  0  0
  190.8720  176.8930  138.9470 C   0  0  2  0  0  0  0  0  0  0  0  0
  191.8940  175.7020  137.1460 N   0  0  2  0  0  0  0  0  0  0  0  0
  190.6140  176.4660  140.3970 C   0  0  0  0  0  2  0  0  0  0  0  0
  190.5540  175.9820  136.7820 N   0  0  1  0  0  0  0  0  0  0  0  0
  190.6840  173.1970  136.6490 S   0  0  0  0  0  0  0  0  0  0  0  0
  189.8610  174.7890  136.2670 C   0  0  0  0  0  2  0  0  0  0  0  0
  188.8190  178.4630  139.0490 C   0  0  1  0  0  3  0  0  0  0  0  0
  189.8450  176.3760  137.9900 C   0  0  2  0  0  3  0  0  0  0  0  0
  193.1390  174.7460  135.2370 C   0  0  0  0  0  2  0  0  0  0  0  0
  189.2210  176.8160  140.8900 C   0  0  1  0  0  3  0  0  0  0  0  0
  191.3590  172.9790  134.9600 C   0  0  0  0  0  2  0  0  0  0  0  0
  189.9760  177.8840  138.2030 C   0  0  2  0  0  3  0  0  0  0  0  0
  194.0450  176.7960  136.3160 C   0  0  0  0  0  2  0  0  0  0  0  0
  195.1920  176.0000  136.0590 O   0  0  0  0  0  0  0  0  0  0  0  0
  196.3430  176.5860  135.5980 N   0  0  0  0  0  2  0  0  0  0  0  0
  196.3680  177.8090  135.3610 O   0  0  0  0  0  1  0  0  0  0  0  0
  187.4200  178.2050  138.4720 C   0  0  2  0  0  3  0  0  0  0  0  0
  187.0010  177.4200  135.8690 S   0  0  0  0  0  1  0  0  0  0  0  0
  187.3570  178.7510  137.0530 C   0  0  0  0  0  2  0  0  0  0  0  0
  186.4300  178.8080  139.2580 O   0  0  0  0  0  0  0  0  0  0  0  0
  185.2180  178.3020  138.7800 C   0  0  0  0  0  2  0  0  0  0  0  0
  184.2490  178.1570  139.9050 C   0  0  0  0  0  3  0  0  0  0  0  0
  183.0920  178.8190  139.8960 C   0  0  0  0  0  3  0  0  0  0  0  0
  180.7020  178.6390  140.4990 C   0  0  0  0  0  1  0  0  0  0  0  0
  182.1250  178.6840  141.0250 C   0  0  0  0  0  2  0  0  0  0  0  0
  189.1390  176.5650  142.3870 C   0  0  0  0  0  2  0  0  0  0  0  0
  188.9530  177.9590  144.4890 C   0  0  0  0  0  2  0  0  0  0  0  0
  188.3460  177.6540  143.0980 C   0  0  2  0  0  3  0  0  0  0  0  0
  186.8640  177.2480  143.1330 C   0  0  0  0  0  2  0  0  0  0  0  0
  184.5190  178.6340  143.8990 Cl  0  0  0  0  0  0  0  0  0  0  0  0
  186.6660  178.1120  145.4240 C   0  0  0  0  0  3  0  0  0  0  0  0
  186.1090  177.9680  144.2190 C   0  0  0  0  0  0  0  0  0  0  0  0
  188.0400  177.5620  145.6550 C   0  0  0  0  0  2  0  0  0  0  0  0
  1 15  1  0  0  0  0
  1 13  1  0  0  0  0
  3 14  1  0  0  0  0
  4 17  1  1  0  0  0
  4  6  1  0  0  0  0
  5  2  1  6  0  0  0
  5  7  1  0  0  0  0
  6  2  1  1  0  0  0
  7 14  1  0  0  0  0
  8 10  1  1  0  0  0
  8  6  1  0  0  0  0
  8 12  1  0  0  0  0
 10  9  1  0  0  0  0
 11 21  1  6  0  0  0
 11  3  1  0  0  0  0
 12 16  1  0  0  0  0
 12  5  1  0  0  0  0
 13  4  1  0  0  0  0
 14 30  1  0  0  0  0
 15  9  1  0  0  0  0
 16  5  1  0  0  0  0
 16 11  1  0  0  0  0
 18 17  1  0  0  0  0
 19 18  1  0  0  0  0
 20 19  1  0  0  0  0
 21 24  1  0  0  0  0
 22 23  1  0  0  0  0
 23 21  1  0  0  0  0
 25 24  1  0  0  0  0
 25 26  1  0  0  0  0
 27 26  2  0  0  0  0
 27 29  1  0  0  0  0
 28 29  1  0  0  0  0
 30 32  1  0  0  0  0
 31 37  1  0  0  0  0
 32 33  1  0  0  0  0
 32 31  1  0  0  0  0
 33 36  1  0  0  0  0
 34 36  1  0  0  0  0
 35 37  1  0  0  0  0
 36 35  2  0  0  0  0
M  END
>  <MODEL>
2

>  <REMARK>
 VINA RESULT:      -6.5      1.603      1.949
  Name = 
  11 active torsions:
  status: ('A' for Active; 'I' for Inactive)
    1  A    between atoms: C_1  and  C_17
    2  A    between atoms: C_5  and  C_23
    3  A    between atoms: C_6  and  C_37
    4  A    between atoms: C_9  and  C_16
    5  A    between atoms: C_16  and  O_24
    6  A    between atoms: C_17  and  O_26
    7  A    between atoms: N_22  and  O_24
    8  A    between atoms: O_26  and  C_33
    9  A    between atoms: C_27  and  C_33
   10  A    between atoms: C_31  and  C_37
   11  A    between atoms: C_33  and  C_34
                            x       y       z     vdW  Elec       q    Type
                         _______ _______ _______ _____ _____    ______ ____

>  <TORSDO>
F 11

$$$$
=
 OpenBabel10272414543D

 37 41  0  0  1  0  0  0  0  0999 V2000
  190.8870  174.5880  134.7750 C   0  0  0  0  0  2  0  0  0  0  0  0
  191.6470  176.3760  138.9000 C   0  0  0  0  0  2  0  0  0  0  0  0
  188.8240  178.3070  141.5410 C   0  0  0  0  0  2  0  0  0  0  0  0
  192.0040  176.0470  136.4920 C   0  0  2  0  0  3  0  0  0  0  0  0
  190.4430  176.8500  139.6550 C   0  0  2  0  0  0  0  0  0  0  0  0
  191.1690  175.7290  137.6740 N   0  0  2  0  0  0  0  0  0  0  0  0
  190.2050  176.3070  141.0700 C   0  0  0  0  0  2  0  0  0  0  0  0
  189.8680  176.2380  137.4380 N   0  0  1  0  0  0  0  0  0  0  0  0
  189.5680  173.4950  137.0170 S   0  0  0  0  0  0  0  0  0  0  0  0
  188.9750  175.2220  136.8580 C   0  0  0  0  0  2  0  0  0  0  0  0
  188.6600  178.6790  140.0630 C   0  0  1  0  0  3  0  0  0  0  0  0
  189.2960  176.5950  138.7280 C   0  0  2  0  0  3  0  0  0  0  0  0
  192.1450  174.8190  135.5940 C   0  0  0  0  0  2  0  0  0  0  0  0
  188.9110  176.7990  141.6950 C   0  0  1  0  0  3  0  0  0  0  0  0
  190.1050  173.3700  135.2700 C   0  0  0  0  0  2  0  0  0  0  0  0
  189.6660  178.0360  139.0810 C   0  0  2  0  0  3  0  0  0  0  0  0
  193.4100  176.5850  136.8060 C   0  0  0  0  0  2  0  0  0  0  0  0
  194.1990  176.6520  135.6280 O   0  0  0  0  0  0  0  0  0  0  0  0
  195.3470  177.4040  135.6120 N   0  0  0  0  0  2  0  0  0  0  0  0
  195.5420  178.2230  134.6930 O   0  0  0  0  0  1  0  0  0  0  0  0
  187.2070  178.6910  139.5640 C   0  0  2  0  0  3  0  0  0  0  0  0
  184.5440  178.8090  140.2420 S   0  0  0  0  0  1  0  0  0  0  0  0
  186.2700  178.5640  140.7550 C   0  0  0  0  0  2  0  0  0  0  0  0
  186.9740  177.6450  138.6620 O   0  0  0  0  0  0  0  0  0  0  0  0
  186.5770  178.2630  137.4730 C   0  0  0  0  0  2  0  0  0  0  0  0
  185.6410  177.3740  136.7260 C   0  0  0  0  0  3  0  0  0  0  0  0
  185.4310  176.1190  137.1250 C   0  0  0  0  0  3  0  0  0  0  0  0
  185.2530  174.4820  135.2820 C   0  0  0  0  0  1  0  0  0  0  0  0
  184.5030  175.2230  136.3740 C   0  0  0  0  0  2  0  0  0  0  0  0
  188.8770  176.3990  143.1610 C   0  0  0  0  0  2  0  0  0  0  0  0
  189.2600  177.8070  145.2270 C   0  0  0  0  0  2  0  0  0  0  0  0
  188.3160  177.5130  144.0350 C   0  0  2  0  0  3  0  0  0  0  0  0
  186.8790  177.1500  144.4450 C   0  0  0  0  0  2  0  0  0  0  0  0
  184.8380  178.6050  145.7570 Cl  0  0  0  0  0  0  0  0  0  0  0  0
  187.2840  178.0280  146.7020 C   0  0  0  0  0  3  0  0  0  0  0  0
  186.4400  177.8950  145.6760 C   0  0  0  0  0  0  0  0  0  0  0  0
  188.6580  177.4400  146.5890 C   0  0  0  0  0  2  0  0  0  0  0  0
  1 15  1  0  0  0  0
  1 13  1  0  0  0  0
  3 14  1  0  0  0  0
  4 17  1  1  0  0  0
  4  6  1  0  0  0  0
  5  2  1  6  0  0  0
  5  7  1  0  0  0  0
  6  2  1  1  0  0  0
  7 14  1  0  0  0  0
  8 10  1  1  0  0  0
  8  6  1  0  0  0  0
  8 12  1  0  0  0  0
 10  9  1  0  0  0  0
 11 21  1  6  0  0  0
 11  3  1  0  0  0  0
 12 16  1  0  0  0  0
 12  5  1  0  0  0  0
 13  4  1  0  0  0  0
 14 30  1  0  0  0  0
 15  9  1  0  0  0  0
 16  5  1  0  0  0  0
 16 11  1  0  0  0  0
 18 17  1  0  0  0  0
 19 18  1  0  0  0  0
 20 19  1  0  0  0  0
 21 23  1  0  0  0  0
 22 23  1  0  0  0  0
 24 21  1  0  0  0  0
 25 24  1  0  0  0  0
 26 27  2  0  0  0  0
 26 25  1  0  0  0  0
 28 29  1  0  0  0  0
 29 27  1  0  0  0  0
 30 32  1  0  0  0  0
 31 37  1  0  0  0  0
 32 33  1  0  0  0  0
 32 31  1  0  0  0  0
 33 36  1  0  0  0  0
 36 34  1  0  0  0  0
 36 35  2  0  0  0  0
 37 35  1  0  0  0  0
M  END
>  <MODEL>
3

>  <REMARK>
 VINA RESULT:      -6.1      1.743      2.987
  Name = 
  11 active torsions:
  status: ('A' for Active; 'I' for Inactive)
    1  A    between atoms: C_1  and  C_17
    2  A    between atoms: C_5  and  C_23
    3  A    between atoms: C_6  and  C_37
    4  A    between atoms: C_9  and  C_16
    5  A    between atoms: C_16  and  O_24
    6  A    between atoms: C_17  and  O_26
    7  A    between atoms: N_22  and  O_24
    8  A    between atoms: O_26  and  C_33
    9  A    between atoms: C_27  and  C_33
   10  A    between atoms: C_31  and  C_37
   11  A    between atoms: C_33  and  C_34
                            x       y       z     vdW  Elec       q    Type
                         _______ _______ _______ _____ _____    ______ ____

>  <TORSDO>
F 11

$$$$
=
 OpenBabel10272414543D

 37 41  0  0  1  0  0  0  0  0999 V2000
  188.1070  174.5300  134.3840 C   0  0  0  0  0  2  0  0  0  0  0  0
  190.4660  176.7530  137.5910 C   0  0  0  0  0  2  0  0  0  0  0  0
  189.0090  178.4630  141.2820 C   0  0  0  0  0  2  0  0  0  0  0  0
  189.6520  176.2780  135.3220 C   0  0  2  0  0  3  0  0  0  0  0  0
  189.7220  177.1060  138.8430 C   0  0  2  0  0  0  0  0  0  0  0  0
  189.5680  175.9410  136.7620 N   0  0  2  0  0  0  0  0  0  0  0  0
  190.3020  176.6560  140.1900 C   0  0  0  0  0  2  0  0  0  0  0  0
  188.2530  176.2310  137.2010 N   0  0  1  0  0  0  0  0  0  0  0  0
  188.2580  173.4470  136.9850 S   0  0  0  0  0  0  0  0  0  0  0  0
  187.3780  175.0480  137.1400 C   0  0  0  0  0  2  0  0  0  0  0  0
  188.0830  178.6790  140.0790 C   0  0  1  0  0  3  0  0  0  0  0  0
  188.3320  176.6070  138.6050 C   0  0  2  0  0  3  0  0  0  0  0  0
  189.5450  175.0130  134.4720 C   0  0  0  0  0  2  0  0  0  0  0  0
  189.4160  177.0020  141.3730 C   0  0  1  0  0  3  0  0  0  0  0  0
  187.8870  173.2560  135.2010 C   0  0  0  0  0  2  0  0  0  0  0  0
  188.5750  178.1110  138.7280 C   0  0  2  0  0  3  0  0  0  0  0  0
  190.9170  177.0430  134.8980 C   0  0  0  0  0  2  0  0  0  0  0  0
  191.8810  176.1580  134.3460 O   0  0  0  0  0  0  0  0  0  0  0  0
  193.1100  176.0250  134.9420 N   0  0  0  0  0  2  0  0  0  0  0  0
  193.7200  177.0350  135.3440 O   0  0  0  0  0  1  0  0  0  0  0  0
  186.5950  178.4340  140.3660 C   0  0  2  0  0  3  0  0  0  0  0  0
  184.3430  177.6480  138.9950 S   0  0  0  0  0  1  0  0  0  0  0  0
  185.7880  178.7440  139.1140 C   0  0  0  0  0  2  0  0  0  0  0  0
  186.1470  179.2290  141.4290 O   0  0  0  0  0  0  0  0  0  0  0  0
  184.7540  179.2360  141.3250 C   0  0  0  0  0  2  0  0  0  0  0  0
  184.1460  178.8190  142.6230 C   0  0  0  0  0  3  0  0  0  0  0  0
  182.8680  179.0850  142.8920 C   0  0  0  0  0  3  0  0  0  0  0  0
  180.7550  178.5360  144.0500 C   0  0  0  0  0  1  0  0  0  0  0  0
  182.2590  178.6780  144.1930 C   0  0  0  0  0  2  0  0  0  0  0  0
  190.1700  176.7270  142.6640 C   0  0  0  0  0  2  0  0  0  0  0  0
  187.7560  176.3470  143.3150 C   0  0  0  0  0  2  0  0  0  0  0  0
  189.2240  176.3770  143.8050 C   0  0  2  0  0  3  0  0  0  0  0  0
  189.4770  177.3420  144.9760 C   0  0  0  0  0  2  0  0  0  0  0  0
  188.5400  177.3980  147.6450 Cl  0  0  0  0  0  0  0  0  0  0  0  0
  187.0630  177.4790  145.4050 C   0  0  0  0  0  3  0  0  0  0  0  0
  188.2980  177.4170  145.9080 C   0  0  0  0  0  0  0  0  0  0  0  0
  186.8870  177.4580  143.9170 C   0  0  0  0  0  2  0  0  0  0  0  0
  1 13  1  0  0  0  0
  1 15  1  0  0  0  0
  3 14  1  0  0  0  0
  4 17  1  1  0  0  0
  4  6  1  0  0  0  0
  5  2  1  6  0  0  0
  5  7  1  0  0  0  0
  6  8  1  0  0  0  0
  6  2  1  1  0  0  0
  7 14  1  0  0  0  0
  8 10  1  1  0  0  0
  8 12  1  0  0  0  0
  9 10  1  0  0  0  0
 11 21  1  1  0  0  0
 11  3  1  0  0  0  0
 12 16  1  0  0  0  0
 12  5  1  0  0  0  0
 13  4  1  0  0  0  0
 14 30  1  0  0  0  0
 15  9  1  0  0  0  0
 16  5  1  0  0  0  0
 16 11  1  0  0  0  0
 18 17  1  0  0  0  0
 18 19  1  0  0  0  0
 19 20  1  0  0  0  0
 21 24  1  0  0  0  0
 22 23  1  0  0  0  0
 23 21  1  0  0  0  0
 25 24  1  0  0  0  0
 25 26  1  0  0  0  0
 26 27  2  0  0  0  0
 27 29  1  0  0  0  0
 28 29  1  0  0  0  0
 30 32  1  0  0  0  0
 31 32  1  0  0  0  0
 31 37  1  0  0  0  0
 32 33  1  0  0  0  0
 33 36  1  0  0  0  0
 35 36  2  0  0  0  0
 36 34  1  0  0  0  0
 37 35  1  0  0  0  0
M  END
>  <MODEL>
4

>  <REMARK>
 VINA RESULT:      -5.4      1.773      2.265
  Name = 
  11 active torsions:
  status: ('A' for Active; 'I' for Inactive)
    1  A    between atoms: C_1  and  C_17
    2  A    between atoms: C_5  and  C_23
    3  A    between atoms: C_6  and  C_37
    4  A    between atoms: C_9  and  C_16
    5  A    between atoms: C_16  and  O_24
    6  A    between atoms: C_17  and  O_26
    7  A    between atoms: N_22  and  O_24
    8  A    between atoms: O_26  and  C_33
    9  A    between atoms: C_27  and  C_33
   10  A    between atoms: C_31  and  C_37
   11  A    between atoms: C_33  and  C_34
                            x       y       z     vdW  Elec       q    Type
                         _______ _______ _______ _____ _____    ______ ____

>  <TORSDO>
F 11

$$$$
=
 OpenBabel10272414543D

 37 41  0  0  1  0  0  0  0  0999 V2000
  180.7020  179.8180  136.7080 C   0  0  0  0  0  2  0  0  0  0  0  0
  181.8730  177.9260  140.6880 C   0  0  0  0  0  2  0  0  0  0  0  0
  185.7100  178.0260  142.6730 C   0  0  0  0  0  2  0  0  0  0  0  0
  180.9670  177.9810  138.4050 C   0  0  2  0  0  3  0  0  0  0  0  0
  183.2400  178.2510  141.2060 C   0  0  2  0  0  0  0  0  0  0  0  0
  181.6590  178.7300  139.4810 N   0  0  2  0  0  0  0  0  0  0  0  0
  183.3690  178.8300  142.6210 C   0  0  0  0  0  2  0  0  0  0  0  0
  182.9460  179.0840  139.0060 N   0  0  1  0  0  0  0  0  0  0  0  0
  181.5200  181.4780  138.8380 S   0  0  0  0  0  0  0  0  0  0  0  0
  182.9630  180.4310  138.4130 C   0  0  0  0  0  2  0  0  0  0  0  0
  185.7910  177.8220  141.1550 C   0  0  1  0  0  3  0  0  0  0  0  0
  183.8380  179.1330  140.1540 C   0  0  2  0  0  3  0  0  0  0  0  0
  179.9820  178.8910  137.6720 C   0  0  0  0  0  2  0  0  0  0  0  0
  184.7940  179.1940  142.9960 C   0  0  1  0  0  3  0  0  0  0  0  0
  180.7070  181.2630  137.2110 C   0  0  0  0  0  2  0  0  0  0  0  0
  184.4420  177.7500  140.4030 C   0  0  2  0  0  3  0  0  0  0  0  0
  180.2170  176.7180  138.8610 C   0  0  0  0  0  2  0  0  0  0  0  0
  180.5780  175.6010  138.0630 O   0  0  0  0  0  0  0  0  0  0  0  0
  181.8160  175.5510  137.4730 N   0  0  0  0  0  2  0  0  0  0  0  0
  182.6280  174.6650  137.8030 O   0  0  0  0  0  1  0  0  0  0  0  0
  186.8640  178.6680  140.4530 C   0  0  2  0  0  3  0  0  0  0  0  0
  188.6800  178.7800  138.3910 S   0  0  0  0  0  1  0  0  0  0  0  0
  187.1660  178.0610  139.0920 C   0  0  0  0  0  2  0  0  0  0  0  0
  188.0360  178.7320  141.2170 O   0  0  0  0  0  0  0  0  0  0  0  0
  188.5340  177.4260  141.2400 C   0  0  0  0  0  2  0  0  0  0  0  0
  189.8820  177.4080  141.8820 C   0  0  0  0  0  3  0  0  0  0  0  0
  190.1330  178.1550  142.9570 C   0  0  0  0  0  3  0  0  0  0  0  0
  191.7300  179.4560  144.3220 C   0  0  0  0  0  1  0  0  0  0  0  0
  191.4820  178.1470  143.5950 C   0  0  0  0  0  2  0  0  0  0  0  0
  184.8530  179.5380  144.4760 C   0  0  0  0  0  2  0  0  0  0  0  0
  184.9750  178.4290  146.7450 C   0  0  0  0  0  2  0  0  0  0  0  0
  185.4960  178.4210  145.2880 C   0  0  2  0  0  3  0  0  0  0  0  0
  187.0240  178.5320  145.1650 C   0  0  0  0  0  2  0  0  0  0  0  0
  189.1370  176.8320  145.9740 Cl  0  0  0  0  0  0  0  0  0  0  0  0
  187.2720  177.9620  147.5410 C   0  0  0  0  0  3  0  0  0  0  0  0
  187.7320  177.8320  146.2940 C   0  0  0  0  0  0  0  0  0  0  0  0
  186.0490  178.7940  147.7770 C   0  0  0  0  0  2  0  0  0  0  0  0
  1 15  1  0  0  0  0
  1 13  1  0  0  0  0
  3 14  1  0  0  0  0
  4 17  1  1  0  0  0
  4  6  1  0  0  0  0
  5  2  1  6  0  0  0
  5  7  1  0  0  0  0
  6  2  1  1  0  0  0
  7 14  1  0  0  0  0
  8 10  1  1  0  0  0
  8  6  1  0  0  0  0
  8 12  1  0  0  0  0
 10  9  1  0  0  0  0
 11 21  1  6  0  0  0
 11  3  1  0  0  0  0
 12 16  1  0  0  0  0
 12  5  1  0  0  0  0
 13  4  1  0  0  0  0
 14 30  1  0  0  0  0
 15  9  1  0  0  0  0
 16 11  1  0  0  0  0
 16  5  1  0  0  0  0
 18 17  1  0  0  0  0
 19 20  1  0  0  0  0
 19 18  1  0  0  0  0
 21 24  1  0  0  0  0
 22 23  1  0  0  0  0
 23 21  1  0  0  0  0
 24 25  1  0  0  0  0
 25 26  1  0  0  0  0
 26 27  2  0  0  0  0
 27 29  1  0  0  0  0
 29 28  1  0  0  0  0
 30 32  1  0  0  0  0
 31 37  1  0  0  0  0
 32 31  1  0  0  0  0
 33 32  1  0  0  0  0
 33 36  1  0  0  0  0
 34 36  1  0  0  0  0
 35 37  1  0  0  0  0
 36 35  2  0  0  0  0
M  END
>  <MODEL>
5

>  <REMARK>
 VINA RESULT:      -5.2      4.620      7.927
  Name = 
  11 active torsions:
  status: ('A' for Active; 'I' for Inactive)
    1  A    between atoms: C_1  and  C_17
    2  A    between atoms: C_5  and  C_23
    3  A    between atoms: C_6  and  C_37
    4  A    between atoms: C_9  and  C_16
    5  A    between atoms: C_16  and  O_24
    6  A    between atoms: C_17  and  O_26
    7  A    between atoms: N_22  and  O_24
    8  A    between atoms: O_26  and  C_33
    9  A    between atoms: C_27  and  C_33
   10  A    between atoms: C_31  and  C_37
   11  A    between atoms: C_33  and  C_34
                            x       y       z     vdW  Elec       q    Type
                         _______ _______ _______ _____ _____    ______ ____

>  <TORSDO>
F 11

$$$$
=
 OpenBabel10272414543D

 37 41  0  0  1  0  0  0  0  0999 V2000
  196.0810  174.6650  135.9190 C   0  0  0  0  0  2  0  0  0  0  0  0
  191.5800  173.9370  135.9280 C   0  0  0  0  0  2  0  0  0  0  0  0
  188.4790  176.3660  137.7050 C   0  0  0  0  0  2  0  0  0  0  0  0
  193.9460  173.3910  136.2990 C   0  0  2  0  0  3  0  0  0  0  0  0
  190.7270  175.0300  136.4950 C   0  0  2  0  0  0  0  0  0  0  0  0
  192.9620  174.4260  135.9040 N   0  0  2  0  0  0  0  0  0  0  0  0
  189.5930  175.5970  135.6320 C   0  0  0  0  0  2  0  0  0  0  0  0
  193.0280  175.4740  136.8550 N   0  0  1  0  0  0  0  0  0  0  0  0
  194.3800  176.5230  134.6490 S   0  0  0  0  0  0  0  0  0  0  0  0
  193.9390  176.5490  136.4280 C   0  0  0  0  0  2  0  0  0  0  0  0
  189.7390  176.2230  138.5670 C   0  0  1  0  0  3  0  0  0  0  0  0
  191.7040  176.0730  136.9390 C   0  0  2  0  0  3  0  0  0  0  0  0
  195.2120  173.5090  135.4520 C   0  0  0  0  0  2  0  0  0  0  0  0
  188.8570  176.7530  136.2850 C   0  0  1  0  0  3  0  0  0  0  0  0
  196.0520  175.8300  134.9290 C   0  0  0  0  0  2  0  0  0  0  0  0
  190.8660  175.3390  137.9870 C   0  0  2  0  0  3  0  0  0  0  0  0
  193.4420  171.9400  136.2210 C   0  0  0  0  0  2  0  0  0  0  0  0
  194.3760  171.0490  136.8110 O   0  0  0  0  0  0  0  0  0  0  0  0
  194.2140  169.6940  136.6690 N   0  0  0  0  0  2  0  0  0  0  0  0
  194.1180  169.1930  135.5320 O   0  0  0  0  0  1  0  0  0  0  0  0
  190.2260  177.5310  139.2090 C   0  0  2  0  0  3  0  0  0  0  0  0
  192.6570  177.4320  140.4920 S   0  0  0  0  0  1  0  0  0  0  0  0
  190.8540  177.2200  140.5590 C   0  0  0  0  0  2  0  0  0  0  0  0
  189.1710  178.4370  139.3720 O   0  0  0  0  0  0  0  0  0  0  0  0
  188.7350  178.2650  140.6890 C   0  0  0  0  0  2  0  0  0  0  0  0
  187.2510  178.4110  140.7560 C   0  0  0  0  0  3  0  0  0  0  0  0
  186.6360  178.5660  141.9280 C   0  0  0  0  0  3  0  0  0  0  0  0
  184.6630  178.4170  143.4080 C   0  0  0  0  0  1  0  0  0  0  0  0
  185.1510  178.7030  142.0000 C   0  0  0  0  0  2  0  0  0  0  0  0
  187.6220  177.0910  135.4670 C   0  0  0  0  0  2  0  0  0  0  0  0
  185.3570  176.0400  135.0640 C   0  0  0  0  0  2  0  0  0  0  0  0
  186.3510  176.5720  136.1250 C   0  0  2  0  0  3  0  0  0  0  0  0
  185.7740  177.6720  137.0320 C   0  0  0  0  0  2  0  0  0  0  0  0
  183.6760  177.6820  138.9300 Cl  0  0  0  0  0  0  0  0  0  0  0  0
  183.4980  177.0900  136.3170 C   0  0  0  0  0  3  0  0  0  0  0  0
  184.3100  177.4620  137.3100 C   0  0  0  0  0  0  0  0  0  0  0  0
  184.0770  176.8770  134.9510 C   0  0  0  0  0  2  0  0  0  0  0  0
  2  5  1  0  0  0  0
  3 11  1  0  0  0  0
  4 17  1  6  0  0  0
  5  7  1  6  0  0  0
  5 12  1  0  0  0  0
  5 16  1  0  0  0  0
  6  2  1  1  0  0  0
  6  4  1  0  0  0  0
  6  8  1  0  0  0  0
  7 14  1  0  0  0  0
  8 10  1  6  0  0  0
  8 12  1  0  0  0  0
  9 15  1  0  0  0  0
  9 10  1  0  0  0  0
 11 21  1  6  0  0  0
 12 16  1  0  0  0  0
 13  1  1  0  0  0  0
 13  4  1  0  0  0  0
 14  3  1  0  0  0  0
 15  1  1  0  0  0  0
 16 11  1  0  0  0  0
 17 18  1  0  0  0  0
 19 18  1  0  0  0  0
 20 19  1  0  0  0  0
 21 24  1  0  0  0  0
 21 23  1  0  0  0  0
 22 23  1  0  0  0  0
 24 25  1  0  0  0  0
 25 26  1  0  0  0  0
 26 27  2  0  0  0  0
 27 29  1  0  0  0  0
 29 28  1  0  0  0  0
 30 32  1  0  0  0  0
 30 14  1  0  0  0  0
 31 32  1  0  0  0  0
 32 33  1  0  0  0  0
 33 36  1  0  0  0  0
 35 36  2  0  0  0  0
 36 34  1  0  0  0  0
 37 31  1  0  0  0  0
 37 35  1  0  0  0  0
M  END
>  <MODEL>
6

>  <REMARK>
 VINA RESULT:      -4.9      3.423      6.086
  Name = 
  11 active torsions:
  status: ('A' for Active; 'I' for Inactive)
    1  A    between atoms: C_1  and  C_17
    2  A    between atoms: C_5  and  C_23
    3  A    between atoms: C_6  and  C_37
    4  A    between atoms: C_9  and  C_16
    5  A    between atoms: C_16  and  O_24
    6  A    between atoms: C_17  and  O_26
    7  A    between atoms: N_22  and  O_24
    8  A    between atoms: O_26  and  C_33
    9  A    between atoms: C_27  and  C_33
   10  A    between atoms: C_31  and  C_37
   11  A    between atoms: C_33  and  C_34
                            x       y       z     vdW  Elec       q    Type
                         _______ _______ _______ _____ _____    ______ ____

>  <TORSDO>
F 11

$$$$
