=
 OpenBabel10272413293D

 32 36  0  0  1  0  0  0  0  0999 V2000
  187.7900  177.6790  147.0510 C   0  0  0  0  0  3  0  0  0  0  0  0
  185.4540  178.2870  142.3100 C   0  0  0  0  0  0  0  0  0  0  0  0
  180.9490  179.0170  143.7680 C   0  0  0  0  0  3  0  0  0  0  0  0
  180.5490  179.1380  142.4360 C   0  0  0  0  0  3  0  0  0  0  0  0
  187.2560  177.9080  143.8990 C   0  0  0  0  0  0  0  0  0  0  0  0
  184.9860  178.2780  144.6860 C   0  0  0  0  0  3  0  0  0  0  0  0
  186.6290  177.8830  146.4210 C   0  0  0  0  0  3  0  0  0  0  0  0
  182.2550  178.7780  144.0570 N   0  0  0  0  0  0  0  0  0  0  0  0
  184.5350  178.4070  143.3680 C   0  0  0  0  0  0  0  0  0  0  0  0
  183.1860  178.6530  143.0710 C   0  0  0  0  0  0  0  0  0  0  0  0
  183.7350  178.6480  140.7040 C   0  0  0  0  0  0  0  0  0  0  0  0
  189.1150  176.7900  145.1630 C   0  0  0  0  0  2  0  0  0  0  0  0
  186.3350  178.0380  144.9770 C   0  0  0  0  0  0  0  0  0  0  0  0
  188.7340  177.7240  144.0420 C   0  0  0  0  0  2  0  0  0  0  0  0
  189.1430  177.6090  146.4330 C   0  0  2  0  0  3  0  0  0  0  0  0
  181.4710  179.0140  141.4450 N   0  0  0  0  0  0  0  0  0  0  0  0
  182.7810  178.7750  141.7260 C   0  0  0  0  0  0  0  0  0  0  0  0
  186.7990  178.0470  142.5840 C   0  0  0  0  0  3  0  0  0  0  0  0
  185.0360  178.4120  141.0220 N   0  0  0  0  0  0  0  0  0  0  0  0
  190.1140  177.0040  147.4350 C   0  0  0  0  0  2  0  0  0  0  0  0
  191.4460  176.7400  146.8090 C   0  0  0  0  0  0  0  0  0  0  0  0
  191.8640  177.4590  145.9160 O   0  0  0  0  0  0  0  0  0  0  0  0
  192.2550  175.5730  147.2600 C   0  0  0  0  0  1  0  0  0  0  0  0
  183.3530  178.8030  139.2660 C   0  0  0  0  0  2  0  0  0  0  0  0
  183.1630  176.4220  138.4610 C   0  0  0  0  0  0  0  0  0  0  0  0
  184.9620  177.4700  137.6760 C   0  0  0  0  0  0  0  0  0  0  0  0
  185.0810  176.2860  137.1770 N   0  0  0  0  0  0  0  0  0  0  0  0
  183.9480  175.4750  137.6120 C   0  0  0  0  0  3  0  0  0  0  0  0
  185.8630  178.4570  137.4540 F   0  0  0  0  0  0  0  0  0  0  0  0
  183.7670  177.5980  138.4830 C   0  0  2  0  0  3  0  0  0  0  0  0
  181.9570  176.0850  139.1690 C   0  0  0  0  0  0  0  0  0  0  0  0
  180.9470  175.8030  139.7630 C   0  0  0  0  0  3  0  0  0  0  0  0
  2 18  2  0  0  0  0
  2  9  1  0  0  0  0
  3  8  1  0  0  0  0
  4  3  2  0  0  0  0
  5 14  1  0  0  0  0
  5 13  2  0  0  0  0
  6 13  1  0  0  0  0
  7  1  2  0  0  0  0
  9  6  2  0  0  0  0
 10  9  1  0  0  0  0
 10  8  2  0  0  0  0
 11 19  2  0  0  0  0
 11 17  1  0  0  0  0
 12 15  1  0  0  0  0
 13  7  1  0  0  0  0
 14 12  1  0  0  0  0
 15  1  1  0  0  0  0
 15 20  1  1  0  0  0
 16 17  2  0  0  0  0
 16  4  1  0  0  0  0
 17 10  1  0  0  0  0
 18  5  1  0  0  0  0
 19  2  1  0  0  0  0
 21 23  1  0  0  0  0
 21 20  1  0  0  0  0
 22 21  2  0  0  0  0
 24 11  1  0  0  0  0
 25 30  1  0  0  0  0
 25 31  1  0  0  0  0
 26 30  1  0  0  0  0
 27 28  1  0  0  0  0
 27 26  2  0  0  0  0
 28 25  2  0  0  0  0
 29 26  1  0  0  0  0
 30 24  1  1  0  0  0
 31 32  3  0  0  0  0
M  END
>  <MODEL>
1

>  <REMARK>
 VINA RESULT:      -9.8      0.000      0.000
  Name = 
  5 active torsions:
  status: ('A' for Active; 'I' for Inactive)
    1  A    between atoms: C_1  and  C_10
    2  A    between atoms: C_6  and  C_7
    3  A    between atoms: C_10  and  C_24
    4  A    between atoms: C_16  and  C_27
    5  A    between atoms: C_27  and  C_32
                            x       y       z     vdW  Elec       q    Type
                         _______ _______ _______ _____ _____    ______ ____

>  <TORSDO>
F 5

$$$$
=
 OpenBabel10272413293D

 32 36  0  0  1  0  0  0  0  0999 V2000
  187.7950  177.6980  147.0520 C   0  0  0  0  0  3  0  0  0  0  0  0
  185.4470  178.3170  142.3180 C   0  0  0  0  0  0  0  0  0  0  0  0
  180.9400  179.0160  143.7890 C   0  0  0  0  0  3  0  0  0  0  0  0
  180.5370  179.1400  142.4580 C   0  0  0  0  0  3  0  0  0  0  0  0
  187.2540  177.9400  143.9020 C   0  0  0  0  0  0  0  0  0  0  0  0
  184.9830  178.2940  144.6950 C   0  0  0  0  0  3  0  0  0  0  0  0
  186.6310  177.8990  146.4250 C   0  0  0  0  0  3  0  0  0  0  0  0
  182.2480  178.7820  144.0740 N   0  0  0  0  0  0  0  0  0  0  0  0
  184.5290  178.4270  143.3790 C   0  0  0  0  0  0  0  0  0  0  0  0
  183.1780  178.6670  143.0860 C   0  0  0  0  0  0  0  0  0  0  0  0
  183.7220  178.6770  140.7170 C   0  0  0  0  0  0  0  0  0  0  0  0
  189.1210  176.8250  145.1570 C   0  0  0  0  0  2  0  0  0  0  0  0
  186.3330  178.0600  144.9820 C   0  0  0  0  0  0  0  0  0  0  0  0
  188.7330  177.7640  144.0410 C   0  0  0  0  0  2  0  0  0  0  0  0
  189.1470  177.6390  146.4300 C   0  0  2  0  0  3  0  0  0  0  0  0
  181.4580  179.0260  141.4650 N   0  0  0  0  0  0  0  0  0  0  0  0
  182.7690  178.7940  141.7420 C   0  0  0  0  0  0  0  0  0  0  0  0
  186.7930  178.0830  142.5880 C   0  0  0  0  0  3  0  0  0  0  0  0
  185.0250  178.4460  141.0320 N   0  0  0  0  0  0  0  0  0  0  0  0
  190.1230  177.0340  147.4280 C   0  0  0  0  0  2  0  0  0  0  0  0
  191.4390  176.7330  146.7850 C   0  0  0  0  0  0  0  0  0  0  0  0
  191.8630  177.4360  145.8830 O   0  0  0  0  0  0  0  0  0  0  0  0
  192.2240  175.5480  147.2310 C   0  0  0  0  0  1  0  0  0  0  0  0
  183.3370  178.8370  139.2810 C   0  0  0  0  0  2  0  0  0  0  0  0
  184.2800  177.0140  137.8170 C   0  0  0  0  0  0  0  0  0  0  0  0
  182.2360  176.5620  138.5720 C   0  0  0  0  0  0  0  0  0  0  0  0
  182.5020  175.5360  137.8350 N   0  0  0  0  0  0  0  0  0  0  0  0
  183.8380  175.6960  137.2680 C   0  0  0  0  0  3  0  0  0  0  0  0
  181.0630  176.7080  139.2360 F   0  0  0  0  0  0  0  0  0  0  0  0
  183.3300  177.5100  138.5910 C   0  0  2  0  0  3  0  0  0  0  0  0
  185.5330  177.6510  137.5150 C   0  0  0  0  0  0  0  0  0  0  0  0
  186.5840  178.1860  137.2630 C   0  0  0  0  0  3  0  0  0  0  0  0
  2 18  2  0  0  0  0
  2  9  1  0  0  0  0
  3  8  1  0  0  0  0
  4  3  2  0  0  0  0
  5 14  1  0  0  0  0
  5 13  2  0  0  0  0
  6 13  1  0  0  0  0
  7  1  2  0  0  0  0
  9  6  2  0  0  0  0
 10  9  1  0  0  0  0
 10  8  2  0  0  0  0
 11 19  2  0  0  0  0
 11 17  1  0  0  0  0
 12 15  1  0  0  0  0
 13  7  1  0  0  0  0
 14 12  1  0  0  0  0
 15  1  1  0  0  0  0
 15 20  1  1  0  0  0
 16 17  2  0  0  0  0
 16  4  1  0  0  0  0
 17 10  1  0  0  0  0
 18  5  1  0  0  0  0
 19  2  1  0  0  0  0
 21 23  1  0  0  0  0
 21 20  1  0  0  0  0
 22 21  2  0  0  0  0
 24 11  1  0  0  0  0
 25 30  1  0  0  0  0
 26 30  1  0  0  0  0
 26 29  1  0  0  0  0
 27 26  2  0  0  0  0
 28 25  2  0  0  0  0
 28 27  1  0  0  0  0
 30 24  1  6  0  0  0
 31 25  1  0  0  0  0
 32 31  3  0  0  0  0
M  END
>  <MODEL>
2

>  <REMARK>
 VINA RESULT:      -9.7      1.158      1.855
  Name = 
  5 active torsions:
  status: ('A' for Active; 'I' for Inactive)
    1  A    between atoms: C_1  and  C_10
    2  A    between atoms: C_6  and  C_7
    3  A    between atoms: C_10  and  C_24
    4  A    between atoms: C_16  and  C_27
    5  A    between atoms: C_27  and  C_32
                            x       y       z     vdW  Elec       q    Type
                         _______ _______ _______ _____ _____    ______ ____

>  <TORSDO>
F 5

$$$$
=
 OpenBabel10272413293D

 32 36  0  0  1  0  0  0  0  0999 V2000
  187.5610  177.5780  146.6320 C   0  0  0  0  0  3  0  0  0  0  0  0
  185.3420  178.4630  141.8780 C   0  0  0  0  0  0  0  0  0  0  0  0
  180.8170  179.1970  143.2740 C   0  0  0  0  0  3  0  0  0  0  0  0
  180.4500  179.3910  141.9410 C   0  0  0  0  0  3  0  0  0  0  0  0
  187.1020  177.9730  143.4850 C   0  0  0  0  0  0  0  0  0  0  0  0
  184.8200  178.3430  144.2400 C   0  0  0  0  0  3  0  0  0  0  0  0
  186.4170  177.8330  145.9880 C   0  0  0  0  0  3  0  0  0  0  0  0
  182.1130  178.9210  143.5790 N   0  0  0  0  0  0  0  0  0  0  0  0
  184.4020  178.5460  142.9210 C   0  0  0  0  0  0  0  0  0  0  0  0
  183.0640  178.8290  142.6080 C   0  0  0  0  0  0  0  0  0  0  0  0
  183.6650  178.9330  140.2560 C   0  0  0  0  0  0  0  0  0  0  0  0
  188.9130  176.7610  144.7310 C   0  0  0  0  0  2  0  0  0  0  0  0
  186.1580  178.0650  144.5480 C   0  0  0  0  0  0  0  0  0  0  0  0
  188.5730  177.7570  143.6500 C   0  0  0  0  0  2  0  0  0  0  0  0
  188.9270  177.5150  146.0400 C   0  0  2  0  0  3  0  0  0  0  0  0
  181.3920  179.3010  140.9660 N   0  0  0  0  0  0  0  0  0  0  0  0
  182.6910  179.0260  141.2620 C   0  0  0  0  0  0  0  0  0  0  0  0
  186.6760  178.1860  142.1680 C   0  0  0  0  0  3  0  0  0  0  0  0
  184.9550  178.6590  140.5900 N   0  0  0  0  0  0  0  0  0  0  0  0
  189.8640  176.8430  147.0310 C   0  0  0  0  0  2  0  0  0  0  0  0
  191.2640  176.7940  146.5070 C   0  0  0  0  0  0  0  0  0  0  0  0
  191.6730  177.6620  145.7540 O   0  0  0  0  0  0  0  0  0  0  0  0
  192.1530  175.6600  146.8830 C   0  0  0  0  0  1  0  0  0  0  0  0
  183.3190  179.1670  138.8200 C   0  0  0  0  0  2  0  0  0  0  0  0
  181.4210  178.2110  137.4620 C   0  0  0  0  0  0  0  0  0  0  0  0
  182.4290  176.6980  138.7440 C   0  0  0  0  0  0  0  0  0  0  0  0
  181.4920  176.0140  138.1780 N   0  0  0  0  0  0  0  0  0  0  0  0
  180.7390  176.8940  137.2880 C   0  0  0  0  0  3  0  0  0  0  0  0
  183.3010  176.1590  139.6310 F   0  0  0  0  0  0  0  0  0  0  0  0
  182.4230  178.0800  138.3160 C   0  0  2  0  0  3  0  0  0  0  0  0
  181.0220  179.4350  136.8200 C   0  0  0  0  0  0  0  0  0  0  0  0
  180.6870  180.4610  136.2820 C   0  0  0  0  0  3  0  0  0  0  0  0
  2 18  2  0  0  0  0
  2  9  1  0  0  0  0
  3  8  1  0  0  0  0
  4  3  2  0  0  0  0
  5 14  1  0  0  0  0
  5 13  2  0  0  0  0
  6 13  1  0  0  0  0
  7  1  2  0  0  0  0
  9  6  2  0  0  0  0
 10  9  1  0  0  0  0
 10  8  2  0  0  0  0
 11 19  2  0  0  0  0
 11 17  1  0  0  0  0
 12 15  1  0  0  0  0
 13  7  1  0  0  0  0
 14 12  1  0  0  0  0
 15  1  1  0  0  0  0
 15 20  1  1  0  0  0
 16 17  2  0  0  0  0
 16  4  1  0  0  0  0
 17 10  1  0  0  0  0
 18  5  1  0  0  0  0
 19  2  1  0  0  0  0
 21 23  1  0  0  0  0
 21 20  1  0  0  0  0
 22 21  2  0  0  0  0
 24 11  1  0  0  0  0
 25 30  1  0  0  0  0
 26 29  1  0  0  0  0
 27 26  2  0  0  0  0
 28 25  2  0  0  0  0
 28 27  1  0  0  0  0
 30 26  1  0  0  0  0
 30 24  1  1  0  0  0
 31 25  1  0  0  0  0
 32 31  3  0  0  0  0
M  END
>  <MODEL>
3

>  <REMARK>
 VINA RESULT:      -9.0      1.602      1.917
  Name = 
  5 active torsions:
  status: ('A' for Active; 'I' for Inactive)
    1  A    between atoms: C_1  and  C_10
    2  A    between atoms: C_6  and  C_7
    3  A    between atoms: C_10  and  C_24
    4  A    between atoms: C_16  and  C_27
    5  A    between atoms: C_27  and  C_32
                            x       y       z     vdW  Elec       q    Type
                         _______ _______ _______ _____ _____    ______ ____

>  <TORSDO>
F 5

$$$$
=
 OpenBabel10272413293D

 32 36  0  0  1  0  0  0  0  0999 V2000
  191.2330  176.4940  144.9560 C   0  0  0  0  0  3  0  0  0  0  0  0
  188.5990  177.7580  140.5110 C   0  0  0  0  0  0  0  0  0  0  0  0
  191.7530  176.1630  137.2760 C   0  0  0  0  0  3  0  0  0  0  0  0
  190.9000  176.5830  136.2540 C   0  0  0  0  0  3  0  0  0  0  0  0
  189.0230  177.5660  142.8980 C   0  0  0  0  0  0  0  0  0  0  0  0
  190.6520  176.7390  141.2940 C   0  0  0  0  0  3  0  0  0  0  0  0
  191.2760  176.4890  143.6200 C   0  0  0  0  0  3  0  0  0  0  0  0
  191.3910  176.3530  138.5720 N   0  0  0  0  0  0  0  0  0  0  0  0
  189.8320  177.1410  140.2340 C   0  0  0  0  0  0  0  0  0  0  0  0
  190.2080  176.9460  138.8960 C   0  0  0  0  0  0  0  0  0  0  0  0
  188.1260  177.9800  138.1890 C   0  0  0  0  0  0  0  0  0  0  0  0
  189.4610  178.1840  145.2930 C   0  0  0  0  0  2  0  0  0  0  0  0
  190.2690  176.9320  142.6270 C   0  0  0  0  0  0  0  0  0  0  0  0
  188.4390  177.7800  144.2590 C   0  0  0  0  0  2  0  0  0  0  0  0
  190.0900  176.9130  145.8150 C   0  0  2  0  0  3  0  0  0  0  0  0
  189.7180  177.1760  136.5680 N   0  0  0  0  0  0  0  0  0  0  0  0
  189.3470  177.3690  137.8620 C   0  0  0  0  0  0  0  0  0  0  0  0
  188.2050  177.9580  141.8320 C   0  0  0  0  0  3  0  0  0  0  0  0
  187.7870  178.1540  139.4950 N   0  0  0  0  0  0  0  0  0  0  0  0
  190.5880  177.1120  147.2380 C   0  0  0  0  0  2  0  0  0  0  0  0
  189.5110  177.6640  148.1170 C   0  0  0  0  0  0  0  0  0  0  0  0
  189.7040  178.6740  148.7730 O   0  0  0  0  0  0  0  0  0  0  0  0
  188.2050  176.9550  148.2170 C   0  0  0  0  0  1  0  0  0  0  0  0
  187.1690  178.4130  137.1240 C   0  0  0  0  0  2  0  0  0  0  0  0
  184.8570  177.5540  137.6440 C   0  0  0  0  0  0  0  0  0  0  0  0
  186.0190  176.1940  136.3210 C   0  0  0  0  0  0  0  0  0  0  0  0
  184.9080  175.5570  136.4800 N   0  0  0  0  0  0  0  0  0  0  0  0
  184.0300  176.3470  137.3380 C   0  0  0  0  0  2  0  0  0  0  0  0
  187.0430  175.7150  135.5720 F   0  0  0  0  0  0  0  0  0  0  0  0
  186.0240  177.4560  137.0300 C   0  0  0  0  0  0  0  0  0  0  0  0
  184.4490  178.6330  138.5020 C   0  0  0  0  0  0  0  0  0  0  0  0
  184.1070  179.5390  139.2210 C   0  0  0  0  0  3  0  0  0  0  0  0
  1 15  1  0  0  0  0
  2 18  1  0  0  0  0
  3  8  1  0  0  0  0
  4 16  1  0  0  0  0
  4  3  2  0  0  0  0
  5 14  1  0  0  0  0
  6 13  2  0  0  0  0
  7  1  2  0  0  0  0
  8 10  2  0  0  0  0
  9  2  2  0  0  0  0
  9  6  1  0  0  0  0
 10  9  1  0  0  0  0
 11 19  2  0  0  0  0
 12 15  1  0  0  0  0
 13  5  1  0  0  0  0
 13  7  1  0  0  0  0
 14 12  1  0  0  0  0
 15 20  1  1  0  0  0
 16 17  2  0  0  0  0
 17 11  1  0  0  0  0
 17 10  1  0  0  0  0
 18  5  2  0  0  0  0
 19  2  1  0  0  0  0
 20 21  1  0  0  0  0
 21 23  1  0  0  0  0
 21 22  2  0  0  0  0
 24 11  1  0  0  0  0
 25 31  1  0  0  0  0
 26 27  2  0  0  0  0
 26 30  1  0  0  0  0
 27 28  1  0  0  0  0
 28 25  1  0  0  0  0
 29 26  1  0  0  0  0
 30 24  1  0  0  0  0
 30 25  2  0  0  0  0
 31 32  3  0  0  0  0
M  END
>  <MODEL>
4

>  <REMARK>
 VINA RESULT:      -8.8      3.172      5.612
  Name = 
  5 active torsions:
  status: ('A' for Active; 'I' for Inactive)
    1  A    between atoms: C_1  and  C_10
    2  A    between atoms: C_6  and  C_7
    3  A    between atoms: C_10  and  C_24
    4  A    between atoms: C_16  and  C_27
    5  A    between atoms: C_27  and  C_32
                            x       y       z     vdW  Elec       q    Type
                         _______ _______ _______ _____ _____    ______ ____

>  <TORSDO>
F 5

$$$$
=
 OpenBabel10272413293D

 32 36  0  0  1  0  0  0  0  0999 V2000
  190.9270  177.1280  145.0520 C   0  0  0  0  0  3  0  0  0  0  0  0
  186.8390  178.1520  141.8050 C   0  0  0  0  0  0  0  0  0  0  0  0
  189.2220  178.4840  137.6610 C   0  0  0  0  0  3  0  0  0  0  0  0
  188.0190  178.7450  137.0040 C   0  0  0  0  0  3  0  0  0  0  0  0
  187.9890  177.6790  143.8960 C   0  0  0  0  0  0  0  0  0  0  0  0
  189.2400  177.8350  141.8170 C   0  0  0  0  0  3  0  0  0  0  0  0
  190.5710  177.3940  143.7920 C   0  0  0  0  0  3  0  0  0  0  0  0
  189.2200  178.2750  139.0040 N   0  0  0  0  0  0  0  0  0  0  0  0
  188.0620  178.0990  141.1110 C   0  0  0  0  0  0  0  0  0  0  0  0
  188.0650  178.3160  139.7250 C   0  0  0  0  0  0  0  0  0  0  0  0
  185.6560  178.6220  139.7940 C   0  0  0  0  0  0  0  0  0  0  0  0
  188.9070  177.9470  146.2180 C   0  0  0  0  0  2  0  0  0  0  0  0
  189.2300  177.6140  143.2000 C   0  0  0  0  0  0  0  0  0  0  0  0
  187.7990  177.3980  145.3530 C   0  0  0  0  0  2  0  0  0  0  0  0
  190.0190  176.9240  146.2150 C   0  0  2  0  0  3  0  0  0  0  0  0
  186.8620  178.7880  137.7140 N   0  0  0  0  0  0  0  0  0  0  0  0
  186.8500  178.5790  139.0590 C   0  0  0  0  0  0  0  0  0  0  0  0
  186.8140  177.9370  143.1810 C   0  0  0  0  0  3  0  0  0  0  0  0
  185.6830  178.4060  141.1380 N   0  0  0  0  0  0  0  0  0  0  0  0
  190.8300  177.0160  147.4980 C   0  0  0  0  0  2  0  0  0  0  0  0
  191.9920  176.0750  147.4750 C   0  0  0  0  0  0  0  0  0  0  0  0
  192.8790  176.1660  148.3080 O   0  0  0  0  0  0  0  0  0  0  0  0
  192.0810  175.0390  146.4080 C   0  0  0  0  0  1  0  0  0  0  0  0
  184.3420  178.8660  139.1230 C   0  0  0  0  0  2  0  0  0  0  0  0
  182.5460  177.2860  139.9200 C   0  0  0  0  0  0  0  0  0  0  0  0
  183.7310  176.4780  138.2180 C   0  0  0  0  0  0  0  0  0  0  0  0
  182.9120  175.5150  138.4800 N   0  0  0  0  0  0  0  0  0  0  0  0
  182.0550  175.9130  139.5920 C   0  0  0  0  0  2  0  0  0  0  0  0
  184.6590  176.4100  137.2330 F   0  0  0  0  0  0  0  0  0  0  0  0
  183.5280  177.6110  139.0960 C   0  0  0  0  0  0  0  0  0  0  0  0
  182.0440  178.1050  140.9910 C   0  0  0  0  0  0  0  0  0  0  0  0
  181.6230  178.7900  141.8880 C   0  0  0  0  0  3  0  0  0  0  0  0
  1 15  1  0  0  0  0
  2 18  1  0  0  0  0
  3  8  1  0  0  0  0
  4  3  2  0  0  0  0
  4 16  1  0  0  0  0
  5 14  1  0  0  0  0
  6 13  2  0  0  0  0
  7  1  2  0  0  0  0
  8 10  2  0  0  0  0
  9  2  2  0  0  0  0
  9  6  1  0  0  0  0
 10  9  1  0  0  0  0
 11 19  2  0  0  0  0
 13  7  1  0  0  0  0
 13  5  1  0  0  0  0
 14 12  1  0  0  0  0
 15 12  1  0  0  0  0
 15 20  1  1  0  0  0
 16 17  2  0  0  0  0
 17 10  1  0  0  0  0
 17 11  1  0  0  0  0
 18  5  2  0  0  0  0
 19  2  1  0  0  0  0
 21 20  1  0  0  0  0
 21 22  2  0  0  0  0
 23 21  1  0  0  0  0
 24 11  1  0  0  0  0
 25 31  1  0  0  0  0
 26 27  2  0  0  0  0
 26 30  1  0  0  0  0
 27 28  1  0  0  0  0
 28 25  1  0  0  0  0
 29 26  1  0  0  0  0
 30 24  1  0  0  0  0
 30 25  2  0  0  0  0
 31 32  3  0  0  0  0
M  END
>  <MODEL>
5

>  <REMARK>
 VINA RESULT:      -8.7      2.060      4.090
  Name = 
  5 active torsions:
  status: ('A' for Active; 'I' for Inactive)
    1  A    between atoms: C_1  and  C_10
    2  A    between atoms: C_6  and  C_7
    3  A    between atoms: C_10  and  C_24
    4  A    between atoms: C_16  and  C_27
    5  A    between atoms: C_27  and  C_32
                            x       y       z     vdW  Elec       q    Type
                         _______ _______ _______ _____ _____    ______ ____

>  <TORSDO>
F 5

$$$$
=
 OpenBabel10272413293D

 32 36  0  0  1  0  0  0  0  0999 V2000
  191.2320  176.4760  144.8370 C   0  0  0  0  0  3  0  0  0  0  0  0
  188.6200  177.7600  140.3840 C   0  0  0  0  0  0  0  0  0  0  0  0
  191.7570  176.1110  137.1590 C   0  0  0  0  0  3  0  0  0  0  0  0
  190.9100  176.5380  136.1340 C   0  0  0  0  0  3  0  0  0  0  0  0
  189.0390  177.5710  142.7730 C   0  0  0  0  0  0  0  0  0  0  0  0
  190.6580  176.7160  141.1730 C   0  0  0  0  0  3  0  0  0  0  0  0
  191.2760  176.4660  143.5010 C   0  0  0  0  0  3  0  0  0  0  0  0
  191.3950  176.3100  138.4540 N   0  0  0  0  0  0  0  0  0  0  0  0
  189.8450  177.1250  140.1110 C   0  0  0  0  0  0  0  0  0  0  0  0
  190.2200  176.9200  138.7750 C   0  0  0  0  0  0  0  0  0  0  0  0
  188.1530  177.9790  138.0600 C   0  0  0  0  0  0  0  0  0  0  0  0
  189.4830  178.1910  145.1650 C   0  0  0  0  0  2  0  0  0  0  0  0
  190.2760  176.9180  142.5050 C   0  0  0  0  0  0  0  0  0  0  0  0
  188.4560  177.7960  144.1320 C   0  0  0  0  0  2  0  0  0  0  0  0
  190.0940  176.9140  145.6930 C   0  0  2  0  0  3  0  0  0  0  0  0
  189.7360  177.1480  136.4440 N   0  0  0  0  0  0  0  0  0  0  0  0
  189.3660  177.3500  137.7380 C   0  0  0  0  0  0  0  0  0  0  0  0
  188.2280  177.9690  141.7040 C   0  0  0  0  0  3  0  0  0  0  0  0
  187.8150  178.1620  139.3660 N   0  0  0  0  0  0  0  0  0  0  0  0
  190.5920  177.1110  147.1160 C   0  0  0  0  0  2  0  0  0  0  0  0
  189.5090  177.6370  148.0020 C   0  0  0  0  0  0  0  0  0  0  0  0
  189.6910  178.6390  148.6740 O   0  0  0  0  0  0  0  0  0  0  0  0
  188.2100  176.9140  148.0890 C   0  0  0  0  0  1  0  0  0  0  0  0
  187.2030  178.4220  136.9930 C   0  0  0  0  0  2  0  0  0  0  0  0
  185.5870  176.5730  136.4190 C   0  0  0  0  0  0  0  0  0  0  0  0
  184.7600  178.0390  137.8750 C   0  0  0  0  0  0  0  0  0  0  0  0
  183.7770  177.2210  137.7030 N   0  0  0  0  0  0  0  0  0  0  0  0
  184.1850  176.1850  136.7590 C   0  0  0  0  0  3  0  0  0  0  0  0
  184.6900  179.1140  138.6970 F   0  0  0  0  0  0  0  0  0  0  0  0
  185.9180  177.6630  137.0910 C   0  0  2  0  0  3  0  0  0  0  0  0
  186.4270  175.8810  135.4790 C   0  0  0  0  0  0  0  0  0  0  0  0
  187.1310  175.3000  134.6910 C   0  0  0  0  0  3  0  0  0  0  0  0
  1 15  1  0  0  0  0
  2 18  1  0  0  0  0
  3  8  1  0  0  0  0
  4 16  1  0  0  0  0
  4  3  2  0  0  0  0
  5 14  1  0  0  0  0
  6 13  2  0  0  0  0
  7  1  2  0  0  0  0
  8 10  2  0  0  0  0
  9  2  2  0  0  0  0
  9  6  1  0  0  0  0
 10  9  1  0  0  0  0
 11 19  2  0  0  0  0
 12 15  1  0  0  0  0
 13  5  1  0  0  0  0
 13  7  1  0  0  0  0
 14 12  1  0  0  0  0
 15 20  1  1  0  0  0
 16 17  2  0  0  0  0
 17 11  1  0  0  0  0
 17 10  1  0  0  0  0
 18  5  2  0  0  0  0
 19  2  1  0  0  0  0
 20 21  1  0  0  0  0
 21 23  1  0  0  0  0
 21 22  2  0  0  0  0
 24 11  1  0  0  0  0
 25 28  2  0  0  0  0
 25 30  1  0  0  0  0
 26 29  1  0  0  0  0
 27 26  2  0  0  0  0
 28 27  1  0  0  0  0
 30 24  1  6  0  0  0
 30 26  1  0  0  0  0
 31 25  1  0  0  0  0
 32 31  3  0  0  0  0
M  END
>  <MODEL>
6

>  <REMARK>
 VINA RESULT:      -8.6      3.313      5.804
  Name = 
  5 active torsions:
  status: ('A' for Active; 'I' for Inactive)
    1  A    between atoms: C_1  and  C_10
    2  A    between atoms: C_6  and  C_7
    3  A    between atoms: C_10  and  C_24
    4  A    between atoms: C_16  and  C_27
    5  A    between atoms: C_27  and  C_32
                            x       y       z     vdW  Elec       q    Type
                         _______ _______ _______ _____ _____    ______ ____

>  <TORSDO>
F 5

$$$$
=
 OpenBabel10272413293D

 32 36  0  0  1  0  0  0  0  0999 V2000
  187.3140  177.6550  145.8820 C   0  0  0  0  0  3  0  0  0  0  0  0
  184.8580  178.3910  141.2200 C   0  0  0  0  0  0  0  0  0  0  0  0
  180.4730  179.4580  142.8300 C   0  0  0  0  0  3  0  0  0  0  0  0
  180.0350  179.5950  141.5110 C   0  0  0  0  0  3  0  0  0  0  0  0
  186.6850  177.8950  142.7490 C   0  0  0  0  0  0  0  0  0  0  0  0
  184.4770  178.4350  143.6120 C   0  0  0  0  0  3  0  0  0  0  0  0
  186.1480  177.9370  145.2920 C   0  0  0  0  0  3  0  0  0  0  0  0
  181.7680  179.1270  143.0750 N   0  0  0  0  0  0  0  0  0  0  0  0
  183.9890  178.5860  142.3090 C   0  0  0  0  0  0  0  0  0  0  0  0
  182.6520  178.9260  142.0580 C   0  0  0  0  0  0  0  0  0  0  0  0
  183.1120  178.8620  139.6730 C   0  0  0  0  0  0  0  0  0  0  0  0
  188.5020  176.6550  143.9590 C   0  0  0  0  0  2  0  0  0  0  0  0
  185.8140  178.1010  143.8570 C   0  0  0  0  0  0  0  0  0  0  0  0
  188.1490  177.6060  142.8410 C   0  0  0  0  0  2  0  0  0  0  0  0
  188.6360  177.4810  145.2170 C   0  0  2  0  0  3  0  0  0  0  0  0
  180.9090  179.3970  140.4900 N   0  0  0  0  0  0  0  0  0  0  0  0
  182.2080  179.0660  140.7260 C   0  0  0  0  0  0  0  0  0  0  0  0
  186.1910  178.0560  141.4490 C   0  0  0  0  0  3  0  0  0  0  0  0
  184.4040  178.5340  139.9470 N   0  0  0  0  0  0  0  0  0  0  0  0
  189.5950  176.8160  146.1910 C   0  0  0  0  0  2  0  0  0  0  0  0
  191.0180  177.0320  145.7840 C   0  0  0  0  0  0  0  0  0  0  0  0
  191.3250  177.9880  145.0910 O   0  0  0  0  0  0  0  0  0  0  0  0
  192.0620  176.0560  146.2030 C   0  0  0  0  0  1  0  0  0  0  0  0
  182.6920  179.0320  138.2480 C   0  0  0  0  0  2  0  0  0  0  0  0
  183.2430  176.9490  136.9380 C   0  0  0  0  0  0  0  0  0  0  0  0
  181.1170  177.0380  137.5870 C   0  0  0  0  0  0  0  0  0  0  0  0
  181.1660  175.9330  136.9210 N   0  0  0  0  0  0  0  0  0  0  0  0
  182.5280  175.7390  136.4300 C   0  0  0  0  0  3  0  0  0  0  0  0
  179.9820  177.4970  138.1690 F   0  0  0  0  0  0  0  0  0  0  0  0
  182.4020  177.7020  137.6260 C   0  0  2  0  0  3  0  0  0  0  0  0
  184.6250  177.2540  136.6820 C   0  0  0  0  0  0  0  0  0  0  0  0
  185.7830  177.5110  136.4680 C   0  0  0  0  0  3  0  0  0  0  0  0
  2 18  2  0  0  0  0
  2  9  1  0  0  0  0
  3  8  1  0  0  0  0
  4  3  2  0  0  0  0
  5 14  1  0  0  0  0
  5 13  2  0  0  0  0
  6 13  1  0  0  0  0
  7  1  2  0  0  0  0
  9  6  2  0  0  0  0
 10  9  1  0  0  0  0
 10  8  2  0  0  0  0
 11 19  2  0  0  0  0
 11 17  1  0  0  0  0
 12 15  1  0  0  0  0
 13  7  1  0  0  0  0
 14 12  1  0  0  0  0
 15  1  1  0  0  0  0
 15 20  1  1  0  0  0
 16 17  2  0  0  0  0
 16  4  1  0  0  0  0
 17 10  1  0  0  0  0
 18  5  1  0  0  0  0
 19  2  1  0  0  0  0
 21 20  1  0  0  0  0
 21 23  1  0  0  0  0
 22 21  2  0  0  0  0
 24 11  1  0  0  0  0
 25 30  1  0  0  0  0
 26 30  1  0  0  0  0
 26 29  1  0  0  0  0
 27 26  2  0  0  0  0
 28 27  1  0  0  0  0
 28 25  2  0  0  0  0
 30 24  1  6  0  0  0
 31 25  1  0  0  0  0
 32 31  3  0  0  0  0
M  END
>  <MODEL>
7

>  <REMARK>
 VINA RESULT:      -8.4      1.710      2.259
  Name = 
  5 active torsions:
  status: ('A' for Active; 'I' for Inactive)
    1  A    between atoms: C_1  and  C_10
    2  A    between atoms: C_6  and  C_7
    3  A    between atoms: C_10  and  C_24
    4  A    between atoms: C_16  and  C_27
    5  A    between atoms: C_27  and  C_32
                            x       y       z     vdW  Elec       q    Type
                         _______ _______ _______ _____ _____    ______ ____

>  <TORSDO>
F 5

$$$$
=
 OpenBabel10272413293D

 32 36  0  0  1  0  0  0  0  0999 V2000
  181.7370  179.2170  143.3990 C   0  0  0  0  0  3  0  0  0  0  0  0
  186.7780  177.6950  144.1590 C   0  0  0  0  0  0  0  0  0  0  0  0
  187.1070  178.4760  148.8760 C   0  0  0  0  0  3  0  0  0  0  0  0
  188.4320  178.0380  148.8440 C   0  0  0  0  0  3  0  0  0  0  0  0
  184.7210  178.1410  142.9400 C   0  0  0  0  0  0  0  0  0  0  0  0
  184.8400  178.5490  145.3340 C   0  0  0  0  0  3  0  0  0  0  0  0
  182.7180  179.0900  144.2980 C   0  0  0  0  0  3  0  0  0  0  0  0
  186.3800  178.4970  147.7270 N   0  0  0  0  0  0  0  0  0  0  0  0
  186.1700  178.1190  145.3550 C   0  0  0  0  0  0  0  0  0  0  0  0
  186.9200  178.0990  146.5410 C   0  0  0  0  0  0  0  0  0  0  0  0
  188.8210  177.2430  145.2940 C   0  0  0  0  0  0  0  0  0  0  0  0
  183.0850  179.1560  141.3280 C   0  0  0  0  0  2  0  0  0  0  0  0
  184.0950  178.5620  144.1480 C   0  0  0  0  0  0  0  0  0  0  0  0
  184.0460  178.0280  141.6100 C   0  0  0  0  0  2  0  0  0  0  0  0
  181.7690  178.7880  141.9730 C   0  0  2  0  0  3  0  0  0  0  0  0
  188.9790  177.6390  147.6660 N   0  0  0  0  0  0  0  0  0  0  0  0
  188.2590  177.6560  146.5120 C   0  0  0  0  0  0  0  0  0  0  0  0
  186.0500  177.7040  142.9720 C   0  0  0  0  0  3  0  0  0  0  0  0
  188.0700  177.2720  144.1600 N   0  0  0  0  0  0  0  0  0  0  0  0
  180.6130  179.4450  141.2340 C   0  0  0  0  0  2  0  0  0  0  0  0
  180.3380  178.7560  139.9350 C   0  0  0  0  0  0  0  0  0  0  0  0
  180.2400  179.3990  138.9030 O   0  0  0  0  0  0  0  0  0  0  0  0
  180.1510  177.2790  139.9080 C   0  0  0  0  0  1  0  0  0  0  0  0
  190.2270  176.7370  145.2230 C   0  0  0  0  0  2  0  0  0  0  0  0
  191.2730  177.9470  143.2750 C   0  0  0  0  0  0  0  0  0  0  0  0
  190.7190  175.8450  142.8040 C   0  0  0  0  0  0  0  0  0  0  0  0
  191.1940  176.2730  141.6820 N   0  0  0  0  0  0  0  0  0  0  0  0
  191.6090  177.6630  141.8470 C   0  0  0  0  0  3  0  0  0  0  0  0
  190.2480  174.5850  142.9710 F   0  0  0  0  0  0  0  0  0  0  0  0
  190.7580  176.8640  143.8310 C   0  0  2  0  0  3  0  0  0  0  0  0
  191.4550  179.2170  143.9250 C   0  0  0  0  0  0  0  0  0  0  0  0
  191.6070  180.2820  144.4710 C   0  0  0  0  0  3  0  0  0  0  0  0
  1  7  2  0  0  0  0
  2 19  2  0  0  0  0
  2  9  1  0  0  0  0
  4  3  1  0  0  0  0
  5 18  2  0  0  0  0
  5 13  1  0  0  0  0
  6  9  1  0  0  0  0
  8  3  2  0  0  0  0
  9 10  2  0  0  0  0
 10  8  1  0  0  0  0
 11 17  2  0  0  0  0
 12 14  1  0  0  0  0
 12 15  1  0  0  0  0
 13  7  1  0  0  0  0
 13  6  2  0  0  0  0
 14  5  1  0  0  0  0
 15 20  1  6  0  0  0
 15  1  1  0  0  0  0
 16  4  2  0  0  0  0
 17 10  1  0  0  0  0
 17 16  1  0  0  0  0
 18  2  1  0  0  0  0
 19 11  1  0  0  0  0
 21 20  1  0  0  0  0
 22 21  2  0  0  0  0
 23 21  1  0  0  0  0
 24 11  1  0  0  0  0
 25 30  1  0  0  0  0
 25 31  1  0  0  0  0
 26 29  1  0  0  0  0
 26 30  1  0  0  0  0
 27 28  1  0  0  0  0
 27 26  2  0  0  0  0
 28 25  2  0  0  0  0
 30 24  1  6  0  0  0
 31 32  3  0  0  0  0
M  END
>  <MODEL>
8

>  <REMARK>
 VINA RESULT:      -8.3      4.029      8.307
  Name = 
  5 active torsions:
  status: ('A' for Active; 'I' for Inactive)
    1  A    between atoms: C_1  and  C_10
    2  A    between atoms: C_6  and  C_7
    3  A    between atoms: C_10  and  C_24
    4  A    between atoms: C_16  and  C_27
    5  A    between atoms: C_27  and  C_32
                            x       y       z     vdW  Elec       q    Type
                         _______ _______ _______ _____ _____    ______ ____

>  <TORSDO>
F 5

$$$$
=
 OpenBabel10272413293D

 32 36  0  0  1  0  0  0  0  0999 V2000
  186.5950  177.6080  146.5550 C   0  0  0  0  0  3  0  0  0  0  0  0
  185.9860  178.4120  141.3310 C   0  0  0  0  0  0  0  0  0  0  0  0
  181.2310  178.9850  141.1980 C   0  0  0  0  0  3  0  0  0  0  0  0
  181.3030  179.1650  139.8160 C   0  0  0  0  0  3  0  0  0  0  0  0
  187.1550  177.9860  143.4220 C   0  0  0  0  0  0  0  0  0  0  0  0
  184.7400  178.2740  143.4040 C   0  0  0  0  0  3  0  0  0  0  0  0
  185.7100  177.8230  145.5770 C   0  0  0  0  0  3  0  0  0  0  0  0
  182.3690  178.7560  141.9040 N   0  0  0  0  0  0  0  0  0  0  0  0
  184.7590  178.4620  142.0180 C   0  0  0  0  0  0  0  0  0  0  0  0
  183.5830  178.6970  141.2900 C   0  0  0  0  0  0  0  0  0  0  0  0
  184.9020  178.8220  139.2530 C   0  0  0  0  0  0  0  0  0  0  0  0
  188.5120  176.8390  145.1960 C   0  0  0  0  0  2  0  0  0  0  0  0
  185.9180  178.0450  144.1260 C   0  0  0  0  0  0  0  0  0  0  0  0
  188.5020  177.8220  144.0510 C   0  0  0  0  0  2  0  0  0  0  0  0
  188.0800  177.5940  146.4320 C   0  0  2  0  0  3  0  0  0  0  0  0
  182.5100  179.1080  139.1940 N   0  0  0  0  0  0  0  0  0  0  0  0
  183.6540  178.8800  139.8930 C   0  0  0  0  0  0  0  0  0  0  0  0
  187.1660  178.1830  142.0360 C   0  0  0  0  0  3  0  0  0  0  0  0
  186.0260  178.5940  139.9850 N   0  0  0  0  0  0  0  0  0  0  0  0
  188.6730  176.9570  147.6790 C   0  0  0  0  0  2  0  0  0  0  0  0
  189.9310  177.6490  148.0960 C   0  0  0  0  0  0  0  0  0  0  0  0
  189.8870  178.7460  148.6280 O   0  0  0  0  0  0  0  0  0  0  0  0
  191.2490  177.0080  147.8310 C   0  0  0  0  0  1  0  0  0  0  0  0
  185.0260  179.0430  137.7780 C   0  0  0  0  0  2  0  0  0  0  0  0
  186.7510  177.5300  136.7330 C   0  0  0  0  0  0  0  0  0  0  0  0
  184.6900  176.6970  136.6480 C   0  0  0  0  0  0  0  0  0  0  0  0
  185.3870  175.7970  136.0400 N   0  0  0  0  0  0  0  0  0  0  0  0
  186.7860  176.2150  136.0250 C   0  0  0  0  0  3  0  0  0  0  0  0
  183.3490  176.5970  136.8230 F   0  0  0  0  0  0  0  0  0  0  0  0
  185.5100  177.7990  137.1040 C   0  0  2  0  0  3  0  0  0  0  0  0
  187.8920  178.3810  136.9440 C   0  0  0  0  0  0  0  0  0  0  0  0
  188.8470  179.0940  137.1200 C   0  0  0  0  0  3  0  0  0  0  0  0
  2  9  2  0  0  0  0
  2 18  1  0  0  0  0
  3  8  1  0  0  0  0
  4  3  2  0  0  0  0
  5 14  1  0  0  0  0
  5 13  1  0  0  0  0
  6 13  2  0  0  0  0
  7  1  2  0  0  0  0
  9  6  1  0  0  0  0
 10  8  2  0  0  0  0
 10  9  1  0  0  0  0
 11 17  1  0  0  0  0
 11 19  2  0  0  0  0
 12 15  1  0  0  0  0
 13  7  1  0  0  0  0
 14 12  1  0  0  0  0
 15  1  1  0  0  0  0
 15 20  1  1  0  0  0
 16  4  1  0  0  0  0
 16 17  2  0  0  0  0
 17 10  1  0  0  0  0
 18  5  2  0  0  0  0
 19  2  1  0  0  0  0
 20 21  1  0  0  0  0
 21 22  2  0  0  0  0
 23 21  1  0  0  0  0
 24 11  1  0  0  0  0
 25 31  1  0  0  0  0
 25 30  1  0  0  0  0
 26 29  1  0  0  0  0
 26 30  1  0  0  0  0
 27 26  2  0  0  0  0
 28 27  1  0  0  0  0
 28 25  2  0  0  0  0
 30 24  1  6  0  0  0
 31 32  3  0  0  0  0
M  END
>  <MODEL>
9

>  <REMARK>
 VINA RESULT:      -8.2      1.747      2.795
  Name = 
  5 active torsions:
  status: ('A' for Active; 'I' for Inactive)
    1  A    between atoms: C_1  and  C_10
    2  A    between atoms: C_6  and  C_7
    3  A    between atoms: C_10  and  C_24
    4  A    between atoms: C_16  and  C_27
    5  A    between atoms: C_27  and  C_32
                            x       y       z     vdW  Elec       q    Type
                         _______ _______ _______ _____ _____    ______ ____

>  <TORSDO>
F 5

$$$$
