=
 OpenBabel10272401043D

 27 33  0  0  1  0  0  0  0  0999 V2000
  186.2570  177.7980  144.8620 C   0  0  0  0  0  2  0  0  0  0  0  0
  187.5020  178.0610  142.6830 C   0  0  0  0  0  0  0  0  0  0  0  0
  189.3290  178.0600  144.3930 N   0  0  0  0  0  2  0  0  0  0  0  0
  190.4590  177.5190  139.3880 C   0  0  0  0  0  3  0  0  0  0  0  0
  193.0680  177.2350  140.1340 Cl  0  0  0  0  0  0  0  0  0  0  0  0
  187.3790  178.0140  141.3290 N   0  0  0  0  0  0  0  0  0  0  0  0
  190.8810  177.5820  141.8010 C   0  0  0  0  0  0  0  0  0  0  0  0
  189.5360  177.5490  146.8180 C   0  0  1  0  0  3  0  0  0  0  0  0
  191.8160  177.5140  142.9640 C   0  0  0  0  0  1  0  0  0  0  0  0
  188.8950  177.7260  148.1990 C   0  0  0  0  0  2  0  0  0  0  0  0
  189.5000  177.7520  141.9750 C   0  0  0  0  0  0  0  0  0  0  0  0
  186.3880  178.3840  143.5330 N   0  0  0  0  0  0  0  0  0  0  0  0
  191.3580  177.4600  140.4740 C   0  0  0  0  0  0  0  0  0  0  0  0
  188.6410  177.8090  140.9130 C   0  0  0  0  0  0  0  0  0  0  0  0
  187.2440  178.4320  145.8130 C   0  0  1  0  0  3  0  0  0  0  0  0
  188.7880  177.8980  143.1050 N   0  0  0  0  0  0  0  0  0  0  0  0
  188.8430  176.3680  146.1300 C   0  0  0  0  0  2  0  0  0  0  0  0
  189.0820  177.6980  139.5980 C   0  0  0  0  0  3  0  0  0  0  0  0
  187.7860  178.7680  148.2120 C   0  0  0  0  0  2  0  0  0  0  0  0
  186.7080  178.3410  147.2370 C   0  0  0  0  0  2  0  0  0  0  0  0
  188.6110  177.7700  145.6210 C   0  0  1  0  0  0  0  0  0  0  0  0
  182.2430  179.3950  143.3640 C   0  0  0  0  0  2  0  0  0  0  0  0
  185.2610  179.1170  142.9510 C   0  0  2  0  0  3  0  0  0  0  0  0
  184.5790  179.9910  143.9870 C   0  0  0  0  0  2  0  0  0  0  0  0
  183.3150  179.2740  144.4290 C   0  0  2  0  0  3  0  0  0  0  0  0
  183.0760  178.1320  143.4550 C   0  0  2  0  0  3  0  0  0  0  0  0
  184.1990  178.1660  142.4300 C   0  0  0  0  0  2  0  0  0  0  0  0
  2 16  1  0  0  0  0
  2 12  1  0  0  0  0
  3 21  1  0  0  0  0
  4 18  2  0  0  0  0
  4 13  1  0  0  0  0
  5 13  1  0  0  0  0
  6  2  2  0  0  0  0
  7 11  1  0  0  0  0
  7  9  1  0  0  0  0
  8 17  1  1  0  0  0
  8 10  1  0  0  0  0
 10 19  1  0  0  0  0
 11 16  1  0  0  0  0
 12  1  1  0  0  0  0
 13  7  2  0  0  0  0
 14  6  1  0  0  0  0
 14 11  2  0  0  0  0
 15  1  1  6  0  0  0
 15 20  1  0  0  0  0
 16  3  1  0  0  0  0
 18 14  1  0  0  0  0
 20 19  1  0  0  0  0
 21 15  1  0  0  0  0
 21 17  1  6  0  0  0
 21  8  1  0  0  0  0
 22 26  1  0  0  0  0
 23 27  1  1  0  0  0
 23 12  1  0  0  0  0
 23 24  1  0  0  0  0
 24 25  1  0  0  0  0
 25 22  1  6  0  0  0
 26 27  1  6  0  0  0
 26 25  1  0  0  0  0
M  END
>  <MODEL>
1

>  <REMARK>
 VINA RESULT:      -9.0      0.000      0.000
  Name = 
  1 active torsions:
  status: ('A' for Active; 'I' for Inactive)
    1  A    between atoms: C_9  and  N_15
                            x       y       z     vdW  Elec       q    Type
                         _______ _______ _______ _____ _____    ______ ____

>  <TORSDO>
F 1

$$$$
=
 OpenBabel10272401043D

 27 33  0  0  1  0  0  0  0  0999 V2000
  186.9160  177.6570  143.4360 C   0  0  0  0  0  2  0  0  0  0  0  0
  186.8550  178.2470  140.9830 C   0  0  0  0  0  0  0  0  0  0  0  0
  189.2740  177.7590  141.3960 N   0  0  0  0  0  2  0  0  0  0  0  0
  187.4900  178.1330  136.5690 C   0  0  0  0  0  3  0  0  0  0  0  0
  190.0040  177.4970  135.7220 Cl  0  0  0  0  0  0  0  0  0  0  0  0
  186.0320  178.4790  139.9250 N   0  0  0  0  0  0  0  0  0  0  0  0
  189.1200  177.6810  138.3420 C   0  0  0  0  0  0  0  0  0  0  0  0
  190.6310  176.7610  143.2270 C   0  0  1  0  0  3  0  0  0  0  0  0
  190.4980  177.3090  138.7840 C   0  0  0  0  0  1  0  0  0  0  0  0
  190.8530  176.7120  144.7420 C   0  0  0  0  0  2  0  0  0  0  0  0
  188.0920  177.9250  139.2640 C   0  0  0  0  0  0  0  0  0  0  0  0
  186.4300  178.4830  142.3360 N   0  0  0  0  0  0  0  0  0  0  0  0
  188.7990  177.7870  136.9680 C   0  0  0  0  0  0  0  0  0  0  0  0
  186.8290  178.2600  138.8630 C   0  0  0  0  0  0  0  0  0  0  0  0
  188.3500  178.0070  143.7600 C   0  0  1  0  0  3  0  0  0  0  0  0
  188.1180  177.9000  140.6070 N   0  0  0  0  0  0  0  0  0  0  0  0
  189.4850  175.8000  142.8920 C   0  0  0  0  0  2  0  0  0  0  0  0
  186.4860  178.3770  137.5200 C   0  0  0  0  0  3  0  0  0  0  0  0
  190.1200  177.8150  145.4890 C   0  0  0  0  0  2  0  0  0  0  0  0
  188.6360  177.6790  145.2200 C   0  0  0  0  0  2  0  0  0  0  0  0
  189.2710  177.2890  142.7700 C   0  0  1  0  0  0  0  0  0  0  0  0
  182.6610  179.4710  144.0810 C   0  0  0  0  0  2  0  0  0  0  0  0
  185.3150  179.4050  142.5630 C   0  0  2  0  0  3  0  0  0  0  0  0
  185.1400  179.7050  144.0400 C   0  0  0  0  0  2  0  0  0  0  0  0
  183.9740  178.8690  144.5400 C   0  0  2  0  0  3  0  0  0  0  0  0
  183.2620  178.3060  143.3200 C   0  0  2  0  0  3  0  0  0  0  0  0
  184.0040  178.8070  142.0900 C   0  0  0  0  0  2  0  0  0  0  0  0
  2 12  1  0  0  0  0
  3 21  1  0  0  0  0
  4 13  2  0  0  0  0
  4 18  1  0  0  0  0
  5 13  1  0  0  0  0
  6  2  2  0  0  0  0
  7  9  1  0  0  0  0
  7 11  2  0  0  0  0
  8 17  1  1  0  0  0
  8 10  1  0  0  0  0
 10 19  1  0  0  0  0
 11 16  1  0  0  0  0
 12 23  1  0  0  0  0
 12  1  1  0  0  0  0
 13  7  1  0  0  0  0
 14 11  1  0  0  0  0
 14  6  1  0  0  0  0
 15  1  1  6  0  0  0
 15 20  1  0  0  0  0
 16  2  1  0  0  0  0
 16  3  1  0  0  0  0
 18 14  2  0  0  0  0
 20 19  1  0  0  0  0
 21 17  1  6  0  0  0
 21  8  1  0  0  0  0
 21 15  1  0  0  0  0
 22 25  1  0  0  0  0
 23 27  1  1  0  0  0
 23 24  1  0  0  0  0
 25 24  1  6  0  0  0
 26 27  1  6  0  0  0
 26 22  1  0  0  0  0
 26 25  1  0  0  0  0
M  END
>  <MODEL>
2

>  <REMARK>
 VINA RESULT:      -8.7      1.939      2.961
  Name = 
  1 active torsions:
  status: ('A' for Active; 'I' for Inactive)
    1  A    between atoms: C_9  and  N_15
                            x       y       z     vdW  Elec       q    Type
                         _______ _______ _______ _____ _____    ______ ____

>  <TORSDO>
F 1

$$$$
=
 OpenBabel10272401043D

 27 33  0  0  1  0  0  0  0  0999 V2000
  185.8260  179.0770  140.0000 C   0  0  0  0  0  2  0  0  0  0  0  0
  185.1930  178.6530  142.4050 C   0  0  0  0  0  0  0  0  0  0  0  0
  187.4680  177.6270  142.2200 N   0  0  0  0  0  2  0  0  0  0  0  0
  185.3410  178.4040  146.8570 C   0  0  0  0  0  3  0  0  0  0  0  0
  187.6560  177.4520  147.9410 Cl  0  0  0  0  0  0  0  0  0  0  0  0
  184.2910  178.9540  143.3780 N   0  0  0  0  0  0  0  0  0  0  0  0
  187.0920  177.8020  145.2510 C   0  0  0  0  0  0  0  0  0  0  0  0
  189.3220  177.6270  140.5620 C   0  0  1  0  0  3  0  0  0  0  0  0
  188.4630  177.2930  144.9440 C   0  0  0  0  0  1  0  0  0  0  0  0
  189.6780  177.5260  139.0750 C   0  0  0  0  0  2  0  0  0  0  0  0
  186.2110  178.2010  144.2350 C   0  0  0  0  0  0  0  0  0  0  0  0
  184.8450  178.7000  141.0110 N   0  0  0  0  0  0  0  0  0  0  0  0
  186.6370  177.9140  146.5860 C   0  0  0  0  0  0  0  0  0  0  0  0
  184.9580  178.6720  144.5120 C   0  0  0  0  0  0  0  0  0  0  0  0
  186.8080  177.9510  139.7780 C   0  0  1  0  0  3  0  0  0  0  0  0
  186.3770  178.1960  142.9020 N   0  0  0  0  0  0  0  0  0  0  0  0
  188.9280  179.0800  140.8490 C   0  0  0  0  0  2  0  0  0  0  0  0
  184.4820  178.7880  145.8140 C   0  0  0  0  0  3  0  0  0  0  0  0
  188.5160  177.0560  138.2150 C   0  0  0  0  0  2  0  0  0  0  0  0
  187.3720  178.0390  138.3660 C   0  0  0  0  0  2  0  0  0  0  0  0
  187.8730  178.0000  140.8770 C   0  0  1  0  0  0  0  0  0  0  0  0
  181.7240  177.6670  138.2860 C   0  0  0  0  0  2  0  0  0  0  0  0
  183.4300  178.6060  140.6450 C   0  0  2  0  0  3  0  0  0  0  0  0
  183.0320  177.1720  140.3470 C   0  0  0  0  0  2  0  0  0  0  0  0
  182.9790  177.0190  138.8360 C   0  0  2  0  0  3  0  0  0  0  0  0
  183.0420  178.4140  138.2350 C   0  0  2  0  0  3  0  0  0  0  0  0
  183.1330  179.4010  139.3880 C   0  0  0  0  0  2  0  0  0  0  0  0
  1 12  1  0  0  0  0
  2 16  1  0  0  0  0
  2  6  2  0  0  0  0
  3 16  1  0  0  0  0
  6 14  1  0  0  0  0
  7 13  2  0  0  0  0
  8 10  1  6  0  0  0
  8 17  1  0  0  0  0
  8 21  1  0  0  0  0
  9  7  1  0  0  0  0
 11 14  2  0  0  0  0
 11  7  1  0  0  0  0
 12  2  1  0  0  0  0
 13  4  1  0  0  0  0
 13  5  1  0  0  0  0
 14 18  1  0  0  0  0
 15 20  1  6  0  0  0
 15  1  1  0  0  0  0
 15 21  1  0  0  0  0
 16 11  1  0  0  0  0
 18  4  2  0  0  0  0
 19 20  1  0  0  0  0
 19 10  1  0  0  0  0
 21 17  1  1  0  0  0
 21  3  1  0  0  0  0
 23 27  1  6  0  0  0
 23 12  1  0  0  0  0
 24 23  1  0  0  0  0
 25 22  1  1  0  0  0
 25 24  1  0  0  0  0
 26 22  1  1  0  0  0
 26 25  1  0  0  0  0
 26 27  1  0  0  0  0
M  END
>  <MODEL>
3

>  <REMARK>
 VINA RESULT:      -8.4      2.852      6.043
  Name = 
  1 active torsions:
  status: ('A' for Active; 'I' for Inactive)
    1  A    between atoms: C_9  and  N_15
                            x       y       z     vdW  Elec       q    Type
                         _______ _______ _______ _____ _____    ______ ____

>  <TORSDO>
F 1

$$$$
=
 OpenBabel10272401043D

 27 33  0  0  1  0  0  0  0  0999 V2000
  190.1880  177.4870  141.8190 C   0  0  0  0  0  2  0  0  0  0  0  0
  187.6830  177.7730  141.7030 C   0  0  0  0  0  0  0  0  0  0  0  0
  188.0920  177.2640  144.1190 N   0  0  0  0  0  2  0  0  0  0  0  0
  183.5110  179.0790  142.5900 C   0  0  0  0  0  3  0  0  0  0  0  0
  182.7710  179.0730  145.2150 Cl  0  0  0  0  0  0  0  0  0  0  0  0
  186.6550  178.1820  140.9120 N   0  0  0  0  0  0  0  0  0  0  0  0
  185.2390  178.3650  144.1740 C   0  0  0  0  0  0  0  0  0  0  0  0
  190.0660  177.1050  145.6240 C   0  0  1  0  0  3  0  0  0  0  0  0
  185.6980  178.0920  145.5690 C   0  0  0  0  0  1  0  0  0  0  0  0
  191.5010  176.5880  145.7640 C   0  0  0  0  0  2  0  0  0  0  0  0
  186.0910  178.1970  143.0720 C   0  0  0  0  0  0  0  0  0  0  0  0
  188.9110  177.2710  141.1480 N   0  0  0  0  0  0  0  0  0  0  0  0
  183.9240  178.8190  143.9140 C   0  0  0  0  0  0  0  0  0  0  0  0
  185.6760  178.4510  141.7950 C   0  0  0  0  0  0  0  0  0  0  0  0
  190.3000  176.5930  143.0310 C   0  0  1  0  0  3  0  0  0  0  0  0
  187.3670  177.7790  143.0290 N   0  0  0  0  0  0  0  0  0  0  0  0
  190.1240  178.4480  144.8870 C   0  0  0  0  0  2  0  0  0  0  0  0
  184.3880  178.8930  141.5090 C   0  0  0  0  0  3  0  0  0  0  0  0
  191.8940  175.6160  144.6630 C   0  0  0  0  0  2  0  0  0  0  0  0
  191.7690  176.3190  143.3270 C   0  0  0  0  0  2  0  0  0  0  0  0
  189.5420  177.2400  144.1950 C   0  0  1  0  0  0  0  0  0  0  0  0
  190.0160  177.4900  137.0300 C   0  0  0  0  0  2  0  0  0  0  0  0
  188.8930  176.7540  139.7780 C   0  0  2  0  0  3  0  0  0  0  0  0
  190.2960  176.4620  139.2800 C   0  0  0  0  0  2  0  0  0  0  0  0
  190.7070  177.6090  138.3740 C   0  0  2  0  0  3  0  0  0  0  0  0
  189.4600  178.4280  138.0830 C   0  0  2  0  0  3  0  0  0  0  0  0
  188.3020  177.7690  138.8160 C   0  0  0  0  0  2  0  0  0  0  0  0
  2 16  1  0  0  0  0
  3 21  1  0  0  0  0
  4 13  1  0  0  0  0
  6  2  2  0  0  0  0
  6 14  1  0  0  0  0
  7  9  1  0  0  0  0
  8 17  1  6  0  0  0
  8 10  1  0  0  0  0
 11  7  1  0  0  0  0
 12  2  1  0  0  0  0
 12  1  1  0  0  0  0
 13  7  2  0  0  0  0
 13  5  1  0  0  0  0
 14 11  2  0  0  0  0
 15  1  1  6  0  0  0
 15 20  1  0  0  0  0
 15 21  1  0  0  0  0
 16 11  1  0  0  0  0
 16  3  1  0  0  0  0
 18 14  1  0  0  0  0
 18  4  2  0  0  0  0
 19 10  1  0  0  0  0
 20 19  1  0  0  0  0
 21 17  1  6  0  0  0
 21  8  1  0  0  0  0
 23 27  1  6  0  0  0
 23 12  1  0  0  0  0
 24 23  1  0  0  0  0
 25 22  1  6  0  0  0
 25 24  1  0  0  0  0
 26 22  1  6  0  0  0
 26 25  1  0  0  0  0
 26 27  1  0  0  0  0
M  END
>  <MODEL>
4

>  <REMARK>
 VINA RESULT:      -8.3      2.692      5.987
  Name = 
  1 active torsions:
  status: ('A' for Active; 'I' for Inactive)
    1  A    between atoms: C_9  and  N_15
                            x       y       z     vdW  Elec       q    Type
                         _______ _______ _______ _____ _____    ______ ____

>  <TORSDO>
F 1

$$$$
=
 OpenBabel10272401043D

 27 33  0  0  1  0  0  0  0  0999 V2000
  189.8340  178.2020  140.7680 C   0  0  0  0  0  2  0  0  0  0  0  0
  187.3120  178.2890  140.7170 C   0  0  0  0  0  0  0  0  0  0  0  0
  187.8140  177.5430  143.0520 N   0  0  0  0  0  2  0  0  0  0  0  0
  183.0680  179.1310  141.8000 C   0  0  0  0  0  3  0  0  0  0  0  0
  182.3880  178.7640  144.4160 Cl  0  0  0  0  0  0  0  0  0  0  0  0
  186.2370  178.6980  139.9910 N   0  0  0  0  0  0  0  0  0  0  0  0
  184.8820  178.3880  143.2690 C   0  0  0  0  0  0  0  0  0  0  0  0
  189.8260  177.3800  144.5060 C   0  0  1  0  0  3  0  0  0  0  0  0
  185.3930  177.9970  144.6180 C   0  0  0  0  0  1  0  0  0  0  0  0
  191.3020  176.9730  144.5670 C   0  0  0  0  0  2  0  0  0  0  0  0
  185.7210  178.4190  142.1460 C   0  0  0  0  0  0  0  0  0  0  0  0
  188.5640  177.9580  140.0930 N   0  0  0  0  0  0  0  0  0  0  0  0
  183.5300  178.7570  143.0800 C   0  0  0  0  0  0  0  0  0  0  0  0
  185.2590  178.7810  140.9110 C   0  0  0  0  0  0  0  0  0  0  0  0
  190.0450  177.1890  141.8680 C   0  0  1  0  0  3  0  0  0  0  0  0
  187.0260  178.1170  142.0380 N   0  0  0  0  0  0  0  0  0  0  0  0
  189.7580  178.7980  143.9280 C   0  0  0  0  0  2  0  0  0  0  0  0
  183.9340  179.1440  140.6940 C   0  0  0  0  0  3  0  0  0  0  0  0
  191.7490  176.1680  143.3560 C   0  0  0  0  0  2  0  0  0  0  0  0
  191.5380  177.0070  142.1120 C   0  0  0  0  0  2  0  0  0  0  0  0
  189.2630  177.6320  143.1070 C   0  0  1  0  0  0  0  0  0  0  0  0
  190.3510  176.1550  136.6590 C   0  0  0  0  0  2  0  0  0  0  0  0
  188.5590  177.6010  138.6720 C   0  0  2  0  0  3  0  0  0  0  0  0
  188.6540  176.0990  138.4810 C   0  0  0  0  0  2  0  0  0  0  0  0
  190.0900  175.7770  138.1030 C   0  0  2  0  0  3  0  0  0  0  0  0
  190.7780  177.0920  137.7720 C   0  0  2  0  0  3  0  0  0  0  0  0
  189.7520  178.2000  137.9520 C   0  0  0  0  0  2  0  0  0  0  0  0
  2 16  1  0  0  0  0
  3 21  1  0  0  0  0
  4 13  1  0  0  0  0
  6  2  2  0  0  0  0
  6 14  1  0  0  0  0
  7  9  1  0  0  0  0
  8 17  1  1  0  0  0
  8 10  1  0  0  0  0
 11  7  1  0  0  0  0
 12  2  1  0  0  0  0
 12  1  1  0  0  0  0
 13  7  2  0  0  0  0
 13  5  1  0  0  0  0
 14 11  2  0  0  0  0
 15  1  1  6  0  0  0
 15 20  1  0  0  0  0
 15 21  1  0  0  0  0
 16 11  1  0  0  0  0
 16  3  1  0  0  0  0
 18 14  1  0  0  0  0
 18  4  2  0  0  0  0
 19 10  1  0  0  0  0
 20 19  1  0  0  0  0
 21 17  1  6  0  0  0
 21  8  1  0  0  0  0
 23 27  1  6  0  0  0
 23 12  1  0  0  0  0
 24 23  1  0  0  0  0
 25 22  1  6  0  0  0
 25 24  1  0  0  0  0
 26 22  1  6  0  0  0
 26 27  1  0  0  0  0
 26 25  1  0  0  0  0
M  END
>  <MODEL>
5

>  <REMARK>
 VINA RESULT:      -8.3      2.916      6.361
  Name = 
  1 active torsions:
  status: ('A' for Active; 'I' for Inactive)
    1  A    between atoms: C_9  and  N_15
                            x       y       z     vdW  Elec       q    Type
                         _______ _______ _______ _____ _____    ______ ____

>  <TORSDO>
F 1

$$$$
=
 OpenBabel10272401043D

 27 33  0  0  1  0  0  0  0  0999 V2000
  189.1090  177.4330  140.6730 C   0  0  0  0  0  2  0  0  0  0  0  0
  187.3080  178.1520  142.2880 C   0  0  0  0  0  0  0  0  0  0  0  0
  186.3410  178.7300  140.0530 N   0  0  0  0  0  2  0  0  0  0  0  0
  183.3440  178.7170  144.2530 C   0  0  0  0  0  3  0  0  0  0  0  0
  181.2510  179.3170  142.6100 Cl  0  0  0  0  0  0  0  0  0  0  0  0
  186.9040  178.0960  143.5850 N   0  0  0  0  0  0  0  0  0  0  0  0
  183.8810  178.8650  141.8670 C   0  0  0  0  0  0  0  0  0  0  0  0
  186.8860  178.2650  137.6710 C   0  0  1  0  0  3  0  0  0  0  0  0
  183.4710  179.0910  140.4480 C   0  0  0  0  0  1  0  0  0  0  0  0
  188.0090  178.1830  136.6320 C   0  0  0  0  0  2  0  0  0  0  0  0
  185.2050  178.5540  142.2090 C   0  0  0  0  0  0  0  0  0  0  0  0
  188.6960  178.0590  141.9230 N   0  0  0  0  0  0  0  0  0  0  0  0
  182.9390  178.9420  142.9190 C   0  0  0  0  0  0  0  0  0  0  0  0
  185.5830  178.3400  143.5050 C   0  0  0  0  0  0  0  0  0  0  0  0
  188.8010  178.3420  139.5060 C   0  0  1  0  0  3  0  0  0  0  0  0
  186.2890  178.4240  141.4250 N   0  0  0  0  0  0  0  0  0  0  0  0
  186.8570  176.9350  138.4320 C   0  0  0  0  0  2  0  0  0  0  0  0
  184.6800  178.4150  144.5610 C   0  0  0  0  0  3  0  0  0  0  0  0
  189.3170  178.7870  137.1190 C   0  0  0  0  0  2  0  0  0  0  0  0
  189.7620  178.0430  138.3610 C   0  0  0  0  0  2  0  0  0  0  0  0
  187.3240  178.1860  139.1330 C   0  0  1  0  0  0  0  0  0  0  0  0
  191.6040  176.9140  144.8320 C   0  0  0  0  0  2  0  0  0  0  0  0
  189.7030  178.3800  142.9380 C   0  0  2  0  0  3  0  0  0  0  0  0
  191.0570  177.8030  142.5720 C   0  0  0  0  0  2  0  0  0  0  0  0
  191.2580  176.5480  143.4030 C   0  0  2  0  0  3  0  0  0  0  0  0
  190.1800  176.5350  144.4750 C   0  0  2  0  0  3  0  0  0  0  0  0
  189.3350  177.7840  144.2840 C   0  0  0  0  0  2  0  0  0  0  0  0
  1 12  1  0  0  0  0
  2  6  2  0  0  0  0
  3 16  1  0  0  0  0
  4 18  1  0  0  0  0
  5 13  1  0  0  0  0
  7 11  2  0  0  0  0
  7 13  1  0  0  0  0
  8 10  1  6  0  0  0
  8 17  1  0  0  0  0
  8 21  1  0  0  0  0
  9  7  1  0  0  0  0
 10 19  1  0  0  0  0
 11 14  1  0  0  0  0
 12  2  1  0  0  0  0
 13  4  2  0  0  0  0
 14  6  1  0  0  0  0
 14 18  2  0  0  0  0
 15 20  1  6  0  0  0
 15  1  1  0  0  0  0
 16 11  1  0  0  0  0
 16  2  1  0  0  0  0
 19 20  1  0  0  0  0
 21 17  1  1  0  0  0
 21 15  1  0  0  0  0
 21  3  1  0  0  0  0
 23 12  1  6  0  0  0
 23 27  1  0  0  0  0
 24 23  1  0  0  0  0
 25 24  1  6  0  0  0
 25 26  1  0  0  0  0
 25 22  1  0  0  0  0
 26 27  1  6  0  0  0
 26 22  1  0  0  0  0
M  END
>  <MODEL>
6

>  <REMARK>
 VINA RESULT:      -8.2      3.016      7.455
  Name = 
  1 active torsions:
  status: ('A' for Active; 'I' for Inactive)
    1  A    between atoms: C_9  and  N_15
                            x       y       z     vdW  Elec       q    Type
                         _______ _______ _______ _____ _____    ______ ____

>  <TORSDO>
F 1

$$$$
=
 OpenBabel10272401043D

 27 33  0  0  1  0  0  0  0  0999 V2000
  188.8480  178.0480  144.5190 C   0  0  0  0  0  2  0  0  0  0  0  0
  186.9030  178.0300  142.9110 C   0  0  0  0  0  0  0  0  0  0  0  0
  185.7980  177.8720  145.1510 N   0  0  0  0  0  2  0  0  0  0  0  0
  183.0040  178.9530  140.9500 C   0  0  0  0  0  3  0  0  0  0  0  0
  180.8440  179.1870  142.5990 Cl  0  0  0  0  0  0  0  0  0  0  0  0
  186.5440  178.2190  141.6130 N   0  0  0  0  0  0  0  0  0  0  0  0
  183.4570  178.6410  143.3380 C   0  0  0  0  0  0  0  0  0  0  0  0
  186.4850  178.1260  147.5280 C   0  0  1  0  0  3  0  0  0  0  0  0
  182.9980  178.5950  144.7590 C   0  0  0  0  0  1  0  0  0  0  0  0
  187.5630  177.7970  148.5670 C   0  0  0  0  0  2  0  0  0  0  0  0
  184.8010  178.4360  142.9930 C   0  0  0  0  0  0  0  0  0  0  0  0
  188.2280  177.6060  143.2750 N   0  0  0  0  0  0  0  0  0  0  0  0
  182.5500  178.9070  142.2860 C   0  0  0  0  0  0  0  0  0  0  0  0
  185.2270  178.4820  141.6950 C   0  0  0  0  0  0  0  0  0  0  0  0
  188.2300  177.3280  145.6950 C   0  0  1  0  0  3  0  0  0  0  0  0
  185.8580  178.1630  143.7760 N   0  0  0  0  0  0  0  0  0  0  0  0
  186.9480  179.3660  146.7540 C   0  0  0  0  0  2  0  0  0  0  0  0
  184.3570  178.7370  140.6390 C   0  0  0  0  0  3  0  0  0  0  0  0
  188.5520  176.7470  148.0870 C   0  0  0  0  0  2  0  0  0  0  0  0
  189.2370  177.2620  146.8370 C   0  0  0  0  0  2  0  0  0  0  0  0
  186.9170  178.0230  146.0650 C   0  0  1  0  0  0  0  0  0  0  0  0
  191.9780  176.7210  141.4340 C   0  0  0  0  0  2  0  0  0  0  0  0
  189.0410  176.9260  142.2640 C   0  0  2  0  0  3  0  0  0  0  0  0
  190.0890  176.0370  142.9070 C   0  0  0  0  0  2  0  0  0  0  0  0
  191.4150  176.7750  142.8410 C   0  0  2  0  0  3  0  0  0  0  0  0
  191.2330  177.9560  141.9010 C   0  0  2  0  0  3  0  0  0  0  0  0
  189.7960  177.9230  141.4050 C   0  0  0  0  0  2  0  0  0  0  0  0
  2 12  1  0  0  0  0
  2 16  1  0  0  0  0
  3 21  1  0  0  0  0
  4 13  1  0  0  0  0
  6 14  1  0  0  0  0
  6  2  2  0  0  0  0
  7  9  1  0  0  0  0
  8 17  1  1  0  0  0
  8 10  1  0  0  0  0
 11  7  1  0  0  0  0
 11 16  1  0  0  0  0
 12  1  1  0  0  0  0
 13  5  1  0  0  0  0
 13  7  2  0  0  0  0
 14 11  2  0  0  0  0
 15  1  1  6  0  0  0
 15 21  1  0  0  0  0
 15 20  1  0  0  0  0
 16  3  1  0  0  0  0
 18  4  2  0  0  0  0
 18 14  1  0  0  0  0
 19 10  1  0  0  0  0
 20 19  1  0  0  0  0
 21 17  1  6  0  0  0
 21  8  1  0  0  0  0
 22 26  1  0  0  0  0
 23 27  1  1  0  0  0
 23 24  1  0  0  0  0
 23 12  1  0  0  0  0
 25 22  1  6  0  0  0
 25 24  1  0  0  0  0
 26 27  1  6  0  0  0
 26 25  1  0  0  0  0
M  END
>  <MODEL>
7

>  <REMARK>
 VINA RESULT:      -8.2      2.665      5.866
  Name = 
  1 active torsions:
  status: ('A' for Active; 'I' for Inactive)
    1  A    between atoms: C_9  and  N_15
                            x       y       z     vdW  Elec       q    Type
                         _______ _______ _______ _____ _____    ______ ____

>  <TORSDO>
F 1

$$$$
=
 OpenBabel10272401043D

 27 33  0  0  1  0  0  0  0  0999 V2000
  187.5080  178.2660  144.8900 C   0  0  0  0  0  2  0  0  0  0  0  0
  188.3740  177.7050  142.5870 C   0  0  0  0  0  0  0  0  0  0  0  0
  185.9470  178.1680  142.1910 N   0  0  0  0  0  2  0  0  0  0  0  0
  189.2140  177.8650  138.2080 C   0  0  0  0  0  3  0  0  0  0  0  0
  187.1070  178.4900  136.5920 Cl  0  0  0  0  0  0  0  0  0  0  0  0
  189.5000  177.4920  141.8530 N   0  0  0  0  0  0  0  0  0  0  0  0
  187.0890  178.2830  139.3550 C   0  0  0  0  0  0  0  0  0  0  0  0
  184.0560  179.1330  143.4860 C   0  0  1  0  0  3  0  0  0  0  0  0
  185.6380  178.6390  139.3260 C   0  0  0  0  0  1  0  0  0  0  0  0
  183.3500  179.1630  144.8460 C   0  0  0  0  0  2  0  0  0  0  0  0
  187.7630  178.0370  140.5610 C   0  0  0  0  0  0  0  0  0  0  0  0
  188.3360  177.4570  144.0020 N   0  0  0  0  0  0  0  0  0  0  0  0
  187.8420  178.1950  138.1610 C   0  0  0  0  0  0  0  0  0  0  0  0
  189.0910  177.7170  140.5920 C   0  0  0  0  0  0  0  0  0  0  0  0
  186.0520  177.9000  144.7250 C   0  0  1  0  0  3  0  0  0  0  0  0
  187.2990  178.0460  141.8220 N   0  0  0  0  0  0  0  0  0  0  0  0
  185.2360  180.1080  143.5520 C   0  0  0  0  0  2  0  0  0  0  0  0
  189.8560  177.6180  139.4330 C   0  0  0  0  0  3  0  0  0  0  0  0
  183.8110  178.0570  145.7820 C   0  0  0  0  0  2  0  0  0  0  0  0
  185.3010  178.2090  146.0140 C   0  0  0  0  0  2  0  0  0  0  0  0
  185.4960  178.6220  143.4950 C   0  0  1  0  0  0  0  0  0  0  0  0
  191.7230  176.6430  146.4710 C   0  0  0  0  0  2  0  0  0  0  0  0
  189.3270  176.5420  144.5740 C   0  0  2  0  0  3  0  0  0  0  0  0
  189.2640  176.5380  146.0900 C   0  0  0  0  0  2  0  0  0  0  0  0
  190.4130  177.3950  146.5950 C   0  0  2  0  0  3  0  0  0  0  0  0
  191.3360  177.6600  145.4160 C   0  0  2  0  0  3  0  0  0  0  0  0
  190.7370  176.9610  144.2050 C   0  0  0  0  0  2  0  0  0  0  0  0
  2 12  1  0  0  0  0
  3 21  1  0  0  0  0
  4 18  1  0  0  0  0
  5 13  1  0  0  0  0
  6  2  2  0  0  0  0
  7 11  2  0  0  0  0
  8 21  1  0  0  0  0
  8 17  1  1  0  0  0
  8 10  1  0  0  0  0
  9  7  1  0  0  0  0
 10 19  1  0  0  0  0
 11 14  1  0  0  0  0
 11 16  1  0  0  0  0
 12  1  1  0  0  0  0
 13  4  2  0  0  0  0
 13  7  1  0  0  0  0
 14  6  1  0  0  0  0
 15  1  1  1  0  0  0
 15 20  1  0  0  0  0
 16  3  1  0  0  0  0
 16  2  1  0  0  0  0
 18 14  2  0  0  0  0
 19 20  1  0  0  0  0
 21 17  1  1  0  0  0
 21 15  1  0  0  0  0
 22 25  1  0  0  0  0
 23 12  1  6  0  0  0
 23 24  1  0  0  0  0
 25 24  1  6  0  0  0
 26 27  1  6  0  0  0
 26 22  1  0  0  0  0
 26 25  1  0  0  0  0
 27 23  1  0  0  0  0
M  END
>  <MODEL>
8

>  <REMARK>
 VINA RESULT:      -7.7      1.994      5.083
  Name = 
  1 active torsions:
  status: ('A' for Active; 'I' for Inactive)
    1  A    between atoms: C_9  and  N_15
                            x       y       z     vdW  Elec       q    Type
                         _______ _______ _______ _____ _____    ______ ____

>  <TORSDO>
F 1

$$$$
=
 OpenBabel10272401043D

 27 33  0  0  1  0  0  0  0  0999 V2000
  186.4330  177.9260  139.3880 C   0  0  0  0  0  2  0  0  0  0  0  0
  187.7370  177.9610  141.5480 C   0  0  0  0  0  0  0  0  0  0  0  0
  185.5030  178.8720  142.2110 N   0  0  0  0  0  2  0  0  0  0  0  0
  188.8890  177.4220  145.8240 C   0  0  0  0  0  3  0  0  0  0  0  0
  186.9860  178.0380  147.6790 Cl  0  0  0  0  0  0  0  0  0  0  0  0
  188.8840  177.5460  142.1510 N   0  0  0  0  0  0  0  0  0  0  0  0
  186.7450  178.1940  144.9230 C   0  0  0  0  0  0  0  0  0  0  0  0
  183.2470  179.0550  141.1800 C   0  0  1  0  0  3  0  0  0  0  0  0
  185.3420  178.6700  145.1190 C   0  0  0  0  0  1  0  0  0  0  0  0
  182.4730  179.3930  139.9010 C   0  0  0  0  0  2  0  0  0  0  0  0
  187.2940  178.0290  143.6430 C   0  0  0  0  0  0  0  0  0  0  0  0
  187.6650  178.1760  140.1280 N   0  0  0  0  0  0  0  0  0  0  0  0
  187.5690  177.8780  146.0290 C   0  0  0  0  0  0  0  0  0  0  0  0
  188.5750  177.5880  143.4600 C   0  0  0  0  0  0  0  0  0  0  0  0
  185.4250  179.0160  139.6660 C   0  0  1  0  0  3  0  0  0  0  0  0
  186.7470  178.2560  142.4370 N   0  0  0  0  0  0  0  0  0  0  0  0
  183.7130  177.6000  141.0720 C   0  0  0  0  0  2  0  0  0  0  0  0
  189.4100  177.2740  144.5280 C   0  0  0  0  0  3  0  0  0  0  0  0
  183.3330  180.0710  138.8460 C   0  0  0  0  0  2  0  0  0  0  0  0
  184.4750  179.1440  138.4820 C   0  0  0  0  0  2  0  0  0  0  0  0
  184.7250  178.7160  140.9940 C   0  0  1  0  0  0  0  0  0  0  0  0
  190.4070  177.2880  136.9790 C   0  0  0  0  0  2  0  0  0  0  0  0
  188.9120  178.4130  139.3980 C   0  0  2  0  0  3  0  0  0  0  0  0
  188.6430  178.7560  137.9440 C   0  0  0  0  0  2  0  0  0  0  0  0
  188.9150  177.5070  137.1230 C   0  0  2  0  0  3  0  0  0  0  0  0
  189.6310  176.5160  138.0270 C   0  0  2  0  0  3  0  0  0  0  0  0
  189.7870  177.1740  139.3890 C   0  0  0  0  0  2  0  0  0  0  0  0
  1 15  1  0  0  0  0
  1 12  1  0  0  0  0
  2  6  2  0  0  0  0
  2 16  1  0  0  0  0
  3 16  1  0  0  0  0
  4 13  1  0  0  0  0
  6 14  1  0  0  0  0
  7  9  1  0  0  0  0
  7 13  2  0  0  0  0
  8 10  1  6  0  0  0
 11  7  1  0  0  0  0
 12  2  1  0  0  0  0
 13  5  1  0  0  0  0
 14 11  2  0  0  0  0
 14 18  1  0  0  0  0
 15 20  1  6  0  0  0
 15 21  1  0  0  0  0
 16 11  1  0  0  0  0
 17  8  1  0  0  0  0
 18  4  2  0  0  0  0
 19 10  1  0  0  0  0
 20 19  1  0  0  0  0
 21 17  1  6  0  0  0
 21  8  1  0  0  0  0
 21  3  1  0  0  0  0
 23 24  1  6  0  0  0
 23 12  1  0  0  0  0
 25 22  1  6  0  0  0
 25 24  1  0  0  0  0
 25 26  1  0  0  0  0
 26 22  1  6  0  0  0
 26 27  1  0  0  0  0
 27 23  1  0  0  0  0
M  END
>  <MODEL>
9

>  <REMARK>
 VINA RESULT:      -7.7      2.729      6.880
  Name = 
  1 active torsions:
  status: ('A' for Active; 'I' for Inactive)
    1  A    between atoms: C_9  and  N_15
                            x       y       z     vdW  Elec       q    Type
                         _______ _______ _______ _____ _____    ______ ____

>  <TORSDO>
F 1

$$$$
