=
 OpenBabel10272400163D

 31 35  0  0  1  0  0  0  0  0999 V2000
  186.3910  177.6550  146.4010 C   0  0  0  0  0  0  0  0  0  0  0  0
  186.9060  177.9890  142.6180 C   0  0  0  0  0  0  0  0  0  0  0  0
  188.1310  177.4750  142.3260 C   0  0  0  0  0  0  0  0  0  0  0  0
  190.3270  176.6560  143.0390 C   0  0  0  0  0  0  0  0  0  0  0  0
  186.3340  178.0820  144.0010 C   0  0  0  0  0  0  0  0  0  0  0  0
  185.2330  178.4140  146.5720 C   0  0  0  0  0  3  0  0  0  0  0  0
  189.0580  176.9360  143.3440 C   0  0  0  0  0  3  0  0  0  0  0  0
  184.7310  178.9280  141.7060 C   0  0  1  0  0  3  0  0  0  0  0  0
  186.9920  177.0850  147.4710 F   0  0  0  0  0  0  0  0  0  0  0  0
  187.9390  178.3670  139.9710 C   0  0  0  0  0  3  0  0  0  0  0  0
  191.2360  176.1350  144.0920 C   0  0  0  0  0  1  0  0  0  0  0  0
  184.4760  179.3950  143.0650 N   0  0  0  0  0  2  0  0  0  0  0  0
  186.1430  178.5890  141.5410 N   0  0  0  0  0  0  0  0  0  0  0  0
  186.9370  177.4960  145.1250 C   0  0  0  0  0  3  0  0  0  0  0  0
  190.8580  176.9350  141.6920 C   0  0  0  0  0  3  0  0  0  0  0  0
  185.1470  178.8200  144.1850 C   0  0  0  0  0  0  0  0  0  0  0  0
  184.6130  178.9960  145.4660 C   0  0  0  0  0  3  0  0  0  0  0  0
  186.7660  178.9050  140.2890 C   0  0  0  0  0  3  0  0  0  0  0  0
  188.5580  177.3450  140.8720 C   0  0  1  0  0  3  0  0  0  0  0  0
  190.0500  177.2960  140.6920 C   0  0  0  0  0  3  0  0  0  0  0  0
  181.4820  177.0120  140.8480 C   0  0  0  0  0  1  0  0  0  0  0  0
  183.8100  177.4510  139.9160 C   0  0  0  0  0  2  0  0  0  0  0  0
  182.5970  178.0170  140.6210 C   0  0  2  0  0  0  0  0  0  0  0  0
  183.8630  177.7050  141.4180 C   0  0  2  0  0  3  0  0  0  0  0  0
  182.2580  179.4920  140.3140 C   0  0  1  0  0  3  0  0  0  0  0  0
  182.5940  179.9660  138.8830 C   0  0  0  0  0  0  0  0  0  0  0  0
  183.9390  180.3330  138.8320 O   0  0  0  0  0  1  0  0  0  0  0  0
  181.7540  181.1670  138.4790 C   0  0  0  0  0  1  0  0  0  0  0  0
  182.3730  178.8520  137.8770 C   0  0  0  0  0  1  0  0  0  0  0  0
  180.9150  180.0980  141.8840 O   0  0  0  0  0  1  0  0  0  0  0  0
  180.9140  179.7410  140.6160 O   0  0  0  0  0  0  0  0  0  0  0  0
  1  6  1  0  0  0  0
  1  9  1  0  0  0  0
  2  5  1  0  0  0  0
  3  2  2  0  0  0  0
  3  7  1  0  0  0  0
  4  7  2  0  0  0  0
  4 11  1  0  0  0  0
  5 16  2  0  0  0  0
  5 14  1  0  0  0  0
  8 12  1  1  0  0  0
 10 18  2  0  0  0  0
 12 16  1  0  0  0  0
 13  8  1  0  0  0  0
 13  2  1  0  0  0  0
 14  1  2  0  0  0  0
 15  4  1  0  0  0  0
 16 17  1  0  0  0  0
 17  6  2  0  0  0  0
 18 13  1  0  0  0  0
 19 10  1  6  0  0  0
 19  3  1  0  0  0  0
 20 19  1  0  0  0  0
 20 15  2  0  0  0  0
 22 23  1  0  0  0  0
 23 21  1  1  0  0  0
 23 24  1  0  0  0  0
 24 22  1  6  0  0  0
 24  8  1  0  0  0  0
 25 31  1  6  0  0  0
 25 23  1  0  0  0  0
 26 25  1  0  0  0  0
 27 26  1  0  0  0  0
 28 26  1  0  0  0  0
 29 26  1  0  0  0  0
 31 30  1  0  0  0  0
M  END
>  <MODEL>
1

>  <REMARK>
 VINA RESULT:      -8.3      0.000      0.000
  Name = 
  4 active torsions:
  status: ('A' for Active; 'I' for Inactive)
    1  A    between atoms: C_1  and  C_19
    2  A    between atoms: O_7  and  C_19
    3  A    between atoms: C_15  and  C_23
    4  A    between atoms: C_19  and  C_22
                            x       y       z     vdW  Elec       q    Type
                         _______ _______ _______ _____ _____    ______ ____

>  <TORSDO>
F 4

$$$$
=
 OpenBabel10272400163D

 31 35  0  0  1  0  0  0  0  0999 V2000
  185.0630  178.4420  142.7610 C   0  0  0  0  0  0  0  0  0  0  0  0
  188.6320  177.6470  141.6140 C   0  0  0  0  0  0  0  0  0  0  0  0
  189.3700  177.3850  142.7250 C   0  0  0  0  0  0  0  0  0  0  0  0
  189.6430  177.4100  145.1600 C   0  0  0  0  0  0  0  0  0  0  0  0
  187.1850  178.0390  141.6290 C   0  0  0  0  0  0  0  0  0  0  0  0
  184.5050  178.9050  141.5690 C   0  0  0  0  0  3  0  0  0  0  0  0
  188.8310  177.4530  144.1010 C   0  0  0  0  0  3  0  0  0  0  0  0
  188.5620  177.6730  139.0760 C   0  0  1  0  0  3  0  0  0  0  0  0
  184.3200  178.4160  143.8920 F   0  0  0  0  0  0  0  0  0  0  0  0
  191.4730  177.3890  141.3270 C   0  0  0  0  0  3  0  0  0  0  0  0
  189.0690  177.5000  146.5270 C   0  0  0  0  0  1  0  0  0  0  0  0
  187.3530  178.4770  139.2140 N   0  0  0  0  0  2  0  0  0  0  0  0
  189.3090  177.6580  140.3320 N   0  0  0  0  0  0  0  0  0  0  0  0
  186.3940  178.0170  142.7890 C   0  0  0  0  0  3  0  0  0  0  0  0
  191.1060  177.3600  144.9880 C   0  0  0  0  0  3  0  0  0  0  0  0
  186.5980  178.4800  140.4260 C   0  0  0  0  0  0  0  0  0  0  0  0
  185.2720  178.9240  140.4040 C   0  0  0  0  0  3  0  0  0  0  0  0
  190.7410  177.6940  140.2590 C   0  0  0  0  0  3  0  0  0  0  0  0
  190.8040  176.9010  142.5730 C   0  0  1  0  0  3  0  0  0  0  0  0
  191.6540  177.1660  143.7850 C   0  0  0  0  0  3  0  0  0  0  0  0
  187.3670  174.8540  136.7110 C   0  0  0  0  0  1  0  0  0  0  0  0
  189.3950  175.5350  138.0910 C   0  0  0  0  0  2  0  0  0  0  0  0
  188.2750  175.9780  137.1760 C   0  0  2  0  0  0  0  0  0  0  0  0
  188.1830  176.2470  138.6770 C   0  0  2  0  0  3  0  0  0  0  0  0
  188.5950  177.1560  136.2290 C   0  0  1  0  0  3  0  0  0  0  0  0
  189.7100  176.8900  135.1930 C   0  0  0  0  0  0  0  0  0  0  0  0
  189.8130  177.9930  134.3470 O   0  0  0  0  0  1  0  0  0  0  0  0
  189.4070  175.6630  134.3470 C   0  0  0  0  0  1  0  0  0  0  0  0
  191.0510  176.6950  135.8770 C   0  0  0  0  0  1  0  0  0  0  0  0
  187.2140  178.7980  136.0680 O   0  0  0  0  0  1  0  0  0  0  0  0
  187.4230  177.5860  135.5970 O   0  0  0  0  0  0  0  0  0  0  0  0
  1 14  1  0  0  0  0
  1  9  1  0  0  0  0
  2  5  1  0  0  0  0
  2  3  2  0  0  0  0
  3  7  1  0  0  0  0
  4 11  1  0  0  0  0
  5 14  2  0  0  0  0
  6  1  2  0  0  0  0
  7  4  2  0  0  0  0
  8 12  1  1  0  0  0
  8 13  1  0  0  0  0
 12 16  1  0  0  0  0
 13  2  1  0  0  0  0
 15  4  1  0  0  0  0
 16  5  1  0  0  0  0
 17 16  2  0  0  0  0
 17  6  1  0  0  0  0
 18 13  1  0  0  0  0
 18 10  2  0  0  0  0
 19 10  1  6  0  0  0
 19  3  1  0  0  0  0
 19 20  1  0  0  0  0
 20 15  2  0  0  0  0
 23 21  1  6  0  0  0
 23 22  1  0  0  0  0
 23 24  1  0  0  0  0
 24 22  1  1  0  0  0
 24  8  1  0  0  0  0
 25 31  1  6  0  0  0
 25 23  1  0  0  0  0
 26 29  1  0  0  0  0
 26 25  1  0  0  0  0
 27 26  1  0  0  0  0
 28 26  1  0  0  0  0
 31 30  1  0  0  0  0
M  END
>  <MODEL>
2

>  <REMARK>
 VINA RESULT:      -7.7      3.312      5.596
  Name = 
  4 active torsions:
  status: ('A' for Active; 'I' for Inactive)
    1  A    between atoms: C_1  and  C_19
    2  A    between atoms: O_7  and  C_19
    3  A    between atoms: C_15  and  C_23
    4  A    between atoms: C_19  and  C_22
                            x       y       z     vdW  Elec       q    Type
                         _______ _______ _______ _____ _____    ______ ____

>  <TORSDO>
F 4

$$$$
=
 OpenBabel10272400163D

 31 35  0  0  1  0  0  0  0  0999 V2000
  185.1430  177.8250  137.7920 C   0  0  0  0  0  0  0  0  0  0  0  0
  185.0630  178.4360  141.5750 C   0  0  0  0  0  0  0  0  0  0  0  0
  183.7580  178.4910  141.9520 C   0  0  0  0  0  0  0  0  0  0  0  0
  181.3790  178.6530  141.3900 C   0  0  0  0  0  0  0  0  0  0  0  0
  185.5300  178.2470  140.1620 C   0  0  0  0  0  0  0  0  0  0  0  0
  186.4980  178.0240  137.5260 C   0  0  0  0  0  3  0  0  0  0  0  0
  182.6260  178.3680  141.0090 C   0  0  0  0  0  3  0  0  0  0  0  0
  187.4860  178.3960  142.3300 C   0  0  1  0  0  3  0  0  0  0  0  0
  184.2890  177.5340  136.7820 F   0  0  0  0  0  0  0  0  0  0  0  0
  184.4590  179.2770  144.2480 C   0  0  0  0  0  3  0  0  0  0  0  0
  180.2680  178.5380  140.4100 C   0  0  0  0  0  1  0  0  0  0  0  0
  187.8230  178.6800  140.9400 N   0  0  0  0  0  2  0  0  0  0  0  0
  186.0760  178.6860  142.5810 N   0  0  0  0  0  0  0  0  0  0  0  0
  184.6640  177.9410  139.0990 C   0  0  0  0  0  3  0  0  0  0  0  0
  181.1020  179.1630  142.7460 C   0  0  0  0  0  3  0  0  0  0  0  0
  186.9010  178.4130  139.8830 C   0  0  0  0  0  0  0  0  0  0  0  0
  187.3750  178.3170  138.5710 C   0  0  0  0  0  3  0  0  0  0  0  0
  185.7260  179.2640  143.8460 C   0  0  0  0  0  3  0  0  0  0  0  0
  183.4120  178.5880  143.4300 C   0  0  1  0  0  3  0  0  0  0  0  0
  182.0510  179.1750  143.6860 C   0  0  0  0  0  3  0  0  0  0  0  0
  189.6840  175.2510  142.8230 C   0  0  0  0  0  1  0  0  0  0  0  0
  188.0960  176.7620  144.1170 C   0  0  0  0  0  2  0  0  0  0  0  0
  189.2130  176.6670  143.1000 C   0  0  2  0  0  0  0  0  0  0  0  0
  187.7810  176.9280  142.6360 C   0  0  2  0  0  3  0  0  0  0  0  0
  190.2220  177.8350  143.0870 C   0  0  1  0  0  3  0  0  0  0  0  0
  190.7190  178.2990  144.4740 C   0  0  0  0  0  0  0  0  0  0  0  0
  189.6150  178.5960  145.2740 O   0  0  0  0  0  1  0  0  0  0  0  0
  191.5850  179.5440  144.3710 C   0  0  0  0  0  1  0  0  0  0  0  0
  191.5140  177.2040  145.1600 C   0  0  0  0  0  1  0  0  0  0  0  0
  190.8630  177.7420  141.0340 O   0  0  0  0  0  1  0  0  0  0  0  0
  191.3020  177.5180  142.2550 O   0  0  0  0  0  0  0  0  0  0  0  0
  1 14  1  0  0  0  0
  2  3  2  0  0  0  0
  2 13  1  0  0  0  0
  3 19  1  0  0  0  0
  4 15  1  0  0  0  0
  5  2  1  0  0  0  0
  6  1  2  0  0  0  0
  6 17  1  0  0  0  0
  7  4  2  0  0  0  0
  7  3  1  0  0  0  0
  8 12  1  6  0  0  0
  8 13  1  0  0  0  0
  8 24  1  0  0  0  0
  9  1  1  0  0  0  0
 11  4  1  0  0  0  0
 13 18  1  0  0  0  0
 14  5  2  0  0  0  0
 15 20  2  0  0  0  0
 16  5  1  0  0  0  0
 16 12  1  0  0  0  0
 17 16  2  0  0  0  0
 18 10  2  0  0  0  0
 19 20  1  6  0  0  0
 19 10  1  0  0  0  0
 23 21  1  6  0  0  0
 23 22  1  0  0  0  0
 24 23  1  0  0  0  0
 24 22  1  1  0  0  0
 25 31  1  6  0  0  0
 25 23  1  0  0  0  0
 25 26  1  0  0  0  0
 26 29  1  0  0  0  0
 26 27  1  0  0  0  0
 28 26  1  0  0  0  0
 30 31  1  0  0  0  0
M  END
>  <MODEL>
3

>  <REMARK>
 VINA RESULT:      -7.4      3.816      7.877
  Name = 
  4 active torsions:
  status: ('A' for Active; 'I' for Inactive)
    1  A    between atoms: C_1  and  C_19
    2  A    between atoms: O_7  and  C_19
    3  A    between atoms: C_15  and  C_23
    4  A    between atoms: C_19  and  C_22
                            x       y       z     vdW  Elec       q    Type
                         _______ _______ _______ _____ _____    ______ ____

>  <TORSDO>
F 4

$$$$
=
 OpenBabel10272400163D

 31 35  0  0  1  0  0  0  0  0999 V2000
  187.3310  178.3200  136.8970 C   0  0  0  0  0  0  0  0  0  0  0  0
  186.1760  178.3820  140.5500 C   0  0  0  0  0  0  0  0  0  0  0  0
  184.8170  178.3340  140.5500 C   0  0  0  0  0  0  0  0  0  0  0  0
  182.6770  178.4860  139.3680 C   0  0  0  0  0  0  0  0  0  0  0  0
  187.0230  178.4130  139.3140 C   0  0  0  0  0  0  0  0  0  0  0  0
  188.6880  178.6050  137.0490 C   0  0  0  0  0  3  0  0  0  0  0  0
  183.9980  178.3040  139.3190 C   0  0  0  0  0  3  0  0  0  0  0  0
  188.2970  178.3250  141.9440 C   0  0  1  0  0  3  0  0  0  0  0  0
  186.8100  178.1450  135.6590 F   0  0  0  0  0  0  0  0  0  0  0  0
  184.8040  178.8100  143.0300 C   0  0  0  0  0  3  0  0  0  0  0  0
  181.8870  178.4690  138.1090 C   0  0  0  0  0  1  0  0  0  0  0  0
  188.9780  178.8160  140.7520 N   0  0  0  0  0  2  0  0  0  0  0  0
  186.8540  178.5230  141.8240 N   0  0  0  0  0  0  0  0  0  0  0  0
  186.5060  178.2300  138.0210 C   0  0  0  0  0  3  0  0  0  0  0  0
  182.0030  178.7860  140.6450 C   0  0  0  0  0  3  0  0  0  0  0  0
  188.4020  178.6690  139.4540 C   0  0  0  0  0  0  0  0  0  0  0  0
  189.2220  178.7780  138.3270 C   0  0  0  0  0  3  0  0  0  0  0  0
  186.1300  178.9010  143.0020 C   0  0  0  0  0  3  0  0  0  0  0  0
  184.0740  178.2060  141.8710 C   0  0  1  0  0  3  0  0  0  0  0  0
  182.6550  178.6990  141.8070 C   0  0  0  0  0  3  0  0  0  0  0  0
  190.1710  175.2460  143.3490 C   0  0  0  0  0  1  0  0  0  0  0  0
  187.8570  176.3050  143.3450 C   0  0  0  0  0  2  0  0  0  0  0  0
  189.3520  176.5210  143.4270 C   0  0  2  0  0  0  0  0  0  0  0  0
  188.6070  176.8400  142.1320 C   0  0  2  0  0  3  0  0  0  0  0  0
  189.8230  177.6900  144.3190 C   0  0  1  0  0  3  0  0  0  0  0  0
  189.4050  177.6010  145.8040 C   0  0  0  0  0  0  0  0  0  0  0  0
  189.6400  178.8330  146.4150 O   0  0  0  0  0  1  0  0  0  0  0  0
  190.1990  176.5380  146.5460 C   0  0  0  0  0  1  0  0  0  0  0  0
  187.9260  177.2880  145.9340 C   0  0  0  0  0  1  0  0  0  0  0  0
  191.3710  179.0540  143.7040 O   0  0  0  0  0  1  0  0  0  0  0  0
  191.2090  177.8450  144.2030 O   0  0  0  0  0  0  0  0  0  0  0  0
  1  6  2  0  0  0  0
  1 14  1  0  0  0  0
  2  3  2  0  0  0  0
  2 13  1  0  0  0  0
  3 19  1  0  0  0  0
  4 15  1  0  0  0  0
  5 16  1  0  0  0  0
  5  2  1  0  0  0  0
  6 17  1  0  0  0  0
  7  4  2  0  0  0  0
  7  3  1  0  0  0  0
  8 12  1  6  0  0  0
  8 24  1  0  0  0  0
  9  1  1  0  0  0  0
 11  4  1  0  0  0  0
 13  8  1  0  0  0  0
 13 18  1  0  0  0  0
 14  5  2  0  0  0  0
 15 20  2  0  0  0  0
 16 12  1  0  0  0  0
 17 16  2  0  0  0  0
 18 10  2  0  0  0  0
 19 20  1  6  0  0  0
 19 10  1  0  0  0  0
 22 23  1  0  0  0  0
 23 21  1  6  0  0  0
 23 25  1  0  0  0  0
 24 22  1  1  0  0  0
 24 23  1  0  0  0  0
 25 31  1  1  0  0  0
 25 26  1  0  0  0  0
 26 29  1  0  0  0  0
 26 27  1  0  0  0  0
 26 28  1  0  0  0  0
 30 31  1  0  0  0  0
M  END
>  <MODEL>
4

>  <REMARK>
 VINA RESULT:      -7.4      4.008      7.963
  Name = 
  4 active torsions:
  status: ('A' for Active; 'I' for Inactive)
    1  A    between atoms: C_1  and  C_19
    2  A    between atoms: O_7  and  C_19
    3  A    between atoms: C_15  and  C_23
    4  A    between atoms: C_19  and  C_22
                            x       y       z     vdW  Elec       q    Type
                         _______ _______ _______ _____ _____    ______ ____

>  <TORSDO>
F 4

$$$$
=
 OpenBabel10272400163D

 31 35  0  0  1  0  0  0  0  0999 V2000
  191.5870  176.1750  145.5180 C   0  0  0  0  0  0  0  0  0  0  0  0
  188.2090  177.3800  144.1670 C   0  0  0  0  0  0  0  0  0  0  0  0
  187.5340  177.9460  145.2030 C   0  0  0  0  0  0  0  0  0  0  0  0
  187.2700  178.3680  147.6020 C   0  0  0  0  0  0  0  0  0  0  0  0
  189.5650  176.7500  144.2830 C   0  0  0  0  0  0  0  0  0  0  0  0
  192.0500  175.4320  144.4310 C   0  0  0  0  0  3  0  0  0  0  0  0
  188.0570  178.0120  146.5850 C   0  0  0  0  0  3  0  0  0  0  0  0
  188.2650  176.9280  141.6700 C   0  0  1  0  0  3  0  0  0  0  0  0
  192.3280  176.2550  146.6480 F   0  0  0  0  0  0  0  0  0  0  0  0
  185.4580  178.0790  143.7710 C   0  0  0  0  0  3  0  0  0  0  0  0
  187.8240  178.4040  148.9800 C   0  0  0  0  0  1  0  0  0  0  0  0
  189.3140  175.9590  141.9670 N   0  0  0  0  0  2  0  0  0  0  0  0
  187.5360  177.2790  142.8870 N   0  0  0  0  0  0  0  0  0  0  0  0
  190.3520  176.8230  145.4440 C   0  0  0  0  0  3  0  0  0  0  0  0
  185.8370  178.6430  147.3870 C   0  0  0  0  0  3  0  0  0  0  0  0
  190.0600  176.0220  143.1820 C   0  0  0  0  0  0  0  0  0  0  0  0
  191.2870  175.3570  143.2650 C   0  0  0  0  0  3  0  0  0  0  0  0
  186.1210  177.4810  142.7860 C   0  0  0  0  0  3  0  0  0  0  0  0
  186.2070  178.6410  144.9380 C   0  0  1  0  0  3  0  0  0  0  0  0
  185.3280  178.7300  146.1550 C   0  0  0  0  0  3  0  0  0  0  0  0
  189.4390  179.2700  138.8240 C   0  0  0  0  0  1  0  0  0  0  0  0
  187.8030  179.2120  140.7720 C   0  0  0  0  0  2  0  0  0  0  0  0
  188.4350  178.4590  139.6230 C   0  0  2  0  0  0  0  0  0  0  0  0
  188.8880  178.1810  141.0550 C   0  0  2  0  0  3  0  0  0  0  0  0
  187.5380  177.4210  138.9130 C   0  0  1  0  0  3  0  0  0  0  0  0
  186.2300  177.9780  138.3100 C   0  0  0  0  0  0  0  0  0  0  0  0
  186.5310  179.0870  137.5200 O   0  0  0  0  0  1  0  0  0  0  0  0
  185.2540  178.4110  139.3920 C   0  0  0  0  0  1  0  0  0  0  0  0
  185.5560  176.9430  137.4280 C   0  0  0  0  0  1  0  0  0  0  0  0
  189.2040  176.0880  138.6200 O   0  0  0  0  0  1  0  0  0  0  0  0
  188.2810  176.7400  137.9420 O   0  0  0  0  0  0  0  0  0  0  0  0
  1  9  1  0  0  0  0
  2  5  1  0  0  0  0
  2  3  2  0  0  0  0
  3  7  1  0  0  0  0
  4 11  1  0  0  0  0
  5 14  2  0  0  0  0
  6  1  2  0  0  0  0
  7  4  2  0  0  0  0
  8 12  1  1  0  0  0
  8 13  1  0  0  0  0
 12 16  1  0  0  0  0
 13  2  1  0  0  0  0
 14  1  1  0  0  0  0
 15  4  1  0  0  0  0
 16 17  2  0  0  0  0
 16  5  1  0  0  0  0
 17  6  1  0  0  0  0
 18 13  1  0  0  0  0
 18 10  2  0  0  0  0
 19 10  1  6  0  0  0
 19  3  1  0  0  0  0
 19 20  1  0  0  0  0
 20 15  2  0  0  0  0
 23 21  1  6  0  0  0
 23 22  1  0  0  0  0
 23 24  1  0  0  0  0
 24 22  1  1  0  0  0
 24  8  1  0  0  0  0
 25 31  1  6  0  0  0
 25 23  1  0  0  0  0
 26 25  1  0  0  0  0
 26 28  1  0  0  0  0
 27 26  1  0  0  0  0
 29 26  1  0  0  0  0
 31 30  1  0  0  0  0
M  END
>  <MODEL>
5

>  <REMARK>
 VINA RESULT:      -7.1      2.927      5.626
  Name = 
  4 active torsions:
  status: ('A' for Active; 'I' for Inactive)
    1  A    between atoms: C_1  and  C_19
    2  A    between atoms: O_7  and  C_19
    3  A    between atoms: C_15  and  C_23
    4  A    between atoms: C_19  and  C_22
                            x       y       z     vdW  Elec       q    Type
                         _______ _______ _______ _____ _____    ______ ____

>  <TORSDO>
F 4

$$$$
=
 OpenBabel10272400163D

 31 35  0  0  1  0  0  0  0  0999 V2000
  185.2570  178.5140  141.7980 C   0  0  0  0  0  0  0  0  0  0  0  0
  188.9200  177.6170  141.1160 C   0  0  0  0  0  0  0  0  0  0  0  0
  189.5210  177.4120  142.3190 C   0  0  0  0  0  0  0  0  0  0  0  0
  189.5140  177.5760  144.7630 C   0  0  0  0  0  0  0  0  0  0  0  0
  187.4880  178.0240  140.9430 C   0  0  0  0  0  0  0  0  0  0  0  0
  184.8470  178.9130  140.5260 C   0  0  0  0  0  3  0  0  0  0  0  0
  188.8300  177.5660  143.6170 C   0  0  0  0  0  3  0  0  0  0  0  0
  189.1410  177.4950  138.5900 C   0  0  1  0  0  3  0  0  0  0  0  0
  184.3890  178.5620  142.8360 F   0  0  0  0  0  0  0  0  0  0  0  0
  191.7700  177.3130  141.1730 C   0  0  0  0  0  3  0  0  0  0  0  0
  188.7900  177.7520  146.0480 C   0  0  0  0  0  1  0  0  0  0  0  0
  187.9380  178.3180  138.5420 N   0  0  0  0  0  2  0  0  0  0  0  0
  189.7400  177.5460  139.9220 N   0  0  0  0  0  0  0  0  0  0  0  0
  186.5680  178.0780  142.0040 C   0  0  0  0  0  3  0  0  0  0  0  0
  190.9870  177.5010  144.7630 C   0  0  0  0  0  3  0  0  0  0  0  0
  187.0500  178.4000  139.6570 C   0  0  0  0  0  0  0  0  0  0  0  0
  185.7430  178.8550  139.4570 C   0  0  0  0  0  3  0  0  0  0  0  0
  191.1700  177.5630  140.0130 C   0  0  0  0  0  3  0  0  0  0  0  0
  190.9550  176.9050  142.3600 C   0  0  1  0  0  3  0  0  0  0  0  0
  191.6650  177.2320  143.6440 C   0  0  0  0  0  3  0  0  0  0  0  0
  188.7880  174.3970  136.3010 C   0  0  0  0  0  1  0  0  0  0  0  0
  190.0100  175.1620  138.3980 C   0  0  0  0  0  2  0  0  0  0  0  0
  189.5280  175.5170  137.0080 C   0  0  2  0  0  0  0  0  0  0  0  0
  188.7850  176.0530  138.2320 C   0  0  2  0  0  3  0  0  0  0  0  0
  190.4240  176.4820  136.2030 C   0  0  1  0  0  3  0  0  0  0  0  0
  191.8650  175.9900  135.9450 C   0  0  0  0  0  0  0  0  0  0  0  0
  192.3000  176.4880  134.7160 O   0  0  0  0  0  1  0  0  0  0  0  0
  191.9390  174.4730  135.9010 C   0  0  0  0  0  1  0  0  0  0  0  0
  192.8120  176.4970  137.0170 C   0  0  0  0  0  1  0  0  0  0  0  0
  189.0120  177.8370  135.3050 O   0  0  0  0  0  1  0  0  0  0  0  0
  189.7930  176.8210  135.0000 O   0  0  0  0  0  0  0  0  0  0  0  0
  1 14  1  0  0  0  0
  1  9  1  0  0  0  0
  2  3  2  0  0  0  0
  3 19  1  0  0  0  0
  3  7  1  0  0  0  0
  4 11  1  0  0  0  0
  5  2  1  0  0  0  0
  5 14  2  0  0  0  0
  6  1  2  0  0  0  0
  7  4  2  0  0  0  0
  8 12  1  1  0  0  0
  8 13  1  0  0  0  0
 12 16  1  0  0  0  0
 13 18  1  0  0  0  0
 13  2  1  0  0  0  0
 15  4  1  0  0  0  0
 16  5  1  0  0  0  0
 17 16  2  0  0  0  0
 17  6  1  0  0  0  0
 18 10  2  0  0  0  0
 19 10  1  6  0  0  0
 19 20  1  0  0  0  0
 20 15  2  0  0  0  0
 23 21  1  6  0  0  0
 23 24  1  0  0  0  0
 23 22  1  0  0  0  0
 24 22  1  1  0  0  0
 24  8  1  0  0  0  0
 25 31  1  6  0  0  0
 25 23  1  0  0  0  0
 26 25  1  0  0  0  0
 26 29  1  0  0  0  0
 27 26  1  0  0  0  0
 28 26  1  0  0  0  0
 31 30  1  0  0  0  0
M  END
>  <MODEL>
6

>  <REMARK>
 VINA RESULT:      -7.0      3.872      6.690
  Name = 
  4 active torsions:
  status: ('A' for Active; 'I' for Inactive)
    1  A    between atoms: C_1  and  C_19
    2  A    between atoms: O_7  and  C_19
    3  A    between atoms: C_15  and  C_23
    4  A    between atoms: C_19  and  C_22
                            x       y       z     vdW  Elec       q    Type
                         _______ _______ _______ _____ _____    ______ ____

>  <TORSDO>
F 4

$$$$
=
 OpenBabel10272400163D

 31 35  0  0  1  0  0  0  0  0999 V2000
  185.0420  178.2910  143.8290 C   0  0  0  0  0  0  0  0  0  0  0  0
  188.6600  177.7130  142.7050 C   0  0  0  0  0  0  0  0  0  0  0  0
  189.3600  177.2820  143.7880 C   0  0  0  0  0  0  0  0  0  0  0  0
  189.5440  176.9190  146.2040 C   0  0  0  0  0  0  0  0  0  0  0  0
  187.2080  178.0890  142.7290 C   0  0  0  0  0  0  0  0  0  0  0  0
  184.5220  178.9350  142.7070 C   0  0  0  0  0  3  0  0  0  0  0  0
  188.7720  177.1250  145.1360 C   0  0  0  0  0  3  0  0  0  0  0  0
  188.6810  178.1430  140.2030 C   0  0  1  0  0  3  0  0  0  0  0  0
  184.2590  178.0800  144.9130 F   0  0  0  0  0  0  0  0  0  0  0  0
  191.5120  177.5230  142.4880 C   0  0  0  0  0  3  0  0  0  0  0  0
  188.9210  176.7860  147.5460 C   0  0  0  0  0  1  0  0  0  0  0  0
  187.4580  178.9070  140.4220 N   0  0  0  0  0  2  0  0  0  0  0  0
  189.3830  177.9330  141.4680 N   0  0  0  0  0  0  0  0  0  0  0  0
  186.3760  177.8760  143.8400 C   0  0  0  0  0  3  0  0  0  0  0  0
  191.0140  176.9070  146.0810 C   0  0  0  0  0  3  0  0  0  0  0  0
  186.6600  178.7120  141.5900 C   0  0  0  0  0  0  0  0  0  0  0  0
  185.3300  179.1450  141.5890 C   0  0  0  0  0  3  0  0  0  0  0  0
  190.8150  177.9890  141.4560 C   0  0  0  0  0  3  0  0  0  0  0  0
  190.8040  176.8370  143.6140 C   0  0  1  0  0  3  0  0  0  0  0  0
  191.6070  176.9110  144.8840 C   0  0  0  0  0  3  0  0  0  0  0  0
  186.7190  175.6930  137.9420 C   0  0  0  0  0  1  0  0  0  0  0  0
  189.0580  176.6530  138.2360 C   0  0  0  0  0  2  0  0  0  0  0  0
  187.5680  176.9130  138.2510 C   0  0  2  0  0  0  0  0  0  0  0  0
  188.3340  176.7970  139.5680 C   0  0  2  0  0  3  0  0  0  0  0  0
  187.1160  178.3100  137.7750 C   0  0  1  0  0  3  0  0  0  0  0  0
  187.9090  178.8940  136.5850 C   0  0  0  0  0  0  0  0  0  0  0  0
  187.3440  180.1160  136.2210 O   0  0  0  0  0  1  0  0  0  0  0  0
  187.8710  177.9700  135.3790 C   0  0  0  0  0  1  0  0  0  0  0  0
  189.3570  179.1430  136.9670 C   0  0  0  0  0  1  0  0  0  0  0  0
  185.2150  179.1220  138.3740 O   0  0  0  0  0  1  0  0  0  0  0  0
  185.7450  178.2950  137.4970 O   0  0  0  0  0  0  0  0  0  0  0  0
  1 14  1  0  0  0  0
  1  9  1  0  0  0  0
  2  5  1  0  0  0  0
  2  3  2  0  0  0  0
  3  7  1  0  0  0  0
  4 11  1  0  0  0  0
  5 14  2  0  0  0  0
  6  1  2  0  0  0  0
  7  4  2  0  0  0  0
  8 12  1  1  0  0  0
  8 13  1  0  0  0  0
 12 16  1  0  0  0  0
 13  2  1  0  0  0  0
 15  4  1  0  0  0  0
 16  5  1  0  0  0  0
 17 16  2  0  0  0  0
 17  6  1  0  0  0  0
 18 13  1  0  0  0  0
 18 10  2  0  0  0  0
 19 10  1  6  0  0  0
 19  3  1  0  0  0  0
 19 20  1  0  0  0  0
 20 15  2  0  0  0  0
 22 23  1  0  0  0  0
 23 21  1  6  0  0  0
 23 24  1  0  0  0  0
 24 22  1  6  0  0  0
 24  8  1  0  0  0  0
 25 31  1  6  0  0  0
 25 23  1  0  0  0  0
 26 29  1  0  0  0  0
 26 25  1  0  0  0  0
 27 26  1  0  0  0  0
 28 26  1  0  0  0  0
 31 30  1  0  0  0  0
M  END
>  <MODEL>
7

>  <REMARK>
 VINA RESULT:      -6.8      2.755      4.495
  Name = 
  4 active torsions:
  status: ('A' for Active; 'I' for Inactive)
    1  A    between atoms: C_1  and  C_19
    2  A    between atoms: O_7  and  C_19
    3  A    between atoms: C_15  and  C_23
    4  A    between atoms: C_19  and  C_22
                            x       y       z     vdW  Elec       q    Type
                         _______ _______ _______ _____ _____    ______ ____

>  <TORSDO>
F 4

$$$$
=
 OpenBabel10272400163D

 31 35  0  0  1  0  0  0  0  0999 V2000
  184.8390  179.0950  141.3370 C   0  0  0  0  0  0  0  0  0  0  0  0
  188.2550  177.5830  142.1930 C   0  0  0  0  0  0  0  0  0  0  0  0
  189.0300  177.6680  141.0790 C   0  0  0  0  0  0  0  0  0  0  0  0
  189.2740  178.0750  138.6750 C   0  0  0  0  0  0  0  0  0  0  0  0
  186.8270  178.0330  142.2690 C   0  0  0  0  0  0  0  0  0  0  0  0
  184.1050  178.7330  142.4670 C   0  0  0  0  0  3  0  0  0  0  0  0
  188.5570  178.2210  139.7910 C   0  0  0  0  0  3  0  0  0  0  0  0
  188.1520  177.0030  144.6620 C   0  0  1  0  0  3  0  0  0  0  0  0
  184.2410  179.7750  140.3300 F   0  0  0  0  0  0  0  0  0  0  0  0
  190.7780  176.2220  142.1890 C   0  0  0  0  0  3  0  0  0  0  0  0
  188.7590  178.6270  137.3960 C   0  0  0  0  0  1  0  0  0  0  0  0
  186.7020  177.0200  144.5070 N   0  0  0  0  0  2  0  0  0  0  0  0
  188.8030  176.9150  143.3570 N   0  0  0  0  0  0  0  0  0  0  0  0
  186.1870  178.7430  141.2390 C   0  0  0  0  0  3  0  0  0  0  0  0
  190.5290  177.3010  138.6810 C   0  0  0  0  0  3  0  0  0  0  0  0
  186.0800  177.7020  143.4170 C   0  0  0  0  0  0  0  0  0  0  0  0
  184.7260  178.0370  143.5050 C   0  0  0  0  0  3  0  0  0  0  0  0
  189.9850  176.1110  143.2510 C   0  0  0  0  0  3  0  0  0  0  0  0
  190.4950  177.2680  141.1560 C   0  0  1  0  0  3  0  0  0  0  0  0
  191.0790  176.8860  139.8250 C   0  0  0  0  0  3  0  0  0  0  0  0
  189.4520  179.1200  147.6270 C   0  0  0  0  0  1  0  0  0  0  0  0
  190.1130  178.4240  145.2700 C   0  0  0  0  0  2  0  0  0  0  0  0
  189.5030  178.0120  146.5910 C   0  0  2  0  0  0  0  0  0  0  0  0
  188.6020  178.2720  145.3850 C   0  0  2  0  0  3  0  0  0  0  0  0
  189.7530  176.5530  147.0310 C   0  0  1  0  0  3  0  0  0  0  0  0
  191.2360  176.1320  147.1230 C   0  0  0  0  0  0  0  0  0  0  0  0
  191.3030  174.7720  147.4230 O   0  0  0  0  0  1  0  0  0  0  0  0
  191.9690  176.9000  148.2110 C   0  0  0  0  0  1  0  0  0  0  0  0
  191.9470  176.3560  145.8010 C   0  0  0  0  0  1  0  0  0  0  0  0
  187.8120  176.2840  147.9230 O   0  0  0  0  0  1  0  0  0  0  0  0
  189.0900  176.3030  148.2380 O   0  0  0  0  0  0  0  0  0  0  0  0
  1  6  1  0  0  0  0
  2  5  1  0  0  0  0
  2 13  1  0  0  0  0
  3 19  1  0  0  0  0
  3  2  2  0  0  0  0
  4 15  1  0  0  0  0
  4  7  2  0  0  0  0
  5 16  2  0  0  0  0
  6 17  2  0  0  0  0
  7  3  1  0  0  0  0
  8 12  1  6  0  0  0
  8 24  1  0  0  0  0
  9  1  1  0  0  0  0
 10 18  2  0  0  0  0
 11  4  1  0  0  0  0
 13  8  1  0  0  0  0
 14  1  2  0  0  0  0
 14  5  1  0  0  0  0
 15 20  2  0  0  0  0
 16 17  1  0  0  0  0
 16 12  1  0  0  0  0
 18 13  1  0  0  0  0
 19 20  1  6  0  0  0
 19 10  1  0  0  0  0
 22 23  1  0  0  0  0
 23 25  1  0  0  0  0
 23 21  1  1  0  0  0
 24 22  1  6  0  0  0
 24 23  1  0  0  0  0
 25 26  1  0  0  0  0
 25 31  1  1  0  0  0
 26 27  1  0  0  0  0
 26 28  1  0  0  0  0
 29 26  1  0  0  0  0
 30 31  1  0  0  0  0
M  END
>  <MODEL>
8

>  <REMARK>
 VINA RESULT:      -6.7      4.288      7.394
  Name = 
  4 active torsions:
  status: ('A' for Active; 'I' for Inactive)
    1  A    between atoms: C_1  and  C_19
    2  A    between atoms: O_7  and  C_19
    3  A    between atoms: C_15  and  C_23
    4  A    between atoms: C_19  and  C_22
                            x       y       z     vdW  Elec       q    Type
                         _______ _______ _______ _____ _____    ______ ____

>  <TORSDO>
F 4

$$$$
=
 OpenBabel10272400163D

 31 35  0  0  1  0  0  0  0  0999 V2000
  191.7040  176.1660  136.6020 C   0  0  0  0  0  0  0  0  0  0  0  0
  189.4400  177.4060  139.4340 C   0  0  0  0  0  0  0  0  0  0  0  0
  188.1770  177.4920  138.9400 C   0  0  0  0  0  0  0  0  0  0  0  0
  186.6230  177.4980  137.0460 C   0  0  0  0  0  0  0  0  0  0  0  0
  190.6380  176.9920  138.6330 C   0  0  0  0  0  0  0  0  0  0  0  0
  192.9620  176.3500  137.1760 C   0  0  0  0  0  3  0  0  0  0  0  0
  187.8220  177.1830  137.5370 C   0  0  0  0  0  3  0  0  0  0  0  0
  190.9250  177.5540  141.4880 C   0  0  1  0  0  3  0  0  0  0  0  0
  191.5990  175.6870  135.3390 F   0  0  0  0  0  0  0  0  0  0  0  0
  187.4360  178.6720  141.0460 C   0  0  0  0  0  3  0  0  0  0  0  0
  186.3080  177.1900  135.6270 C   0  0  0  0  0  1  0  0  0  0  0  0
  192.0450  177.6070  140.5550 N   0  0  0  0  0  2  0  0  0  0  0  0
  189.6720  177.8470  140.7960 N   0  0  0  0  0  0  0  0  0  0  0  0
  190.5530  176.4890  137.3240 C   0  0  0  0  0  3  0  0  0  0  0  0
  185.6370  178.2220  137.8690 C   0  0  0  0  0  3  0  0  0  0  0  0
  191.9150  177.1420  139.2120 C   0  0  0  0  0  0  0  0  0  0  0  0
  193.0660  176.8370  138.4800 C   0  0  0  0  0  3  0  0  0  0  0  0
  188.6880  178.6220  141.4930 C   0  0  0  0  0  3  0  0  0  0  0  0
  187.0290  177.8290  139.8790 C   0  0  1  0  0  3  0  0  0  0  0  0
  185.8370  178.4170  139.1750 C   0  0  0  0  0  3  0  0  0  0  0  0
  191.1800  174.9450  144.3330 C   0  0  0  0  0  1  0  0  0  0  0  0
  189.4760  175.9390  142.7240 C   0  0  0  0  0  2  0  0  0  0  0  0
  190.6550  176.1890  143.6390 C   0  0  2  0  0  0  0  0  0  0  0  0
  190.8580  176.1660  142.1250 C   0  0  2  0  0  3  0  0  0  0  0  0
  190.6730  177.5490  144.3710 C   0  0  1  0  0  3  0  0  0  0  0  0
  189.7050  177.6710  145.5680 C   0  0  0  0  0  0  0  0  0  0  0  0
  189.5790  179.0160  145.9130 O   0  0  0  0  0  1  0  0  0  0  0  0
  190.2170  176.9110  146.7820 C   0  0  0  0  0  1  0  0  0  0  0  0
  188.3270  177.1480  145.2080 C   0  0  0  0  0  1  0  0  0  0  0  0
  192.2030  179.0580  144.2550 O   0  0  0  0  0  1  0  0  0  0  0  0
  191.9810  177.8610  144.7570 O   0  0  0  0  0  0  0  0  0  0  0  0
  1  6  2  0  0  0  0
  1 14  1  0  0  0  0
  2 13  1  0  0  0  0
  3  2  2  0  0  0  0
  3 19  1  0  0  0  0
  4  7  2  0  0  0  0
  4 15  1  0  0  0  0
  5 16  1  0  0  0  0
  5  2  1  0  0  0  0
  6 17  1  0  0  0  0
  7  3  1  0  0  0  0
  8 12  1  6  0  0  0
  8 24  1  0  0  0  0
  9  1  1  0  0  0  0
 10 18  2  0  0  0  0
 11  4  1  0  0  0  0
 13  8  1  0  0  0  0
 13 18  1  0  0  0  0
 14  5  2  0  0  0  0
 15 20  2  0  0  0  0
 16 12  1  0  0  0  0
 17 16  2  0  0  0  0
 19 20  1  6  0  0  0
 19 10  1  0  0  0  0
 22 23  1  0  0  0  0
 23 21  1  1  0  0  0
 23 25  1  0  0  0  0
 24 22  1  6  0  0  0
 24 23  1  0  0  0  0
 25 31  1  1  0  0  0
 25 26  1  0  0  0  0
 26 27  1  0  0  0  0
 26 28  1  0  0  0  0
 29 26  1  0  0  0  0
 30 31  1  0  0  0  0
M  END
>  <MODEL>
9

>  <REMARK>
 VINA RESULT:      -6.1      4.730      8.544
  Name = 
  4 active torsions:
  status: ('A' for Active; 'I' for Inactive)
    1  A    between atoms: C_1  and  C_19
    2  A    between atoms: O_7  and  C_19
    3  A    between atoms: C_15  and  C_23
    4  A    between atoms: C_19  and  C_22
                            x       y       z     vdW  Elec       q    Type
                         _______ _______ _______ _____ _____    ______ ____

>  <TORSDO>
F 4

$$$$
