=
 OpenBabel10272400563D

 25 28  0  0  1  0  0  0  0  0999 V2000
  189.0820  177.1390  143.9690 C   0  0  0  0  0  0  0  0  0  0  0  0
  188.0540  177.5940  144.8260 C   0  0  0  0  0  0  0  0  0  0  0  0
  190.6980  177.2850  145.7160 C   0  0  0  0  0  3  0  0  0  0  0  0
  188.9400  176.8410  142.5830 N   0  0  0  0  0  0  0  0  0  0  0  0
  185.7170  178.4800  144.8140 N   0  0  0  0  0  0  0  0  0  0  0  0
  191.1710  176.6510  139.8850 O   0  0  0  0  0  0  0  0  0  0  0  0
  189.7130  177.6740  146.5660 N   0  0  0  0  0  0  0  0  0  0  0  0
  190.1110  176.1800  142.0230 C   0  0  1  0  0  3  0  0  0  0  0  0
  190.2630  176.8780  140.7250 C   0  0  0  0  0  0  0  0  0  0  0  0
  187.5190  178.0490  147.2090 C   0  0  0  0  0  0  0  0  0  0  0  0
  188.0280  178.2610  148.6010 C   0  0  0  0  0  1  0  0  0  0  0  0
  186.8860  177.8880  144.2370 C   0  0  0  0  0  3  0  0  0  0  0  0
  189.1880  177.8380  140.5390 C   0  0  0  0  0  3  0  0  0  0  0  0
  190.3690  176.9860  144.4100 C   0  0  0  0  0  0  0  0  0  0  0  0
  191.5320  176.4950  143.1460 S   0  0  0  0  0  0  0  0  0  0  0  0
  186.0600  177.9110  147.1500 C   0  0  0  0  0  3  0  0  0  0  0  0
  188.4480  177.7980  141.6390 C   0  0  0  0  0  3  0  0  0  0  0  0
  185.2670  178.0910  146.1090 C   0  0  0  0  0  3  0  0  0  0  0  0
  188.3960  177.8060  146.2040 C   0  0  0  0  0  0  0  0  0  0  0  0
  183.3430  179.1520  144.5520 C   0  0  0  0  0  1  0  0  0  0  0  0
  184.7090  179.0220  143.8850 C   0  0  2  0  0  3  0  0  0  0  0  0
  184.5600  178.1420  142.6430 C   0  0  0  0  0  2  0  0  0  0  0  0
  184.5370  178.9730  141.4060 C   0  0  0  0  0  0  0  0  0  0  0  0
  183.4080  178.9830  140.5960 O   0  0  0  0  0  0  0  0  0  0  0  0
  185.5490  179.6460  141.0810 O   0  0  0  0  0  1  0  0  0  0  0  0
  1 14  2  0  0  0  0
  1  2  1  0  0  0  0
  2 19  1  0  0  0  0
  3  7  2  0  0  0  0
  4  1  1  0  0  0  0
  5 18  1  0  0  0  0
  6  9  2  0  0  0  0
  8  9  1  6  0  0  0
  8  4  1  0  0  0  0
  8 15  1  0  0  0  0
 10 11  1  0  0  0  0
 12  5  1  0  0  0  0
 12  2  2  0  0  0  0
 13  9  1  0  0  0  0
 13 17  2  0  0  0  0
 14  3  1  0  0  0  0
 15 14  1  0  0  0  0
 16 10  1  0  0  0  0
 17  4  1  0  0  0  0
 18 16  2  0  0  0  0
 19  7  1  0  0  0  0
 19 10  2  0  0  0  0
 21 20  1  1  0  0  0
 21  5  1  0  0  0  0
 22 21  1  0  0  0  0
 23 22  1  0  0  0  0
 24 23  2  0  0  0  0
 25 23  1  0  0  0  0
M  END
>  <MODEL>
1

>  <REMARK>
 VINA RESULT:      -9.1      0.000      0.000
  Name = 
  3 active torsions:
  status: ('A' for Active; 'I' for Inactive)
    1  A    between atoms: C_2  and  C_15
    2  A    between atoms: N_6  and  C_25
    3  A    between atoms: C_15  and  C_25
                            x       y       z     vdW  Elec       q    Type
                         _______ _______ _______ _____ _____    ______ ____

>  <TORSDO>
F 3

$$$$
=
 OpenBabel10272400563D

 25 28  0  0  1  0  0  0  0  0999 V2000
  187.3590  178.1060  145.1290 C   0  0  0  0  0  0  0  0  0  0  0  0
  188.6310  177.7020  144.6650 C   0  0  0  0  0  0  0  0  0  0  0  0
  187.8290  177.3000  147.3240 C   0  0  0  0  0  3  0  0  0  0  0  0
  186.3310  178.6940  144.3380 N   0  0  0  0  0  0  0  0  0  0  0  0
  189.9410  177.3180  142.5710 N   0  0  0  0  0  0  0  0  0  0  0  0
  182.8500  178.9700  144.6660 O   0  0  0  0  0  0  0  0  0  0  0  0
  189.0730  176.9530  146.9070 N   0  0  0  0  0  0  0  0  0  0  0  0
  185.2260  179.2080  145.1360 C   0  0  1  0  0  3  0  0  0  0  0  0
  184.0510  178.7650  144.3490 C   0  0  0  0  0  0  0  0  0  0  0  0
  190.8550  176.9000  145.4270 C   0  0  0  0  0  0  0  0  0  0  0  0
  191.6780  176.3200  146.5350 C   0  0  0  0  0  1  0  0  0  0  0  0
  188.8200  177.7690  143.3390 C   0  0  0  0  0  3  0  0  0  0  0  0
  184.4800  178.0930  143.1340 C   0  0  0  0  0  3  0  0  0  0  0  0
  186.9740  177.9110  146.4290 C   0  0  0  0  0  0  0  0  0  0  0  0
  185.2950  178.4020  146.7870 S   0  0  0  0  0  0  0  0  0  0  0  0
  191.6640  177.3340  144.2830 C   0  0  0  0  0  3  0  0  0  0  0  0
  185.8060  178.0600  143.1670 C   0  0  0  0  0  3  0  0  0  0  0  0
  191.2720  177.5230  143.0350 C   0  0  0  0  0  3  0  0  0  0  0  0
  189.5400  177.1590  145.6330 C   0  0  0  0  0  0  0  0  0  0  0  0
  191.0610  177.3520  140.3570 C   0  0  0  0  0  1  0  0  0  0  0  0
  189.7480  177.1810  141.1160 C   0  0  2  0  0  3  0  0  0  0  0  0
  188.7440  178.2040  140.5840 C   0  0  0  0  0  2  0  0  0  0  0  0
  188.6360  178.1180  139.1000 C   0  0  0  0  0  0  0  0  0  0  0  0
  188.9770  179.2110  138.3130 O   0  0  0  0  0  0  0  0  0  0  0  0
  188.2120  177.0630  138.5600 O   0  0  0  0  0  1  0  0  0  0  0  0
  1 14  2  0  0  0  0
  2  1  1  0  0  0  0
  2 19  1  0  0  0  0
  4  1  1  0  0  0  0
  4  8  1  0  0  0  0
  5 18  1  0  0  0  0
  5 12  1  0  0  0  0
  7  3  2  0  0  0  0
  8  9  1  6  0  0  0
  8 15  1  0  0  0  0
  9  6  2  0  0  0  0
 10 19  2  0  0  0  0
 10 11  1  0  0  0  0
 12  2  2  0  0  0  0
 13 17  2  0  0  0  0
 13  9  1  0  0  0  0
 14 15  1  0  0  0  0
 14  3  1  0  0  0  0
 16 10  1  0  0  0  0
 17  4  1  0  0  0  0
 18 16  2  0  0  0  0
 19  7  1  0  0  0  0
 21 20  1  6  0  0  0
 21  5  1  0  0  0  0
 22 21  1  0  0  0  0
 23 22  1  0  0  0  0
 24 23  2  0  0  0  0
 25 23  1  0  0  0  0
M  END
>  <MODEL>
2

>  <REMARK>
 VINA RESULT:      -9.0      2.262      5.323
  Name = 
  3 active torsions:
  status: ('A' for Active; 'I' for Inactive)
    1  A    between atoms: C_2  and  C_15
    2  A    between atoms: N_6  and  C_25
    3  A    between atoms: C_15  and  C_25
                            x       y       z     vdW  Elec       q    Type
                         _______ _______ _______ _____ _____    ______ ____

>  <TORSDO>
F 3

$$$$
=
 OpenBabel10272400563D

 25 28  0  0  1  0  0  0  0  0999 V2000
  187.4070  177.8580  143.2240 C   0  0  0  0  0  0  0  0  0  0  0  0
  188.7680  177.5370  143.4290 C   0  0  0  0  0  0  0  0  0  0  0  0
  187.8420  178.5710  140.9900 C   0  0  0  0  0  3  0  0  0  0  0  0
  186.3720  177.7610  144.1970 N   0  0  0  0  0  0  0  0  0  0  0  0
  190.4240  177.0000  145.2230 N   0  0  0  0  0  0  0  0  0  0  0  0
  183.2200  179.2520  144.5690 O   0  0  0  0  0  0  0  0  0  0  0  0
  189.1430  178.2200  141.1540 N   0  0  0  0  0  0  0  0  0  0  0  0
  185.0430  177.9420  143.6300 C   0  0  1  0  0  3  0  0  0  0  0  0
  184.3960  178.8100  144.6420 C   0  0  0  0  0  0  0  0  0  0  0  0
  190.9320  177.2340  142.2470 C   0  0  0  0  0  0  0  0  0  0  0  0
  191.7360  177.4590  141.0050 C   0  0  0  0  0  1  0  0  0  0  0  0
  189.1170  177.2400  144.6900 C   0  0  0  0  0  3  0  0  0  0  0  0
  185.3000  179.0490  145.7550 C   0  0  0  0  0  3  0  0  0  0  0  0
  186.9600  178.3590  142.0300 C   0  0  0  0  0  0  0  0  0  0  0  0
  185.2270  178.7900  142.0100 S   0  0  0  0  0  0  0  0  0  0  0  0
  191.5950  176.3380  143.2000 C   0  0  0  0  0  3  0  0  0  0  0  0
  186.4380  178.4360  145.4570 C   0  0  0  0  0  3  0  0  0  0  0  0
  191.3760  176.2260  144.4990 C   0  0  0  0  0  3  0  0  0  0  0  0
  189.6500  177.6730  142.3050 C   0  0  0  0  0  0  0  0  0  0  0  0
  191.6610  176.1000  147.1760 C   0  0  0  0  0  1  0  0  0  0  0  0
  190.5720  177.0510  146.6890 C   0  0  2  0  0  3  0  0  0  0  0  0
  189.2650  176.6940  147.3980 C   0  0  0  0  0  2  0  0  0  0  0  0
  188.8610  177.7770  148.3380 C   0  0  0  0  0  0  0  0  0  0  0  0
  187.5580  177.8310  148.8170 O   0  0  0  0  0  1  0  0  0  0  0  0
  189.6920  178.6580  148.6780 O   0  0  0  0  0  0  0  0  0  0  0  0
  1  2  1  0  0  0  0
  1  4  1  0  0  0  0
  2 12  2  0  0  0  0
  3  7  2  0  0  0  0
  3 14  1  0  0  0  0
  4 17  1  0  0  0  0
  5 21  1  0  0  0  0
  6  9  2  0  0  0  0
  7 19  1  0  0  0  0
  8 15  1  6  0  0  0
  8  4  1  0  0  0  0
  8  9  1  0  0  0  0
  9 13  1  0  0  0  0
 10 19  2  0  0  0  0
 10 16  1  0  0  0  0
 11 10  1  0  0  0  0
 12  5  1  0  0  0  0
 14  1  2  0  0  0  0
 15 14  1  0  0  0  0
 16 18  2  0  0  0  0
 17 13  2  0  0  0  0
 18  5  1  0  0  0  0
 19  2  1  0  0  0  0
 21 20  1  1  0  0  0
 21 22  1  0  0  0  0
 22 23  1  0  0  0  0
 23 25  2  0  0  0  0
 23 24  1  0  0  0  0
M  END
>  <MODEL>
3

>  <REMARK>
 VINA RESULT:      -9.0      3.136      6.450
  Name = 
  3 active torsions:
  status: ('A' for Active; 'I' for Inactive)
    1  A    between atoms: C_2  and  C_15
    2  A    between atoms: N_6  and  C_25
    3  A    between atoms: C_15  and  C_25
                            x       y       z     vdW  Elec       q    Type
                         _______ _______ _______ _____ _____    ______ ____

>  <TORSDO>
F 3

$$$$
=
 OpenBabel10272400563D

 25 28  0  0  1  0  0  0  0  0999 V2000
  189.2960  177.4150  141.9980 C   0  0  0  0  0  0  0  0  0  0  0  0
  188.4540  177.6570  143.1070 C   0  0  0  0  0  0  0  0  0  0  0  0
  191.2470  177.5480  143.3630 C   0  0  0  0  0  3  0  0  0  0  0  0
  188.8710  177.2550  140.6480 N   0  0  0  0  0  0  0  0  0  0  0  0
  186.1080  178.2740  143.7120 N   0  0  0  0  0  0  0  0  0  0  0  0
  190.4420  177.6090  137.5340 O   0  0  0  0  0  0  0  0  0  0  0  0
  190.4510  177.7310  144.4470 N   0  0  0  0  0  0  0  0  0  0  0  0
  189.9360  176.7930  139.7690 C   0  0  1  0  0  3  0  0  0  0  0  0
  189.7310  177.6410  138.5710 C   0  0  0  0  0  0  0  0  0  0  0  0
  188.4340  177.7880  145.5880 C   0  0  0  0  0  0  0  0  0  0  0  0
  189.2250  177.9030  146.8540 C   0  0  0  0  0  1  0  0  0  0  0  0
  187.1620  177.8820  142.8260 C   0  0  0  0  0  3  0  0  0  0  0  0
  188.5650  178.4910  138.7460 C   0  0  0  0  0  3  0  0  0  0  0  0
  190.6580  177.3580  142.1290 C   0  0  0  0  0  0  0  0  0  0  0  0
  191.5420  177.1400  140.5940 S   0  0  0  0  0  0  0  0  0  0  0  0
  187.0170  177.4960  145.8260 C   0  0  0  0  0  3  0  0  0  0  0  0
  188.1000  178.2490  139.9650 C   0  0  0  0  0  3  0  0  0  0  0  0
  185.9970  177.7000  145.0110 C   0  0  0  0  0  3  0  0  0  0  0  0
  189.0800  177.7540  144.3960 C   0  0  0  0  0  0  0  0  0  0  0  0
  183.6980  178.7410  144.0680 C   0  0  0  0  0  1  0  0  0  0  0  0
  184.8750  178.7980  143.0990 C   0  0  2  0  0  3  0  0  0  0  0  0
  184.5010  178.0210  141.8360 C   0  0  0  0  0  2  0  0  0  0  0  0
  184.0620  178.9490  140.7550 C   0  0  0  0  0  0  0  0  0  0  0  0
  182.7210  179.0170  140.3990 O   0  0  0  0  0  1  0  0  0  0  0  0
  184.9100  179.6520  140.1460 O   0  0  0  0  0  0  0  0  0  0  0  0
  1 14  2  0  0  0  0
  1  2  1  0  0  0  0
  2 19  1  0  0  0  0
  3  7  2  0  0  0  0
  4  1  1  0  0  0  0
  5 18  1  0  0  0  0
  6  9  2  0  0  0  0
  8  9  1  6  0  0  0
  8 15  1  0  0  0  0
  8  4  1  0  0  0  0
  9 13  1  0  0  0  0
 10 16  1  0  0  0  0
 10 11  1  0  0  0  0
 12  2  2  0  0  0  0
 12  5  1  0  0  0  0
 13 17  2  0  0  0  0
 14  3  1  0  0  0  0
 15 14  1  0  0  0  0
 17  4  1  0  0  0  0
 18 16  2  0  0  0  0
 19  7  1  0  0  0  0
 19 10  2  0  0  0  0
 21  5  1  0  0  0  0
 21 20  1  1  0  0  0
 22 21  1  0  0  0  0
 23 22  1  0  0  0  0
 24 23  1  0  0  0  0
 25 23  2  0  0  0  0
M  END
>  <MODEL>
4

>  <REMARK>
 VINA RESULT:      -8.7      1.483      1.832
  Name = 
  3 active torsions:
  status: ('A' for Active; 'I' for Inactive)
    1  A    between atoms: C_2  and  C_15
    2  A    between atoms: N_6  and  C_25
    3  A    between atoms: C_15  and  C_25
                            x       y       z     vdW  Elec       q    Type
                         _______ _______ _______ _____ _____    ______ ____

>  <TORSDO>
F 3

$$$$
=
 OpenBabel10272400563D

 25 28  0  0  1  0  0  0  0  0999 V2000
  187.8370  177.6310  145.7000 C   0  0  0  0  0  0  0  0  0  0  0  0
  187.0580  177.9810  144.5740 C   0  0  0  0  0  0  0  0  0  0  0  0
  186.2450  178.6020  147.1870 C   0  0  0  0  0  3  0  0  0  0  0  0
  189.1100  176.9940  145.6690 N   0  0  0  0  0  0  0  0  0  0  0  0
  187.1630  178.1840  142.0840 N   0  0  0  0  0  0  0  0  0  0  0  0
  191.7950  176.7860  147.9140 O   0  0  0  0  0  0  0  0  0  0  0  0
  185.4610  178.9010  146.1200 N   0  0  0  0  0  0  0  0  0  0  0  0
  189.5590  176.5580  146.9830 C   0  0  1  0  0  3  0  0  0  0  0  0
  190.9880  176.9510  146.9630 C   0  0  0  0  0  0  0  0  0  0  0  0
  184.8190  178.8150  143.8940 C   0  0  0  0  0  0  0  0  0  0  0  0
  183.5370  179.4720  144.3040 C   0  0  0  0  0  1  0  0  0  0  0  0
  187.6440  177.8080  143.3800 C   0  0  0  0  0  3  0  0  0  0  0  0
  191.3370  177.5190  145.6720 C   0  0  0  0  0  3  0  0  0  0  0  0
  187.4330  177.9330  146.9740 C   0  0  0  0  0  0  0  0  0  0  0  0
  188.6040  177.4910  148.2470 S   0  0  0  0  0  0  0  0  0  0  0  0
  184.7770  178.2830  142.5290 C   0  0  0  0  0  3  0  0  0  0  0  0
  190.2230  177.5390  144.9530 C   0  0  0  0  0  3  0  0  0  0  0  0
  185.7940  178.0000  141.7340 C   0  0  0  0  0  3  0  0  0  0  0  0
  185.7820  178.5890  144.8220 C   0  0  0  0  0  0  0  0  0  0  0  0
  187.4560  178.2600  139.6220 C   0  0  0  0  0  1  0  0  0  0  0  0
  188.1430  178.2070  140.9840 C   0  0  2  0  0  3  0  0  0  0  0  0
  189.0560  176.9810  141.0190 C   0  0  0  0  0  2  0  0  0  0  0  0
  190.4590  177.3570  140.6850 C   0  0  0  0  0  0  0  0  0  0  0  0
  190.8780  177.3750  139.3610 O   0  0  0  0  0  0  0  0  0  0  0  0
  191.2720  177.6340  141.6050 O   0  0  0  0  0  1  0  0  0  0  0  0
  1 14  2  0  0  0  0
  2 19  1  0  0  0  0
  2  1  1  0  0  0  0
  4  1  1  0  0  0  0
  4  8  1  0  0  0  0
  5 12  1  0  0  0  0
  7  3  2  0  0  0  0
  8  9  1  6  0  0  0
  8 15  1  0  0  0  0
  9  6  2  0  0  0  0
 10 11  1  0  0  0  0
 10 19  2  0  0  0  0
 12  2  2  0  0  0  0
 13  9  1  0  0  0  0
 14  3  1  0  0  0  0
 14 15  1  0  0  0  0
 16 10  1  0  0  0  0
 17  4  1  0  0  0  0
 17 13  2  0  0  0  0
 18  5  1  0  0  0  0
 18 16  2  0  0  0  0
 19  7  1  0  0  0  0
 21 20  1  6  0  0  0
 21 22  1  0  0  0  0
 21  5  1  0  0  0  0
 23 22  1  0  0  0  0
 23 25  1  0  0  0  0
 24 23  2  0  0  0  0
M  END
>  <MODEL>
5

>  <REMARK>
 VINA RESULT:      -8.6      2.526      5.018
  Name = 
  3 active torsions:
  status: ('A' for Active; 'I' for Inactive)
    1  A    between atoms: C_2  and  C_15
    2  A    between atoms: N_6  and  C_25
    3  A    between atoms: C_15  and  C_25
                            x       y       z     vdW  Elec       q    Type
                         _______ _______ _______ _____ _____    ______ ____

>  <TORSDO>
F 3

$$$$
=
 OpenBabel10272400563D

 25 28  0  0  1  0  0  0  0  0999 V2000
  189.6090  177.2020  142.9430 C   0  0  0  0  0  0  0  0  0  0  0  0
  189.1880  177.3540  144.2830 C   0  0  0  0  0  0  0  0  0  0  0  0
  191.8980  177.0940  143.6020 C   0  0  0  0  0  3  0  0  0  0  0  0
  188.7630  177.2140  141.7970 N   0  0  0  0  0  0  0  0  0  0  0  0
  187.2150  178.0000  145.6750 N   0  0  0  0  0  0  0  0  0  0  0  0
  189.2770  177.8480  138.3870 O   0  0  0  0  0  0  0  0  0  0  0  0
  191.5070  177.1880  144.8990 N   0  0  0  0  0  0  0  0  0  0  0  0
  189.4510  176.8090  140.5800 C   0  0  1  0  0  3  0  0  0  0  0  0
  188.9400  177.7940  139.5980 C   0  0  0  0  0  0  0  0  0  0  0  0
  189.9730  177.2030  146.6360 C   0  0  0  0  0  0  0  0  0  0  0  0
  191.1340  177.1390  147.5790 C   0  0  0  0  0  1  0  0  0  0  0  0
  187.8950  177.6650  144.4610 C   0  0  0  0  0  3  0  0  0  0  0  0
  187.9620  178.6690  140.2220 C   0  0  0  0  0  3  0  0  0  0  0  0
  190.9320  177.0710  142.6160 C   0  0  0  0  0  0  0  0  0  0  0  0
  191.2590  176.9890  140.8630 S   0  0  0  0  0  0  0  0  0  0  0  0
  188.6880  176.9480  147.2950 C   0  0  0  0  0  3  0  0  0  0  0  0
  187.8930  178.3120  141.4980 C   0  0  0  0  0  3  0  0  0  0  0  0
  187.4800  177.2880  146.8800 C   0  0  0  0  0  3  0  0  0  0  0  0
  190.1980  177.2770  145.3000 C   0  0  0  0  0  0  0  0  0  0  0  0
  185.0090  178.3480  146.7570 C   0  0  0  0  0  1  0  0  0  0  0  0
  185.8950  178.6440  145.5500 C   0  0  2  0  0  3  0  0  0  0  0  0
  185.1640  178.1860  144.2880 C   0  0  0  0  0  2  0  0  0  0  0  0
  184.5570  179.3470  143.5770 C   0  0  0  0  0  0  0  0  0  0  0  0
  183.3720  179.9040  144.0410 O   0  0  0  0  0  1  0  0  0  0  0  0
  185.1040  179.8060  142.5410 O   0  0  0  0  0  0  0  0  0  0  0  0
  1  2  1  0  0  0  0
  2 12  2  0  0  0  0
  2 19  1  0  0  0  0
  3  7  2  0  0  0  0
  4  1  1  0  0  0  0
  5 18  1  0  0  0  0
  6  9  2  0  0  0  0
  7 19  1  0  0  0  0
  8  9  1  6  0  0  0
  8 15  1  0  0  0  0
  8  4  1  0  0  0  0
  9 13  1  0  0  0  0
 10 16  1  0  0  0  0
 10 11  1  0  0  0  0
 12  5  1  0  0  0  0
 13 17  2  0  0  0  0
 14  1  2  0  0  0  0
 14  3  1  0  0  0  0
 15 14  1  0  0  0  0
 17  4  1  0  0  0  0
 18 16  2  0  0  0  0
 19 10  2  0  0  0  0
 21  5  1  0  0  0  0
 21 20  1  1  0  0  0
 22 21  1  0  0  0  0
 23 24  1  0  0  0  0
 23 22  1  0  0  0  0
 25 23  2  0  0  0  0
M  END
>  <MODEL>
6

>  <REMARK>
 VINA RESULT:      -8.5      1.551      2.184
  Name = 
  3 active torsions:
  status: ('A' for Active; 'I' for Inactive)
    1  A    between atoms: C_2  and  C_15
    2  A    between atoms: N_6  and  C_25
    3  A    between atoms: C_15  and  C_25
                            x       y       z     vdW  Elec       q    Type
                         _______ _______ _______ _____ _____    ______ ____

>  <TORSDO>
F 3

$$$$
=
 OpenBabel10272400563D

 25 28  0  0  1  0  0  0  0  0999 V2000
  189.4240  177.2390  140.9290 C   0  0  0  0  0  0  0  0  0  0  0  0
  188.7920  177.4650  142.1720 C   0  0  0  0  0  0  0  0  0  0  0  0
  191.5860  177.3960  141.9230 C   0  0  0  0  0  3  0  0  0  0  0  0
  188.7670  177.0770  139.6760 N   0  0  0  0  0  0  0  0  0  0  0  0
  186.5840  178.0460  143.1900 N   0  0  0  0  0  0  0  0  0  0  0  0
  189.7500  177.4620  136.3330 O   0  0  0  0  0  0  0  0  0  0  0  0
  190.9950  177.5650  143.1330 N   0  0  0  0  0  0  0  0  0  0  0  0
  189.6640  176.6330  138.6180 C   0  0  1  0  0  3  0  0  0  0  0  0
  189.2360  177.4800  137.4810 C   0  0  0  0  0  0  0  0  0  0  0  0
  189.2150  177.5880  144.6170 C   0  0  0  0  0  0  0  0  0  0  0  0
  190.2180  177.7110  145.7220 C   0  0  0  0  0  1  0  0  0  0  0  0
  187.4670  177.6720  142.1280 C   0  0  0  0  0  3  0  0  0  0  0  0
  188.1080  178.3120  137.8660 C   0  0  0  0  0  3  0  0  0  0  0  0
  190.7880  177.2010  140.8140 C   0  0  0  0  0  0  0  0  0  0  0  0
  191.3870  177.0000  139.1440 S   0  0  0  0  0  0  0  0  0  0  0  0
  187.8670  177.2750  145.1030 C   0  0  0  0  0  3  0  0  0  0  0  0
  187.8720  178.0600  139.1470 C   0  0  0  0  0  3  0  0  0  0  0  0
  186.7140  177.4660  144.4850 C   0  0  0  0  0  3  0  0  0  0  0  0
  189.6360  177.5680  143.3280 C   0  0  0  0  0  0  0  0  0  0  0  0
  185.2590  179.1470  141.4050 C   0  0  0  0  0  1  0  0  0  0  0  0
  185.2530  178.5540  142.8110 C   0  0  2  0  0  3  0  0  0  0  0  0
  184.7610  179.6240  143.7870 C   0  0  0  0  0  2  0  0  0  0  0  0
  183.5350  179.1660  144.5000 C   0  0  0  0  0  0  0  0  0  0  0  0
  182.3780  178.8870  143.7840 O   0  0  0  0  0  0  0  0  0  0  0  0
  183.5400  179.0570  145.7530 O   0  0  0  0  0  1  0  0  0  0  0  0
  1  2  1  0  0  0  0
  2 19  1  0  0  0  0
  3  7  2  0  0  0  0
  4  1  1  0  0  0  0
  5 18  1  0  0  0  0
  6  9  2  0  0  0  0
  7 19  1  0  0  0  0
  8  9  1  6  0  0  0
  8 15  1  0  0  0  0
  8  4  1  0  0  0  0
  9 13  1  0  0  0  0
 10 16  1  0  0  0  0
 10 11  1  0  0  0  0
 12  2  2  0  0  0  0
 12  5  1  0  0  0  0
 13 17  2  0  0  0  0
 14  1  2  0  0  0  0
 14  3  1  0  0  0  0
 15 14  1  0  0  0  0
 17  4  1  0  0  0  0
 18 16  2  0  0  0  0
 19 10  2  0  0  0  0
 21 20  1  6  0  0  0
 21  5  1  0  0  0  0
 21 22  1  0  0  0  0
 22 23  1  0  0  0  0
 23 25  1  0  0  0  0
 24 23  2  0  0  0  0
M  END
>  <MODEL>
7

>  <REMARK>
 VINA RESULT:      -8.3      2.236      3.220
  Name = 
  3 active torsions:
  status: ('A' for Active; 'I' for Inactive)
    1  A    between atoms: C_2  and  C_15
    2  A    between atoms: N_6  and  C_25
    3  A    between atoms: C_15  and  C_25
                            x       y       z     vdW  Elec       q    Type
                         _______ _______ _______ _____ _____    ______ ____

>  <TORSDO>
F 3

$$$$
=
 OpenBabel10272400563D

 25 28  0  0  1  0  0  0  0  0999 V2000
  187.2360  178.3130  141.7620 C   0  0  0  0  0  0  0  0  0  0  0  0
  186.7960  178.2600  143.1040 C   0  0  0  0  0  0  0  0  0  0  0  0
  184.9940  178.4310  140.9600 C   0  0  0  0  0  3  0  0  0  0  0  0
  188.5890  178.2360  141.3250 N   0  0  0  0  0  0  0  0  0  0  0  0
  187.5750  177.7400  145.4220 N   0  0  0  0  0  0  0  0  0  0  0  0
  190.1340  177.3620  138.3010 O   0  0  0  0  0  0  0  0  0  0  0  0
  184.5560  178.4320  142.2440 N   0  0  0  0  0  0  0  0  0  0  0  0
  188.7480  178.5470  139.9120 C   0  0  1  0  0  3  0  0  0  0  0  0
  189.7060  177.5040  139.4760 C   0  0  0  0  0  0  0  0  0  0  0  0
  184.7950  178.5580  144.5460 C   0  0  0  0  0  0  0  0  0  0  0  0
  183.3040  178.6680  144.6320 C   0  0  0  0  0  1  0  0  0  0  0  0
  187.7360  177.9810  144.0200 C   0  0  0  0  0  3  0  0  0  0  0  0
  190.1160  176.6890  140.6070 C   0  0  0  0  0  3  0  0  0  0  0  0
  186.3530  178.4020  140.7200 C   0  0  0  0  0  0  0  0  0  0  0  0
  187.1080  178.3580  139.1020 S   0  0  0  0  0  0  0  0  0  0  0  0
  185.4640  178.8770  145.8110 C   0  0  0  0  0  3  0  0  0  0  0  0
  189.4410  177.1340  141.6590 C   0  0  0  0  0  3  0  0  0  0  0  0
  186.6790  178.5290  146.1990 C   0  0  0  0  0  3  0  0  0  0  0  0
  185.3850  178.3910  143.3360 C   0  0  0  0  0  0  0  0  0  0  0  0
  188.4920  177.1120  147.6400 C   0  0  0  0  0  1  0  0  0  0  0  0
  188.7040  177.1100  146.1290 C   0  0  2  0  0  3  0  0  0  0  0  0
  190.0240  177.8180  145.8240 C   0  0  0  0  0  2  0  0  0  0  0  0
  191.1320  176.8320  145.6780 C   0  0  0  0  0  0  0  0  0  0  0  0
  192.0030  176.6040  146.7360 O   0  0  0  0  0  1  0  0  0  0  0  0
  191.2950  176.2250  144.5880 O   0  0  0  0  0  0  0  0  0  0  0  0
  1  2  1  0  0  0  0
  2 19  1  0  0  0  0
  2 12  2  0  0  0  0
  3  7  2  0  0  0  0
  4 17  1  0  0  0  0
  4  1  1  0  0  0  0
  5 21  1  0  0  0  0
  5 18  1  0  0  0  0
  6  9  2  0  0  0  0
  7 19  1  0  0  0  0
  8 15  1  6  0  0  0
  8  4  1  0  0  0  0
  9  8  1  0  0  0  0
  9 13  1  0  0  0  0
 10 11  1  0  0  0  0
 10 16  1  0  0  0  0
 12  5  1  0  0  0  0
 13 17  2  0  0  0  0
 14  3  1  0  0  0  0
 14  1  2  0  0  0  0
 15 14  1  0  0  0  0
 16 18  2  0  0  0  0
 19 10  2  0  0  0  0
 21 20  1  1  0  0  0
 22 21  1  0  0  0  0
 23 22  1  0  0  0  0
 23 24  1  0  0  0  0
 25 23  2  0  0  0  0
M  END
>  <MODEL>
8

>  <REMARK>
 VINA RESULT:      -8.3      2.574      5.061
  Name = 
  3 active torsions:
  status: ('A' for Active; 'I' for Inactive)
    1  A    between atoms: C_2  and  C_15
    2  A    between atoms: N_6  and  C_25
    3  A    between atoms: C_15  and  C_25
                            x       y       z     vdW  Elec       q    Type
                         _______ _______ _______ _____ _____    ______ ____

>  <TORSDO>
F 3

$$$$
=
 OpenBabel10272400563D

 25 28  0  0  1  0  0  0  0  0999 V2000
  187.1490  177.8700  143.0210 C   0  0  0  0  0  0  0  0  0  0  0  0
  188.4890  177.4750  143.2380 C   0  0  0  0  0  0  0  0  0  0  0  0
  187.6720  178.6880  140.8420 C   0  0  0  0  0  3  0  0  0  0  0  0
  186.0860  177.7650  143.9620 N   0  0  0  0  0  0  0  0  0  0  0  0
  190.0740  176.7620  145.0350 N   0  0  0  0  0  0  0  0  0  0  0  0
  182.9950  179.3760  144.3480 O   0  0  0  0  0  0  0  0  0  0  0  0
  188.9520  178.2690  141.0150 N   0  0  0  0  0  0  0  0  0  0  0  0
  184.7810  178.0380  143.3770 C   0  0  1  0  0  3  0  0  0  0  0  0
  184.1480  178.8770  144.4220 C   0  0  0  0  0  0  0  0  0  0  0  0
  190.6670  177.1410  142.0900 C   0  0  0  0  0  0  0  0  0  0  0  0
  191.5110  177.4000  140.8820 C   0  0  0  0  0  1  0  0  0  0  0  0
  188.7920  177.0920  144.4870 C   0  0  0  0  0  3  0  0  0  0  0  0
  185.0330  179.0100  145.5670 C   0  0  0  0  0  3  0  0  0  0  0  0
  186.7550  178.4570  141.8480 C   0  0  0  0  0  0  0  0  0  0  0  0
  185.0450  178.9680  141.8130 S   0  0  0  0  0  0  0  0  0  0  0  0
  191.2650  176.1630  143.0050 C   0  0  0  0  0  3  0  0  0  0  0  0
  186.1500  178.3630  145.2610 C   0  0  0  0  0  3  0  0  0  0  0  0
  191.0080  175.9880  144.2900 C   0  0  0  0  0  3  0  0  0  0  0  0
  189.4040  177.6340  142.1440 C   0  0  0  0  0  0  0  0  0  0  0  0
  189.2250  177.7050  147.1680 C   0  0  0  0  0  1  0  0  0  0  0  0
  190.1860  176.7230  146.5040 C   0  0  2  0  0  3  0  0  0  0  0  0
  191.6070  177.0470  146.9680 C   0  0  0  0  0  2  0  0  0  0  0  0
  192.1560  175.9420  147.8030 C   0  0  0  0  0  0  0  0  0  0  0  0
  191.6000  174.6710  147.7260 O   0  0  0  0  0  0  0  0  0  0  0  0
  193.1070  176.1650  148.5960 O   0  0  0  0  0  1  0  0  0  0  0  0
  1  2  1  0  0  0  0
  1  4  1  0  0  0  0
  2 12  2  0  0  0  0
  3  7  2  0  0  0  0
  3 14  1  0  0  0  0
  4 17  1  0  0  0  0
  5 21  1  0  0  0  0
  6  9  2  0  0  0  0
  7 19  1  0  0  0  0
  8 15  1  6  0  0  0
  8  4  1  0  0  0  0
  8  9  1  0  0  0  0
  9 13  1  0  0  0  0
 10 19  2  0  0  0  0
 10 16  1  0  0  0  0
 11 10  1  0  0  0  0
 12  5  1  0  0  0  0
 14  1  2  0  0  0  0
 15 14  1  0  0  0  0
 16 18  2  0  0  0  0
 17 13  2  0  0  0  0
 18  5  1  0  0  0  0
 19  2  1  0  0  0  0
 21 22  1  0  0  0  0
 21 20  1  1  0  0  0
 22 23  1  0  0  0  0
 23 25  1  0  0  0  0
 24 23  2  0  0  0  0
M  END
>  <MODEL>
9

>  <REMARK>
 VINA RESULT:      -8.0      3.180      6.840
  Name = 
  3 active torsions:
  status: ('A' for Active; 'I' for Inactive)
    1  A    between atoms: C_2  and  C_15
    2  A    between atoms: N_6  and  C_25
    3  A    between atoms: C_15  and  C_25
                            x       y       z     vdW  Elec       q    Type
                         _______ _______ _______ _____ _____    ______ ____

>  <TORSDO>
F 3

$$$$
