=
 OpenBabel10272415343D

 34 38  0  0  1  0  0  0  0  0999 V2000
  193.7570  174.5180  136.7760 C   0  0  2  0  0  0  0  0  0  0  0  0
  190.3870  177.2840  138.0350 O   0  0  0  0  0  0  0  0  0  0  0  0
  193.0400  176.4750  138.0220 O   0  0  0  0  0  0  0  0  0  0  0  0
  193.7520  175.2640  134.3460 C   0  0  0  0  0  2  0  0  0  0  0  0
  194.5290  176.3580  134.7280 O   0  0  0  0  0  0  0  0  0  0  0  0
  193.9830  176.0220  137.0670 C   0  0  2  0  0  3  0  0  0  0  0  0
  194.0170  174.1170  135.3080 C   0  0  0  0  0  2  0  0  0  0  0  0
  193.8630  176.9170  135.8210 C   0  0  0  0  0  2  0  0  0  0  0  0
  190.6550  176.1410  137.6960 C   0  0  0  0  0  0  0  0  0  0  0  0
  189.6120  175.3070  136.9760 C   0  0  2  0  0  3  0  0  0  0  0  0
  189.9710  173.8090  136.9700 C   0  0  0  0  0  2  0  0  0  0  0  0
  191.9870  175.5350  138.0680 C   0  0  1  0  0  3  0  0  0  0  0  0
  191.4190  173.6080  136.6110 C   0  0  0  0  0  3  0  0  0  0  0  0
  192.3390  174.4170  137.1590 C   0  0  0  0  0  0  0  0  0  0  0  0
  195.3580  172.4930  137.0760 C   0  0  1  0  0  3  0  0  0  0  0  0
  197.5000  175.2040  136.6470 O   0  0  0  0  0  1  0  0  0  0  0  0
  200.2310  172.8160  135.3120 C   0  0  0  0  0  1  0  0  0  0  0  0
  195.5050  174.4360  138.6940 C   0  0  0  0  0  0  0  0  0  0  0  0
  194.6070  173.6570  137.7460 C   0  0  1  0  0  3  0  0  0  0  0  0
  199.3650  172.3490  136.4690 C   0  0  1  0  0  0  0  0  0  0  0  0
  197.8350  171.6640  135.8230 S   0  0  2  0  0  0  0  0  0  0  0  0
  200.0500  171.4000  137.2110 F   0  0  0  0  0  0  0  0  0  0  0  0
  196.7380  172.9470  136.4990 C   0  0  2  0  0  3  0  0  0  0  0  0
  195.0180  175.2240  139.4910 O   0  0  0  0  0  0  0  0  0  0  0  0
  197.6600  175.1490  139.4180 F   0  0  0  0  0  0  0  0  0  0  0  0
  197.6310  170.4180  136.6800 O   0  0  0  0  0  0  0  0  0  0  0  0
  198.9830  173.5140  137.3340 C   0  0  0  0  0  0  0  0  0  0  0  0
  197.5490  173.9760  137.3150 C   0  0  1  0  0  0  0  0  0  0  0  0
  199.8280  174.1010  138.0010 O   0  0  0  0  0  0  0  0  0  0  0  0
  196.9850  174.1450  138.7340 C   0  0  2  0  0  3  0  0  0  0  0  0
  195.4640  171.3640  138.0950 C   0  0  0  0  0  1  0  0  0  0  0  0
  189.3620  175.8030  135.5820 C   0  0  0  0  0  0  0  0  0  0  0  0
  190.3780  176.4580  134.8940 O   0  0  0  0  0  0  0  0  0  0  0  0
  188.2310  175.6620  135.0430 O   0  0  0  0  0  1  0  0  0  0  0  0
  1  7  1  6  0  0  0
  1  6  1  0  0  0  0
  1 14  1  0  0  0  0
  1 19  1  0  0  0  0
  3 12  1  0  0  0  0
  4  5  1  0  0  0  0
  4  7  1  0  0  0  0
  5  8  1  0  0  0  0
  6  8  1  6  0  0  0
  6  3  1  0  0  0  0
  9  2  2  0  0  0  0
  9 12  1  0  0  0  0
 10 32  1  6  0  0  0
 10  9  1  0  0  0  0
 11 10  1  0  0  0  0
 12 14  1  6  0  0  0
 13 11  1  0  0  0  0
 13 14  2  0  0  0  0
 15 19  1  0  0  0  0
 15 31  1  1  0  0  0
 16 28  1  0  0  0  0
 18 30  1  0  0  0  0
 18 24  2  0  0  0  0
 19 18  1  6  0  0  0
 20 17  1  6  0  0  0
 20 22  1  0  0  0  0
 20 27  1  0  0  0  0
 21 20  1  0  0  0  0
 21 23  1  0  0  0  0
 21 26  2  1  0  0  0
 23 15  1  0  0  0  0
 23 28  1  0  0  0  0
 27 29  2  0  0  0  0
 28 27  1  0  0  0  0
 28 30  1  0  0  0  0
 30 25  1  0  0  0  0
 33 32  2  0  0  0  0
 34 32  1  0  0  0  0
M  END
>  <MODEL>
1

>  <REMARK>
 VINA RESULT:      -5.7      0.000      0.000
  Name = 
  2 active torsions:
  status: ('A' for Active; 'I' for Inactive)
    1  A    between atoms: C_1  and  C_9
    2  A    between atoms: C_3  and  C_25
                            x       y       z     vdW  Elec       q    Type
                         _______ _______ _______ _____ _____    ______ ____

>  <TORSDO>
F 2

$$$$
=
 OpenBabel10272415343D

 34 38  0  0  1  0  0  0  0  0999 V2000
  184.2390  176.1070  136.4620 C   0  0  2  0  0  0  0  0  0  0  0  0
  180.5570  178.7310  136.8620 O   0  0  0  0  0  0  0  0  0  0  0  0
  182.3540  177.2090  135.3970 O   0  0  0  0  0  0  0  0  0  0  0  0
  183.2200  174.1200  137.6770 C   0  0  0  0  0  2  0  0  0  0  0  0
  182.5970  173.7660  136.4800 O   0  0  0  0  0  0  0  0  0  0  0  0
  183.0090  175.9600  135.5310 C   0  0  2  0  0  3  0  0  0  0  0  0
  184.4990  174.8760  137.3560 C   0  0  0  0  0  2  0  0  0  0  0  0
  181.9770  174.9350  136.0300 C   0  0  0  0  0  2  0  0  0  0  0  0
  181.6510  178.4810  137.3440 C   0  0  0  0  0  0  0  0  0  0  0  0
  181.8850  178.6980  138.8280 C   0  0  2  0  0  3  0  0  0  0  0  0
  183.3840  178.7030  139.1840 C   0  0  0  0  0  2  0  0  0  0  0  0
  182.7880  178.0390  136.4530 C   0  0  1  0  0  3  0  0  0  0  0  0
  184.0980  177.5640  138.5070 C   0  0  0  0  0  3  0  0  0  0  0  0
  183.8130  177.2940  137.2240 C   0  0  0  0  0  0  0  0  0  0  0  0
  186.4100  177.5220  136.2710 C   0  0  1  0  0  3  0  0  0  0  0  0
  187.4730  174.5340  137.7090 O   0  0  0  0  0  1  0  0  0  0  0  0
  190.4620  176.3880  139.3140 C   0  0  0  0  0  1  0  0  0  0  0  0
  186.2890  175.2790  135.1020 C   0  0  0  0  0  0  0  0  0  0  0  0
  185.4960  176.4650  135.6280 C   0  0  1  0  0  3  0  0  0  0  0  0
  190.0450  176.7720  137.9050 C   0  0  1  0  0  0  0  0  0  0  0  0
  188.7010  177.9600  137.9890 S   0  0  2  0  0  0  0  0  0  0  0  0
  191.1300  177.3080  137.2280 F   0  0  0  0  0  0  0  0  0  0  0  0
  187.4290  176.8790  137.2660 C   0  0  2  0  0  3  0  0  0  0  0  0
  185.7610  174.4760  134.3460 O   0  0  0  0  0  0  0  0  0  0  0  0
  188.2210  173.8840  135.1160 F   0  0  0  0  0  0  0  0  0  0  0  0
  189.0750  178.9750  136.9140 O   0  0  0  0  0  0  0  0  0  0  0  0
  189.5140  175.5730  137.1760 C   0  0  0  0  0  0  0  0  0  0  0  0
  188.0370  175.5130  136.8840 C   0  0  1  0  0  0  0  0  0  0  0  0
  190.2570  174.6470  136.8700 O   0  0  0  0  0  0  0  0  0  0  0  0
  187.7600  175.1620  135.4150 C   0  0  2  0  0  3  0  0  0  0  0  0
  187.0700  178.3090  135.1450 C   0  0  0  0  0  1  0  0  0  0  0  0
  181.1400  177.6990  139.6650 C   0  0  0  0  0  0  0  0  0  0  0  0
  180.8610  176.4400  139.1450 O   0  0  0  0  0  0  0  0  0  0  0  0
  180.7350  178.0040  140.8190 O   0  0  0  0  0  1  0  0  0  0  0  0
  1 14  1  0  0  0  0
  1  7  1  1  0  0  0
  2  9  2  0  0  0  0
  3  6  1  0  0  0  0
  5  4  1  0  0  0  0
  6  8  1  1  0  0  0
  6  1  1  0  0  0  0
  7  4  1  0  0  0  0
  8  5  1  0  0  0  0
  9 10  1  0  0  0  0
 10 11  1  0  0  0  0
 10 32  1  1  0  0  0
 12  3  1  6  0  0  0
 12 14  1  0  0  0  0
 12  9  1  0  0  0  0
 13 11  1  0  0  0  0
 14 13  2  0  0  0  0
 15 31  1  6  0  0  0
 15 23  1  0  0  0  0
 18 30  1  0  0  0  0
 19 18  1  1  0  0  0
 19 15  1  0  0  0  0
 19  1  1  0  0  0  0
 20 21  1  0  0  0  0
 20 17  1  1  0  0  0
 21 26  2  6  0  0  0
 22 20  1  0  0  0  0
 23 21  1  0  0  0  0
 24 18  2  0  0  0  0
 25 30  1  0  0  0  0
 27 20  1  0  0  0  0
 28 27  1  0  0  0  0
 28 23  1  0  0  0  0
 28 16  1  0  0  0  0
 29 27  2  0  0  0  0
 30 28  1  0  0  0  0
 32 34  1  0  0  0  0
 33 32  2  0  0  0  0
M  END
>  <MODEL>
2

>  <REMARK>
 VINA RESULT:      -5.5      6.346     10.260
  Name = 
  2 active torsions:
  status: ('A' for Active; 'I' for Inactive)
    1  A    between atoms: C_1  and  C_9
    2  A    between atoms: C_3  and  C_25
                            x       y       z     vdW  Elec       q    Type
                         _______ _______ _______ _____ _____    ______ ____

>  <TORSDO>
F 2

$$$$
=
 OpenBabel10272415343D

 34 38  0  0  1  0  0  0  0  0999 V2000
  184.4520  174.3970  135.9930 C   0  0  2  0  0  0  0  0  0  0  0  0
  179.9900  175.1350  135.6140 O   0  0  0  0  0  0  0  0  0  0  0  0
  182.4970  174.5840  134.5640 O   0  0  0  0  0  0  0  0  0  0  0  0
  184.2010  172.1410  137.1370 C   0  0  0  0  0  2  0  0  0  0  0  0
  184.0160  171.5740  135.8760 O   0  0  0  0  0  0  0  0  0  0  0  0
  183.5950  173.7450  134.8800 C   0  0  2  0  0  3  0  0  0  0  0  0
  185.0590  173.3870  136.9900 C   0  0  0  0  0  2  0  0  0  0  0  0
  183.0400  172.3620  135.2600 C   0  0  0  0  0  2  0  0  0  0  0  0
  180.9800  175.3800  136.2870 C   0  0  0  0  0  0  0  0  0  0  0  0
  180.8310  175.6480  137.7730 C   0  0  2  0  0  3  0  0  0  0  0  0
  182.0890  176.3020  138.3740 C   0  0  0  0  0  2  0  0  0  0  0  0
  182.3330  175.4990  135.6260 C   0  0  1  0  0  3  0  0  0  0  0  0
  183.3350  175.6040  137.8950 C   0  0  0  0  0  3  0  0  0  0  0  0
  183.4260  175.2620  136.6010 C   0  0  0  0  0  0  0  0  0  0  0  0
  185.7360  176.6560  136.0360 C   0  0  1  0  0  3  0  0  0  0  0  0
  187.7090  174.5280  137.9600 O   0  0  0  0  0  1  0  0  0  0  0  0
  189.1290  177.5830  139.8550 C   0  0  0  0  0  1  0  0  0  0  0  0
  186.8880  174.5960  135.1170 C   0  0  0  0  0  0  0  0  0  0  0  0
  185.5540  175.2850  135.3610 C   0  0  1  0  0  3  0  0  0  0  0  0
  188.8870  177.7080  138.3620 C   0  0  1  0  0  0  0  0  0  0  0  0
  187.1660  178.1360  138.0750 S   0  0  2  0  0  0  0  0  0  0  0  0
  189.7260  178.6770  137.8330 F   0  0  0  0  0  0  0  0  0  0  0  0
  186.7030  176.5760  137.2610 C   0  0  2  0  0  3  0  0  0  0  0  0
  186.9510  173.6290  134.3730 O   0  0  0  0  0  0  0  0  0  0  0  0
  189.1910  174.2610  135.6280 F   0  0  0  0  0  0  0  0  0  0  0  0
  187.2560  179.1920  136.9780 O   0  0  0  0  0  0  0  0  0  0  0  0
  189.1210  176.3890  137.6860 C   0  0  0  0  0  0  0  0  0  0  0  0
  187.9270  175.6440  137.1450 C   0  0  1  0  0  0  0  0  0  0  0  0
  190.2470  175.9100  137.6210 O   0  0  0  0  0  0  0  0  0  0  0  0
  188.1520  175.1820  135.6980 C   0  0  2  0  0  3  0  0  0  0  0  0
  186.1870  177.6430  134.9650 C   0  0  0  0  0  1  0  0  0  0  0  0
  180.4590  174.4070  138.5320 C   0  0  0  0  0  0  0  0  0  0  0  0
  179.9940  174.5150  139.8380 O   0  0  0  0  0  1  0  0  0  0  0  0
  180.5980  173.2680  138.0090 O   0  0  0  0  0  0  0  0  0  0  0  0
  1 14  1  0  0  0  0
  1  7  1  1  0  0  0
  2  9  2  0  0  0  0
  3  6  1  0  0  0  0
  5  4  1  0  0  0  0
  6  8  1  1  0  0  0
  6  1  1  0  0  0  0
  7  4  1  0  0  0  0
  8  5  1  0  0  0  0
  9 10  1  0  0  0  0
 10 11  1  0  0  0  0
 10 32  1  1  0  0  0
 12  3  1  6  0  0  0
 12  9  1  0  0  0  0
 12 14  1  0  0  0  0
 13 11  1  0  0  0  0
 14 13  2  0  0  0  0
 15 31  1  6  0  0  0
 15 23  1  0  0  0  0
 18 30  1  0  0  0  0
 19 18  1  1  0  0  0
 19  1  1  0  0  0  0
 19 15  1  0  0  0  0
 20 17  1  1  0  0  0
 21 26  2  6  0  0  0
 21 20  1  0  0  0  0
 22 20  1  0  0  0  0
 23 21  1  0  0  0  0
 24 18  2  0  0  0  0
 25 30  1  0  0  0  0
 27 20  1  0  0  0  0
 28 23  1  0  0  0  0
 28 27  1  0  0  0  0
 28 16  1  0  0  0  0
 29 27  2  0  0  0  0
 30 28  1  0  0  0  0
 32 33  1  0  0  0  0
 34 32  2  0  0  0  0
M  END
>  <MODEL>
3

>  <REMARK>
 VINA RESULT:      -5.4      6.997     10.467
  Name = 
  2 active torsions:
  status: ('A' for Active; 'I' for Inactive)
    1  A    between atoms: C_1  and  C_9
    2  A    between atoms: C_3  and  C_25
                            x       y       z     vdW  Elec       q    Type
                         _______ _______ _______ _____ _____    ______ ____

>  <TORSDO>
F 2

$$$$
=
 OpenBabel10272415343D

 34 38  0  0  1  0  0  0  0  0999 V2000
  185.3470  175.8740  136.1100 C   0  0  2  0  0  0  0  0  0  0  0  0
  181.1900  177.4840  135.2620 O   0  0  0  0  0  0  0  0  0  0  0  0
  183.7230  176.6640  134.4860 O   0  0  0  0  0  0  0  0  0  0  0  0
  184.5520  173.5420  136.7350 C   0  0  0  0  0  2  0  0  0  0  0  0
  184.5010  173.2450  135.3730 O   0  0  0  0  0  0  0  0  0  0  0  0
  184.6040  175.5940  134.7800 C   0  0  2  0  0  3  0  0  0  0  0  0
  185.6070  174.6130  136.9620 C   0  0  0  0  0  2  0  0  0  0  0  0
  183.7820  174.2940  134.7950 C   0  0  0  0  0  2  0  0  0  0  0  0
  182.0740  177.4210  136.1020 C   0  0  0  0  0  0  0  0  0  0  0  0
  181.7130  177.4540  137.5750 C   0  0  2  0  0  3  0  0  0  0  0  0
  182.9350  177.7490  138.4660 C   0  0  0  0  0  2  0  0  0  0  0  0
  183.5230  177.3980  135.6760 C   0  0  1  0  0  3  0  0  0  0  0  0
  184.1200  176.9240  138.0370 C   0  0  0  0  0  3  0  0  0  0  0  0
  184.3800  176.7970  136.7270 C   0  0  0  0  0  0  0  0  0  0  0  0
  187.0650  177.6490  136.9170 C   0  0  1  0  0  3  0  0  0  0  0  0
  188.3500  174.6350  138.0960 O   0  0  0  0  0  1  0  0  0  0  0  0
  190.1850  176.5380  140.9160 C   0  0  0  0  0  1  0  0  0  0  0  0
  187.8450  175.7700  135.4100 C   0  0  0  0  0  0  0  0  0  0  0  0
  186.6680  176.6360  135.8290 C   0  0  1  0  0  3  0  0  0  0  0  0
  190.1230  177.1730  139.5390 C   0  0  1  0  0  0  0  0  0  0  0  0
  188.5660  178.0520  139.3620 S   0  0  2  0  0  0  0  0  0  0  0  0
  191.1930  178.0380  139.3750 F   0  0  0  0  0  0  0  0  0  0  0  0
  187.8690  176.9730  138.0750 C   0  0  2  0  0  3  0  0  0  0  0  0
  187.7770  175.0950  134.3940 O   0  0  0  0  0  0  0  0  0  0  0  0
  189.9660  174.7730  135.8420 F   0  0  0  0  0  0  0  0  0  0  0  0
  188.9820  179.3470  138.6700 O   0  0  0  0  0  0  0  0  0  0  0  0
  190.1400  176.1130  138.4770 C   0  0  0  0  0  0  0  0  0  0  0  0
  188.8760  175.8680  137.6940 C   0  0  1  0  0  0  0  0  0  0  0  0
  191.1420  175.4330  138.2890 O   0  0  0  0  0  0  0  0  0  0  0  0
  189.1400  175.8400  136.1810 C   0  0  2  0  0  3  0  0  0  0  0  0
  187.8160  178.7890  136.2370 C   0  0  0  0  0  1  0  0  0  0  0  0
  181.0260  176.1930  138.0120 C   0  0  0  0  0  0  0  0  0  0  0  0
  181.3830  174.9810  137.4320 O   0  0  0  0  0  0  0  0  0  0  0  0
  180.1050  176.2280  138.8730 O   0  0  0  0  0  1  0  0  0  0  0  0
  1 14  1  0  0  0  0
  1  7  1  1  0  0  0
  2  9  2  0  0  0  0
  3  6  1  0  0  0  0
  4  7  1  0  0  0  0
  5  4  1  0  0  0  0
  6  8  1  1  0  0  0
  6  1  1  0  0  0  0
  8  5  1  0  0  0  0
  9 10  1  0  0  0  0
 10 32  1  1  0  0  0
 10 11  1  0  0  0  0
 12  3  1  6  0  0  0
 12  9  1  0  0  0  0
 12 14  1  0  0  0  0
 13 11  1  0  0  0  0
 14 13  2  0  0  0  0
 15 31  1  6  0  0  0
 15 23  1  0  0  0  0
 18 30  1  0  0  0  0
 19 18  1  1  0  0  0
 19  1  1  0  0  0  0
 19 15  1  0  0  0  0
 20 17  1  1  0  0  0
 21 26  2  6  0  0  0
 21 20  1  0  0  0  0
 22 20  1  0  0  0  0
 23 21  1  0  0  0  0
 24 18  2  0  0  0  0
 25 30  1  0  0  0  0
 27 20  1  0  0  0  0
 28 23  1  0  0  0  0
 28 16  1  0  0  0  0
 28 27  1  0  0  0  0
 29 27  2  0  0  0  0
 30 28  1  0  0  0  0
 32 34  1  0  0  0  0
 33 32  2  0  0  0  0
M  END
>  <MODEL>
4

>  <REMARK>
 VINA RESULT:      -5.4      6.251      9.573
  Name = 
  2 active torsions:
  status: ('A' for Active; 'I' for Inactive)
    1  A    between atoms: C_1  and  C_9
    2  A    between atoms: C_3  and  C_25
                            x       y       z     vdW  Elec       q    Type
                         _______ _______ _______ _____ _____    ______ ____

>  <TORSDO>
F 2

$$$$
=
 OpenBabel10272415343D

 34 38  0  0  1  0  0  0  0  0999 V2000
  188.0860  176.2850  136.3500 C   0  0  2  0  0  0  0  0  0  0  0  0
  192.3640  176.4970  134.8480 O   0  0  0  0  0  0  0  0  0  0  0  0
  189.7060  177.2900  134.8440 O   0  0  0  0  0  0  0  0  0  0  0  0
  188.6060  177.2960  138.6230 C   0  0  0  0  0  2  0  0  0  0  0  0
  188.5410  178.5560  138.0260 O   0  0  0  0  0  0  0  0  0  0  0  0
  188.7110  177.5940  135.8060 C   0  0  2  0  0  3  0  0  0  0  0  0
  187.7130  176.3420  137.8460 C   0  0  0  0  0  2  0  0  0  0  0  0
  189.3570  178.4680  136.8950 C   0  0  0  0  0  2  0  0  0  0  0  0
  191.5270  175.7630  135.3520 C   0  0  0  0  0  0  0  0  0  0  0  0
  191.9710  174.6270  136.2540 C   0  0  2  0  0  3  0  0  0  0  0  0
  190.8490  173.5960  136.4830 C   0  0  0  0  0  2  0  0  0  0  0  0
  190.0660  175.9350  135.0100 C   0  0  1  0  0  3  0  0  0  0  0  0
  189.5450  174.2850  136.7890 C   0  0  0  0  0  3  0  0  0  0  0  0
  189.1980  175.3620  136.0680 C   0  0  0  0  0  0  0  0  0  0  0  0
  186.0400  174.7120  136.0500 C   0  0  1  0  0  3  0  0  0  0  0  0
  184.7330  177.4920  137.6890 O   0  0  0  0  0  1  0  0  0  0  0  0
  181.9110  175.2880  139.1460 C   0  0  0  0  0  1  0  0  0  0  0  0
  185.9730  177.0340  135.0410 C   0  0  0  0  0  0  0  0  0  0  0  0
  186.8630  175.8840  135.4870 C   0  0  1  0  0  3  0  0  0  0  0  0
  182.3570  175.0400  137.7160 C   0  0  1  0  0  0  0  0  0  0  0  0
  183.7960  173.9650  137.7220 S   0  0  2  0  0  0  0  0  0  0  0  0
  181.3200  174.4640  136.9970 F   0  0  0  0  0  0  0  0  0  0  0  0
  184.9720  175.1960  137.0830 C   0  0  2  0  0  3  0  0  0  0  0  0
  186.4310  177.9290  134.3460 O   0  0  0  0  0  0  0  0  0  0  0  0
  183.9310  178.2580  135.1440 F   0  0  0  0  0  0  0  0  0  0  0  0
  183.5060  173.0000  136.5770 O   0  0  0  0  0  0  0  0  0  0  0  0
  182.7850  176.3270  137.0750 C   0  0  0  0  0  0  0  0  0  0  0  0
  184.2520  176.5300  136.7950 C   0  0  1  0  0  0  0  0  0  0  0  0
  181.9670  177.2070  136.8310 O   0  0  0  0  0  0  0  0  0  0  0  0
  184.4970  177.0060  135.3550 C   0  0  2  0  0  3  0  0  0  0  0  0
  185.4460  173.9540  134.8680 C   0  0  0  0  0  1  0  0  0  0  0  0
  192.5120  175.1270  137.5610 C   0  0  0  0  0  0  0  0  0  0  0  0
  191.9270  176.2340  138.1680 O   0  0  0  0  0  1  0  0  0  0  0  0
  193.5120  174.5770  138.0960 O   0  0  0  0  0  0  0  0  0  0  0  0
  1  7  1  1  0  0  0
  2  9  2  0  0  0  0
  3  6  1  0  0  0  0
  5  4  1  0  0  0  0
  6  1  1  0  0  0  0
  6  8  1  1  0  0  0
  7  4  1  0  0  0  0
  8  5  1  0  0  0  0
  9 10  1  0  0  0  0
 10 11  1  0  0  0  0
 10 32  1  1  0  0  0
 11 13  1  0  0  0  0
 12  3  1  1  0  0  0
 12  9  1  0  0  0  0
 12 14  1  0  0  0  0
 14  1  1  0  0  0  0
 14 13  2  0  0  0  0
 15 31  1  6  0  0  0
 15 23  1  0  0  0  0
 18 30  1  0  0  0  0
 19 18  1  1  0  0  0
 19 15  1  0  0  0  0
 19  1  1  0  0  0  0
 20 21  1  0  0  0  0
 20 17  1  1  0  0  0
 21 26  2  6  0  0  0
 22 20  1  0  0  0  0
 23 21  1  0  0  0  0
 24 18  2  0  0  0  0
 25 30  1  0  0  0  0
 27 20  1  0  0  0  0
 28 27  1  0  0  0  0
 28 23  1  0  0  0  0
 28 16  1  0  0  0  0
 29 27  2  0  0  0  0
 30 28  1  0  0  0  0
 32 34  2  0  0  0  0
 32 33  1  0  0  0  0
M  END
>  <MODEL>
5

>  <REMARK>
 VINA RESULT:      -4.9      5.891     10.576
  Name = 
  2 active torsions:
  status: ('A' for Active; 'I' for Inactive)
    1  A    between atoms: C_1  and  C_9
    2  A    between atoms: C_3  and  C_25
                            x       y       z     vdW  Elec       q    Type
                         _______ _______ _______ _____ _____    ______ ____

>  <TORSDO>
F 2

$$$$
=
 OpenBabel10272415343D

 34 38  0  0  1  0  0  0  0  0999 V2000
  182.4700  176.2950  137.1570 C   0  0  2  0  0  0  0  0  0  0  0  0
  180.2900  180.0070  138.5940 O   0  0  0  0  0  0  0  0  0  0  0  0
  180.7700  177.9830  136.7590 O   0  0  0  0  0  0  0  0  0  0  0  0
  181.4540  174.7570  138.9080 C   0  0  0  0  0  2  0  0  0  0  0  0
  180.3270  174.6500  138.0920 O   0  0  0  0  0  0  0  0  0  0  0  0
  180.9940  176.5840  136.7900 C   0  0  2  0  0  3  0  0  0  0  0  0
  182.6640  175.0380  138.0320 C   0  0  0  0  0  2  0  0  0  0  0  0
  179.9820  175.9640  137.7690 C   0  0  0  0  0  2  0  0  0  0  0  0
  181.3460  179.3950  138.6510 C   0  0  0  0  0  0  0  0  0  0  0  0
  182.2090  179.5020  139.8940 C   0  0  2  0  0  3  0  0  0  0  0  0
  183.6430  178.9950  139.6500 C   0  0  0  0  0  2  0  0  0  0  0  0
  181.8280  178.6040  137.4580 C   0  0  1  0  0  3  0  0  0  0  0  0
  183.6270  177.6880  138.9010 C   0  0  0  0  0  3  0  0  0  0  0  0
  182.7830  177.5460  137.8680 C   0  0  0  0  0  0  0  0  0  0  0  0
  184.6280  177.0410  135.9150 C   0  0  1  0  0  3  0  0  0  0  0  0
  185.5210  174.0330  137.4240 O   0  0  0  0  0  1  0  0  0  0  0  0
  189.2200  175.1540  137.4330 C   0  0  0  0  0  1  0  0  0  0  0  0
  183.5750  174.8120  135.3350 C   0  0  0  0  0  0  0  0  0  0  0  0
  183.3310  176.2140  135.8700 C   0  0  1  0  0  3  0  0  0  0  0  0
  188.3640  175.4970  136.2270 C   0  0  1  0  0  0  0  0  0  0  0  0
  187.4510  177.0080  136.5600 S   0  0  2  0  0  0  0  0  0  0  0  0
  189.1720  175.6500  135.1100 F   0  0  0  0  0  0  0  0  0  0  0  0
  185.8000  176.2470  136.5760 C   0  0  2  0  0  3  0  0  0  0  0  0
  182.6320  174.1120  134.9960 O   0  0  0  0  0  0  0  0  0  0  0  0
  185.0080  172.9540  134.9180 F   0  0  0  0  0  0  0  0  0  0  0  0
  187.5670  177.7730  135.2450 O   0  0  0  0  0  0  0  0  0  0  0  0
  187.3450  174.4220  135.9910 C   0  0  0  0  0  0  0  0  0  0  0  0
  185.8990  174.7370  136.2750 C   0  0  1  0  0  0  0  0  0  0  0  0
  187.6880  173.3040  135.6240 O   0  0  0  0  0  0  0  0  0  0  0  0
  184.9870  174.3310  135.1070 C   0  0  2  0  0  3  0  0  0  0  0  0
  184.9300  177.5050  134.4950 C   0  0  0  0  0  1  0  0  0  0  0  0
  181.5890  178.8060  141.0700 C   0  0  0  0  0  0  0  0  0  0  0  0
  180.6360  177.8150  140.8560 O   0  0  0  0  0  0  0  0  0  0  0  0
  181.8960  179.1360  142.2470 O   0  0  0  0  0  1  0  0  0  0  0  0
  1 14  1  0  0  0  0
  1  7  1  1  0  0  0
  2  9  2  0  0  0  0
  3  6  1  0  0  0  0
  5  4  1  0  0  0  0
  6  1  1  0  0  0  0
  6  8  1  1  0  0  0
  7  4  1  0  0  0  0
  8  5  1  0  0  0  0
  9 10  1  0  0  0  0
 10 32  1  1  0  0  0
 11 10  1  0  0  0  0
 12  3  1  1  0  0  0
 12 14  1  0  0  0  0
 12  9  1  0  0  0  0
 13 11  1  0  0  0  0
 14 13  2  0  0  0  0
 15 31  1  6  0  0  0
 15 23  1  0  0  0  0
 19 18  1  1  0  0  0
 19 15  1  0  0  0  0
 19  1  1  0  0  0  0
 20 21  1  0  0  0  0
 20 17  1  1  0  0  0
 21 26  2  6  0  0  0
 21 23  1  0  0  0  0
 22 20  1  0  0  0  0
 24 18  2  0  0  0  0
 25 30  1  0  0  0  0
 27 20  1  0  0  0  0
 27 28  1  0  0  0  0
 28 23  1  0  0  0  0
 28 16  1  0  0  0  0
 29 27  2  0  0  0  0
 30 18  1  0  0  0  0
 30 28  1  0  0  0  0
 32 34  1  0  0  0  0
 33 32  2  0  0  0  0
M  END
>  <MODEL>
6

>  <REMARK>
 VINA RESULT:      -4.9      7.451     11.735
  Name = 
  2 active torsions:
  status: ('A' for Active; 'I' for Inactive)
    1  A    between atoms: C_1  and  C_9
    2  A    between atoms: C_3  and  C_25
                            x       y       z     vdW  Elec       q    Type
                         _______ _______ _______ _____ _____    ______ ____

>  <TORSDO>
F 2

$$$$
=
 OpenBabel10272415343D

 34 38  0  0  1  0  0  0  0  0999 V2000
  186.4540  175.8990  136.2140 C   0  0  2  0  0  0  0  0  0  0  0  0
  182.2600  176.4060  134.5540 O   0  0  0  0  0  0  0  0  0  0  0  0
  185.0250  176.5050  134.3460 O   0  0  0  0  0  0  0  0  0  0  0  0
  186.3390  173.3620  136.3170 C   0  0  0  0  0  2  0  0  0  0  0  0
  186.6620  173.3380  134.9600 O   0  0  0  0  0  0  0  0  0  0  0  0
  186.1240  175.6900  134.7150 C   0  0  2  0  0  3  0  0  0  0  0  0
  186.9270  174.6190  136.9360 C   0  0  0  0  0  2  0  0  0  0  0  0
  185.7770  174.2350  134.3570 C   0  0  0  0  0  2  0  0  0  0  0  0
  182.9300  176.4300  135.5760 C   0  0  0  0  0  0  0  0  0  0  0  0
  182.2890  176.0660  136.9020 C   0  0  2  0  0  3  0  0  0  0  0  0
  183.1460  176.5110  138.1020 C   0  0  0  0  0  2  0  0  0  0  0  0
  184.3650  176.9010  135.5290 C   0  0  1  0  0  3  0  0  0  0  0  0
  184.5930  176.1560  137.8850 C   0  0  0  0  0  3  0  0  0  0  0  0
  185.1380  176.3700  136.6790 C   0  0  0  0  0  0  0  0  0  0  0  0
  187.5230  177.6810  137.7740 C   0  0  1  0  0  3  0  0  0  0  0  0
  189.6260  174.9220  138.0790 O   0  0  0  0  0  1  0  0  0  0  0  0
  190.7030  176.1500  141.5830 C   0  0  0  0  0  1  0  0  0  0  0  0
  188.8860  176.7350  135.8600 C   0  0  0  0  0  0  0  0  0  0  0  0
  187.4880  177.0430  136.3740 C   0  0  1  0  0  3  0  0  0  0  0  0
  190.4950  177.1810  140.4880 C   0  0  1  0  0  0  0  0  0  0  0  0
  188.7510  177.6030  140.3970 S   0  0  2  0  0  0  0  0  0  0  0  0
  191.2560  178.3080  140.7580 F   0  0  0  0  0  0  0  0  0  0  0  0
  188.4570  176.8930  138.7490 C   0  0  2  0  0  3  0  0  0  0  0  0
  189.0600  176.4650  134.6810 O   0  0  0  0  0  0  0  0  0  0  0  0
  191.1940  176.2730  136.2300 F   0  0  0  0  0  0  0  0  0  0  0  0
  188.7760  179.1180  140.2220 O   0  0  0  0  0  0  0  0  0  0  0  0
  190.8680  176.6050  139.1540 C   0  0  0  0  0  0  0  0  0  0  0  0
  189.7640  176.3110  138.1710 C   0  0  1  0  0  0  0  0  0  0  0  0
  192.0350  176.3360  138.8940 O   0  0  0  0  0  0  0  0  0  0  0  0
  190.0730  176.8850  136.7790 C   0  0  2  0  0  3  0  0  0  0  0  0
  187.9130  179.1450  137.6050 C   0  0  0  0  0  1  0  0  0  0  0  0
  181.9690  174.6020  136.9870 C   0  0  0  0  0  0  0  0  0  0  0  0
  182.8030  173.6800  136.3650 O   0  0  0  0  0  0  0  0  0  0  0  0
  180.9340  174.2050  137.5870 O   0  0  0  0  0  1  0  0  0  0  0  0
  1 19  1  0  0  0  0
  1 14  1  0  0  0  0
  1  7  1  1  0  0  0
  2  9  2  0  0  0  0
  3  6  1  0  0  0  0
  4  7  1  0  0  0  0
  5  4  1  0  0  0  0
  6  8  1  1  0  0  0
  6  1  1  0  0  0  0
  8  5  1  0  0  0  0
  9 10  1  0  0  0  0
 10 32  1  6  0  0  0
 10 11  1  0  0  0  0
 12  3  1  6  0  0  0
 12  9  1  0  0  0  0
 12 14  1  0  0  0  0
 13 11  1  0  0  0  0
 14 13  2  0  0  0  0
 15 31  1  6  0  0  0
 15 23  1  0  0  0  0
 16 28  1  0  0  0  0
 18 30  1  0  0  0  0
 19 18  1  1  0  0  0
 19 15  1  0  0  0  0
 20 22  1  0  0  0  0
 20 17  1  1  0  0  0
 21 26  2  6  0  0  0
 21 20  1  0  0  0  0
 23 21  1  0  0  0  0
 24 18  2  0  0  0  0
 25 30  1  0  0  0  0
 27 20  1  0  0  0  0
 28 23  1  0  0  0  0
 28 27  1  0  0  0  0
 29 27  2  0  0  0  0
 30 28  1  0  0  0  0
 32 34  1  0  0  0  0
 33 32  2  0  0  0  0
M  END
>  <MODEL>
7

>  <REMARK>
 VINA RESULT:      -4.7      6.028      8.823
  Name = 
  2 active torsions:
  status: ('A' for Active; 'I' for Inactive)
    1  A    between atoms: C_1  and  C_9
    2  A    between atoms: C_3  and  C_25
                            x       y       z     vdW  Elec       q    Type
                         _______ _______ _______ _____ _____    ______ ____

>  <TORSDO>
F 2

$$$$
=
 OpenBabel10272415343D

 34 38  0  0  1  0  0  0  0  0999 V2000
  184.5240  176.3200  136.5290 C   0  0  2  0  0  0  0  0  0  0  0  0
  180.2410  175.3650  135.3710 O   0  0  0  0  0  0  0  0  0  0  0  0
  182.6850  176.6130  134.9700 O   0  0  0  0  0  0  0  0  0  0  0  0
  185.4000  173.9810  136.0590 C   0  0  0  0  0  2  0  0  0  0  0  0
  185.4800  174.3310  134.7110 O   0  0  0  0  0  0  0  0  0  0  0  0
  184.0560  176.2640  135.0530 C   0  0  2  0  0  3  0  0  0  0  0  0
  185.5590  175.2370  136.9000 C   0  0  0  0  0  2  0  0  0  0  0  0
  184.2340  174.8820  134.4020 C   0  0  0  0  0  2  0  0  0  0  0  0
  181.0090  175.4770  136.3140 C   0  0  0  0  0  0  0  0  0  0  0  0
  180.7830  174.6560  137.5690 C   0  0  2  0  0  3  0  0  0  0  0  0
  181.5920  175.1900  138.7660 C   0  0  0  0  0  2  0  0  0  0  0  0
  182.1290  176.4900  136.2610 C   0  0  1  0  0  3  0  0  0  0  0  0
  183.0080  175.4980  138.3590 C   0  0  0  0  0  3  0  0  0  0  0  0
  183.2240  176.1250  137.1930 C   0  0  0  0  0  0  0  0  0  0  0  0
  184.9500  178.1270  138.3470 C   0  0  1  0  0  3  0  0  0  0  0  0
  187.9560  176.3780  138.1750 O   0  0  0  0  0  1  0  0  0  0  0  0
  188.7410  177.3980  141.8200 C   0  0  0  0  0  1  0  0  0  0  0  0
  186.4260  178.0700  136.2900 C   0  0  0  0  0  0  0  0  0  0  0  0
  185.0570  177.7370  136.8630 C   0  0  1  0  0  3  0  0  0  0  0  0
  188.0790  178.4180  140.9110 C   0  0  1  0  0  0  0  0  0  0  0  0
  186.3040  178.1440  140.9090 S   0  0  2  0  0  0  0  0  0  0  0  0
  188.3750  179.6980  141.3530 F   0  0  0  0  0  0  0  0  0  0  0  0
  186.1810  177.6250  139.1700 C   0  0  2  0  0  3  0  0  0  0  0  0
  186.6020  178.0640  135.0810 O   0  0  0  0  0  0  0  0  0  0  0  0
  188.7580  178.4850  136.5540 F   0  0  0  0  0  0  0  0  0  0  0  0
  185.7400  179.5600  140.9840 O   0  0  0  0  0  0  0  0  0  0  0  0
  188.5440  178.2320  139.4970 C   0  0  0  0  0  0  0  0  0  0  0  0
  187.5650  177.6840  138.4910 C   0  0  1  0  0  0  0  0  0  0  0  0
  189.7040  178.4750  139.1830 O   0  0  0  0  0  0  0  0  0  0  0  0
  187.5320  178.5290  137.2080 C   0  0  2  0  0  3  0  0  0  0  0  0
  184.7440  179.6350  138.4160 C   0  0  0  0  0  1  0  0  0  0  0  0
  181.0620  173.1980  137.3430 C   0  0  0  0  0  0  0  0  0  0  0  0
  182.0490  172.8210  136.4400 O   0  0  0  0  0  0  0  0  0  0  0  0
  180.3860  172.3150  137.9380 O   0  0  0  0  0  1  0  0  0  0  0  0
  1 19  1  0  0  0  0
  1  7  1  1  0  0  0
  1 14  1  0  0  0  0
  2  9  2  0  0  0  0
  3  6  1  0  0  0  0
  4  7  1  0  0  0  0
  5  4  1  0  0  0  0
  6  8  1  1  0  0  0
  6  1  1  0  0  0  0
  8  5  1  0  0  0  0
  9 10  1  0  0  0  0
 10 32  1  6  0  0  0
 10 11  1  0  0  0  0
 12  3  1  6  0  0  0
 12  9  1  0  0  0  0
 12 14  1  0  0  0  0
 13 11  1  0  0  0  0
 14 13  2  0  0  0  0
 15 31  1  6  0  0  0
 15 23  1  0  0  0  0
 16 28  1  0  0  0  0
 18 30  1  0  0  0  0
 19 18  1  1  0  0  0
 19 15  1  0  0  0  0
 20 22  1  0  0  0  0
 20 17  1  1  0  0  0
 21 20  1  0  0  0  0
 21 26  2  6  0  0  0
 23 21  1  0  0  0  0
 24 18  2  0  0  0  0
 25 30  1  0  0  0  0
 27 20  1  0  0  0  0
 28 23  1  0  0  0  0
 28 27  1  0  0  0  0
 29 27  2  0  0  0  0
 30 28  1  0  0  0  0
 32 34  1  0  0  0  0
 33 32  2  0  0  0  0
M  END
>  <MODEL>
8

>  <REMARK>
 VINA RESULT:      -4.6      8.447     10.864
  Name = 
  2 active torsions:
  status: ('A' for Active; 'I' for Inactive)
    1  A    between atoms: C_1  and  C_9
    2  A    between atoms: C_3  and  C_25
                            x       y       z     vdW  Elec       q    Type
                         _______ _______ _______ _____ _____    ______ ____

>  <TORSDO>
F 2

$$$$
=
 OpenBabel10272415343D

 34 38  0  0  1  0  0  0  0  0999 V2000
  186.1550  176.3240  136.6870 C   0  0  2  0  0  0  0  0  0  0  0  0
  182.0360  177.2280  135.0110 O   0  0  0  0  0  0  0  0  0  0  0  0
  184.8020  177.1170  134.8330 O   0  0  0  0  0  0  0  0  0  0  0  0
  185.8420  173.8020  136.6820 C   0  0  0  0  0  2  0  0  0  0  0  0
  186.1790  173.8090  135.3280 O   0  0  0  0  0  0  0  0  0  0  0  0
  185.8290  176.2050  135.1780 C   0  0  2  0  0  3  0  0  0  0  0  0
  186.5180  174.9830  137.3590 C   0  0  0  0  0  2  0  0  0  0  0  0
  185.3740  174.7970  134.7550 C   0  0  0  0  0  2  0  0  0  0  0  0
  182.6920  177.1560  136.0390 C   0  0  0  0  0  0  0  0  0  0  0  0
  182.0080  176.7890  137.3420 C   0  0  2  0  0  3  0  0  0  0  0  0
  182.8820  177.1160  138.5680 C   0  0  0  0  0  2  0  0  0  0  0  0
  184.1590  177.5150  136.0260 C   0  0  1  0  0  3  0  0  0  0  0  0
  184.2990  176.6570  138.3510 C   0  0  0  0  0  3  0  0  0  0  0  0
  184.8750  176.8780  137.1590 C   0  0  0  0  0  0  0  0  0  0  0  0
  188.2080  177.0780  138.0920 C   0  0  1  0  0  3  0  0  0  0  0  0
  189.6010  175.2540  135.4730 O   0  0  0  0  0  1  0  0  0  0  0  0
  192.6720  174.4580  137.6810 C   0  0  0  0  0  1  0  0  0  0  0  0
  188.0520  177.7690  135.6610 C   0  0  0  0  0  0  0  0  0  0  0  0
  187.2740  177.3750  136.9060 C   0  0  1  0  0  3  0  0  0  0  0  0
  192.0580  175.8440  137.7710 C   0  0  1  0  0  0  0  0  0  0  0  0
  190.6760  175.8050  138.9180 S   0  0  2  0  0  0  0  0  0  0  0  0
  193.0160  176.7530  138.1910 F   0  0  0  0  0  0  0  0  0  0  0  0
  189.3790  176.1270  137.6830 C   0  0  2  0  0  3  0  0  0  0  0  0
  187.4740  178.2780  134.7120 O   0  0  0  0  0  0  0  0  0  0  0  0
  190.0400  177.7540  134.3460 F   0  0  0  0  0  0  0  0  0  0  0  0
  190.8550  177.0950  139.7110 O   0  0  0  0  0  0  0  0  0  0  0  0
  191.5000  176.2510  136.4390 C   0  0  0  0  0  0  0  0  0  0  0  0
  190.0020  176.3210  136.2850 C   0  0  1  0  0  0  0  0  0  0  0  0
  192.2440  176.4730  135.4900 O   0  0  0  0  0  0  0  0  0  0  0  0
  189.5560  177.6440  135.6450 C   0  0  2  0  0  3  0  0  0  0  0  0
  188.6750  178.4130  138.6600 C   0  0  0  0  0  1  0  0  0  0  0  0
  181.5740  175.3530  137.3630 C   0  0  0  0  0  0  0  0  0  0  0  0
  180.3620  175.0100  137.9530 O   0  0  0  0  0  1  0  0  0  0  0  0
  182.3120  174.4520  136.8820 O   0  0  0  0  0  0  0  0  0  0  0  0
  1 19  1  0  0  0  0
  1 14  1  0  0  0  0
  1  7  1  1  0  0  0
  2  9  2  0  0  0  0
  3  6  1  0  0  0  0
  4  7  1  0  0  0  0
  5  4  1  0  0  0  0
  6  8  1  1  0  0  0
  6  1  1  0  0  0  0
  8  5  1  0  0  0  0
  9 10  1  0  0  0  0
 10 32  1  6  0  0  0
 10 11  1  0  0  0  0
 12  3  1  6  0  0  0
 12  9  1  0  0  0  0
 12 14  1  0  0  0  0
 13 11  1  0  0  0  0
 14 13  2  0  0  0  0
 15 31  1  6  0  0  0
 16 28  1  0  0  0  0
 19 18  1  6  0  0  0
 19 15  1  0  0  0  0
 20 17  1  6  0  0  0
 20 22  1  0  0  0  0
 20 21  1  0  0  0  0
 21 26  2  1  0  0  0
 23 15  1  0  0  0  0
 23 21  1  0  0  0  0
 24 18  2  0  0  0  0
 25 30  1  0  0  0  0
 27 20  1  0  0  0  0
 28 27  1  0  0  0  0
 28 23  1  0  0  0  0
 29 27  2  0  0  0  0
 30 18  1  0  0  0  0
 30 28  1  0  0  0  0
 32 33  1  0  0  0  0
 34 32  2  0  0  0  0
M  END
>  <MODEL>
9

>  <REMARK>
 VINA RESULT:      -4.6      4.843      8.508
  Name = 
  2 active torsions:
  status: ('A' for Active; 'I' for Inactive)
    1  A    between atoms: C_1  and  C_9
    2  A    between atoms: C_3  and  C_25
                            x       y       z     vdW  Elec       q    Type
                         _______ _______ _______ _____ _____    ______ ____

>  <TORSDO>
F 2

$$$$
