=
 OpenBabel10272414143D

 43 46  0  0  0  0  0  0  0  0999 V2000
  188.9400  178.3550  139.0070 C   0  0  0  0  0  3  0  0  0  0  0  0
  189.5130  177.4590  139.9140 C   0  0  0  0  0  0  0  0  0  0  0  0
  189.2750  178.2930  137.6510 C   0  0  0  0  0  3  0  0  0  0  0  0
  190.4070  176.4860  139.4520 C   0  0  0  0  0  3  0  0  0  0  0  0
  190.7590  176.4220  138.0950 C   0  0  0  0  0  0  0  0  0  0  0  0
  190.1830  177.3320  137.1980 C   0  0  0  0  0  3  0  0  0  0  0  0
  191.2940  174.2200  137.0010 C   0  0  0  0  0  0  0  0  0  0  0  0
  194.0530  174.6730  137.3290 C   0  0  0  0  0  0  0  0  0  0  0  0
  193.1240  175.6420  137.7650 C   0  0  0  0  0  0  0  0  0  0  0  0
  193.5730  176.8470  138.2950 O   0  0  0  0  0  1  0  0  0  0  0  0
  191.7370  175.4120  137.6220 C   0  0  0  0  0  0  0  0  0  0  0  0
  192.2310  173.2920  136.5310 C   0  0  0  0  0  3  0  0  0  0  0  0
  193.5950  173.5200  136.6900 C   0  0  0  0  0  3  0  0  0  0  0  0
  196.3130  174.2610  138.4320 C   0  0  0  0  0  0  0  0  0  0  0  0
  195.9130  173.2820  139.1170 O   0  0  0  0  0  0  0  0  0  0  0  0
  197.6980  174.7640  138.6150 C   0  0  0  0  0  1  0  0  0  0  0  0
  195.4700  174.8630  137.4440 N   0  0  0  0  0  2  0  0  0  0  0  0
  189.8910  173.9450  136.8850 N   0  0  0  0  0  2  0  0  0  0  0  0
  189.1320  174.0900  135.6500 C   0  0  0  0  0  2  0  0  0  0  0  0
  187.2280  174.8860  137.0620 C   0  0  0  0  0  3  0  0  0  0  0  0
  185.7520  176.6630  136.3150 C   0  0  0  0  0  0  0  0  0  0  0  0
  187.5720  175.9070  134.8950 C   0  0  0  0  0  3  0  0  0  0  0  0
  186.1340  175.7280  137.2840 C   0  0  0  0  0  3  0  0  0  0  0  0
  187.9460  174.9710  135.8670 C   0  0  0  0  0  0  0  0  0  0  0  0
  186.4790  176.7460  135.1170 C   0  0  0  0  0  3  0  0  0  0  0  0
  184.2570  177.8580  137.8820 C   0  0  0  0  0  1  0  0  0  0  0  0
  184.6580  177.4950  136.5670 O   0  0  0  0  0  0  0  0  0  0  0  0
  189.1130  177.5150  141.3520 C   0  0  0  0  0  2  0  0  0  0  0  0
  189.6600  176.4420  142.0630 O   0  0  0  0  0  0  0  0  0  0  0  0
  188.6530  176.0350  142.9450 C   0  0  0  0  0  2  0  0  0  0  0  0
  188.0140  177.2500  143.5980 C   0  0  0  0  0  2  0  0  0  0  0  0
  187.9970  177.0880  145.0500 N   0  0  0  0  0  0  0  0  0  0  0  0
  186.7040  177.5200  145.6060 C   0  0  0  0  0  3  0  0  0  0  0  0
  185.5000  179.0850  147.2100 C   0  0  0  0  0  2  0  0  0  0  0  0
  184.6150  178.8920  145.1550 C   0  0  0  0  0  2  0  0  0  0  0  0
  184.4270  178.5160  146.4990 O   0  0  0  0  0  0  0  0  0  0  0  0
  185.8270  178.1790  144.5330 C   0  0  0  0  0  2  0  0  0  0  0  0
  186.8220  178.3720  146.8880 C   0  0  0  0  0  2  0  0  0  0  0  0
  189.0560  177.9170  145.6100 C   0  0  0  0  0  2  0  0  0  0  0  0
  189.9460  176.6130  147.3600 O   0  0  0  0  0  0  0  0  0  0  0  0
  190.1060  177.0540  146.2330 C   0  0  0  0  0  0  0  0  0  0  0  0
  191.5670  178.2150  144.4060 C   0  0  0  0  0  1  0  0  0  0  0  0
  191.5860  176.6410  145.3130 S   0  0  0  0  0  0  0  0  0  0  0  0
  1  2  1  0  0  0  0
  2 28  1  0  0  0  0
  3  1  2  0  0  0  0
  4  2  2  0  0  0  0
  5  4  1  0  0  0  0
  6  3  1  0  0  0  0
  6  5  2  0  0  0  0
  7 11  1  0  0  0  0
  8 17  1  0  0  0  0
  8  9  1  0  0  0  0
  9 10  1  0  0  0  0
 11  9  2  0  0  0  0
 11  5  1  0  0  0  0
 12 13  1  0  0  0  0
 12  7  2  0  0  0  0
 13  8  2  0  0  0  0
 14 16  1  0  0  0  0
 14 15  2  0  0  0  0
 17 14  1  0  0  0  0
 18  7  1  0  0  0  0
 19 24  1  0  0  0  0
 19 18  1  0  0  0  0
 20 23  1  0  0  0  0
 21 27  1  0  0  0  0
 21 23  2  0  0  0  0
 22 25  2  0  0  0  0
 22 24  1  0  0  0  0
 24 20  2  0  0  0  0
 25 21  1  0  0  0  0
 27 26  1  0  0  0  0
 28 29  1  0  0  0  0
 29 30  1  0  0  0  0
 30 31  1  0  0  0  0
 31 32  1  0  0  0  0
 32 33  1  0  0  0  0
 32 39  1  0  0  0  0
 33 38  1  0  0  0  0
 35 36  1  0  0  0  0
 36 34  1  0  0  0  0
 37 35  1  0  0  0  0
 37 33  1  0  0  0  0
 38 34  1  0  0  0  0
 39 41  1  0  0  0  0
 41 40  2  0  0  0  0
 42 43  1  0  0  0  0
 43 41  1  0  0  0  0
M  END
>  <MODEL>
1

>  <REMARK>
 VINA RESULT:      -7.7      0.000      0.000
  Name = 
  15 active torsions:
  status: ('A' for Active; 'I' for Inactive)
    1  A    between atoms: C_1  and  N_34
    2  A    between atoms: C_1  and  C_35
    3  A    between atoms: C_3  and  C_4
    4  A    between atoms: C_3  and  O_12
    5  A    between atoms: C_4  and  N_14
    6  A    between atoms: C_6  and  C_17
    7  A    between atoms: C_8  and  N_34
    8  A    between atoms: C_11  and  N_14
    9  A    between atoms: O_12  and  C_17
   10  A    between atoms: N_14  and  C_41
   11  A    between atoms: C_16  and  N_23
   12  A    between atoms: C_19  and  O_37
   13  A    between atoms: C_22  and  C_41
   14  A    between atoms: C_22  and  S_42
   15  A    between atoms: C_27  and  C_30
                            x       y       z     vdW  Elec       q    Type
                         _______ _______ _______ _____ _____    ______ ____

>  <TORSDO>
F 15

$$$$
=
 OpenBabel10272414143D

 43 46  0  0  0  0  0  0  0  0999 V2000
  189.0070  178.1590  138.8810 C   0  0  0  0  0  3  0  0  0  0  0  0
  189.6620  177.3160  139.7830 C   0  0  0  0  0  0  0  0  0  0  0  0
  189.2950  178.0870  137.5140 C   0  0  0  0  0  3  0  0  0  0  0  0
  190.5910  176.3830  139.3060 C   0  0  0  0  0  3  0  0  0  0  0  0
  190.8960  176.3100  137.9390 C   0  0  0  0  0  0  0  0  0  0  0  0
  190.2370  177.1670  137.0470 C   0  0  0  0  0  3  0  0  0  0  0  0
  191.5290  174.0400  137.0560 C   0  0  0  0  0  0  0  0  0  0  0  0
  194.2340  174.8040  136.8950 C   0  0  0  0  0  0  0  0  0  0  0  0
  193.2670  175.7280  137.3460 C   0  0  0  0  0  0  0  0  0  0  0  0
  193.6400  177.0330  137.6470 O   0  0  0  0  0  1  0  0  0  0  0  0
  191.9100  175.3450  137.4490 C   0  0  0  0  0  0  0  0  0  0  0  0
  192.4950  173.1520  136.5650 C   0  0  0  0  0  3  0  0  0  0  0  0
  193.8300  173.5340  136.4810 C   0  0  0  0  0  3  0  0  0  0  0  0
  196.2720  175.5370  135.5520 C   0  0  0  0  0  0  0  0  0  0  0  0
  195.6060  175.8850  134.5410 O   0  0  0  0  0  0  0  0  0  0  0  0
  197.7560  175.5820  135.5020 C   0  0  0  0  0  1  0  0  0  0  0  0
  195.6200  175.1470  136.7660 N   0  0  0  0  0  2  0  0  0  0  0  0
  190.1660  173.6150  137.1930 N   0  0  0  0  0  2  0  0  0  0  0  0
  189.2200  173.5420  136.0870 C   0  0  0  0  0  2  0  0  0  0  0  0
  187.2500  175.0530  136.3900 C   0  0  0  0  0  3  0  0  0  0  0  0
  185.1990  174.2690  137.4250 C   0  0  0  0  0  0  0  0  0  0  0  0
  187.0940  172.7690  137.1770 C   0  0  0  0  0  3  0  0  0  0  0  0
  185.9400  175.2890  136.8170 C   0  0  0  0  0  3  0  0  0  0  0  0
  187.8310  173.7960  136.5730 C   0  0  0  0  0  0  0  0  0  0  0  0
  185.7860  173.0060  137.6030 C   0  0  0  0  0  3  0  0  0  0  0  0
  182.7630  174.3100  136.9980 C   0  0  0  0  0  1  0  0  0  0  0  0
  183.8890  174.5320  137.8360 O   0  0  0  0  0  0  0  0  0  0  0  0
  189.3130  177.3810  141.2340 C   0  0  0  0  0  2  0  0  0  0  0  0
  189.9680  176.3730  141.9490 O   0  0  0  0  0  0  0  0  0  0  0  0
  189.1380  176.0990  143.0410 C   0  0  0  0  0  2  0  0  0  0  0  0
  188.3050  177.3250  143.3790 C   0  0  0  0  0  2  0  0  0  0  0  0
  188.0680  177.3880  144.8200 N   0  0  0  0  0  0  0  0  0  0  0  0
  186.8460  178.1560  145.1120 C   0  0  0  0  0  3  0  0  0  0  0  0
  184.4410  178.6520  144.4480 C   0  0  0  0  0  2  0  0  0  0  0  0
  184.8210  178.3180  146.6360 C   0  0  0  0  0  2  0  0  0  0  0  0
  184.5440  179.3170  145.6840 O   0  0  0  0  0  0  0  0  0  0  0  0
  186.2370  177.7460  146.4600 C   0  0  0  0  0  2  0  0  0  0  0  0
  185.8130  178.1580  143.9650 C   0  0  0  0  0  2  0  0  0  0  0  0
  189.2070  178.0530  145.4380 C   0  0  0  0  0  2  0  0  0  0  0  0
  189.4130  176.5980  147.2800 O   0  0  0  0  0  0  0  0  0  0  0  0
  189.9540  177.0900  146.3030 C   0  0  0  0  0  0  0  0  0  0  0  0
  191.9030  175.8210  147.4900 C   0  0  0  0  0  1  0  0  0  0  0  0
  191.6360  176.6350  145.8880 S   0  0  0  0  0  0  0  0  0  0  0  0
  1  2  1  0  0  0  0
  2 28  1  0  0  0  0
  3  1  2  0  0  0  0
  4  2  2  0  0  0  0
  5  4  1  0  0  0  0
  6  3  1  0  0  0  0
  6  5  2  0  0  0  0
  7 18  1  0  0  0  0
  7 11  1  0  0  0  0
  8  9  1  0  0  0  0
  9 11  2  0  0  0  0
  9 10  1  0  0  0  0
 11  5  1  0  0  0  0
 12  7  2  0  0  0  0
 13 12  1  0  0  0  0
 13  8  2  0  0  0  0
 14 17  1  0  0  0  0
 15 14  2  0  0  0  0
 16 14  1  0  0  0  0
 17  8  1  0  0  0  0
 19 24  1  0  0  0  0
 19 18  1  0  0  0  0
 20 24  2  0  0  0  0
 20 23  1  0  0  0  0
 21 25  1  0  0  0  0
 21 27  1  0  0  0  0
 22 25  2  0  0  0  0
 23 21  2  0  0  0  0
 24 22  1  0  0  0  0
 26 27  1  0  0  0  0
 28 29  1  0  0  0  0
 29 30  1  0  0  0  0
 30 31  1  0  0  0  0
 31 32  1  0  0  0  0
 32 33  1  0  0  0  0
 32 39  1  0  0  0  0
 33 37  1  0  0  0  0
 34 36  1  0  0  0  0
 36 35  1  0  0  0  0
 37 35  1  0  0  0  0
 38 34  1  0  0  0  0
 38 33  1  0  0  0  0
 39 41  1  0  0  0  0
 41 40  2  0  0  0  0
 43 41  1  0  0  0  0
 43 42  1  0  0  0  0
M  END
>  <MODEL>
2

>  <REMARK>
 VINA RESULT:      -7.5      1.485      1.974
  Name = 
  15 active torsions:
  status: ('A' for Active; 'I' for Inactive)
    1  A    between atoms: C_1  and  N_34
    2  A    between atoms: C_1  and  C_35
    3  A    between atoms: C_3  and  C_4
    4  A    between atoms: C_3  and  O_12
    5  A    between atoms: C_4  and  N_14
    6  A    between atoms: C_6  and  C_17
    7  A    between atoms: C_8  and  N_34
    8  A    between atoms: C_11  and  N_14
    9  A    between atoms: O_12  and  C_17
   10  A    between atoms: N_14  and  C_41
   11  A    between atoms: C_16  and  N_23
   12  A    between atoms: C_19  and  O_37
   13  A    between atoms: C_22  and  C_41
   14  A    between atoms: C_22  and  S_42
   15  A    between atoms: C_27  and  C_30
                            x       y       z     vdW  Elec       q    Type
                         _______ _______ _______ _____ _____    ______ ____

>  <TORSDO>
F 15

$$$$
=
 OpenBabel10272414143D

 43 46  0  0  0  0  0  0  0  0999 V2000
  186.4290  177.4300  143.2320 C   0  0  0  0  0  3  0  0  0  0  0  0
  186.6000  178.3460  142.1910 C   0  0  0  0  0  0  0  0  0  0  0  0
  187.4050  176.4620  143.4840 C   0  0  0  0  0  3  0  0  0  0  0  0
  187.7650  178.3020  141.4160 C   0  0  0  0  0  3  0  0  0  0  0  0
  188.7460  177.3280  141.6530 C   0  0  0  0  0  0  0  0  0  0  0  0
  188.5580  176.4100  142.6960 C   0  0  0  0  0  3  0  0  0  0  0  0
  191.2210  177.6420  141.3210 C   0  0  0  0  0  0  0  0  0  0  0  0
  191.0240  176.7570  138.6560 C   0  0  0  0  0  0  0  0  0  0  0  0
  189.8720  176.8020  139.4690 C   0  0  0  0  0  0  0  0  0  0  0  0
  188.6540  176.3460  138.9750 O   0  0  0  0  0  1  0  0  0  0  0  0
  189.9590  177.2640  140.8020 C   0  0  0  0  0  0  0  0  0  0  0  0
  192.3610  177.5470  140.5140 C   0  0  0  0  0  3  0  0  0  0  0  0
  192.2630  177.1040  139.1980 C   0  0  0  0  0  3  0  0  0  0  0  0
  191.0530  174.9180  136.8920 C   0  0  0  0  0  0  0  0  0  0  0  0
  190.8610  173.9860  137.7160 O   0  0  0  0  0  0  0  0  0  0  0  0
  191.2970  174.5940  135.4630 C   0  0  0  0  0  1  0  0  0  0  0  0
  190.9890  176.2890  137.3010 N   0  0  0  0  0  2  0  0  0  0  0  0
  191.3270  178.1570  142.6560 N   0  0  0  0  0  2  0  0  0  0  0  0
  192.0350  177.4810  143.7350 C   0  0  0  0  0  2  0  0  0  0  0  0
  189.9940  178.1400  145.0230 C   0  0  0  0  0  3  0  0  0  0  0  0
  189.4970  177.1720  147.1920 C   0  0  0  0  0  0  0  0  0  0  0  0
  191.5050  176.5180  145.9930 C   0  0  0  0  0  3  0  0  0  0  0  0
  189.1630  178.0340  146.1420 C   0  0  0  0  0  3  0  0  0  0  0  0
  191.1670  177.3860  144.9480 C   0  0  0  0  0  0  0  0  0  0  0  0
  190.6750  176.4140  147.1110 C   0  0  0  0  0  3  0  0  0  0  0  0
  188.0620  178.2240  148.9110 C   0  0  0  0  0  1  0  0  0  0  0  0
  188.6430  177.0820  148.2950 O   0  0  0  0  0  0  0  0  0  0  0  0
  185.5640  179.3970  141.9610 C   0  0  0  0  0  2  0  0  0  0  0  0
  185.4280  179.6740  140.5970 O   0  0  0  0  0  0  0  0  0  0  0  0
  184.2380  179.0480  140.2110 C   0  0  0  0  0  2  0  0  0  0  0  0
  184.2170  178.8580  138.7030 C   0  0  0  0  0  2  0  0  0  0  0  0
  184.3010  177.4370  138.3760 N   0  0  0  0  0  0  0  0  0  0  0  0
  185.4520  177.1730  137.4970 C   0  0  0  0  0  3  0  0  0  0  0  0
  186.2480  176.6730  135.1330 C   0  0  0  0  0  2  0  0  0  0  0  0
  187.3960  178.2400  136.2600 C   0  0  0  0  0  2  0  0  0  0  0  0
  187.4620  176.9100  135.8050 O   0  0  0  0  0  0  0  0  0  0  0  0
  186.3670  178.4010  137.3910 C   0  0  0  0  0  2  0  0  0  0  0  0
  185.0730  176.5880  136.1200 C   0  0  0  0  0  2  0  0  0  0  0  0
  183.0770  177.0600  137.6810 C   0  0  0  0  0  2  0  0  0  0  0  0
  182.5350  175.7440  139.5600 O   0  0  0  0  0  0  0  0  0  0  0  0
  182.1190  176.4290  138.6390 C   0  0  0  0  0  0  0  0  0  0  0  0
  180.5110  178.4810  138.7910 C   0  0  0  0  0  1  0  0  0  0  0  0
  180.3580  176.7030  138.4540 S   0  0  0  0  0  0  0  0  0  0  0  0
  1  3  1  0  0  0  0
  2  1  2  0  0  0  0
  4  5  2  0  0  0  0
  4  2  1  0  0  0  0
  5  6  1  0  0  0  0
  6  3  2  0  0  0  0
  7 18  1  0  0  0  0
  8 13  2  0  0  0  0
  8  9  1  0  0  0  0
  9 11  2  0  0  0  0
 10  9  1  0  0  0  0
 11  7  1  0  0  0  0
 11  5  1  0  0  0  0
 12  7  2  0  0  0  0
 13 12  1  0  0  0  0
 14 17  1  0  0  0  0
 14 15  2  0  0  0  0
 16 14  1  0  0  0  0
 17  8  1  0  0  0  0
 18 19  1  0  0  0  0
 19 24  1  0  0  0  0
 20 23  1  0  0  0  0
 21 27  1  0  0  0  0
 22 25  2  0  0  0  0
 23 21  2  0  0  0  0
 24 20  2  0  0  0  0
 24 22  1  0  0  0  0
 25 21  1  0  0  0  0
 27 26  1  0  0  0  0
 28  2  1  0  0  0  0
 29 28  1  0  0  0  0
 30 29  1  0  0  0  0
 31 30  1  0  0  0  0
 32 31  1  0  0  0  0
 33 32  1  0  0  0  0
 34 36  1  0  0  0  0
 34 38  1  0  0  0  0
 35 37  1  0  0  0  0
 36 35  1  0  0  0  0
 37 33  1  0  0  0  0
 38 33  1  0  0  0  0
 39 32  1  0  0  0  0
 39 41  1  0  0  0  0
 41 40  2  0  0  0  0
 43 41  1  0  0  0  0
 43 42  1  0  0  0  0
M  END
>  <MODEL>
3

>  <REMARK>
 VINA RESULT:      -7.3      3.323      8.384
  Name = 
  15 active torsions:
  status: ('A' for Active; 'I' for Inactive)
    1  A    between atoms: C_1  and  N_34
    2  A    between atoms: C_1  and  C_35
    3  A    between atoms: C_3  and  C_4
    4  A    between atoms: C_3  and  O_12
    5  A    between atoms: C_4  and  N_14
    6  A    between atoms: C_6  and  C_17
    7  A    between atoms: C_8  and  N_34
    8  A    between atoms: C_11  and  N_14
    9  A    between atoms: O_12  and  C_17
   10  A    between atoms: N_14  and  C_41
   11  A    between atoms: C_16  and  N_23
   12  A    between atoms: C_19  and  O_37
   13  A    between atoms: C_22  and  C_41
   14  A    between atoms: C_22  and  S_42
   15  A    between atoms: C_27  and  C_30
                            x       y       z     vdW  Elec       q    Type
                         _______ _______ _______ _____ _____    ______ ____

>  <TORSDO>
F 15

$$$$
=
 OpenBabel10272414143D

 43 46  0  0  0  0  0  0  0  0999 V2000
  188.7290  178.3970  138.2360 C   0  0  0  0  0  3  0  0  0  0  0  0
  189.1740  177.5620  139.2660 C   0  0  0  0  0  0  0  0  0  0  0  0
  189.2440  178.2550  136.9440 C   0  0  0  0  0  3  0  0  0  0  0  0
  190.1210  176.5690  138.9890 C   0  0  0  0  0  3  0  0  0  0  0  0
  190.6530  176.4260  137.6990 C   0  0  0  0  0  0  0  0  0  0  0  0
  190.2040  177.2750  136.6780 C   0  0  0  0  0  3  0  0  0  0  0  0
  191.3130  174.1160  136.9510 C   0  0  0  0  0  0  0  0  0  0  0  0
  194.0350  174.7070  137.3670 C   0  0  0  0  0  0  0  0  0  0  0  0
  193.0550  175.6920  137.6130 C   0  0  0  0  0  0  0  0  0  0  0  0
  193.4380  176.9730  137.9960 O   0  0  0  0  0  1  0  0  0  0  0  0
  191.6850  175.3960  137.4260 C   0  0  0  0  0  0  0  0  0  0  0  0
  192.3030  173.1660  136.6670 C   0  0  0  0  0  3  0  0  0  0  0  0
  193.6480  173.4620  136.8680 C   0  0  0  0  0  3  0  0  0  0  0  0
  196.2980  174.2930  138.4620 C   0  0  0  0  0  0  0  0  0  0  0  0
  195.9460  173.2190  139.0170 O   0  0  0  0  0  0  0  0  0  0  0  0
  197.6490  174.8480  138.7330 C   0  0  0  0  0  1  0  0  0  0  0  0
  195.4360  174.9610  137.5340 N   0  0  0  0  0  2  0  0  0  0  0  0
  189.9280  173.7780  136.7950 N   0  0  0  0  0  2  0  0  0  0  0  0
  189.2110  173.8420  135.5290 C   0  0  0  0  0  2  0  0  0  0  0  0
  187.3610  174.8340  136.8890 C   0  0  0  0  0  3  0  0  0  0  0  0
  185.7790  176.4020  135.9240 C   0  0  0  0  0  0  0  0  0  0  0  0
  187.5430  175.4470  134.5550 C   0  0  0  0  0  3  0  0  0  0  0  0
  186.2500  175.6720  137.0220 C   0  0  0  0  0  3  0  0  0  0  0  0
  188.0070  174.7160  135.6560 C   0  0  0  0  0  0  0  0  0  0  0  0
  186.4340  176.2830  134.6880 C   0  0  0  0  0  3  0  0  0  0  0  0
  183.5370  177.1860  135.2330 C   0  0  0  0  0  1  0  0  0  0  0  0
  184.6710  177.2370  136.0890 O   0  0  0  0  0  0  0  0  0  0  0  0
  188.5840  177.7030  140.6310 C   0  0  0  0  0  2  0  0  0  0  0  0
  189.2100  176.8400  141.5360 O   0  0  0  0  0  0  0  0  0  0  0  0
  189.3790  177.5910  142.7040 C   0  0  0  0  0  2  0  0  0  0  0  0
  188.7100  176.8880  143.8730 C   0  0  0  0  0  2  0  0  0  0  0  0
  187.8910  177.8360  144.6250 N   0  0  0  0  0  0  0  0  0  0  0  0
  188.4380  178.0380  145.9770 C   0  0  0  0  0  3  0  0  0  0  0  0
  188.1090  177.6850  148.4750 C   0  0  0  0  0  2  0  0  0  0  0  0
  190.1470  177.2040  147.6610 C   0  0  0  0  0  2  0  0  0  0  0  0
  189.4350  178.1540  148.4200 O   0  0  0  0  0  0  0  0  0  0  0  0
  189.7320  177.2380  146.1810 C   0  0  0  0  0  2  0  0  0  0  0  0
  187.4140  177.8180  147.1110 C   0  0  0  0  0  2  0  0  0  0  0  0
  186.5470  177.2850  144.7350 C   0  0  0  0  0  2  0  0  0  0  0  0
  184.9080  178.9750  144.8670 O   0  0  0  0  0  0  0  0  0  0  0  0
  185.5560  178.2350  144.1430 C   0  0  0  0  0  0  0  0  0  0  0  0
  183.5870  178.7660  142.5110 C   0  0  0  0  0  1  0  0  0  0  0  0
  185.3390  178.3090  142.3660 S   0  0  0  0  0  0  0  0  0  0  0  0
  1  2  1  0  0  0  0
  2 28  1  0  0  0  0
  3  1  2  0  0  0  0
  4  2  2  0  0  0  0
  5  4  1  0  0  0  0
  6  3  1  0  0  0  0
  6  5  2  0  0  0  0
  7 11  1  0  0  0  0
  8 17  1  0  0  0  0
  8  9  1  0  0  0  0
  9 10  1  0  0  0  0
 11  9  2  0  0  0  0
 11  5  1  0  0  0  0
 12 13  1  0  0  0  0
 12  7  2  0  0  0  0
 13  8  2  0  0  0  0
 14 16  1  0  0  0  0
 14 15  2  0  0  0  0
 17 14  1  0  0  0  0
 18  7  1  0  0  0  0
 19 24  1  0  0  0  0
 19 18  1  0  0  0  0
 20 23  1  0  0  0  0
 21 27  1  0  0  0  0
 21 23  2  0  0  0  0
 22 25  2  0  0  0  0
 22 24  1  0  0  0  0
 24 20  2  0  0  0  0
 25 21  1  0  0  0  0
 26 27  1  0  0  0  0
 28 29  1  0  0  0  0
 29 30  1  0  0  0  0
 30 31  1  0  0  0  0
 31 32  1  0  0  0  0
 32 39  1  0  0  0  0
 32 33  1  0  0  0  0
 33 37  1  0  0  0  0
 33 38  1  0  0  0  0
 35 36  1  0  0  0  0
 36 34  1  0  0  0  0
 37 35  1  0  0  0  0
 38 34  1  0  0  0  0
 41 39  1  0  0  0  0
 41 40  2  0  0  0  0
 43 42  1  0  0  0  0
 43 41  1  0  0  0  0
M  END
>  <MODEL>
4

>  <REMARK>
 VINA RESULT:      -7.0      1.461      2.683
  Name = 
  15 active torsions:
  status: ('A' for Active; 'I' for Inactive)
    1  A    between atoms: C_1  and  N_34
    2  A    between atoms: C_1  and  C_35
    3  A    between atoms: C_3  and  C_4
    4  A    between atoms: C_3  and  O_12
    5  A    between atoms: C_4  and  N_14
    6  A    between atoms: C_6  and  C_17
    7  A    between atoms: C_8  and  N_34
    8  A    between atoms: C_11  and  N_14
    9  A    between atoms: O_12  and  C_17
   10  A    between atoms: N_14  and  C_41
   11  A    between atoms: C_16  and  N_23
   12  A    between atoms: C_19  and  O_37
   13  A    between atoms: C_22  and  C_41
   14  A    between atoms: C_22  and  S_42
   15  A    between atoms: C_27  and  C_30
                            x       y       z     vdW  Elec       q    Type
                         _______ _______ _______ _____ _____    ______ ____

>  <TORSDO>
F 15

$$$$
=
 OpenBabel10272414143D

 43 46  0  0  0  0  0  0  0  0999 V2000
  189.0370  177.1400  141.8380 C   0  0  0  0  0  3  0  0  0  0  0  0
  188.3770  178.1470  141.1300 C   0  0  0  0  0  0  0  0  0  0  0  0
  188.4110  176.5150  142.9200 C   0  0  0  0  0  3  0  0  0  0  0  0
  187.0760  178.5110  141.4970 C   0  0  0  0  0  3  0  0  0  0  0  0
  186.4420  177.8990  142.5890 C   0  0  0  0  0  0  0  0  0  0  0  0
  187.1190  176.8950  143.2950 C   0  0  0  0  0  3  0  0  0  0  0  0
  184.8580  178.9130  144.2610 C   0  0  0  0  0  0  0  0  0  0  0  0
  182.6890  178.5370  142.5050 C   0  0  0  0  0  0  0  0  0  0  0  0
  183.9880  178.1510  142.1110 C   0  0  0  0  0  0  0  0  0  0  0  0
  184.2070  177.6490  140.8330 O   0  0  0  0  0  1  0  0  0  0  0  0
  185.0790  178.3180  142.9950 C   0  0  0  0  0  0  0  0  0  0  0  0
  183.5700  179.3320  144.6160 C   0  0  0  0  0  3  0  0  0  0  0  0
  182.5000  179.1500  143.7440 C   0  0  0  0  0  3  0  0  0  0  0  0
  181.3240  179.1360  140.4380 C   0  0  0  0  0  0  0  0  0  0  0  0
  182.2540  179.7830  139.8880 O   0  0  0  0  0  0  0  0  0  0  0  0
  179.9830  179.0980  139.8020 C   0  0  0  0  0  1  0  0  0  0  0  0
  181.5530  178.3950  141.6420 N   0  0  0  0  0  2  0  0  0  0  0  0
  185.9400  179.0520  145.1910 N   0  0  0  0  0  2  0  0  0  0  0  0
  185.9330  178.4960  146.5380 C   0  0  0  0  0  2  0  0  0  0  0  0
  188.1180  177.3780  146.0570 C   0  0  0  0  0  3  0  0  0  0  0  0
  189.9300  177.3910  147.6710 C   0  0  0  0  0  0  0  0  0  0  0  0
  187.8180  178.4690  148.1960 C   0  0  0  0  0  3  0  0  0  0  0  0
  189.4200  177.0250  146.4200 C   0  0  0  0  0  3  0  0  0  0  0  0
  187.3130  178.0960  146.9440 C   0  0  0  0  0  0  0  0  0  0  0  0
  189.1200  178.1160  148.5580 C   0  0  0  0  0  3  0  0  0  0  0  0
  191.9240  175.9570  147.3690 C   0  0  0  0  0  1  0  0  0  0  0  0
  191.2390  177.0300  148.0030 O   0  0  0  0  0  0  0  0  0  0  0  0
  189.0470  178.7760  139.9520 C   0  0  0  0  0  2  0  0  0  0  0  0
  188.2910  178.5910  138.7900 O   0  0  0  0  0  0  0  0  0  0  0  0
  189.0490  179.1610  137.7630 C   0  0  0  0  0  2  0  0  0  0  0  0
  188.9180  178.3280  136.4980 C   0  0  0  0  0  2  0  0  0  0  0  0
  188.8300  176.9100  136.8400 N   0  0  0  0  0  0  0  0  0  0  0  0
  190.1550  176.2740  136.7620 C   0  0  0  0  0  3  0  0  0  0  0  0
  191.5110  174.1460  137.0910 C   0  0  0  0  0  2  0  0  0  0  0  0
  191.8820  175.2780  135.1870 C   0  0  0  0  0  2  0  0  0  0  0  0
  192.4390  174.9850  136.4460 O   0  0  0  0  0  0  0  0  0  0  0  0
  190.6530  176.1940  135.3120 C   0  0  0  0  0  2  0  0  0  0  0  0
  190.2500  174.9220  137.5010 C   0  0  0  0  0  2  0  0  0  0  0  0
  187.9380  176.2680  135.8830 C   0  0  0  0  0  2  0  0  0  0  0  0
  186.0720  176.5480  137.2970 O   0  0  0  0  0  0  0  0  0  0  0  0
  186.7040  175.7900  136.5770 C   0  0  0  0  0  0  0  0  0  0  0  0
  187.5500  173.6910  135.2740 C   0  0  0  0  0  1  0  0  0  0  0  0
  186.1320  174.1100  136.3280 S   0  0  0  0  0  0  0  0  0  0  0  0
  1  3  1  0  0  0  0
  2  4  1  0  0  0  0
  2  1  2  0  0  0  0
  3  6  2  0  0  0  0
  4  5  2  0  0  0  0
  5 11  1  0  0  0  0
  5  6  1  0  0  0  0
  7 12  1  0  0  0  0
  7 18  1  0  0  0  0
  8 13  1  0  0  0  0
  9  8  2  0  0  0  0
  9 11  1  0  0  0  0
 10  9  1  0  0  0  0
 11  7  2  0  0  0  0
 13 12  2  0  0  0  0
 14 17  1  0  0  0  0
 15 14  2  0  0  0  0
 16 14  1  0  0  0  0
 17  8  1  0  0  0  0
 18 19  1  0  0  0  0
 19 24  1  0  0  0  0
 20 23  2  0  0  0  0
 20 24  1  0  0  0  0
 21 27  1  0  0  0  0
 21 25  2  0  0  0  0
 22 25  1  0  0  0  0
 23 21  1  0  0  0  0
 24 22  2  0  0  0  0
 26 27  1  0  0  0  0
 28  2  1  0  0  0  0
 29 28  1  0  0  0  0
 30 29  1  0  0  0  0
 31 32  1  0  0  0  0
 31 30  1  0  0  0  0
 33 32  1  0  0  0  0
 33 38  1  0  0  0  0
 34 38  1  0  0  0  0
 35 37  1  0  0  0  0
 35 36  1  0  0  0  0
 36 34  1  0  0  0  0
 37 33  1  0  0  0  0
 39 41  1  0  0  0  0
 39 32  1  0  0  0  0
 41 40  2  0  0  0  0
 42 43  1  0  0  0  0
 43 41  1  0  0  0  0
M  END
>  <MODEL>
5

>  <REMARK>
 VINA RESULT:      -7.0      3.102     10.917
  Name = 
  15 active torsions:
  status: ('A' for Active; 'I' for Inactive)
    1  A    between atoms: C_1  and  N_34
    2  A    between atoms: C_1  and  C_35
    3  A    between atoms: C_3  and  C_4
    4  A    between atoms: C_3  and  O_12
    5  A    between atoms: C_4  and  N_14
    6  A    between atoms: C_6  and  C_17
    7  A    between atoms: C_8  and  N_34
    8  A    between atoms: C_11  and  N_14
    9  A    between atoms: O_12  and  C_17
   10  A    between atoms: N_14  and  C_41
   11  A    between atoms: C_16  and  N_23
   12  A    between atoms: C_19  and  O_37
   13  A    between atoms: C_22  and  C_41
   14  A    between atoms: C_22  and  S_42
   15  A    between atoms: C_27  and  C_30
                            x       y       z     vdW  Elec       q    Type
                         _______ _______ _______ _____ _____    ______ ____

>  <TORSDO>
F 15

$$$$
=
 OpenBabel10272414143D

 43 46  0  0  0  0  0  0  0  0999 V2000
  186.4800  177.4090  143.2910 C   0  0  0  0  0  3  0  0  0  0  0  0
  186.7150  178.4060  142.3400 C   0  0  0  0  0  0  0  0  0  0  0  0
  187.4150  176.3870  143.4850 C   0  0  0  0  0  3  0  0  0  0  0  0
  187.9030  178.3870  141.5990 C   0  0  0  0  0  3  0  0  0  0  0  0
  188.8420  177.3610  141.7770 C   0  0  0  0  0  0  0  0  0  0  0  0
  188.5900  176.3630  142.7290 C   0  0  0  0  0  3  0  0  0  0  0  0
  191.3290  177.6580  141.5360 C   0  0  0  0  0  0  0  0  0  0  0  0
  191.2010  176.9280  138.8190 C   0  0  0  0  0  0  0  0  0  0  0  0
  190.0260  176.9430  139.6000 C   0  0  0  0  0  0  0  0  0  0  0  0
  188.8180  176.5340  139.0460 O   0  0  0  0  0  1  0  0  0  0  0  0
  190.0790  177.3280  140.9590 C   0  0  0  0  0  0  0  0  0  0  0  0
  192.4920  177.5910  140.7580 C   0  0  0  0  0  3  0  0  0  0  0  0
  192.4270  177.2250  139.4170 C   0  0  0  0  0  3  0  0  0  0  0  0
  191.3260  175.1960  136.9540 C   0  0  0  0  0  0  0  0  0  0  0  0
  191.1640  174.2110  137.7210 O   0  0  0  0  0  0  0  0  0  0  0  0
  191.5990  174.9650  135.5120 C   0  0  0  0  0  1  0  0  0  0  0  0
  191.2000  176.5370  137.4400 N   0  0  0  0  0  2  0  0  0  0  0  0
  191.4020  178.0940  142.9000 N   0  0  0  0  0  2  0  0  0  0  0  0
  191.9780  177.3020  143.9790 C   0  0  0  0  0  2  0  0  0  0  0  0
  191.4040  176.5460  146.2930 C   0  0  0  0  0  3  0  0  0  0  0  0
  189.3720  177.2790  147.3990 C   0  0  0  0  0  0  0  0  0  0  0  0
  189.8710  178.0210  145.1400 C   0  0  0  0  0  3  0  0  0  0  0  0
  190.5630  176.5440  147.4090 C   0  0  0  0  0  3  0  0  0  0  0  0
  191.0590  177.2800  145.1560 C   0  0  0  0  0  0  0  0  0  0  0  0
  189.0310  178.0180  146.2560 C   0  0  0  0  0  3  0  0  0  0  0  0
  187.8560  178.4130  148.9910 C   0  0  0  0  0  1  0  0  0  0  0  0
  188.5540  177.2630  148.5320 O   0  0  0  0  0  0  0  0  0  0  0  0
  185.7230  179.5100  142.1750 C   0  0  0  0  0  2  0  0  0  0  0  0
  184.5940  179.0660  141.4780 O   0  0  0  0  0  0  0  0  0  0  0  0
  184.9320  179.1720  140.1250 C   0  0  0  0  0  2  0  0  0  0  0  0
  183.7000  178.9410  139.2640 C   0  0  0  0  0  2  0  0  0  0  0  0
  184.0730  178.2540  138.0300 N   0  0  0  0  0  0  0  0  0  0  0  0
  183.0980  177.2010  137.7060 C   0  0  0  0  0  3  0  0  0  0  0  0
  181.6260  175.3250  138.5940 C   0  0  0  0  0  2  0  0  0  0  0  0
  180.6660  176.7390  137.1370 C   0  0  0  0  0  2  0  0  0  0  0  0
  181.1840  175.4360  137.2620 O   0  0  0  0  0  0  0  0  0  0  0  0
  181.7790  177.7980  137.1950 C   0  0  0  0  0  2  0  0  0  0  0  0
  182.8890  176.1670  138.8330 C   0  0  0  0  0  2  0  0  0  0  0  0
  185.3820  177.6460  138.2270 C   0  0  0  0  0  2  0  0  0  0  0  0
  186.9860  179.0380  137.2050 O   0  0  0  0  0  0  0  0  0  0  0  0
  186.2990  178.0330  137.1130 C   0  0  0  0  0  0  0  0  0  0  0  0
  186.2270  175.4710  136.6090 C   0  0  0  0  0  1  0  0  0  0  0  0
  186.4150  177.0030  135.6510 S   0  0  0  0  0  0  0  0  0  0  0  0
  1  3  1  0  0  0  0
  2  1  2  0  0  0  0
  4  5  2  0  0  0  0
  4  2  1  0  0  0  0
  5  6  1  0  0  0  0
  6  3  2  0  0  0  0
  7 18  1  0  0  0  0
  8 13  2  0  0  0  0
  8  9  1  0  0  0  0
  9 11  2  0  0  0  0
 10  9  1  0  0  0  0
 11  7  1  0  0  0  0
 11  5  1  0  0  0  0
 12  7  2  0  0  0  0
 13 12  1  0  0  0  0
 14 17  1  0  0  0  0
 14 15  2  0  0  0  0
 16 14  1  0  0  0  0
 17  8  1  0  0  0  0
 18 19  1  0  0  0  0
 19 24  1  0  0  0  0
 20 23  1  0  0  0  0
 21 23  2  0  0  0  0
 21 27  1  0  0  0  0
 22 24  1  0  0  0  0
 22 25  2  0  0  0  0
 24 20  2  0  0  0  0
 25 21  1  0  0  0  0
 27 26  1  0  0  0  0
 28  2  1  0  0  0  0
 29 28  1  0  0  0  0
 30 29  1  0  0  0  0
 31 30  1  0  0  0  0
 32 39  1  0  0  0  0
 32 31  1  0  0  0  0
 33 32  1  0  0  0  0
 33 38  1  0  0  0  0
 34 38  1  0  0  0  0
 35 37  1  0  0  0  0
 35 36  1  0  0  0  0
 36 34  1  0  0  0  0
 37 33  1  0  0  0  0
 41 40  2  0  0  0  0
 41 39  1  0  0  0  0
 43 42  1  0  0  0  0
 43 41  1  0  0  0  0
M  END
>  <MODEL>
6

>  <REMARK>
 VINA RESULT:      -6.7      3.094      8.063
  Name = 
  15 active torsions:
  status: ('A' for Active; 'I' for Inactive)
    1  A    between atoms: C_1  and  N_34
    2  A    between atoms: C_1  and  C_35
    3  A    between atoms: C_3  and  C_4
    4  A    between atoms: C_3  and  O_12
    5  A    between atoms: C_4  and  N_14
    6  A    between atoms: C_6  and  C_17
    7  A    between atoms: C_8  and  N_34
    8  A    between atoms: C_11  and  N_14
    9  A    between atoms: O_12  and  C_17
   10  A    between atoms: N_14  and  C_41
   11  A    between atoms: C_16  and  N_23
   12  A    between atoms: C_19  and  O_37
   13  A    between atoms: C_22  and  C_41
   14  A    between atoms: C_22  and  S_42
   15  A    between atoms: C_27  and  C_30
                            x       y       z     vdW  Elec       q    Type
                         _______ _______ _______ _____ _____    ______ ____

>  <TORSDO>
F 15

$$$$
=
 OpenBabel10272414143D

 43 46  0  0  0  0  0  0  0  0999 V2000
  188.9800  176.9510  142.0320 C   0  0  0  0  0  3  0  0  0  0  0  0
  188.4100  177.9830  141.2820 C   0  0  0  0  0  0  0  0  0  0  0  0
  188.2670  176.3700  143.0850 C   0  0  0  0  0  3  0  0  0  0  0  0
  187.1120  178.4170  141.5780 C   0  0  0  0  0  3  0  0  0  0  0  0
  186.3920  177.8490  142.6400 C   0  0  0  0  0  0  0  0  0  0  0  0
  186.9790  176.8200  143.3890 C   0  0  0  0  0  3  0  0  0  0  0  0
  184.7960  179.0380  144.1810 C   0  0  0  0  0  0  0  0  0  0  0  0
  182.6670  178.5980  142.3920 C   0  0  0  0  0  0  0  0  0  0  0  0
  183.9630  178.1420  142.0690 C   0  0  0  0  0  0  0  0  0  0  0  0
  184.2010  177.5370  140.8390 O   0  0  0  0  0  1  0  0  0  0  0  0
  185.0320  178.3420  142.9710 C   0  0  0  0  0  0  0  0  0  0  0  0
  183.5130  179.5240  144.4630 C   0  0  0  0  0  3  0  0  0  0  0  0
  182.4630  179.3100  143.5750 C   0  0  0  0  0  3  0  0  0  0  0  0
  181.3130  179.1800  140.3120 C   0  0  0  0  0  0  0  0  0  0  0  0
  182.2260  179.8720  139.7890 O   0  0  0  0  0  0  0  0  0  0  0  0
  179.9850  179.1010  139.6520 C   0  0  0  0  0  1  0  0  0  0  0  0
  181.5510  178.4270  141.5070 N   0  0  0  0  0  2  0  0  0  0  0  0
  185.8550  179.2130  145.1310 N   0  0  0  0  0  2  0  0  0  0  0  0
  185.8800  178.5890  146.4480 C   0  0  0  0  0  2  0  0  0  0  0  0
  187.4810  177.3950  147.9530 C   0  0  0  0  0  3  0  0  0  0  0  0
  189.7980  177.0460  147.3170 C   0  0  0  0  0  0  0  0  0  0  0  0
  188.2880  178.2330  145.8300 C   0  0  0  0  0  3  0  0  0  0  0  0
  188.7520  176.8860  148.2340 C   0  0  0  0  0  3  0  0  0  0  0  0
  187.2480  178.0730  146.7540 C   0  0  0  0  0  0  0  0  0  0  0  0
  189.5570  177.7240  146.1130 C   0  0  0  0  0  3  0  0  0  0  0  0
  191.9830  176.1160  146.6230 C   0  0  0  0  0  1  0  0  0  0  0  0
  191.0560  176.5190  147.6230 O   0  0  0  0  0  0  0  0  0  0  0  0
  189.1720  178.5650  140.1360 C   0  0  0  0  0  2  0  0  0  0  0  0
  190.2690  177.7620  139.8090 O   0  0  0  0  0  0  0  0  0  0  0  0
  189.9420  177.1750  138.5820 C   0  0  0  0  0  2  0  0  0  0  0  0
  189.0580  178.1140  137.7780 C   0  0  0  0  0  2  0  0  0  0  0  0
  188.6980  177.4950  136.5040 N   0  0  0  0  0  0  0  0  0  0  0  0
  187.2390  177.3270  136.4020 C   0  0  0  0  0  3  0  0  0  0  0  0
  185.2730  175.7180  136.5380 C   0  0  0  0  0  2  0  0  0  0  0  0
  185.0280  177.6810  137.6020 C   0  0  0  0  0  2  0  0  0  0  0  0
  184.6240  176.9640  136.4590 O   0  0  0  0  0  0  0  0  0  0  0  0
  186.5100  178.0850  137.5210 C   0  0  0  0  0  2  0  0  0  0  0  0
  186.7810  175.8580  136.2780 C   0  0  0  0  0  2  0  0  0  0  0  0
  189.3330  176.1860  136.4410 C   0  0  0  0  0  2  0  0  0  0  0  0
  190.1820  176.9550  134.3810 O   0  0  0  0  0  0  0  0  0  0  0  0
  190.2610  176.1230  135.2720 C   0  0  0  0  0  0  0  0  0  0  0  0
  192.6770  175.7950  136.2100 C   0  0  0  0  0  1  0  0  0  0  0  0
  191.5120  174.8440  135.1910 S   0  0  0  0  0  0  0  0  0  0  0  0
  1  3  1  0  0  0  0
  2  4  1  0  0  0  0
  2  1  2  0  0  0  0
  3  6  2  0  0  0  0
  4  5  2  0  0  0  0
  5 11  1  0  0  0  0
  5  6  1  0  0  0  0
  7 12  1  0  0  0  0
  7 18  1  0  0  0  0
  8 13  1  0  0  0  0
  9  8  2  0  0  0  0
  9 11  1  0  0  0  0
 10  9  1  0  0  0  0
 11  7  2  0  0  0  0
 13 12  2  0  0  0  0
 14 17  1  0  0  0  0
 15 14  2  0  0  0  0
 16 14  1  0  0  0  0
 17  8  1  0  0  0  0
 18 19  1  0  0  0  0
 19 24  1  0  0  0  0
 20 23  1  0  0  0  0
 21 27  1  0  0  0  0
 21 23  2  0  0  0  0
 22 25  2  0  0  0  0
 22 24  1  0  0  0  0
 24 20  2  0  0  0  0
 25 21  1  0  0  0  0
 26 27  1  0  0  0  0
 28  2  1  0  0  0  0
 29 28  1  0  0  0  0
 30 29  1  0  0  0  0
 31 30  1  0  0  0  0
 32 31  1  0  0  0  0
 33 32  1  0  0  0  0
 33 37  1  0  0  0  0
 36 34  1  0  0  0  0
 36 35  1  0  0  0  0
 37 35  1  0  0  0  0
 38 33  1  0  0  0  0
 38 34  1  0  0  0  0
 39 32  1  0  0  0  0
 40 41  2  0  0  0  0
 41 39  1  0  0  0  0
 43 41  1  0  0  0  0
 43 42  1  0  0  0  0
M  END
>  <MODEL>
7

>  <REMARK>
 VINA RESULT:      -6.7      3.099     10.491
  Name = 
  15 active torsions:
  status: ('A' for Active; 'I' for Inactive)
    1  A    between atoms: C_1  and  N_34
    2  A    between atoms: C_1  and  C_35
    3  A    between atoms: C_3  and  C_4
    4  A    between atoms: C_3  and  O_12
    5  A    between atoms: C_4  and  N_14
    6  A    between atoms: C_6  and  C_17
    7  A    between atoms: C_8  and  N_34
    8  A    between atoms: C_11  and  N_14
    9  A    between atoms: O_12  and  C_17
   10  A    between atoms: N_14  and  C_41
   11  A    between atoms: C_16  and  N_23
   12  A    between atoms: C_19  and  O_37
   13  A    between atoms: C_22  and  C_41
   14  A    between atoms: C_22  and  S_42
   15  A    between atoms: C_27  and  C_30
                            x       y       z     vdW  Elec       q    Type
                         _______ _______ _______ _____ _____    ______ ____

>  <TORSDO>
F 15

$$$$
=
 OpenBabel10272414143D

 43 46  0  0  0  0  0  0  0  0999 V2000
  186.5100  177.4500  143.2720 C   0  0  0  0  0  3  0  0  0  0  0  0
  186.6910  178.3830  142.2470 C   0  0  0  0  0  0  0  0  0  0  0  0
  187.4490  176.4350  143.4730 C   0  0  0  0  0  3  0  0  0  0  0  0
  187.8310  178.3070  141.4380 C   0  0  0  0  0  3  0  0  0  0  0  0
  188.7740  177.2860  141.6230 C   0  0  0  0  0  0  0  0  0  0  0  0
  188.5760  176.3530  142.6510 C   0  0  0  0  0  3  0  0  0  0  0  0
  191.2560  177.4480  141.2410 C   0  0  0  0  0  0  0  0  0  0  0  0
  190.9330  176.7440  138.5340 C   0  0  0  0  0  0  0  0  0  0  0  0
  189.8070  176.8190  139.3810 C   0  0  0  0  0  0  0  0  0  0  0  0
  188.5480  176.4800  138.8960 O   0  0  0  0  0  1  0  0  0  0  0  0
  189.9590  177.1910  140.7360 C   0  0  0  0  0  0  0  0  0  0  0  0
  192.3670  177.3230  140.3970 C   0  0  0  0  0  3  0  0  0  0  0  0
  192.2060  176.9700  139.0610 C   0  0  0  0  0  3  0  0  0  0  0  0
  190.8660  175.0210  136.6570 C   0  0  0  0  0  0  0  0  0  0  0  0
  190.7060  174.0390  137.4280 O   0  0  0  0  0  0  0  0  0  0  0  0
  191.0420  174.7880  135.2010 C   0  0  0  0  0  1  0  0  0  0  0  0
  190.8310  176.3630  137.1550 N   0  0  0  0  0  2  0  0  0  0  0  0
  191.4310  177.8700  142.6000 N   0  0  0  0  0  2  0  0  0  0  0  0
  191.9660  177.0200  143.6550 C   0  0  0  0  0  2  0  0  0  0  0  0
  191.5470  176.4930  146.0640 C   0  0  0  0  0  3  0  0  0  0  0  0
  189.7650  177.5740  147.3070 C   0  0  0  0  0  0  0  0  0  0  0  0
  190.1140  178.1020  144.9620 C   0  0  0  0  0  3  0  0  0  0  0  0
  190.8380  176.6780  147.2550 C   0  0  0  0  0  3  0  0  0  0  0  0
  191.1850  177.2000  144.9160 C   0  0  0  0  0  0  0  0  0  0  0  0
  189.4070  178.2860  146.1510 C   0  0  0  0  0  3  0  0  0  0  0  0
  187.6650  177.6400  148.6130 C   0  0  0  0  0  1  0  0  0  0  0  0
  189.0790  177.7430  148.5130 O   0  0  0  0  0  0  0  0  0  0  0  0
  185.6950  179.4830  142.0720 C   0  0  0  0  0  2  0  0  0  0  0  0
  184.3910  178.9770  142.0520 O   0  0  0  0  0  0  0  0  0  0  0  0
  184.0800  178.8160  140.6970 C   0  0  0  0  0  2  0  0  0  0  0  0
  182.8020  178.0060  140.5520 C   0  0  0  0  0  2  0  0  0  0  0  0
  182.5430  177.7270  139.1410 N   0  0  0  0  0  0  0  0  0  0  0  0
  183.5270  176.7680  138.6130 C   0  0  0  0  0  3  0  0  0  0  0  0
  183.9080  174.5010  137.5210 C   0  0  0  0  0  2  0  0  0  0  0  0
  185.0400  176.2320  136.6440 C   0  0  0  0  0  2  0  0  0  0  0  0
  185.1880  175.0810  137.4420 O   0  0  0  0  0  0  0  0  0  0  0  0
  184.2380  177.3240  137.3700 C   0  0  0  0  0  2  0  0  0  0  0  0
  182.9680  175.3460  138.3950 C   0  0  0  0  0  2  0  0  0  0  0  0
  182.6550  178.9780  138.4040 C   0  0  0  0  0  2  0  0  0  0  0  0
  180.4670  179.7970  138.7140 O   0  0  0  0  0  0  0  0  0  0  0  0
  181.3090  179.4080  137.9190 C   0  0  0  0  0  0  0  0  0  0  0  0
  180.5370  181.1540  136.1360 C   0  0  0  0  0  1  0  0  0  0  0  0
  180.9390  179.3830  136.1670 S   0  0  0  0  0  0  0  0  0  0  0  0
  1  3  1  0  0  0  0
  2  1  2  0  0  0  0
  4  5  2  0  0  0  0
  4  2  1  0  0  0  0
  5  6  1  0  0  0  0
  6  3  2  0  0  0  0
  7 18  1  0  0  0  0
  8 13  2  0  0  0  0
  8  9  1  0  0  0  0
  9 11  2  0  0  0  0
 10  9  1  0  0  0  0
 11  7  1  0  0  0  0
 11  5  1  0  0  0  0
 12  7  2  0  0  0  0
 13 12  1  0  0  0  0
 14 17  1  0  0  0  0
 14 15  2  0  0  0  0
 16 14  1  0  0  0  0
 17  8  1  0  0  0  0
 18 19  1  0  0  0  0
 19 24  1  0  0  0  0
 20 23  1  0  0  0  0
 21 27  1  0  0  0  0
 22 25  2  0  0  0  0
 23 21  2  0  0  0  0
 24 22  1  0  0  0  0
 24 20  2  0  0  0  0
 25 21  1  0  0  0  0
 27 26  1  0  0  0  0
 28  2  1  0  0  0  0
 29 28  1  0  0  0  0
 30 29  1  0  0  0  0
 31 30  1  0  0  0  0
 32 31  1  0  0  0  0
 33 32  1  0  0  0  0
 34 38  1  0  0  0  0
 35 37  1  0  0  0  0
 35 36  1  0  0  0  0
 36 34  1  0  0  0  0
 37 33  1  0  0  0  0
 38 33  1  0  0  0  0
 39 32  1  0  0  0  0
 41 39  1  0  0  0  0
 41 40  2  0  0  0  0
 42 43  1  0  0  0  0
 43 41  1  0  0  0  0
M  END
>  <MODEL>
8

>  <REMARK>
 VINA RESULT:      -6.6      3.479      8.458
  Name = 
  15 active torsions:
  status: ('A' for Active; 'I' for Inactive)
    1  A    between atoms: C_1  and  N_34
    2  A    between atoms: C_1  and  C_35
    3  A    between atoms: C_3  and  C_4
    4  A    between atoms: C_3  and  O_12
    5  A    between atoms: C_4  and  N_14
    6  A    between atoms: C_6  and  C_17
    7  A    between atoms: C_8  and  N_34
    8  A    between atoms: C_11  and  N_14
    9  A    between atoms: O_12  and  C_17
   10  A    between atoms: N_14  and  C_41
   11  A    between atoms: C_16  and  N_23
   12  A    between atoms: C_19  and  O_37
   13  A    between atoms: C_22  and  C_41
   14  A    between atoms: C_22  and  S_42
   15  A    between atoms: C_27  and  C_30
                            x       y       z     vdW  Elec       q    Type
                         _______ _______ _______ _____ _____    ______ ____

>  <TORSDO>
F 15

$$$$
=
 OpenBabel10272414143D

 43 46  0  0  0  0  0  0  0  0999 V2000
  184.2390  178.5980  145.5710 C   0  0  0  0  0  3  0  0  0  0  0  0
  184.7470  178.4830  144.2740 C   0  0  0  0  0  0  0  0  0  0  0  0
  185.0770  178.4110  146.6740 C   0  0  0  0  0  3  0  0  0  0  0  0
  186.1050  178.2010  144.0870 C   0  0  0  0  0  3  0  0  0  0  0  0
  186.9530  177.9990  145.1860 C   0  0  0  0  0  0  0  0  0  0  0  0
  186.4280  178.1110  146.4810 C   0  0  0  0  0  3  0  0  0  0  0  0
  188.9070  177.5400  143.6680 C   0  0  0  0  0  0  0  0  0  0  0  0
  190.5980  177.1480  145.8850 C   0  0  0  0  0  0  0  0  0  0  0  0
  189.2420  177.4830  146.0850 C   0  0  0  0  0  0  0  0  0  0  0  0
  188.7580  177.6860  147.3730 O   0  0  0  0  0  1  0  0  0  0  0  0
  188.3820  177.6620  144.9770 C   0  0  0  0  0  0  0  0  0  0  0  0
  190.2660  177.2530  143.4890 C   0  0  0  0  0  3  0  0  0  0  0  0
  191.1010  177.0640  144.5860 C   0  0  0  0  0  3  0  0  0  0  0  0
  192.2510  175.7690  147.2500 C   0  0  0  0  0  0  0  0  0  0  0  0
  192.3710  174.8670  146.3800 O   0  0  0  0  0  0  0  0  0  0  0  0
  192.9310  175.6170  148.5610 C   0  0  0  0  0  1  0  0  0  0  0  0
  191.5110  176.9640  146.9750 N   0  0  0  0  0  2  0  0  0  0  0  0
  188.0450  177.6730  142.5300 N   0  0  0  0  0  2  0  0  0  0  0  0
  188.2250  178.6710  141.4840 C   0  0  0  0  0  2  0  0  0  0  0  0
  187.5560  178.0400  139.1580 C   0  0  0  0  0  3  0  0  0  0  0  0
  189.0610  176.8230  137.6930 C   0  0  0  0  0  0  0  0  0  0  0  0
  189.7480  177.3900  139.9530 C   0  0  0  0  0  3  0  0  0  0  0  0
  187.8290  177.4470  137.9220 C   0  0  0  0  0  3  0  0  0  0  0  0
  188.5120  178.0090  140.1760 C   0  0  0  0  0  0  0  0  0  0  0  0
  190.0190  176.7980  138.7180 C   0  0  0  0  0  3  0  0  0  0  0  0
  189.1810  176.9640  135.2260 C   0  0  0  0  0  1  0  0  0  0  0  0
  189.3080  176.2440  136.4450 O   0  0  0  0  0  0  0  0  0  0  0  0
  183.8440  178.7240  143.1080 C   0  0  0  0  0  2  0  0  0  0  0  0
  184.4510  178.3170  141.9160 O   0  0  0  0  0  0  0  0  0  0  0  0
  183.4080  178.2170  140.9880 C   0  0  0  0  0  2  0  0  0  0  0  0
  183.9450  178.4280  139.5810 C   0  0  0  0  0  2  0  0  0  0  0  0
  183.2060  177.5970  138.6340 N   0  0  0  0  0  0  0  0  0  0  0  0
  184.1210  176.7080  137.8980 C   0  0  0  0  0  3  0  0  0  0  0  0
  184.4770  174.4080  136.8710 C   0  0  0  0  0  2  0  0  0  0  0  0
  185.0820  176.1650  135.6110 C   0  0  0  0  0  2  0  0  0  0  0  0
  185.5960  175.1160  136.3950 O   0  0  0  0  0  0  0  0  0  0  0  0
  184.3770  177.2240  136.4750 C   0  0  0  0  0  2  0  0  0  0  0  0
  183.7150  175.2190  137.9310 C   0  0  0  0  0  2  0  0  0  0  0  0
  182.5350  178.4780  137.6870 C   0  0  0  0  0  2  0  0  0  0  0  0
  180.4140  177.5850  138.1970 O   0  0  0  0  0  0  0  0  0  0  0  0
  181.0860  178.5910  138.0330 C   0  0  0  0  0  0  0  0  0  0  0  0
  180.3340  180.0720  140.0480 C   0  0  0  0  0  1  0  0  0  0  0  0
  180.3390  180.2060  138.2370 S   0  0  0  0  0  0  0  0  0  0  0  0
  1  3  1  0  0  0  0
  2  1  2  0  0  0  0
  4  2  1  0  0  0  0
  4  5  2  0  0  0  0
  5  6  1  0  0  0  0
  6  3  2  0  0  0  0
  7 11  1  0  0  0  0
  8  9  1  0  0  0  0
  8 17  1  0  0  0  0
  9 10  1  0  0  0  0
 11  5  1  0  0  0  0
 11  9  2  0  0  0  0
 12  7  2  0  0  0  0
 12 13  1  0  0  0  0
 13  8  2  0  0  0  0
 14 16  1  0  0  0  0
 15 14  2  0  0  0  0
 17 14  1  0  0  0  0
 18  7  1  0  0  0  0
 19 18  1  0  0  0  0
 20 24  1  0  0  0  0
 21 23  1  0  0  0  0
 21 25  2  0  0  0  0
 22 24  2  0  0  0  0
 23 20  2  0  0  0  0
 24 19  1  0  0  0  0
 25 22  1  0  0  0  0
 26 27  1  0  0  0  0
 27 21  1  0  0  0  0
 28  2  1  0  0  0  0
 29 28  1  0  0  0  0
 30 29  1  0  0  0  0
 31 30  1  0  0  0  0
 32 31  1  0  0  0  0
 33 38  1  0  0  0  0
 33 32  1  0  0  0  0
 34 38  1  0  0  0  0
 35 36  1  0  0  0  0
 35 37  1  0  0  0  0
 36 34  1  0  0  0  0
 37 33  1  0  0  0  0
 39 41  1  0  0  0  0
 39 32  1  0  0  0  0
 41 40  2  0  0  0  0
 41 43  1  0  0  0  0
 43 42  1  0  0  0  0
M  END
>  <MODEL>
9

>  <REMARK>
 VINA RESULT:      -6.5      4.140      8.637
  Name = 
  15 active torsions:
  status: ('A' for Active; 'I' for Inactive)
    1  A    between atoms: C_1  and  N_34
    2  A    between atoms: C_1  and  C_35
    3  A    between atoms: C_3  and  C_4
    4  A    between atoms: C_3  and  O_12
    5  A    between atoms: C_4  and  N_14
    6  A    between atoms: C_6  and  C_17
    7  A    between atoms: C_8  and  N_34
    8  A    between atoms: C_11  and  N_14
    9  A    between atoms: O_12  and  C_17
   10  A    between atoms: N_14  and  C_41
   11  A    between atoms: C_16  and  N_23
   12  A    between atoms: C_19  and  O_37
   13  A    between atoms: C_22  and  C_41
   14  A    between atoms: C_22  and  S_42
   15  A    between atoms: C_27  and  C_30
                            x       y       z     vdW  Elec       q    Type
                         _______ _______ _______ _____ _____    ______ ____

>  <TORSDO>
F 15

$$$$
