=
 OpenBabel10272414163D

 43 50  0  0  1  0  0  0  0  0999 V2000
  184.8110  178.1610  143.0300 N   0  0  0  0  0  0  0  0  0  0  0  0
  191.0870  176.7810  146.6560 C   0  0  0  0  0  0  0  0  0  0  0  0
  187.0290  177.8440  143.8150 N   0  0  0  0  0  0  0  0  0  0  0  0
  187.9070  177.7290  141.1110 C   0  0  1  0  0  3  0  0  0  0  0  0
  188.8060  177.1980  145.8810 C   0  0  0  0  0  0  0  0  0  0  0  0
  191.6270  177.0260  145.4590 C   0  0  0  0  0  3  0  0  0  0  0  0
  191.9690  176.3950  147.7890 C   0  0  0  0  0  1  0  0  0  0  0  0
  189.3230  177.4730  144.5190 C   0  0  0  0  0  0  0  0  0  0  0  0
  189.6350  176.8760  146.8720 C   0  0  0  0  0  3  0  0  0  0  0  0
  190.8120  177.4270  144.2580 C   0  0  0  0  0  2  0  0  0  0  0  0
  188.9530  178.0950  142.1540 C   0  0  0  0  0  2  0  0  0  0  0  0
  188.4510  177.7720  143.5350 C   0  0  0  0  0  0  0  0  0  0  0  0
  186.5360  177.5840  145.1440 C   0  0  0  0  0  3  0  0  0  0  0  0
  186.0880  178.1310  142.7590 C   0  0  0  0  0  0  0  0  0  0  0  0
  186.6120  178.4750  141.3900 C   0  0  0  0  0  2  0  0  0  0  0  0
  187.3660  177.2760  146.1380 C   0  0  0  0  0  3  0  0  0  0  0  0
  188.4080  178.0390  139.7400 C   0  0  0  0  0  0  0  0  0  0  0  0
  188.6090  176.1020  136.4470 N   0  0  0  0  0  2  0  0  0  0  0  0
  188.3120  177.0340  138.7250 N   0  0  0  0  0  2  0  0  0  0  0  0
  188.9210  179.1640  139.4910 O   0  0  0  0  0  0  0  0  0  0  0  0
  188.7180  177.1940  137.3600 C   0  0  0  0  0  0  0  0  0  0  0  0
  189.1680  178.2960  136.9470 O   0  0  0  0  0  0  0  0  0  0  0  0
  188.1420  174.7850  136.8570 C   0  0  2  0  0  3  0  0  0  0  0  0
  186.6930  173.5440  135.2240 N   0  0  0  0  0  2  0  0  0  0  0  0
  185.6460  175.5480  136.4370 C   0  0  2  0  0  3  0  0  0  0  0  0
  189.2200  173.5120  136.1450 S   0  0  0  0  0  0  0  0  0  0  0  0
  186.7660  174.5260  136.2920 C   0  0  2  0  0  0  0  0  0  0  0  0
  185.7030  174.3190  137.3440 C   0  0  0  0  0  2  0  0  0  0  0  0
  187.7870  172.6140  135.4670 C   0  0  0  0  0  2  0  0  0  0  0  0
  184.6230  175.3630  135.4040 N   0  0  2  0  0  0  0  0  0  0  0  0
  183.1110  176.9050  136.6140 C   0  0  0  0  0  2  0  0  0  0  0  0
  183.6880  177.2990  134.3770 C   0  0  0  0  0  2  0  0  0  0  0  0
  182.6550  176.7310  135.2270 N   0  0  1  0  0  0  0  0  0  0  0  0
  184.8470  176.3350  134.3460 C   0  0  0  0  0  2  0  0  0  0  0  0
  183.2750  175.6010  135.9490 C   0  0  1  0  0  3  0  0  0  0  0  0
  182.6190  178.4250  139.9760 C   0  0  0  0  0  3  0  0  0  0  0  0
  181.4370  178.9200  140.5490 C   0  0  0  0  0  0  0  0  0  0  0  0
  182.5110  178.9060  142.7240 C   0  0  0  0  0  3  0  0  0  0  0  0
  183.7370  178.1750  140.7750 C   0  0  0  0  0  3  0  0  0  0  0  0
  183.6950  178.4210  142.1580 C   0  0  0  0  0  0  0  0  0  0  0  0
  181.3910  179.1570  141.9260 C   0  0  0  0  0  3  0  0  0  0  0  0
  180.3020  179.1840  139.7780 O   0  0  0  0  0  0  0  0  0  0  0  0
  180.3460  179.2960  138.3620 C   0  0  0  0  0  1  0  0  0  0  0  0
  2  9  1  0  0  0  0
  2  7  1  0  0  0  0
  3 13  1  0  0  0  0
  4 17  1  6  0  0  0
  4 15  1  0  0  0  0
  4 11  1  0  0  0  0
  5 16  1  0  0  0  0
  5  9  2  0  0  0  0
  6  2  2  0  0  0  0
  8  5  1  0  0  0  0
 10  8  1  0  0  0  0
 10  6  1  0  0  0  0
 11 12  1  0  0  0  0
 12  3  1  0  0  0  0
 12  8  2  0  0  0  0
 13 16  2  0  0  0  0
 14  1  2  0  0  0  0
 14  3  1  0  0  0  0
 15 14  1  0  0  0  0
 18 21  1  0  0  0  0
 19 17  1  0  0  0  0
 20 17  2  0  0  0  0
 21 19  1  0  0  0  0
 22 21  2  0  0  0  0
 23 18  1  6  0  0  0
 24 29  1  0  0  0  0
 24 27  1  0  0  0  0
 25 28  1  1  0  0  0
 26 23  1  0  0  0  0
 27 25  1  0  0  0  0
 27 23  1  0  0  0  0
 27 28  1  1  0  0  0
 29 26  1  0  0  0  0
 30 34  1  6  0  0  0
 30 35  1  0  0  0  0
 30 25  1  0  0  0  0
 33 32  1  6  0  0  0
 33 35  1  0  0  0  0
 33 31  1  0  0  0  0
 34 32  1  0  0  0  0
 35 31  1  1  0  0  0
 36 37  2  0  0  0  0
 36 39  1  0  0  0  0
 37 41  1  0  0  0  0
 39 40  2  0  0  0  0
 40 38  1  0  0  0  0
 40  1  1  0  0  0  0
 41 38  2  0  0  0  0
 42 37  1  0  0  0  0
 43 42  1  0  0  0  0
M  END
>  <MODEL>
1

>  <REMARK>
 VINA RESULT:     -10.1      0.000      0.000
  Name = 
  5 active torsions:
  status: ('A' for Active; 'I' for Inactive)
    1  A    between atoms: N_1  and  C_35
    2  A    between atoms: C_2  and  C_13
    3  A    between atoms: N_3  and  C_4
    4  A    between atoms: N_11  and  C_14
    5  A    between atoms: C_19  and  O_25
                            x       y       z     vdW  Elec       q    Type
                         _______ _______ _______ _____ _____    ______ ____

>  <TORSDO>
F 5

$$$$
=
 OpenBabel10272414163D

 43 50  0  0  1  0  0  0  0  0999 V2000
  190.9580  176.8240  141.3540 N   0  0  0  0  0  0  0  0  0  0  0  0
  187.9330  177.9350  147.9910 C   0  0  0  0  0  0  0  0  0  0  0  0
  189.6030  177.2360  143.2590 N   0  0  0  0  0  0  0  0  0  0  0  0
  187.6810  178.4600  141.5550 C   0  0  1  0  0  3  0  0  0  0  0  0
  189.3110  177.4170  146.0380 C   0  0  0  0  0  0  0  0  0  0  0  0
  186.8580  178.2330  147.2570 C   0  0  0  0  0  3  0  0  0  0  0  0
  187.8600  178.0460  149.4720 C   0  0  0  0  0  1  0  0  0  0  0  0
  188.1680  177.7410  145.1510 C   0  0  0  0  0  0  0  0  0  0  0  0
  189.1930  177.5100  147.3620 C   0  0  0  0  0  3  0  0  0  0  0  0
  186.8400  178.1440  145.7540 C   0  0  0  0  0  2  0  0  0  0  0  0
  187.1760  177.9420  142.8940 C   0  0  0  0  0  2  0  0  0  0  0  0
  188.3310  177.6590  143.8160 C   0  0  0  0  0  0  0  0  0  0  0  0
  190.7060  176.9140  144.1290 C   0  0  0  0  0  3  0  0  0  0  0  0
  189.7940  177.1780  141.8300 C   0  0  0  0  0  0  0  0  0  0  0  0
  188.6200  177.4430  140.9260 C   0  0  0  0  0  2  0  0  0  0  0  0
  190.5850  176.9940  145.4520 C   0  0  0  0  0  3  0  0  0  0  0  0
  186.5350  178.7520  140.6450 C   0  0  0  0  0  0  0  0  0  0  0  0
  185.5690  177.6730  137.1040 N   0  0  0  0  0  2  0  0  0  0  0  0
  186.5090  178.1430  139.3500 N   0  0  0  0  0  2  0  0  0  0  0  0
  185.6180  179.5360  141.0110 O   0  0  0  0  0  0  0  0  0  0  0  0
  185.4630  178.3020  138.3820 C   0  0  0  0  0  0  0  0  0  0  0  0
  184.4410  178.9880  138.6450 O   0  0  0  0  0  0  0  0  0  0  0  0
  186.7400  176.9020  136.7070 C   0  0  2  0  0  3  0  0  0  0  0  0
  186.5560  175.5950  134.5710 N   0  0  0  0  0  2  0  0  0  0  0  0
  185.2540  174.7170  136.6010 C   0  0  2  0  0  3  0  0  0  0  0  0
  187.7020  177.8460  135.4940 S   0  0  0  0  0  0  0  0  0  0  0  0
  186.3100  175.6380  136.0020 C   0  0  2  0  0  0  0  0  0  0  0  0
  186.7390  174.3720  136.7030 C   0  0  0  0  0  2  0  0  0  0  0  0
  187.7260  176.4310  134.3460 C   0  0  0  0  0  2  0  0  0  0  0  0
  184.6180  173.8980  135.5660 N   0  0  2  0  0  0  0  0  0  0  0  0
  183.7240  172.3810  137.3060 C   0  0  0  0  0  2  0  0  0  0  0  0
  182.2920  173.4210  135.7700 C   0  0  0  0  0  2  0  0  0  0  0  0
  183.0020  172.1830  136.0400 N   0  0  1  0  0  0  0  0  0  0  0  0
  183.2970  174.4380  135.2890 C   0  0  0  0  0  2  0  0  0  0  0  0
  184.4430  172.5090  136.0270 C   0  0  1  0  0  3  0  0  0  0  0  0
  193.0500  176.8710  138.2190 C   0  0  0  0  0  3  0  0  0  0  0  0
  192.1340  176.3510  137.2910 C   0  0  0  0  0  0  0  0  0  0  0  0
  190.4810  176.1680  139.0560 C   0  0  0  0  0  3  0  0  0  0  0  0
  192.6790  177.0370  139.5560 C   0  0  0  0  0  3  0  0  0  0  0  0
  191.3860  176.6940  139.9850 C   0  0  0  0  0  0  0  0  0  0  0  0
  190.8510  176.0000  137.7180 C   0  0  0  0  0  3  0  0  0  0  0  0
  192.4730  176.1750  135.9470 O   0  0  0  0  0  0  0  0  0  0  0  0
  191.4980  176.0280  134.9230 C   0  0  0  0  0  1  0  0  0  0  0  0
  1 14  2  0  0  0  0
  2  7  1  0  0  0  0
  3 12  1  0  0  0  0
  3 13  1  0  0  0  0
  4 17  1  6  0  0  0
  4 11  1  0  0  0  0
  5  9  2  0  0  0  0
  6  2  2  0  0  0  0
  8 10  1  0  0  0  0
  8  5  1  0  0  0  0
  9  2  1  0  0  0  0
 10  6  1  0  0  0  0
 11 12  1  0  0  0  0
 12  8  2  0  0  0  0
 13 16  2  0  0  0  0
 14  3  1  0  0  0  0
 15  4  1  0  0  0  0
 15 14  1  0  0  0  0
 16  5  1  0  0  0  0
 17 20  2  0  0  0  0
 18 21  1  0  0  0  0
 19 17  1  0  0  0  0
 21 22  2  0  0  0  0
 21 19  1  0  0  0  0
 23 18  1  6  0  0  0
 24 27  1  0  0  0  0
 25 28  1  1  0  0  0
 26 23  1  0  0  0  0
 27 25  1  0  0  0  0
 27 28  1  1  0  0  0
 27 23  1  0  0  0  0
 29 24  1  0  0  0  0
 29 26  1  0  0  0  0
 30 34  1  1  0  0  0
 30 35  1  0  0  0  0
 30 25  1  0  0  0  0
 33 32  1  6  0  0  0
 33 31  1  0  0  0  0
 34 32  1  0  0  0  0
 35 33  1  0  0  0  0
 35 31  1  1  0  0  0
 36 39  1  0  0  0  0
 37 41  1  0  0  0  0
 37 36  2  0  0  0  0
 38 40  1  0  0  0  0
 39 40  2  0  0  0  0
 40  1  1  0  0  0  0
 41 38  2  0  0  0  0
 42 37  1  0  0  0  0
 43 42  1  0  0  0  0
M  END
>  <MODEL>
2

>  <REMARK>
 VINA RESULT:      -9.8      2.691      5.526
  Name = 
  5 active torsions:
  status: ('A' for Active; 'I' for Inactive)
    1  A    between atoms: N_1  and  C_35
    2  A    between atoms: C_2  and  C_13
    3  A    between atoms: N_3  and  C_4
    4  A    between atoms: N_11  and  C_14
    5  A    between atoms: C_19  and  O_25
                            x       y       z     vdW  Elec       q    Type
                         _______ _______ _______ _____ _____    ______ ____

>  <TORSDO>
F 5

$$$$
=
 OpenBabel10272414163D

 43 50  0  0  1  0  0  0  0  0999 V2000
  188.7600  177.4650  139.8960 N   0  0  0  0  0  0  0  0  0  0  0  0
  191.1000  176.7410  146.8560 C   0  0  0  0  0  0  0  0  0  0  0  0
  189.0760  177.2320  142.2380 N   0  0  0  0  0  0  0  0  0  0  0  0
  186.4420  178.2320  142.6330 C   0  0  1  0  0  3  0  0  0  0  0  0
  190.7740  176.8840  144.4370 C   0  0  2  0  0  3  0  0  0  0  0  0
  189.8010  176.8940  147.1230 C   0  0  0  0  0  3  0  0  0  0  0  0
  192.0640  176.5890  147.9780 C   0  0  0  0  0  1  0  0  0  0  0  0
  189.3190  177.0720  144.6480 C   0  0  0  0  0  0  0  0  0  0  0  0
  191.5980  176.7310  145.4720 C   0  0  0  0  0  3  0  0  0  0  0  0
  188.7550  177.0490  146.0510 C   0  0  0  0  0  3  0  0  0  0  0  0
  187.0330  177.4000  143.7610 C   0  0  0  0  0  2  0  0  0  0  0  0
  188.5190  177.2490  143.5780 C   0  0  0  0  0  0  0  0  0  0  0  0
  190.4910  177.0400  142.0410 C   0  0  0  0  0  3  0  0  0  0  0  0
  188.2300  177.4540  141.0900 C   0  0  0  0  0  0  0  0  0  0  0  0
  186.7440  177.5800  141.2930 C   0  0  0  0  0  2  0  0  0  0  0  0
  191.3120  176.8720  143.0750 C   0  0  0  0  0  3  0  0  0  0  0  0
  184.9700  178.3930  142.8210 C   0  0  0  0  0  0  0  0  0  0  0  0
  182.0110  179.0150  140.4770 N   0  0  0  0  0  2  0  0  0  0  0  0
  184.1470  178.6150  141.6710 N   0  0  0  0  0  2  0  0  0  0  0  0
  184.4690  178.3480  143.9770 O   0  0  0  0  0  0  0  0  0  0  0  0
  182.7200  178.7550  141.6890 C   0  0  0  0  0  0  0  0  0  0  0  0
  182.0760  178.6450  142.7660 O   0  0  0  0  0  0  0  0  0  0  0  0
  182.6870  179.2010  139.2010 C   0  0  2  0  0  3  0  0  0  0  0  0
  181.3240  178.7860  137.1330 N   0  0  0  0  0  2  0  0  0  0  0  0
  182.0330  176.7350  138.5040 C   0  0  2  0  0  3  0  0  0  0  0  0
  182.3060  180.8500  138.5500 S   0  0  0  0  0  0  0  0  0  0  0  0
  182.1510  178.2210  138.1850 C   0  0  2  0  0  0  0  0  0  0  0  0
  183.1900  177.2610  137.6550 C   0  0  0  0  0  2  0  0  0  0  0  0
  181.8000  180.1490  136.9460 C   0  0  0  0  0  2  0  0  0  0  0  0
  181.0350  176.0880  137.6480 N   0  0  2  0  0  0  0  0  0  0  0  0
  182.3400  173.9850  137.7060 C   0  0  0  0  0  2  0  0  0  0  0  0
  180.0920  174.0230  138.3710 C   0  0  0  0  0  2  0  0  0  0  0  0
  180.9670  173.7190  137.2510 N   0  0  1  0  0  0  0  0  0  0  0  0
  179.9940  175.5230  138.4900 C   0  0  0  0  0  2  0  0  0  0  0  0
  181.6370  174.9830  136.8820 C   0  0  1  0  0  3  0  0  0  0  0  0
  187.5220  179.0340  136.7010 C   0  0  0  0  0  3  0  0  0  0  0  0
  186.9120  177.9270  136.0900 C   0  0  0  0  0  0  0  0  0  0  0  0
  187.5290  176.5610  137.9980 C   0  0  0  0  0  3  0  0  0  0  0  0
  188.1290  178.9010  137.9530 C   0  0  0  0  0  3  0  0  0  0  0  0
  188.1310  177.6620  138.6160 C   0  0  0  0  0  0  0  0  0  0  0  0
  186.9210  176.6920  136.7450 C   0  0  0  0  0  3  0  0  0  0  0  0
  186.2940  178.0270  134.8410 O   0  0  0  0  0  0  0  0  0  0  0  0
  185.1270  177.2900  134.5020 C   0  0  0  0  0  1  0  0  0  0  0  0
  1 14  2  0  0  0  0
  2  6  1  0  0  0  0
  2  7  1  0  0  0  0
  3 12  1  0  0  0  0
  4 17  1  1  0  0  0
  4 11  1  0  0  0  0
  5 16  1  1  0  0  0
  5  8  1  0  0  0  0
  5  9  1  0  0  0  0
  8 10  1  0  0  0  0
  9  2  2  0  0  0  0
 10  6  2  0  0  0  0
 12 11  1  0  0  0  0
 12  8  2  0  0  0  0
 13  3  1  0  0  0  0
 13 16  2  0  0  0  0
 14 15  1  0  0  0  0
 14  3  1  0  0  0  0
 15  4  1  0  0  0  0
 17 20  2  0  0  0  0
 18 21  1  0  0  0  0
 19 21  1  0  0  0  0
 19 17  1  0  0  0  0
 21 22  2  0  0  0  0
 23 18  1  1  0  0  0
 24 27  1  0  0  0  0
 25 28  1  6  0  0  0
 26 23  1  0  0  0  0
 27 28  1  6  0  0  0
 27 25  1  0  0  0  0
 27 23  1  0  0  0  0
 29 24  1  0  0  0  0
 29 26  1  0  0  0  0
 30 34  1  1  0  0  0
 30 25  1  0  0  0  0
 32 34  1  0  0  0  0
 33 31  1  1  0  0  0
 33 32  1  0  0  0  0
 35 33  1  0  0  0  0
 35 30  1  0  0  0  0
 35 31  1  1  0  0  0
 36 39  1  0  0  0  0
 37 36  2  0  0  0  0
 37 41  1  0  0  0  0
 38 40  1  0  0  0  0
 39 40  2  0  0  0  0
 40  1  1  0  0  0  0
 41 38  2  0  0  0  0
 42 37  1  0  0  0  0
 43 42  1  0  0  0  0
M  END
>  <MODEL>
3

>  <REMARK>
 VINA RESULT:      -8.4      2.756      5.531
  Name = 
  5 active torsions:
  status: ('A' for Active; 'I' for Inactive)
    1  A    between atoms: N_1  and  C_35
    2  A    between atoms: C_2  and  C_13
    3  A    between atoms: N_3  and  C_4
    4  A    between atoms: N_11  and  C_14
    5  A    between atoms: C_19  and  O_25
                            x       y       z     vdW  Elec       q    Type
                         _______ _______ _______ _____ _____    ______ ____

>  <TORSDO>
F 5

$$$$
=
 OpenBabel10272414163D

 43 50  0  0  1  0  0  0  0  0999 V2000
  184.4520  178.4400  142.0600 N   0  0  0  0  0  0  0  0  0  0  0  0
  190.4220  176.9460  146.1320 C   0  0  0  0  0  0  0  0  0  0  0  0
  186.6010  178.0930  143.0080 N   0  0  0  0  0  0  0  0  0  0  0  0
  187.6870  178.0320  140.3790 C   0  0  1  0  0  3  0  0  0  0  0  0
  188.2090  177.3920  145.1910 C   0  0  0  0  0  0  0  0  0  0  0  0
  191.0540  177.2140  144.9860 C   0  0  0  0  0  3  0  0  0  0  0  0
  191.2110  176.5300  147.3210 C   0  0  0  0  0  1  0  0  0  0  0  0
  188.8320  177.6940  143.8800 C   0  0  0  0  0  0  0  0  0  0  0  0
  188.9580  177.0440  146.2360 C   0  0  0  0  0  3  0  0  0  0  0  0
  190.3360  177.6450  143.7340 C   0  0  0  0  0  2  0  0  0  0  0  0
  188.6490  178.3700  141.5070 C   0  0  0  0  0  2  0  0  0  0  0  0
  188.0410  178.0190  142.8380 C   0  0  0  0  0  0  0  0  0  0  0  0
  186.0050  177.8070  144.2890 C   0  0  0  0  0  3  0  0  0  0  0  0
  185.7470  178.4090  141.8880 C   0  0  0  0  0  0  0  0  0  0  0  0
  186.3760  178.7790  140.5720 C   0  0  0  0  0  2  0  0  0  0  0  0
  186.7540  177.4730  145.3370 C   0  0  0  0  0  3  0  0  0  0  0  0
  188.2940  178.3690  139.0580 C   0  0  0  0  0  0  0  0  0  0  0  0
  187.4090  177.6040  135.4150 N   0  0  0  0  0  2  0  0  0  0  0  0
  187.6600  177.8970  137.8640 N   0  0  0  0  0  2  0  0  0  0  0  0
  189.3570  179.0460  139.0020 O   0  0  0  0  0  0  0  0  0  0  0  0
  188.1050  178.1660  136.5290 C   0  0  0  0  0  0  0  0  0  0  0  0
  189.1050  178.9020  136.3190 O   0  0  0  0  0  0  0  0  0  0  0  0
  186.2730  176.7070  135.5760 C   0  0  2  0  0  3  0  0  0  0  0  0
  186.4750  174.9400  137.3480 N   0  0  0  0  0  2  0  0  0  0  0  0
  187.8710  174.6310  135.2180 C   0  0  2  0  0  3  0  0  0  0  0  0
  185.2320  177.2900  136.9420 S   0  0  0  0  0  0  0  0  0  0  0  0
  186.7530  175.3330  135.9780 C   0  0  2  0  0  0  0  0  0  0  0  0
  186.4090  174.2510  134.9820 C   0  0  0  0  0  2  0  0  0  0  0  0
  185.2560  175.6430  137.7220 C   0  0  0  0  0  2  0  0  0  0  0  0
  188.5250  173.6200  136.0520 N   0  0  2  0  0  0  0  0  0  0  0  0
  190.3010  173.3520  134.3480 C   0  0  0  0  0  2  0  0  0  0  0  0
  190.8360  173.8970  136.5640 C   0  0  0  0  0  2  0  0  0  0  0  0
  190.7400  172.7860  135.6320 N   0  0  1  0  0  0  0  0  0  0  0  0
  189.4360  174.2880  136.9670 C   0  0  0  0  0  2  0  0  0  0  0  0
  189.3210  172.6930  135.2290 C   0  0  1  0  0  3  0  0  0  0  0  0
  181.0750  178.8150  140.4310 C   0  0  0  0  0  3  0  0  0  0  0  0
  181.4450  179.3680  139.1950 C   0  0  0  0  0  0  0  0  0  0  0  0
  183.7710  179.2850  139.8790 C   0  0  0  0  0  3  0  0  0  0  0  0
  182.0490  178.5000  141.3810 C   0  0  0  0  0  3  0  0  0  0  0  0
  183.4090  178.7250  141.1100 C   0  0  0  0  0  0  0  0  0  0  0  0
  182.7970  179.6010  138.9270 C   0  0  0  0  0  3  0  0  0  0  0  0
  180.4950  179.6920  138.2230 O   0  0  0  0  0  0  0  0  0  0  0  0
  180.8510  180.1790  136.9360 C   0  0  0  0  0  1  0  0  0  0  0  0
  2  9  1  0  0  0  0
  2  7  1  0  0  0  0
  3 13  1  0  0  0  0
  4 17  1  6  0  0  0
  4 15  1  0  0  0  0
  4 11  1  0  0  0  0
  5 16  1  0  0  0  0
  5  9  2  0  0  0  0
  6  2  2  0  0  0  0
  8  5  1  0  0  0  0
 10  8  1  0  0  0  0
 10  6  1  0  0  0  0
 11 12  1  0  0  0  0
 12  3  1  0  0  0  0
 12  8  2  0  0  0  0
 13 16  2  0  0  0  0
 14  1  2  0  0  0  0
 14  3  1  0  0  0  0
 15 14  1  0  0  0  0
 18 21  1  0  0  0  0
 19 17  1  0  0  0  0
 20 17  2  0  0  0  0
 21 19  1  0  0  0  0
 22 21  2  0  0  0  0
 23 18  1  1  0  0  0
 23 27  1  0  0  0  0
 23 26  1  0  0  0  0
 24 29  1  0  0  0  0
 25 28  1  6  0  0  0
 25 27  1  0  0  0  0
 25 30  1  0  0  0  0
 26 29  1  0  0  0  0
 27 28  1  6  0  0  0
 27 24  1  0  0  0  0
 30 34  1  1  0  0  0
 32 34  1  0  0  0  0
 33 31  1  6  0  0  0
 33 32  1  0  0  0  0
 35 31  1  6  0  0  0
 35 33  1  0  0  0  0
 35 30  1  0  0  0  0
 36 39  1  0  0  0  0
 37 36  2  0  0  0  0
 38 40  1  0  0  0  0
 40 39  2  0  0  0  0
 40  1  1  0  0  0  0
 41 37  1  0  0  0  0
 41 38  2  0  0  0  0
 42 37  1  0  0  0  0
 43 42  1  0  0  0  0
M  END
>  <MODEL>
4

>  <REMARK>
 VINA RESULT:      -8.0      1.759      3.253
  Name = 
  5 active torsions:
  status: ('A' for Active; 'I' for Inactive)
    1  A    between atoms: N_1  and  C_35
    2  A    between atoms: C_2  and  C_13
    3  A    between atoms: N_3  and  C_4
    4  A    between atoms: N_11  and  C_14
    5  A    between atoms: C_19  and  O_25
                            x       y       z     vdW  Elec       q    Type
                         _______ _______ _______ _____ _____    ______ ____

>  <TORSDO>
F 5

$$$$
=
 OpenBabel10272414163D

 43 50  0  0  1  0  0  0  0  0999 V2000
  191.7030  176.1690  139.5620 N   0  0  0  0  0  0  0  0  0  0  0  0
  187.3940  177.8860  145.3010 C   0  0  0  0  0  0  0  0  0  0  0  0
  189.9910  176.7520  141.1010 N   0  0  0  0  0  0  0  0  0  0  0  0
  188.4790  177.8020  138.9310 C   0  0  1  0  0  3  0  0  0  0  0  0
  189.1350  177.1920  143.7310 C   0  0  0  0  0  0  0  0  0  0  0  0
  186.4970  178.1080  144.3360 C   0  0  0  0  0  3  0  0  0  0  0  0
  187.0190  178.1350  146.7170 C   0  0  0  0  0  1  0  0  0  0  0  0
  188.2050  177.4260  142.6010 C   0  0  0  0  0  0  0  0  0  0  0  0
  188.7490  177.4090  144.9870 C   0  0  0  0  0  3  0  0  0  0  0  0
  186.7880  177.8780  142.8760 C   0  0  0  0  0  2  0  0  0  0  0  0
  187.7020  177.4100  140.1790 C   0  0  0  0  0  2  0  0  0  0  0  0
  188.6380  177.2190  141.3410 C   0  0  0  0  0  0  0  0  0  0  0  0
  190.8860  176.5180  142.2050 C   0  0  0  0  0  3  0  0  0  0  0  0
  190.4710  176.5610  139.7530 C   0  0  0  0  0  0  0  0  0  0  0  0
  189.5120  176.7340  138.6060 C   0  0  0  0  0  2  0  0  0  0  0  0
  190.4960  176.7210  143.4620 C   0  0  0  0  0  3  0  0  0  0  0  0
  187.5490  178.0020  137.7800 C   0  0  0  0  0  0  0  0  0  0  0  0
  185.5020  175.6750  135.5380 N   0  0  0  0  0  2  0  0  0  0  0  0
  186.9430  176.8570  137.1730 N   0  0  0  0  0  2  0  0  0  0  0  0
  187.3190  179.1630  137.3460 O   0  0  0  0  0  0  0  0  0  0  0  0
  186.0090  176.8920  136.0870 C   0  0  0  0  0  0  0  0  0  0  0  0
  185.6200  177.9900  135.6080 O   0  0  0  0  0  0  0  0  0  0  0  0
  185.9380  174.3660  136.0050 C   0  0  2  0  0  3  0  0  0  0  0  0
  184.7080  172.3770  135.0900 N   0  0  0  0  0  2  0  0  0  0  0  0
  183.4710  173.8380  136.7990 C   0  0  2  0  0  3  0  0  0  0  0  0
  187.0660  173.6350  134.7890 S   0  0  0  0  0  0  0  0  0  0  0  0
  184.7570  173.4300  136.0910 C   0  0  2  0  0  0  0  0  0  0  0  0
  184.4820  172.9180  137.4840 C   0  0  0  0  0  2  0  0  0  0  0  0
  186.0940  172.0940  134.7470 C   0  0  0  0  0  2  0  0  0  0  0  0
  182.3290  173.0580  136.3160 N   0  0  2  0  0  0  0  0  0  0  0  0
  180.8340  174.2680  137.8740 C   0  0  0  0  0  2  0  0  0  0  0  0
  180.3920  174.2290  135.5720 C   0  0  0  0  0  2  0  0  0  0  0  0
  180.0440  173.5940  136.8320 N   0  0  1  0  0  0  0  0  0  0  0  0
  181.7560  173.7340  135.1630 C   0  0  0  0  0  2  0  0  0  0  0  0
  181.2800  172.9670  137.3460 C   0  0  1  0  0  3  0  0  0  0  0  0
  193.9370  176.5380  136.5500 C   0  0  0  0  0  3  0  0  0  0  0  0
  193.7560  175.2870  135.9400 C   0  0  0  0  0  0  0  0  0  0  0  0
  192.2310  174.6640  137.7210 C   0  0  0  0  0  3  0  0  0  0  0  0
  193.2670  176.8460  137.7370 C   0  0  0  0  0  3  0  0  0  0  0  0
  192.4010  175.9120  138.3290 C   0  0  0  0  0  0  0  0  0  0  0  0
  192.9020  174.3540  136.5340 C   0  0  0  0  0  3  0  0  0  0  0  0
  194.4090  174.9490  134.7520 O   0  0  0  0  0  0  0  0  0  0  0  0
  194.9830  173.6690  134.5300 C   0  0  0  0  0  1  0  0  0  0  0  0
  1 14  2  0  0  0  0
  2  7  1  0  0  0  0
  3 12  1  0  0  0  0
  3 13  1  0  0  0  0
  4 17  1  6  0  0  0
  4 11  1  0  0  0  0
  5  9  2  0  0  0  0
  6  2  2  0  0  0  0
  8 10  1  0  0  0  0
  8  5  1  0  0  0  0
  9  2  1  0  0  0  0
 10  6  1  0  0  0  0
 11 12  1  0  0  0  0
 12  8  2  0  0  0  0
 13 16  2  0  0  0  0
 14  3  1  0  0  0  0
 15  4  1  0  0  0  0
 15 14  1  0  0  0  0
 16  5  1  0  0  0  0
 18 21  1  0  0  0  0
 19 17  1  0  0  0  0
 20 17  2  0  0  0  0
 21 19  1  0  0  0  0
 22 21  2  0  0  0  0
 23 18  1  6  0  0  0
 23 27  1  0  0  0  0
 24 27  1  0  0  0  0
 25 28  1  1  0  0  0
 26 23  1  0  0  0  0
 27 25  1  0  0  0  0
 27 28  1  1  0  0  0
 29 26  1  0  0  0  0
 29 24  1  0  0  0  0
 30 34  1  6  0  0  0
 30 25  1  0  0  0  0
 30 35  1  0  0  0  0
 33 32  1  6  0  0  0
 33 35  1  0  0  0  0
 33 31  1  0  0  0  0
 34 32  1  0  0  0  0
 35 31  1  1  0  0  0
 36 39  1  0  0  0  0
 37 41  1  0  0  0  0
 37 36  2  0  0  0  0
 38 40  1  0  0  0  0
 39 40  2  0  0  0  0
 40  1  1  0  0  0  0
 41 38  2  0  0  0  0
 42 37  1  0  0  0  0
 43 42  1  0  0  0  0
M  END
>  <MODEL>
5

>  <REMARK>
 VINA RESULT:      -8.0      3.070      6.535
  Name = 
  5 active torsions:
  status: ('A' for Active; 'I' for Inactive)
    1  A    between atoms: N_1  and  C_35
    2  A    between atoms: C_2  and  C_13
    3  A    between atoms: N_3  and  C_4
    4  A    between atoms: N_11  and  C_14
    5  A    between atoms: C_19  and  O_25
                            x       y       z     vdW  Elec       q    Type
                         _______ _______ _______ _____ _____    ______ ____

>  <TORSDO>
F 5

$$$$
=
 OpenBabel10272414163D

 43 50  0  0  1  0  0  0  0  0999 V2000
  188.7220  177.8190  140.8780 N   0  0  0  0  0  0  0  0  0  0  0  0
  194.1280  175.7700  136.2930 C   0  0  0  0  0  0  0  0  0  0  0  0
  190.1480  177.1990  139.0840 N   0  0  0  0  0  0  0  0  0  0  0  0
  187.8390  176.5800  137.5400 C   0  0  1  0  0  3  0  0  0  0  0  0
  192.6860  176.5010  138.1280 C   0  0  0  0  0  0  0  0  0  0  0  0
  193.1310  175.7570  135.4050 C   0  0  0  0  0  3  0  0  0  0  0  0
  195.4950  175.3740  135.8630 C   0  0  0  0  0  1  0  0  0  0  0  0
  191.5230  176.5000  137.2080 C   0  0  0  0  0  0  0  0  0  0  0  0
  193.8970  176.1590  137.6930 C   0  0  0  0  0  3  0  0  0  0  0  0
  191.7180  176.1460  135.7510 C   0  0  0  0  0  2  0  0  0  0  0  0
  189.1180  176.8760  136.7690 C   0  0  0  0  0  2  0  0  0  0  0  0
  190.3070  176.8290  137.6890 C   0  0  0  0  0  0  0  0  0  0  0  0
  191.2850  177.2050  139.9680 C   0  0  0  0  0  3  0  0  0  0  0  0
  188.8430  177.5190  139.6120 C   0  0  0  0  0  0  0  0  0  0  0  0
  187.6710  177.5830  138.6700 C   0  0  0  0  0  2  0  0  0  0  0  0
  192.4990  176.8770  139.5310 C   0  0  0  0  0  3  0  0  0  0  0  0
  186.6600  176.6160  136.6250 C   0  0  0  0  0  0  0  0  0  0  0  0
  182.9130  177.2310  137.0890 N   0  0  0  0  0  2  0  0  0  0  0  0
  185.3670  176.8920  137.1740 N   0  0  0  0  0  2  0  0  0  0  0  0
  186.8060  176.3900  135.3930 O   0  0  0  0  0  0  0  0  0  0  0  0
  184.1520  176.9910  136.4210 C   0  0  0  0  0  0  0  0  0  0  0  0
  184.1600  176.8740  135.1670 O   0  0  0  0  0  0  0  0  0  0  0  0
  182.8140  177.3330  138.5390 C   0  0  2  0  0  3  0  0  0  0  0  0
  180.5640  177.9400  139.4740 N   0  0  0  0  0  2  0  0  0  0  0  0
  181.8860  179.7970  138.2950 C   0  0  2  0  0  3  0  0  0  0  0  0
  182.1490  175.7840  139.2090 S   0  0  0  0  0  0  0  0  0  0  0  0
  181.8210  178.4060  138.9140 C   0  0  2  0  0  0  0  0  0  0  0  0
  182.4210  179.5440  139.7040 C   0  0  0  0  0  2  0  0  0  0  0  0
  180.8710  176.6850  140.1440 C   0  0  0  0  0  2  0  0  0  0  0  0
  180.5860  180.4690  138.3650 N   0  0  2  0  0  0  0  0  0  0  0  0
  181.6940  182.6600  138.0510 C   0  0  0  0  0  2  0  0  0  0  0  0
  179.9870  181.9600  136.6050 C   0  0  0  0  0  2  0  0  0  0  0  0
  180.2530  182.7760  137.7780 N   0  0  1  0  0  0  0  0  0  0  0  0
  180.0110  180.5130  137.0300 C   0  0  0  0  0  2  0  0  0  0  0  0
  180.7360  181.8580  138.8310 C   0  0  1  0  0  3  0  0  0  0  0  0
  185.3280  179.1570  141.8240 C   0  0  0  0  0  3  0  0  0  0  0  0
  185.2610  178.7600  143.1690 C   0  0  0  0  0  0  0  0  0  0  0  0
  187.4650  177.7690  142.9650 C   0  0  0  0  0  3  0  0  0  0  0  0
  186.4590  178.8610  141.0590 C   0  0  0  0  0  3  0  0  0  0  0  0
  187.5430  178.1690  141.6260 C   0  0  0  0  0  0  0  0  0  0  0  0
  186.3340  178.0640  143.7320 C   0  0  0  0  0  3  0  0  0  0  0  0
  184.1460  179.0430  143.9620 O   0  0  0  0  0  0  0  0  0  0  0  0
  184.0930  178.7360  145.3490 C   0  0  0  0  0  1  0  0  0  0  0  0
  1 40  1  0  0  0  0
  2  9  1  0  0  0  0
  3 14  1  0  0  0  0
  3 13  1  0  0  0  0
  4 17  1  6  0  0  0
  4 15  1  0  0  0  0
  5 16  1  0  0  0  0
  6 10  1  0  0  0  0
  6  2  2  0  0  0  0
  7  2  1  0  0  0  0
  8 12  2  0  0  0  0
  8  5  1  0  0  0  0
  9  5  2  0  0  0  0
 10  8  1  0  0  0  0
 11  4  1  0  0  0  0
 11 12  1  0  0  0  0
 12  3  1  0  0  0  0
 14  1  2  0  0  0  0
 15 14  1  0  0  0  0
 16 13  2  0  0  0  0
 17 19  1  0  0  0  0
 20 17  2  0  0  0  0
 21 18  1  0  0  0  0
 21 19  1  0  0  0  0
 22 21  2  0  0  0  0
 23 18  1  6  0  0  0
 23 27  1  0  0  0  0
 23 26  1  0  0  0  0
 24 29  1  0  0  0  0
 25 30  1  0  0  0  0
 25 27  1  0  0  0  0
 25 28  1  1  0  0  0
 26 29  1  0  0  0  0
 27 24  1  0  0  0  0
 27 28  1  1  0  0  0
 30 34  1  6  0  0  0
 30 35  1  0  0  0  0
 32 34  1  0  0  0  0
 33 32  1  6  0  0  0
 33 31  1  0  0  0  0
 33 35  1  0  0  0  0
 35 31  1  6  0  0  0
 36 37  1  0  0  0  0
 37 41  2  0  0  0  0
 37 42  1  0  0  0  0
 38 41  1  0  0  0  0
 39 40  1  0  0  0  0
 39 36  2  0  0  0  0
 40 38  2  0  0  0  0
 42 43  1  0  0  0  0
M  END
>  <MODEL>
6

>  <REMARK>
 VINA RESULT:      -8.0      3.522      6.802
  Name = 
  5 active torsions:
  status: ('A' for Active; 'I' for Inactive)
    1  A    between atoms: N_1  and  C_35
    2  A    between atoms: C_2  and  C_13
    3  A    between atoms: N_3  and  C_4
    4  A    between atoms: N_11  and  C_14
    5  A    between atoms: C_19  and  O_25
                            x       y       z     vdW  Elec       q    Type
                         _______ _______ _______ _____ _____    ______ ____

>  <TORSDO>
F 5

$$$$
=
 OpenBabel10272414163D

 43 50  0  0  1  0  0  0  0  0999 V2000
  189.2060  177.4150  143.1170 N   0  0  0  0  0  0  0  0  0  0  0  0
  188.7720  177.8290  135.7620 C   0  0  0  0  0  0  0  0  0  0  0  0
  188.6570  177.7160  140.8270 N   0  0  0  0  0  0  0  0  0  0  0  0
  185.9070  177.7820  141.5540 C   0  0  1  0  0  3  0  0  0  0  0  0
  189.3750  177.6080  138.1220 C   0  0  0  0  0  0  0  0  0  0  0  0
  187.5130  178.1840  136.0320 C   0  0  0  0  0  3  0  0  0  0  0  0
  189.2110  177.7150  134.3470 C   0  0  0  0  0  1  0  0  0  0  0  0
  187.9930  177.9820  138.5060 C   0  0  0  0  0  0  0  0  0  0  0  0
  189.7300  177.5390  136.8400 C   0  0  0  0  0  3  0  0  0  0  0  0
  186.9830  178.3290  137.4350 C   0  0  0  0  0  2  0  0  0  0  0  0
  186.2790  178.4350  140.2310 C   0  0  0  0  0  2  0  0  0  0  0  0
  187.6630  178.0190  139.8130 C   0  0  0  0  0  0  0  0  0  0  0  0
  190.0000  177.3620  140.4440 C   0  0  0  0  0  3  0  0  0  0  0  0
  188.3010  177.7210  142.2250 C   0  0  0  0  0  0  0  0  0  0  0  0
  186.9180  178.1630  142.6240 C   0  0  0  0  0  2  0  0  0  0  0  0
  190.3590  177.3060  139.1640 C   0  0  0  0  0  3  0  0  0  0  0  0
  184.5300  178.1860  141.9650 C   0  0  0  0  0  0  0  0  0  0  0  0
  181.5110  179.6790  140.1510 N   0  0  0  0  0  2  0  0  0  0  0  0
  183.6430  178.7210  140.9770 N   0  0  0  0  0  2  0  0  0  0  0  0
  184.1660  178.0690  143.1670 O   0  0  0  0  0  0  0  0  0  0  0  0
  182.2860  179.1200  141.2120 C   0  0  0  0  0  0  0  0  0  0  0  0
  181.7610  178.9780  142.3480 O   0  0  0  0  0  0  0  0  0  0  0  0
  182.0600  179.9180  138.8240 C   0  0  2  0  0  3  0  0  0  0  0  0
  180.6970  179.1010  136.8780 N   0  0  0  0  0  2  0  0  0  0  0  0
  181.8930  177.3310  138.2990 C   0  0  2  0  0  3  0  0  0  0  0  0
  181.3080  181.4090  138.1170 S   0  0  0  0  0  0  0  0  0  0  0  0
  181.6820  178.7860  137.8990 C   0  0  2  0  0  0  0  0  0  0  0  0
  182.8660  178.0270  137.3470 C   0  0  0  0  0  2  0  0  0  0  0  0
  180.8680  180.5180  136.5900 C   0  0  0  0  0  2  0  0  0  0  0  0
  181.0050  176.4400  137.5480 N   0  0  2  0  0  0  0  0  0  0  0  0
  182.5930  174.5690  137.8750 C   0  0  0  0  0  2  0  0  0  0  0  0
  180.3570  174.3780  138.5510 C   0  0  0  0  0  2  0  0  0  0  0  0
  181.2750  174.0530  137.4740 N   0  0  1  0  0  0  0  0  0  0  0  0
  180.0460  175.8520  138.4690 C   0  0  0  0  0  2  0  0  0  0  0  0
  181.7640  175.3380  136.9310 C   0  0  1  0  0  3  0  0  0  0  0  0
  190.0120  176.9810  146.7720 C   0  0  0  0  0  3  0  0  0  0  0  0
  188.7750  177.3070  147.3500 C   0  0  0  0  0  0  0  0  0  0  0  0
  187.8650  177.6850  145.1330 C   0  0  0  0  0  3  0  0  0  0  0  0
  190.1700  177.0060  145.3840 C   0  0  0  0  0  3  0  0  0  0  0  0
  189.0930  177.3520  144.5510 C   0  0  0  0  0  0  0  0  0  0  0  0
  187.7060  177.6610  146.5220 C   0  0  0  0  0  3  0  0  0  0  0  0
  188.5840  177.2890  148.7330 O   0  0  0  0  0  0  0  0  0  0  0  0
  187.6960  178.1780  149.3970 C   0  0  0  0  0  1  0  0  0  0  0  0
  1 40  1  0  0  0  0
  2  6  2  0  0  0  0
  2  9  1  0  0  0  0
  3 14  1  0  0  0  0
  4 17  1  1  0  0  0
  4 15  1  0  0  0  0
  5  8  1  0  0  0  0
  5 16  1  0  0  0  0
  6 10  1  0  0  0  0
  7  2  1  0  0  0  0
  8 12  2  0  0  0  0
  9  5  2  0  0  0  0
 10  8  1  0  0  0  0
 11  4  1  0  0  0  0
 12 11  1  0  0  0  0
 12  3  1  0  0  0  0
 13  3  1  0  0  0  0
 14 15  1  0  0  0  0
 14  1  2  0  0  0  0
 16 13  2  0  0  0  0
 17 20  2  0  0  0  0
 18 21  1  0  0  0  0
 19 21  1  0  0  0  0
 19 17  1  0  0  0  0
 21 22  2  0  0  0  0
 23 18  1  1  0  0  0
 24 27  1  0  0  0  0
 25 28  1  6  0  0  0
 26 23  1  0  0  0  0
 27 28  1  6  0  0  0
 27 25  1  0  0  0  0
 27 23  1  0  0  0  0
 29 24  1  0  0  0  0
 29 26  1  0  0  0  0
 30 25  1  0  0  0  0
 30 34  1  1  0  0  0
 33 31  1  1  0  0  0
 33 32  1  0  0  0  0
 34 32  1  0  0  0  0
 35 33  1  0  0  0  0
 35 30  1  0  0  0  0
 35 31  1  1  0  0  0
 36 37  1  0  0  0  0
 37 42  1  0  0  0  0
 38 41  1  0  0  0  0
 39 36  2  0  0  0  0
 40 38  2  0  0  0  0
 40 39  1  0  0  0  0
 41 37  2  0  0  0  0
 42 43  1  0  0  0  0
M  END
>  <MODEL>
7

>  <REMARK>
 VINA RESULT:      -7.9      3.313      7.585
  Name = 
  5 active torsions:
  status: ('A' for Active; 'I' for Inactive)
    1  A    between atoms: N_1  and  C_35
    2  A    between atoms: C_2  and  C_13
    3  A    between atoms: N_3  and  C_4
    4  A    between atoms: N_11  and  C_14
    5  A    between atoms: C_19  and  O_25
                            x       y       z     vdW  Elec       q    Type
                         _______ _______ _______ _____ _____    ______ ____

>  <TORSDO>
F 5

$$$$
=
 OpenBabel10272414163D

 43 50  0  0  1  0  0  0  0  0999 V2000
  188.4730  177.6500  146.8870 N   0  0  0  0  0  0  0  0  0  0  0  0
  182.3220  179.0400  143.0560 C   0  0  0  0  0  0  0  0  0  0  0  0
  186.7090  177.8940  145.3160 N   0  0  0  0  0  0  0  0  0  0  0  0
  188.5970  177.5050  143.2230 C   0  0  1  0  0  3  0  0  0  0  0  0
  184.1000  178.7030  144.7010 C   0  0  0  0  0  0  0  0  0  0  0  0
  183.0540  178.5630  142.0450 C   0  0  0  0  0  3  0  0  0  0  0  0
  180.9400  179.5220  142.7930 C   0  0  0  0  0  1  0  0  0  0  0  0
  184.9820  178.1730  143.6330 C   0  0  0  0  0  0  0  0  0  0  0  0
  182.8610  179.1050  144.4230 C   0  0  0  0  0  3  0  0  0  0  0  0
  184.4580  178.0490  142.2200 C   0  0  0  0  0  2  0  0  0  0  0  0
  187.1400  177.2200  142.8910 C   0  0  0  0  0  2  0  0  0  0  0  0
  186.2380  177.7990  143.9470 C   0  0  0  0  0  0  0  0  0  0  0  0
  185.8420  178.4020  146.3500 C   0  0  0  0  0  3  0  0  0  0  0  0
  188.0630  177.5260  145.6520 C   0  0  0  0  0  0  0  0  0  0  0  0
  188.9420  176.9270  144.5870 C   0  0  0  0  0  2  0  0  0  0  0  0
  184.5990  178.7910  146.0750 C   0  0  0  0  0  3  0  0  0  0  0  0
  189.4910  176.9400  142.1710 C   0  0  0  0  0  0  0  0  0  0  0  0
  189.8520  177.4390  138.3950 N   0  0  0  0  0  2  0  0  0  0  0  0
  189.3320  177.3820  140.8180 N   0  0  0  0  0  2  0  0  0  0  0  0
  190.3600  176.0780  142.4720 O   0  0  0  0  0  0  0  0  0  0  0  0
  190.1340  176.9570  139.7090 C   0  0  0  0  0  0  0  0  0  0  0  0
  191.0970  176.1630  139.8770 O   0  0  0  0  0  0  0  0  0  0  0  0
  188.7290  178.3230  138.1110 C   0  0  2  0  0  3  0  0  0  0  0  0
  186.4570  177.2590  138.0040 N   0  0  0  0  0  2  0  0  0  0  0  0
  188.0610  176.8020  136.0540 C   0  0  2  0  0  3  0  0  0  0  0  0
  187.9180  178.7870  139.6660 S   0  0  0  0  0  0  0  0  0  0  0  0
  187.6860  177.5890  137.3030 C   0  0  2  0  0  0  0  0  0  0  0  0
  187.4340  178.1910  135.9410 C   0  0  0  0  0  2  0  0  0  0  0  0
  186.2890  178.2920  139.0160 C   0  0  0  0  0  2  0  0  0  0  0  0
  187.0620  175.7730  135.7560 N   0  0  2  0  0  0  0  0  0  0  0  0
  188.7060  174.5740  134.3460 C   0  0  0  0  0  2  0  0  0  0  0  0
  187.6380  173.4920  136.1310 C   0  0  0  0  0  2  0  0  0  0  0  0
  187.5870  173.6830  134.6910 N   0  0  1  0  0  0  0  0  0  0  0  0
  187.1240  174.7490  136.7860 C   0  0  0  0  0  2  0  0  0  0  0  0
  187.3440  175.1230  134.4640 C   0  0  1  0  0  3  0  0  0  0  0  0
  191.8420  176.0960  147.5470 C   0  0  0  0  0  3  0  0  0  0  0  0
  192.2840  176.8860  148.6200 C   0  0  0  0  0  0  0  0  0  0  0  0
  190.2110  178.1410  148.5220 C   0  0  0  0  0  3  0  0  0  0  0  0
  190.5920  176.3300  146.9700 C   0  0  0  0  0  3  0  0  0  0  0  0
  189.7600  177.3520  147.4590 C   0  0  0  0  0  0  0  0  0  0  0  0
  191.4620  177.9090  149.1010 C   0  0  0  0  0  3  0  0  0  0  0  0
  193.5270  176.6760  149.2220 O   0  0  0  0  0  0  0  0  0  0  0  0
  193.8990  177.2880  150.4490 C   0  0  0  0  0  1  0  0  0  0  0  0
  1 40  1  0  0  0  0
  2  9  1  0  0  0  0
  3 14  1  0  0  0  0
  3 13  1  0  0  0  0
  4 17  1  6  0  0  0
  4 15  1  0  0  0  0
  5 16  1  0  0  0  0
  6 10  1  0  0  0  0
  6  2  2  0  0  0  0
  7  2  1  0  0  0  0
  8 12  2  0  0  0  0
  8  5  1  0  0  0  0
  9  5  2  0  0  0  0
 10  8  1  0  0  0  0
 11  4  1  0  0  0  0
 11 12  1  0  0  0  0
 12  3  1  0  0  0  0
 14  1  2  0  0  0  0
 15 14  1  0  0  0  0
 16 13  2  0  0  0  0
 17 20  2  0  0  0  0
 18 21  1  0  0  0  0
 19 17  1  0  0  0  0
 21 22  2  0  0  0  0
 21 19  1  0  0  0  0
 23 18  1  1  0  0  0
 23 26  1  0  0  0  0
 24 29  1  0  0  0  0
 25 28  1  6  0  0  0
 25 27  1  0  0  0  0
 27 28  1  6  0  0  0
 27 24  1  0  0  0  0
 27 23  1  0  0  0  0
 29 26  1  0  0  0  0
 30 25  1  0  0  0  0
 30 34  1  1  0  0  0
 32 34  1  0  0  0  0
 33 31  1  6  0  0  0
 33 32  1  0  0  0  0
 35 31  1  1  0  0  0
 35 33  1  0  0  0  0
 35 30  1  0  0  0  0
 36 37  1  0  0  0  0
 37 41  2  0  0  0  0
 37 42  1  0  0  0  0
 38 41  1  0  0  0  0
 39 40  1  0  0  0  0
 39 36  2  0  0  0  0
 40 38  2  0  0  0  0
 42 43  1  0  0  0  0
M  END
>  <MODEL>
8

>  <REMARK>
 VINA RESULT:      -7.8      2.910      7.305
  Name = 
  5 active torsions:
  status: ('A' for Active; 'I' for Inactive)
    1  A    between atoms: N_1  and  C_35
    2  A    between atoms: C_2  and  C_13
    3  A    between atoms: N_3  and  C_4
    4  A    between atoms: N_11  and  C_14
    5  A    between atoms: C_19  and  O_25
                            x       y       z     vdW  Elec       q    Type
                         _______ _______ _______ _____ _____    ______ ____

>  <TORSDO>
F 5

$$$$
=
 OpenBabel10272414163D

 43 50  0  0  1  0  0  0  0  0999 V2000
  192.5540  176.2600  139.2730 N   0  0  0  0  0  0  0  0  0  0  0  0
  187.7220  177.8060  144.6310 C   0  0  0  0  0  0  0  0  0  0  0  0
  190.7000  176.7770  140.6630 N   0  0  0  0  0  0  0  0  0  0  0  0
  189.3360  177.7740  138.3740 C   0  0  1  0  0  3  0  0  0  0  0  0
  189.6120  177.1800  143.2120 C   0  0  0  0  0  0  0  0  0  0  0  0
  186.9010  177.9970  143.5940 C   0  0  0  0  0  3  0  0  0  0  0  0
  187.2210  178.0390  146.0110 C   0  0  0  0  0  1  0  0  0  0  0  0
  188.7710  177.3820  142.0080 C   0  0  0  0  0  0  0  0  0  0  0  0
  189.1150  177.3800  144.4310 C   0  0  0  0  0  3  0  0  0  0  0  0
  187.3200  177.7810  142.1640 C   0  0  0  0  0  2  0  0  0  0  0  0
  188.4720  177.3520  139.5530 C   0  0  0  0  0  2  0  0  0  0  0  0
  189.3150  177.1930  140.7890 C   0  0  0  0  0  0  0  0  0  0  0  0
  191.5080  176.5740  141.8390 C   0  0  0  0  0  3  0  0  0  0  0  0
  191.2970  176.6060  139.3600 C   0  0  0  0  0  0  0  0  0  0  0  0
  190.4310  176.7460  138.1370 C   0  0  0  0  0  2  0  0  0  0  0  0
  191.0070  176.7600  143.0580 C   0  0  0  0  0  3  0  0  0  0  0  0
  188.4990  177.9430  137.1490 C   0  0  0  0  0  0  0  0  0  0  0  0
  184.8840  177.0990  136.2250 N   0  0  0  0  0  2  0  0  0  0  0  0
  187.1390  177.4970  137.1750 N   0  0  0  0  0  2  0  0  0  0  0  0
  188.9930  178.4560  136.1090 O   0  0  0  0  0  0  0  0  0  0  0  0
  186.2070  177.6200  136.0930 C   0  0  0  0  0  0  0  0  0  0  0  0
  186.5370  178.1920  135.0210 O   0  0  0  0  0  0  0  0  0  0  0  0
  184.4400  176.3850  137.4140 C   0  0  2  0  0  3  0  0  0  0  0  0
  181.9670  176.0150  137.6490 N   0  0  0  0  0  2  0  0  0  0  0  0
  182.8380  178.4010  138.0170 C   0  0  2  0  0  3  0  0  0  0  0  0
  184.1860  174.6360  137.0090 S   0  0  0  0  0  0  0  0  0  0  0  0
  183.0950  176.9080  137.8570 C   0  0  2  0  0  0  0  0  0  0  0  0
  183.1020  177.5200  139.2370 C   0  0  0  0  0  2  0  0  0  0  0  0
  182.5110  174.6670  137.7260 C   0  0  0  0  0  2  0  0  0  0  0  0
  181.4090  178.7060  137.9170 N   0  0  2  0  0  0  0  0  0  0  0  0
  181.8690  181.0750  138.4720 C   0  0  0  0  0  2  0  0  0  0  0  0
  180.7300  180.5010  136.5040 C   0  0  0  0  0  2  0  0  0  0  0  0
  180.5310  180.9430  137.8740 N   0  0  1  0  0  0  0  0  0  0  0  0
  181.0980  179.0390  136.5360 C   0  0  0  0  0  2  0  0  0  0  0  0
  181.0610  179.8740  138.7450 C   0  0  1  0  0  3  0  0  0  0  0  0
  194.1680  176.6340  135.8890 C   0  0  0  0  0  3  0  0  0  0  0  0
  195.0190  175.5170  135.8840 C   0  0  0  0  0  0  0  0  0  0  0  0
  194.2180  174.9250  138.0960 C   0  0  0  0  0  3  0  0  0  0  0  0
  193.3490  176.8890  136.9910 C   0  0  0  0  0  3  0  0  0  0  0  0
  193.3610  176.0310  138.1030 C   0  0  0  0  0  0  0  0  0  0  0  0
  195.0390  174.6680  136.9940 C   0  0  0  0  0  3  0  0  0  0  0  0
  195.8490  175.2310  134.7970 O   0  0  0  0  0  0  0  0  0  0  0  0
  197.2670  175.2420  134.8910 C   0  0  0  0  0  1  0  0  0  0  0  0
  1 14  2  0  0  0  0
  2  7  1  0  0  0  0
  3 12  1  0  0  0  0
  3 13  1  0  0  0  0
  4 17  1  6  0  0  0
  4 11  1  0  0  0  0
  5  9  2  0  0  0  0
  6  2  2  0  0  0  0
  8 10  1  0  0  0  0
  8  5  1  0  0  0  0
  9  2  1  0  0  0  0
 10  6  1  0  0  0  0
 11 12  1  0  0  0  0
 12  8  2  0  0  0  0
 13 16  2  0  0  0  0
 14  3  1  0  0  0  0
 15  4  1  0  0  0  0
 15 14  1  0  0  0  0
 16  5  1  0  0  0  0
 17 19  1  0  0  0  0
 20 17  2  0  0  0  0
 21 18  1  0  0  0  0
 21 19  1  0  0  0  0
 22 21  2  0  0  0  0
 23 18  1  6  0  0  0
 23 27  1  0  0  0  0
 24 29  1  0  0  0  0
 24 27  1  0  0  0  0
 25 28  1  1  0  0  0
 26 23  1  0  0  0  0
 26 29  1  0  0  0  0
 27 25  1  0  0  0  0
 27 28  1  1  0  0  0
 30 34  1  6  0  0  0
 30 25  1  0  0  0  0
 30 35  1  0  0  0  0
 32 34  1  0  0  0  0
 33 32  1  6  0  0  0
 33 31  1  0  0  0  0
 33 35  1  0  0  0  0
 35 31  1  6  0  0  0
 36 39  1  0  0  0  0
 37 36  2  0  0  0  0
 37 41  1  0  0  0  0
 38 40  1  0  0  0  0
 39 40  2  0  0  0  0
 40  1  1  0  0  0  0
 41 38  2  0  0  0  0
 42 43  1  0  0  0  0
 42 37  1  0  0  0  0
M  END
>  <MODEL>
9

>  <REMARK>
 VINA RESULT:      -7.8      3.545      7.401
  Name = 
  5 active torsions:
  status: ('A' for Active; 'I' for Inactive)
    1  A    between atoms: N_1  and  C_35
    2  A    between atoms: C_2  and  C_13
    3  A    between atoms: N_3  and  C_4
    4  A    between atoms: N_11  and  C_14
    5  A    between atoms: C_19  and  O_25
                            x       y       z     vdW  Elec       q    Type
                         _______ _______ _______ _____ _____    ______ ____

>  <TORSDO>
F 5

$$$$
