=
 OpenBabel10272401143D

 27 31  0  0  1  0  0  0  0  0999 V2000
  189.6000  177.4260  142.6840 N   0  0  0  0  0  0  0  0  0  0  0  0
  187.6130  177.7290  144.1400 C   0  0  0  0  0  0  0  0  0  0  0  0
  186.9080  178.5650  141.9390 N   0  0  0  0  0  0  0  0  0  0  0  0
  186.9890  177.3720  145.4540 C   0  0  0  0  0  3  0  0  0  0  0  0
  189.0270  178.0820  139.3760 C   0  0  0  0  0  0  0  0  0  0  0  0
  189.0880  177.9420  143.9480 C   0  0  1  0  0  3  0  0  0  0  0  0
  185.3800  178.0580  143.8600 N   0  0  0  0  0  0  0  0  0  0  0  0
  189.1170  177.6800  141.5080 C   0  0  0  0  0  0  0  0  0  0  0  0
  186.6830  178.1340  143.2910 C   0  0  0  0  0  0  0  0  0  0  0  0
  187.9320  178.5870  139.8990 O   0  0  0  0  0  0  0  0  0  0  0  0
  185.4900  177.5510  145.2190 C   0  0  0  0  0  3  0  0  0  0  0  0
  189.8200  177.4730  140.3380 C   0  0  0  0  0  3  0  0  0  0  0  0
  187.9410  178.3360  141.1840 C   0  0  0  0  0  0  0  0  0  0  0  0
  183.0690  178.8960  144.0070 C   0  0  0  0  0  3  0  0  0  0  0  0
  181.7010  179.0560  142.0570 N   0  0  0  0  0  0  0  0  0  0  0  0
  182.7080  178.5720  141.2800 C   0  0  0  0  0  3  0  0  0  0  0  0
  183.9340  178.2350  141.8560 C   0  0  0  0  0  3  0  0  0  0  0  0
  184.1270  178.3950  143.2350 C   0  0  0  0  0  0  0  0  0  0  0  0
  181.8560  179.2230  143.3970 C   0  0  0  0  0  3  0  0  0  0  0  0
  191.4940  176.4410  147.1810 C   0  0  0  0  0  3  0  0  0  0  0  0
  189.9130  177.4170  145.0850 C   0  0  0  0  0  0  0  0  0  0  0  0
  191.0650  176.6720  144.8080 C   0  0  0  0  0  3  0  0  0  0  0  0
  191.8540  176.1840  145.8540 C   0  0  0  0  0  3  0  0  0  0  0  0
  190.3460  177.1870  147.4630 C   0  0  0  0  0  3  0  0  0  0  0  0
  189.5560  177.6760  146.4170 C   0  0  0  0  0  3  0  0  0  0  0  0
  188.9340  179.4170  137.3810 N   0  0  0  0  0  1  0  0  0  0  0  0
  189.3490  178.1370  137.9240 C   0  0  0  0  0  2  0  0  0  0  0  0
  1  6  1  0  0  0  0
  2  4  1  0  0  0  0
  3  9  1  0  0  0  0
  5 10  1  0  0  0  0
  5 12  2  0  0  0  0
  6  2  1  0  0  0  0
  6 21  1  1  0  0  0
  7 11  1  0  0  0  0
  8  1  2  0  0  0  0
  9  7  1  0  0  0  0
  9  2  2  0  0  0  0
 10 13  1  0  0  0  0
 11  4  2  0  0  0  0
 12  8  1  0  0  0  0
 13  8  1  0  0  0  0
 13  3  2  0  0  0  0
 15 19  2  0  0  0  0
 16 17  2  0  0  0  0
 16 15  1  0  0  0  0
 17 18  1  0  0  0  0
 18  7  1  0  0  0  0
 18 14  2  0  0  0  0
 19 14  1  0  0  0  0
 20 24  1  0  0  0  0
 21 25  1  0  0  0  0
 22 21  2  0  0  0  0
 22 23  1  0  0  0  0
 23 20  2  0  0  0  0
 25 24  2  0  0  0  0
 26 27  1  0  0  0  0
 27  5  1  0  0  0  0
M  END
>  <MODEL>
1

>  <REMARK>
 VINA RESULT:     -10.2      0.000      0.000
  Name = 
  3 active torsions:
  status: ('A' for Active; 'I' for Inactive)
    1  A    between atoms: C_9  and  C_15
    2  A    between atoms: C_13  and  C_22
    3  A    between atoms: C_14  and  N_17
                            x       y       z     vdW  Elec       q    Type
                         _______ _______ _______ _____ _____    ______ ____

>  <TORSDO>
F 3

$$$$
=
 OpenBabel10272401143D

 27 31  0  0  1  0  0  0  0  0999 V2000
  189.6400  177.3800  141.5540 N   0  0  0  0  0  0  0  0  0  0  0  0
  187.8580  177.5970  143.2680 C   0  0  0  0  0  0  0  0  0  0  0  0
  186.8950  178.5890  141.2370 N   0  0  0  0  0  0  0  0  0  0  0  0
  187.3980  177.1530  144.6240 C   0  0  0  0  0  3  0  0  0  0  0  0
  188.6650  178.2680  138.3980 C   0  0  0  0  0  0  0  0  0  0  0  0
  189.3000  177.8100  142.9060 C   0  0  1  0  0  3  0  0  0  0  0  0
  185.6130  177.9620  143.2980 N   0  0  0  0  0  0  0  0  0  0  0  0
  189.0160  177.7180  140.4690 C   0  0  0  0  0  0  0  0  0  0  0  0
  186.8350  178.0660  142.5730 C   0  0  0  0  0  0  0  0  0  0  0  0
  187.6530  178.7450  139.0890 O   0  0  0  0  0  0  0  0  0  0  0  0
  185.8850  177.3610  144.5940 C   0  0  0  0  0  3  0  0  0  0  0  0
  189.5620  177.5880  139.2080 C   0  0  0  0  0  3  0  0  0  0  0  0
  187.8200  178.4050  140.3420 C   0  0  0  0  0  0  0  0  0  0  0  0
  183.3730  178.8630  143.7840 C   0  0  0  0  0  3  0  0  0  0  0  0
  181.7530  179.1140  142.0480 N   0  0  0  0  0  0  0  0  0  0  0  0
  182.6260  178.6210  141.1280 C   0  0  0  0  0  3  0  0  0  0  0  0
  183.9090  178.2330  141.5190 C   0  0  0  0  0  3  0  0  0  0  0  0
  184.2960  178.3510  142.8610 C   0  0  0  0  0  0  0  0  0  0  0  0
  182.0990  179.2420  143.3560 C   0  0  0  0  0  3  0  0  0  0  0  0
  192.0040  176.0780  145.7670 C   0  0  0  0  0  3  0  0  0  0  0  0
  190.2530  177.2010  143.8900 C   0  0  0  0  0  0  0  0  0  0  0  0
  190.3950  177.7830  145.1560 C   0  0  0  0  0  3  0  0  0  0  0  0
  191.2690  177.2230  146.0920 C   0  0  0  0  0  3  0  0  0  0  0  0
  191.8630  175.4920  144.5050 C   0  0  0  0  0  3  0  0  0  0  0  0
  190.9880  176.0510  143.5680 C   0  0  0  0  0  3  0  0  0  0  0  0
  187.4850  178.4920  136.3170 N   0  0  0  0  0  1  0  0  0  0  0  0
  188.8010  178.4220  136.9250 C   0  0  0  0  0  2  0  0  0  0  0  0
  1  6  1  0  0  0  0
  2  4  1  0  0  0  0
  3  9  1  0  0  0  0
  5 10  1  0  0  0  0
  5 12  2  0  0  0  0
  6  2  1  0  0  0  0
  6 21  1  1  0  0  0
  7 11  1  0  0  0  0
  8  1  2  0  0  0  0
  9  2  2  0  0  0  0
  9  7  1  0  0  0  0
 10 13  1  0  0  0  0
 11  4  2  0  0  0  0
 12  8  1  0  0  0  0
 13  8  1  0  0  0  0
 13  3  2  0  0  0  0
 15 19  2  0  0  0  0
 16 17  2  0  0  0  0
 16 15  1  0  0  0  0
 17 18  1  0  0  0  0
 18  7  1  0  0  0  0
 18 14  2  0  0  0  0
 19 14  1  0  0  0  0
 20 23  1  0  0  0  0
 21 22  1  0  0  0  0
 22 23  2  0  0  0  0
 24 20  2  0  0  0  0
 25 21  2  0  0  0  0
 25 24  1  0  0  0  0
 26 27  1  0  0  0  0
 27  5  1  0  0  0  0
M  END
>  <MODEL>
2

>  <REMARK>
 VINA RESULT:      -9.6      0.947      1.377
  Name = 
  3 active torsions:
  status: ('A' for Active; 'I' for Inactive)
    1  A    between atoms: C_9  and  C_15
    2  A    between atoms: C_13  and  C_22
    3  A    between atoms: C_14  and  N_17
                            x       y       z     vdW  Elec       q    Type
                         _______ _______ _______ _____ _____    ______ ____

>  <TORSDO>
F 3

$$$$
=
 OpenBabel10272401143D

 27 31  0  0  1  0  0  0  0  0999 V2000
  185.5500  178.4490  145.0500 N   0  0  0  0  0  0  0  0  0  0  0  0
  187.5260  178.0530  143.6010 C   0  0  0  0  0  0  0  0  0  0  0  0
  185.6130  178.0710  142.0580 N   0  0  0  0  0  0  0  0  0  0  0  0
  189.0220  178.0870  143.5300 C   0  0  0  0  0  3  0  0  0  0  0  0
  182.6330  178.9550  143.3350 C   0  0  0  0  0  0  0  0  0  0  0  0
  186.7590  177.6620  144.8320 C   0  0  1  0  0  3  0  0  0  0  0  0
  188.0250  178.2110  141.3880 N   0  0  0  0  0  0  0  0  0  0  0  0
  184.6120  178.6570  144.1790 C   0  0  0  0  0  0  0  0  0  0  0  0
  187.0120  178.0950  142.3830 C   0  0  0  0  0  0  0  0  0  0  0  0
  183.3930  178.5070  142.3600 O   0  0  0  0  0  0  0  0  0  0  0  0
  189.3240  178.2470  142.0410 C   0  0  0  0  0  3  0  0  0  0  0  0
  183.3460  179.0930  144.5170 C   0  0  0  0  0  3  0  0  0  0  0  0
  184.6040  178.3430  142.8300 C   0  0  0  0  0  0  0  0  0  0  0  0
  188.9580  178.5010  139.1270 C   0  0  0  0  0  3  0  0  0  0  0  0
  187.5390  178.4790  137.2070 N   0  0  0  0  0  0  0  0  0  0  0  0
  186.4420  178.2860  137.9890 C   0  0  0  0  0  3  0  0  0  0  0  0
  186.5790  178.1950  139.3750 C   0  0  0  0  0  3  0  0  0  0  0  0
  187.8480  178.3030  139.9610 C   0  0  0  0  0  0  0  0  0  0  0  0
  188.7830  178.5870  137.7440 C   0  0  0  0  0  3  0  0  0  0  0  0
  189.1230  177.6610  148.4240 C   0  0  0  0  0  3  0  0  0  0  0  0
  187.5970  177.6620  146.0750 C   0  0  0  0  0  0  0  0  0  0  0  0
  187.1200  178.3050  147.2240 C   0  0  0  0  0  3  0  0  0  0  0  0
  187.8820  178.3050  148.3960 C   0  0  0  0  0  3  0  0  0  0  0  0
  189.6030  177.0160  147.2810 C   0  0  0  0  0  3  0  0  0  0  0  0
  188.8410  177.0140  146.1070 C   0  0  0  0  0  3  0  0  0  0  0  0
  180.3840  178.4020  143.9710 N   0  0  0  0  0  1  0  0  0  0  0  0
  181.1950  179.2980  143.1680 C   0  0  0  0  0  2  0  0  0  0  0  0
  2  6  1  0  0  0  0
  3  9  1  0  0  0  0
  3 13  2  0  0  0  0
  4  2  1  0  0  0  0
  5 12  2  0  0  0  0
  6  1  1  0  0  0  0
  6 21  1  1  0  0  0
  7 11  1  0  0  0  0
  7  9  1  0  0  0  0
  8 12  1  0  0  0  0
  8  1  2  0  0  0  0
  9  2  2  0  0  0  0
 10 13  1  0  0  0  0
 10  5  1  0  0  0  0
 11  4  2  0  0  0  0
 13  8  1  0  0  0  0
 14 18  1  0  0  0  0
 15 19  1  0  0  0  0
 15 16  2  0  0  0  0
 16 17  1  0  0  0  0
 17 18  2  0  0  0  0
 18  7  1  0  0  0  0
 19 14  2  0  0  0  0
 21 25  2  0  0  0  0
 21 22  1  0  0  0  0
 22 23  2  0  0  0  0
 23 20  1  0  0  0  0
 24 20  2  0  0  0  0
 25 24  1  0  0  0  0
 27  5  1  0  0  0  0
 27 26  1  0  0  0  0
M  END
>  <MODEL>
3

>  <REMARK>
 VINA RESULT:      -9.5      1.752      5.469
  Name = 
  3 active torsions:
  status: ('A' for Active; 'I' for Inactive)
    1  A    between atoms: C_9  and  C_15
    2  A    between atoms: C_13  and  C_22
    3  A    between atoms: C_14  and  N_17
                            x       y       z     vdW  Elec       q    Type
                         _______ _______ _______ _____ _____    ______ ____

>  <TORSDO>
F 3

$$$$
=
 OpenBabel10272401143D

 27 31  0  0  1  0  0  0  0  0999 V2000
  190.9370  177.0280  142.9930 N   0  0  0  0  0  0  0  0  0  0  0  0
  188.7380  177.5610  141.9730 C   0  0  0  0  0  0  0  0  0  0  0  0
  188.2550  177.2210  144.3590 N   0  0  0  0  0  0  0  0  0  0  0  0
  188.0470  178.0960  140.7560 C   0  0  0  0  0  3  0  0  0  0  0  0
  190.8910  176.8430  146.4080 C   0  0  0  0  0  0  0  0  0  0  0  0
  189.9900  176.7320  141.9240 C   0  0  1  0  0  3  0  0  0  0  0  0
  186.6960  178.2590  142.6920 N   0  0  0  0  0  0  0  0  0  0  0  0
  190.6660  177.0660  144.2600 C   0  0  0  0  0  0  0  0  0  0  0  0
  187.9380  177.6450  143.0230 C   0  0  0  0  0  0  0  0  0  0  0  0
  189.5990  176.8460  146.1650 O   0  0  0  0  0  0  0  0  0  0  0  0
  186.7040  178.6030  141.2790 C   0  0  0  0  0  3  0  0  0  0  0  0
  191.6310  176.9980  145.2450 C   0  0  0  0  0  3  0  0  0  0  0  0
  189.4280  177.0080  144.8780 C   0  0  0  0  0  0  0  0  0  0  0  0
  184.3200  178.8030  143.0420 C   0  0  0  0  0  3  0  0  0  0  0  0
  183.4390  179.0680  145.2460 N   0  0  0  0  0  0  0  0  0  0  0  0
  184.6580  178.8110  145.7910 C   0  0  0  0  0  3  0  0  0  0  0  0
  185.7510  178.5410  144.9650 C   0  0  0  0  0  3  0  0  0  0  0  0
  185.5900  178.5350  143.5730 C   0  0  0  0  0  0  0  0  0  0  0  0
  183.2500  179.0690  143.9000 C   0  0  0  0  0  3  0  0  0  0  0  0
  192.0240  176.8880  138.1390 C   0  0  0  0  0  3  0  0  0  0  0  0
  190.6840  176.7890  140.5960 C   0  0  0  0  0  0  0  0  0  0  0  0
  191.9860  177.2990  140.5260 C   0  0  0  0  0  3  0  0  0  0  0  0
  192.6540  177.3500  139.2990 C   0  0  0  0  0  3  0  0  0  0  0  0
  190.7260  176.3750  138.2050 C   0  0  0  0  0  3  0  0  0  0  0  0
  190.0560  176.3240  139.4320 C   0  0  0  0  0  3  0  0  0  0  0  0
  192.6350  175.8510  147.7300 N   0  0  0  0  0  1  0  0  0  0  0  0
  191.4730  176.7190  147.7720 C   0  0  0  0  0  2  0  0  0  0  0  0
  1  8  2  0  0  0  0
  2  9  2  0  0  0  0
  3 13  2  0  0  0  0
  4 11  2  0  0  0  0
  4  2  1  0  0  0  0
  5 27  1  0  0  0  0
  6 21  1  6  0  0  0
  6  2  1  0  0  0  0
  6  1  1  0  0  0  0
  7  9  1  0  0  0  0
  7 18  1  0  0  0  0
  8 13  1  0  0  0  0
  8 12  1  0  0  0  0
  9  3  1  0  0  0  0
 10  5  1  0  0  0  0
 11  7  1  0  0  0  0
 12  5  2  0  0  0  0
 13 10  1  0  0  0  0
 14 18  2  0  0  0  0
 14 19  1  0  0  0  0
 15 16  1  0  0  0  0
 17 16  2  0  0  0  0
 18 17  1  0  0  0  0
 19 15  2  0  0  0  0
 20 24  2  0  0  0  0
 20 23  1  0  0  0  0
 22 21  1  0  0  0  0
 23 22  2  0  0  0  0
 24 25  1  0  0  0  0
 25 21  2  0  0  0  0
 26 27  1  0  0  0  0
M  END
>  <MODEL>
4

>  <REMARK>
 VINA RESULT:      -9.3      2.291      5.530
  Name = 
  3 active torsions:
  status: ('A' for Active; 'I' for Inactive)
    1  A    between atoms: C_9  and  C_15
    2  A    between atoms: C_13  and  C_22
    3  A    between atoms: C_14  and  N_17
                            x       y       z     vdW  Elec       q    Type
                         _______ _______ _______ _____ _____    ______ ____

>  <TORSDO>
F 3

$$$$
=
 OpenBabel10272401143D

 27 31  0  0  1  0  0  0  0  0999 V2000
  188.4700  177.2950  145.8310 N   0  0  0  0  0  0  0  0  0  0  0  0
  188.2920  177.7970  143.4070 C   0  0  0  0  0  0  0  0  0  0  0  0
  190.6910  177.4300  143.7940 N   0  0  0  0  0  0  0  0  0  0  0  0
  187.3530  177.9310  142.2470 C   0  0  0  0  0  3  0  0  0  0  0  0
  191.5890  176.3140  146.8340 C   0  0  0  0  0  0  0  0  0  0  0  0
  187.9430  178.1960  144.8130 C   0  0  1  0  0  3  0  0  0  0  0  0
  189.5760  177.5160  141.5510 N   0  0  0  0  0  0  0  0  0  0  0  0
  189.7020  176.9080  145.9390 C   0  0  0  0  0  0  0  0  0  0  0  0
  189.5250  177.5950  142.9720 C   0  0  0  0  0  0  0  0  0  0  0  0
  191.8710  176.7650  145.6320 O   0  0  0  0  0  0  0  0  0  0  0  0
  188.2310  177.6860  141.0220 C   0  0  0  0  0  3  0  0  0  0  0  0
  190.2270  176.3580  147.0910 C   0  0  0  0  0  3  0  0  0  0  0  0
  190.7480  177.1070  145.0530 C   0  0  0  0  0  0  0  0  0  0  0  0
  190.5910  176.6820  139.4680 C   0  0  0  0  0  3  0  0  0  0  0  0
  192.9470  176.8360  139.1090 N   0  0  0  0  0  0  0  0  0  0  0  0
  193.1180  177.4260  140.3230 C   0  0  0  0  0  3  0  0  0  0  0  0
  192.0170  177.6610  141.1480 C   0  0  0  0  0  3  0  0  0  0  0  0
  190.7340  177.2870  140.7250 C   0  0  0  0  0  0  0  0  0  0  0  0
  191.7160  176.4630  138.6700 C   0  0  0  0  0  3  0  0  0  0  0  0
  183.7320  178.7880  145.4560 C   0  0  0  0  0  3  0  0  0  0  0  0
  186.4710  178.3970  145.0210 C   0  0  0  0  0  0  0  0  0  0  0  0
  185.9310  178.2200  146.3000 C   0  0  0  0  0  3  0  0  0  0  0  0
  184.5630  178.4140  146.5170 C   0  0  0  0  0  3  0  0  0  0  0  0
  184.2680  178.9680  144.1780 C   0  0  0  0  0  3  0  0  0  0  0  0
  185.6360  178.7750  143.9590 C   0  0  0  0  0  3  0  0  0  0  0  0
  192.7880  176.7310  148.8750 N   0  0  0  0  0  1  0  0  0  0  0  0
  192.6140  175.7940  147.7800 C   0  0  0  0  0  2  0  0  0  0  0  0
  1  8  2  0  0  0  0
  2  6  1  0  0  0  0
  3 13  2  0  0  0  0
  4  2  1  0  0  0  0
  5 12  2  0  0  0  0
  5 27  1  0  0  0  0
  6 21  1  6  0  0  0
  6  1  1  0  0  0  0
  7  9  1  0  0  0  0
  8 12  1  0  0  0  0
  9  2  2  0  0  0  0
  9  3  1  0  0  0  0
 10  5  1  0  0  0  0
 11  7  1  0  0  0  0
 11  4  2  0  0  0  0
 13 10  1  0  0  0  0
 13  8  1  0  0  0  0
 14 18  1  0  0  0  0
 15 16  2  0  0  0  0
 16 17  1  0  0  0  0
 18 17  2  0  0  0  0
 18  7  1  0  0  0  0
 19 15  1  0  0  0  0
 19 14  2  0  0  0  0
 20 23  1  0  0  0  0
 21 22  1  0  0  0  0
 22 23  2  0  0  0  0
 24 20  2  0  0  0  0
 25 24  1  0  0  0  0
 25 21  2  0  0  0  0
 27 26  1  0  0  0  0
M  END
>  <MODEL>
5

>  <REMARK>
 VINA RESULT:      -9.1      2.781      7.199
  Name = 
  3 active torsions:
  status: ('A' for Active; 'I' for Inactive)
    1  A    between atoms: C_9  and  C_15
    2  A    between atoms: C_13  and  C_22
    3  A    between atoms: C_14  and  N_17
                            x       y       z     vdW  Elec       q    Type
                         _______ _______ _______ _____ _____    ______ ____

>  <TORSDO>
F 3

$$$$
=
 OpenBabel10272401143D

 27 31  0  0  1  0  0  0  0  0999 V2000
  185.9730  178.5780  141.5550 N   0  0  0  0  0  0  0  0  0  0  0  0
  186.2850  178.0380  143.9570 C   0  0  0  0  0  0  0  0  0  0  0  0
  188.3970  177.3770  142.8890 N   0  0  0  0  0  0  0  0  0  0  0  0
  185.7450  178.2390  145.3400 C   0  0  0  0  0  3  0  0  0  0  0  0
  188.7940  178.2060  139.6560 C   0  0  0  0  0  0  0  0  0  0  0  0
  185.4210  177.9210  142.7340 C   0  0  1  0  0  3  0  0  0  0  0  0
  188.0290  177.6230  145.3560 N   0  0  0  0  0  0  0  0  0  0  0  0
  187.1680  178.4110  141.0810 C   0  0  0  0  0  0  0  0  0  0  0  0
  187.5540  177.6680  144.0140 C   0  0  0  0  0  0  0  0  0  0  0  0
  189.1800  177.5990  140.7560 O   0  0  0  0  0  0  0  0  0  0  0  0
  186.9480  178.0050  146.2510 C   0  0  0  0  0  3  0  0  0  0  0  0
  187.5310  178.7630  139.7960 C   0  0  0  0  0  3  0  0  0  0  0  0
  188.2310  177.7290  141.6480 C   0  0  0  0  0  0  0  0  0  0  0  0
  189.6410  177.2460  147.1790 C   0  0  0  0  0  3  0  0  0  0  0  0
  191.8980  176.6250  146.7070 N   0  0  0  0  0  0  0  0  0  0  0  0
  191.6510  176.6510  145.3690 C   0  0  0  0  0  3  0  0  0  0  0  0
  190.3780  176.9790  144.8990 C   0  0  0  0  0  3  0  0  0  0  0  0
  189.3550  177.2820  145.8070 C   0  0  0  0  0  0  0  0  0  0  0  0
  190.9270  176.9130  147.6130 C   0  0  0  0  0  3  0  0  0  0  0  0
  181.3620  179.2030  143.3480 C   0  0  0  0  0  3  0  0  0  0  0  0
  184.0110  178.3780  142.9610 C   0  0  0  0  0  0  0  0  0  0  0  0
  183.1210  178.4130  141.8810 C   0  0  0  0  0  3  0  0  0  0  0  0
  181.7990  178.8260  142.0740 C   0  0  0  0  0  3  0  0  0  0  0  0
  182.2470  179.1680  144.4300 C   0  0  0  0  0  3  0  0  0  0  0  0
  183.5700  178.7550  144.2380 C   0  0  0  0  0  3  0  0  0  0  0  0
  188.9820  179.1700  137.4630 N   0  0  0  0  0  1  0  0  0  0  0  0
  189.6310  178.3040  138.4300 C   0  0  0  0  0  2  0  0  0  0  0  0
  1  6  1  0  0  0  0
  2  9  2  0  0  0  0
  2  4  1  0  0  0  0
  3  9  1  0  0  0  0
  4 11  2  0  0  0  0
  5 12  2  0  0  0  0
  5 10  1  0  0  0  0
  6 21  1  1  0  0  0
  6  2  1  0  0  0  0
  7 18  1  0  0  0  0
  7 11  1  0  0  0  0
  8  1  2  0  0  0  0
  8 13  1  0  0  0  0
  9  7  1  0  0  0  0
 10 13  1  0  0  0  0
 12  8  1  0  0  0  0
 13  3  2  0  0  0  0
 14 19  1  0  0  0  0
 15 19  2  0  0  0  0
 16 15  1  0  0  0  0
 17 16  2  0  0  0  0
 17 18  1  0  0  0  0
 18 14  2  0  0  0  0
 20 24  1  0  0  0  0
 21 25  1  0  0  0  0
 22 23  1  0  0  0  0
 22 21  2  0  0  0  0
 23 20  2  0  0  0  0
 25 24  2  0  0  0  0
 26 27  1  0  0  0  0
 27  5  1  0  0  0  0
M  END
>  <MODEL>
6

>  <REMARK>
 VINA RESULT:      -9.0      1.386      6.187
  Name = 
  3 active torsions:
  status: ('A' for Active; 'I' for Inactive)
    1  A    between atoms: C_9  and  C_15
    2  A    between atoms: C_13  and  C_22
    3  A    between atoms: C_14  and  N_17
                            x       y       z     vdW  Elec       q    Type
                         _______ _______ _______ _____ _____    ______ ____

>  <TORSDO>
F 3

$$$$
=
 OpenBabel10272401143D

 27 31  0  0  1  0  0  0  0  0999 V2000
  190.0650  177.4730  143.3880 N   0  0  0  0  0  0  0  0  0  0  0  0
  188.1970  177.7820  141.7840 C   0  0  0  0  0  0  0  0  0  0  0  0
  187.1110  177.6130  143.9820 N   0  0  0  0  0  0  0  0  0  0  0  0
  187.8340  178.1700  140.3830 C   0  0  0  0  0  3  0  0  0  0  0  0
  189.1220  177.5690  146.6750 C   0  0  0  0  0  0  0  0  0  0  0  0
  189.4470  177.0310  142.1430 C   0  0  1  0  0  3  0  0  0  0  0  0
  186.0130  178.4100  141.8740 N   0  0  0  0  0  0  0  0  0  0  0  0
  189.4660  177.5990  144.5310 C   0  0  0  0  0  0  0  0  0  0  0  0
  187.1440  177.9040  142.5760 C   0  0  0  0  0  0  0  0  0  0  0  0
  187.9410  177.4730  146.1040 O   0  0  0  0  0  0  0  0  0  0  0  0
  186.3830  178.6360  140.4860 C   0  0  0  0  0  3  0  0  0  0  0  0
  190.1370  177.6720  145.7350 C   0  0  0  0  0  3  0  0  0  0  0  0
  188.1120  177.5170  144.8070 C   0  0  0  0  0  0  0  0  0  0  0  0
  183.5650  178.4780  141.6150 C   0  0  0  0  0  3  0  0  0  0  0  0
  182.1660  179.2180  143.4030 N   0  0  0  0  0  0  0  0  0  0  0  0
  183.2500  179.4330  144.1950 C   0  0  0  0  0  3  0  0  0  0  0  0
  184.5330  179.1730  143.7100 C   0  0  0  0  0  3  0  0  0  0  0  0
  184.7030  178.6900  142.4060 C   0  0  0  0  0  0  0  0  0  0  0  0
  182.2970  178.7490  142.1340 C   0  0  0  0  0  3  0  0  0  0  0  0
  192.4050  176.9920  139.0220 C   0  0  0  0  0  3  0  0  0  0  0  0
  190.4660  177.0200  141.0430 C   0  0  0  0  0  0  0  0  0  0  0  0
  191.7540  177.5060  141.2980 C   0  0  0  0  0  3  0  0  0  0  0  0
  192.7210  177.4940  140.2890 C   0  0  0  0  0  3  0  0  0  0  0  0
  191.1210  176.5030  138.7640 C   0  0  0  0  0  3  0  0  0  0  0  0
  190.1520  176.5150  139.7720 C   0  0  0  0  0  3  0  0  0  0  0  0
  188.0820  177.9550  148.8060 N   0  0  0  0  0  1  0  0  0  0  0  0
  189.3250  177.5950  148.1480 C   0  0  0  0  0  2  0  0  0  0  0  0
  1  8  2  0  0  0  0
  2  6  1  0  0  0  0
  2  9  2  0  0  0  0
  3 13  2  0  0  0  0
  4 11  2  0  0  0  0
  4  2  1  0  0  0  0
  5 27  1  0  0  0  0
  6 21  1  6  0  0  0
  6  1  1  0  0  0  0
  7 18  1  0  0  0  0
  7  9  1  0  0  0  0
  8 13  1  0  0  0  0
  8 12  1  0  0  0  0
  9  3  1  0  0  0  0
 10  5  1  0  0  0  0
 11  7  1  0  0  0  0
 12  5  2  0  0  0  0
 13 10  1  0  0  0  0
 14 19  2  0  0  0  0
 14 18  1  0  0  0  0
 15 16  2  0  0  0  0
 17 16  1  0  0  0  0
 18 17  2  0  0  0  0
 19 15  1  0  0  0  0
 20 23  1  0  0  0  0
 21 22  1  0  0  0  0
 23 22  2  0  0  0  0
 24 20  2  0  0  0  0
 24 25  1  0  0  0  0
 25 21  2  0  0  0  0
 27 26  1  0  0  0  0
M  END
>  <MODEL>
7

>  <REMARK>
 VINA RESULT:      -9.0      2.118      5.221
  Name = 
  3 active torsions:
  status: ('A' for Active; 'I' for Inactive)
    1  A    between atoms: C_9  and  C_15
    2  A    between atoms: C_13  and  C_22
    3  A    between atoms: C_14  and  N_17
                            x       y       z     vdW  Elec       q    Type
                         _______ _______ _______ _____ _____    ______ ____

>  <TORSDO>
F 3

$$$$
=
 OpenBabel10272401143D

 27 31  0  0  1  0  0  0  0  0999 V2000
  188.2430  177.6050  145.1490 N   0  0  0  0  0  0  0  0  0  0  0  0
  189.9990  177.1460  143.4570 C   0  0  0  0  0  0  0  0  0  0  0  0
  187.9210  177.3500  142.1610 N   0  0  0  0  0  0  0  0  0  0  0  0
  191.4750  177.0880  143.2040 C   0  0  0  0  0  3  0  0  0  0  0  0
  185.1830  178.3680  143.8240 C   0  0  0  0  0  0  0  0  0  0  0  0
  189.3600  176.7530  144.7580 C   0  0  1  0  0  3  0  0  0  0  0  0
  190.2380  177.3650  141.2050 N   0  0  0  0  0  0  0  0  0  0  0  0
  187.2240  177.9090  144.4080 C   0  0  0  0  0  0  0  0  0  0  0  0
  189.3470  177.2720  142.3130 C   0  0  0  0  0  0  0  0  0  0  0  0
  185.7880  177.9140  142.7480 O   0  0  0  0  0  0  0  0  0  0  0  0
  191.6060  177.2910  141.6960 C   0  0  0  0  0  3  0  0  0  0  0  0
  186.0400  178.4100  144.9130 C   0  0  0  0  0  3  0  0  0  0  0  0
  187.0320  177.6540  143.0610 C   0  0  0  0  0  0  0  0  0  0  0  0
  188.9910  178.5250  139.4260 C   0  0  0  0  0  3  0  0  0  0  0  0
  189.2250  177.8680  137.1420 N   0  0  0  0  0  0  0  0  0  0  0  0
  190.1080  176.8930  137.4870 C   0  0  0  0  0  3  0  0  0  0  0  0
  190.4580  176.7080  138.8260 C   0  0  0  0  0  3  0  0  0  0  0  0
  189.8980  177.5280  139.8150 C   0  0  0  0  0  0  0  0  0  0  0  0
  188.6650  178.6810  138.0770 C   0  0  0  0  0  3  0  0  0  0  0  0
  192.1340  176.4540  148.0310 C   0  0  0  0  0  3  0  0  0  0  0  0
  190.3400  176.6460  145.8880 C   0  0  0  0  0  0  0  0  0  0  0  0
  190.1190  177.3830  147.0580 C   0  0  0  0  0  3  0  0  0  0  0  0
  191.0150  177.2880  148.1270 C   0  0  0  0  0  3  0  0  0  0  0  0
  192.3580  175.7150  146.8660 C   0  0  0  0  0  3  0  0  0  0  0  0
  191.4620  175.8090  145.7950 C   0  0  0  0  0  3  0  0  0  0  0  0
  183.3830  179.1630  145.2020 N   0  0  0  0  0  1  0  0  0  0  0  0
  183.7620  178.8080  143.8460 C   0  0  0  0  0  2  0  0  0  0  0  0
  2  6  1  0  0  0  0
  3  9  1  0  0  0  0
  3 13  2  0  0  0  0
  4  2  1  0  0  0  0
  5 27  1  0  0  0  0
  5 12  2  0  0  0  0
  6  1  1  0  0  0  0
  6 21  1  1  0  0  0
  7 11  1  0  0  0  0
  7  9  1  0  0  0  0
  8 12  1  0  0  0  0
  8  1  2  0  0  0  0
  9  2  2  0  0  0  0
 10 13  1  0  0  0  0
 10  5  1  0  0  0  0
 11  4  2  0  0  0  0
 13  8  1  0  0  0  0
 14 18  1  0  0  0  0
 15 16  2  0  0  0  0
 15 19  1  0  0  0  0
 16 17  1  0  0  0  0
 17 18  2  0  0  0  0
 18  7  1  0  0  0  0
 19 14  2  0  0  0  0
 20 23  1  0  0  0  0
 21 22  1  0  0  0  0
 22 23  2  0  0  0  0
 24 20  2  0  0  0  0
 25 21  2  0  0  0  0
 25 24  1  0  0  0  0
 27 26  1  0  0  0  0
M  END
>  <MODEL>
8

>  <REMARK>
 VINA RESULT:      -9.0      1.658      5.474
  Name = 
  3 active torsions:
  status: ('A' for Active; 'I' for Inactive)
    1  A    between atoms: C_9  and  C_15
    2  A    between atoms: C_13  and  C_22
    3  A    between atoms: C_14  and  N_17
                            x       y       z     vdW  Elec       q    Type
                         _______ _______ _______ _____ _____    ______ ____

>  <TORSDO>
F 3

$$$$
=
 OpenBabel10272401143D

 27 31  0  0  1  0  0  0  0  0999 V2000
  189.2060  177.1960  143.2400 N   0  0  0  0  0  0  0  0  0  0  0  0
  186.8870  178.0080  143.5960 C   0  0  0  0  0  0  0  0  0  0  0  0
  187.2980  178.3230  141.1930 N   0  0  0  0  0  0  0  0  0  0  0  0
  185.7300  178.0380  144.5470 C   0  0  0  0  0  3  0  0  0  0  0  0
  190.1530  177.0520  139.9570 C   0  0  0  0  0  0  0  0  0  0  0  0
  188.3250  178.0490  144.0300 C   0  0  1  0  0  3  0  0  0  0  0  0
  185.0580  178.4310  142.3120 N   0  0  0  0  0  0  0  0  0  0  0  0
  189.2960  177.1870  141.9470 C   0  0  0  0  0  0  0  0  0  0  0  0
  186.4710  178.2600  142.3660 C   0  0  0  0  0  0  0  0  0  0  0  0
  189.0490  177.7560  139.8420 O   0  0  0  0  0  0  0  0  0  0  0  0
  184.5140  178.2710  143.6520 C   0  0  0  0  0  3  0  0  0  0  0  0
  190.3640  176.6400  141.2640 C   0  0  0  0  0  3  0  0  0  0  0  0
  188.4900  177.8320  141.0230 C   0  0  0  0  0  0  0  0  0  0  0  0
  184.8470  179.1630  139.9710 C   0  0  0  0  0  3  0  0  0  0  0  0
  182.7150  179.2210  138.8950 N   0  0  0  0  0  0  0  0  0  0  0  0
  182.1060  178.7710  140.0250 C   0  0  0  0  0  3  0  0  0  0  0  0
  182.8610  178.5030  141.1680 C   0  0  0  0  0  3  0  0  0  0  0  0
  184.2490  178.6990  141.1510 C   0  0  0  0  0  0  0  0  0  0  0  0
  184.0590  179.4210  138.8460 C   0  0  0  0  0  3  0  0  0  0  0  0
  188.8050  177.2120  148.2210 C   0  0  0  0  0  3  0  0  0  0  0  0
  188.5090  177.7610  145.4900 C   0  0  0  0  0  0  0  0  0  0  0  0
  187.4660  178.0430  146.3800 C   0  0  0  0  0  3  0  0  0  0  0  0
  187.6140  177.7700  147.7430 C   0  0  0  0  0  3  0  0  0  0  0  0
  189.8480  176.9260  147.3350 C   0  0  0  0  0  3  0  0  0  0  0  0
  189.7010  177.1990  145.9710 C   0  0  0  0  0  3  0  0  0  0  0  0
  190.8750  175.3210  138.4550 N   0  0  0  0  0  1  0  0  0  0  0  0
  191.0410  176.7180  138.8100 C   0  0  0  0  0  2  0  0  0  0  0  0
  1  6  1  0  0  0  0
  2  6  1  0  0  0  0
  2  4  1  0  0  0  0
  3  9  1  0  0  0  0
  5 12  2  0  0  0  0
  6 21  1  1  0  0  0
  7  9  1  0  0  0  0
  7 11  1  0  0  0  0
  8  1  2  0  0  0  0
  9  2  2  0  0  0  0
 10  5  1  0  0  0  0
 10 13  1  0  0  0  0
 11  4  2  0  0  0  0
 12  8  1  0  0  0  0
 13  3  2  0  0  0  0
 13  8  1  0  0  0  0
 14 18  1  0  0  0  0
 15 16  2  0  0  0  0
 16 17  1  0  0  0  0
 18 17  2  0  0  0  0
 18  7  1  0  0  0  0
 19 15  1  0  0  0  0
 19 14  2  0  0  0  0
 21 25  2  0  0  0  0
 21 22  1  0  0  0  0
 22 23  2  0  0  0  0
 23 20  1  0  0  0  0
 24 20  2  0  0  0  0
 25 24  1  0  0  0  0
 26 27  1  0  0  0  0
 27  5  1  0  0  0  0
M  END
>  <MODEL>
9

>  <REMARK>
 VINA RESULT:      -8.9      1.704      2.476
  Name = 
  3 active torsions:
  status: ('A' for Active; 'I' for Inactive)
    1  A    between atoms: C_9  and  C_15
    2  A    between atoms: C_13  and  C_22
    3  A    between atoms: C_14  and  N_17
                            x       y       z     vdW  Elec       q    Type
                         _______ _______ _______ _____ _____    ______ ____

>  <TORSDO>
F 3

$$$$
