=
 OpenBabel10272414453D

 37 42  0  0  1  0  0  0  0  0999 V2000
  186.4020  178.5720  137.8710 C   0  0  0  0  0  2  0  0  0  0  0  0
  185.2620  179.1540  142.5330 C   0  0  1  0  0  3  0  0  0  0  0  0
  187.2070  177.8950  136.7360 C   0  0  1  0  0  0  0  0  0  0  0  0
  188.1380  177.6050  141.1340 O   0  0  0  0  0  0  0  0  0  0  0  0
  182.8470  178.3100  142.2890 C   0  0  1  0  0  3  0  0  0  0  0  0
  186.1790  178.3510  141.6410 C   0  0  2  0  0  3  0  0  0  0  0  0
  188.7210  178.1170  136.7830 C   0  0  2  0  0  3  0  0  0  0  0  0
  183.9410  179.2220  141.7190 C   0  0  2  0  0  3  0  0  0  0  0  0
  187.5470  178.6050  141.7860 O   0  0  0  0  0  0  0  0  0  0  0  0
  182.5710  178.6050  143.7680 C   0  0  0  0  0  2  0  0  0  0  0  0
  187.4360  176.4260  137.0580 C   0  0  0  0  0  2  0  0  0  0  0  0
  184.3000  178.7920  140.2870 C   0  0  2  0  0  3  0  0  0  0  0  0
  183.8190  178.9870  144.5720 C   0  0  0  0  0  2  0  0  0  0  0  0
  188.8650  176.7560  137.4690 C   0  0  2  0  0  3  0  0  0  0  0  0
  188.0580  177.8680  139.7380 C   0  0  1  0  0  3  0  0  0  0  0  0
  185.1000  178.4920  143.9110 C   0  0  2  0  0  3  0  0  0  0  0  0
  185.8140  178.8030  140.2710 C   0  0  2  0  0  3  0  0  0  0  0  0
  181.6660  178.4570  141.5620 O   0  0  0  0  0  1  0  0  0  0  0  0
  188.9120  176.8010  139.0140 C   0  0  0  0  0  2  0  0  0  0  0  0
  189.2260  179.3530  137.5270 C   0  0  0  0  0  1  0  0  0  0  0  0
  186.5640  177.9350  139.2690 C   0  0  1  0  0  3  0  0  0  0  0  0
  185.4960  177.2360  135.3780 C   0  0  0  0  0  1  0  0  0  0  0  0
  186.6410  178.0440  135.4530 O   0  0  0  0  0  0  0  0  0  0  0  0
  186.2790  178.8300  144.8040 C   0  0  0  0  0  2  0  0  0  0  0  0
  186.8000  177.5700  145.4740 C   0  0  0  0  0  2  0  0  0  0  0  0
  189.0970  177.7630  144.7220 C   0  0  0  0  0  3  0  0  0  0  0  0
  188.6790  177.7850  147.1700 C   0  0  0  0  0  3  0  0  0  0  0  0
  189.8310  177.3300  147.6790 C   0  0  0  0  0  3  0  0  0  0  0  0
  191.6690  175.7010  147.6080 O   0  0  0  0  0  1  0  0  0  0  0  0
  191.2220  176.9250  145.6670 C   0  0  0  0  0  3  0  0  0  0  0  0
  190.9140  176.6530  146.9370 C   0  0  0  0  0  0  0  0  0  0  0  0
  188.2540  177.7040  145.7560 C   0  0  0  0  0  0  0  0  0  0  0  0
  190.5630  178.0000  144.8680 C   0  0  0  0  0  2  0  0  0  0  0  0
  183.6870  179.7210  139.2330 C   0  0  0  0  0  2  0  0  0  0  0  0
  181.6550  179.7890  137.7750 O   0  0  0  0  0  1  0  0  0  0  0  0
  182.6790  179.0490  138.3520 C   0  0  0  0  0  0  0  0  0  0  0  0
  182.7640  177.7490  138.1160 C   0  0  0  0  0  2  0  0  0  0  0  0
  1 21  1  0  0  0  0
  2 16  1  0  0  0  0
  3  7  1  0  0  0  0
  3 11  1  0  0  0  0
  3  1  1  0  0  0  0
  4  9  1  0  0  0  0
  5 10  1  0  0  0  0
  6  9  1  0  0  0  0
  6  2  1  0  0  0  0
  7 14  1  0  0  0  0
  7 20  1  0  0  0  0
  8  5  1  0  0  0  0
  8  2  1  0  0  0  0
 10 13  1  0  0  0  0
 11 14  1  0  0  0  0
 12  8  1  0  0  0  0
 14 19  1  0  0  0  0
 15  4  1  0  0  0  0
 16 13  1  0  0  0  0
 16 24  1  0  0  0  0
 17 12  1  0  0  0  0
 17  6  1  0  0  0  0
 18  5  1  0  0  0  0
 19 15  1  0  0  0  0
 21 15  1  0  0  0  0
 21 17  1  0  0  0  0
 22 23  1  0  0  0  0
 23  3  1  0  0  0  0
 24 25  1  0  0  0  0
 25 32  1  0  0  0  0
 26 33  1  0  0  0  0
 26 32  2  0  0  0  0
 27 28  2  0  0  0  0
 30 31  2  0  0  0  0
 31 29  1  0  0  0  0
 31 28  1  0  0  0  0
 32 27  1  0  0  0  0
 33 30  1  0  0  0  0
 34 12  1  0  0  0  0
 35 36  1  0  0  0  0
 36 34  1  0  0  0  0
 37 36  2  0  0  0  0
M  END
>  <MODEL>
1

>  <REMARK>
 VINA RESULT:      -9.5      0.000      0.000
  Name = 
  6 active torsions:
  status: ('A' for Active; 'I' for Inactive)
    1  A    between atoms: C_5  and  O_23
    2  A    between atoms: C_20  and  C_25
    3  A    between atoms: C_21  and  C_25
    4  A    between atoms: C_22  and  C_28
    5  A    between atoms: C_22  and  C_37
    6  A    between atoms: C_31  and  C_37
                            x       y       z     vdW  Elec       q    Type
                         _______ _______ _______ _____ _____    ______ ____

>  <TORSDO>
F 6

$$$$
=
 OpenBabel10272414453D

 37 42  0  0  1  0  0  0  0  0999 V2000
  189.5570  177.1790  145.0280 C   0  0  0  0  0  2  0  0  0  0  0  0
  185.2460  177.7340  142.9130 C   0  0  1  0  0  3  0  0  0  0  0  0
  191.0940  177.3560  145.0640 C   0  0  1  0  0  0  0  0  0  0  0  0
  188.4750  177.9590  141.4480 O   0  0  0  0  0  0  0  0  0  0  0  0
  184.3080  179.3170  144.7060 C   0  0  1  0  0  3  0  0  0  0  0  0
  186.7100  178.0240  142.6850 C   0  0  2  0  0  3  0  0  0  0  0  0
  191.8640  176.6320  143.9570 C   0  0  2  0  0  3  0  0  0  0  0  0
  185.0580  178.0080  144.4300 C   0  0  2  0  0  3  0  0  0  0  0  0
  187.3110  177.3360  141.6270 O   0  0  0  0  0  0  0  0  0  0  0  0
  182.9530  179.3610  143.9910 C   0  0  0  0  0  2  0  0  0  0  0  0
  191.4840  178.6850  144.4340 C   0  0  0  0  0  2  0  0  0  0  0  0
  186.4720  178.0670  145.0300 C   0  0  2  0  0  3  0  0  0  0  0  0
  182.9530  178.6940  142.6110 C   0  0  0  0  0  2  0  0  0  0  0  0
  191.8980  177.9440  143.1690 C   0  0  2  0  0  3  0  0  0  0  0  0
  189.3740  177.5340  142.4660 C   0  0  1  0  0  3  0  0  0  0  0  0
  184.3540  178.6080  142.0170 C   0  0  2  0  0  3  0  0  0  0  0  0
  187.3590  177.5290  143.9280 C   0  0  2  0  0  3  0  0  0  0  0  0
  184.1100  179.4830  146.0770 O   0  0  0  0  0  1  0  0  0  0  0  0
  190.7660  178.1170  142.1300 C   0  0  0  0  0  2  0  0  0  0  0  0
  191.1890  175.4230  143.3080 C   0  0  0  0  0  1  0  0  0  0  0  0
  188.8310  177.9210  143.8850 C   0  0  1  0  0  3  0  0  0  0  0  0
  191.9250  175.8630  146.5750 C   0  0  0  0  0  1  0  0  0  0  0  0
  191.6650  177.2230  146.3460 O   0  0  0  0  0  0  0  0  0  0  0  0
  184.2630  178.0190  140.6210 C   0  0  0  0  0  2  0  0  0  0  0  0
  184.8620  178.9830  139.6120 C   0  0  0  0  0  2  0  0  0  0  0  0
  184.3970  177.7340  137.5870 C   0  0  0  0  0  3  0  0  0  0  0  0
  186.7760  178.1340  138.1730 C   0  0  0  0  0  3  0  0  0  0  0  0
  187.4120  177.1140  137.5830 C   0  0  0  0  0  3  0  0  0  0  0  0
  187.5290  174.7120  137.0830 O   0  0  0  0  0  1  0  0  0  0  0  0
  185.5750  175.8520  136.4980 C   0  0  0  0  0  3  0  0  0  0  0  0
  186.7920  175.8870  137.0430 C   0  0  0  0  0  0  0  0  0  0  0  0
  185.3200  178.2430  138.4060 C   0  0  0  0  0  0  0  0  0  0  0  0
  184.7250  177.0620  136.2950 C   0  0  0  0  0  2  0  0  0  0  0  0
  186.5830  177.2620  146.3310 C   0  0  0  0  0  2  0  0  0  0  0  0
  186.6080  179.3050  147.7740 O   0  0  0  0  0  1  0  0  0  0  0  0
  187.1280  178.0510  147.4810 C   0  0  0  0  0  0  0  0  0  0  0  0
  188.1020  177.5530  148.2270 C   0  0  0  0  0  2  0  0  0  0  0  0
  1  3  1  0  0  0  0
  2  8  1  0  0  0  0
  3 23  1  0  0  0  0
  4  9  1  0  0  0  0
  4 15  1  0  0  0  0
  5 18  1  0  0  0  0
  6  2  1  0  0  0  0
  6 17  1  0  0  0  0
  7  3  1  0  0  0  0
  8  5  1  0  0  0  0
  8 12  1  0  0  0  0
  9  6  1  0  0  0  0
 10  5  1  0  0  0  0
 11  3  1  0  0  0  0
 12 34  1  0  0  0  0
 13 10  1  0  0  0  0
 14  7  1  0  0  0  0
 14 11  1  0  0  0  0
 15 21  1  0  0  0  0
 16 13  1  0  0  0  0
 16  2  1  0  0  0  0
 17 12  1  0  0  0  0
 19 15  1  0  0  0  0
 19 14  1  0  0  0  0
 20  7  1  0  0  0  0
 21 17  1  0  0  0  0
 21  1  1  0  0  0  0
 23 22  1  0  0  0  0
 24 16  1  0  0  0  0
 25 24  1  0  0  0  0
 26 32  2  0  0  0  0
 27 32  1  0  0  0  0
 28 27  2  0  0  0  0
 30 31  2  0  0  0  0
 31 29  1  0  0  0  0
 31 28  1  0  0  0  0
 32 25  1  0  0  0  0
 33 30  1  0  0  0  0
 33 26  1  0  0  0  0
 34 36  1  0  0  0  0
 36 35  1  0  0  0  0
 36 37  2  0  0  0  0
M  END
>  <MODEL>
2

>  <REMARK>
 VINA RESULT:      -9.4      2.065      7.603
  Name = 
  6 active torsions:
  status: ('A' for Active; 'I' for Inactive)
    1  A    between atoms: C_5  and  O_23
    2  A    between atoms: C_20  and  C_25
    3  A    between atoms: C_21  and  C_25
    4  A    between atoms: C_22  and  C_28
    5  A    between atoms: C_22  and  C_37
    6  A    between atoms: C_31  and  C_37
                            x       y       z     vdW  Elec       q    Type
                         _______ _______ _______ _____ _____    ______ ____

>  <TORSDO>
F 6

$$$$
=
 OpenBabel10272414453D

 37 42  0  0  1  0  0  0  0  0999 V2000
  186.3040  178.4350  137.7490 C   0  0  0  0  0  2  0  0  0  0  0  0
  184.7220  179.3360  142.2280 C   0  0  1  0  0  3  0  0  0  0  0  0
  187.2590  177.7360  136.7530 C   0  0  1  0  0  0  0  0  0  0  0  0
  187.8310  177.9440  141.2170 O   0  0  0  0  0  0  0  0  0  0  0  0
  182.4200  178.2470  141.8850 C   0  0  1  0  0  3  0  0  0  0  0  0
  185.7790  178.5450  141.4940 C   0  0  2  0  0  3  0  0  0  0  0  0
  188.7380  178.1030  136.8940 C   0  0  2  0  0  3  0  0  0  0  0  0
  183.4750  179.2020  141.3110 C   0  0  2  0  0  3  0  0  0  0  0  0
  187.1010  178.9400  141.7180 O   0  0  0  0  0  0  0  0  0  0  0  0
  181.9930  178.6500  143.3010 C   0  0  0  0  0  2  0  0  0  0  0  0
  187.5870  176.3310  137.2370 C   0  0  0  0  0  2  0  0  0  0  0  0
  183.9920  178.6770  139.9620 C   0  0  2  0  0  3  0  0  0  0  0  0
  183.1300  179.2230  144.1560 C   0  0  0  0  0  2  0  0  0  0  0  0
  188.9410  176.8320  137.7220 C   0  0  2  0  0  3  0  0  0  0  0  0
  187.8490  178.0680  139.7990 C   0  0  1  0  0  3  0  0  0  0  0  0
  184.5000  178.7920  143.6480 C   0  0  2  0  0  3  0  0  0  0  0  0
  185.4940  178.8300  140.0620 C   0  0  2  0  0  3  0  0  0  0  0  0
  181.2970  178.2140  141.0580 O   0  0  0  0  0  1  0  0  0  0  0  0
  188.8520  177.0240  139.2540 C   0  0  0  0  0  2  0  0  0  0  0  0
  189.0690  179.4460  137.5470 C   0  0  0  0  0  1  0  0  0  0  0  0
  186.4000  177.9490  139.2120 C   0  0  1  0  0  3  0  0  0  0  0  0
  185.4790  177.2200  135.4210 C   0  0  0  0  0  1  0  0  0  0  0  0
  186.7950  177.7100  135.4210 O   0  0  0  0  0  0  0  0  0  0  0  0
  185.5650  179.3220  144.5920 C   0  0  0  0  0  2  0  0  0  0  0  0
  185.5740  178.5070  145.8730 C   0  0  0  0  0  2  0  0  0  0  0  0
  187.4340  177.7330  147.2220 C   0  0  0  0  0  3  0  0  0  0  0  0
  187.4420  177.1560  144.8070 C   0  0  0  0  0  3  0  0  0  0  0  0
  188.7440  177.0010  144.5350 C   0  0  0  0  0  3  0  0  0  0  0  0
  191.0530  177.8130  144.7530 O   0  0  0  0  0  1  0  0  0  0  0  0
  189.8370  177.4460  146.7150 C   0  0  0  0  0  3  0  0  0  0  0  0
  189.8760  177.4300  145.3820 C   0  0  0  0  0  0  0  0  0  0  0  0
  186.8680  177.7880  146.0140 C   0  0  0  0  0  0  0  0  0  0  0  0
  188.6750  176.9570  147.5140 C   0  0  0  0  0  2  0  0  0  0  0  0
  183.3920  179.4430  138.7760 C   0  0  0  0  0  2  0  0  0  0  0  0
  181.4840  179.2060  137.1760 O   0  0  0  0  0  1  0  0  0  0  0  0
  182.4990  178.6080  137.9120 C   0  0  0  0  0  0  0  0  0  0  0  0
  182.6770  177.2970  137.8410 C   0  0  0  0  0  2  0  0  0  0  0  0
  1 21  1  0  0  0  0
  2 16  1  0  0  0  0
  3  7  1  0  0  0  0
  3 11  1  0  0  0  0
  3  1  1  0  0  0  0
  4  9  1  0  0  0  0
  5 10  1  0  0  0  0
  6  9  1  0  0  0  0
  6  2  1  0  0  0  0
  7 20  1  0  0  0  0
  7 14  1  0  0  0  0
  8  5  1  0  0  0  0
  8  2  1  0  0  0  0
 10 13  1  0  0  0  0
 11 14  1  0  0  0  0
 12 17  1  0  0  0  0
 12  8  1  0  0  0  0
 14 19  1  0  0  0  0
 15  4  1  0  0  0  0
 16 13  1  0  0  0  0
 16 24  1  0  0  0  0
 17  6  1  0  0  0  0
 18  5  1  0  0  0  0
 19 15  1  0  0  0  0
 21 15  1  0  0  0  0
 21 17  1  0  0  0  0
 23 22  1  0  0  0  0
 23  3  1  0  0  0  0
 24 25  1  0  0  0  0
 25 32  1  0  0  0  0
 26 33  1  0  0  0  0
 27 32  1  0  0  0  0
 28 27  2  0  0  0  0
 28 31  1  0  0  0  0
 29 31  1  0  0  0  0
 30 33  1  0  0  0  0
 31 30  2  0  0  0  0
 32 26  2  0  0  0  0
 34 12  1  0  0  0  0
 35 36  1  0  0  0  0
 36 34  1  0  0  0  0
 37 36  2  0  0  0  0
M  END
>  <MODEL>
3

>  <REMARK>
 VINA RESULT:      -9.3      0.907      1.395
  Name = 
  6 active torsions:
  status: ('A' for Active; 'I' for Inactive)
    1  A    between atoms: C_5  and  O_23
    2  A    between atoms: C_20  and  C_25
    3  A    between atoms: C_21  and  C_25
    4  A    between atoms: C_22  and  C_28
    5  A    between atoms: C_22  and  C_37
    6  A    between atoms: C_31  and  C_37
                            x       y       z     vdW  Elec       q    Type
                         _______ _______ _______ _____ _____    ______ ____

>  <TORSDO>
F 6

$$$$
=
 OpenBabel10272414453D

 37 42  0  0  1  0  0  0  0  0999 V2000
  189.4820  177.2840  145.0030 C   0  0  0  0  0  2  0  0  0  0  0  0
  185.2810  177.8070  142.6690 C   0  0  1  0  0  3  0  0  0  0  0  0
  191.0110  177.4880  145.1270 C   0  0  1  0  0  0  0  0  0  0  0  0
  188.5800  178.1240  141.3870 O   0  0  0  0  0  0  0  0  0  0  0  0
  184.2180  179.3330  144.4420 C   0  0  1  0  0  3  0  0  0  0  0  0
  186.7500  178.1290  142.5270 C   0  0  2  0  0  3  0  0  0  0  0  0
  191.8540  176.8030  144.0470 C   0  0  2  0  0  3  0  0  0  0  0  0
  185.0070  178.0440  144.1790 C   0  0  2  0  0  3  0  0  0  0  0  0
  187.4200  177.4760  141.4890 O   0  0  0  0  0  0  0  0  0  0  0  0
  182.9030  179.3680  143.6550 C   0  0  0  0  0  2  0  0  0  0  0  0
  191.4090  178.8380  144.5470 C   0  0  0  0  0  2  0  0  0  0  0  0
  186.3850  178.1150  144.8560 C   0  0  2  0  0  3  0  0  0  0  0  0
  182.9910  178.7320  142.2630 C   0  0  0  0  0  2  0  0  0  0  0  0
  191.9050  178.1330  143.2910 C   0  0  2  0  0  3  0  0  0  0  0  0
  189.4310  177.6930  142.4430 C   0  0  1  0  0  3  0  0  0  0  0  0
  184.4230  178.6850  141.7450 C   0  0  2  0  0  3  0  0  0  0  0  0
  187.3410  177.6180  143.7930 C   0  0  2  0  0  3  0  0  0  0  0  0
  183.9430  179.4640  145.8040 O   0  0  0  0  0  1  0  0  0  0  0  0
  190.8280  178.3090  142.1950 C   0  0  0  0  0  2  0  0  0  0  0  0
  191.2380  175.5970  143.3370 C   0  0  0  0  0  1  0  0  0  0  0  0
  188.8050  178.0380  143.8380 C   0  0  1  0  0  3  0  0  0  0  0  0
  190.9240  176.2000  147.0070 C   0  0  0  0  0  1  0  0  0  0  0  0
  191.5150  177.3370  146.4350 O   0  0  0  0  0  0  0  0  0  0  0  0
  184.4190  178.1260  140.3340 C   0  0  0  0  0  2  0  0  0  0  0  0
  184.3390  179.2600  139.3270 C   0  0  0  0  0  2  0  0  0  0  0  0
  182.6160  178.1870  138.0010 C   0  0  0  0  0  3  0  0  0  0  0  0
  182.1680  180.4830  138.8320 C   0  0  0  0  0  3  0  0  0  0  0  0
  181.2910  180.9650  137.9410 C   0  0  0  0  0  3  0  0  0  0  0  0
  180.6150  181.2560  135.5970 O   0  0  0  0  0  1  0  0  0  0  0  0
  180.9970  179.0790  136.3590 C   0  0  0  0  0  3  0  0  0  0  0  0
  180.9770  180.3880  136.6180 C   0  0  0  0  0  0  0  0  0  0  0  0
  183.0020  179.2730  138.6750 C   0  0  0  0  0  0  0  0  0  0  0  0
  181.2610  178.0350  137.3920 C   0  0  0  0  0  2  0  0  0  0  0  0
  186.4410  177.2840  146.1440 C   0  0  0  0  0  2  0  0  0  0  0  0
  186.2760  179.2950  147.6210 O   0  0  0  0  0  1  0  0  0  0  0  0
  186.8640  178.0670  147.3480 C   0  0  0  0  0  0  0  0  0  0  0  0
  187.7960  177.5890  148.1580 C   0  0  0  0  0  2  0  0  0  0  0  0
  1  3  1  0  0  0  0
  2  8  1  0  0  0  0
  3 23  1  0  0  0  0
  4  9  1  0  0  0  0
  4 15  1  0  0  0  0
  5 18  1  0  0  0  0
  6  2  1  0  0  0  0
  6 17  1  0  0  0  0
  7  3  1  0  0  0  0
  8  5  1  0  0  0  0
  8 12  1  0  0  0  0
  9  6  1  0  0  0  0
 10  5  1  0  0  0  0
 11  3  1  0  0  0  0
 12 34  1  0  0  0  0
 13 10  1  0  0  0  0
 14  7  1  0  0  0  0
 14 11  1  0  0  0  0
 15 21  1  0  0  0  0
 16 13  1  0  0  0  0
 16  2  1  0  0  0  0
 17 21  1  0  0  0  0
 17 12  1  0  0  0  0
 19 15  1  0  0  0  0
 19 14  1  0  0  0  0
 20  7  1  0  0  0  0
 21  1  1  0  0  0  0
 23 22  1  0  0  0  0
 24 16  1  0  0  0  0
 25 24  1  0  0  0  0
 26 32  2  0  0  0  0
 28 27  2  0  0  0  0
 29 31  1  0  0  0  0
 30 31  2  0  0  0  0
 30 33  1  0  0  0  0
 31 28  1  0  0  0  0
 32 27  1  0  0  0  0
 32 25  1  0  0  0  0
 33 26  1  0  0  0  0
 34 36  1  0  0  0  0
 36 35  1  0  0  0  0
 36 37  2  0  0  0  0
M  END
>  <MODEL>
4

>  <REMARK>
 VINA RESULT:      -9.2      2.665      8.455
  Name = 
  6 active torsions:
  status: ('A' for Active; 'I' for Inactive)
    1  A    between atoms: C_5  and  O_23
    2  A    between atoms: C_20  and  C_25
    3  A    between atoms: C_21  and  C_25
    4  A    between atoms: C_22  and  C_28
    5  A    between atoms: C_22  and  C_37
    6  A    between atoms: C_31  and  C_37
                            x       y       z     vdW  Elec       q    Type
                         _______ _______ _______ _____ _____    ______ ____

>  <TORSDO>
F 6

$$$$
=
 OpenBabel10272414453D

 37 42  0  0  1  0  0  0  0  0999 V2000
  189.5770  177.2010  145.0750 C   0  0  0  0  0  2  0  0  0  0  0  0
  185.3270  177.8300  142.8590 C   0  0  1  0  0  3  0  0  0  0  0  0
  191.1090  177.3910  145.1690 C   0  0  1  0  0  0  0  0  0  0  0  0
  188.5970  178.1680  141.5110 O   0  0  0  0  0  0  0  0  0  0  0  0
  184.3160  179.3020  144.7060 C   0  0  1  0  0  3  0  0  0  0  0  0
  186.7940  178.1470  142.6930 C   0  0  2  0  0  3  0  0  0  0  0  0
  191.9220  176.7380  144.0480 C   0  0  2  0  0  3  0  0  0  0  0  0
  185.0890  178.0170  144.3820 C   0  0  2  0  0  3  0  0  0  0  0  0
  187.4350  177.5250  141.6180 O   0  0  0  0  0  0  0  0  0  0  0  0
  182.9830  179.3720  143.9520 C   0  0  0  0  0  2  0  0  0  0  0  0
  191.5030  178.7570  144.6260 C   0  0  0  0  0  2  0  0  0  0  0  0
  186.4830  178.0570  145.0290 C   0  0  2  0  0  3  0  0  0  0  0  0
  183.0340  178.7830  142.5380 C   0  0  0  0  0  2  0  0  0  0  0  0
  191.9650  178.0920  143.3360 C   0  0  2  0  0  3  0  0  0  0  0  0
  189.4690  177.6970  142.5320 C   0  0  1  0  0  3  0  0  0  0  0  0
  184.4530  178.7440  141.9850 C   0  0  2  0  0  3  0  0  0  0  0  0
  187.4100  177.5900  143.9270 C   0  0  2  0  0  3  0  0  0  0  0  0
  184.0740  179.3890  146.0780 O   0  0  0  0  0  1  0  0  0  0  0  0
  190.8640  178.3120  142.2720 C   0  0  0  0  0  2  0  0  0  0  0  0
  191.2810  175.5600  143.3130 C   0  0  0  0  0  1  0  0  0  0  0  0
  188.8780  177.9990  143.9520 C   0  0  1  0  0  3  0  0  0  0  0  0
  192.0050  175.8430  146.5850 C   0  0  0  0  0  1  0  0  0  0  0  0
  191.6430  177.1930  146.4600 O   0  0  0  0  0  0  0  0  0  0  0  0
  184.4130  178.2330  140.5560 C   0  0  0  0  0  2  0  0  0  0  0  0
  183.0540  177.6220  140.2620 C   0  0  0  0  0  2  0  0  0  0  0  0
  182.4570  175.6330  139.0110 C   0  0  0  0  0  3  0  0  0  0  0  0
  183.9050  177.3090  137.8890 C   0  0  0  0  0  3  0  0  0  0  0  0
  184.5780  176.5780  136.9920 C   0  0  0  0  0  3  0  0  0  0  0  0
  185.8450  174.5420  136.4580 O   0  0  0  0  0  1  0  0  0  0  0  0
  183.7010  174.2870  137.3520 C   0  0  0  0  0  3  0  0  0  0  0  0
  184.6780  175.1050  136.9570 C   0  0  0  0  0  0  0  0  0  0  0  0
  183.1210  176.7910  139.0310 C   0  0  0  0  0  0  0  0  0  0  0  0
  182.3600  174.7600  137.8040 C   0  0  0  0  0  2  0  0  0  0  0  0
  186.5630  177.1820  146.2860 C   0  0  0  0  0  2  0  0  0  0  0  0
  186.6270  179.1440  147.8360 O   0  0  0  0  0  1  0  0  0  0  0  0
  187.1180  177.8950  147.4800 C   0  0  0  0  0  0  0  0  0  0  0  0
  188.0740  177.3340  148.2050 C   0  0  0  0  0  2  0  0  0  0  0  0
  1  3  1  0  0  0  0
  2  8  1  0  0  0  0
  3 23  1  0  0  0  0
  4  9  1  0  0  0  0
  4 15  1  0  0  0  0
  5 18  1  0  0  0  0
  6  2  1  0  0  0  0
  6 17  1  0  0  0  0
  7  3  1  0  0  0  0
  8  5  1  0  0  0  0
  8 12  1  0  0  0  0
  9  6  1  0  0  0  0
 10  5  1  0  0  0  0
 11  3  1  0  0  0  0
 12 34  1  0  0  0  0
 13 10  1  0  0  0  0
 14  7  1  0  0  0  0
 14 11  1  0  0  0  0
 15 21  1  0  0  0  0
 16 13  1  0  0  0  0
 16  2  1  0  0  0  0
 17 21  1  0  0  0  0
 17 12  1  0  0  0  0
 19 15  1  0  0  0  0
 19 14  1  0  0  0  0
 20  7  1  0  0  0  0
 21  1  1  0  0  0  0
 23 22  1  0  0  0  0
 24 16  1  0  0  0  0
 25 24  1  0  0  0  0
 26 32  2  0  0  0  0
 27 32  1  0  0  0  0
 28 27  2  0  0  0  0
 29 31  1  0  0  0  0
 30 33  1  0  0  0  0
 31 28  1  0  0  0  0
 31 30  2  0  0  0  0
 32 25  1  0  0  0  0
 33 26  1  0  0  0  0
 34 36  1  0  0  0  0
 36 35  1  0  0  0  0
 36 37  2  0  0  0  0
M  END
>  <MODEL>
5

>  <REMARK>
 VINA RESULT:      -9.0      2.585      7.925
  Name = 
  6 active torsions:
  status: ('A' for Active; 'I' for Inactive)
    1  A    between atoms: C_5  and  O_23
    2  A    between atoms: C_20  and  C_25
    3  A    between atoms: C_21  and  C_25
    4  A    between atoms: C_22  and  C_28
    5  A    between atoms: C_22  and  C_37
    6  A    between atoms: C_31  and  C_37
                            x       y       z     vdW  Elec       q    Type
                         _______ _______ _______ _____ _____    ______ ____

>  <TORSDO>
F 6

$$$$
=
 OpenBabel10272414453D

 37 42  0  0  1  0  0  0  0  0999 V2000
  182.7040  179.2640  141.0640 C   0  0  0  0  0  2  0  0  0  0  0  0
  187.4560  178.6270  141.6800 C   0  0  1  0  0  3  0  0  0  0  0  0
  181.3780  179.0090  140.3080 C   0  0  1  0  0  0  0  0  0  0  0  0
  185.4960  177.9970  138.7840 O   0  0  0  0  0  0  0  0  0  0  0  0
  187.2370  177.3970  143.9250 C   0  0  1  0  0  3  0  0  0  0  0  0
  186.3280  178.2240  140.7610 C   0  0  2  0  0  3  0  0  0  0  0  0
  181.3420  179.5080  138.8610 C   0  0  2  0  0  3  0  0  0  0  0  0
  186.7970  178.6040  143.0870 C   0  0  2  0  0  3  0  0  0  0  0  0
  186.4080  178.7040  139.4500 O   0  0  0  0  0  0  0  0  0  0  0  0
  188.7620  177.3170  144.0560 C   0  0  0  0  0  2  0  0  0  0  0  0
  181.3350  177.5790  139.7910 C   0  0  0  0  0  2  0  0  0  0  0  0
  185.2800  178.5600  142.8450 C   0  0  2  0  0  3  0  0  0  0  0  0
  189.5210  177.7610  142.7990 C   0  0  0  0  0  2  0  0  0  0  0  0
  181.6840  178.0900  138.3990 C   0  0  2  0  0  3  0  0  0  0  0  0
  184.2090  178.5240  139.0860 C   0  0  1  0  0  3  0  0  0  0  0  0
  188.6550  177.6740  141.5490 C   0  0  2  0  0  3  0  0  0  0  0  0
  185.1350  178.8700  141.3710 C   0  0  2  0  0  3  0  0  0  0  0  0
  186.6690  177.4580  145.1980 O   0  0  0  0  0  1  0  0  0  0  0  0
  183.1890  177.8200  138.1620 C   0  0  0  0  0  2  0  0  0  0  0  0
  182.3020  180.6370  138.4840 C   0  0  0  0  0  1  0  0  0  0  0  0
  183.8990  178.3940  140.6180 C   0  0  1  0  0  3  0  0  0  0  0  0
  179.9820  178.2540  141.9470 C   0  0  0  0  0  1  0  0  0  0  0  0
  180.2170  179.3080  141.0500 O   0  0  0  0  0  0  0  0  0  0  0  0
  189.4960  178.0430  140.3400 C   0  0  0  0  0  2  0  0  0  0  0  0
  189.8870  176.7880  139.5780 C   0  0  0  0  0  2  0  0  0  0  0  0
  189.2340  178.0460  137.6110 C   0  0  0  0  0  3  0  0  0  0  0  0
  189.0320  175.5730  137.5180 C   0  0  0  0  0  3  0  0  0  0  0  0
  188.0670  175.3800  136.6090 C   0  0  0  0  0  3  0  0  0  0  0  0
  185.8610  175.9900  135.7170 O   0  0  0  0  0  1  0  0  0  0  0  0
  187.4550  177.6850  135.9320 C   0  0  0  0  0  3  0  0  0  0  0  0
  187.1340  176.4000  136.0890 C   0  0  0  0  0  0  0  0  0  0  0  0
  189.3620  176.8490  138.1880 C   0  0  0  0  0  0  0  0  0  0  0  0
  188.8190  178.2340  136.1890 C   0  0  0  0  0  2  0  0  0  0  0  0
  184.5230  179.5500  143.7390 C   0  0  0  0  0  2  0  0  0  0  0  0
  184.1470  178.7020  146.0620 O   0  0  0  0  0  1  0  0  0  0  0  0
  183.6640  178.8910  144.7740 C   0  0  0  0  0  0  0  0  0  0  0  0
  182.4400  178.4920  144.4660 C   0  0  0  0  0  2  0  0  0  0  0  0
  2  8  1  0  0  0  0
  3 23  1  0  0  0  0
  3  1  1  0  0  0  0
  4 15  1  0  0  0  0
  4  9  1  0  0  0  0
  5 10  1  0  0  0  0
  5 18  1  0  0  0  0
  6 17  1  0  0  0  0
  6  2  1  0  0  0  0
  7  3  1  0  0  0  0
  8  5  1  0  0  0  0
  9  6  1  0  0  0  0
 11  3  1  0  0  0  0
 12  8  1  0  0  0  0
 12 34  1  0  0  0  0
 13 10  1  0  0  0  0
 14  7  1  0  0  0  0
 14 11  1  0  0  0  0
 15 21  1  0  0  0  0
 16  2  1  0  0  0  0
 16 13  1  0  0  0  0
 17 12  1  0  0  0  0
 19 14  1  0  0  0  0
 19 15  1  0  0  0  0
 20  7  1  0  0  0  0
 21  1  1  0  0  0  0
 21 17  1  0  0  0  0
 23 22  1  0  0  0  0
 24 16  1  0  0  0  0
 25 24  1  0  0  0  0
 26 32  2  0  0  0  0
 27 32  1  0  0  0  0
 28 27  2  0  0  0  0
 29 31  1  0  0  0  0
 30 31  2  0  0  0  0
 30 33  1  0  0  0  0
 31 28  1  0  0  0  0
 32 25  1  0  0  0  0
 33 26  1  0  0  0  0
 34 36  1  0  0  0  0
 36 35  1  0  0  0  0
 37 36  2  0  0  0  0
M  END
>  <MODEL>
6

>  <REMARK>
 VINA RESULT:      -8.1      2.088      6.945
  Name = 
  6 active torsions:
  status: ('A' for Active; 'I' for Inactive)
    1  A    between atoms: C_5  and  O_23
    2  A    between atoms: C_20  and  C_25
    3  A    between atoms: C_21  and  C_25
    4  A    between atoms: C_22  and  C_28
    5  A    between atoms: C_22  and  C_37
    6  A    between atoms: C_31  and  C_37
                            x       y       z     vdW  Elec       q    Type
                         _______ _______ _______ _____ _____    ______ ____

>  <TORSDO>
F 6

$$$$
=
 OpenBabel10272414453D

 37 42  0  0  1  0  0  0  0  0999 V2000
  182.5420  177.4150  137.4220 C   0  0  0  0  0  2  0  0  0  0  0  0
  187.3210  177.5560  138.1340 C   0  0  1  0  0  3  0  0  0  0  0  0
  181.1360  178.0600  137.4590 C   0  0  1  0  0  0  0  0  0  0  0  0
  184.8220  179.7080  139.4570 O   0  0  0  0  0  0  0  0  0  0  0  0
  187.9340  177.3340  135.6490 C   0  0  1  0  0  3  0  0  0  0  0  0
  186.0880  178.4130  138.2850 C   0  0  2  0  0  3  0  0  0  0  0  0
  180.6290  178.4500  138.8500 C   0  0  2  0  0  3  0  0  0  0  0  0
  187.0720  176.8010  136.8000 C   0  0  2  0  0  3  0  0  0  0  0  0
  185.7290  178.7410  139.5960 O   0  0  0  0  0  0  0  0  0  0  0  0
  189.4270  177.3120  135.9950 C   0  0  0  0  0  2  0  0  0  0  0  0
  181.2260  179.5370  137.1040 C   0  0  0  0  0  2  0  0  0  0  0  0
  185.5800  176.9860  136.4790 C   0  0  2  0  0  3  0  0  0  0  0  0
  189.7320  177.6350  137.4630 C   0  0  0  0  0  2  0  0  0  0  0  0
  181.0960  179.8830  138.5820 C   0  0  2  0  0  3  0  0  0  0  0  0
  183.5850  179.1140  139.0800 C   0  0  1  0  0  3  0  0  0  0  0  0
  188.6000  178.4090  138.1260 C   0  0  2  0  0  3  0  0  0  0  0  0
  184.9980  177.5490  137.7570 C   0  0  2  0  0  3  0  0  0  0  0  0
  187.7190  176.5810  134.4940 O   0  0  0  0  0  1  0  0  0  0  0  0
  182.5080  180.2240  139.1120 C   0  0  0  0  0  2  0  0  0  0  0  0
  181.2280  177.7110  140.0470 C   0  0  0  0  0  1  0  0  0  0  0  0
  183.7190  178.3750  137.7040 C   0  0  1  0  0  3  0  0  0  0  0  0
  180.5090  176.0490  136.5830 C   0  0  0  0  0  1  0  0  0  0  0  0
  180.1760  177.4110  136.6550 O   0  0  0  0  0  0  0  0  0  0  0  0
  189.0090  178.7660  139.5430 C   0  0  0  0  0  2  0  0  0  0  0  0
  189.8760  177.6630  140.1260 C   0  0  0  0  0  2  0  0  0  0  0  0
  188.1740  177.7440  141.8510 C   0  0  0  0  0  3  0  0  0  0  0  0
  190.1220  176.2480  142.2200 C   0  0  0  0  0  3  0  0  0  0  0  0
  190.1930  176.1640  143.5550 C   0  0  0  0  0  3  0  0  0  0  0  0
  190.1360  177.2830  145.7420 O   0  0  0  0  0  1  0  0  0  0  0  0
  188.3100  177.5860  144.3150 C   0  0  0  0  0  3  0  0  0  0  0  0
  189.5080  177.0390  144.5280 C   0  0  0  0  0  0  0  0  0  0  0  0
  189.3400  177.2340  141.4450 C   0  0  0  0  0  0  0  0  0  0  0  0
  187.4820  177.3170  143.1030 C   0  0  0  0  0  2  0  0  0  0  0  0
  184.9140  175.6730  136.0480 C   0  0  0  0  0  2  0  0  0  0  0  0
  186.3870  173.9940  137.1740 O   0  0  0  0  0  1  0  0  0  0  0  0
  185.1230  174.5480  137.0130 C   0  0  0  0  0  0  0  0  0  0  0  0
  184.1060  174.0810  137.7210 C   0  0  0  0  0  2  0  0  0  0  0  0
  1  3  1  0  0  0  0
  1 21  1  0  0  0  0
  2  6  1  0  0  0  0
  3  7  1  0  0  0  0
  4  9  1  0  0  0  0
  5 10  1  0  0  0  0
  5  8  1  0  0  0  0
  6  9  1  0  0  0  0
  7 20  1  0  0  0  0
  8  2  1  0  0  0  0
 10 13  1  0  0  0  0
 11  3  1  0  0  0  0
 11 14  1  0  0  0  0
 12  8  1  0  0  0  0
 12 17  1  0  0  0  0
 13 16  1  0  0  0  0
 14  7  1  0  0  0  0
 14 19  1  0  0  0  0
 15 19  1  0  0  0  0
 15  4  1  0  0  0  0
 16  2  1  0  0  0  0
 16 24  1  0  0  0  0
 17  6  1  0  0  0  0
 18  5  1  0  0  0  0
 21 17  1  0  0  0  0
 21 15  1  0  0  0  0
 22 23  1  0  0  0  0
 23  3  1  0  0  0  0
 24 25  1  0  0  0  0
 25 32  1  0  0  0  0
 26 33  1  0  0  0  0
 27 28  2  0  0  0  0
 28 31  1  0  0  0  0
 30 31  2  0  0  0  0
 31 29  1  0  0  0  0
 32 26  2  0  0  0  0
 32 27  1  0  0  0  0
 33 30  1  0  0  0  0
 34 12  1  0  0  0  0
 34 36  1  0  0  0  0
 36 35  1  0  0  0  0
 36 37  2  0  0  0  0
M  END
>  <MODEL>
7

>  <REMARK>
 VINA RESULT:      -7.8      2.288      5.986
  Name = 
  6 active torsions:
  status: ('A' for Active; 'I' for Inactive)
    1  A    between atoms: C_5  and  O_23
    2  A    between atoms: C_20  and  C_25
    3  A    between atoms: C_21  and  C_25
    4  A    between atoms: C_22  and  C_28
    5  A    between atoms: C_22  and  C_37
    6  A    between atoms: C_31  and  C_37
                            x       y       z     vdW  Elec       q    Type
                         _______ _______ _______ _____ _____    ______ ____

>  <TORSDO>
F 6

$$$$
=
 OpenBabel10272414453D

 37 42  0  0  1  0  0  0  0  0999 V2000
  189.1300  177.0300  139.5910 C   0  0  0  0  0  2  0  0  0  0  0  0
  186.5430  177.4130  143.6560 C   0  0  1  0  0  3  0  0  0  0  0  0
  189.4880  177.4740  138.1530 C   0  0  1  0  0  0  0  0  0  0  0  0
  185.8050  178.7120  140.4330 O   0  0  0  0  0  0  0  0  0  0  0  0
  188.5260  178.1180  145.1300 C   0  0  1  0  0  3  0  0  0  0  0  0
  186.6730  178.0350  142.2870 C   0  0  2  0  0  3  0  0  0  0  0  0
  188.3710  177.3100  137.1180 C   0  0  2  0  0  3  0  0  0  0  0  0
  188.0160  177.1370  144.0660 C   0  0  2  0  0  3  0  0  0  0  0  0
  185.5840  177.8560  141.4290 O   0  0  0  0  0  0  0  0  0  0  0  0
  187.6280  178.1340  146.3710 C   0  0  0  0  0  2  0  0  0  0  0  0
  189.3560  178.9840  138.0210 C   0  0  0  0  0  2  0  0  0  0  0  0
  188.8470  177.2650  142.7790 C   0  0  2  0  0  3  0  0  0  0  0  0
  186.1350  177.9650  146.0640 C   0  0  0  0  0  2  0  0  0  0  0  0
  188.0240  178.7880  137.3090 C   0  0  2  0  0  3  0  0  0  0  0  0
  186.7960  178.1580  139.5740 C   0  0  1  0  0  3  0  0  0  0  0  0
  185.8010  178.3460  144.6270 C   0  0  2  0  0  3  0  0  0  0  0  0
  187.8110  177.2940  141.6760 C   0  0  2  0  0  3  0  0  0  0  0  0
  189.8280  177.7870  145.5080 O   0  0  0  0  0  1  0  0  0  0  0  0
  186.8970  179.0720  138.3310 C   0  0  0  0  0  2  0  0  0  0  0  0
  187.2870  176.2730  137.4140 C   0  0  0  0  0  1  0  0  0  0  0  0
  188.1460  177.9520  140.3440 C   0  0  1  0  0  3  0  0  0  0  0  0
  191.4630  176.5410  138.8110 C   0  0  0  0  0  1  0  0  0  0  0  0
  190.7550  177.0420  137.7080 O   0  0  0  0  0  0  0  0  0  0  0  0
  184.3000  178.2370  144.4240 C   0  0  0  0  0  2  0  0  0  0  0  0
  183.7650  179.5220  143.8150 C   0  0  0  0  0  2  0  0  0  0  0  0
  181.3990  178.9960  143.8440 C   0  0  0  0  0  3  0  0  0  0  0  0
  182.4800  179.3260  141.6330 C   0  0  0  0  0  3  0  0  0  0  0  0
  181.7110  178.6050  140.8070 C   0  0  0  0  0  3  0  0  0  0  0  0
  180.4950  176.5210  140.3430 O   0  0  0  0  0  1  0  0  0  0  0  0
  179.9820  177.6660  142.3150 C   0  0  0  0  0  3  0  0  0  0  0  0
  180.7090  177.5930  141.1990 C   0  0  0  0  0  0  0  0  0  0  0  0
  182.4830  179.2590  143.1100 C   0  0  0  0  0  0  0  0  0  0  0  0
  180.0350  178.8180  143.2630 C   0  0  0  0  0  2  0  0  0  0  0  0
  189.8510  176.1170  142.6240 C   0  0  0  0  0  2  0  0  0  0  0  0
  191.9640  175.7640  143.9160 O   0  0  0  0  0  1  0  0  0  0  0  0
  191.2580  176.4980  142.9710 C   0  0  0  0  0  0  0  0  0  0  0  0
  191.8340  177.5310  142.3760 C   0  0  0  0  0  2  0  0  0  0  0  0
  1 21  1  0  0  0  0
  2  8  1  0  0  0  0
  2 16  1  0  0  0  0
  3  1  1  0  0  0  0
  4  9  1  0  0  0  0
  5 18  1  0  0  0  0
  5 10  1  0  0  0  0
  6  2  1  0  0  0  0
  7 14  1  0  0  0  0
  7 20  1  0  0  0  0
  7  3  1  0  0  0  0
  8  5  1  0  0  0  0
  9  6  1  0  0  0  0
 11  3  1  0  0  0  0
 12  8  1  0  0  0  0
 13 10  1  0  0  0  0
 14 11  1  0  0  0  0
 14 19  1  0  0  0  0
 15 21  1  0  0  0  0
 15  4  1  0  0  0  0
 16 13  1  0  0  0  0
 17  6  1  0  0  0  0
 17 12  1  0  0  0  0
 19 15  1  0  0  0  0
 21 17  1  0  0  0  0
 23  3  1  0  0  0  0
 23 22  1  0  0  0  0
 24 16  1  0  0  0  0
 25 24  1  0  0  0  0
 27 32  1  0  0  0  0
 28 31  1  0  0  0  0
 28 27  2  0  0  0  0
 29 31  1  0  0  0  0
 30 33  1  0  0  0  0
 31 30  2  0  0  0  0
 32 25  1  0  0  0  0
 32 26  2  0  0  0  0
 33 26  1  0  0  0  0
 34 12  1  0  0  0  0
 34 36  1  0  0  0  0
 36 35  1  0  0  0  0
 37 36  2  0  0  0  0
M  END
>  <MODEL>
8

>  <REMARK>
 VINA RESULT:      -7.6      2.089      6.753
  Name = 
  6 active torsions:
  status: ('A' for Active; 'I' for Inactive)
    1  A    between atoms: C_5  and  O_23
    2  A    between atoms: C_20  and  C_25
    3  A    between atoms: C_21  and  C_25
    4  A    between atoms: C_22  and  C_28
    5  A    between atoms: C_22  and  C_37
    6  A    between atoms: C_31  and  C_37
                            x       y       z     vdW  Elec       q    Type
                         _______ _______ _______ _____ _____    ______ ____

>  <TORSDO>
F 6

$$$$
=
 OpenBabel10272414453D

 37 42  0  0  1  0  0  0  0  0999 V2000
  187.3630  176.6760  136.1900 C   0  0  0  0  0  2  0  0  0  0  0  0
  184.8500  178.6440  139.8200 C   0  0  1  0  0  3  0  0  0  0  0  0
  188.5720  175.8830  135.6380 C   0  0  1  0  0  0  0  0  0  0  0  0
  188.2450  177.5970  139.7920 O   0  0  0  0  0  0  0  0  0  0  0  0
  182.8120  177.1020  139.5560 C   0  0  1  0  0  3  0  0  0  0  0  0
  186.1190  177.8690  139.5580 C   0  0  2  0  0  3  0  0  0  0  0  0
  189.9390  176.5410  135.8480 C   0  0  2  0  0  3  0  0  0  0  0  0
  183.8290  178.0010  138.8420 C   0  0  2  0  0  3  0  0  0  0  0  0
  187.3130  178.5490  139.8140 O   0  0  0  0  0  0  0  0  0  0  0  0
  182.0740  177.8470  140.6730 C   0  0  0  0  0  2  0  0  0  0  0  0
  188.9750  174.7900  136.6170 C   0  0  0  0  0  2  0  0  0  0  0  0
  184.6570  177.1800  137.8410 C   0  0  2  0  0  3  0  0  0  0  0  0
  182.9440  178.8590  141.4290 C   0  0  0  0  0  2  0  0  0  0  0  0
  190.1370  175.6570  137.0820 C   0  0  2  0  0  3  0  0  0  0  0  0
  188.5190  177.2660  138.4360 C   0  0  1  0  0  3  0  0  0  0  0  0
  184.4290  178.5480  141.2960 C   0  0  2  0  0  3  0  0  0  0  0  0
  186.0810  177.6280  138.0900 C   0  0  2  0  0  3  0  0  0  0  0  0
  181.8820  176.6030  138.6430 O   0  0  0  0  0  1  0  0  0  0  0  0
  189.7310  176.3050  138.4270 C   0  0  0  0  0  2  0  0  0  0  0  0
  189.9660  178.0580  136.0390 C   0  0  0  0  0  1  0  0  0  0  0  0
  187.2370  176.7040  137.7290 C   0  0  1  0  0  3  0  0  0  0  0  0
  187.6490  174.1600  134.4630 C   0  0  0  0  0  1  0  0  0  0  0  0
  188.3800  175.3530  134.3460 O   0  0  0  0  0  0  0  0  0  0  0  0
  185.2180  179.5350  142.1380 C   0  0  0  0  0  2  0  0  0  0  0  0
  184.8570  179.3690  143.6040 C   0  0  0  0  0  2  0  0  0  0  0  0
  185.8440  178.4280  145.6080 C   0  0  0  0  0  3  0  0  0  0  0  0
  186.7270  177.6600  143.4180 C   0  0  0  0  0  3  0  0  0  0  0  0
  187.9780  177.2820  143.7100 C   0  0  0  0  0  3  0  0  0  0  0  0
  190.1040  177.7380  144.8530 O   0  0  0  0  0  1  0  0  0  0  0  0
  188.1540  177.7280  146.1420 C   0  0  0  0  0  3  0  0  0  0  0  0
  188.7260  177.5970  144.9440 C   0  0  0  0  0  0  0  0  0  0  0  0
  185.8340  178.4710  144.2740 C   0  0  0  0  0  0  0  0  0  0  0  0
  186.7020  177.4940  146.3950 C   0  0  0  0  0  2  0  0  0  0  0  0
  184.2050  177.4060  136.3930 C   0  0  0  0  0  2  0  0  0  0  0  0
  183.2470  176.2130  134.4140 O   0  0  0  0  0  1  0  0  0  0  0  0
  183.8080  176.1490  135.6840 C   0  0  0  0  0  0  0  0  0  0  0  0
  183.9950  174.9720  136.2610 C   0  0  0  0  0  2  0  0  0  0  0  0
  1 21  1  0  0  0  0
  2 16  1  0  0  0  0
  3  7  1  0  0  0  0
  3  1  1  0  0  0  0
  3 11  1  0  0  0  0
  4  9  1  0  0  0  0
  5 10  1  0  0  0  0
  6  9  1  0  0  0  0
  6  2  1  0  0  0  0
  7 20  1  0  0  0  0
  7 14  1  0  0  0  0
  8  5  1  0  0  0  0
  8  2  1  0  0  0  0
 10 13  1  0  0  0  0
 11 14  1  0  0  0  0
 12 17  1  0  0  0  0
 12  8  1  0  0  0  0
 14 19  1  0  0  0  0
 15  4  1  0  0  0  0
 16 13  1  0  0  0  0
 16 24  1  0  0  0  0
 17  6  1  0  0  0  0
 18  5  1  0  0  0  0
 19 15  1  0  0  0  0
 21 17  1  0  0  0  0
 21 15  1  0  0  0  0
 23 22  1  0  0  0  0
 23  3  1  0  0  0  0
 24 25  1  0  0  0  0
 25 32  1  0  0  0  0
 26 33  1  0  0  0  0
 27 28  2  0  0  0  0
 27 32  1  0  0  0  0
 28 31  1  0  0  0  0
 29 31  1  0  0  0  0
 30 33  1  0  0  0  0
 31 30  2  0  0  0  0
 32 26  2  0  0  0  0
 34 12  1  0  0  0  0
 35 36  1  0  0  0  0
 36 37  2  0  0  0  0
 36 34  1  0  0  0  0
M  END
>  <MODEL>
9

>  <REMARK>
 VINA RESULT:      -7.2      1.879      3.104
  Name = 
  6 active torsions:
  status: ('A' for Active; 'I' for Inactive)
    1  A    between atoms: C_5  and  O_23
    2  A    between atoms: C_20  and  C_25
    3  A    between atoms: C_21  and  C_25
    4  A    between atoms: C_22  and  C_28
    5  A    between atoms: C_22  and  C_37
    6  A    between atoms: C_31  and  C_37
                            x       y       z     vdW  Elec       q    Type
                         _______ _______ _______ _____ _____    ______ ____

>  <TORSDO>
F 6

$$$$
