=
 OpenBabel10272413183D

 32 35  0  0  1  0  0  0  0  0999 V2000
  186.1380  177.7640  142.1170 O   0  0  0  0  0  0  0  0  0  0  0  0
  185.3600  178.4190  143.1010 C   0  0  2  0  0  3  0  0  0  0  0  0
  185.9550  178.3360  144.4830 C   0  0  0  0  0  0  0  0  0  0  0  0
  185.2460  178.8810  145.5610 C   0  0  0  0  0  3  0  0  0  0  0  0
  189.6050  177.2230  147.4730 C   0  0  0  0  0  3  0  0  0  0  0  0
  187.2320  177.7920  144.6940 C   0  0  0  0  0  3  0  0  0  0  0  0
  187.6200  178.3140  148.3420 C   0  0  0  0  0  3  0  0  0  0  0  0
  187.0620  178.3220  147.0600 C   0  0  0  0  0  0  0  0  0  0  0  0
  185.7950  178.8710  146.8460 C   0  0  0  0  0  3  0  0  0  0  0  0
  187.7850  177.7770  145.9760 C   0  0  0  0  0  0  0  0  0  0  0  0
  188.8910  177.7660  148.5470 C   0  0  0  0  0  3  0  0  0  0  0  0
  189.0540  177.2300  146.1880 C   0  0  0  0  0  3  0  0  0  0  0  0
  183.0640  179.3510  142.8870 C   0  0  1  0  0  3  0  0  0  0  0  0
  183.8700  178.0750  143.0270 C   0  0  1  0  0  3  0  0  0  0  0  0
  183.3180  178.4780  141.6750 C   0  0  0  0  0  2  0  0  0  0  0  0
  180.7980  180.0620  142.8800 O   0  0  0  0  0  1  0  0  0  0  0  0
  181.6630  179.1040  143.4050 C   0  0  0  0  0  2  0  0  0  0  0  0
  186.6640  178.7290  141.2360 C   0  0  0  0  0  2  0  0  0  0  0  0
  186.8180  178.1600  139.8270 C   0  0  1  0  0  3  0  0  0  0  0  0
  186.0810  178.9160  138.9150 O   0  0  0  0  0  1  0  0  0  0  0  0
  188.2730  178.0330  139.3620 C   0  0  1  0  0  3  0  0  0  0  0  0
  188.6170  179.0820  138.5060 O   0  0  0  0  0  1  0  0  0  0  0  0
  189.2660  177.9700  140.5230 C   0  0  0  0  0  2  0  0  0  0  0  0
  190.6460  177.4340  140.1280 C   0  0  1  0  0  3  0  0  0  0  0  0
  191.5900  177.3600  141.3200 C   0  0  0  0  0  2  0  0  0  0  0  0
  190.7990  177.3040  142.6130 C   0  0  0  0  0  3  0  0  0  0  0  0
  191.5730  178.0280  143.6950 C   0  0  0  0  0  2  0  0  0  0  0  0
  191.5820  176.5180  143.6430 C   0  0  0  0  0  2  0  0  0  0  0  0
  190.5270  176.1300  139.4920 N   0  0  0  0  0  2  0  0  0  0  0  0
  191.8070  176.6960  137.6770 O   0  0  0  0  0  0  0  0  0  0  0  0
  191.4370  174.4790  137.9820 O   0  0  0  0  0  0  0  0  0  0  0  0
  191.2650  175.7940  138.3470 N   0  0  0  0  0  0  0  0  0  0  0  0
  2  1  1  6  0  0  0
  2  3  1  0  0  0  0
  3  6  2  0  0  0  0
  3  4  1  0  0  0  0
  4  9  2  0  0  0  0
  5 11  1  0  0  0  0
  6 10  1  0  0  0  0
  7 11  2  0  0  0  0
  8  7  1  0  0  0  0
  9  8  1  0  0  0  0
 10 12  1  0  0  0  0
 10  8  2  0  0  0  0
 12  5  2  0  0  0  0
 13 14  1  0  0  0  0
 13 17  1  1  0  0  0
 14  2  1  6  0  0  0
 15 13  1  0  0  0  0
 15 14  1  0  0  0  0
 16 17  1  0  0  0  0
 18  1  1  0  0  0  0
 19 20  1  6  0  0  0
 19 18  1  0  0  0  0
 21 22  1  6  0  0  0
 21 19  1  0  0  0  0
 21 23  1  0  0  0  0
 24 23  1  1  0  0  0
 24 25  1  0  0  0  0
 25 26  1  0  0  0  0
 26 28  1  0  0  0  0
 26 27  1  0  0  0  0
 28 27  1  0  0  0  0
 29 24  1  0  0  0  0
 30 32  2  0  0  0  0
 31 32  2  0  0  0  0
 32 29  1  0  0  0  0
M  END
>  <MODEL>
1

>  <REMARK>
 VINA RESULT:      -8.2      0.000      0.000
  Name = 
  13 active torsions:
  status: ('A' for Active; 'I' for Inactive)
    1  A    between atoms: O_1  and  C_5
    2  A    between atoms: O_1  and  C_30
    3  A    between atoms: C_2  and  C_5
    4  A    between atoms: C_3  and  C_8
    5  A    between atoms: C_3  and  C_20
    6  A    between atoms: C_4  and  C_24
    7  A    between atoms: C_4  and  C_30
    8  A    between atoms: C_5  and  C_14
    9  A    between atoms: C_13  and  C_29
   10  A    between atoms: N_15  and  C_20
   11  A    between atoms: N_15  and  N_26
   12  A    between atoms: C_16  and  C_20
   13  A    between atoms: C_16  and  C_24
                            x       y       z     vdW  Elec       q    Type
                         _______ _______ _______ _____ _____    ______ ____

>  <TORSDO>
F 13

$$$$
=
 OpenBabel10272413183D

 32 35  0  0  1  0  0  0  0  0999 V2000
  188.9840  177.3020  141.3070 O   0  0  0  0  0  0  0  0  0  0  0  0
  188.1230  178.2490  140.7050 C   0  0  2  0  0  3  0  0  0  0  0  0
  186.8150  178.4140  141.4360 C   0  0  0  0  0  0  0  0  0  0  0  0
  185.6720  178.7680  140.7100 C   0  0  0  0  0  3  0  0  0  0  0  0
  184.2400  178.5990  145.5390 C   0  0  0  0  0  3  0  0  0  0  0  0
  186.7420  178.2930  142.8330 C   0  0  0  0  0  3  0  0  0  0  0  0
  183.1680  179.0770  143.4170 C   0  0  0  0  0  3  0  0  0  0  0  0
  184.3790  178.8560  142.7540 C   0  0  0  0  0  0  0  0  0  0  0  0
  184.4570  178.9840  141.3650 C   0  0  0  0  0  3  0  0  0  0  0  0
  185.5310  178.5060  143.4930 C   0  0  0  0  0  0  0  0  0  0  0  0
  183.1000  178.9500  144.8080 C   0  0  0  0  0  3  0  0  0  0  0  0
  185.4560  178.3790  144.8830 C   0  0  0  0  0  3  0  0  0  0  0  0
  189.2110  178.6500  138.5050 C   0  0  1  0  0  3  0  0  0  0  0  0
  187.9880  178.0740  139.1910 C   0  0  1  0  0  3  0  0  0  0  0  0
  189.0770  177.1510  138.6830 C   0  0  0  0  0  2  0  0  0  0  0  0
  189.2580  178.0190  136.2150 O   0  0  0  0  0  1  0  0  0  0  0  0
  188.8440  179.0270  137.0850 C   0  0  0  0  0  2  0  0  0  0  0  0
  189.9750  177.9860  142.0370 C   0  0  0  0  0  2  0  0  0  0  0  0
  191.1750  177.0840  142.3150 C   0  0  1  0  0  3  0  0  0  0  0  0
  192.2340  177.4100  141.4670 O   0  0  0  0  0  1  0  0  0  0  0  0
  191.6390  177.0950  143.7760 C   0  0  1  0  0  3  0  0  0  0  0  0
  191.9130  178.3960  144.2030 O   0  0  0  0  0  1  0  0  0  0  0  0
  190.6330  176.4420  144.7240 C   0  0  0  0  0  2  0  0  0  0  0  0
  190.4190  177.2170  146.0280 C   0  0  1  0  0  3  0  0  0  0  0  0
  188.9920  177.7310  146.1580 C   0  0  0  0  0  2  0  0  0  0  0  0
  188.3840  177.2650  147.4660 C   0  0  0  0  0  3  0  0  0  0  0  0
  187.2700  178.2140  147.8580 C   0  0  0  0  0  2  0  0  0  0  0  0
  188.6200  178.3170  148.5290 C   0  0  0  0  0  2  0  0  0  0  0  0
  190.7700  176.3950  147.1770 N   0  0  0  0  0  2  0  0  0  0  0  0
  192.6810  176.6080  148.4240 O   0  0  0  0  0  0  0  0  0  0  0  0
  192.7540  175.0880  146.7420 O   0  0  0  0  0  0  0  0  0  0  0  0
  192.1000  176.0560  147.4680 N   0  0  0  0  0  0  0  0  0  0  0  0
  1 18  1  0  0  0  0
  2  1  1  1  0  0  0
  2  3  1  0  0  0  0
  3  6  1  0  0  0  0
  4  9  1  0  0  0  0
  4  3  2  0  0  0  0
  6 10  2  0  0  0  0
  7 11  2  0  0  0  0
  8  7  1  0  0  0  0
  8 10  1  0  0  0  0
  9  8  2  0  0  0  0
 10 12  1  0  0  0  0
 11  5  1  0  0  0  0
 12  5  2  0  0  0  0
 13 17  1  6  0  0  0
 13 15  1  0  0  0  0
 13 14  1  0  0  0  0
 14  2  1  1  0  0  0
 15 14  1  0  0  0  0
 16 17  1  0  0  0  0
 18 19  1  0  0  0  0
 19 20  1  6  0  0  0
 19 21  1  0  0  0  0
 21 22  1  1  0  0  0
 21 23  1  0  0  0  0
 24 23  1  6  0  0  0
 24 25  1  0  0  0  0
 24 29  1  0  0  0  0
 25 26  1  0  0  0  0
 26 27  1  0  0  0  0
 26 28  1  0  0  0  0
 27 28  1  0  0  0  0
 29 32  1  0  0  0  0
 31 32  2  0  0  0  0
 32 30  2  0  0  0  0
M  END
>  <MODEL>
2

>  <REMARK>
 VINA RESULT:      -8.1      3.459      6.387
  Name = 
  13 active torsions:
  status: ('A' for Active; 'I' for Inactive)
    1  A    between atoms: O_1  and  C_5
    2  A    between atoms: O_1  and  C_30
    3  A    between atoms: C_2  and  C_5
    4  A    between atoms: C_3  and  C_8
    5  A    between atoms: C_3  and  C_20
    6  A    between atoms: C_4  and  C_24
    7  A    between atoms: C_4  and  C_30
    8  A    between atoms: C_5  and  C_14
    9  A    between atoms: C_13  and  C_29
   10  A    between atoms: N_15  and  C_20
   11  A    between atoms: N_15  and  N_26
   12  A    between atoms: C_16  and  C_20
   13  A    between atoms: C_16  and  C_24
                            x       y       z     vdW  Elec       q    Type
                         _______ _______ _______ _____ _____    ______ ____

>  <TORSDO>
F 13

$$$$
=
 OpenBabel10272413183D

 32 35  0  0  1  0  0  0  0  0999 V2000
  187.9820  178.8810  141.3560 O   0  0  0  0  0  0  0  0  0  0  0  0
  188.8630  177.7750  141.3080 C   0  0  2  0  0  3  0  0  0  0  0  0
  189.5710  177.5200  142.6130 C   0  0  0  0  0  0  0  0  0  0  0  0
  190.9300  177.1820  142.5940 C   0  0  0  0  0  3  0  0  0  0  0  0
  189.5250  176.9700  147.4300 C   0  0  0  0  0  3  0  0  0  0  0  0
  188.8770  177.5400  143.8340 C   0  0  0  0  0  3  0  0  0  0  0  0
  191.5790  176.6090  146.1920 C   0  0  0  0  0  3  0  0  0  0  0  0
  190.9150  176.9130  145.0000 C   0  0  0  0  0  0  0  0  0  0  0  0
  191.6010  176.8840  143.7830 C   0  0  0  0  0  3  0  0  0  0  0  0
  189.5420  177.2460  145.0250 C   0  0  0  0  0  0  0  0  0  0  0  0
  190.8840  176.6370  147.4050 C   0  0  0  0  0  3  0  0  0  0  0  0
  188.8530  177.2720  146.2400 C   0  0  0  0  0  3  0  0  0  0  0  0
  189.1190  176.9890  138.9620 C   0  0  1  0  0  3  0  0  0  0  0  0
  189.7750  177.7760  140.0780 C   0  0  1  0  0  3  0  0  0  0  0  0
  189.0950  178.5030  138.9370 C   0  0  0  0  0  2  0  0  0  0  0  0
  190.5750  175.1970  138.4030 O   0  0  0  0  0  1  0  0  0  0  0  0
  190.1940  176.4830  138.0230 C   0  0  0  0  0  2  0  0  0  0  0  0
  186.7020  178.4280  141.7280 C   0  0  0  0  0  2  0  0  0  0  0  0
  185.6150  179.1160  140.9050 C   0  0  1  0  0  3  0  0  0  0  0  0
  185.7970  178.8580  139.5460 O   0  0  0  0  0  1  0  0  0  0  0  0
  184.1880  178.7530  141.3310 C   0  0  1  0  0  3  0  0  0  0  0  0
  183.5590  177.9740  140.3570 O   0  0  0  0  0  1  0  0  0  0  0  0
  184.1330  178.0340  142.6790 C   0  0  0  0  0  2  0  0  0  0  0  0
  183.2060  178.7020  143.6990 C   0  0  1  0  0  3  0  0  0  0  0  0
  183.9850  179.4160  144.7950 C   0  0  0  0  0  2  0  0  0  0  0  0
  185.1160  178.5370  145.2920 C   0  0  0  0  0  3  0  0  0  0  0  0
  184.9140  178.2610  146.7680 C   0  0  0  0  0  2  0  0  0  0  0  0
  185.9210  179.2960  146.3250 C   0  0  0  0  0  2  0  0  0  0  0  0
  182.2960  179.6260  143.0370 N   0  0  0  0  0  2  0  0  0  0  0  0
  180.1880  180.5040  142.8420 O   0  0  0  0  0  0  0  0  0  0  0  0
  180.3230  178.4370  143.7680 O   0  0  0  0  0  0  0  0  0  0  0  0
  180.9060  179.5570  143.2200 N   0  0  0  0  0  0  0  0  0  0  0  0
  1 18  1  0  0  0  0
  2  1  1  1  0  0  0
  2  3  1  0  0  0  0
  3  6  1  0  0  0  0
  4  3  2  0  0  0  0
  4  9  1  0  0  0  0
  6 10  2  0  0  0  0
  7 11  2  0  0  0  0
  8 10  1  0  0  0  0
  8  7  1  0  0  0  0
  9  8  2  0  0  0  0
 10 12  1  0  0  0  0
 11  5  1  0  0  0  0
 12  5  2  0  0  0  0
 13 17  1  6  0  0  0
 13 14  1  0  0  0  0
 14  2  1  1  0  0  0
 15 13  1  0  0  0  0
 15 14  1  0  0  0  0
 17 16  1  0  0  0  0
 19 20  1  6  0  0  0
 19 21  1  0  0  0  0
 19 18  1  0  0  0  0
 21 22  1  6  0  0  0
 21 23  1  0  0  0  0
 24 23  1  6  0  0  0
 24 25  1  0  0  0  0
 25 26  1  0  0  0  0
 26 28  1  0  0  0  0
 26 27  1  0  0  0  0
 28 27  1  0  0  0  0
 29 32  1  0  0  0  0
 29 24  1  0  0  0  0
 30 32  2  0  0  0  0
 32 31  2  0  0  0  0
M  END
>  <MODEL>
3

>  <REMARK>
 VINA RESULT:      -8.0      2.888      6.931
  Name = 
  13 active torsions:
  status: ('A' for Active; 'I' for Inactive)
    1  A    between atoms: O_1  and  C_5
    2  A    between atoms: O_1  and  C_30
    3  A    between atoms: C_2  and  C_5
    4  A    between atoms: C_3  and  C_8
    5  A    between atoms: C_3  and  C_20
    6  A    between atoms: C_4  and  C_24
    7  A    between atoms: C_4  and  C_30
    8  A    between atoms: C_5  and  C_14
    9  A    between atoms: C_13  and  C_29
   10  A    between atoms: N_15  and  C_20
   11  A    between atoms: N_15  and  N_26
   12  A    between atoms: C_16  and  C_20
   13  A    between atoms: C_16  and  C_24
                            x       y       z     vdW  Elec       q    Type
                         _______ _______ _______ _____ _____    ______ ____

>  <TORSDO>
F 13

$$$$
=
 OpenBabel10272413183D

 32 35  0  0  1  0  0  0  0  0999 V2000
  189.6150  177.8910  143.1070 O   0  0  0  0  0  0  0  0  0  0  0  0
  189.0890  177.4720  144.3510 C   0  0  2  0  0  3  0  0  0  0  0  0
  187.6540  177.8810  144.5600 C   0  0  0  0  0  0  0  0  0  0  0  0
  187.1980  178.1170  145.8620 C   0  0  0  0  0  3  0  0  0  0  0  0
  183.1810  178.6850  142.8710 C   0  0  0  0  0  3  0  0  0  0  0  0
  186.7550  177.9560  143.4840 C   0  0  0  0  0  3  0  0  0  0  0  0
  183.6220  178.8450  145.2510 C   0  0  0  0  0  3  0  0  0  0  0  0
  184.9640  178.5270  145.0250 C   0  0  0  0  0  0  0  0  0  0  0  0
  185.8590  178.4430  146.0950 C   0  0  0  0  0  3  0  0  0  0  0  0
  185.4170  178.2820  143.7090 C   0  0  0  0  0  0  0  0  0  0  0  0
  182.7320  178.9230  144.1740 C   0  0  0  0  0  3  0  0  0  0  0  0
  184.5230  178.3630  142.6380 C   0  0  0  0  0  3  0  0  0  0  0  0
  190.8890  176.5610  145.8050 C   0  0  1  0  0  3  0  0  0  0  0  0
  190.0140  177.7680  145.5340 C   0  0  1  0  0  3  0  0  0  0  0  0
  191.4570  177.7590  145.0710 C   0  0  0  0  0  2  0  0  0  0  0  0
  192.5820  175.9820  147.3680 O   0  0  0  0  0  1  0  0  0  0  0  0
  191.3360  176.5940  147.2520 C   0  0  0  0  0  2  0  0  0  0  0  0
  189.5920  176.8040  142.2120 C   0  0  0  0  0  2  0  0  0  0  0  0
  189.2720  177.2670  140.7930 C   0  0  1  0  0  3  0  0  0  0  0  0
  188.5440  178.4570  140.8220 O   0  0  0  0  0  1  0  0  0  0  0  0
  190.5050  177.4170  139.8940 C   0  0  1  0  0  3  0  0  0  0  0  0
  191.6810  177.3530  140.6430 O   0  0  0  0  0  1  0  0  0  0  0  0
  190.5520  176.3810  138.7710 C   0  0  0  0  0  2  0  0  0  0  0  0
  190.2250  176.9520  137.3870 C   0  0  1  0  0  3  0  0  0  0  0  0
  190.7000  176.0370  136.2670 C   0  0  0  0  0  2  0  0  0  0  0  0
  190.7190  174.5960  136.7390 C   0  0  0  0  0  3  0  0  0  0  0  0
  191.0890  173.7010  135.5740 C   0  0  0  0  0  2  0  0  0  0  0  0
  189.6460  173.8170  136.0080 C   0  0  0  0  0  2  0  0  0  0  0  0
  188.7970  177.2090  137.2630 N   0  0  0  0  0  2  0  0  0  0  0  0
  187.0410  178.6140  137.7010 O   0  0  0  0  0  0  0  0  0  0  0  0
  189.0570  179.6070  137.3940 O   0  0  0  0  0  0  0  0  0  0  0  0
  188.2560  178.4900  137.4460 N   0  0  0  0  0  0  0  0  0  0  0  0
  2  1  1  6  0  0  0
  2  3  1  0  0  0  0
  3  4  1  0  0  0  0
  4  9  2  0  0  0  0
  5 11  1  0  0  0  0
  6 10  1  0  0  0  0
  6  3  2  0  0  0  0
  8  7  1  0  0  0  0
  8  9  1  0  0  0  0
 10  8  2  0  0  0  0
 11  7  2  0  0  0  0
 12  5  2  0  0  0  0
 12 10  1  0  0  0  0
 13 17  1  1  0  0  0
 14  2  1  6  0  0  0
 14 13  1  0  0  0  0
 15 14  1  0  0  0  0
 15 13  1  0  0  0  0
 17 16  1  0  0  0  0
 18  1  1  0  0  0  0
 19 20  1  1  0  0  0
 19 18  1  0  0  0  0
 21 22  1  1  0  0  0
 21 19  1  0  0  0  0
 23 21  1  0  0  0  0
 24 25  1  6  0  0  0
 24 23  1  0  0  0  0
 25 26  1  0  0  0  0
 27 28  1  0  0  0  0
 27 26  1  0  0  0  0
 28 26  1  0  0  0  0
 29 24  1  0  0  0  0
 29 32  1  0  0  0  0
 31 32  2  0  0  0  0
 32 30  2  0  0  0  0
M  END
>  <MODEL>
4

>  <REMARK>
 VINA RESULT:      -7.8      2.896      5.891
  Name = 
  13 active torsions:
  status: ('A' for Active; 'I' for Inactive)
    1  A    between atoms: O_1  and  C_5
    2  A    between atoms: O_1  and  C_30
    3  A    between atoms: C_2  and  C_5
    4  A    between atoms: C_3  and  C_8
    5  A    between atoms: C_3  and  C_20
    6  A    between atoms: C_4  and  C_24
    7  A    between atoms: C_4  and  C_30
    8  A    between atoms: C_5  and  C_14
    9  A    between atoms: C_13  and  C_29
   10  A    between atoms: N_15  and  C_20
   11  A    between atoms: N_15  and  N_26
   12  A    between atoms: C_16  and  C_20
   13  A    between atoms: C_16  and  C_24
                            x       y       z     vdW  Elec       q    Type
                         _______ _______ _______ _____ _____    ______ ____

>  <TORSDO>
F 13

$$$$
=
 OpenBabel10272413183D

 32 35  0  0  1  0  0  0  0  0999 V2000
  184.9340  177.8800  140.5390 O   0  0  0  0  0  0  0  0  0  0  0  0
  184.0500  178.5810  141.3930 C   0  0  2  0  0  3  0  0  0  0  0  0
  184.4540  178.5270  142.8430 C   0  0  0  0  0  0  0  0  0  0  0  0
  183.5600  178.9900  143.8150 C   0  0  0  0  0  3  0  0  0  0  0  0
  187.7440  177.6870  146.3040 C   0  0  0  0  0  3  0  0  0  0  0  0
  185.7340  178.0930  143.2260 C   0  0  0  0  0  3  0  0  0  0  0  0
  185.5700  178.5860  146.8950 C   0  0  0  0  0  3  0  0  0  0  0  0
  185.1950  178.5660  145.5490 C   0  0  0  0  0  0  0  0  0  0  0  0
  183.9260  179.0060  145.1640 C   0  0  0  0  0  3  0  0  0  0  0  0
  186.1060  178.1050  144.5720 C   0  0  0  0  0  0  0  0  0  0  0  0
  186.8440  178.1470  147.2710 C   0  0  0  0  0  3  0  0  0  0  0  0
  187.3760  177.6670  144.9540 C   0  0  0  0  0  3  0  0  0  0  0  0
  182.0380  179.2170  140.0760 C   0  0  1  0  0  3  0  0  0  0  0  0
  182.5750  178.2700  141.1310 C   0  0  1  0  0  3  0  0  0  0  0  0
  182.3970  177.7930  139.7040 C   0  0  0  0  0  2  0  0  0  0  0  0
  180.0110  180.0820  139.1900 O   0  0  0  0  0  1  0  0  0  0  0  0
  180.5370  179.3350  140.2420 C   0  0  0  0  0  2  0  0  0  0  0  0
  185.8390  178.7950  139.9690 C   0  0  0  0  0  2  0  0  0  0  0  0
  186.7030  178.1230  138.9050 C   0  0  1  0  0  3  0  0  0  0  0  0
  186.5520  178.7680  137.6770 O   0  0  0  0  0  1  0  0  0  0  0  0
  188.1870  178.0240  139.2770 C   0  0  1  0  0  3  0  0  0  0  0  0
  188.8830  179.1610  138.8590 O   0  0  0  0  0  1  0  0  0  0  0  0
  188.4130  177.8040  140.7720 C   0  0  0  0  0  2  0  0  0  0  0  0
  189.8480  177.4080  141.1300 C   0  0  1  0  0  3  0  0  0  0  0  0
  189.9420  176.8010  142.5230 C   0  0  0  0  0  2  0  0  0  0  0  0
  191.2810  177.1340  143.1510 C   0  0  0  0  0  3  0  0  0  0  0  0
  191.0680  177.4790  144.6110 C   0  0  0  0  0  2  0  0  0  0  0  0
  191.2760  178.5810  143.5990 C   0  0  0  0  0  2  0  0  0  0  0  0
  190.3890  176.4890  140.1380 N   0  0  0  0  0  2  0  0  0  0  0  0
  192.5320  177.2410  139.8310 O   0  0  0  0  0  0  0  0  0  0  0  0
  191.3870  176.7010  137.9490 O   0  0  0  0  0  0  0  0  0  0  0  0
  191.4700  176.8400  139.3150 N   0  0  0  0  0  0  0  0  0  0  0  0
  2  1  1  6  0  0  0
  2  3  1  0  0  0  0
  3  6  2  0  0  0  0
  3  4  1  0  0  0  0
  4  9  2  0  0  0  0
  5 11  1  0  0  0  0
  6 10  1  0  0  0  0
  7 11  2  0  0  0  0
  8  7  1  0  0  0  0
  9  8  1  0  0  0  0
 10 12  1  0  0  0  0
 10  8  2  0  0  0  0
 12  5  2  0  0  0  0
 13 17  1  1  0  0  0
 13 14  1  0  0  0  0
 14  2  1  6  0  0  0
 15 13  1  0  0  0  0
 15 14  1  0  0  0  0
 16 17  1  0  0  0  0
 18  1  1  0  0  0  0
 19 20  1  6  0  0  0
 19 21  1  0  0  0  0
 19 18  1  0  0  0  0
 21 22  1  1  0  0  0
 21 23  1  0  0  0  0
 24 23  1  6  0  0  0
 24 25  1  0  0  0  0
 25 26  1  0  0  0  0
 26 28  1  0  0  0  0
 26 27  1  0  0  0  0
 28 27  1  0  0  0  0
 29 24  1  0  0  0  0
 31 32  2  0  0  0  0
 32 30  2  0  0  0  0
 32 29  1  0  0  0  0
M  END
>  <MODEL>
5

>  <REMARK>
 VINA RESULT:      -7.7      1.391      2.087
  Name = 
  13 active torsions:
  status: ('A' for Active; 'I' for Inactive)
    1  A    between atoms: O_1  and  C_5
    2  A    between atoms: O_1  and  C_30
    3  A    between atoms: C_2  and  C_5
    4  A    between atoms: C_3  and  C_8
    5  A    between atoms: C_3  and  C_20
    6  A    between atoms: C_4  and  C_24
    7  A    between atoms: C_4  and  C_30
    8  A    between atoms: C_5  and  C_14
    9  A    between atoms: C_13  and  C_29
   10  A    between atoms: N_15  and  C_20
   11  A    between atoms: N_15  and  N_26
   12  A    between atoms: C_16  and  C_20
   13  A    between atoms: C_16  and  C_24
                            x       y       z     vdW  Elec       q    Type
                         _______ _______ _______ _____ _____    ______ ____

>  <TORSDO>
F 13

$$$$
=
 OpenBabel10272413183D

 32 35  0  0  1  0  0  0  0  0999 V2000
  189.4860  177.9710  142.9130 O   0  0  0  0  0  0  0  0  0  0  0  0
  189.0030  177.5330  144.1680 C   0  0  2  0  0  3  0  0  0  0  0  0
  187.5670  177.9140  144.4200 C   0  0  0  0  0  0  0  0  0  0  0  0
  187.1240  178.0590  145.7400 C   0  0  0  0  0  3  0  0  0  0  0  0
  183.0680  178.7850  142.8380 C   0  0  0  0  0  3  0  0  0  0  0  0
  186.6540  178.0510  143.3610 C   0  0  0  0  0  3  0  0  0  0  0  0
  183.5340  178.7910  145.2180 C   0  0  0  0  0  3  0  0  0  0  0  0
  184.8770  178.5010  144.9560 C   0  0  0  0  0  0  0  0  0  0  0  0
  185.7850  178.3550  146.0080 C   0  0  0  0  0  3  0  0  0  0  0  0
  185.3160  178.3490  143.6220 C   0  0  0  0  0  0  0  0  0  0  0  0
  182.6310  178.9320  144.1590 C   0  0  0  0  0  3  0  0  0  0  0  0
  184.4090  178.4920  142.5690 C   0  0  0  0  0  3  0  0  0  0  0  0
  190.4960  176.5410  145.8920 C   0  0  1  0  0  3  0  0  0  0  0  0
  189.9550  177.8390  145.3270 C   0  0  1  0  0  3  0  0  0  0  0  0
  191.3560  177.3840  144.9730 C   0  0  0  0  0  2  0  0  0  0  0  0
  192.2440  176.3860  147.4920 O   0  0  0  0  0  1  0  0  0  0  0  0
  190.9150  176.7700  147.3300 C   0  0  0  0  0  2  0  0  0  0  0  0
  189.4200  176.9000  142.0010 C   0  0  0  0  0  2  0  0  0  0  0  0
  189.1470  177.4000  140.5840 C   0  0  1  0  0  3  0  0  0  0  0  0
  188.5770  178.6730  140.6200 O   0  0  0  0  0  1  0  0  0  0  0  0
  190.3790  177.3930  139.6720 C   0  0  1  0  0  3  0  0  0  0  0  0
  191.5450  177.6250  140.4050 O   0  0  0  0  0  1  0  0  0  0  0  0
  190.5210  176.0960  138.8750 C   0  0  0  0  0  2  0  0  0  0  0  0
  190.4120  176.2860  137.3590 C   0  0  1  0  0  3  0  0  0  0  0  0
  189.6010  177.5220  136.9970 C   0  0  0  0  0  2  0  0  0  0  0  0
  188.1680  177.1360  136.6850 C   0  0  0  0  0  3  0  0  0  0  0  0
  187.4930  178.2860  135.9660 C   0  0  0  0  0  2  0  0  0  0  0  0
  187.2280  178.0560  137.4350 C   0  0  0  0  0  2  0  0  0  0  0  0
  191.7340  176.3500  136.7530 N   0  0  0  0  0  2  0  0  0  0  0  0
  193.1410  174.7520  137.5990 O   0  0  0  0  0  0  0  0  0  0  0  0
  193.7690  176.9060  137.9290 O   0  0  0  0  0  0  0  0  0  0  0  0
  192.8890  175.9640  137.4500 N   0  0  0  0  0  0  0  0  0  0  0  0
  2  1  1  6  0  0  0
  2  3  1  0  0  0  0
  3  4  1  0  0  0  0
  4  9  2  0  0  0  0
  5 11  1  0  0  0  0
  6 10  1  0  0  0  0
  6  3  2  0  0  0  0
  8  7  1  0  0  0  0
  8  9  1  0  0  0  0
 10  8  2  0  0  0  0
 11  7  2  0  0  0  0
 12  5  2  0  0  0  0
 12 10  1  0  0  0  0
 13 17  1  1  0  0  0
 14  2  1  6  0  0  0
 14 13  1  0  0  0  0
 15 14  1  0  0  0  0
 15 13  1  0  0  0  0
 17 16  1  0  0  0  0
 18  1  1  0  0  0  0
 19 20  1  1  0  0  0
 19 18  1  0  0  0  0
 21 22  1  1  0  0  0
 21 19  1  0  0  0  0
 23 21  1  0  0  0  0
 24 25  1  1  0  0  0
 24 23  1  0  0  0  0
 26 25  1  0  0  0  0
 26 28  1  0  0  0  0
 27 26  1  0  0  0  0
 27 28  1  0  0  0  0
 29 24  1  0  0  0  0
 29 32  1  0  0  0  0
 32 30  2  0  0  0  0
 32 31  2  0  0  0  0
M  END
>  <MODEL>
6

>  <REMARK>
 VINA RESULT:      -7.7      2.350      5.605
  Name = 
  13 active torsions:
  status: ('A' for Active; 'I' for Inactive)
    1  A    between atoms: O_1  and  C_5
    2  A    between atoms: O_1  and  C_30
    3  A    between atoms: C_2  and  C_5
    4  A    between atoms: C_3  and  C_8
    5  A    between atoms: C_3  and  C_20
    6  A    between atoms: C_4  and  C_24
    7  A    between atoms: C_4  and  C_30
    8  A    between atoms: C_5  and  C_14
    9  A    between atoms: C_13  and  C_29
   10  A    between atoms: N_15  and  C_20
   11  A    between atoms: N_15  and  N_26
   12  A    between atoms: C_16  and  C_20
   13  A    between atoms: C_16  and  C_24
                            x       y       z     vdW  Elec       q    Type
                         _______ _______ _______ _____ _____    ______ ____

>  <TORSDO>
F 13

$$$$
=
 OpenBabel10272413183D

 32 35  0  0  1  0  0  0  0  0999 V2000
  185.4800  177.9340  142.2250 O   0  0  0  0  0  0  0  0  0  0  0  0
  184.8200  178.4940  143.3450 C   0  0  2  0  0  3  0  0  0  0  0  0
  185.5980  178.3510  144.6280 C   0  0  0  0  0  0  0  0  0  0  0  0
  185.0230  178.7970  145.8240 C   0  0  0  0  0  3  0  0  0  0  0  0
  189.6530  177.2140  147.0280 C   0  0  0  0  0  3  0  0  0  0  0  0
  186.9100  177.8510  144.6310 C   0  0  0  0  0  3  0  0  0  0  0  0
  187.7680  178.1620  148.2230 C   0  0  0  0  0  3  0  0  0  0  0  0
  187.0420  178.2250  147.0290 C   0  0  0  0  0  0  0  0  0  0  0  0
  185.7400  178.7310  147.0210 C   0  0  0  0  0  3  0  0  0  0  0  0
  187.6310  177.7800  145.8240 C   0  0  0  0  0  0  0  0  0  0  0  0
  189.0720  177.6580  148.2210 C   0  0  0  0  0  3  0  0  0  0  0  0
  188.9350  177.2770  145.8300 C   0  0  0  0  0  3  0  0  0  0  0  0
  182.4800  179.3360  143.3800 C   0  0  1  0  0  3  0  0  0  0  0  0
  183.3460  178.0940  143.4460 C   0  0  1  0  0  3  0  0  0  0  0  0
  182.6300  178.4510  142.1600 C   0  0  0  0  0  2  0  0  0  0  0  0
  180.1180  179.5670  143.2890 O   0  0  0  0  0  1  0  0  0  0  0  0
  181.1570  179.0470  144.0580 C   0  0  0  0  0  2  0  0  0  0  0  0
  185.8520  178.9720  141.3500 C   0  0  0  0  0  2  0  0  0  0  0  0
  185.6790  178.5500  139.8920 C   0  0  1  0  0  3  0  0  0  0  0  0
  185.0380  179.5550  139.1680 O   0  0  0  0  0  1  0  0  0  0  0  0
  186.9860  178.1450  139.2020 C   0  0  1  0  0  3  0  0  0  0  0  0
  187.0760  178.7140  137.9290 O   0  0  0  0  0  1  0  0  0  0  0  0
  188.2280  178.5090  140.0160 C   0  0  0  0  0  2  0  0  0  0  0  0
  189.0900  177.3040  140.4020 C   0  0  1  0  0  3  0  0  0  0  0  0
  190.4620  177.3510  139.7450 C   0  0  0  0  0  2  0  0  0  0  0  0
  190.6420  176.1640  138.8190 C   0  0  0  0  0  3  0  0  0  0  0  0
  191.9200  176.3460  138.0260 C   0  0  0  0  0  2  0  0  0  0  0  0
  190.5850  176.6390  137.3820 C   0  0  0  0  0  2  0  0  0  0  0  0
  189.2220  177.2100  141.8490 N   0  0  0  0  0  2  0  0  0  0  0  0
  190.4270  175.4140  142.6060 O   0  0  0  0  0  0  0  0  0  0  0  0
  191.4120  177.4430  142.8410 O   0  0  0  0  0  0  0  0  0  0  0  0
  190.3570  176.6500  142.4550 N   0  0  0  0  0  0  0  0  0  0  0  0
  2  1  1  6  0  0  0
  2  3  1  0  0  0  0
  3  6  2  0  0  0  0
  3  4  1  0  0  0  0
  4  9  2  0  0  0  0
  5 11  1  0  0  0  0
  6 10  1  0  0  0  0
  8  7  1  0  0  0  0
  9  8  1  0  0  0  0
 10 12  1  0  0  0  0
 10  8  2  0  0  0  0
 11  7  2  0  0  0  0
 12  5  2  0  0  0  0
 13 14  1  0  0  0  0
 13 17  1  1  0  0  0
 14  2  1  6  0  0  0
 15 13  1  0  0  0  0
 15 14  1  0  0  0  0
 16 17  1  0  0  0  0
 18  1  1  0  0  0  0
 19 20  1  6  0  0  0
 19 18  1  0  0  0  0
 21 22  1  6  0  0  0
 21 19  1  0  0  0  0
 21 23  1  0  0  0  0
 23 24  1  0  0  0  0
 24 25  1  6  0  0  0
 24 29  1  0  0  0  0
 26 25  1  0  0  0  0
 27 26  1  0  0  0  0
 28 27  1  0  0  0  0
 28 26  1  0  0  0  0
 29 32  1  0  0  0  0
 32 30  2  0  0  0  0
 32 31  2  0  0  0  0
M  END
>  <MODEL>
7

>  <REMARK>
 VINA RESULT:      -7.7      1.974      2.497
  Name = 
  13 active torsions:
  status: ('A' for Active; 'I' for Inactive)
    1  A    between atoms: O_1  and  C_5
    2  A    between atoms: O_1  and  C_30
    3  A    between atoms: C_2  and  C_5
    4  A    between atoms: C_3  and  C_8
    5  A    between atoms: C_3  and  C_20
    6  A    between atoms: C_4  and  C_24
    7  A    between atoms: C_4  and  C_30
    8  A    between atoms: C_5  and  C_14
    9  A    between atoms: C_13  and  C_29
   10  A    between atoms: N_15  and  C_20
   11  A    between atoms: N_15  and  N_26
   12  A    between atoms: C_16  and  C_20
   13  A    between atoms: C_16  and  C_24
                            x       y       z     vdW  Elec       q    Type
                         _______ _______ _______ _____ _____    ______ ____

>  <TORSDO>
F 13

$$$$
=
 OpenBabel10272413183D

 32 35  0  0  1  0  0  0  0  0999 V2000
  189.0180  176.7660  143.7000 O   0  0  0  0  0  0  0  0  0  0  0  0
  188.3180  177.0470  144.8970 C   0  0  2  0  0  3  0  0  0  0  0  0
  186.9540  177.6440  144.6640 C   0  0  0  0  0  0  0  0  0  0  0  0
  186.2560  178.1860  145.7490 C   0  0  0  0  0  3  0  0  0  0  0  0
  183.1630  178.5730  141.7890 C   0  0  0  0  0  3  0  0  0  0  0  0
  186.3460  177.5970  143.3990 C   0  0  0  0  0  3  0  0  0  0  0  0
  183.0700  179.1610  144.1400 C   0  0  0  0  0  3  0  0  0  0  0  0
  184.3620  178.6590  144.3180 C   0  0  0  0  0  0  0  0  0  0  0  0
  184.9670  178.6960  145.5770 C   0  0  0  0  0  3  0  0  0  0  0  0
  185.0590  178.1060  143.2200 C   0  0  0  0  0  0  0  0  0  0  0  0
  182.4710  179.1170  142.8770 C   0  0  0  0  0  3  0  0  0  0  0  0
  184.4560  178.0660  141.9600 C   0  0  0  0  0  3  0  0  0  0  0  0
  189.0670  177.0600  147.2690 C   0  0  1  0  0  3  0  0  0  0  0  0
  189.1650  177.7810  145.9390 C   0  0  1  0  0  3  0  0  0  0  0  0
  190.2970  176.8870  146.4020 C   0  0  0  0  0  2  0  0  0  0  0  0
  188.1900  178.3290  149.0750 O   0  0  0  0  0  1  0  0  0  0  0  0
  189.3650  178.0420  148.3820 C   0  0  0  0  0  2  0  0  0  0  0  0
  189.7490  177.9080  143.3210 C   0  0  0  0  0  2  0  0  0  0  0  0
  191.1240  177.5250  142.7790 C   0  0  1  0  0  3  0  0  0  0  0  0
  191.4570  176.2280  143.1690 O   0  0  0  0  0  1  0  0  0  0  0  0
  191.2590  177.6760  141.2590 C   0  0  1  0  0  3  0  0  0  0  0  0
  192.5320  177.2940  140.8300 O   0  0  0  0  0  1  0  0  0  0  0  0
  190.1990  176.8920  140.4870 C   0  0  0  0  0  2  0  0  0  0  0  0
  189.7320  177.5830  139.2020 C   0  0  1  0  0  3  0  0  0  0  0  0
  190.5200  177.1180  137.9860 C   0  0  0  0  0  2  0  0  0  0  0  0
  190.3400  175.6250  137.7850 C   0  0  0  0  0  3  0  0  0  0  0  0
  191.7050  174.9740  137.6860 C   0  0  0  0  0  2  0  0  0  0  0  0
  190.9010  175.2330  136.4330 C   0  0  0  0  0  2  0  0  0  0  0  0
  188.3060  177.3730  138.9950 N   0  0  0  0  0  2  0  0  0  0  0  0
  186.3720  178.6020  138.9580 O   0  0  0  0  0  0  0  0  0  0  0  0
  187.9050  179.1090  137.3650 O   0  0  0  0  0  0  0  0  0  0  0  0
  187.4820  178.3640  138.4410 N   0  0  0  0  0  0  0  0  0  0  0  0
  2  1  1  6  0  0  0
  3  2  1  0  0  0  0
  3  4  1  0  0  0  0
  5 12  2  0  0  0  0
  5 11  1  0  0  0  0
  6  3  2  0  0  0  0
  7  8  1  0  0  0  0
  8  9  1  0  0  0  0
  9  4  2  0  0  0  0
 10  6  1  0  0  0  0
 10  8  2  0  0  0  0
 11  7  2  0  0  0  0
 12 10  1  0  0  0  0
 13 17  1  1  0  0  0
 14  2  1  6  0  0  0
 14 15  1  0  0  0  0
 14 13  1  0  0  0  0
 15 13  1  0  0  0  0
 17 16  1  0  0  0  0
 18  1  1  0  0  0  0
 19 20  1  6  0  0  0
 19 18  1  0  0  0  0
 21 22  1  6  0  0  0
 21 19  1  0  0  0  0
 23 21  1  0  0  0  0
 24 25  1  6  0  0  0
 24 23  1  0  0  0  0
 26 25  1  0  0  0  0
 27 26  1  0  0  0  0
 28 27  1  0  0  0  0
 28 26  1  0  0  0  0
 29 24  1  0  0  0  0
 31 32  2  0  0  0  0
 32 30  2  0  0  0  0
 32 29  1  0  0  0  0
M  END
>  <MODEL>
8

>  <REMARK>
 VINA RESULT:      -7.6      2.460      5.637
  Name = 
  13 active torsions:
  status: ('A' for Active; 'I' for Inactive)
    1  A    between atoms: O_1  and  C_5
    2  A    between atoms: O_1  and  C_30
    3  A    between atoms: C_2  and  C_5
    4  A    between atoms: C_3  and  C_8
    5  A    between atoms: C_3  and  C_20
    6  A    between atoms: C_4  and  C_24
    7  A    between atoms: C_4  and  C_30
    8  A    between atoms: C_5  and  C_14
    9  A    between atoms: C_13  and  C_29
   10  A    between atoms: N_15  and  C_20
   11  A    between atoms: N_15  and  N_26
   12  A    between atoms: C_16  and  C_20
   13  A    between atoms: C_16  and  C_24
                            x       y       z     vdW  Elec       q    Type
                         _______ _______ _______ _____ _____    ______ ____

>  <TORSDO>
F 13

$$$$
=
 OpenBabel10272413183D

 32 35  0  0  1  0  0  0  0  0999 V2000
  189.1250  176.9780  141.4170 O   0  0  0  0  0  0  0  0  0  0  0  0
  188.3630  178.0280  140.8520 C   0  0  2  0  0  3  0  0  0  0  0  0
  187.0580  178.2680  141.5640 C   0  0  0  0  0  0  0  0  0  0  0  0
  185.9740  178.7800  140.8420 C   0  0  0  0  0  3  0  0  0  0  0  0
  184.4000  178.4210  145.6160 C   0  0  0  0  0  3  0  0  0  0  0  0
  186.9350  178.0600  142.9480 C   0  0  0  0  0  3  0  0  0  0  0  0
  183.4370  179.1430  143.5110 C   0  0  0  0  0  3  0  0  0  0  0  0
  184.6390  178.8520  142.8600 C   0  0  0  0  0  0  0  0  0  0  0  0
  184.7670  179.0670  141.4850 C   0  0  0  0  0  3  0  0  0  0  0  0
  185.7320  178.3430  143.5960 C   0  0  0  0  0  0  0  0  0  0  0  0
  183.3190  178.9290  144.8880 C   0  0  0  0  0  3  0  0  0  0  0  0
  185.6070  178.1300  144.9720 C   0  0  0  0  0  3  0  0  0  0  0  0
  189.3630  178.7580  138.6940 C   0  0  1  0  0  3  0  0  0  0  0  0
  188.2510  177.9450  139.3270 C   0  0  1  0  0  3  0  0  0  0  0  0
  189.4710  177.2480  138.7610 C   0  0  0  0  0  2  0  0  0  0  0  0
  189.1380  178.1180  136.4170 O   0  0  0  0  0  1  0  0  0  0  0  0
  188.9330  179.1750  137.3030 C   0  0  0  0  0  2  0  0  0  0  0  0
  190.2900  177.5200  141.9930 C   0  0  0  0  0  2  0  0  0  0  0  0
  190.5330  176.9460  143.3870 C   0  0  1  0  0  3  0  0  0  0  0  0
  191.6640  176.1290  143.3860 O   0  0  0  0  0  1  0  0  0  0  0  0
  190.6400  178.0060  144.4880 C   0  0  1  0  0  3  0  0  0  0  0  0
  190.8260  179.2780  143.9410 O   0  0  0  0  0  1  0  0  0  0  0  0
  189.4300  178.0200  145.4220 C   0  0  0  0  0  2  0  0  0  0  0  0
  189.4540  176.9140  146.4820 C   0  0  1  0  0  3  0  0  0  0  0  0
  190.6810  177.0090  147.3770 C   0  0  0  0  0  2  0  0  0  0  0  0
  191.2730  175.6310  147.6030 C   0  0  0  0  0  3  0  0  0  0  0  0
  192.7300  175.7780  147.9910 C   0  0  0  0  0  2  0  0  0  0  0  0
  192.3620  175.3820  146.5800 C   0  0  0  0  0  2  0  0  0  0  0  0
  188.2370  176.9430  147.2810 N   0  0  0  0  0  2  0  0  0  0  0  0
  186.8500  178.6420  147.9430 O   0  0  0  0  0  0  0  0  0  0  0  0
  188.7590  178.3920  149.1420 O   0  0  0  0  0  0  0  0  0  0  0  0
  187.9220  178.0280  148.1130 N   0  0  0  0  0  0  0  0  0  0  0  0
  1 18  1  0  0  0  0
  2  1  1  1  0  0  0
  2  3  1  0  0  0  0
  3  6  1  0  0  0  0
  4  9  1  0  0  0  0
  4  3  2  0  0  0  0
  6 10  2  0  0  0  0
  7 11  2  0  0  0  0
  8  7  1  0  0  0  0
  8 10  1  0  0  0  0
  9  8  2  0  0  0  0
 10 12  1  0  0  0  0
 11  5  1  0  0  0  0
 12  5  2  0  0  0  0
 13 17  1  6  0  0  0
 13 15  1  0  0  0  0
 13 14  1  0  0  0  0
 14  2  1  1  0  0  0
 15 14  1  0  0  0  0
 16 17  1  0  0  0  0
 18 19  1  0  0  0  0
 19 20  1  6  0  0  0
 19 21  1  0  0  0  0
 21 22  1  6  0  0  0
 21 23  1  0  0  0  0
 24 23  1  6  0  0  0
 24 29  1  0  0  0  0
 24 25  1  0  0  0  0
 25 26  1  0  0  0  0
 26 27  1  0  0  0  0
 28 26  1  0  0  0  0
 28 27  1  0  0  0  0
 29 32  1  0  0  0  0
 30 32  2  0  0  0  0
 32 31  2  0  0  0  0
M  END
>  <MODEL>
9

>  <REMARK>
 VINA RESULT:      -7.6      3.433      6.603
  Name = 
  13 active torsions:
  status: ('A' for Active; 'I' for Inactive)
    1  A    between atoms: O_1  and  C_5
    2  A    between atoms: O_1  and  C_30
    3  A    between atoms: C_2  and  C_5
    4  A    between atoms: C_3  and  C_8
    5  A    between atoms: C_3  and  C_20
    6  A    between atoms: C_4  and  C_24
    7  A    between atoms: C_4  and  C_30
    8  A    between atoms: C_5  and  C_14
    9  A    between atoms: C_13  and  C_29
   10  A    between atoms: N_15  and  C_20
   11  A    between atoms: N_15  and  N_26
   12  A    between atoms: C_16  and  C_20
   13  A    between atoms: C_16  and  C_24
                            x       y       z     vdW  Elec       q    Type
                         _______ _______ _______ _____ _____    ______ ____

>  <TORSDO>
F 13

$$$$
