=
 OpenBabel10272400113D

 34 38  0  0  1  0  0  0  0  0999 V2000
  189.7870  177.1350  146.6280 C   0  0  0  0  0  0  0  0  0  0  0  0
  191.3520  176.1320  145.0610 C   0  0  0  0  0  0  0  0  0  0  0  0
  189.2670  177.2420  144.2390 C   0  0  0  0  0  0  0  0  0  0  0  0
  188.6570  177.3610  141.8290 C   0  0  0  0  0  0  0  0  0  0  0  0
  190.6550  176.8360  147.6800 C   0  0  0  0  0  3  0  0  0  0  0  0
  192.2040  175.8320  146.1280 C   0  0  0  0  0  3  0  0  0  0  0  0
  190.9880  177.8330  142.5030 C   0  0  0  0  0  2  0  0  0  0  0  0
  190.1500  176.8470  145.2850 C   0  0  0  0  0  0  0  0  0  0  0  0
  191.4290  177.3520  141.1240 C   0  0  0  0  0  2  0  0  0  0  0  0
  189.0240  177.1200  140.3990 C   0  0  0  0  0  2  0  0  0  0  0  0
  191.8690  176.2000  147.4290 C   0  0  0  0  0  3  0  0  0  0  0  0
  187.9650  177.6860  144.5620 C   0  0  0  0  0  0  0  0  0  0  0  0
  188.5440  177.6890  146.9200 C   0  0  0  0  0  3  0  0  0  0  0  0
  191.6660  175.6170  143.8470 F   0  0  0  0  0  0  0  0  0  0  0  0
  187.3980  177.6590  142.1390 C   0  0  0  0  0  3  0  0  0  0  0  0
  187.0040  177.9040  143.4990 N   0  0  0  0  0  0  0  0  0  0  0  0
  190.3830  177.7460  140.0840 C   0  0  2  0  0  3  0  0  0  0  0  0
  189.6690  177.2920  142.8510 N   0  0  0  0  0  0  0  0  0  0  0  0
  187.6340  177.9410  145.9000 C   0  0  0  0  0  3  0  0  0  0  0  0
  183.3790  178.6560  142.9040 C   0  0  0  0  0  0  0  0  0  0  0  0
  182.9430  178.9550  144.1970 C   0  0  0  0  0  3  0  0  0  0  0  0
  185.6340  178.2840  143.7390 C   0  0  0  0  0  0  0  0  0  0  0  0
  183.8450  178.9140  145.2640 C   0  0  0  0  0  3  0  0  0  0  0  0
  184.7160  178.3180  142.6770 C   0  0  0  0  0  3  0  0  0  0  0  0
  185.1810  178.5760  145.0370 C   0  0  0  0  0  3  0  0  0  0  0  0
  182.2510  178.7000  141.5680 Cl  0  0  0  0  0  0  0  0  0  0  0  0
  190.8410  177.3980  138.6710 C   0  0  0  0  0  2  0  0  0  0  0  0
  189.7430  176.7280  137.8540 C   0  0  0  0  0  2  0  0  0  0  0  0
  189.2810  178.9890  137.1920 O   0  0  0  0  0  1  0  0  0  0  0  0
  189.2550  177.6620  136.7570 C   0  0  2  0  0  3  0  0  0  0  0  0
  187.9280  177.2690  136.2480 N   0  0  0  0  0  2  0  0  0  0  0  0
  185.9790  177.8600  137.7150 C   0  0  0  0  0  1  0  0  0  0  0  0
  186.9640  176.7950  137.2560 C   0  0  0  0  0  3  0  0  0  0  0  0
  186.2600  175.5210  136.8220 C   0  0  0  0  0  1  0  0  0  0  0  0
  1 13  1  0  0  0  0
  1  5  2  0  0  0  0
  2  8  2  0  0  0  0
  2  6  1  0  0  0  0
  3 12  2  0  0  0  0
  3  8  1  0  0  0  0
  4 15  2  0  0  0  0
  4 18  1  0  0  0  0
  6 11  2  0  0  0  0
  7 18  1  0  0  0  0
  8  1  1  0  0  0  0
  9  7  1  0  0  0  0
 10  4  1  0  0  0  0
 11  5  1  0  0  0  0
 12 19  1  0  0  0  0
 14  2  1  0  0  0  0
 15 16  1  0  0  0  0
 16 22  1  0  0  0  0
 16 12  1  0  0  0  0
 17 27  1  6  0  0  0
 17 10  1  0  0  0  0
 17  9  1  0  0  0  0
 18  3  1  0  0  0  0
 19 13  2  0  0  0  0
 20 21  1  0  0  0  0
 21 23  2  0  0  0  0
 22 25  2  0  0  0  0
 24 20  2  0  0  0  0
 24 22  1  0  0  0  0
 25 23  1  0  0  0  0
 26 20  1  0  0  0  0
 28 27  1  0  0  0  0
 30 29  1  1  0  0  0
 30 28  1  0  0  0  0
 31 30  1  0  0  0  0
 31 33  1  0  0  0  0
 33 32  1  0  0  0  0
 34 33  1  0  0  0  0
M  END
>  <MODEL>
1

>  <REMARK>
 VINA RESULT:     -10.3      0.000      0.000
  Name = 
  6 active torsions:
  status: ('A' for Active; 'I' for Inactive)
    1  A    between atoms: C_3  and  C_13
    2  A    between atoms: C_3  and  C_29
    3  A    between atoms: C_12  and  N_28
    4  A    between atoms: C_13  and  C_33
    5  A    between atoms: C_20  and  N_22
    6  A    between atoms: N_22  and  C_33
                            x       y       z     vdW  Elec       q    Type
                         _______ _______ _______ _____ _____    ______ ____

>  <TORSDO>
F 6

$$$$
=
 OpenBabel10272400113D

 34 38  0  0  1  0  0  0  0  0999 V2000
  189.8700  177.1140  146.7030 C   0  0  0  0  0  0  0  0  0  0  0  0
  191.4520  176.0720  145.1780 C   0  0  0  0  0  0  0  0  0  0  0  0
  189.3890  177.1840  144.3040 C   0  0  0  0  0  0  0  0  0  0  0  0
  188.8180  177.2670  141.8820 C   0  0  0  0  0  0  0  0  0  0  0  0
  190.7180  176.8260  147.7730 C   0  0  0  0  0  3  0  0  0  0  0  0
  192.2840  175.7830  146.2640 C   0  0  0  0  0  3  0  0  0  0  0  0
  191.1430  177.7310  142.5860 C   0  0  0  0  0  2  0  0  0  0  0  0
  190.2520  176.8000  145.3710 C   0  0  0  0  0  0  0  0  0  0  0  0
  191.6010  177.2230  141.2230 C   0  0  0  0  0  2  0  0  0  0  0  0
  189.2070  176.9980  140.4630 C   0  0  0  0  0  2  0  0  0  0  0  0
  191.9310  176.1760  147.5530 C   0  0  0  0  0  3  0  0  0  0  0  0
  188.0850  177.6440  144.5980 C   0  0  0  0  0  0  0  0  0  0  0  0
  188.6270  177.6830  146.9650 C   0  0  0  0  0  3  0  0  0  0  0  0
  191.7800  175.5330  143.9780 F   0  0  0  0  0  0  0  0  0  0  0  0
  187.5570  177.5800  142.1680 C   0  0  0  0  0  3  0  0  0  0  0  0
  187.1440  177.8510  143.5160 N   0  0  0  0  0  0  0  0  0  0  0  0
  190.5750  177.6080  140.1600 C   0  0  2  0  0  3  0  0  0  0  0  0
  189.8140  177.2070  142.9220 N   0  0  0  0  0  0  0  0  0  0  0  0
  187.7350  177.9240  145.9260 C   0  0  0  0  0  3  0  0  0  0  0  0
  183.5350  178.6190  142.8510 C   0  0  0  0  0  0  0  0  0  0  0  0
  183.0810  178.9470  144.1320 C   0  0  0  0  0  3  0  0  0  0  0  0
  185.7730  178.2470  143.7280 C   0  0  0  0  0  0  0  0  0  0  0  0
  183.9660  178.9190  145.2120 C   0  0  0  0  0  3  0  0  0  0  0  0
  184.8720  178.2670  142.6520 C   0  0  0  0  0  3  0  0  0  0  0  0
  185.3030  178.5670  145.0130 C   0  0  0  0  0  3  0  0  0  0  0  0
  182.4270  178.6470  141.4970 Cl  0  0  0  0  0  0  0  0  0  0  0  0
  191.0540  177.2330  138.7600 C   0  0  0  0  0  2  0  0  0  0  0  0
  189.9080  176.7960  137.8550 C   0  0  0  0  0  2  0  0  0  0  0  0
  189.0200  174.6690  137.1830 O   0  0  0  0  0  1  0  0  0  0  0  0
  190.1930  175.4230  137.2660 C   0  0  2  0  0  3  0  0  0  0  0  0
  191.2570  174.7170  138.0020 N   0  0  0  0  0  2  0  0  0  0  0  0
  192.2020  174.4160  135.6960 C   0  0  0  0  0  1  0  0  0  0  0  0
  192.3950  174.2430  137.1960 C   0  0  0  0  0  3  0  0  0  0  0  0
  193.7150  174.8250  137.6680 C   0  0  0  0  0  1  0  0  0  0  0  0
  1 13  1  0  0  0  0
  1  5  2  0  0  0  0
  2  8  2  0  0  0  0
  2  6  1  0  0  0  0
  3 12  2  0  0  0  0
  3  8  1  0  0  0  0
  4 15  2  0  0  0  0
  4 18  1  0  0  0  0
  6 11  2  0  0  0  0
  7 18  1  0  0  0  0
  8  1  1  0  0  0  0
  9  7  1  0  0  0  0
 10  4  1  0  0  0  0
 11  5  1  0  0  0  0
 12 19  1  0  0  0  0
 14  2  1  0  0  0  0
 15 16  1  0  0  0  0
 16 22  1  0  0  0  0
 16 12  1  0  0  0  0
 17 27  1  6  0  0  0
 17 10  1  0  0  0  0
 17  9  1  0  0  0  0
 18  3  1  0  0  0  0
 19 13  2  0  0  0  0
 20 21  1  0  0  0  0
 21 23  2  0  0  0  0
 22 25  2  0  0  0  0
 24 20  2  0  0  0  0
 24 22  1  0  0  0  0
 25 23  1  0  0  0  0
 26 20  1  0  0  0  0
 28 27  1  0  0  0  0
 30 29  1  1  0  0  0
 30 28  1  0  0  0  0
 30 31  1  0  0  0  0
 32 33  1  0  0  0  0
 33 34  1  0  0  0  0
 33 31  1  0  0  0  0
M  END
>  <MODEL>
2

>  <REMARK>
 VINA RESULT:     -10.2      1.609      2.388
  Name = 
  6 active torsions:
  status: ('A' for Active; 'I' for Inactive)
    1  A    between atoms: C_3  and  C_13
    2  A    between atoms: C_3  and  C_29
    3  A    between atoms: C_12  and  N_28
    4  A    between atoms: C_13  and  C_33
    5  A    between atoms: C_20  and  N_22
    6  A    between atoms: N_22  and  C_33
                            x       y       z     vdW  Elec       q    Type
                         _______ _______ _______ _____ _____    ______ ____

>  <TORSDO>
F 6

$$$$
=
 OpenBabel10272400113D

 34 38  0  0  1  0  0  0  0  0999 V2000
  190.7950  176.5230  144.9140 C   0  0  0  0  0  0  0  0  0  0  0  0
  189.2810  177.6620  146.4380 C   0  0  0  0  0  0  0  0  0  0  0  0
  188.7400  177.4910  144.0020 C   0  0  0  0  0  0  0  0  0  0  0  0
  186.6870  178.4780  142.9980 C   0  0  0  0  0  0  0  0  0  0  0  0
  191.6080  176.1700  145.9920 C   0  0  0  0  0  3  0  0  0  0  0  0
  190.1130  177.3080  147.5040 C   0  0  0  0  0  3  0  0  0  0  0  0
  186.5080  177.2430  145.1330 C   0  0  0  0  0  2  0  0  0  0  0  0
  189.5770  177.2220  145.1250 C   0  0  0  0  0  0  0  0  0  0  0  0
  185.2990  178.1100  145.4720 C   0  0  0  0  0  2  0  0  0  0  0  0
  185.3740  179.1690  143.1830 C   0  0  0  0  0  2  0  0  0  0  0  0
  191.2600  176.5480  147.2880 C   0  0  0  0  0  3  0  0  0  0  0  0
  189.2410  177.2770  142.6980 C   0  0  0  0  0  0  0  0  0  0  0  0
  191.2150  176.2090  143.6250 C   0  0  0  0  0  3  0  0  0  0  0  0
  188.2670  178.5240  146.6960 F   0  0  0  0  0  0  0  0  0  0  0  0
  187.2130  178.3880  141.7800 C   0  0  0  0  0  3  0  0  0  0  0  0
  188.4690  177.7290  141.5570 N   0  0  0  0  0  0  0  0  0  0  0  0
  184.5140  178.4160  144.1990 C   0  0  2  0  0  3  0  0  0  0  0  0
  187.3590  177.8980  144.1330 N   0  0  0  0  0  0  0  0  0  0  0  0
  190.4570  176.6020  142.5270 C   0  0  0  0  0  3  0  0  0  0  0  0
  188.6370  178.0950  137.8300 C   0  0  0  0  0  0  0  0  0  0  0  0
  189.8580  177.4780  137.5460 C   0  0  0  0  0  3  0  0  0  0  0  0
  188.9350  177.6190  140.1960 C   0  0  0  0  0  0  0  0  0  0  0  0
  190.6230  176.9360  138.5810 C   0  0  0  0  0  3  0  0  0  0  0  0
  188.1810  178.1700  139.1490 C   0  0  0  0  0  3  0  0  0  0  0  0
  190.1660  177.0110  139.9000 C   0  0  0  0  0  3  0  0  0  0  0  0
  187.6810  178.7800  136.5340 Cl  0  0  0  0  0  0  0  0  0  0  0  0
  183.2250  179.1730  144.5060 C   0  0  0  0  0  2  0  0  0  0  0  0
  182.0150  178.5650  143.8050 C   0  0  0  0  0  2  0  0  0  0  0  0
  180.5080  180.1500  142.8170 O   0  0  0  0  0  1  0  0  0  0  0  0
  181.6500  179.3830  142.5760 C   0  0  2  0  0  3  0  0  0  0  0  0
  181.5100  178.5410  141.3740 N   0  0  0  0  0  2  0  0  0  0  0  0
  182.6150  176.7770  139.9710 C   0  0  0  0  0  1  0  0  0  0  0  0
  182.7660  178.0630  140.7710 C   0  0  0  0  0  3  0  0  0  0  0  0
  183.4690  179.1470  139.9730 C   0  0  0  0  0  1  0  0  0  0  0  0
  1  8  1  0  0  0  0
  1  5  2  0  0  0  0
  2 14  1  0  0  0  0
  2  6  1  0  0  0  0
  3 18  1  0  0  0  0
  3  8  1  0  0  0  0
  4 10  1  0  0  0  0
  4 18  1  0  0  0  0
  5 11  1  0  0  0  0
  7  9  1  0  0  0  0
  8  2  2  0  0  0  0
 10 17  1  0  0  0  0
 11  6  2  0  0  0  0
 12  3  2  0  0  0  0
 13  1  1  0  0  0  0
 15  4  2  0  0  0  0
 16 15  1  0  0  0  0
 16 12  1  0  0  0  0
 17 27  1  1  0  0  0
 17  9  1  0  0  0  0
 18  7  1  0  0  0  0
 19 12  1  0  0  0  0
 19 13  2  0  0  0  0
 20 24  1  0  0  0  0
 21 20  2  0  0  0  0
 21 23  1  0  0  0  0
 22 16  1  0  0  0  0
 23 25  2  0  0  0  0
 24 22  2  0  0  0  0
 25 22  1  0  0  0  0
 26 20  1  0  0  0  0
 28 27  1  0  0  0  0
 30 29  1  1  0  0  0
 30 28  1  0  0  0  0
 31 30  1  0  0  0  0
 32 33  1  0  0  0  0
 33 31  1  0  0  0  0
 34 33  1  0  0  0  0
M  END
>  <MODEL>
3

>  <REMARK>
 VINA RESULT:     -10.1      2.904      6.016
  Name = 
  6 active torsions:
  status: ('A' for Active; 'I' for Inactive)
    1  A    between atoms: C_3  and  C_13
    2  A    between atoms: C_3  and  C_29
    3  A    between atoms: C_12  and  N_28
    4  A    between atoms: C_13  and  C_33
    5  A    between atoms: C_20  and  N_22
    6  A    between atoms: N_22  and  C_33
                            x       y       z     vdW  Elec       q    Type
                         _______ _______ _______ _____ _____    ______ ____

>  <TORSDO>
F 6

$$$$
=
 OpenBabel10272400113D

 34 38  0  0  1  0  0  0  0  0999 V2000
  190.7330  176.6340  145.5080 C   0  0  0  0  0  0  0  0  0  0  0  0
  188.7570  177.8970  146.1520 C   0  0  0  0  0  0  0  0  0  0  0  0
  189.2090  177.3820  143.7460 C   0  0  0  0  0  0  0  0  0  0  0  0
  187.7210  178.1370  141.8980 C   0  0  0  0  0  0  0  0  0  0  0  0
  191.0570  176.4630  146.8550 C   0  0  0  0  0  3  0  0  0  0  0  0
  189.1030  177.7240  147.4950 C   0  0  0  0  0  3  0  0  0  0  0  0
  186.7090  177.1890  143.9450 C   0  0  0  0  0  2  0  0  0  0  0  0
  189.5370  177.3010  145.1310 C   0  0  0  0  0  0  0  0  0  0  0  0
  185.4730  178.0390  143.6640 C   0  0  0  0  0  2  0  0  0  0  0  0
  186.4470  178.7880  141.4610 C   0  0  0  0  0  2  0  0  0  0  0  0
  190.2350  176.9920  147.8480 C   0  0  0  0  0  3  0  0  0  0  0  0
  190.1760  177.0200  142.7810 C   0  0  0  0  0  0  0  0  0  0  0  0
  191.6190  176.1710  144.5400 C   0  0  0  0  0  3  0  0  0  0  0  0
  187.7330  178.7400  145.8740 F   0  0  0  0  0  0  0  0  0  0  0  0
  188.6800  177.9100  141.0040 C   0  0  0  0  0  3  0  0  0  0  0  0
  189.9160  177.2830  141.3800 N   0  0  0  0  0  0  0  0  0  0  0  0
  185.2510  178.1390  142.1570 C   0  0  2  0  0  3  0  0  0  0  0  0
  187.8900  177.7420  143.2730 N   0  0  0  0  0  0  0  0  0  0  0  0
  191.3550  176.3820  143.1920 C   0  0  0  0  0  3  0  0  0  0  0  0
  191.4020  176.0490  138.1670 C   0  0  0  0  0  0  0  0  0  0  0  0
  192.7060  176.5410  138.2580 C   0  0  0  0  0  3  0  0  0  0  0  0
  190.8740  177.0140  140.3360 C   0  0  0  0  0  0  0  0  0  0  0  0
  193.0970  177.2740  139.3810 C   0  0  0  0  0  3  0  0  0  0  0  0
  190.4890  176.2880  139.1980 C   0  0  0  0  0  3  0  0  0  0  0  0
  192.1850  177.5140  140.4120 C   0  0  0  0  0  3  0  0  0  0  0  0
  190.9080  175.1350  136.7580 Cl  0  0  0  0  0  0  0  0  0  0  0  0
  183.9530  178.8730  141.8320 C   0  0  0  0  0  2  0  0  0  0  0  0
  183.3210  178.3840  140.5340 C   0  0  0  0  0  2  0  0  0  0  0  0
  183.9650  180.2870  139.2200 O   0  0  0  0  0  1  0  0  0  0  0  0
  184.1030  178.9010  139.3370 C   0  0  2  0  0  3  0  0  0  0  0  0
  183.7380  178.1990  138.0930 N   0  0  0  0  0  2  0  0  0  0  0  0
  186.2290  178.0300  137.8320 C   0  0  0  0  0  1  0  0  0  0  0  0
  184.8530  177.6100  137.3330 C   0  0  0  0  0  3  0  0  0  0  0  0
  184.7310  176.1020  137.2090 C   0  0  0  0  0  1  0  0  0  0  0  0
  1  5  2  0  0  0  0
  2  6  1  0  0  0  0
  3  8  1  0  0  0  0
  4 18  1  0  0  0  0
  5 11  1  0  0  0  0
  6 11  2  0  0  0  0
  8  1  1  0  0  0  0
  8  2  2  0  0  0  0
  9  7  1  0  0  0  0
 10  4  1  0  0  0  0
 10 17  1  0  0  0  0
 12 19  1  0  0  0  0
 12  3  2  0  0  0  0
 13  1  1  0  0  0  0
 14  2  1  0  0  0  0
 15 16  1  0  0  0  0
 15  4  2  0  0  0  0
 16 12  1  0  0  0  0
 17 27  1  1  0  0  0
 17  9  1  0  0  0  0
 18  3  1  0  0  0  0
 18  7  1  0  0  0  0
 19 13  2  0  0  0  0
 20 21  2  0  0  0  0
 20 24  1  0  0  0  0
 21 23  1  0  0  0  0
 22 25  1  0  0  0  0
 22 16  1  0  0  0  0
 23 25  2  0  0  0  0
 24 22  2  0  0  0  0
 26 20  1  0  0  0  0
 28 27  1  0  0  0  0
 30 29  1  6  0  0  0
 30 28  1  0  0  0  0
 31 30  1  0  0  0  0
 33 32  1  0  0  0  0
 33 31  1  0  0  0  0
 34 33  1  0  0  0  0
M  END
>  <MODEL>
4

>  <REMARK>
 VINA RESULT:      -9.6      2.717      5.619
  Name = 
  6 active torsions:
  status: ('A' for Active; 'I' for Inactive)
    1  A    between atoms: C_3  and  C_13
    2  A    between atoms: C_3  and  C_29
    3  A    between atoms: C_12  and  N_28
    4  A    between atoms: C_13  and  C_33
    5  A    between atoms: C_20  and  N_22
    6  A    between atoms: N_22  and  C_33
                            x       y       z     vdW  Elec       q    Type
                         _______ _______ _______ _____ _____    ______ ____

>  <TORSDO>
F 6

$$$$
=
 OpenBabel10272400113D

 34 38  0  0  1  0  0  0  0  0999 V2000
  189.6420  177.2620  146.3130 C   0  0  0  0  0  0  0  0  0  0  0  0
  191.4900  176.1730  145.1680 C   0  0  0  0  0  0  0  0  0  0  0  0
  189.6100  177.1860  143.8670 C   0  0  0  0  0  0  0  0  0  0  0  0
  189.4930  177.1190  141.3810 C   0  0  0  0  0  0  0  0  0  0  0  0
  190.2820  177.0540  147.5360 C   0  0  0  0  0  3  0  0  0  0  0  0
  192.1120  175.9650  146.4030 C   0  0  0  0  0  3  0  0  0  0  0  0
  191.6420  177.6770  142.4690 C   0  0  0  0  0  2  0  0  0  0  0  0
  190.2670  176.8820  145.0950 C   0  0  0  0  0  0  0  0  0  0  0  0
  192.3500  177.1030  141.2460 C   0  0  0  0  0  2  0  0  0  0  0  0
  190.1390  176.7800  140.0750 C   0  0  0  0  0  2  0  0  0  0  0  0
  191.5230  176.4220  147.5800 C   0  0  0  0  0  3  0  0  0  0  0  0
  188.2680  177.6310  143.8900 C   0  0  0  0  0  0  0  0  0  0  0  0
  188.3650  177.8160  146.3090 C   0  0  0  0  0  3  0  0  0  0  0  0
  192.0410  175.5750  144.0830 F   0  0  0  0  0  0  0  0  0  0  0  0
  188.1970  177.4180  141.4120 C   0  0  0  0  0  3  0  0  0  0  0  0
  187.5400  177.7550  142.6430 N   0  0  0  0  0  0  0  0  0  0  0  0
  191.5320  177.4030  139.9920 C   0  0  2  0  0  3  0  0  0  0  0  0
  190.2810  177.1410  142.5870 N   0  0  0  0  0  0  0  0  0  0  0  0
  187.6770  177.9770  145.1120 C   0  0  0  0  0  3  0  0  0  0  0  0
  184.0620  178.6690  143.7070 C   0  0  0  0  0  0  0  0  0  0  0  0
  183.4550  178.9260  142.4750 C   0  0  0  0  0  3  0  0  0  0  0  0
  186.1480  178.1290  142.5770 C   0  0  0  0  0  0  0  0  0  0  0  0
  184.1900  178.7940  141.2940 C   0  0  0  0  0  3  0  0  0  0  0  0
  185.4030  178.2770  143.7580 C   0  0  0  0  0  3  0  0  0  0  0  0
  185.5300  178.4020  141.3450 C   0  0  0  0  0  3  0  0  0  0  0  0
  183.1460  178.8410  145.1870 Cl  0  0  0  0  0  0  0  0  0  0  0  0
  192.2650  176.9620  138.7280 C   0  0  0  0  0  2  0  0  0  0  0  0
  191.6370  175.7240  138.0980 C   0  0  0  0  0  2  0  0  0  0  0  0
  193.2940  176.1660  136.4180 O   0  0  0  0  0  1  0  0  0  0  0  0
  192.0240  175.6230  136.6310 C   0  0  2  0  0  3  0  0  0  0  0  0
  191.0070  176.2240  135.7490 N   0  0  0  0  0  2  0  0  0  0  0  0
  189.2430  177.9170  136.3190 C   0  0  0  0  0  1  0  0  0  0  0  0
  189.6860  176.4610  136.3550 C   0  0  0  0  0  3  0  0  0  0  0  0
  188.6230  175.5320  135.7970 C   0  0  0  0  0  1  0  0  0  0  0  0
  1  5  2  0  0  0  0
  2  6  1  0  0  0  0
  3 12  2  0  0  0  0
  3  8  1  0  0  0  0
  4 15  2  0  0  0  0
  4 18  1  0  0  0  0
  5 11  1  0  0  0  0
  6 11  2  0  0  0  0
  7 18  1  0  0  0  0
  8  2  2  0  0  0  0
  8  1  1  0  0  0  0
  9  7  1  0  0  0  0
 10  4  1  0  0  0  0
 12 19  1  0  0  0  0
 13  1  1  0  0  0  0
 14  2  1  0  0  0  0
 15 16  1  0  0  0  0
 16 12  1  0  0  0  0
 17 27  1  6  0  0  0
 17 10  1  0  0  0  0
 17  9  1  0  0  0  0
 18  3  1  0  0  0  0
 19 13  2  0  0  0  0
 20 24  1  0  0  0  0
 20 26  1  0  0  0  0
 21 20  2  0  0  0  0
 22 16  1  0  0  0  0
 22 24  2  0  0  0  0
 23 25  2  0  0  0  0
 23 21  1  0  0  0  0
 25 22  1  0  0  0  0
 28 27  1  0  0  0  0
 30 29  1  1  0  0  0
 30 28  1  0  0  0  0
 31 33  1  0  0  0  0
 31 30  1  0  0  0  0
 32 33  1  0  0  0  0
 34 33  1  0  0  0  0
M  END
>  <MODEL>
5

>  <REMARK>
 VINA RESULT:      -9.5      1.690      2.056
  Name = 
  6 active torsions:
  status: ('A' for Active; 'I' for Inactive)
    1  A    between atoms: C_3  and  C_13
    2  A    between atoms: C_3  and  C_29
    3  A    between atoms: C_12  and  N_28
    4  A    between atoms: C_13  and  C_33
    5  A    between atoms: C_20  and  N_22
    6  A    between atoms: N_22  and  C_33
                            x       y       z     vdW  Elec       q    Type
                         _______ _______ _______ _____ _____    ______ ____

>  <TORSDO>
F 6

$$$$
=
 OpenBabel10272400113D

 34 38  0  0  1  0  0  0  0  0999 V2000
  187.1700  178.3970  147.1900 C   0  0  0  0  0  0  0  0  0  0  0  0
  189.2120  177.2660  146.5070 C   0  0  0  0  0  0  0  0  0  0  0  0
  187.5080  177.9490  144.8080 C   0  0  0  0  0  0  0  0  0  0  0  0
  187.7690  177.4990  142.3730 C   0  0  0  0  0  0  0  0  0  0  0  0
  187.6280  178.4180  148.5080 C   0  0  0  0  0  3  0  0  0  0  0  0
  189.6490  177.2880  147.8350 C   0  0  0  0  0  3  0  0  0  0  0  0
  189.7070  178.3490  143.6530 C   0  0  0  0  0  2  0  0  0  0  0  0
  187.9860  177.8770  146.1490 C   0  0  0  0  0  0  0  0  0  0  0  0
  190.6130  177.6430  142.6490 C   0  0  0  0  0  2  0  0  0  0  0  0
  188.6170  177.0070  141.2430 C   0  0  0  0  0  2  0  0  0  0  0  0
  188.8730  177.8790  148.8290 C   0  0  0  0  0  3  0  0  0  0  0  0
  186.1620  178.3070  144.5690 C   0  0  0  0  0  0  0  0  0  0  0  0
  185.8880  178.8620  146.9170 C   0  0  0  0  0  3  0  0  0  0  0  0
  189.9420  176.5470  145.6200 F   0  0  0  0  0  0  0  0  0  0  0  0
  186.4720  177.7160  142.1720 C   0  0  0  0  0  3  0  0  0  0  0  0
  185.6240  178.1940  143.2280 N   0  0  0  0  0  0  0  0  0  0  0  0
  189.9810  177.6970  141.2600 C   0  0  2  0  0  3  0  0  0  0  0  0
  188.3660  177.7530  143.6600 N   0  0  0  0  0  0  0  0  0  0  0  0
  185.3800  178.7960  145.6240 C   0  0  0  0  0  3  0  0  0  0  0  0
  182.4570  178.5900  141.2610 C   0  0  0  0  0  0  0  0  0  0  0  0
  181.5460  178.9220  142.2680 C   0  0  0  0  0  3  0  0  0  0  0  0
  184.2440  178.4660  142.9060 C   0  0  0  0  0  0  0  0  0  0  0  0
  181.9770  179.0210  143.5930 C   0  0  0  0  0  3  0  0  0  0  0  0
  183.7980  178.3580  141.5800 C   0  0  0  0  0  3  0  0  0  0  0  0
  183.3180  178.7890  143.9110 C   0  0  0  0  0  3  0  0  0  0  0  0
  181.9180  178.4600  139.6020 Cl  0  0  0  0  0  0  0  0  0  0  0  0
  190.9110  177.1160  140.2000 C   0  0  0  0  0  2  0  0  0  0  0  0
  192.3280  177.6690  140.3070 C   0  0  0  0  0  2  0  0  0  0  0  0
  194.5570  176.7780  140.2860 O   0  0  0  0  0  1  0  0  0  0  0  0
  193.3170  176.7220  139.6450 C   0  0  2  0  0  3  0  0  0  0  0  0
  193.4290  176.9660  138.1960 N   0  0  0  0  0  2  0  0  0  0  0  0
  194.5560  174.8960  137.3300 C   0  0  0  0  0  1  0  0  0  0  0  0
  193.3160  175.7790  137.3310 C   0  0  0  0  0  3  0  0  0  0  0  0
  192.0540  174.9820  137.6110 C   0  0  0  0  0  1  0  0  0  0  0  0
  1  5  2  0  0  0  0
  2  6  1  0  0  0  0
  3  8  1  0  0  0  0
  4 18  1  0  0  0  0
  5 11  1  0  0  0  0
  6 11  2  0  0  0  0
  7 18  1  0  0  0  0
  8  2  2  0  0  0  0
  8  1  1  0  0  0  0
  9  7  1  0  0  0  0
 10 17  1  0  0  0  0
 10  4  1  0  0  0  0
 12  3  2  0  0  0  0
 12 19  1  0  0  0  0
 13  1  1  0  0  0  0
 14  2  1  0  0  0  0
 15  4  2  0  0  0  0
 15 16  1  0  0  0  0
 16 12  1  0  0  0  0
 17 27  1  6  0  0  0
 17  9  1  0  0  0  0
 18  3  1  0  0  0  0
 19 13  2  0  0  0  0
 20 24  2  0  0  0  0
 20 21  1  0  0  0  0
 21 23  2  0  0  0  0
 22 16  1  0  0  0  0
 22 25  2  0  0  0  0
 23 25  1  0  0  0  0
 24 22  1  0  0  0  0
 26 20  1  0  0  0  0
 27 28  1  0  0  0  0
 30 29  1  1  0  0  0
 30 28  1  0  0  0  0
 31 30  1  0  0  0  0
 32 33  1  0  0  0  0
 33 34  1  0  0  0  0
 33 31  1  0  0  0  0
M  END
>  <MODEL>
6

>  <REMARK>
 VINA RESULT:      -9.5      2.563      3.475
  Name = 
  6 active torsions:
  status: ('A' for Active; 'I' for Inactive)
    1  A    between atoms: C_3  and  C_13
    2  A    between atoms: C_3  and  C_29
    3  A    between atoms: C_12  and  N_28
    4  A    between atoms: C_13  and  C_33
    5  A    between atoms: C_20  and  N_22
    6  A    between atoms: N_22  and  C_33
                            x       y       z     vdW  Elec       q    Type
                         _______ _______ _______ _____ _____    ______ ____

>  <TORSDO>
F 6

$$$$
=
 OpenBabel10272400113D

 34 38  0  0  1  0  0  0  0  0999 V2000
  182.5220  179.3680  139.7840 C   0  0  0  0  0  0  0  0  0  0  0  0
  181.6830  178.7520  141.9820 C   0  0  0  0  0  0  0  0  0  0  0  0
  184.1410  178.7710  141.5200 C   0  0  0  0  0  0  0  0  0  0  0  0
  185.8440  178.1460  143.2250 C   0  0  0  0  0  0  0  0  0  0  0  0
  181.2190  179.6520  139.3710 C   0  0  0  0  0  3  0  0  0  0  0  0
  180.3840  179.0320  141.5470 C   0  0  0  0  0  3  0  0  0  0  0  0
  183.9650  179.6130  143.8840 C   0  0  0  0  0  2  0  0  0  0  0  0
  182.7870  178.9740  141.1230 C   0  0  0  0  0  0  0  0  0  0  0  0
  184.1060  179.0680  145.3020 C   0  0  0  0  0  2  0  0  0  0  0  0
  186.1690  177.7780  144.6380 C   0  0  0  0  0  2  0  0  0  0  0  0
  180.1530  179.5000  140.2560 C   0  0  0  0  0  3  0  0  0  0  0  0
  185.1530  178.7310  140.5350 C   0  0  0  0  0  0  0  0  0  0  0  0
  183.5530  179.4440  138.8530 C   0  0  0  0  0  3  0  0  0  0  0  0
  181.8220  178.1600  143.1940 F   0  0  0  0  0  0  0  0  0  0  0  0
  186.7650  177.9890  142.2790 C   0  0  0  0  0  3  0  0  0  0  0  0
  186.4960  178.3360  140.9120 N   0  0  0  0  0  0  0  0  0  0  0  0
  185.5780  178.8020  145.6060 C   0  0  2  0  0  3  0  0  0  0  0  0
  184.5470  178.6870  142.9060 N   0  0  0  0  0  0  0  0  0  0  0  0
  184.8520  179.1070  139.2190 C   0  0  0  0  0  3  0  0  0  0  0  0
  189.9120  177.7210  139.4940 C   0  0  0  0  0  0  0  0  0  0  0  0
  189.6700  177.8500  138.1240 C   0  0  0  0  0  3  0  0  0  0  0  0
  187.5730  178.1960  139.9620 C   0  0  0  0  0  0  0  0  0  0  0  0
  188.3830  178.1440  137.6680 C   0  0  0  0  0  3  0  0  0  0  0  0
  188.8680  177.8890  140.4070 C   0  0  0  0  0  3  0  0  0  0  0  0
  187.3390  178.3110  138.5810 C   0  0  0  0  0  3  0  0  0  0  0  0
  191.5220  177.3460  140.0660 Cl  0  0  0  0  0  0  0  0  0  0  0  0
  185.7810  178.3780  147.0580 C   0  0  0  0  0  2  0  0  0  0  0  0
  187.1250  178.8340  147.6120 C   0  0  0  0  0  2  0  0  0  0  0  0
  188.7750  178.0720  149.1810 O   0  0  0  0  0  1  0  0  0  0  0  0
  187.8910  177.6520  148.1840 C   0  0  2  0  0  3  0  0  0  0  0  0
  188.5690  176.8720  147.1330 N   0  0  0  0  0  2  0  0  0  0  0  0
  191.0550  176.5740  146.9620 C   0  0  0  0  0  1  0  0  0  0  0  0
  189.8380  177.4270  146.6340 C   0  0  0  0  0  3  0  0  0  0  0  0
  189.7720  177.7760  145.1580 C   0  0  0  0  0  1  0  0  0  0  0  0
  1  8  1  0  0  0  0
  2 14  1  0  0  0  0
  3 18  1  0  0  0  0
  4 10  1  0  0  0  0
  5  1  2  0  0  0  0
  5 11  1  0  0  0  0
  6  2  1  0  0  0  0
  7  9  1  0  0  0  0
  8  3  1  0  0  0  0
  8  2  2  0  0  0  0
  9 17  1  0  0  0  0
 10 17  1  0  0  0  0
 11  6  2  0  0  0  0
 12 16  1  0  0  0  0
 12  3  2  0  0  0  0
 13 19  2  0  0  0  0
 13  1  1  0  0  0  0
 15  4  2  0  0  0  0
 16 15  1  0  0  0  0
 17 27  1  1  0  0  0
 18  4  1  0  0  0  0
 18  7  1  0  0  0  0
 19 12  1  0  0  0  0
 20 26  1  0  0  0  0
 20 24  1  0  0  0  0
 21 20  2  0  0  0  0
 22 24  2  0  0  0  0
 22 16  1  0  0  0  0
 23 21  1  0  0  0  0
 23 25  2  0  0  0  0
 25 22  1  0  0  0  0
 27 28  1  0  0  0  0
 28 30  1  0  0  0  0
 30 29  1  1  0  0  0
 31 30  1  0  0  0  0
 33 32  1  0  0  0  0
 33 31  1  0  0  0  0
 34 33  1  0  0  0  0
M  END
>  <MODEL>
7

>  <REMARK>
 VINA RESULT:      -9.3      3.772      8.887
  Name = 
  6 active torsions:
  status: ('A' for Active; 'I' for Inactive)
    1  A    between atoms: C_3  and  C_13
    2  A    between atoms: C_3  and  C_29
    3  A    between atoms: C_12  and  N_28
    4  A    between atoms: C_13  and  C_33
    5  A    between atoms: C_20  and  N_22
    6  A    between atoms: N_22  and  C_33
                            x       y       z     vdW  Elec       q    Type
                         _______ _______ _______ _____ _____    ______ ____

>  <TORSDO>
F 6

$$$$
=
 OpenBabel10272400113D

 34 38  0  0  1  0  0  0  0  0999 V2000
  189.7680  177.1430  146.2130 C   0  0  0  0  0  0  0  0  0  0  0  0
  191.5070  176.0750  144.8900 C   0  0  0  0  0  0  0  0  0  0  0  0
  189.5320  177.1320  143.7760 C   0  0  0  0  0  0  0  0  0  0  0  0
  189.2090  177.1320  141.3080 C   0  0  0  0  0  0  0  0  0  0  0  0
  190.5060  176.8990  147.3720 C   0  0  0  0  0  3  0  0  0  0  0  0
  192.2280  175.8310  146.0630 C   0  0  0  0  0  3  0  0  0  0  0  0
  191.4450  177.6490  142.2280 C   0  0  0  0  0  2  0  0  0  0  0  0
  190.2870  176.7920  144.9370 C   0  0  0  0  0  0  0  0  0  0  0  0
  192.0450  177.1050  140.9350 C   0  0  0  0  0  2  0  0  0  0  0  0
  189.7420  176.8240  139.9450 C   0  0  0  0  0  2  0  0  0  0  0  0
  191.7420  176.2590  147.2960 C   0  0  0  0  0  3  0  0  0  0  0  0
  188.2010  177.5830  143.9230 C   0  0  0  0  0  0  0  0  0  0  0  0
  188.5000  177.7030  146.3290 C   0  0  0  0  0  3  0  0  0  0  0  0
  191.9610  175.5040  143.7470 F   0  0  0  0  0  0  0  0  0  0  0  0
  187.9220  177.4360  141.4550 C   0  0  0  0  0  3  0  0  0  0  0  0
  187.3720  177.7440  142.7450 N   0  0  0  0  0  0  0  0  0  0  0  0
  191.1280  177.4420  139.7620 C   0  0  2  0  0  3  0  0  0  0  0  0
  190.0950  177.1180  142.4440 N   0  0  0  0  0  0  0  0  0  0  0  0
  187.7150  177.9000  145.1990 C   0  0  0  0  0  3  0  0  0  0  0  0
  184.0270  178.7400  144.1160 C   0  0  0  0  0  0  0  0  0  0  0  0
  183.2970  178.9430  142.9430 C   0  0  0  0  0  3  0  0  0  0  0  0
  185.9820  178.1270  142.8050 C   0  0  0  0  0  0  0  0  0  0  0  0
  183.9040  178.7460  141.7010 C   0  0  0  0  0  3  0  0  0  0  0  0
  185.3640  178.3390  144.0470 C   0  0  0  0  0  3  0  0  0  0  0  0
  185.2410  178.3450  141.6320 C   0  0  0  0  0  3  0  0  0  0  0  0
  183.2700  178.9920  145.6730 Cl  0  0  0  0  0  0  0  0  0  0  0  0
  191.7490  177.0310  138.4300 C   0  0  0  0  0  2  0  0  0  0  0  0
  193.1980  176.5810  138.5820 C   0  0  0  0  0  2  0  0  0  0  0  0
  192.8630  175.8530  136.3190 O   0  0  0  0  0  1  0  0  0  0  0  0
  193.8200  176.3320  137.2170 C   0  0  2  0  0  3  0  0  0  0  0  0
  194.9960  175.4460  137.3000 N   0  0  0  0  0  2  0  0  0  0  0  0
  194.6570  172.9670  137.4950 C   0  0  0  0  0  1  0  0  0  0  0  0
  194.8730  174.2930  138.2090 C   0  0  0  0  0  3  0  0  0  0  0  0
  196.0180  174.2210  139.2030 C   0  0  0  0  0  1  0  0  0  0  0  0
  1 13  1  0  0  0  0
  1  5  2  0  0  0  0
  2  8  2  0  0  0  0
  2  6  1  0  0  0  0
  3 12  2  0  0  0  0
  3  8  1  0  0  0  0
  4 15  2  0  0  0  0
  4 18  1  0  0  0  0
  6 11  2  0  0  0  0
  7 18  1  0  0  0  0
  8  1  1  0  0  0  0
  9  7  1  0  0  0  0
 10  4  1  0  0  0  0
 11  5  1  0  0  0  0
 12 19  1  0  0  0  0
 14  2  1  0  0  0  0
 15 16  1  0  0  0  0
 16 22  1  0  0  0  0
 16 12  1  0  0  0  0
 17 27  1  6  0  0  0
 17 10  1  0  0  0  0
 17  9  1  0  0  0  0
 18  3  1  0  0  0  0
 19 13  2  0  0  0  0
 20 26  1  0  0  0  0
 21 20  2  0  0  0  0
 22 24  2  0  0  0  0
 23 21  1  0  0  0  0
 24 20  1  0  0  0  0
 25 23  2  0  0  0  0
 25 22  1  0  0  0  0
 27 28  1  0  0  0  0
 30 29  1  6  0  0  0
 30 31  1  0  0  0  0
 30 28  1  0  0  0  0
 31 33  1  0  0  0  0
 32 33  1  0  0  0  0
 33 34  1  0  0  0  0
M  END
>  <MODEL>
8

>  <REMARK>
 VINA RESULT:      -9.2      2.567      3.606
  Name = 
  6 active torsions:
  status: ('A' for Active; 'I' for Inactive)
    1  A    between atoms: C_3  and  C_13
    2  A    between atoms: C_3  and  C_29
    3  A    between atoms: C_12  and  N_28
    4  A    between atoms: C_13  and  C_33
    5  A    between atoms: C_20  and  N_22
    6  A    between atoms: N_22  and  C_33
                            x       y       z     vdW  Elec       q    Type
                         _______ _______ _______ _____ _____    ______ ____

>  <TORSDO>
F 6

$$$$
=
 OpenBabel10272400113D

 34 38  0  0  1  0  0  0  0  0999 V2000
  187.1750  178.0730  146.9220 C   0  0  0  0  0  0  0  0  0  0  0  0
  189.1430  177.1110  145.8650 C   0  0  0  0  0  0  0  0  0  0  0  0
  187.2370  177.9490  144.4780 C   0  0  0  0  0  0  0  0  0  0  0  0
  187.2170  177.8260  141.9920 C   0  0  0  0  0  0  0  0  0  0  0  0
  187.7840  177.9390  148.1700 C   0  0  0  0  0  3  0  0  0  0  0  0
  189.7330  176.9760  147.1250 C   0  0  0  0  0  3  0  0  0  0  0  0
  189.2750  178.5710  143.1420 C   0  0  0  0  0  2  0  0  0  0  0  0
  187.8710  177.7210  145.7340 C   0  0  0  0  0  0  0  0  0  0  0  0
  190.0700  178.0320  141.9560 C   0  0  0  0  0  2  0  0  0  0  0  0
  187.9340  177.5140  140.7170 C   0  0  0  0  0  2  0  0  0  0  0  0
  189.0690  177.4070  148.2710 C   0  0  0  0  0  3  0  0  0  0  0  0
  185.8660  178.2870  144.4450 C   0  0  0  0  0  0  0  0  0  0  0  0
  185.8600  178.5250  146.8610 C   0  0  0  0  0  3  0  0  0  0  0  0
  189.7770  176.5380  144.8130 F   0  0  0  0  0  0  0  0  0  0  0  0
  185.9010  178.0230  141.9710 C   0  0  0  0  0  3  0  0  0  0  0  0
  185.1750  178.3300  143.1710 N   0  0  0  0  0  0  0  0  0  0  0  0
  189.2770  178.2430  140.6680 C   0  0  2  0  0  3  0  0  0  0  0  0
  187.9570  177.9330  143.2230 N   0  0  0  0  0  0  0  0  0  0  0  0
  185.2050  178.6090  145.6380 C   0  0  0  0  0  3  0  0  0  0  0  0
  181.7870  178.8530  141.6520 C   0  0  0  0  0  0  0  0  0  0  0  0
  180.9990  179.0350  142.7910 C   0  0  0  0  0  3  0  0  0  0  0  0
  183.7620  178.5930  143.0490 C   0  0  0  0  0  0  0  0  0  0  0  0
  181.5840  178.9900  144.0580 C   0  0  0  0  0  3  0  0  0  0  0  0
  183.1610  178.6280  141.7810 C   0  0  0  0  0  3  0  0  0  0  0  0
  182.9570  178.7660  144.1870 C   0  0  0  0  0  3  0  0  0  0  0  0
  181.0550  178.9010  140.0640 Cl  0  0  0  0  0  0  0  0  0  0  0  0
  190.0870  177.8370  139.4400 C   0  0  0  0  0  2  0  0  0  0  0  0
  190.6040  176.4060  139.5370 C   0  0  0  0  0  2  0  0  0  0  0  0
  191.4070  174.7030  138.0470 O   0  0  0  0  0  1  0  0  0  0  0  0
  190.4310  175.6900  138.2060 C   0  0  2  0  0  3  0  0  0  0  0  0
  190.4030  176.6320  137.0720 N   0  0  0  0  0  2  0  0  0  0  0  0
  187.9230  176.4050  136.7580 C   0  0  0  0  0  1  0  0  0  0  0  0
  189.3010  176.4540  136.1120 C   0  0  0  0  0  3  0  0  0  0  0  0
  189.3580  177.4620  134.9780 C   0  0  0  0  0  1  0  0  0  0  0  0
  1  5  2  0  0  0  0
  2  6  1  0  0  0  0
  3  8  1  0  0  0  0
  4 18  1  0  0  0  0
  5 11  1  0  0  0  0
  6 11  2  0  0  0  0
  7 18  1  0  0  0  0
  8  2  2  0  0  0  0
  8  1  1  0  0  0  0
  9  7  1  0  0  0  0
 10  4  1  0  0  0  0
 12  3  2  0  0  0  0
 12 19  1  0  0  0  0
 13  1  1  0  0  0  0
 14  2  1  0  0  0  0
 15  4  2  0  0  0  0
 15 16  1  0  0  0  0
 16 12  1  0  0  0  0
 17 27  1  6  0  0  0
 17 10  1  0  0  0  0
 17  9  1  0  0  0  0
 18  3  1  0  0  0  0
 19 13  2  0  0  0  0
 20 24  2  0  0  0  0
 20 21  1  0  0  0  0
 21 23  2  0  0  0  0
 22 16  1  0  0  0  0
 22 25  2  0  0  0  0
 23 25  1  0  0  0  0
 24 22  1  0  0  0  0
 26 20  1  0  0  0  0
 27 28  1  0  0  0  0
 30 29  1  6  0  0  0
 30 28  1  0  0  0  0
 31 30  1  0  0  0  0
 33 32  1  0  0  0  0
 33 31  1  0  0  0  0
 34 33  1  0  0  0  0
M  END
>  <MODEL>
9

>  <REMARK>
 VINA RESULT:      -9.2      1.727      2.465
  Name = 
  6 active torsions:
  status: ('A' for Active; 'I' for Inactive)
    1  A    between atoms: C_3  and  C_13
    2  A    between atoms: C_3  and  C_29
    3  A    between atoms: C_12  and  N_28
    4  A    between atoms: C_13  and  C_33
    5  A    between atoms: C_20  and  N_22
    6  A    between atoms: N_22  and  C_33
                            x       y       z     vdW  Elec       q    Type
                         _______ _______ _______ _____ _____    ______ ____

>  <TORSDO>
F 6

$$$$
