=
 OpenBabel10272414553D

 37 40  0  0  1  0  0  0  0  0999 V2000
  190.1010  177.6480  137.2790 O   0  0  0  0  0  0  0  0  0  0  0  0
  192.7540  175.5990  138.8570 C   0  0  0  0  0  2  0  0  0  0  0  0
  187.3900  175.4850  135.5790 C   0  0  0  0  0  2  0  0  0  0  0  0
  190.1540  176.8180  138.4150 C   0  0  2  0  0  3  0  0  0  0  0  0
  188.3680  175.9350  136.6730 C   0  0  1  0  0  3  0  0  0  0  0  0
  191.0700  177.3540  139.4320 N   0  0  0  0  0  0  0  0  0  0  0  0
  189.2790  177.6460  135.0520 C   0  0  0  0  0  1  0  0  0  0  0  0
  189.4880  174.9080  136.8900 C   0  0  2  0  0  3  0  0  0  0  0  0
  187.9560  173.0880  136.1130 C   0  0  0  0  0  2  0  0  0  0  0  0
  188.9250  177.3850  136.5120 C   0  0  2  0  0  0  0  0  0  0  0  0
  188.8980  173.5440  137.2250 C   0  0  0  0  0  2  0  0  0  0  0  0
  192.4820  177.0830  139.1230 C   0  0  0  0  0  2  0  0  0  0  0  0
  190.4390  175.3560  138.0050 C   0  0  1  0  0  3  0  0  0  0  0  0
  186.8260  174.0980  135.8920 C   0  0  1  0  0  3  0  0  0  0  0  0
  191.9250  175.1110  137.6700 C   0  0  1  0  0  3  0  0  0  0  0  0
  185.4820  172.8610  137.1420 C   0  0  0  0  0  1  0  0  0  0  0  0
  185.9980  174.1530  137.0170 O   0  0  0  0  0  0  0  0  0  0  0  0
  188.1030  179.5300  137.1040 O   0  0  0  0  0  0  0  0  0  0  0  0
  187.8500  178.3500  136.9180 C   0  0  0  0  0  3  0  0  0  0  0  0
  192.4030  175.7660  136.3430 C   0  0  2  0  0  3  0  0  0  0  0  0
  191.2530  174.9920  134.3460 O   0  0  0  0  0  1  0  0  0  0  0  0
  192.5610  173.3810  135.5340 C   0  0  0  0  0  1  0  0  0  0  0  0
  192.4060  174.8330  135.1190 C   0  0  2  0  0  3  0  0  0  0  0  0
  193.5750  176.5550  136.4640 O   0  0  0  0  0  0  0  0  0  0  0  0
  194.3080  176.4850  135.2660 C   0  0  0  0  0  2  0  0  0  0  0  0
  197.4200  174.6690  136.5640 C   0  0  0  0  0  1  0  0  0  0  0  0
  195.7240  176.1110  135.5560 C   0  0  0  0  0  3  0  0  0  0  0  0
  196.0000  175.0330  136.2810 C   0  0  0  0  0  3  0  0  0  0  0  0
  190.7370  176.7610  140.7220 C   0  0  0  0  0  2  0  0  0  0  0  0
  191.6560  177.6050  142.0520 S   0  0  0  0  0  0  0  0  0  0  0  0
  190.5200  176.7840  144.4610 C   0  0  0  0  0  2  0  0  0  0  0  0
  190.2630  177.6690  143.2330 C   0  0  0  0  0  3  0  0  0  0  0  0
  188.9250  177.4030  142.5160 C   0  0  0  0  0  2  0  0  0  0  0  0
  187.3920  177.0160  144.5290 C   0  0  0  0  0  2  0  0  0  0  0  0
  188.3550  177.8700  145.3590 C   0  0  0  0  0  2  0  0  0  0  0  0
  188.0040  176.4270  143.2560 C   0  0  0  0  0  2  0  0  0  0  0  0
  189.6820  177.1740  145.6860 C   0  0  0  0  0  2  0  0  0  0  0  0
  2 12  1  0  0  0  0
  3 14  1  0  0  0  0
  4  1  1  6  0  0  0
  4  6  1  0  0  0  0
  5  3  1  6  0  0  0
  5  8  1  0  0  0  0
  6 29  1  0  0  0  0
  8 11  1  1  0  0  0
  8 13  1  0  0  0  0
  9 11  1  0  0  0  0
 10  7  1  6  0  0  0
 10  5  1  0  0  0  0
 10 19  1  0  0  0  0
 10  1  1  0  0  0  0
 12  6  1  0  0  0  0
 13  4  1  0  0  0  0
 14  9  1  0  0  0  0
 14 17  1  0  0  0  0
 15 13  1  0  0  0  0
 15  2  1  0  0  0  0
 17 16  1  0  0  0  0
 19 18  2  0  0  0  0
 20 24  1  0  0  0  0
 20 15  1  0  0  0  0
 21 23  1  0  0  0  0
 23 22  1  0  0  0  0
 23 20  1  0  0  0  0
 25 27  1  0  0  0  0
 25 24  1  0  0  0  0
 27 28  2  0  0  0  0
 28 26  1  0  0  0  0
 29 30  1  0  0  0  0
 30 32  1  0  0  0  0
 31 37  1  0  0  0  0
 32 31  1  0  0  0  0
 33 32  1  0  0  0  0
 33 36  1  0  0  0  0
 34 35  1  0  0  0  0
 35 37  1  0  0  0  0
 36 34  1  0  0  0  0
M  END
>  <MODEL>
1

>  <REMARK>
 VINA RESULT:      -6.1      0.000      0.000
  Name = 
  10 active torsions:
  status: ('A' for Active; 'I' for Inactive)
    1  A    between atoms: C_1  and  C_23
    2  A    between atoms: C_1  and  O_33
    3  A    between atoms: C_1  and  C_36
    4  A    between atoms: C_6  and  S_31
    5  A    between atoms: N_14  and  C_37
    6  A    between atoms: C_17  and  C_26
    7  A    between atoms: C_17  and  O_33
    8  A    between atoms: C_24  and  C_28
    9  A    between atoms: O_30  and  C_32
   10  A    between atoms: S_31  and  C_37
                            x       y       z     vdW  Elec       q    Type
                         _______ _______ _______ _____ _____    ______ ____

>  <TORSDO>
F 10

$$$$
=
 OpenBabel10272414553D

 37 40  0  0  1  0  0  0  0  0999 V2000
  182.8140  178.4180  137.6310 O   0  0  0  0  0  0  0  0  0  0  0  0
  186.0710  177.7530  139.2670 C   0  0  0  0  0  2  0  0  0  0  0  0
  181.4080  175.3020  135.8350 C   0  0  0  0  0  2  0  0  0  0  0  0
  183.2110  177.6790  138.7610 C   0  0  2  0  0  3  0  0  0  0  0  0
  182.0540  176.1210  136.9610 C   0  0  1  0  0  3  0  0  0  0  0  0
  183.7640  178.5490  139.8090 N   0  0  0  0  0  0  0  0  0  0  0  0
  182.1290  178.0930  135.3810 C   0  0  0  0  0  1  0  0  0  0  0  0
  183.5110  175.7050  137.2010 C   0  0  2  0  0  3  0  0  0  0  0  0
  182.9830  173.4070  136.3640 C   0  0  0  0  0  2  0  0  0  0  0  0
  181.9000  177.6700  136.8280 C   0  0  2  0  0  0  0  0  0  0  0  0
  183.5940  174.2150  137.5070 C   0  0  0  0  0  2  0  0  0  0  0  0
  185.1530  178.9500  139.5380 C   0  0  0  0  0  2  0  0  0  0  0  0
  184.1340  176.5100  138.3470 C   0  0  1  0  0  3  0  0  0  0  0  0
  181.5230  173.8030  136.1200 C   0  0  1  0  0  3  0  0  0  0  0  0
  185.5780  176.9690  138.0520 C   0  0  1  0  0  3  0  0  0  0  0  0
  180.5760  172.0710  137.1200 C   0  0  0  0  0  1  0  0  0  0  0  0
  180.7360  173.4550  137.2200 O   0  0  0  0  0  0  0  0  0  0  0  0
  180.2010  179.1920  137.4780 O   0  0  0  0  0  0  0  0  0  0  0  0
  180.4970  178.0380  137.2120 C   0  0  0  0  0  3  0  0  0  0  0  0
  185.7360  177.7970  136.7450 C   0  0  2  0  0  3  0  0  0  0  0  0
  185.1610  176.9130  134.5550 O   0  0  0  0  0  1  0  0  0  0  0  0
  186.6330  175.5940  135.9000 C   0  0  0  0  0  1  0  0  0  0  0  0
  186.1770  176.9880  135.5110 C   0  0  2  0  0  3  0  0  0  0  0  0
  186.4330  179.0210  136.9050 O   0  0  0  0  0  0  0  0  0  0  0  0
  187.6850  178.9300  136.2710 C   0  0  0  0  0  2  0  0  0  0  0  0
  190.4270  177.4160  138.4750 C   0  0  0  0  0  1  0  0  0  0  0  0
  188.7610  178.7560  137.2910 C   0  0  0  0  0  3  0  0  0  0  0  0
  189.3510  177.5770  137.4520 C   0  0  0  0  0  3  0  0  0  0  0  0
  183.7070  177.8420  141.0840 C   0  0  0  0  0  2  0  0  0  0  0  0
  183.2040  178.9900  142.4090 S   0  0  0  0  0  0  0  0  0  0  0  0
  184.8410  179.5160  144.6020 C   0  0  0  0  0  2  0  0  0  0  0  0
  184.4160  178.3960  143.6410 C   0  0  0  0  0  3  0  0  0  0  0  0
  185.5830  177.6620  142.9530 C   0  0  0  0  0  2  0  0  0  0  0  0
  187.2520  177.5280  144.8890 C   0  0  0  0  0  2  0  0  0  0  0  0
  186.0620  177.6110  145.8500 C   0  0  0  0  0  2  0  0  0  0  0  0
  186.9660  178.0560  143.4800 C   0  0  0  0  0  2  0  0  0  0  0  0
  185.4190  179.0020  145.9280 C   0  0  0  0  0  2  0  0  0  0  0  0
  2 12  1  0  0  0  0
  3 14  1  0  0  0  0
  4  1  1  6  0  0  0
  4  6  1  0  0  0  0
  5  3  1  6  0  0  0
  5  8  1  0  0  0  0
  6 29  1  0  0  0  0
  8 11  1  1  0  0  0
  8 13  1  0  0  0  0
  9 11  1  0  0  0  0
 10  7  1  6  0  0  0
 10  5  1  0  0  0  0
 10 19  1  0  0  0  0
 10  1  1  0  0  0  0
 12  6  1  0  0  0  0
 13  4  1  0  0  0  0
 14  9  1  0  0  0  0
 14 17  1  0  0  0  0
 15 13  1  0  0  0  0
 15  2  1  0  0  0  0
 16 17  1  0  0  0  0
 19 18  2  0  0  0  0
 20 24  1  0  0  0  0
 20 15  1  0  0  0  0
 21 23  1  0  0  0  0
 23 22  1  0  0  0  0
 23 20  1  0  0  0  0
 25 24  1  0  0  0  0
 25 27  1  0  0  0  0
 27 28  2  0  0  0  0
 28 26  1  0  0  0  0
 29 30  1  0  0  0  0
 30 32  1  0  0  0  0
 31 37  1  0  0  0  0
 32 31  1  0  0  0  0
 33 36  1  0  0  0  0
 33 32  1  0  0  0  0
 34 35  1  0  0  0  0
 35 37  1  0  0  0  0
 36 34  1  0  0  0  0
M  END
>  <MODEL>
2

>  <REMARK>
 VINA RESULT:      -4.7      4.212      6.385
  Name = 
  10 active torsions:
  status: ('A' for Active; 'I' for Inactive)
    1  A    between atoms: C_1  and  C_23
    2  A    between atoms: C_1  and  O_33
    3  A    between atoms: C_1  and  C_36
    4  A    between atoms: C_6  and  S_31
    5  A    between atoms: N_14  and  C_37
    6  A    between atoms: C_17  and  C_26
    7  A    between atoms: C_17  and  O_33
    8  A    between atoms: C_24  and  C_28
    9  A    between atoms: O_30  and  C_32
   10  A    between atoms: S_31  and  C_37
                            x       y       z     vdW  Elec       q    Type
                         _______ _______ _______ _____ _____    ______ ____

>  <TORSDO>
F 10

$$$$
=
 OpenBabel10272414553D

 37 40  0  0  1  0  0  0  0  0999 V2000
  188.1520  178.5840  137.5920 O   0  0  0  0  0  0  0  0  0  0  0  0
  188.8480  177.2030  140.9590 C   0  0  0  0  0  2  0  0  0  0  0  0
  187.9310  175.8300  134.8930 C   0  0  0  0  0  2  0  0  0  0  0  0
  187.4030  177.8360  138.5200 C   0  0  2  0  0  3  0  0  0  0  0  0
  187.6770  176.5230  136.2390 C   0  0  1  0  0  3  0  0  0  0  0  0
  187.1590  178.5970  139.7540 N   0  0  0  0  0  0  0  0  0  0  0  0
  189.3260  178.3090  135.5460 C   0  0  0  0  0  1  0  0  0  0  0  0
  188.3290  175.7610  137.4000 C   0  0  2  0  0  3  0  0  0  0  0  0
  188.1230  173.6300  136.1050 C   0  0  0  0  0  2  0  0  0  0  0  0
  188.0120  178.0480  136.2750 C   0  0  2  0  0  0  0  0  0  0  0  0
  187.8320  174.3220  137.4360 C   0  0  0  0  0  2  0  0  0  0  0  0
  188.3240  178.6100  140.6510 C   0  0  0  0  0  2  0  0  0  0  0  0
  188.0430  176.4470  138.7410 C   0  0  1  0  0  3  0  0  0  0  0  0
  187.4690  174.3730  134.9370 C   0  0  1  0  0  3  0  0  0  0  0  0
  189.2720  176.5000  139.6710 C   0  0  1  0  0  3  0  0  0  0  0  0
  185.7600  172.9800  134.7380 C   0  0  0  0  0  1  0  0  0  0  0  0
  186.0770  174.3070  135.0380 O   0  0  0  0  0  0  0  0  0  0  0  0
  186.8060  178.7210  134.3470 O   0  0  0  0  0  0  0  0  0  0  0  0
  186.9200  178.7880  135.5600 C   0  0  0  0  0  3  0  0  0  0  0  0
  190.5240  177.1780  139.0460 C   0  0  2  0  0  3  0  0  0  0  0  0
  191.2500  174.9560  138.3790 O   0  0  0  0  0  1  0  0  0  0  0  0
  192.7430  176.7660  137.9160 C   0  0  0  0  0  1  0  0  0  0  0  0
  191.3010  176.3100  138.0380 C   0  0  2  0  0  3  0  0  0  0  0  0
  191.3540  177.8550  139.9760 O   0  0  0  0  0  0  0  0  0  0  0  0
  191.7110  176.9700  141.0090 C   0  0  0  0  0  2  0  0  0  0  0  0
  191.5530  177.6590  144.7730 C   0  0  0  0  0  1  0  0  0  0  0  0
  191.5980  177.6570  142.3300 C   0  0  0  0  0  3  0  0  0  0  0  0
  191.6670  176.9600  143.4590 C   0  0  0  0  0  3  0  0  0  0  0  0
  186.0210  178.0080  140.4510 C   0  0  0  0  0  2  0  0  0  0  0  0
  184.9690  179.3240  141.1480 S   0  0  0  0  0  0  0  0  0  0  0  0
  185.7750  177.5720  143.1600 C   0  0  0  0  0  2  0  0  0  0  0  0
  185.4520  179.0490  142.8890 C   0  0  0  0  0  3  0  0  0  0  0  0
  184.4180  179.6680  143.8490 C   0  0  0  0  0  2  0  0  0  0  0  0
  185.1350  178.5910  146.0580 C   0  0  0  0  0  2  0  0  0  0  0  0
  186.5410  178.4450  145.4680 C   0  0  0  0  0  2  0  0  0  0  0  0
  184.0260  178.7560  145.0160 C   0  0  0  0  0  2  0  0  0  0  0  0
  186.6580  177.3530  144.3970 C   0  0  0  0  0  2  0  0  0  0  0  0
  3 14  1  0  0  0  0
  4  1  1  6  0  0  0
  4 13  1  0  0  0  0
  4  6  1  0  0  0  0
  5  3  1  6  0  0  0
  5 10  1  0  0  0  0
  5  8  1  0  0  0  0
  6 29  1  0  0  0  0
  6 12  1  0  0  0  0
  8 11  1  1  0  0  0
  8 13  1  0  0  0  0
  9 11  1  0  0  0  0
 10  7  1  6  0  0  0
 10  1  1  0  0  0  0
 12  2  1  0  0  0  0
 13 15  1  0  0  0  0
 14 17  1  0  0  0  0
 14  9  1  0  0  0  0
 15  2  1  0  0  0  0
 16 17  1  0  0  0  0
 18 19  2  0  0  0  0
 19 10  1  0  0  0  0
 20 15  1  0  0  0  0
 20 24  1  0  0  0  0
 22 23  1  0  0  0  0
 23 21  1  0  0  0  0
 23 20  1  0  0  0  0
 24 25  1  0  0  0  0
 25 27  1  0  0  0  0
 27 28  2  0  0  0  0
 28 26  1  0  0  0  0
 29 30  1  0  0  0  0
 30 32  1  0  0  0  0
 31 37  1  0  0  0  0
 32 31  1  0  0  0  0
 32 33  1  0  0  0  0
 33 36  1  0  0  0  0
 35 34  1  0  0  0  0
 36 34  1  0  0  0  0
 37 35  1  0  0  0  0
M  END
>  <MODEL>
3

>  <REMARK>
 VINA RESULT:      -4.4      2.591      4.327
  Name = 
  10 active torsions:
  status: ('A' for Active; 'I' for Inactive)
    1  A    between atoms: C_1  and  C_23
    2  A    between atoms: C_1  and  O_33
    3  A    between atoms: C_1  and  C_36
    4  A    between atoms: C_6  and  S_31
    5  A    between atoms: N_14  and  C_37
    6  A    between atoms: C_17  and  C_26
    7  A    between atoms: C_17  and  O_33
    8  A    between atoms: C_24  and  C_28
    9  A    between atoms: O_30  and  C_32
   10  A    between atoms: S_31  and  C_37
                            x       y       z     vdW  Elec       q    Type
                         _______ _______ _______ _____ _____    ______ ____

>  <TORSDO>
F 10

$$$$
=
 OpenBabel10272414553D

 37 40  0  0  1  0  0  0  0  0999 V2000
  183.7300  179.3920  138.4850 O   0  0  0  0  0  0  0  0  0  0  0  0
  186.7480  177.2700  138.1440 C   0  0  0  0  0  2  0  0  0  0  0  0
  180.4670  177.3270  138.4000 C   0  0  0  0  0  2  0  0  0  0  0  0
  184.3800  178.4670  139.3250 C   0  0  2  0  0  3  0  0  0  0  0  0
  181.9010  177.7010  138.8010 C   0  0  1  0  0  3  0  0  0  0  0  0
  185.7220  178.9320  139.7030 N   0  0  0  0  0  0  0  0  0  0  0  0
  181.8110  179.5670  137.0980 C   0  0  0  0  0  1  0  0  0  0  0  0
  182.9210  176.6840  138.2710 C   0  0  2  0  0  3  0  0  0  0  0  0
  181.1610  174.9060  138.3240 C   0  0  0  0  0  2  0  0  0  0  0  0
  182.3190  179.1720  138.4810 C   0  0  2  0  0  0  0  0  0  0  0  0
  182.5750  175.2830  138.7600 C   0  0  0  0  0  2  0  0  0  0  0  0
  186.7150  178.7200  138.6410 C   0  0  0  0  0  2  0  0  0  0  0  0
  184.3440  177.0530  138.7030 C   0  0  1  0  0  3  0  0  0  0  0  0
  180.1290  175.9060  138.8550 C   0  0  1  0  0  3  0  0  0  0  0  0
  185.3860  176.8710  137.5800 C   0  0  1  0  0  3  0  0  0  0  0  0
  179.9870  174.4810  140.5420 C   0  0  0  0  0  1  0  0  0  0  0  0
  180.0660  175.8440  140.2500 O   0  0  0  0  0  0  0  0  0  0  0  0
  181.0240  181.0430  139.1490 O   0  0  0  0  0  0  0  0  0  0  0  0
  181.6800  180.0740  139.4950 C   0  0  0  0  0  3  0  0  0  0  0  0
  185.0670  177.6500  136.2730 C   0  0  2  0  0  3  0  0  0  0  0  0
  183.0550  177.1240  135.0140 O   0  0  0  0  0  1  0  0  0  0  0  0
  184.5810  175.3270  135.4130 C   0  0  0  0  0  1  0  0  0  0  0  0
  184.4100  176.8140  135.1600 C   0  0  2  0  0  3  0  0  0  0  0  0
  186.1160  178.4870  135.8160 O   0  0  0  0  0  0  0  0  0  0  0  0
  186.6600  177.9490  134.6350 C   0  0  0  0  0  2  0  0  0  0  0  0
  189.5320  175.5030  135.2980 C   0  0  0  0  0  1  0  0  0  0  0  0
  188.0110  177.3770  134.9120 C   0  0  0  0  0  3  0  0  0  0  0  0
  188.1750  176.0630  135.0220 C   0  0  0  0  0  3  0  0  0  0  0  0
  186.1420  178.2210  140.9050 C   0  0  0  0  0  2  0  0  0  0  0  0
  185.2000  178.8230  142.3460 S   0  0  0  0  0  0  0  0  0  0  0  0
  187.2200  177.1380  143.2670 C   0  0  0  0  0  2  0  0  0  0  0  0
  186.4930  178.4530  143.5840 C   0  0  0  0  0  3  0  0  0  0  0  0
  185.9260  178.5470  145.0140 C   0  0  0  0  0  2  0  0  0  0  0  0
  187.8150  177.4320  146.3340 C   0  0  0  0  0  2  0  0  0  0  0  0
  188.7700  177.8430  145.2100 C   0  0  0  0  0  2  0  0  0  0  0  0
  186.3400  177.3880  145.9260 C   0  0  0  0  0  2  0  0  0  0  0  0
  188.6050  177.0270  143.9210 C   0  0  0  0  0  2  0  0  0  0  0  0
  2 12  1  0  0  0  0
  3 14  1  0  0  0  0
  4  1  1  6  0  0  0
  4  6  1  0  0  0  0
  5  3  1  6  0  0  0
  6 29  1  0  0  0  0
  8 13  1  0  0  0  0
  8 11  1  1  0  0  0
  8  5  1  0  0  0  0
  9 11  1  0  0  0  0
  9 14  1  0  0  0  0
 10  7  1  6  0  0  0
 10  1  1  0  0  0  0
 10  5  1  0  0  0  0
 10 19  1  0  0  0  0
 12  6  1  0  0  0  0
 13  4  1  0  0  0  0
 14 17  1  0  0  0  0
 15  2  1  0  0  0  0
 15 13  1  0  0  0  0
 17 16  1  0  0  0  0
 18 19  2  0  0  0  0
 20 15  1  0  0  0  0
 21 23  1  0  0  0  0
 23 22  1  0  0  0  0
 23 20  1  0  0  0  0
 24 20  1  0  0  0  0
 25 27  1  0  0  0  0
 25 24  1  0  0  0  0
 27 28  2  0  0  0  0
 28 26  1  0  0  0  0
 29 30  1  0  0  0  0
 30 32  1  0  0  0  0
 31 32  1  0  0  0  0
 31 37  1  0  0  0  0
 32 33  1  0  0  0  0
 33 36  1  0  0  0  0
 35 34  1  0  0  0  0
 36 34  1  0  0  0  0
 37 35  1  0  0  0  0
M  END
>  <MODEL>
4

>  <REMARK>
 VINA RESULT:      -4.3      4.350      6.586
  Name = 
  10 active torsions:
  status: ('A' for Active; 'I' for Inactive)
    1  A    between atoms: C_1  and  C_23
    2  A    between atoms: C_1  and  O_33
    3  A    between atoms: C_1  and  C_36
    4  A    between atoms: C_6  and  S_31
    5  A    between atoms: N_14  and  C_37
    6  A    between atoms: C_17  and  C_26
    7  A    between atoms: C_17  and  O_33
    8  A    between atoms: C_24  and  C_28
    9  A    between atoms: O_30  and  C_32
   10  A    between atoms: S_31  and  C_37
                            x       y       z     vdW  Elec       q    Type
                         _______ _______ _______ _____ _____    ______ ____

>  <TORSDO>
F 10

$$$$
=
 OpenBabel10272414553D

 37 40  0  0  1  0  0  0  0  0999 V2000
  188.1540  178.2360  136.8330 O   0  0  0  0  0  0  0  0  0  0  0  0
  188.8070  177.1010  140.2980 C   0  0  0  0  0  2  0  0  0  0  0  0
  187.9020  175.2910  134.3460 C   0  0  0  0  0  2  0  0  0  0  0  0
  187.3870  177.5730  137.8090 C   0  0  2  0  0  3  0  0  0  0  0  0
  187.6520  176.0870  135.6350 C   0  0  1  0  0  3  0  0  0  0  0  0
  187.1490  178.4280  138.9810 N   0  0  0  0  0  0  0  0  0  0  0  0
  189.3340  177.7890  134.8220 C   0  0  0  0  0  1  0  0  0  0  0  0
  188.2850  175.4050  136.8550 C   0  0  2  0  0  3  0  0  0  0  0  0
  188.0510  173.1850  135.7220 C   0  0  0  0  0  2  0  0  0  0  0  0
  188.0120  177.6050  135.5590 C   0  0  2  0  0  0  0  0  0  0  0  0
  187.7640  173.9800  136.9950 C   0  0  0  0  0  2  0  0  0  0  0  0
  188.3090  178.4890  139.8820 C   0  0  0  0  0  2  0  0  0  0  0  0
  188.0020  176.1940  138.1380 C   0  0  1  0  0  3  0  0  0  0  0  0
  187.4150  173.8490  134.4970 C   0  0  1  0  0  3  0  0  0  0  0  0
  189.2270  176.2970  139.0700 C   0  0  1  0  0  3  0  0  0  0  0  0
  185.7010  172.4540  134.6180 C   0  0  0  0  0  1  0  0  0  0  0  0
  186.0220  173.8130  134.5930 O   0  0  0  0  0  0  0  0  0  0  0  0
  185.9250  177.7170  134.4380 O   0  0  0  0  0  0  0  0  0  0  0  0
  186.9360  178.3060  134.7830 C   0  0  0  0  0  3  0  0  0  0  0  0
  190.4940  176.9050  138.4040 C   0  0  2  0  0  3  0  0  0  0  0  0
  191.3780  174.6590  138.1220 O   0  0  0  0  0  1  0  0  0  0  0  0
  192.7070  176.4580  137.2760 C   0  0  0  0  0  1  0  0  0  0  0  0
  191.3100  175.9270  137.5390 C   0  0  2  0  0  3  0  0  0  0  0  0
  191.2860  177.7040  139.2670 O   0  0  0  0  0  0  0  0  0  0  0  0
  191.8700  176.8860  140.2520 C   0  0  0  0  0  2  0  0  0  0  0  0
  191.5940  177.9730  143.9140 C   0  0  0  0  0  1  0  0  0  0  0  0
  192.0110  177.6470  141.5280 C   0  0  0  0  0  3  0  0  0  0  0  0
  191.4440  177.2020  142.6440 C   0  0  0  0  0  3  0  0  0  0  0  0
  185.9970  177.9110  139.7120 C   0  0  0  0  0  2  0  0  0  0  0  0
  184.5130  178.8920  139.3090 S   0  0  0  0  0  0  0  0  0  0  0  0
  184.5990  178.0570  141.9670 C   0  0  0  0  0  2  0  0  0  0  0  0
  183.9410  179.0840  141.0350 C   0  0  0  0  0  3  0  0  0  0  0  0
  182.4020  179.1210  141.1010 C   0  0  0  0  0  2  0  0  0  0  0  0
  182.0400  178.8170  143.6170 C   0  0  0  0  0  2  0  0  0  0  0  0
  183.4350  179.4110  143.8340 C   0  0  0  0  0  2  0  0  0  0  0  0
  181.8050  178.2530  142.2130 C   0  0  0  0  0  2  0  0  0  0  0  0
  184.5820  178.4690  143.4460 C   0  0  0  0  0  2  0  0  0  0  0  0
  3 14  1  0  0  0  0
  4  1  1  6  0  0  0
  4 13  1  0  0  0  0
  4  6  1  0  0  0  0
  5  3  1  6  0  0  0
  5  8  1  0  0  0  0
  6 29  1  0  0  0  0
  6 12  1  0  0  0  0
  8 11  1  1  0  0  0
  8 13  1  0  0  0  0
  9 11  1  0  0  0  0
 10  7  1  6  0  0  0
 10  5  1  0  0  0  0
 10  1  1  0  0  0  0
 12  2  1  0  0  0  0
 13 15  1  0  0  0  0
 14 17  1  0  0  0  0
 14  9  1  0  0  0  0
 15  2  1  0  0  0  0
 17 16  1  0  0  0  0
 18 19  2  0  0  0  0
 19 10  1  0  0  0  0
 20 15  1  0  0  0  0
 20 24  1  0  0  0  0
 22 23  1  0  0  0  0
 23 21  1  0  0  0  0
 23 20  1  0  0  0  0
 24 25  1  0  0  0  0
 25 27  1  0  0  0  0
 27 28  2  0  0  0  0
 28 26  1  0  0  0  0
 30 29  1  0  0  0  0
 30 32  1  0  0  0  0
 31 37  1  0  0  0  0
 32 33  1  0  0  0  0
 32 31  1  0  0  0  0
 33 36  1  0  0  0  0
 34 35  1  0  0  0  0
 36 34  1  0  0  0  0
 37 35  1  0  0  0  0
M  END
>  <MODEL>
5

>  <REMARK>
 VINA RESULT:      -4.1      3.143      4.641
  Name = 
  10 active torsions:
  status: ('A' for Active; 'I' for Inactive)
    1  A    between atoms: C_1  and  C_23
    2  A    between atoms: C_1  and  O_33
    3  A    between atoms: C_1  and  C_36
    4  A    between atoms: C_6  and  S_31
    5  A    between atoms: N_14  and  C_37
    6  A    between atoms: C_17  and  C_26
    7  A    between atoms: C_17  and  O_33
    8  A    between atoms: C_24  and  C_28
    9  A    between atoms: O_30  and  C_32
   10  A    between atoms: S_31  and  C_37
                            x       y       z     vdW  Elec       q    Type
                         _______ _______ _______ _____ _____    ______ ____

>  <TORSDO>
F 10

$$$$
=
 OpenBabel10272414553D

 37 40  0  0  1  0  0  0  0  0999 V2000
  188.1340  178.0770  136.5450 O   0  0  0  0  0  0  0  0  0  0  0  0
  188.6350  177.2860  140.1290 C   0  0  0  0  0  2  0  0  0  0  0  0
  187.9650  174.9030  134.3500 C   0  0  0  0  0  2  0  0  0  0  0  0
  187.3220  177.5150  137.5480 C   0  0  2  0  0  3  0  0  0  0  0  0
  187.6670  175.8220  135.5430 C   0  0  1  0  0  3  0  0  0  0  0  0
  187.0420  178.4810  138.6200 N   0  0  0  0  0  0  0  0  0  0  0  0
  189.3940  177.4310  134.6380 C   0  0  0  0  0  1  0  0  0  0  0  0
  188.2440  175.2610  136.8490 C   0  0  2  0  0  3  0  0  0  0  0  0
  188.0420  172.9420  135.9310 C   0  0  0  0  0  2  0  0  0  0  0  0
  188.0410  177.3250  135.3340 C   0  0  2  0  0  0  0  0  0  0  0  0
  187.7080  173.8580  137.1060 C   0  0  0  0  0  2  0  0  0  0  0  0
  188.1640  178.6280  139.5590 C   0  0  0  0  0  2  0  0  0  0  0  0
  187.9140  176.1730  138.0360 C   0  0  1  0  0  3  0  0  0  0  0  0
  187.4630  173.4840  134.6200 C   0  0  1  0  0  3  0  0  0  0  0  0
  189.1000  176.3640  139.0040 C   0  0  1  0  0  3  0  0  0  0  0  0
  185.7380  172.1220  134.8780 C   0  0  0  0  0  1  0  0  0  0  0  0
  186.0660  173.4620  134.6610 O   0  0  0  0  0  0  0  0  0  0  0  0
  185.8400  177.5820  134.4890 O   0  0  0  0  0  0  0  0  0  0  0  0
  187.0030  177.9500  134.4490 C   0  0  0  0  0  3  0  0  0  0  0  0
  190.3980  176.9000  138.3360 C   0  0  2  0  0  3  0  0  0  0  0  0
  191.2360  174.6280  138.1260 O   0  0  0  0  0  1  0  0  0  0  0  0
  192.5650  176.3650  137.1590 C   0  0  0  0  0  1  0  0  0  0  0  0
  191.1690  175.8710  137.4900 C   0  0  2  0  0  3  0  0  0  0  0  0
  191.2240  177.6730  139.1910 O   0  0  0  0  0  0  0  0  0  0  0  0
  191.8140  176.8310  140.1520 C   0  0  0  0  0  2  0  0  0  0  0  0
  191.5780  178.4020  143.6370 C   0  0  0  0  0  1  0  0  0  0  0  0
  192.1190  177.6080  141.3890 C   0  0  0  0  0  3  0  0  0  0  0  0
  191.2610  177.6230  142.4030 C   0  0  0  0  0  3  0  0  0  0  0  0
  185.8580  178.0420  139.3490 C   0  0  0  0  0  2  0  0  0  0  0  0
  184.3960  178.9720  138.7790 S   0  0  0  0  0  0  0  0  0  0  0  0
  183.3070  176.5740  139.6900 C   0  0  0  0  0  2  0  0  0  0  0  0
  183.3490  177.5050  138.4700 C   0  0  0  0  0  3  0  0  0  0  0  0
  183.7450  176.8190  137.1490 C   0  0  0  0  0  2  0  0  0  0  0  0
  182.4980  174.5960  137.3910 C   0  0  0  0  0  2  0  0  0  0  0  0
  181.5140  175.3120  138.3220 C   0  0  0  0  0  2  0  0  0  0  0  0
  183.8530  175.2930  137.2460 C   0  0  0  0  0  2  0  0  0  0  0  0
  182.0900  175.6380  139.7070 C   0  0  0  0  0  2  0  0  0  0  0  0
  3 14  1  0  0  0  0
  4  1  1  6  0  0  0
  4 13  1  0  0  0  0
  4  6  1  0  0  0  0
  5  3  1  6  0  0  0
  5  8  1  0  0  0  0
  6 29  1  0  0  0  0
  6 12  1  0  0  0  0
  8 11  1  1  0  0  0
  8 13  1  0  0  0  0
  9 11  1  0  0  0  0
 10  7  1  6  0  0  0
 10  5  1  0  0  0  0
 10  1  1  0  0  0  0
 12  2  1  0  0  0  0
 13 15  1  0  0  0  0
 14 17  1  0  0  0  0
 14  9  1  0  0  0  0
 15  2  1  0  0  0  0
 17 16  1  0  0  0  0
 19 18  2  0  0  0  0
 19 10  1  0  0  0  0
 20 15  1  0  0  0  0
 20 24  1  0  0  0  0
 22 23  1  0  0  0  0
 23 21  1  0  0  0  0
 23 20  1  0  0  0  0
 24 25  1  0  0  0  0
 25 27  1  0  0  0  0
 27 28  2  0  0  0  0
 28 26  1  0  0  0  0
 30 29  1  0  0  0  0
 31 37  1  0  0  0  0
 32 30  1  0  0  0  0
 32 31  1  0  0  0  0
 33 36  1  0  0  0  0
 33 32  1  0  0  0  0
 34 35  1  0  0  0  0
 35 37  1  0  0  0  0
 36 34  1  0  0  0  0
M  END
>  <MODEL>
6

>  <REMARK>
 VINA RESULT:      -4.0      2.929      5.376
  Name = 
  10 active torsions:
  status: ('A' for Active; 'I' for Inactive)
    1  A    between atoms: C_1  and  C_23
    2  A    between atoms: C_1  and  O_33
    3  A    between atoms: C_1  and  C_36
    4  A    between atoms: C_6  and  S_31
    5  A    between atoms: N_14  and  C_37
    6  A    between atoms: C_17  and  C_26
    7  A    between atoms: C_17  and  O_33
    8  A    between atoms: C_24  and  C_28
    9  A    between atoms: O_30  and  C_32
   10  A    between atoms: S_31  and  C_37
                            x       y       z     vdW  Elec       q    Type
                         _______ _______ _______ _____ _____    ______ ____

>  <TORSDO>
F 10

$$$$
=
 OpenBabel10272414553D

 37 40  0  0  1  0  0  0  0  0999 V2000
  183.4170  178.2850  138.2550 O   0  0  0  0  0  0  0  0  0  0  0  0
  180.0210  176.9760  138.9430 C   0  0  0  0  0  2  0  0  0  0  0  0
  185.2210  179.4490  141.4660 C   0  0  0  0  0  2  0  0  0  0  0  0
  182.9210  177.1200  138.8680 C   0  0  2  0  0  3  0  0  0  0  0  0
  184.3890  178.5330  140.5570 C   0  0  1  0  0  3  0  0  0  0  0  0
  182.1880  176.2770  137.9120 N   0  0  0  0  0  0  0  0  0  0  0  0
  184.4040  180.3700  138.8210 C   0  0  0  0  0  1  0  0  0  0  0  0
  182.9390  178.4140  141.0460 C   0  0  2  0  0  3  0  0  0  0  0  0
  183.7040  178.8530  143.3880 C   0  0  0  0  0  2  0  0  0  0  0  0
  184.4690  178.8610  139.0320 C   0  0  2  0  0  0  0  0  0  0  0  0
  182.9050  177.9160  142.4850 C   0  0  0  0  0  2  0  0  0  0  0  0
  180.8250  176.7660  137.6550 C   0  0  0  0  0  2  0  0  0  0  0  0
  182.1280  177.4750  140.1470 C   0  0  1  0  0  3  0  0  0  0  0  0
  185.1570  178.9730  142.9190 C   0  0  1  0  0  3  0  0  0  0  0  0
  180.7110  178.0010  139.8400 C   0  0  1  0  0  3  0  0  0  0  0  0
  186.1930  177.7000  144.4030 C   0  0  0  0  0  1  0  0  0  0  0  0
  185.8150  177.7490  143.0600 O   0  0  0  0  0  0  0  0  0  0  0  0
  186.2080  178.7280  137.4240 O   0  0  0  0  0  0  0  0  0  0  0  0
  185.7870  178.3680  138.5120 C   0  0  0  0  0  3  0  0  0  0  0  0
  180.6740  179.4200  139.2050 C   0  0  2  0  0  3  0  0  0  0  0  0
  180.5490  181.7590  139.8550 O   0  0  0  0  0  1  0  0  0  0  0  0
  180.0170  180.1400  141.5330 C   0  0  0  0  0  1  0  0  0  0  0  0
  179.9820  180.4990  140.0580 C   0  0  2  0  0  3  0  0  0  0  0  0
  180.2980  179.4440  137.8380 O   0  0  0  0  0  0  0  0  0  0  0  0
  181.1180  180.3520  137.1450 C   0  0  0  0  0  2  0  0  0  0  0  0
  179.9820  183.2290  134.8870 C   0  0  0  0  0  1  0  0  0  0  0  0
  180.2750  181.3440  136.4140 C   0  0  0  0  0  3  0  0  0  0  0  0
  180.8360  182.2430  135.6130 C   0  0  0  0  0  3  0  0  0  0  0  0
  182.1210  174.9190  138.4390 C   0  0  0  0  0  2  0  0  0  0  0  0
  182.1000  173.7190  137.0660 S   0  0  0  0  0  0  0  0  0  0  0  0
  184.6230  174.4240  136.1140 C   0  0  0  0  0  2  0  0  0  0  0  0
  183.9050  173.4310  137.0400 C   0  0  0  0  0  3  0  0  0  0  0  0
  184.2190  171.9490  136.7620 C   0  0  0  0  0  2  0  0  0  0  0  0
  186.7230  172.0960  136.2460 C   0  0  0  0  0  2  0  0  0  0  0  0
  186.7670  173.3700  137.0960 C   0  0  0  0  0  2  0  0  0  0  0  0
  185.3290  171.7300  135.7280 C   0  0  0  0  0  2  0  0  0  0  0  0
  186.1160  174.5880  136.4280 C   0  0  0  0  0  2  0  0  0  0  0  0
  1 10  1  0  0  0  0
  2 15  1  0  0  0  0
  3 14  1  0  0  0  0
  4  1  1  6  0  0  0
  4 13  1  0  0  0  0
  5  8  1  0  0  0  0
  5  3  1  1  0  0  0
  6 29  1  0  0  0  0
  6  4  1  0  0  0  0
  8 11  1  1  0  0  0
 10  7  1  6  0  0  0
 10  5  1  0  0  0  0
 11  9  1  0  0  0  0
 12  6  1  0  0  0  0
 12  2  1  0  0  0  0
 13  8  1  0  0  0  0
 14 17  1  0  0  0  0
 14  9  1  0  0  0  0
 15 13  1  0  0  0  0
 17 16  1  0  0  0  0
 18 19  2  0  0  0  0
 19 10  1  0  0  0  0
 20 15  1  0  0  0  0
 20 23  1  0  0  0  0
 21 23  1  0  0  0  0
 23 22  1  0  0  0  0
 24 20  1  0  0  0  0
 25 24  1  0  0  0  0
 26 28  1  0  0  0  0
 27 25  1  0  0  0  0
 28 27  2  0  0  0  0
 30 29  1  0  0  0  0
 31 37  1  0  0  0  0
 31 32  1  0  0  0  0
 32 30  1  0  0  0  0
 33 32  1  0  0  0  0
 34 35  1  0  0  0  0
 36 34  1  0  0  0  0
 36 33  1  0  0  0  0
 37 35  1  0  0  0  0
M  END
>  <MODEL>
7

>  <REMARK>
 VINA RESULT:      -4.0      5.978     10.816
  Name = 
  10 active torsions:
  status: ('A' for Active; 'I' for Inactive)
    1  A    between atoms: C_1  and  C_23
    2  A    between atoms: C_1  and  O_33
    3  A    between atoms: C_1  and  C_36
    4  A    between atoms: C_6  and  S_31
    5  A    between atoms: N_14  and  C_37
    6  A    between atoms: C_17  and  C_26
    7  A    between atoms: C_17  and  O_33
    8  A    between atoms: C_24  and  C_28
    9  A    between atoms: O_30  and  C_32
   10  A    between atoms: S_31  and  C_37
                            x       y       z     vdW  Elec       q    Type
                         _______ _______ _______ _____ _____    ______ ____

>  <TORSDO>
F 10

$$$$
=
 OpenBabel10272414553D

 37 40  0  0  1  0  0  0  0  0999 V2000
  189.0020  177.6110  136.7090 O   0  0  0  0  0  0  0  0  0  0  0  0
  190.6920  174.5280  137.8770 C   0  0  0  0  0  2  0  0  0  0  0  0
  185.2350  177.0620  136.0540 C   0  0  0  0  0  2  0  0  0  0  0  0
  188.9770  176.8710  137.9070 C   0  0  2  0  0  3  0  0  0  0  0  0
  186.5740  176.9760  136.8000 C   0  0  1  0  0  3  0  0  0  0  0  0
  190.2830  176.8910  138.5810 N   0  0  0  0  0  0  0  0  0  0  0  0
  187.6840  178.0000  134.7730 C   0  0  0  0  0  1  0  0  0  0  0  0
  187.0840  175.5310  136.8860 C   0  0  2  0  0  3  0  0  0  0  0  0
  184.7250  174.7040  136.7800 C   0  0  0  0  0  2  0  0  0  0  0  0
  187.6790  177.9590  136.2970 C   0  0  2  0  0  0  0  0  0  0  0  0
  186.0420  174.6410  137.5510 C   0  0  0  0  0  2  0  0  0  0  0  0
  191.2440  175.9540  137.9810 C   0  0  0  0  0  2  0  0  0  0  0  0
  188.4060  175.4570  137.6590 C   0  0  1  0  0  3  0  0  0  0  0  0
  184.1980  176.1390  136.6960 C   0  0  1  0  0  3  0  0  0  0  0  0
  189.4340  174.5060  137.0120 C   0  0  1  0  0  3  0  0  0  0  0  0
  182.9310  177.6290  137.7330 C   0  0  0  0  0  1  0  0  0  0  0  0
  183.8520  176.6050  137.9670 O   0  0  0  0  0  0  0  0  0  0  0  0
  188.2250  180.0510  137.2720 O   0  0  0  0  0  0  0  0  0  0  0  0
  187.3550  179.3330  136.8060 C   0  0  0  0  0  3  0  0  0  0  0  0
  189.7660  174.8290  135.5280 C   0  0  2  0  0  3  0  0  0  0  0  0
  187.6420  174.7010  134.3520 O   0  0  0  0  0  1  0  0  0  0  0  0
  188.7320  172.6300  134.8450 C   0  0  0  0  0  1  0  0  0  0  0  0
  188.8940  174.0970  134.4910 C   0  0  2  0  0  3  0  0  0  0  0  0
  191.1500  174.8220  135.2190 O   0  0  0  0  0  0  0  0  0  0  0  0
  191.4830  176.0150  134.5510 C   0  0  0  0  0  2  0  0  0  0  0  0
  195.2570  175.4970  134.9550 C   0  0  0  0  0  1  0  0  0  0  0  0
  192.9620  176.0970  134.3650 C   0  0  0  0  0  3  0  0  0  0  0  0
  193.7790  175.4070  135.1520 C   0  0  0  0  0  3  0  0  0  0  0  0
  190.0900  176.5500  139.9860 C   0  0  0  0  0  2  0  0  0  0  0  0
  190.4140  178.0090  141.0310 S   0  0  0  0  0  0  0  0  0  0  0  0
  188.0920  178.4780  142.5000 C   0  0  0  0  0  2  0  0  0  0  0  0
  189.2900  177.5230  142.3870 C   0  0  0  0  0  3  0  0  0  0  0  0
  190.0710  177.3130  143.6980 C   0  0  0  0  0  2  0  0  0  0  0  0
  188.1420  177.2300  145.3780 C   0  0  0  0  0  2  0  0  0  0  0  0
  187.2360  176.7650  144.2340 C   0  0  0  0  0  2  0  0  0  0  0  0
  189.4140  177.9510  144.9260 C   0  0  0  0  0  2  0  0  0  0  0  0
  186.8860  177.8690  143.2270 C   0  0  0  0  0  2  0  0  0  0  0  0
  2 12  1  0  0  0  0
  3 14  1  0  0  0  0
  4  1  1  6  0  0  0
  4  6  1  0  0  0  0
  5  3  1  6  0  0  0
  5  8  1  0  0  0  0
  6 29  1  0  0  0  0
  8 11  1  1  0  0  0
  8 13  1  0  0  0  0
  9 11  1  0  0  0  0
 10  7  1  6  0  0  0
 10  1  1  0  0  0  0
 10  5  1  0  0  0  0
 10 19  1  0  0  0  0
 12  6  1  0  0  0  0
 13  4  1  0  0  0  0
 14  9  1  0  0  0  0
 14 17  1  0  0  0  0
 15 13  1  0  0  0  0
 15  2  1  0  0  0  0
 16 17  1  0  0  0  0
 19 18  2  0  0  0  0
 20 15  1  0  0  0  0
 21 23  1  0  0  0  0
 23 22  1  0  0  0  0
 23 20  1  0  0  0  0
 24 20  1  0  0  0  0
 25 24  1  0  0  0  0
 26 28  1  0  0  0  0
 27 25  1  0  0  0  0
 27 28  2  0  0  0  0
 29 30  1  0  0  0  0
 30 32  1  0  0  0  0
 31 37  1  0  0  0  0
 32 31  1  0  0  0  0
 32 33  1  0  0  0  0
 33 36  1  0  0  0  0
 35 34  1  0  0  0  0
 36 34  1  0  0  0  0
 37 35  1  0  0  0  0
M  END
>  <MODEL>
8

>  <REMARK>
 VINA RESULT:      -4.0      1.799      2.685
  Name = 
  10 active torsions:
  status: ('A' for Active; 'I' for Inactive)
    1  A    between atoms: C_1  and  C_23
    2  A    between atoms: C_1  and  O_33
    3  A    between atoms: C_1  and  C_36
    4  A    between atoms: C_6  and  S_31
    5  A    between atoms: N_14  and  C_37
    6  A    between atoms: C_17  and  C_26
    7  A    between atoms: C_17  and  O_33
    8  A    between atoms: C_24  and  C_28
    9  A    between atoms: O_30  and  C_32
   10  A    between atoms: S_31  and  C_37
                            x       y       z     vdW  Elec       q    Type
                         _______ _______ _______ _____ _____    ______ ____

>  <TORSDO>
F 10

$$$$
=
 OpenBabel10272414553D

 37 40  0  0  1  0  0  0  0  0999 V2000
  183.7630  179.1790  137.8200 O   0  0  0  0  0  0  0  0  0  0  0  0
  186.4270  176.6090  137.6760 C   0  0  0  0  0  2  0  0  0  0  0  0
  180.3630  177.7100  138.9180 C   0  0  0  0  0  2  0  0  0  0  0  0
  184.4750  178.4480  138.7900 C   0  0  2  0  0  3  0  0  0  0  0  0
  181.8780  177.9570  138.9430 C   0  0  1  0  0  3  0  0  0  0  0  0
  185.9040  178.7890  138.7810 N   0  0  0  0  0  0  0  0  0  0  0  0
  181.6290  179.2400  136.7800 C   0  0  0  0  0  1  0  0  0  0  0  0
  182.6660  176.6850  138.6010 C   0  0  2  0  0  3  0  0  0  0  0  0
  180.7870  175.2940  139.4950 C   0  0  0  0  0  2  0  0  0  0  0  0
  182.3650  179.1890  138.1140 C   0  0  2  0  0  0  0  0  0  0  0  0
  182.2900  175.5570  139.5550 C   0  0  0  0  0  2  0  0  0  0  0  0
  186.6370  178.1270  137.6920 C   0  0  0  0  0  2  0  0  0  0  0  0
  184.1760  176.9380  138.6590 C   0  0  1  0  0  3  0  0  0  0  0  0
  179.9870  176.5530  139.8450 C   0  0  1  0  0  3  0  0  0  0  0  0
  184.9470  176.2790  137.4960 C   0  0  1  0  0  3  0  0  0  0  0  0
  179.9840  178.2870  141.2200 C   0  0  0  0  0  1  0  0  0  0  0  0
  180.2010  176.9080  141.1790 O   0  0  0  0  0  0  0  0  0  0  0  0
  182.3390  181.5350  138.4550 O   0  0  0  0  0  0  0  0  0  0  0  0
  182.0360  180.4340  138.8840 C   0  0  0  0  0  3  0  0  0  0  0  0
  184.4480  176.6850  136.0800 C   0  0  2  0  0  3  0  0  0  0  0  0
  182.2240  176.0550  135.3280 O   0  0  0  0  0  1  0  0  0  0  0  0
  183.6620  174.2870  136.0530 C   0  0  0  0  0  1  0  0  0  0  0  0
  183.5580  175.6430  135.3790 C   0  0  2  0  0  3  0  0  0  0  0  0
  185.4460  177.2420  135.2420 O   0  0  0  0  0  0  0  0  0  0  0  0
  185.9410  176.2450  134.3820 C   0  0  0  0  0  2  0  0  0  0  0  0
  189.4170  174.6540  134.6100 C   0  0  0  0  0  1  0  0  0  0  0  0
  187.3950  176.0260  134.6390 C   0  0  0  0  0  3  0  0  0  0  0  0
  187.9610  174.8600  134.3490 C   0  0  0  0  0  3  0  0  0  0  0  0
  186.4880  178.4010  140.0600 C   0  0  0  0  0  2  0  0  0  0  0  0
  188.3070  178.3760  139.9330 S   0  0  0  0  0  0  0  0  0  0  0  0
  187.5110  178.1500  142.5940 C   0  0  0  0  0  2  0  0  0  0  0  0
  188.6030  177.7100  141.6090 C   0  0  0  0  0  3  0  0  0  0  0  0
  190.0430  178.0060  142.0690 C   0  0  0  0  0  2  0  0  0  0  0  0
  189.8540  177.4540  144.5620 C   0  0  0  0  0  2  0  0  0  0  0  0
  188.6930  176.5180  144.2110 C   0  0  0  0  0  2  0  0  0  0  0  0
  190.1440  178.5260  143.5070 C   0  0  0  0  0  2  0  0  0  0  0  0
  187.3980  177.2470  143.8300 C   0  0  0  0  0  2  0  0  0  0  0  0
  1 10  1  0  0  0  0
  2 12  1  0  0  0  0
  3 14  1  0  0  0  0
  4  1  1  6  0  0  0
  5  3  1  6  0  0  0
  6  4  1  0  0  0  0
  6 29  1  0  0  0  0
  8 13  1  0  0  0  0
  8  5  1  0  0  0  0
  8 11  1  1  0  0  0
  9 11  1  0  0  0  0
  9 14  1  0  0  0  0
 10  7  1  6  0  0  0
 10 19  1  0  0  0  0
 10  5  1  0  0  0  0
 12  6  1  0  0  0  0
 13  4  1  0  0  0  0
 14 17  1  0  0  0  0
 15  2  1  0  0  0  0
 15 13  1  0  0  0  0
 17 16  1  0  0  0  0
 18 19  2  0  0  0  0
 20 15  1  0  0  0  0
 21 23  1  0  0  0  0
 23 22  1  0  0  0  0
 23 20  1  0  0  0  0
 24 20  1  0  0  0  0
 25 27  1  0  0  0  0
 25 24  1  0  0  0  0
 28 26  1  0  0  0  0
 28 27  2  0  0  0  0
 30 29  1  0  0  0  0
 30 32  1  0  0  0  0
 31 37  1  0  0  0  0
 32 33  1  0  0  0  0
 32 31  1  0  0  0  0
 33 36  1  0  0  0  0
 35 34  1  0  0  0  0
 36 34  1  0  0  0  0
 37 35  1  0  0  0  0
M  END
>  <MODEL>
9

>  <REMARK>
 VINA RESULT:      -4.0      4.403      6.789
  Name = 
  10 active torsions:
  status: ('A' for Active; 'I' for Inactive)
    1  A    between atoms: C_1  and  C_23
    2  A    between atoms: C_1  and  O_33
    3  A    between atoms: C_1  and  C_36
    4  A    between atoms: C_6  and  S_31
    5  A    between atoms: N_14  and  C_37
    6  A    between atoms: C_17  and  C_26
    7  A    between atoms: C_17  and  O_33
    8  A    between atoms: C_24  and  C_28
    9  A    between atoms: O_30  and  C_32
   10  A    between atoms: S_31  and  C_37
                            x       y       z     vdW  Elec       q    Type
                         _______ _______ _______ _____ _____    ______ ____

>  <TORSDO>
F 10

$$$$
