=
 OpenBabel10272413573D

 30 36  0  0  1  0  0  0  0  0999 V2000
  185.7620  178.2030  138.1350 C   0  0  0  0  0  0  0  0  0  0  0  0
  187.9880  178.7250  137.0390 C   0  0  1  0  0  3  0  0  0  0  0  0
  186.6260  175.3760  136.3100 C   0  0  0  0  0  2  0  0  0  0  0  0
  184.4810  177.7920  138.0050 C   0  0  0  0  0  0  0  0  0  0  0  0
  186.1990  178.7740  139.3770 N   0  0  0  0  0  0  0  0  0  0  0  0
  183.4660  178.1570  141.8900 S   0  0  0  0  0  0  0  0  0  0  0  0
  181.2590  177.6550  138.1610 C   0  0  1  0  0  3  0  0  0  0  0  0
  183.9130  178.7890  140.2360 C   0  0  1  0  0  3  0  0  0  0  0  0
  185.8400  179.3300  141.6430 N   0  0  0  0  0  2  0  0  0  0  0  0
  183.0540  174.8740  137.9380 C   0  0  0  0  0  2  0  0  0  0  0  0
  185.3420  174.6380  136.7360 C   0  0  2  0  0  3  0  0  0  0  0  0
  185.3740  179.0410  140.3400 C   0  0  0  0  0  0  0  0  0  0  0  0
  183.5880  177.8630  139.1350 N   0  0  0  0  0  0  0  0  0  0  0  0
  189.0120  178.1690  136.0590 C   0  0  0  0  0  2  0  0  0  0  0  0
  182.2080  175.6090  139.0100 C   0  0  2  0  0  3  0  0  0  0  0  0
  180.4010  176.5840  137.8030 O   0  0  0  0  0  0  0  0  0  0  0  0
  185.3360  178.4890  143.8030 N   0  0  0  0  0  1  0  0  0  0  0  0
  187.5520  179.9710  136.5850 O   0  0  0  0  0  1  0  0  0  0  0  0
  187.2100  176.2880  137.3930 C   0  0  2  0  0  3  0  0  0  0  0  0
  189.5600  176.8000  136.4840 C   0  0  0  0  0  2  0  0  0  0  0  0
  184.7980  179.1680  142.6390 C   0  0  2  0  0  3  0  0  0  0  0  0
  186.8030  177.7600  137.1340 C   0  0  1  0  0  3  0  0  0  0  0  0
  184.1310  176.8660  136.9050 C   0  0  0  0  0  2  0  0  0  0  0  0
  184.6790  174.0490  135.5030 C   0  0  0  0  0  1  0  0  0  0  0  0
  184.3700  175.5180  137.5370 C   0  0  1  0  0  3  0  0  0  0  0  0
  180.7840  175.4320  138.5330 C   0  0  0  0  0  2  0  0  0  0  0  0
  181.1140  177.9540  139.6460 C   0  0  0  0  0  2  0  0  0  0  0  0
  188.7210  176.0630  137.5380 C   0  0  1  0  0  3  0  0  0  0  0  0
  189.1790  176.4390  138.9350 C   0  0  0  0  0  1  0  0  0  0  0  0
  182.2970  177.1370  139.1220 C   0  0  2  0  0  0  0  0  0  0  0  0
  1  5  1  0  0  0  0
  2 18  1  6  0  0  0
  2 22  1  0  0  0  0
  3 11  1  0  0  0  0
  4  1  2  0  0  0  0
  4 13  1  0  0  0  0
  5 12  2  0  0  0  0
  6 21  1  0  0  0  0
  7 30  1  0  0  0  0
  7 27  1  1  0  0  0
  8 12  1  1  0  0  0
  8  6  1  0  0  0  0
  9 21  1  0  0  0  0
 11 24  1  6  0  0  0
 11 25  1  0  0  0  0
 12  9  1  0  0  0  0
 13  8  1  0  0  0  0
 14 20  1  0  0  0  0
 14  2  1  0  0  0  0
 15 10  1  6  0  0  0
 15 30  1  0  0  0  0
 16  7  1  0  0  0  0
 16 26  1  0  0  0  0
 19  3  1  6  0  0  0
 19 28  1  0  0  0  0
 20 28  1  0  0  0  0
 21 17  1  1  0  0  0
 22 19  1  0  0  0  0
 22  1  1  1  0  0  0
 23  4  1  0  0  0  0
 25 23  1  6  0  0  0
 25 10  1  0  0  0  0
 26 15  1  0  0  0  0
 28 29  1  1  0  0  0
 30 13  1  0  0  0  0
 30 27  1  1  0  0  0
M  END
>  <MODEL>
1

>  <REMARK>
 VINA RESULT:      -6.9      0.000      0.000
  Name = 
  0 active torsions:
  status: ('A' for Active; 'I' for Inactive)
                            x       y       z     vdW  Elec       q    Type
                         _______ _______ _______ _____ _____    ______ ____

>  <TORSDO>
F 0

$$$$
=
 OpenBabel10272413573D

 30 36  0  0  1  0  0  0  0  0999 V2000
  185.8360  178.7870  139.7830 C   0  0  0  0  0  0  0  0  0  0  0  0
  183.6120  179.8200  139.1350 C   0  0  1  0  0  3  0  0  0  0  0  0
  183.7730  178.4620  142.5600 C   0  0  0  0  0  2  0  0  0  0  0  0
  186.8710  178.7300  140.6510 C   0  0  0  0  0  0  0  0  0  0  0  0
  185.9360  178.1200  138.5170 N   0  0  0  0  0  0  0  0  0  0  0  0
  189.0010  175.9410  138.6650 S   0  0  0  0  0  0  0  0  0  0  0  0
  189.8490  178.7440  141.8980 C   0  0  1  0  0  3  0  0  0  0  0  0
  188.2900  177.6040  138.9130 C   0  0  1  0  0  3  0  0  0  0  0  0
  187.0550  176.6850  137.0130 N   0  0  0  0  0  2  0  0  0  0  0  0
  187.3940  177.1120  143.4200 C   0  0  0  0  0  2  0  0  0  0  0  0
  184.8820  177.7640  143.3730 C   0  0  2  0  0  3  0  0  0  0  0  0
  187.0390  177.5740  138.1110 C   0  0  0  0  0  0  0  0  0  0  0  0
  188.0330  177.9380  140.3270 N   0  0  0  0  0  0  0  0  0  0  0  0
  182.2440  180.1900  139.6910 C   0  0  0  0  0  2  0  0  0  0  0  0
  188.6710  176.7660  142.6120 C   0  0  2  0  0  3  0  0  0  0  0  0
  190.2550  178.4380  143.2210 O   0  0  0  0  0  0  0  0  0  0  0  0
  187.9070  174.4980  136.6680 N   0  0  0  0  0  1  0  0  0  0  0  0
  184.2160  180.9640  138.6110 O   0  0  0  0  0  1  0  0  0  0  0  0
  183.7830  178.1160  141.0680 C   0  0  2  0  0  3  0  0  0  0  0  0
  181.4960  178.9850  140.2780 C   0  0  0  0  0  2  0  0  0  0  0  0
  188.2540  175.8690  136.9930 C   0  0  2  0  0  3  0  0  0  0  0  0
  184.4760  179.2420  140.2590 C   0  0  1  0  0  3  0  0  0  0  0  0
  186.6370  179.0640  142.0730 C   0  0  0  0  0  2  0  0  0  0  0  0
  184.9880  178.4310  144.7340 C   0  0  0  0  0  1  0  0  0  0  0  0
  186.2380  177.7300  142.6510 C   0  0  1  0  0  3  0  0  0  0  0  0
  189.8020  177.1350  143.5450 C   0  0  0  0  0  2  0  0  0  0  0  0
  190.4810  177.7590  140.9270 C   0  0  0  0  0  2  0  0  0  0  0  0
  182.3720  177.7610  140.5820 C   0  0  1  0  0  3  0  0  0  0  0  0
  182.4450  176.8500  139.3700 C   0  0  0  0  0  1  0  0  0  0  0  0
  189.0270  177.5980  141.3710 C   0  0  2  0  0  0  0  0  0  0  0  0
  1  4  2  0  0  0  0
  2 18  1  1  0  0  0
  2 14  1  0  0  0  0
  2 22  1  0  0  0  0
  3 11  1  0  0  0  0
  4 23  1  0  0  0  0
  5  1  1  0  0  0  0
  6  8  1  0  0  0  0
  7 27  1  6  0  0  0
  7 16  1  0  0  0  0
  8 12  1  6  0  0  0
  8 13  1  0  0  0  0
  9 12  1  0  0  0  0
 11 24  1  1  0  0  0
 12  5  2  0  0  0  0
 13  4  1  0  0  0  0
 13 30  1  0  0  0  0
 14 20  1  0  0  0  0
 15 10  1  1  0  0  0
 15 26  1  0  0  0  0
 16 26  1  0  0  0  0
 19  3  1  1  0  0  0
 20 28  1  0  0  0  0
 21 17  1  1  0  0  0
 21  9  1  0  0  0  0
 21  6  1  0  0  0  0
 22  1  1  6  0  0  0
 22 19  1  0  0  0  0
 25 23  1  1  0  0  0
 25 11  1  0  0  0  0
 25 10  1  0  0  0  0
 28 29  1  6  0  0  0
 28 19  1  0  0  0  0
 30 27  1  6  0  0  0
 30  7  1  0  0  0  0
 30 15  1  0  0  0  0
M  END
>  <MODEL>
2

>  <REMARK>
 VINA RESULT:      -6.8      3.028      7.008
  Name = 
  0 active torsions:
  status: ('A' for Active; 'I' for Inactive)
                            x       y       z     vdW  Elec       q    Type
                         _______ _______ _______ _____ _____    ______ ____

>  <TORSDO>
F 0

$$$$
=
 OpenBabel10272413573D

 30 36  0  0  1  0  0  0  0  0999 V2000
  185.7440  178.3160  138.3650 C   0  0  0  0  0  0  0  0  0  0  0  0
  187.7070  178.5040  136.7710 C   0  0  1  0  0  3  0  0  0  0  0  0
  185.3240  175.7920  136.0150 C   0  0  0  0  0  2  0  0  0  0  0  0
  184.4050  178.2560  138.5440 C   0  0  0  0  0  0  0  0  0  0  0  0
  186.6010  178.5050  139.5000 N   0  0  0  0  0  0  0  0  0  0  0  0
  184.4710  178.0610  142.5710 S   0  0  0  0  0  0  0  0  0  0  0  0
  181.4050  178.8600  139.5720 C   0  0  1  0  0  3  0  0  0  0  0  0
  184.6790  178.8890  140.9570 C   0  0  1  0  0  3  0  0  0  0  0  0
  186.9530  178.6620  141.8290 N   0  0  0  0  0  2  0  0  0  0  0  0
  182.2380  175.8360  138.4930 C   0  0  0  0  0  2  0  0  0  0  0  0
  184.0200  175.3100  136.6810 C   0  0  2  0  0  3  0  0  0  0  0  0
  186.1340  178.7600  140.6820 C   0  0  0  0  0  0  0  0  0  0  0  0
  183.8580  178.3080  139.8780 N   0  0  0  0  0  0  0  0  0  0  0  0
  188.2740  177.9290  135.4800 C   0  0  0  0  0  2  0  0  0  0  0  0
  181.9090  176.5200  139.8460 C   0  0  2  0  0  3  0  0  0  0  0  0
  180.2210  178.1190  139.3300 O   0  0  0  0  0  0  0  0  0  0  0  0
  186.7510  177.5470  143.9140 N   0  0  0  0  0  1  0  0  0  0  0  0
  187.5470  179.8830  136.6250 O   0  0  0  0  0  1  0  0  0  0  0  0
  186.3780  176.3020  137.0030 C   0  0  2  0  0  3  0  0  0  0  0  0
  188.4970  176.4130  135.5520 C   0  0  0  0  0  2  0  0  0  0  0  0
  186.1700  178.5550  143.0460 C   0  0  2  0  0  3  0  0  0  0  0  0
  186.3530  177.8500  137.0640 C   0  0  1  0  0  3  0  0  0  0  0  0
  183.5620  177.6810  137.4730 C   0  0  0  0  0  2  0  0  0  0  0  0
  182.9490  175.1560  135.6140 C   0  0  0  0  0  1  0  0  0  0  0  0
  183.5510  176.2160  137.8300 C   0  0  1  0  0  3  0  0  0  0  0  0
  180.4230  176.7870  139.7650 C   0  0  0  0  0  2  0  0  0  0  0  0
  181.7010  178.8800  141.0640 C   0  0  0  0  0  2  0  0  0  0  0  0
  187.7540  175.6990  136.6900 C   0  0  1  0  0  3  0  0  0  0  0  0
  188.6120  175.6660  137.9420 C   0  0  0  0  0  1  0  0  0  0  0  0
  182.4480  177.9280  140.1290 C   0  0  2  0  0  0  0  0  0  0  0  0
  1  4  2  0  0  0  0
  1  5  1  0  0  0  0
  2 18  1  6  0  0  0
  2 22  1  0  0  0  0
  3 11  1  0  0  0  0
  4 13  1  0  0  0  0
  5 12  2  0  0  0  0
  6 21  1  0  0  0  0
  7 30  1  0  0  0  0
  7 27  1  1  0  0  0
  8 12  1  6  0  0  0
  8  6  1  0  0  0  0
  9 21  1  0  0  0  0
 11 24  1  6  0  0  0
 11 25  1  0  0  0  0
 12  9  1  0  0  0  0
 13 30  1  0  0  0  0
 13  8  1  0  0  0  0
 14 20  1  0  0  0  0
 14  2  1  0  0  0  0
 15 10  1  6  0  0  0
 15 30  1  0  0  0  0
 16  7  1  0  0  0  0
 16 26  1  0  0  0  0
 19  3  1  6  0  0  0
 19 22  1  0  0  0  0
 20 28  1  0  0  0  0
 21 17  1  1  0  0  0
 22  1  1  1  0  0  0
 23  4  1  0  0  0  0
 25 23  1  6  0  0  0
 25 10  1  0  0  0  0
 26 15  1  0  0  0  0
 28 19  1  0  0  0  0
 28 29  1  1  0  0  0
 30 27  1  1  0  0  0
M  END
>  <MODEL>
3

>  <REMARK>
 VINA RESULT:      -6.8      1.186      1.305
  Name = 
  0 active torsions:
  status: ('A' for Active; 'I' for Inactive)
                            x       y       z     vdW  Elec       q    Type
                         _______ _______ _______ _____ _____    ______ ____

>  <TORSDO>
F 0

$$$$
=
 OpenBabel10272413573D

 30 36  0  0  1  0  0  0  0  0999 V2000
  187.3090  176.2920  136.1950 C   0  0  0  0  0  0  0  0  0  0  0  0
  189.7070  176.8620  135.5960 C   0  0  1  0  0  3  0  0  0  0  0  0
  189.1200  173.3480  136.5500 C   0  0  0  0  0  2  0  0  0  0  0  0
  186.2290  175.5040  136.0000 C   0  0  0  0  0  0  0  0  0  0  0  0
  187.1790  177.4940  136.9660 N   0  0  0  0  0  0  0  0  0  0  0  0
  183.7950  177.3800  138.6110 S   0  0  0  0  0  0  0  0  0  0  0  0
  183.2230  174.4930  135.3900 C   0  0  1  0  0  3  0  0  0  0  0  0
  184.7520  177.2320  137.0630 C   0  0  1  0  0  3  0  0  0  0  0  0
  185.9330  178.9410  138.3550 N   0  0  0  0  0  2  0  0  0  0  0  0
  185.2830  172.6450  137.2200 C   0  0  0  0  0  2  0  0  0  0  0  0
  187.8650  172.5600  136.9770 C   0  0  2  0  0  3  0  0  0  0  0  0
  186.0270  177.9310  137.3710 C   0  0  0  0  0  0  0  0  0  0  0  0
  184.9740  175.8400  136.6290 N   0  0  0  0  0  0  0  0  0  0  0  0
  191.0810  176.2400  135.3890 C   0  0  0  0  0  2  0  0  0  0  0  0
  184.0170  173.5130  137.4430 C   0  0  2  0  0  3  0  0  0  0  0  0
  182.6930  173.1820  135.4910 O   0  0  0  0  0  0  0  0  0  0  0  0
  184.7580  179.1450  140.4070 N   0  0  0  0  0  1  0  0  0  0  0  0
  189.3300  177.5330  134.4310 O   0  0  0  0  0  1  0  0  0  0  0  0
  189.1440  174.7980  137.0430 C   0  0  2  0  0  3  0  0  0  0  0  0
  191.5850  175.4880  136.6280 C   0  0  0  0  0  2  0  0  0  0  0  0
  184.6200  178.9760  138.9720 C   0  0  2  0  0  3  0  0  0  0  0  0
  188.6940  175.7570  135.9120 C   0  0  1  0  0  3  0  0  0  0  0  0
  186.4280  174.1050  135.5600 C   0  0  0  0  0  2  0  0  0  0  0  0
  187.7870  171.2790  136.1650 C   0  0  0  0  0  1  0  0  0  0  0  0
  186.5680  173.3770  136.8730 C   0  0  1  0  0  3  0  0  0  0  0  0
  182.9070  172.7060  136.8080 C   0  0  0  0  0  2  0  0  0  0  0  0
  182.4980  175.4150  136.3600 C   0  0  0  0  0  2  0  0  0  0  0  0
  190.5050  175.1400  137.6620 C   0  0  1  0  0  3  0  0  0  0  0  0
  190.3580  176.2640  138.6710 C   0  0  0  0  0  1  0  0  0  0  0  0
  183.8770  174.8480  136.6990 C   0  0  2  0  0  0  0  0  0  0  0  0
  1  5  1  0  0  0  0
  2 18  1  6  0  0  0
  2 22  1  0  0  0  0
  3 11  1  0  0  0  0
  4  1  2  0  0  0  0
  4 13  1  0  0  0  0
  5 12  2  0  0  0  0
  6 21  1  0  0  0  0
  7 16  1  0  0  0  0
  7 27  1  1  0  0  0
  7 30  1  0  0  0  0
  8 12  1  1  0  0  0
  8  6  1  0  0  0  0
  9 21  1  0  0  0  0
 10 15  1  0  0  0  0
 11 24  1  6  0  0  0
 12  9  1  0  0  0  0
 13 30  1  0  0  0  0
 13  8  1  0  0  0  0
 14  2  1  0  0  0  0
 14 20  1  0  0  0  0
 15 26  1  6  0  0  0
 16 26  1  0  0  0  0
 19  3  1  6  0  0  0
 19 28  1  0  0  0  0
 20 28  1  0  0  0  0
 21 17  1  1  0  0  0
 22  1  1  1  0  0  0
 22 19  1  0  0  0  0
 23  4  1  0  0  0  0
 25 23  1  6  0  0  0
 25 11  1  0  0  0  0
 25 10  1  0  0  0  0
 28 29  1  1  0  0  0
 30 27  1  1  0  0  0
 30 15  1  0  0  0  0
M  END
>  <MODEL>
4

>  <REMARK>
 VINA RESULT:      -6.5      2.299      3.403
  Name = 
  0 active torsions:
  status: ('A' for Active; 'I' for Inactive)
                            x       y       z     vdW  Elec       q    Type
                         _______ _______ _______ _____ _____    ______ ____

>  <TORSDO>
F 0

$$$$
=
 OpenBabel10272413573D

 30 36  0  0  1  0  0  0  0  0999 V2000
  187.3040  178.4150  139.5030 C   0  0  0  0  0  0  0  0  0  0  0  0
  188.0130  178.5710  137.0730 C   0  0  1  0  0  3  0  0  0  0  0  0
  184.4900  177.6250  137.6240 C   0  0  0  0  0  2  0  0  0  0  0  0
  186.4450  178.7830  140.4790 C   0  0  0  0  0  0  0  0  0  0  0  0
  188.5130  177.7230  139.8480 N   0  0  0  0  0  0  0  0  0  0  0  0
  188.2200  176.7430  143.4700 S   0  0  0  0  0  0  0  0  0  0  0  0
  185.2320  179.9130  143.2490 C   0  0  1  0  0  3  0  0  0  0  0  0
  188.0990  178.0770  142.2290 C   0  0  1  0  0  3  0  0  0  0  0  0
  189.9080  176.6430  141.4170 N   0  0  0  0  0  2  0  0  0  0  0  0
  183.5600  177.6670  141.4710 C   0  0  0  0  0  2  0  0  0  0  0  0
  183.6340  177.4160  138.8890 C   0  0  2  0  0  3  0  0  0  0  0  0
  188.8840  177.5570  141.0780 C   0  0  0  0  0  0  0  0  0  0  0  0
  186.7140  178.4130  141.8470 N   0  0  0  0  0  0  0  0  0  0  0  0
  187.4750  178.4930  135.6500 C   0  0  0  0  0  2  0  0  0  0  0  0
  184.3490  177.7160  142.8050 C   0  0  2  0  0  3  0  0  0  0  0  0
  183.8920  179.8700  143.7110 O   0  0  0  0  0  0  0  0  0  0  0  0
  190.0820  174.8580  142.9710 N   0  0  0  0  0  1  0  0  0  0  0  0
  188.6330  179.8070  137.2590 O   0  0  0  0  0  1  0  0  0  0  0  0
  185.9500  177.1860  137.7790 C   0  0  2  0  0  3  0  0  0  0  0  0
  186.7850  177.1560  135.3480 C   0  0  0  0  0  2  0  0  0  0  0  0
  189.8720  176.2870  142.8230 C   0  0  2  0  0  3  0  0  0  0  0  0
  186.8530  178.4130  138.0610 C   0  0  1  0  0  3  0  0  0  0  0  0
  185.0520  179.1300  140.1180 C   0  0  0  0  0  2  0  0  0  0  0  0
  182.3330  178.1840  138.7360 C   0  0  0  0  0  1  0  0  0  0  0  0
  184.3640  177.7900  140.1880 C   0  0  1  0  0  3  0  0  0  0  0  0
  183.4600  178.5210  143.7240 C   0  0  0  0  0  2  0  0  0  0  0  0
  186.1260  179.1300  144.1980 C   0  0  0  0  0  2  0  0  0  0  0  0
  186.3920  176.3340  136.5830 C   0  0  1  0  0  3  0  0  0  0  0  0
  187.5260  175.4090  136.9850 C   0  0  0  0  0  1  0  0  0  0  0  0
  185.6560  178.5170  142.8780 C   0  0  2  0  0  0  0  0  0  0  0  0
  1  5  1  0  0  0  0
  1  4  2  0  0  0  0
  2 18  1  6  0  0  0
  2 22  1  0  0  0  0
  3 11  1  0  0  0  0
  4 13  1  0  0  0  0
  5 12  2  0  0  0  0
  7 16  1  0  0  0  0
  7 27  1  1  0  0  0
  8 12  1  6  0  0  0
  8  6  1  0  0  0  0
  9 21  1  0  0  0  0
 11 24  1  6  0  0  0
 11 25  1  0  0  0  0
 12  9  1  0  0  0  0
 13  8  1  0  0  0  0
 13 30  1  0  0  0  0
 14  2  1  0  0  0  0
 15 10  1  6  0  0  0
 15 30  1  0  0  0  0
 15 26  1  0  0  0  0
 16 26  1  0  0  0  0
 19  3  1  6  0  0  0
 19 22  1  0  0  0  0
 20 14  1  0  0  0  0
 20 28  1  0  0  0  0
 21 17  1  6  0  0  0
 21  6  1  0  0  0  0
 22  1  1  1  0  0  0
 23  4  1  0  0  0  0
 25 23  1  6  0  0  0
 25 10  1  0  0  0  0
 28 29  1  1  0  0  0
 28 19  1  0  0  0  0
 30  7  1  0  0  0  0
 30 27  1  1  0  0  0
M  END
>  <MODEL>
5

>  <REMARK>
 VINA RESULT:      -6.3      2.725      4.412
  Name = 
  0 active torsions:
  status: ('A' for Active; 'I' for Inactive)
                            x       y       z     vdW  Elec       q    Type
                         _______ _______ _______ _____ _____    ______ ____

>  <TORSDO>
F 0

$$$$
=
 OpenBabel10272413573D

 30 36  0  0  1  0  0  0  0  0999 V2000
  185.5500  176.4830  136.4150 C   0  0  0  0  0  0  0  0  0  0  0  0
  187.6300  177.8370  135.8950 C   0  0  1  0  0  3  0  0  0  0  0  0
  188.2160  174.2620  136.5880 C   0  0  0  0  0  2  0  0  0  0  0  0
  184.7790  175.4050  136.1480 C   0  0  0  0  0  0  0  0  0  0  0  0
  185.0450  177.5200  137.2680 N   0  0  0  0  0  0  0  0  0  0  0  0
  181.8930  176.2030  138.8490 S   0  0  0  0  0  0  0  0  0  0  0  0
  182.2550  173.5270  135.4220 C   0  0  1  0  0  3  0  0  0  0  0  0
  182.8330  176.4840  137.3090 C   0  0  1  0  0  3  0  0  0  0  0  0
  183.4110  178.3830  138.7380 N   0  0  0  0  0  2  0  0  0  0  0  0
  184.8160  172.3140  137.1470 C   0  0  0  0  0  2  0  0  0  0  0  0
  187.2860  173.0830  136.9380 C   0  0  2  0  0  3  0  0  0  0  0  0
  183.8180  177.5320  137.6860 C   0  0  0  0  0  0  0  0  0  0  0  0
  183.4890  175.2730  136.7800 N   0  0  0  0  0  0  0  0  0  0  0  0
  189.1300  177.7080  135.6660 C   0  0  0  0  0  2  0  0  0  0  0  0
  183.3400  172.7080  137.4120 C   0  0  2  0  0  3  0  0  0  0  0  0
  182.1780  172.1110  135.4210 O   0  0  0  0  0  0  0  0  0  0  0  0
  182.2500  178.0490  140.7800 N   0  0  0  0  0  1  0  0  0  0  0  0
  187.0470  178.4330  134.7760 O   0  0  0  0  0  1  0  0  0  0  0  0
  187.7750  175.6030  137.1830 C   0  0  2  0  0  3  0  0  0  0  0  0
  189.8600  177.0710  136.8560 C   0  0  0  0  0  2  0  0  0  0  0  0
  182.1620  177.9490  139.3350 C   0  0  2  0  0  3  0  0  0  0  0  0
  187.0300  176.4450  136.1170 C   0  0  1  0  0  3  0  0  0  0  0  0
  185.4150  174.1810  135.6130 C   0  0  0  0  0  2  0  0  0  0  0  0
  187.6190  171.9070  136.0360 C   0  0  0  0  0  1  0  0  0  0  0  0
  185.7930  173.4440  136.8730 C   0  0  1  0  0  3  0  0  0  0  0  0
  182.5440  171.6350  136.7040 C   0  0  0  0  0  2  0  0  0  0  0  0
  181.2800  174.0930  136.4440 C   0  0  0  0  0  2  0  0  0  0  0  0
  188.9580  176.3190  137.8460 C   0  0  1  0  0  3  0  0  0  0  0  0
  188.4650  177.2600  138.9300 C   0  0  0  0  0  1  0  0  0  0  0  0
  182.7710  173.9770  136.7630 C   0  0  2  0  0  0  0  0  0  0  0  0
  1  5  1  0  0  0  0
  2 18  1  6  0  0  0
  2 22  1  0  0  0  0
  3 11  1  0  0  0  0
  4  1  2  0  0  0  0
  4 13  1  0  0  0  0
  5 12  2  0  0  0  0
  6 21  1  0  0  0  0
  7 27  1  1  0  0  0
  7 30  1  0  0  0  0
  8 12  1  1  0  0  0
  8  6  1  0  0  0  0
  9 21  1  0  0  0  0
 10 15  1  0  0  0  0
 11 24  1  6  0  0  0
 12  9  1  0  0  0  0
 13  8  1  0  0  0  0
 14  2  1  0  0  0  0
 14 20  1  0  0  0  0
 15 26  1  6  0  0  0
 16  7  1  0  0  0  0
 16 26  1  0  0  0  0
 19  3  1  6  0  0  0
 19 28  1  0  0  0  0
 20 28  1  0  0  0  0
 21 17  1  1  0  0  0
 22  1  1  1  0  0  0
 22 19  1  0  0  0  0
 23  4  1  0  0  0  0
 25 23  1  6  0  0  0
 25 11  1  0  0  0  0
 25 10  1  0  0  0  0
 28 29  1  1  0  0  0
 30 27  1  1  0  0  0
 30 13  1  0  0  0  0
 30 15  1  0  0  0  0
M  END
>  <MODEL>
6

>  <REMARK>
 VINA RESULT:      -5.7      2.335      3.287
  Name = 
  0 active torsions:
  status: ('A' for Active; 'I' for Inactive)
                            x       y       z     vdW  Elec       q    Type
                         _______ _______ _______ _____ _____    ______ ____

>  <TORSDO>
F 0

$$$$
=
 OpenBabel10272413573D

 30 36  0  0  1  0  0  0  0  0999 V2000
  186.3120  176.3050  136.9490 C   0  0  0  0  0  0  0  0  0  0  0  0
  187.5430  174.9530  135.1910 C   0  0  1  0  0  3  0  0  0  0  0  0
  184.4520  173.4080  136.4790 C   0  0  0  0  0  2  0  0  0  0  0  0
  185.1600  176.8750  137.3670 C   0  0  0  0  0  0  0  0  0  0  0  0
  187.5410  176.6160  137.6210 N   0  0  0  0  0  0  0  0  0  0  0  0
  186.6310  178.4880  140.7580 S   0  0  0  0  0  0  0  0  0  0  0  0
  182.9910  179.0240  138.4150 C   0  0  1  0  0  3  0  0  0  0  0  0
  186.4400  178.3460  138.9470 C   0  0  1  0  0  3  0  0  0  0  0  0
  188.7410  177.6380  139.3790 N   0  0  0  0  0  2  0  0  0  0  0  0
  182.5910  175.7900  139.0340 C   0  0  0  0  0  2  0  0  0  0  0  0
  183.4030  173.8440  137.5210 C   0  0  2  0  0  3  0  0  0  0  0  0
  187.6140  177.5350  138.5320 C   0  0  0  0  0  0  0  0  0  0  0  0
  185.1660  177.7310  138.5280 N   0  0  0  0  0  0  0  0  0  0  0  0
  187.4400  173.6900  134.3470 C   0  0  0  0  0  2  0  0  0  0  0  0
  182.9570  177.0720  139.8270 C   0  0  2  0  0  3  0  0  0  0  0  0
  181.6550  178.8010  138.8330 O   0  0  0  0  0  0  0  0  0  0  0  0
  189.0370  177.7570  141.7300 N   0  0  0  0  0  1  0  0  0  0  0  0
  187.6920  176.0550  134.3470 O   0  0  0  0  0  1  0  0  0  0  0  0
  185.8840  173.8320  136.8210 C   0  0  2  0  0  3  0  0  0  0  0  0
  187.2870  172.4200  135.1940 C   0  0  0  0  0  2  0  0  0  0  0  0
  188.4530  178.4100  140.5730 C   0  0  2  0  0  3  0  0  0  0  0  0
  186.2710  175.1060  136.0300 C   0  0  1  0  0  3  0  0  0  0  0  0
  183.8710  176.2770  136.9550 C   0  0  0  0  0  2  0  0  0  0  0  0
  182.0160  173.6770  136.9230 C   0  0  0  0  0  1  0  0  0  0  0  0
  183.6240  175.2700  138.0490 C   0  0  1  0  0  3  0  0  0  0  0  0
  181.6610  177.8480  139.8810 C   0  0  0  0  0  2  0  0  0  0  0  0
  183.8030  179.5860  139.5720 C   0  0  0  0  0  2  0  0  0  0  0  0
  186.8550  172.6570  136.6480 C   0  0  1  0  0  3  0  0  0  0  0  0
  188.0710  172.8420  137.5370 C   0  0  0  0  0  1  0  0  0  0  0  0
  183.8970  178.1070  139.1930 C   0  0  2  0  0  0  0  0  0  0  0  0
  1  4  2  0  0  0  0
  1  5  1  0  0  0  0
  2 18  1  6  0  0  0
  2 22  1  0  0  0  0
  3 11  1  0  0  0  0
  4 13  1  0  0  0  0
  5 12  2  0  0  0  0
  7 16  1  0  0  0  0
  7 30  1  0  0  0  0
  7 27  1  1  0  0  0
  8 12  1  1  0  0  0
  8  6  1  0  0  0  0
  9 21  1  0  0  0  0
 11 24  1  6  0  0  0
 11 25  1  0  0  0  0
 12  9  1  0  0  0  0
 13  8  1  0  0  0  0
 13 30  1  0  0  0  0
 14  2  1  0  0  0  0
 14 20  1  0  0  0  0
 15 10  1  6  0  0  0
 15 26  1  0  0  0  0
 16 26  1  0  0  0  0
 19  3  1  6  0  0  0
 20 28  1  0  0  0  0
 21  6  1  0  0  0  0
 21 17  1  1  0  0  0
 22 19  1  0  0  0  0
 22  1  1  1  0  0  0
 23  4  1  0  0  0  0
 25 23  1  6  0  0  0
 25 10  1  0  0  0  0
 28 19  1  0  0  0  0
 28 29  1  1  0  0  0
 30 27  1  1  0  0  0
 30 15  1  0  0  0  0
M  END
>  <MODEL>
7

>  <REMARK>
 VINA RESULT:      -5.6      2.155      3.190
  Name = 
  0 active torsions:
  status: ('A' for Active; 'I' for Inactive)
                            x       y       z     vdW  Elec       q    Type
                         _______ _______ _______ _____ _____    ______ ____

>  <TORSDO>
F 0

$$$$
=
 OpenBabel10272413573D

 30 36  0  0  1  0  0  0  0  0999 V2000
  183.7180  177.7800  137.5040 C   0  0  0  0  0  0  0  0  0  0  0  0
  181.2390  178.1550  137.8840 C   0  0  1  0  0  3  0  0  0  0  0  0
  183.3530  178.4690  140.8900 C   0  0  0  0  0  2  0  0  0  0  0  0
  184.9850  178.2310  137.6360 C   0  0  0  0  0  0  0  0  0  0  0  0
  183.4550  176.6410  136.6720 N   0  0  0  0  0  0  0  0  0  0  0  0
  186.7880  175.1240  135.8030 S   0  0  0  0  0  0  0  0  0  0  0  0
  188.0140  179.1400  136.9850 C   0  0  1  0  0  3  0  0  0  0  0  0
  185.7590  176.6320  135.8630 C   0  0  1  0  0  3  0  0  0  0  0  0
  184.1850  174.8340  135.3410 N   0  0  0  0  0  2  0  0  0  0  0  0
  187.1920  178.0680  140.0150 C   0  0  0  0  0  2  0  0  0  0  0  0
  184.8680  178.3350  141.1390 C   0  0  2  0  0  3  0  0  0  0  0  0
  184.3700  176.1060  135.9270 C   0  0  0  0  0  0  0  0  0  0  0  0
  186.0680  177.5200  137.0000 N   0  0  0  0  0  0  0  0  0  0  0  0
  180.2280  178.5680  138.9460 C   0  0  0  0  0  2  0  0  0  0  0  0
  188.0070  177.5550  138.7990 C   0  0  2  0  0  3  0  0  0  0  0  0
  189.0450  179.4970  137.8910 O   0  0  0  0  0  0  0  0  0  0  0  0
  185.4610  172.8340  135.2940 N   0  0  0  0  0  1  0  0  0  0  0  0
  181.1290  179.0150  136.7900 O   0  0  0  0  0  1  0  0  0  0  0  0
  182.8080  177.5060  139.8300 C   0  0  2  0  0  3  0  0  0  0  0  0
  180.2670  177.6660  140.1860 C   0  0  0  0  0  2  0  0  0  0  0  0
  185.4430  174.2380  134.9300 C   0  0  2  0  0  3  0  0  0  0  0  0
  182.6510  178.2350  138.4720 C   0  0  1  0  0  3  0  0  0  0  0  0
  185.3160  179.1270  138.7660 C   0  0  0  0  0  2  0  0  0  0  0  0
  185.3460  179.5390  141.9330 C   0  0  0  0  0  1  0  0  0  0  0  0
  185.6840  178.1460  139.8500 C   0  0  1  0  0  3  0  0  0  0  0  0
  189.2430  178.4250  138.7960 C   0  0  0  0  0  2  0  0  0  0  0  0
  188.4310  177.9100  136.1930 C   0  0  0  0  0  2  0  0  0  0  0  0
  181.5340  176.8120  140.3300 C   0  0  1  0  0  3  0  0  0  0  0  0
  181.3530  175.4760  139.6310 C   0  0  0  0  0  1  0  0  0  0  0  0
  187.4730  177.7920  137.3800 C   0  0  2  0  0  0  0  0  0  0  0  0
  1  4  2  0  0  0  0
  2 18  1  6  0  0  0
  2 22  1  0  0  0  0
  2 14  1  0  0  0  0
  3 11  1  0  0  0  0
  4 23  1  0  0  0  0
  5  1  1  0  0  0  0
  7 27  1  6  0  0  0
  7 30  1  0  0  0  0
  7 16  1  0  0  0  0
  8  6  1  1  0  0  0
  8 12  1  0  0  0  0
  8 13  1  0  0  0  0
  9 12  1  0  0  0  0
 11 24  1  6  0  0  0
 12  5  2  0  0  0  0
 13 30  1  0  0  0  0
 13  4  1  0  0  0  0
 14 20  1  0  0  0  0
 15 26  1  6  0  0  0
 15 10  1  0  0  0  0
 16 26  1  0  0  0  0
 19 28  1  0  0  0  0
 19  3  1  1  0  0  0
 20 28  1  0  0  0  0
 21 17  1  1  0  0  0
 21  9  1  0  0  0  0
 21  6  1  0  0  0  0
 22  1  1  6  0  0  0
 22 19  1  0  0  0  0
 25 23  1  6  0  0  0
 25 10  1  0  0  0  0
 25 11  1  0  0  0  0
 28 29  1  6  0  0  0
 30 27  1  6  0  0  0
 30 15  1  0  0  0  0
M  END
>  <MODEL>
8

>  <REMARK>
 VINA RESULT:      -5.2      2.556      6.813
  Name = 
  0 active torsions:
  status: ('A' for Active; 'I' for Inactive)
                            x       y       z     vdW  Elec       q    Type
                         _______ _______ _______ _____ _____    ______ ____

>  <TORSDO>
F 0

$$$$
=
 OpenBabel10272413573D

 30 36  0  0  1  0  0  0  0  0999 V2000
  184.5190  176.5200  136.1750 C   0  0  0  0  0  0  0  0  0  0  0  0
  182.0490  176.3960  135.6120 C   0  0  1  0  0  3  0  0  0  0  0  0
  182.8350  177.8170  138.9230 C   0  0  0  0  0  2  0  0  0  0  0  0
  185.5730  177.2640  136.5770 C   0  0  0  0  0  0  0  0  0  0  0  0
  184.7390  175.2000  135.6580 N   0  0  0  0  0  0  0  0  0  0  0  0
  188.3300  174.3280  136.3760 S   0  0  0  0  0  0  0  0  0  0  0  0
  188.4740  178.6740  136.7120 C   0  0  1  0  0  3  0  0  0  0  0  0
  187.1580  175.5400  135.6750 C   0  0  1  0  0  3  0  0  0  0  0  0
  186.1490  173.3630  135.1990 N   0  0  0  0  0  2  0  0  0  0  0  0
  186.7410  178.1190  139.4860 C   0  0  0  0  0  2  0  0  0  0  0  0
  184.1530  178.0870  139.6760 C   0  0  2  0  0  3  0  0  0  0  0  0
  185.9290  174.7390  135.4310 C   0  0  0  0  0  0  0  0  0  0  0  0
  186.9000  176.6970  136.5520 N   0  0  0  0  0  0  0  0  0  0  0  0
  180.6710  176.7870  136.1280 C   0  0  0  0  0  2  0  0  0  0  0  0
  188.0100  177.5550  138.7950 C   0  0  2  0  0  3  0  0  0  0  0  0
  189.0370  179.4410  137.7640 O   0  0  0  0  0  0  0  0  0  0  0  0
  187.6090  171.7410  136.1310 N   0  0  0  0  0  1  0  0  0  0  0  0
  182.2380  176.9540  134.3460 O   0  0  0  0  0  1  0  0  0  0  0  0
  182.8570  176.5520  138.0590 C   0  0  2  0  0  3  0  0  0  0  0  0
  180.3690  176.2040  137.5150 C   0  0  0  0  0  2  0  0  0  0  0  0
  187.5370  172.9940  135.4010 C   0  0  2  0  0  3  0  0  0  0  0  0
  183.1180  176.9180  136.5770 C   0  0  1  0  0  3  0  0  0  0  0  0
  185.3370  178.4320  137.4540 C   0  0  0  0  0  2  0  0  0  0  0  0
  184.1340  179.5090  140.2090 C   0  0  0  0  0  1  0  0  0  0  0  0
  185.4050  177.8160  138.8280 C   0  0  1  0  0  3  0  0  0  0  0  0
  189.0280  178.6620  138.9470 C   0  0  0  0  0  2  0  0  0  0  0  0
  189.3170  177.4300  136.4770 C   0  0  0  0  0  2  0  0  0  0  0  0
  181.5960  175.7110  138.2940 C   0  0  1  0  0  3  0  0  0  0  0  0
  181.8690  174.2510  137.9800 C   0  0  0  0  0  1  0  0  0  0  0  0
  188.0130  177.3550  137.2730 C   0  0  2  0  0  0  0  0  0  0  0  0
  1  4  2  0  0  0  0
  2 18  1  6  0  0  0
  2 14  1  0  0  0  0
  2 22  1  0  0  0  0
  3 11  1  0  0  0  0
  4 23  1  0  0  0  0
  5  1  1  0  0  0  0
  7 27  1  6  0  0  0
  7 30  1  0  0  0  0
  7 16  1  0  0  0  0
  8 12  1  1  0  0  0
  8  6  1  0  0  0  0
  8 13  1  0  0  0  0
  9 21  1  0  0  0  0
  9 12  1  0  0  0  0
 11 24  1  6  0  0  0
 12  5  2  0  0  0  0
 13  4  1  0  0  0  0
 13 30  1  0  0  0  0
 14 20  1  0  0  0  0
 15 26  1  6  0  0  0
 15 10  1  0  0  0  0
 16 26  1  0  0  0  0
 19 28  1  0  0  0  0
 19  3  1  1  0  0  0
 20 28  1  0  0  0  0
 21 17  1  1  0  0  0
 21  6  1  0  0  0  0
 22  1  1  6  0  0  0
 22 19  1  0  0  0  0
 25 23  1  6  0  0  0
 25 10  1  0  0  0  0
 25 11  1  0  0  0  0
 28 29  1  6  0  0  0
 30 27  1  6  0  0  0
 30 15  1  0  0  0  0
M  END
>  <MODEL>
9

>  <REMARK>
 VINA RESULT:      -4.5      3.018      6.814
  Name = 
  0 active torsions:
  status: ('A' for Active; 'I' for Inactive)
                            x       y       z     vdW  Elec       q    Type
                         _______ _______ _______ _____ _____    ______ ____

>  <TORSDO>
F 0

$$$$
