=
 OpenBabel10272401523D

 28 32  0  0  1  0  0  0  0  0999 V2000
  189.0700  177.9360  143.7560 C   0  0  1  0  0  3  0  0  0  0  0  0
  187.5800  178.3350  138.7960 C   0  0  0  0  0  2  0  0  0  0  0  0
  193.1000  176.8640  141.0360 F   0  0  0  0  0  0  0  0  0  0  0  0
  189.5110  177.4050  137.5900 C   0  0  2  0  0  3  0  0  0  0  0  0
  189.5500  177.4110  140.1030 C   0  0  0  0  0  0  0  0  0  0  0  0
  187.3520  177.5460  136.3780 C   0  0  0  0  0  0  0  0  0  0  0  0
  188.6860  177.2850  138.8710 C   0  0  1  0  0  3  0  0  0  0  0  0
  191.6600  176.8500  138.6910 C   0  0  0  0  0  2  0  0  0  0  0  0
  188.6480  177.2100  136.3790 C   0  0  0  0  0  3  0  0  0  0  0  0
  191.2070  177.4460  142.4890 C   0  0  1  0  0  3  0  0  0  0  0  0
  188.9770  177.6170  141.2890 C   0  0  0  0  0  3  0  0  0  0  0  0
  190.6640  176.4190  137.6180 C   0  0  0  0  0  2  0  0  0  0  0  0
  191.0780  179.3610  144.1950 C   0  0  0  0  0  2  0  0  0  0  0  0
  191.7710  177.1330  141.1280 C   0  0  0  0  0  0  0  0  0  0  0  0
  191.9100  178.6620  143.1080 C   0  0  0  0  0  2  0  0  0  0  0  0
  186.6200  177.3910  135.2090 O   0  0  0  0  0  1  0  0  0  0  0  0
  186.6400  178.0200  137.6250 C   0  0  0  0  0  2  0  0  0  0  0  0
  191.0060  177.1060  140.0280 C   0  0  0  0  0  0  0  0  0  0  0  0
  190.0490  178.4260  144.8270 C   0  0  0  0  0  2  0  0  0  0  0  0
  189.7470  177.6240  142.4960 N   0  0  0  0  0  0  0  0  0  0  0  0
  188.1960  176.7750  144.2620 C   0  0  0  0  0  2  0  0  0  0  0  0
  186.7340  177.1040  144.5940 C   0  0  2  0  0  3  0  0  0  0  0  0
  184.4770  178.6670  145.2930 C   0  0  0  0  0  0  0  0  0  0  0  0
  186.0390  177.9660  143.5320 C   0  0  0  0  0  2  0  0  0  0  0  0
  186.5760  177.6780  145.9790 C   0  0  0  0  0  3  0  0  0  0  0  0
  185.4970  178.3870  146.3120 C   0  0  0  0  0  3  0  0  0  0  0  0
  183.3830  179.1950  145.6190 O   0  0  0  0  0  0  0  0  0  0  0  0
  184.7260  178.3260  143.9600 O   0  0  0  0  0  0  0  0  0  0  0  0
  1 21  1  1  0  0  0
  1 19  1  0  0  0  0
  3 14  1  0  0  0  0
  4  9  1  6  0  0  0
  4 12  1  0  0  0  0
  4  7  1  0  0  0  0
  5 11  2  0  0  0  0
  6  9  2  0  0  0  0
  6 17  1  0  0  0  0
  7  2  1  6  0  0  0
  7  5  1  0  0  0  0
  8 18  1  0  0  0  0
 10 20  1  0  0  0  0
 10 15  1  6  0  0  0
 11 20  1  0  0  0  0
 12  8  1  0  0  0  0
 13 19  1  0  0  0  0
 14 10  1  0  0  0  0
 15 13  1  0  0  0  0
 16  6  1  0  0  0  0
 17  2  1  0  0  0  0
 18  5  1  0  0  0  0
 18 14  2  0  0  0  0
 20  1  1  0  0  0  0
 22 21  1  6  0  0  0
 22 25  1  0  0  0  0
 23 27  2  0  0  0  0
 23 26  1  0  0  0  0
 24 28  1  0  0  0  0
 24 22  1  0  0  0  0
 25 26  2  0  0  0  0
 28 23  1  0  0  0  0
M  END
>  <MODEL>
1

>  <REMARK>
 VINA RESULT:      -9.5      0.000      0.000
  Name = 
  2 active torsions:
  status: ('A' for Active; 'I' for Inactive)
    1  A    between atoms: C_1  and  C_2
    2  A    between atoms: C_2  and  C_3
                            x       y       z     vdW  Elec       q    Type
                         _______ _______ _______ _____ _____    ______ ____

>  <TORSDO>
F 2

$$$$
=
 OpenBabel10272401523D

 28 32  0  0  1  0  0  0  0  0999 V2000
  191.0720  176.7310  144.5540 C   0  0  1  0  0  3  0  0  0  0  0  0
  185.9810  177.4100  143.7750 C   0  0  0  0  0  2  0  0  0  0  0  0
  189.1940  178.1010  148.9570 F   0  0  0  0  0  0  0  0  0  0  0  0
  185.2610  178.4540  145.8820 C   0  0  2  0  0  3  0  0  0  0  0  0
  187.7010  177.9450  145.5640 C   0  0  0  0  0  0  0  0  0  0  0  0
  183.7670  178.6740  143.9150 C   0  0  0  0  0  0  0  0  0  0  0  0
  186.4170  178.3610  144.8870 C   0  0  1  0  0  3  0  0  0  0  0  0
  186.7290  178.6600  147.8670 C   0  0  0  0  0  2  0  0  0  0  0  0
  184.0110  178.9330  145.2060 C   0  0  0  0  0  3  0  0  0  0  0  0
  190.2300  177.3460  146.8620 C   0  0  1  0  0  3  0  0  0  0  0  0
  188.7320  177.5400  144.8220 C   0  0  0  0  0  3  0  0  0  0  0  0
  185.6440  179.3500  147.0450 C   0  0  0  0  0  2  0  0  0  0  0  0
  191.4750  175.1400  146.4410 C   0  0  0  0  0  2  0  0  0  0  0  0
  189.0500  177.8920  147.6230 C   0  0  0  0  0  0  0  0  0  0  0  0
  190.6750  175.9950  147.4370 C   0  0  0  0  0  2  0  0  0  0  0  0
  182.5670  179.0990  143.3610 O   0  0  0  0  0  1  0  0  0  0  0  0
  184.7840  178.0020  143.0200 C   0  0  0  0  0  2  0  0  0  0  0  0
  187.8860  178.1800  147.0220 C   0  0  0  0  0  0  0  0  0  0  0  0
  192.1410  175.9850  145.3580 C   0  0  0  0  0  2  0  0  0  0  0  0
  190.0040  177.2500  145.4120 N   0  0  0  0  0  0  0  0  0  0  0  0
  191.6820  177.8150  143.6490 C   0  0  0  0  0  2  0  0  0  0  0  0
  191.2980  177.7700  142.1630 C   0  0  2  0  0  3  0  0  0  0  0  0
  191.1210  176.7800  139.5140 C   0  0  0  0  0  0  0  0  0  0  0  0
  190.2830  176.6720  141.8200 C   0  0  0  0  0  2  0  0  0  0  0  0
  192.5040  177.7250  141.2600 C   0  0  0  0  0  3  0  0  0  0  0  0
  192.4090  177.2870  140.0040 C   0  0  0  0  0  3  0  0  0  0  0  0
  190.9670  176.5110  138.2960 O   0  0  0  0  0  0  0  0  0  0  0  0
  190.0610  176.6170  140.4110 O   0  0  0  0  0  0  0  0  0  0  0  0
  1 21  1  1  0  0  0
  1 19  1  0  0  0  0
  1 20  1  0  0  0  0
  4  9  1  6  0  0  0
  4 12  1  0  0  0  0
  5 18  1  0  0  0  0
  6  9  2  0  0  0  0
  7  2  1  6  0  0  0
  7  5  1  0  0  0  0
  7  4  1  0  0  0  0
 10 15  1  1  0  0  0
 10 14  1  0  0  0  0
 11 20  1  0  0  0  0
 11  5  2  0  0  0  0
 12  8  1  0  0  0  0
 13 15  1  0  0  0  0
 14  3  1  0  0  0  0
 16  6  1  0  0  0  0
 17  2  1  0  0  0  0
 17  6  1  0  0  0  0
 18 14  2  0  0  0  0
 18  8  1  0  0  0  0
 19 13  1  0  0  0  0
 20 10  1  0  0  0  0
 22 21  1  1  0  0  0
 23 26  1  0  0  0  0
 23 28  1  0  0  0  0
 24 22  1  0  0  0  0
 25 22  1  0  0  0  0
 26 25  2  0  0  0  0
 27 23  2  0  0  0  0
 28 24  1  0  0  0  0
M  END
>  <MODEL>
2

>  <REMARK>
 VINA RESULT:      -9.4      2.982      7.244
  Name = 
  2 active torsions:
  status: ('A' for Active; 'I' for Inactive)
    1  A    between atoms: C_1  and  C_2
    2  A    between atoms: C_2  and  C_3
                            x       y       z     vdW  Elec       q    Type
                         _______ _______ _______ _____ _____    ______ ____

>  <TORSDO>
F 2

$$$$
=
 OpenBabel10272401523D

 28 32  0  0  1  0  0  0  0  0999 V2000
  188.7200  177.4510  141.3040 C   0  0  1  0  0  3  0  0  0  0  0  0
  183.5390  177.8130  141.4280 C   0  0  0  0  0  2  0  0  0  0  0  0
  187.5250  178.2220  146.0760 F   0  0  0  0  0  0  0  0  0  0  0  0
  183.1200  178.5810  143.7260 C   0  0  2  0  0  3  0  0  0  0  0  0
  185.4990  178.2960  142.9680 C   0  0  0  0  0  0  0  0  0  0  0  0
  181.3090  178.8840  142.0590 C   0  0  0  0  0  0  0  0  0  0  0  0
  184.0970  178.6780  142.5550 C   0  0  1  0  0  3  0  0  0  0  0  0
  184.8840  178.6970  145.4620 C   0  0  0  0  0  2  0  0  0  0  0  0
  181.7490  179.0290  143.3160 C   0  0  0  0  0  3  0  0  0  0  0  0
  188.2390  177.7640  143.7710 C   0  0  1  0  0  3  0  0  0  0  0  0
  186.4140  178.0470  142.0300 C   0  0  0  0  0  3  0  0  0  0  0  0
  183.6380  179.3820  144.9060 C   0  0  0  0  0  2  0  0  0  0  0  0
  189.5250  175.7130  142.9120 C   0  0  0  0  0  2  0  0  0  0  0  0
  187.1730  178.1380  144.7660 C   0  0  0  0  0  0  0  0  0  0  0  0
  188.8540  176.4000  144.1120 C   0  0  0  0  0  2  0  0  0  0  0  0
  180.0100  179.2690  141.7550 O   0  0  0  0  0  1  0  0  0  0  0  0
  182.2000  178.3850  140.9450 C   0  0  0  0  0  2  0  0  0  0  0  0
  185.9100  178.3950  144.3950 C   0  0  0  0  0  0  0  0  0  0  0  0
  189.9500  176.7120  141.8380 C   0  0  0  0  0  2  0  0  0  0  0  0
  187.7810  177.7980  142.3740 N   0  0  0  0  0  0  0  0  0  0  0  0
  189.1060  178.6650  140.4400 C   0  0  0  0  0  2  0  0  0  0  0  0
  188.9680  178.5020  138.9200 C   0  0  2  0  0  3  0  0  0  0  0  0
  188.6550  177.1930  136.4260 C   0  0  0  0  0  0  0  0  0  0  0  0
  187.5810  178.0220  138.4730 C   0  0  0  0  0  2  0  0  0  0  0  0
  190.0720  177.6610  138.3310 C   0  0  0  0  0  3  0  0  0  0  0  0
  189.9310  177.0720  137.1430 C   0  0  0  0  0  3  0  0  0  0  0  0
  188.5510  176.7840  135.2420 O   0  0  0  0  0  0  0  0  0  0  0  0
  187.5620  177.7850  137.0660 O   0  0  0  0  0  0  0  0  0  0  0  0
  1 21  1  1  0  0  0
  1 19  1  0  0  0  0
  1 20  1  0  0  0  0
  4  9  1  6  0  0  0
  4 12  1  0  0  0  0
  5 18  1  0  0  0  0
  6  9  2  0  0  0  0
  7  2  1  6  0  0  0
  7  5  1  0  0  0  0
  7  4  1  0  0  0  0
 10 15  1  1  0  0  0
 10 14  1  0  0  0  0
 11 20  1  0  0  0  0
 11  5  2  0  0  0  0
 12  8  1  0  0  0  0
 13 15  1  0  0  0  0
 14  3  1  0  0  0  0
 16  6  1  0  0  0  0
 17  2  1  0  0  0  0
 17  6  1  0  0  0  0
 18 14  2  0  0  0  0
 18  8  1  0  0  0  0
 19 13  1  0  0  0  0
 20 10  1  0  0  0  0
 22 21  1  1  0  0  0
 23 28  1  0  0  0  0
 23 26  1  0  0  0  0
 24 22  1  0  0  0  0
 25 22  1  0  0  0  0
 26 25  2  0  0  0  0
 27 23  2  0  0  0  0
 28 24  1  0  0  0  0
M  END
>  <MODEL>
3

>  <REMARK>
 VINA RESULT:      -9.1      2.613      7.152
  Name = 
  2 active torsions:
  status: ('A' for Active; 'I' for Inactive)
    1  A    between atoms: C_1  and  C_2
    2  A    between atoms: C_2  and  C_3
                            x       y       z     vdW  Elec       q    Type
                         _______ _______ _______ _____ _____    ______ ____

>  <TORSDO>
F 2

$$$$
=
 OpenBabel10272401523D

 28 32  0  0  1  0  0  0  0  0999 V2000
  188.4280  176.9920  138.2520 C   0  0  1  0  0  3  0  0  0  0  0  0
  187.5290  176.8300  143.3650 C   0  0  0  0  0  2  0  0  0  0  0  0
  192.8830  177.4420  140.4300 F   0  0  0  0  0  0  0  0  0  0  0  0
  189.7150  177.4560  144.3040 C   0  0  2  0  0  3  0  0  0  0  0  0
  189.4370  177.4420  141.8060 C   0  0  0  0  0  0  0  0  0  0  0  0
  187.7290  177.6460  145.7770 C   0  0  0  0  0  0  0  0  0  0  0  0
  188.7630  177.6990  143.1330 C   0  0  1  0  0  3  0  0  0  0  0  0
  191.7680  177.6760  142.9350 C   0  0  0  0  0  2  0  0  0  0  0  0
  189.0500  177.7810  145.6080 C   0  0  0  0  0  3  0  0  0  0  0  0
  190.7560  177.1530  139.2350 C   0  0  1  0  0  3  0  0  0  0  0  0
  188.6950  177.3250  140.7050 C   0  0  0  0  0  3  0  0  0  0  0  0
  190.9910  178.2550  144.1140 C   0  0  0  0  0  2  0  0  0  0  0  0
  190.1270  175.2780  137.5960 C   0  0  0  0  0  2  0  0  0  0  0  0
  191.5280  177.3770  140.5080 C   0  0  0  0  0  0  0  0  0  0  0  0
  191.1840  175.8440  138.5580 C   0  0  0  0  0  2  0  0  0  0  0  0
  187.1810  177.9120  147.0250 O   0  0  0  0  0  1  0  0  0  0  0  0
  186.8020  177.2850  144.6380 C   0  0  0  0  0  2  0  0  0  0  0  0
  190.9200  177.5220  141.6950 C   0  0  0  0  0  0  0  0  0  0  0  0
  189.1800  176.3580  137.0780 C   0  0  0  0  0  2  0  0  0  0  0  0
  189.2980  177.1990  139.4120 N   0  0  0  0  0  0  0  0  0  0  0  0
  187.6830  178.2730  137.8360 C   0  0  0  0  0  2  0  0  0  0  0  0
  186.1510  178.1940  137.7790 C   0  0  2  0  0  3  0  0  0  0  0  0
  183.5410  177.2200  138.2950 C   0  0  0  0  0  0  0  0  0  0  0  0
  185.4670  178.5020  139.1180 C   0  0  0  0  0  2  0  0  0  0  0  0
  185.6660  176.8970  137.1840 C   0  0  0  0  0  3  0  0  0  0  0  0
  184.4260  176.4580  137.4050 C   0  0  0  0  0  3  0  0  0  0  0  0
  182.3250  176.9150  138.3940 O   0  0  0  0  0  0  0  0  0  0  0  0
  184.0580  178.2980  139.0190 O   0  0  0  0  0  0  0  0  0  0  0  0
  1 21  1  6  0  0  0
  1 20  1  0  0  0  0
  2 17  1  0  0  0  0
  3 14  1  0  0  0  0
  4 12  1  6  0  0  0
  4  9  1  0  0  0  0
  5  7  1  0  0  0  0
  6 16  1  0  0  0  0
  7  2  1  1  0  0  0
  7  4  1  0  0  0  0
  8 12  1  0  0  0  0
  9  6  2  0  0  0  0
 10 15  1  1  0  0  0
 10 20  1  0  0  0  0
 10 14  1  0  0  0  0
 11  5  2  0  0  0  0
 13 15  1  0  0  0  0
 14 18  2  0  0  0  0
 17  6  1  0  0  0  0
 18  5  1  0  0  0  0
 18  8  1  0  0  0  0
 19 13  1  0  0  0  0
 19  1  1  0  0  0  0
 20 11  1  0  0  0  0
 22 21  1  1  0  0  0
 22 24  1  0  0  0  0
 23 27  2  0  0  0  0
 23 28  1  0  0  0  0
 25 26  2  0  0  0  0
 25 22  1  0  0  0  0
 26 23  1  0  0  0  0
 28 24  1  0  0  0  0
M  END
>  <MODEL>
4

>  <REMARK>
 VINA RESULT:      -9.1      2.055      6.383
  Name = 
  2 active torsions:
  status: ('A' for Active; 'I' for Inactive)
    1  A    between atoms: C_1  and  C_2
    2  A    between atoms: C_2  and  C_3
                            x       y       z     vdW  Elec       q    Type
                         _______ _______ _______ _____ _____    ______ ____

>  <TORSDO>
F 2

$$$$
=
 OpenBabel10272401523D

 28 32  0  0  1  0  0  0  0  0999 V2000
  185.2740  178.8720  145.4270 C   0  0  1  0  0  3  0  0  0  0  0  0
  188.3790  178.7270  141.2660 C   0  0  0  0  0  2  0  0  0  0  0  0
  189.2900  176.2750  146.8170 F   0  0  0  0  0  0  0  0  0  0  0  0
  190.1000  177.1080  141.9480 C   0  0  2  0  0  3  0  0  0  0  0  0
  188.1910  177.5690  143.5170 C   0  0  0  0  0  0  0  0  0  0  0  0
  189.8680  177.5940  139.5280 C   0  0  0  0  0  0  0  0  0  0  0  0
  188.6160  177.4530  142.0720 C   0  0  1  0  0  3  0  0  0  0  0  0
  190.2840  176.2120  144.2510 C   0  0  0  0  0  2  0  0  0  0  0  0
  190.4880  176.9300  140.5110 C   0  0  0  0  0  3  0  0  0  0  0  0
  187.2930  177.6010  146.2790 C   0  0  1  0  0  3  0  0  0  0  0  0
  187.0220  178.1370  143.8130 C   0  0  0  0  0  3  0  0  0  0  0  0
  190.4190  175.8720  142.7700 C   0  0  0  0  0  2  0  0  0  0  0  0
  186.5010  179.7630  147.4170 C   0  0  0  0  0  2  0  0  0  0  0  0
  188.5590  176.9020  145.8580 C   0  0  0  0  0  0  0  0  0  0  0  0
  187.5860  178.6770  147.3330 C   0  0  0  0  0  2  0  0  0  0  0  0
  190.3100  177.4270  138.2220 O   0  0  0  0  0  1  0  0  0  0  0  0
  188.6580  178.4640  139.7800 C   0  0  0  0  0  2  0  0  0  0  0  0
  188.9690  176.8770  144.5810 C   0  0  0  0  0  0  0  0  0  0  0  0
  185.1500  179.2710  146.9010 C   0  0  0  0  0  2  0  0  0  0  0  0
  186.5270  178.1610  145.1560 N   0  0  0  0  0  0  0  0  0  0  0  0
  184.0380  178.1000  144.9330 C   0  0  0  0  0  2  0  0  0  0  0  0
  183.1480  178.8110  143.9030 C   0  0  2  0  0  3  0  0  0  0  0  0
  181.3110  179.1100  141.7670 C   0  0  0  0  0  0  0  0  0  0  0  0
  181.6460  178.6200  144.1500 C   0  0  0  0  0  2  0  0  0  0  0  0
  183.5330  178.4780  142.4850 C   0  0  0  0  0  3  0  0  0  0  0  0
  182.6750  178.6490  141.4790 C   0  0  0  0  0  3  0  0  0  0  0  0
  180.5380  179.4300  140.8280 O   0  0  0  0  0  0  0  0  0  0  0  0
  180.8860  179.2090  143.0950 O   0  0  0  0  0  0  0  0  0  0  0  0
  1 21  1  1  0  0  0
  1 19  1  0  0  0  0
  4  9  1  6  0  0  0
  4  7  1  0  0  0  0
  4 12  1  0  0  0  0
  5 11  2  0  0  0  0
  5 18  1  0  0  0  0
  6 17  1  0  0  0  0
  6  9  2  0  0  0  0
  7  2  1  6  0  0  0
  7  5  1  0  0  0  0
  8 18  1  0  0  0  0
 10 15  1  1  0  0  0
 11 20  1  0  0  0  0
 12  8  1  0  0  0  0
 14 10  1  0  0  0  0
 14  3  1  0  0  0  0
 15 13  1  0  0  0  0
 16  6  1  0  0  0  0
 17  2  1  0  0  0  0
 18 14  2  0  0  0  0
 19 13  1  0  0  0  0
 20  1  1  0  0  0  0
 20 10  1  0  0  0  0
 22 24  1  0  0  0  0
 22 21  1  1  0  0  0
 23 28  1  0  0  0  0
 25 22  1  0  0  0  0
 26 23  1  0  0  0  0
 26 25  2  0  0  0  0
 27 23  2  0  0  0  0
 28 24  1  0  0  0  0
M  END
>  <MODEL>
5

>  <REMARK>
 VINA RESULT:      -8.4      2.807      4.770
  Name = 
  2 active torsions:
  status: ('A' for Active; 'I' for Inactive)
    1  A    between atoms: C_1  and  C_2
    2  A    between atoms: C_2  and  C_3
                            x       y       z     vdW  Elec       q    Type
                         _______ _______ _______ _____ _____    ______ ____

>  <TORSDO>
F 2

$$$$
=
 OpenBabel10272401523D

 28 32  0  0  1  0  0  0  0  0999 V2000
  184.2620  178.7750  142.6970 C   0  0  1  0  0  3  0  0  0  0  0  0
  188.8380  178.4130  140.2660 C   0  0  0  0  0  2  0  0  0  0  0  0
  187.4470  176.9480  146.0600 F   0  0  0  0  0  0  0  0  0  0  0  0
  190.1930  177.1470  141.8800 C   0  0  2  0  0  3  0  0  0  0  0  0
  187.7780  177.5870  142.4200 C   0  0  0  0  0  0  0  0  0  0  0  0
  190.9810  177.2350  139.5300 C   0  0  0  0  0  0  0  0  0  0  0  0
  188.7800  177.3140  141.3230 C   0  0  1  0  0  3  0  0  0  0  0  0
  189.4350  176.6340  144.1820 C   0  0  0  0  0  2  0  0  0  0  0  0
  191.1620  176.8090  140.7870 C   0  0  0  0  0  3  0  0  0  0  0  0
  185.7960  177.9140  144.5180 C   0  0  1  0  0  3  0  0  0  0  0  0
  186.5640  178.0380  142.1020 C   0  0  0  0  0  3  0  0  0  0  0  0
  190.2010  176.0970  142.9770 C   0  0  0  0  0  2  0  0  0  0  0  0
  184.4820  180.1000  144.8060 C   0  0  0  0  0  2  0  0  0  0  0  0
  187.1570  177.3270  144.7880 C   0  0  0  0  0  0  0  0  0  0  0  0
  185.5570  179.1630  145.3770 C   0  0  0  0  0  2  0  0  0  0  0  0
  191.9410  176.9340  138.5750 O   0  0  0  0  0  1  0  0  0  0  0  0
  189.7320  177.9710  139.1000 C   0  0  0  0  0  2  0  0  0  0  0  0
  188.0690  177.1660  143.8180 C   0  0  0  0  0  0  0  0  0  0  0  0
  183.5050  179.3690  143.8890 C   0  0  0  0  0  2  0  0  0  0  0  0
  185.5480  178.1990  143.0970 N   0  0  0  0  0  0  0  0  0  0  0  0
  183.3940  177.7870  141.8970 C   0  0  0  0  0  2  0  0  0  0  0  0
  182.8300  178.2900  140.5610 C   0  0  2  0  0  3  0  0  0  0  0  0
  181.8520  180.1220  138.6350 C   0  0  0  0  0  0  0  0  0  0  0  0
  183.8090  179.1630  139.7660 C   0  0  0  0  0  2  0  0  0  0  0  0
  181.4840  178.9510  140.7190 C   0  0  0  0  0  3  0  0  0  0  0  0
  181.0150  179.7890  139.7940 C   0  0  0  0  0  3  0  0  0  0  0  0
  181.3740  180.7810  137.6760 O   0  0  0  0  0  0  0  0  0  0  0  0
  183.1790  179.6850  138.5970 O   0  0  0  0  0  0  0  0  0  0  0  0
  1 21  1  1  0  0  0
  1 20  1  0  0  0  0
  1 19  1  0  0  0  0
  4  9  1  6  0  0  0
  4 12  1  0  0  0  0
  5 18  1  0  0  0  0
  6  9  2  0  0  0  0
  7  2  1  6  0  0  0
  7  4  1  0  0  0  0
  7  5  1  0  0  0  0
 10 14  1  0  0  0  0
 10 15  1  1  0  0  0
 11  5  2  0  0  0  0
 11 20  1  0  0  0  0
 12  8  1  0  0  0  0
 13 15  1  0  0  0  0
 14  3  1  0  0  0  0
 16  6  1  0  0  0  0
 17  6  1  0  0  0  0
 17  2  1  0  0  0  0
 18  8  1  0  0  0  0
 18 14  2  0  0  0  0
 19 13  1  0  0  0  0
 20 10  1  0  0  0  0
 22 25  1  0  0  0  0
 22 21  1  1  0  0  0
 23 26  1  0  0  0  0
 24 22  1  0  0  0  0
 26 25  2  0  0  0  0
 27 23  2  0  0  0  0
 28 23  1  0  0  0  0
 28 24  1  0  0  0  0
M  END
>  <MODEL>
6

>  <REMARK>
 VINA RESULT:      -8.3      3.574      5.651
  Name = 
  2 active torsions:
  status: ('A' for Active; 'I' for Inactive)
    1  A    between atoms: C_1  and  C_2
    2  A    between atoms: C_2  and  C_3
                            x       y       z     vdW  Elec       q    Type
                         _______ _______ _______ _____ _____    ______ ____

>  <TORSDO>
F 2

$$$$
=
 OpenBabel10272401523D

 28 32  0  0  1  0  0  0  0  0999 V2000
  184.1330  178.7180  142.4540 C   0  0  1  0  0  3  0  0  0  0  0  0
  188.8800  178.3790  140.3720 C   0  0  0  0  0  2  0  0  0  0  0  0
  187.1380  177.2670  146.1500 F   0  0  0  0  0  0  0  0  0  0  0  0
  190.1640  177.2870  142.1630 C   0  0  2  0  0  3  0  0  0  0  0  0
  187.7020  177.6630  142.5040 C   0  0  0  0  0  0  0  0  0  0  0  0
  191.1120  177.2440  139.8720 C   0  0  0  0  0  0  0  0  0  0  0  0
  188.7890  177.3550  141.5000 C   0  0  1  0  0  3  0  0  0  0  0  0
  189.2640  176.9050  144.4390 C   0  0  0  0  0  2  0  0  0  0  0  0
  191.2190  176.9140  141.1650 C   0  0  0  0  0  3  0  0  0  0  0  0
  185.5660  178.0520  144.4330 C   0  0  1  0  0  3  0  0  0  0  0  0
  186.4980  178.0390  142.0720 C   0  0  0  0  0  3  0  0  0  0  0  0
  190.1330  176.3190  143.3310 C   0  0  0  0  0  2  0  0  0  0  0  0
  184.1550  180.1970  144.4710 C   0  0  0  0  0  2  0  0  0  0  0  0
  186.9250  177.5440  144.8370 C   0  0  0  0  0  0  0  0  0  0  0  0
  185.2210  179.3470  145.1800 C   0  0  0  0  0  2  0  0  0  0  0  0
  192.1480  176.9170  139.0080 O   0  0  0  0  0  1  0  0  0  0  0  0
  189.8700  177.8940  139.3050 C   0  0  0  0  0  2  0  0  0  0  0  0
  187.9090  177.3530  143.9450 C   0  0  0  0  0  0  0  0  0  0  0  0
  183.2730  179.3630  143.5450 C   0  0  0  0  0  2  0  0  0  0  0  0
  185.4080  178.2260  142.9820 N   0  0  0  0  0  0  0  0  0  0  0  0
  183.3620  177.6410  141.6710 C   0  0  0  0  0  2  0  0  0  0  0  0
  182.9800  177.9810  140.2240 C   0  0  2  0  0  3  0  0  0  0  0  0
  182.7910  177.6960  137.4110 C   0  0  0  0  0  0  0  0  0  0  0  0
  181.9460  177.0240  139.6170 C   0  0  0  0  0  2  0  0  0  0  0  0
  184.1870  178.1430  139.3350 C   0  0  0  0  0  3  0  0  0  0  0  0
  184.0870  178.0380  138.0100 C   0  0  0  0  0  3  0  0  0  0  0  0
  182.6350  177.7460  136.1640 O   0  0  0  0  0  0  0  0  0  0  0  0
  181.7260  177.3300  138.2400 O   0  0  0  0  0  0  0  0  0  0  0  0
  1 21  1  1  0  0  0
  1 20  1  0  0  0  0
  1 19  1  0  0  0  0
  4  9  1  6  0  0  0
  4 12  1  0  0  0  0
  5 18  1  0  0  0  0
  6  9  2  0  0  0  0
  7  2  1  6  0  0  0
  7  4  1  0  0  0  0
  7  5  1  0  0  0  0
 10 14  1  0  0  0  0
 10 15  1  1  0  0  0
 11  5  2  0  0  0  0
 11 20  1  0  0  0  0
 12  8  1  0  0  0  0
 13 15  1  0  0  0  0
 14  3  1  0  0  0  0
 16  6  1  0  0  0  0
 17  6  1  0  0  0  0
 17  2  1  0  0  0  0
 18  8  1  0  0  0  0
 18 14  2  0  0  0  0
 19 13  1  0  0  0  0
 20 10  1  0  0  0  0
 22 21  1  1  0  0  0
 23 26  1  0  0  0  0
 23 28  1  0  0  0  0
 24 22  1  0  0  0  0
 25 22  1  0  0  0  0
 26 25  2  0  0  0  0
 27 23  2  0  0  0  0
 28 24  1  0  0  0  0
M  END
>  <MODEL>
7

>  <REMARK>
 VINA RESULT:      -8.0      3.248      5.998
  Name = 
  2 active torsions:
  status: ('A' for Active; 'I' for Inactive)
    1  A    between atoms: C_1  and  C_2
    2  A    between atoms: C_2  and  C_3
                            x       y       z     vdW  Elec       q    Type
                         _______ _______ _______ _____ _____    ______ ____

>  <TORSDO>
F 2

$$$$
=
 OpenBabel10272401523D

 28 32  0  0  1  0  0  0  0  0999 V2000
  187.4610  177.9360  142.4930 C   0  0  1  0  0  3  0  0  0  0  0  0
  183.1590  176.9100  139.7700 C   0  0  0  0  0  2  0  0  0  0  0  0
  183.6620  179.4590  145.3290 F   0  0  0  0  0  0  0  0  0  0  0  0
  181.4210  178.0560  141.0790 C   0  0  2  0  0  3  0  0  0  0  0  0
  183.8140  178.2510  141.8240 C   0  0  0  0  0  0  0  0  0  0  0  0
  180.8920  177.4600  138.7310 C   0  0  0  0  0  0  0  0  0  0  0  0
  182.8830  178.1340  140.6400 C   0  0  1  0  0  3  0  0  0  0  0  0
  181.8360  179.0480  143.3110 C   0  0  0  0  0  2  0  0  0  0  0  0
  180.5080  178.0090  139.8900 C   0  0  0  0  0  3  0  0  0  0  0  0
  185.6160  178.6800  144.0610 C   0  0  1  0  0  3  0  0  0  0  0  0
  185.1200  178.0440  141.6540 C   0  0  0  0  0  3  0  0  0  0  0  0
  181.0880  179.2210  141.9920 C   0  0  0  0  0  2  0  0  0  0  0  0
  187.3340  176.9080  144.7700 C   0  0  0  0  0  2  0  0  0  0  0  0
  184.1430  178.9770  144.1530 C   0  0  0  0  0  0  0  0  0  0  0  0
  186.0350  177.6510  145.1200 C   0  0  0  0  0  2  0  0  0  0  0  0
  179.9820  177.3990  137.6840 O   0  0  0  0  0  1  0  0  0  0  0  0
  182.3030  176.9700  138.4970 C   0  0  0  0  0  2  0  0  0  0  0  0
  183.3110  178.7900  143.1180 C   0  0  0  0  0  0  0  0  0  0  0  0
  188.2140  177.7020  143.8070 C   0  0  0  0  0  2  0  0  0  0  0  0
  186.0510  178.2590  142.7210 N   0  0  0  0  0  0  0  0  0  0  0  0
  188.1690  178.9700  141.6000 C   0  0  0  0  0  2  0  0  0  0  0  0
  188.8470  178.4350  140.3300 C   0  0  2  0  0  3  0  0  0  0  0  0
  189.6800  176.5610  138.3760 C   0  0  0  0  0  0  0  0  0  0  0  0
  187.8600  177.9540  139.2590 C   0  0  0  0  0  2  0  0  0  0  0  0
  189.8990  177.4000  140.6350 C   0  0  0  0  0  3  0  0  0  0  0  0
  190.3100  176.5400  139.7020 C   0  0  0  0  0  3  0  0  0  0  0  0
  190.1550  175.8720  137.4370 O   0  0  0  0  0  0  0  0  0  0  0  0
  188.5590  177.3680  138.1610 O   0  0  0  0  0  0  0  0  0  0  0  0
  1 21  1  1  0  0  0
  1 20  1  0  0  0  0
  1 19  1  0  0  0  0
  4  9  1  6  0  0  0
  4 12  1  0  0  0  0
  5 18  1  0  0  0  0
  6  9  2  0  0  0  0
  7  2  1  1  0  0  0
  7  4  1  0  0  0  0
  7  5  1  0  0  0  0
 10 14  1  0  0  0  0
 10 15  1  1  0  0  0
 11  5  2  0  0  0  0
 11 20  1  0  0  0  0
 12  8  1  0  0  0  0
 13 15  1  0  0  0  0
 14  3  1  0  0  0  0
 16  6  1  0  0  0  0
 17  6  1  0  0  0  0
 17  2  1  0  0  0  0
 18  8  1  0  0  0  0
 18 14  2  0  0  0  0
 19 13  1  0  0  0  0
 20 10  1  0  0  0  0
 22 25  1  0  0  0  0
 22 21  1  1  0  0  0
 23 26  1  0  0  0  0
 24 22  1  0  0  0  0
 26 25  2  0  0  0  0
 27 23  2  0  0  0  0
 28 23  1  0  0  0  0
 28 24  1  0  0  0  0
M  END
>  <MODEL>
8

>  <REMARK>
 VINA RESULT:      -8.0      3.963      7.131
  Name = 
  2 active torsions:
  status: ('A' for Active; 'I' for Inactive)
    1  A    between atoms: C_1  and  C_2
    2  A    between atoms: C_2  and  C_3
                            x       y       z     vdW  Elec       q    Type
                         _______ _______ _______ _____ _____    ______ ____

>  <TORSDO>
F 2

$$$$
=
 OpenBabel10272401523D

 28 32  0  0  1  0  0  0  0  0999 V2000
  190.3100  176.9690  138.2920 C   0  0  1  0  0  3  0  0  0  0  0  0
  191.1150  177.4440  143.4010 C   0  0  0  0  0  2  0  0  0  0  0  0
  185.9550  178.4130  140.2260 F   0  0  0  0  0  0  0  0  0  0  0  0
  188.8350  177.7600  144.2670 C   0  0  2  0  0  3  0  0  0  0  0  0
  189.1440  177.3600  141.8050 C   0  0  0  0  0  0  0  0  0  0  0  0
  190.5920  177.0630  145.8710 C   0  0  0  0  0  0  0  0  0  0  0  0
  189.6560  177.0490  143.1910 C   0  0  1  0  0  3  0  0  0  0  0  0
  186.8660  178.1150  142.8050 C   0  0  0  0  0  2  0  0  0  0  0  0
  189.3140  177.3860  145.6370 C   0  0  0  0  0  3  0  0  0  0  0  0
  188.0640  177.7730  139.1400 C   0  0  1  0  0  3  0  0  0  0  0  0
  189.8980  177.0660  140.7450 C   0  0  0  0  0  3  0  0  0  0  0  0
  187.3600  177.4500  144.0870 C   0  0  0  0  0  2  0  0  0  0  0  0
  189.3560  179.0790  137.3460 C   0  0  0  0  0  2  0  0  0  0  0  0
  187.2400  178.0010  140.3800 C   0  0  0  0  0  0  0  0  0  0  0  0
  188.1490  179.0530  138.2970 C   0  0  0  0  0  2  0  0  0  0  0  0
  190.9850  176.7780  147.1720 O   0  0  0  0  0  1  0  0  0  0  0  0
  191.6070  176.9240  144.7590 C   0  0  0  0  0  2  0  0  0  0  0  0
  187.7340  177.7990  141.6110 C   0  0  0  0  0  0  0  0  0  0  0  0
  189.8590  177.6770  137.0100 C   0  0  0  0  0  2  0  0  0  0  0  0
  189.4040  177.2340  139.4120 N   0  0  0  0  0  0  0  0  0  0  0  0
  190.5500  175.4660  138.0670 C   0  0  0  0  0  2  0  0  0  0  0  0
  191.9960  175.0310  137.7950 C   0  0  2  0  0  3  0  0  0  0  0  0
  194.5340  174.9530  136.5380 C   0  0  0  0  0  0  0  0  0  0  0  0
  193.0360  176.1190  138.0960 C   0  0  0  0  0  2  0  0  0  0  0  0
  192.1710  174.4500  136.4150 C   0  0  0  0  0  3  0  0  0  0  0  0
  193.3730  174.3880  135.8400 C   0  0  0  0  0  3  0  0  0  0  0  0
  195.6950  174.7670  136.0910 O   0  0  0  0  0  0  0  0  0  0  0  0
  194.3410  175.6840  137.7130 O   0  0  0  0  0  0  0  0  0  0  0  0
  1 21  1  6  0  0  0
  1 20  1  0  0  0  0
  2 17  1  0  0  0  0
  3 14  1  0  0  0  0
  4 12  1  1  0  0  0
  4  9  1  0  0  0  0
  5  7  1  0  0  0  0
  6 16  1  0  0  0  0
  7  2  1  6  0  0  0
  7  4  1  0  0  0  0
  8 12  1  0  0  0  0
  9  6  2  0  0  0  0
 10 15  1  1  0  0  0
 10 20  1  0  0  0  0
 10 14  1  0  0  0  0
 11  5  2  0  0  0  0
 13 15  1  0  0  0  0
 14 18  2  0  0  0  0
 17  6  1  0  0  0  0
 18  5  1  0  0  0  0
 18  8  1  0  0  0  0
 19 13  1  0  0  0  0
 19  1  1  0  0  0  0
 20 11  1  0  0  0  0
 22 21  1  6  0  0  0
 22 24  1  0  0  0  0
 23 28  1  0  0  0  0
 25 22  1  0  0  0  0
 26 25  2  0  0  0  0
 26 23  1  0  0  0  0
 27 23  2  0  0  0  0
 28 24  1  0  0  0  0
M  END
>  <MODEL>
9

>  <REMARK>
 VINA RESULT:      -7.8      3.522      8.549
  Name = 
  2 active torsions:
  status: ('A' for Active; 'I' for Inactive)
    1  A    between atoms: C_1  and  C_2
    2  A    between atoms: C_2  and  C_3
                            x       y       z     vdW  Elec       q    Type
                         _______ _______ _______ _____ _____    ______ ____

>  <TORSDO>
F 2

$$$$
