=
 OpenBabel10272414203D

 43 48  0  0  1  0  0  0  0  0999 V2000
  191.0800  176.5720  146.3600 C   0  0  0  0  0  0  0  0  0  0  0  0
  187.4810  178.1230  143.1440 C   0  0  0  0  0  0  0  0  0  0  0  0
  188.7010  178.1070  140.6360 C   0  0  0  0  0  0  0  0  0  0  0  0
  188.9930  177.3200  145.3840 C   0  0  0  0  0  0  0  0  0  0  0  0
  191.6840  176.6000  145.1000 C   0  0  0  0  0  3  0  0  0  0  0  0
  192.0070  176.0880  147.7630 Cl  0  0  0  0  0  0  0  0  0  0  0  0
  189.5970  177.3510  144.1050 C   0  0  0  0  0  0  0  0  0  0  0  0
  189.7360  176.9310  146.5020 C   0  0  0  0  0  3  0  0  0  0  0  0
  190.9470  176.9860  143.9770 C   0  0  0  0  0  3  0  0  0  0  0  0
  189.4010  177.7510  141.7450 N   0  0  0  0  0  0  0  0  0  0  0  0
  188.8390  177.7430  142.9850 C   0  0  0  0  0  0  0  0  0  0  0  0
  186.9060  178.0700  144.4220 C   0  0  0  0  0  3  0  0  0  0  0  0
  186.7440  178.5210  142.0010 C   0  0  0  0  0  0  0  0  0  0  0  0
  187.3680  178.4960  140.7510 C   0  0  0  0  0  3  0  0  0  0  0  0
  187.6530  177.6740  145.5320 C   0  0  0  0  0  3  0  0  0  0  0  0
  189.3530  178.1010  139.2900 C   0  0  1  0  0  3  0  0  0  0  0  0
  190.2490  176.8850  139.1360 C   0  0  0  0  0  2  0  0  0  0  0  0
  188.3030  178.0220  138.1900 C   0  0  0  0  0  2  0  0  0  0  0  0
  189.4990  175.9300  138.2380 C   0  0  1  0  0  3  0  0  0  0  0  0
  188.6400  176.8050  137.3530 C   0  0  0  0  0  2  0  0  0  0  0  0
  190.4750  175.1150  137.4070 C   0  0  0  0  0  2  0  0  0  0  0  0
  191.3020  176.0020  136.5870 N   0  0  0  0  0  0  0  0  0  0  0  0
  193.3440  176.1740  135.3780 C   0  0  0  0  0  2  0  0  0  0  0  0
  190.9700  175.7880  135.1860 C   0  0  0  0  0  2  0  0  0  0  0  0
  192.7450  175.7300  136.7000 C   0  0  1  0  0  0  0  0  0  0  0  0
  193.3270  176.5730  137.8230 C   0  0  0  0  0  1  0  0  0  0  0  0
  192.2120  176.1050  134.3770 C   0  0  0  0  0  2  0  0  0  0  0  0
  193.0690  174.2370  136.9250 C   0  0  0  0  0  2  0  0  0  0  0  0
  194.2210  173.8060  136.1330 N   0  0  0  0  0  0  0  0  0  0  0  0
  195.1530  172.2820  137.8690 C   0  0  0  0  0  2  0  0  0  0  0  0
  193.6930  171.3760  136.2550 C   0  0  0  0  0  2  0  0  0  0  0  0
  194.9240  171.1360  136.9990 N   0  0  0  0  0  2  0  0  0  0  0  0
  193.8620  172.6080  135.3600 C   0  0  0  0  0  2  0  0  0  0  0  0
  195.3610  173.5420  137.0220 C   0  0  0  0  0  2  0  0  0  0  0  0
  185.3720  178.9490  142.0390 N   0  0  0  0  0  2  0  0  0  0  0  0
  184.2060  178.1170  142.3100 C   0  0  1  0  0  3  0  0  0  0  0  0
  183.3000  178.7830  143.3330 C   0  0  0  0  0  1  0  0  0  0  0  0
  183.4570  177.8020  141.0150 C   0  0  0  0  0  2  0  0  0  0  0  0
  182.7750  179.0260  140.4040 C   0  0  2  0  0  3  0  0  0  0  0  0
  181.4080  178.7870  140.2500 O   0  0  0  0  0  1  0  0  0  0  0  0
  184.4340  180.2420  138.9790 O   0  0  0  0  0  1  0  0  0  0  0  0
  182.9410  178.7770  138.0440 O   0  0  0  0  0  0  0  0  0  0  0  0
  183.3780  179.3420  139.0790 C   0  0  0  0  0  0  0  0  0  0  0  0
  1  8  1  0  0  0  0
  1  6  1  0  0  0  0
  2 12  1  0  0  0  0
  3 14  2  0  0  0  0
  3 10  1  0  0  0  0
  4 15  1  0  0  0  0
  4  8  2  0  0  0  0
  5  1  2  0  0  0  0
  7  4  1  0  0  0  0
  9  7  2  0  0  0  0
  9  5  1  0  0  0  0
 10 11  2  0  0  0  0
 11  2  1  0  0  0  0
 11  7  1  0  0  0  0
 12 15  2  0  0  0  0
 13 35  1  0  0  0  0
 13  2  2  0  0  0  0
 14 13  1  0  0  0  0
 16  3  1  1  0  0  0
 17 16  1  0  0  0  0
 18 16  1  0  0  0  0
 19 21  1  6  0  0  0
 19 17  1  0  0  0  0
 20 18  1  0  0  0  0
 20 19  1  0  0  0  0
 22 25  1  0  0  0  0
 22 21  1  0  0  0  0
 23 25  1  0  0  0  0
 24 22  1  0  0  0  0
 25 28  1  0  0  0  0
 25 26  1  1  0  0  0
 27 24  1  0  0  0  0
 27 23  1  0  0  0  0
 29 28  1  0  0  0  0
 29 34  1  0  0  0  0
 31 32  1  0  0  0  0
 32 30  1  0  0  0  0
 33 29  1  0  0  0  0
 33 31  1  0  0  0  0
 34 30  1  0  0  0  0
 35 36  1  0  0  0  0
 36 37  1  1  0  0  0
 38 36  1  0  0  0  0
 39 40  1  6  0  0  0
 39 38  1  0  0  0  0
 41 43  1  0  0  0  0
 42 43  2  0  0  0  0
 43 39  1  0  0  0  0
M  END
>  <MODEL>
1

>  <REMARK>
 VINA RESULT:      -9.0      0.000      0.000
  Name = 
  10 active torsions:
  status: ('A' for Active; 'I' for Inactive)
    1  A    between atoms: C_1  and  C_9
    2  A    between atoms: C_1  and  N_35
    3  A    between atoms: C_2  and  C_13
    4  A    between atoms: C_3  and  N_4
    5  A    between atoms: C_3  and  C_12
    6  A    between atoms: C_9  and  C_32
    7  A    between atoms: N_11  and  C_14
    8  A    between atoms: C_14  and  C_22
    9  A    between atoms: C_32  and  C_37
   10  A    between atoms: C_34  and  N_35
                            x       y       z     vdW  Elec       q    Type
                         _______ _______ _______ _____ _____    ______ ____

>  <TORSDO>
F 10

$$$$
=
 OpenBabel10272414203D

 43 48  0  0  1  0  0  0  0  0999 V2000
  187.7290  177.5440  146.8830 C   0  0  0  0  0  0  0  0  0  0  0  0
  188.3210  178.0480  141.8730 C   0  0  0  0  0  0  0  0  0  0  0  0
  185.7800  178.6700  140.9060 C   0  0  0  0  0  0  0  0  0  0  0  0
  188.6530  177.6640  144.6460 C   0  0  0  0  0  0  0  0  0  0  0  0
  186.4570  177.8270  146.3770 C   0  0  0  0  0  3  0  0  0  0  0  0
  187.9510  177.2910  148.5990 Cl  0  0  0  0  0  0  0  0  0  0  0  0
  187.3680  177.9500  144.1260 C   0  0  0  0  0  0  0  0  0  0  0  0
  188.8250  177.4640  146.0180 C   0  0  0  0  0  3  0  0  0  0  0  0
  186.2760  178.0290  145.0060 C   0  0  0  0  0  3  0  0  0  0  0  0
  185.9780  178.4530  142.2340 N   0  0  0  0  0  0  0  0  0  0  0  0
  187.2050  178.1510  142.7420 C   0  0  0  0  0  0  0  0  0  0  0  0
  189.5840  177.7770  142.4180 C   0  0  0  0  0  3  0  0  0  0  0  0
  188.1260  178.2470  140.4830 C   0  0  0  0  0  0  0  0  0  0  0  0
  186.8490  178.5700  140.0180 C   0  0  0  0  0  3  0  0  0  0  0  0
  189.7500  177.5850  143.7900 C   0  0  0  0  0  3  0  0  0  0  0  0
  184.4180  179.0030  140.3850 C   0  0  1  0  0  3  0  0  0  0  0  0
  184.1160  178.2020  139.1300 C   0  0  0  0  0  2  0  0  0  0  0  0
  183.3520  178.6420  141.4110 C   0  0  0  0  0  2  0  0  0  0  0  0
  183.1550  177.1160  139.5550 C   0  0  1  0  0  3  0  0  0  0  0  0
  182.3900  177.6940  140.7240 C   0  0  0  0  0  2  0  0  0  0  0  0
  182.2160  176.7710  138.4130 C   0  0  0  0  0  2  0  0  0  0  0  0
  182.5000  177.6170  137.2530 N   0  0  0  0  0  0  0  0  0  0  0  0
  182.3700  177.7560  134.8810 C   0  0  0  0  0  2  0  0  0  0  0  0
  181.3170  178.4090  136.9520 C   0  0  0  0  0  2  0  0  0  0  0  0
  182.7910  176.8550  136.0260 C   0  0  1  0  0  0  0  0  0  0  0  0
  184.2860  176.5970  135.9390 C   0  0  0  0  0  1  0  0  0  0  0  0
  181.3330  178.6930  135.4620 C   0  0  0  0  0  2  0  0  0  0  0  0
  182.0110  175.5250  135.9340 C   0  0  0  0  0  2  0  0  0  0  0  0
  182.9010  174.3890  135.6900 N   0  0  0  0  0  0  0  0  0  0  0  0
  181.4630  172.7050  136.8300 C   0  0  0  0  0  2  0  0  0  0  0  0
  181.2000  173.0090  134.5070 C   0  0  0  0  0  2  0  0  0  0  0  0
  181.2610  172.0080  135.5660 N   0  0  0  0  0  2  0  0  0  0  0  0
  182.5390  173.7500  134.4170 C   0  0  0  0  0  2  0  0  0  0  0  0
  182.8080  173.4400  136.8080 C   0  0  0  0  0  2  0  0  0  0  0  0
  189.1730  178.1470  139.5020 N   0  0  0  0  0  2  0  0  0  0  0  0
  189.4910  176.9850  138.6820 C   0  0  1  0  0  3  0  0  0  0  0  0
  189.5470  177.3680  137.2120 C   0  0  0  0  0  1  0  0  0  0  0  0
  190.7960  176.3390  139.1470 C   0  0  0  0  0  2  0  0  0  0  0  0
  191.7070  175.9300  137.9900 C   0  0  2  0  0  3  0  0  0  0  0  0
  191.8310  174.5400  137.9440 O   0  0  0  0  0  1  0  0  0  0  0  0
  193.4510  177.0580  139.3850 O   0  0  0  0  0  1  0  0  0  0  0  0
  193.8450  176.5850  137.1770 O   0  0  0  0  0  0  0  0  0  0  0  0
  193.0540  176.5460  138.1540 C   0  0  0  0  0  0  0  0  0  0  0  0
  1  6  1  0  0  0  0
  2 12  1  0  0  0  0
  2 11  1  0  0  0  0
  3 10  1  0  0  0  0
  4  8  1  0  0  0  0
  5  1  1  0  0  0  0
  7  4  2  0  0  0  0
  7  9  1  0  0  0  0
  8  1  2  0  0  0  0
  9  5  2  0  0  0  0
 10 11  2  0  0  0  0
 11  7  1  0  0  0  0
 12 15  2  0  0  0  0
 13  2  2  0  0  0  0
 14 13  1  0  0  0  0
 14  3  2  0  0  0  0
 15  4  1  0  0  0  0
 16  3  1  1  0  0  0
 16 18  1  0  0  0  0
 17 19  1  0  0  0  0
 17 16  1  0  0  0  0
 19 21  1  6  0  0  0
 19 20  1  0  0  0  0
 20 18  1  0  0  0  0
 22 21  1  0  0  0  0
 23 27  1  0  0  0  0
 23 25  1  0  0  0  0
 24 22  1  0  0  0  0
 25 26  1  6  0  0  0
 25 22  1  0  0  0  0
 27 24  1  0  0  0  0
 28 25  1  0  0  0  0
 29 28  1  0  0  0  0
 29 34  1  0  0  0  0
 31 32  1  0  0  0  0
 32 30  1  0  0  0  0
 33 31  1  0  0  0  0
 33 29  1  0  0  0  0
 34 30  1  0  0  0  0
 35 13  1  0  0  0  0
 36 37  1  6  0  0  0
 36 38  1  0  0  0  0
 36 35  1  0  0  0  0
 39 40  1  1  0  0  0
 39 43  1  0  0  0  0
 39 38  1  0  0  0  0
 42 43  2  0  0  0  0
 43 41  1  0  0  0  0
M  END
>  <MODEL>
2

>  <REMARK>
 VINA RESULT:      -8.7      4.486      8.154
  Name = 
  10 active torsions:
  status: ('A' for Active; 'I' for Inactive)
    1  A    between atoms: C_1  and  C_9
    2  A    between atoms: C_1  and  N_35
    3  A    between atoms: C_2  and  C_13
    4  A    between atoms: C_3  and  N_4
    5  A    between atoms: C_3  and  C_12
    6  A    between atoms: C_9  and  C_32
    7  A    between atoms: N_11  and  C_14
    8  A    between atoms: C_14  and  C_22
    9  A    between atoms: C_32  and  C_37
   10  A    between atoms: C_34  and  N_35
                            x       y       z     vdW  Elec       q    Type
                         _______ _______ _______ _____ _____    ______ ____

>  <TORSDO>
F 10

$$$$
=
 OpenBabel10272414203D

 43 48  0  0  1  0  0  0  0  0999 V2000
  188.0280  177.4170  146.6850 C   0  0  0  0  0  0  0  0  0  0  0  0
  186.3290  178.3460  142.0000 C   0  0  0  0  0  0  0  0  0  0  0  0
  188.5800  178.1490  140.3650 C   0  0  0  0  0  0  0  0  0  0  0  0
  186.6290  177.9010  144.7670 C   0  0  0  0  0  0  0  0  0  0  0  0
  189.1500  177.3530  145.8540 C   0  0  0  0  0  3  0  0  0  0  0  0
  188.1980  177.1560  148.4060 Cl  0  0  0  0  0  0  0  0  0  0  0  0
  187.7610  177.8380  143.9200 C   0  0  0  0  0  0  0  0  0  0  0  0
  186.7690  177.6900  146.1420 C   0  0  0  0  0  3  0  0  0  0  0  0
  189.0190  177.5610  144.4790 C   0  0  0  0  0  3  0  0  0  0  0  0
  188.6850  177.9660  141.7080 N   0  0  0  0  0  0  0  0  0  0  0  0
  187.6080  178.0510  142.5370 C   0  0  0  0  0  0  0  0  0  0  0  0
  185.2230  178.3890  142.8620 C   0  0  0  0  0  3  0  0  0  0  0  0
  186.2060  178.5640  140.6040 C   0  0  0  0  0  0  0  0  0  0  0  0
  187.3420  178.4500  139.8000 C   0  0  0  0  0  3  0  0  0  0  0  0
  185.3710  178.1700  144.2320 C   0  0  0  0  0  3  0  0  0  0  0  0
  189.7850  178.0460  139.4860 C   0  0  1  0  0  3  0  0  0  0  0  0
  190.3590  176.6400  139.5290 C   0  0  0  0  0  2  0  0  0  0  0  0
  189.4150  178.3300  138.0370 C   0  0  0  0  0  2  0  0  0  0  0  0
  189.9560  175.9890  138.2270 C   0  0  1  0  0  3  0  0  0  0  0  0
  189.8460  177.1220  137.2310 C   0  0  0  0  0  2  0  0  0  0  0  0
  191.0120  174.9880  137.7920 C   0  0  0  0  0  2  0  0  0  0  0  0
  190.8060  174.6130  136.3930 N   0  0  0  0  0  0  0  0  0  0  0  0
  191.6450  173.2950  134.5980 C   0  0  0  0  0  2  0  0  0  0  0  0
  189.9850  173.4120  136.3470 C   0  0  0  0  0  2  0  0  0  0  0  0
  192.0520  174.2710  135.6850 C   0  0  1  0  0  0  0  0  0  0  0  0
  192.6250  175.5250  135.0450 C   0  0  0  0  0  1  0  0  0  0  0  0
  190.3590  172.6610  135.0840 C   0  0  0  0  0  2  0  0  0  0  0  0
  193.1060  173.6030  136.5950 C   0  0  0  0  0  2  0  0  0  0  0  0
  194.4350  174.1870  136.4050 N   0  0  0  0  0  0  0  0  0  0  0  0
  195.3350  173.4570  138.6100 C   0  0  0  0  0  2  0  0  0  0  0  0
  195.6770  172.0560  136.7450 C   0  0  0  0  0  2  0  0  0  0  0  0
  196.3080  172.6030  137.9400 N   0  0  0  0  0  2  0  0  0  0  0  0
  195.3200  173.1930  135.7810 C   0  0  0  0  0  2  0  0  0  0  0  0
  194.9660  174.6340  137.7010 C   0  0  0  0  0  2  0  0  0  0  0  0
  184.9700  178.8920  139.9480 N   0  0  0  0  0  2  0  0  0  0  0  0
  183.9990  177.9550  139.3970 C   0  0  1  0  0  3  0  0  0  0  0  0
  182.6610  178.0940  140.1050 C   0  0  0  0  0  1  0  0  0  0  0  0
  183.8610  178.1490  137.8880 C   0  0  0  0  0  2  0  0  0  0  0  0
  184.1710  176.8820  137.0900 C   0  0  2  0  0  3  0  0  0  0  0  0
  183.9130  175.7510  137.8650 O   0  0  0  0  0  1  0  0  0  0  0  0
  186.0230  177.6740  135.6050 O   0  0  0  0  0  0  0  0  0  0  0  0
  186.4320  176.1670  137.2820 O   0  0  0  0  0  1  0  0  0  0  0  0
  185.6000  176.8800  136.6650 C   0  0  0  0  0  0  0  0  0  0  0  0
  1  6  1  0  0  0  0
  2 11  1  0  0  0  0
  2 12  1  0  0  0  0
  3 10  1  0  0  0  0
  4  8  2  0  0  0  0
  5  1  2  0  0  0  0
  7  9  2  0  0  0  0
  7  4  1  0  0  0  0
  8  1  1  0  0  0  0
  9  5  1  0  0  0  0
 10 11  2  0  0  0  0
 11  7  1  0  0  0  0
 12 15  2  0  0  0  0
 13  2  2  0  0  0  0
 14  3  2  0  0  0  0
 14 13  1  0  0  0  0
 15  4  1  0  0  0  0
 16 17  1  0  0  0  0
 16  3  1  1  0  0  0
 18 16  1  0  0  0  0
 19 21  1  6  0  0  0
 19 17  1  0  0  0  0
 20 18  1  0  0  0  0
 20 19  1  0  0  0  0
 22 21  1  0  0  0  0
 23 27  1  0  0  0  0
 23 25  1  0  0  0  0
 24 22  1  0  0  0  0
 25 26  1  6  0  0  0
 25 22  1  0  0  0  0
 25 28  1  0  0  0  0
 27 24  1  0  0  0  0
 29 28  1  0  0  0  0
 29 34  1  0  0  0  0
 31 32  1  0  0  0  0
 32 30  1  0  0  0  0
 33 29  1  0  0  0  0
 33 31  1  0  0  0  0
 34 30  1  0  0  0  0
 35 13  1  0  0  0  0
 36 35  1  0  0  0  0
 36 37  1  1  0  0  0
 38 36  1  0  0  0  0
 39 40  1  1  0  0  0
 39 38  1  0  0  0  0
 41 43  2  0  0  0  0
 43 39  1  0  0  0  0
 43 42  1  0  0  0  0
M  END
>  <MODEL>
3

>  <REMARK>
 VINA RESULT:      -8.6      1.858      2.551
  Name = 
  10 active torsions:
  status: ('A' for Active; 'I' for Inactive)
    1  A    between atoms: C_1  and  C_9
    2  A    between atoms: C_1  and  N_35
    3  A    between atoms: C_2  and  C_13
    4  A    between atoms: C_3  and  N_4
    5  A    between atoms: C_3  and  C_12
    6  A    between atoms: C_9  and  C_32
    7  A    between atoms: N_11  and  C_14
    8  A    between atoms: C_14  and  C_22
    9  A    between atoms: C_32  and  C_37
   10  A    between atoms: C_34  and  N_35
                            x       y       z     vdW  Elec       q    Type
                         _______ _______ _______ _____ _____    ______ ____

>  <TORSDO>
F 10

$$$$
=
 OpenBabel10272414203D

 43 48  0  0  1  0  0  0  0  0999 V2000
  190.9190  176.5550  146.3040 C   0  0  0  0  0  0  0  0  0  0  0  0
  187.1610  178.2350  143.3450 C   0  0  0  0  0  0  0  0  0  0  0  0
  188.2140  178.2170  140.7630 C   0  0  0  0  0  0  0  0  0  0  0  0
  188.7920  177.3680  145.4740 C   0  0  0  0  0  0  0  0  0  0  0  0
  191.4400  176.5820  145.0080 C   0  0  0  0  0  3  0  0  0  0  0  0
  191.9210  176.0310  147.6390 Cl  0  0  0  0  0  0  0  0  0  0  0  0
  189.3140  177.3980  144.1580 C   0  0  0  0  0  0  0  0  0  0  0  0
  189.5970  176.9460  146.5370 C   0  0  0  0  0  3  0  0  0  0  0  0
  190.6420  177.0000  143.9390 C   0  0  0  0  0  3  0  0  0  0  0  0
  188.9760  177.8300  141.8210 N   0  0  0  0  0  0  0  0  0  0  0  0
  188.4950  177.8220  143.0950 C   0  0  0  0  0  0  0  0  0  0  0  0
  186.6680  178.1820  144.6580 C   0  0  0  0  0  3  0  0  0  0  0  0
  186.3620  178.6650  142.2560 C   0  0  0  0  0  0  0  0  0  0  0  0
  186.9020  178.6390  140.9690 C   0  0  0  0  0  3  0  0  0  0  0  0
  187.4750  177.7540  145.7120 C   0  0  0  0  0  3  0  0  0  0  0  0
  188.7770  178.2100  139.3780 C   0  0  1  0  0  3  0  0  0  0  0  0
  189.9210  177.2170  139.2700 C   0  0  0  0  0  2  0  0  0  0  0  0
  187.7180  177.7780  138.3740 C   0  0  0  0  0  2  0  0  0  0  0  0
  189.3650  176.0250  138.5270 C   0  0  1  0  0  3  0  0  0  0  0  0
  188.2810  176.5830  137.6320 C   0  0  0  0  0  2  0  0  0  0  0  0
  190.4570  175.3640  137.7040 C   0  0  0  0  0  2  0  0  0  0  0  0
  189.8970  174.8230  136.4650 N   0  0  0  0  0  0  0  0  0  0  0  0
  190.4000  173.6060  134.4830 C   0  0  0  0  0  2  0  0  0  0  0  0
  189.4710  173.4520  136.7050 C   0  0  0  0  0  2  0  0  0  0  0  0
  190.8710  174.7490  135.3620 C   0  0  1  0  0  0  0  0  0  0  0  0
  190.8260  176.0450  134.5680 C   0  0  0  0  0  1  0  0  0  0  0  0
  189.5820  172.7100  135.3870 C   0  0  0  0  0  2  0  0  0  0  0  0
  192.3110  174.4610  135.8380 C   0  0  0  0  0  2  0  0  0  0  0  0
  193.1910  175.6110  135.6320 N   0  0  0  0  0  0  0  0  0  0  0  0
  194.5130  175.2810  137.7170 C   0  0  0  0  0  2  0  0  0  0  0  0
  195.3090  174.3050  135.7240 C   0  0  0  0  0  2  0  0  0  0  0  0
  195.7110  175.0230  136.9280 N   0  0  0  0  0  2  0  0  0  0  0  0
  194.3820  175.1870  134.8810 C   0  0  0  0  0  2  0  0  0  0  0  0
  193.5610  176.1890  136.9330 C   0  0  0  0  0  2  0  0  0  0  0  0
  185.0070  179.1280  142.3880 N   0  0  0  0  0  2  0  0  0  0  0  0
  183.8350  178.3180  142.6950 C   0  0  1  0  0  3  0  0  0  0  0  0
  183.2080  178.7610  144.0070 C   0  0  0  0  0  1  0  0  0  0  0  0
  182.8300  178.3680  141.5450 C   0  0  0  0  0  2  0  0  0  0  0  0
  183.4330  177.9560  140.2020 C   0  0  2  0  0  3  0  0  0  0  0  0
  183.7310  179.0880  139.4420 O   0  0  0  0  0  1  0  0  0  0  0  0
  181.3830  177.6440  138.8030 O   0  0  0  0  0  0  0  0  0  0  0  0
  182.6790  175.8490  139.3950 O   0  0  0  0  0  1  0  0  0  0  0  0
  182.4800  177.0890  139.4540 C   0  0  0  0  0  0  0  0  0  0  0  0
  1  8  1  0  0  0  0
  1  6  1  0  0  0  0
  2 12  1  0  0  0  0
  3 14  2  0  0  0  0
  3 10  1  0  0  0  0
  4 15  1  0  0  0  0
  4  8  2  0  0  0  0
  5  1  2  0  0  0  0
  7  4  1  0  0  0  0
  9  7  2  0  0  0  0
  9  5  1  0  0  0  0
 10 11  2  0  0  0  0
 11  2  1  0  0  0  0
 11  7  1  0  0  0  0
 12 15  2  0  0  0  0
 13 35  1  0  0  0  0
 13  2  2  0  0  0  0
 14 13  1  0  0  0  0
 16  3  1  1  0  0  0
 17 16  1  0  0  0  0
 18 16  1  0  0  0  0
 19 21  1  6  0  0  0
 19 17  1  0  0  0  0
 20 18  1  0  0  0  0
 20 19  1  0  0  0  0
 22 24  1  0  0  0  0
 22 21  1  0  0  0  0
 23 25  1  0  0  0  0
 23 27  1  0  0  0  0
 25 26  1  6  0  0  0
 25 28  1  0  0  0  0
 25 22  1  0  0  0  0
 27 24  1  0  0  0  0
 29 28  1  0  0  0  0
 29 34  1  0  0  0  0
 31 32  1  0  0  0  0
 32 30  1  0  0  0  0
 33 29  1  0  0  0  0
 33 31  1  0  0  0  0
 34 30  1  0  0  0  0
 35 36  1  0  0  0  0
 36 37  1  1  0  0  0
 38 36  1  0  0  0  0
 39 40  1  6  0  0  0
 39 38  1  0  0  0  0
 41 43  2  0  0  0  0
 42 43  1  0  0  0  0
 43 39  1  0  0  0  0
M  END
>  <MODEL>
4

>  <REMARK>
 VINA RESULT:      -8.4      1.343      2.037
  Name = 
  10 active torsions:
  status: ('A' for Active; 'I' for Inactive)
    1  A    between atoms: C_1  and  C_9
    2  A    between atoms: C_1  and  N_35
    3  A    between atoms: C_2  and  C_13
    4  A    between atoms: C_3  and  N_4
    5  A    between atoms: C_3  and  C_12
    6  A    between atoms: C_9  and  C_32
    7  A    between atoms: N_11  and  C_14
    8  A    between atoms: C_14  and  C_22
    9  A    between atoms: C_32  and  C_37
   10  A    between atoms: C_34  and  N_35
                            x       y       z     vdW  Elec       q    Type
                         _______ _______ _______ _____ _____    ______ ____

>  <TORSDO>
F 10

$$$$
=
 OpenBabel10272414203D

 43 48  0  0  1  0  0  0  0  0999 V2000
  190.6090  176.9180  146.1740 C   0  0  0  0  0  0  0  0  0  0  0  0
  189.5360  177.6170  141.2690 C   0  0  0  0  0  0  0  0  0  0  0  0
  186.9430  178.6430  141.2380 C   0  0  0  0  0  0  0  0  0  0  0  0
  190.7260  177.0340  143.7570 C   0  0  0  0  0  0  0  0  0  0  0  0
  189.2990  177.4040  146.1380 C   0  0  0  0  0  3  0  0  0  0  0  0
  191.3580  176.5390  147.7090 Cl  0  0  0  0  0  0  0  0  0  0  0  0
  189.4000  177.5260  143.7120 C   0  0  0  0  0  0  0  0  0  0  0  0
  191.3220  176.7340  144.9850 C   0  0  0  0  0  3  0  0  0  0  0  0
  188.6970  177.7070  144.9130 C   0  0  0  0  0  3  0  0  0  0  0  0
  187.5440  178.3250  142.4150 N   0  0  0  0  0  0  0  0  0  0  0  0
  188.8100  177.8260  142.4700 C   0  0  0  0  0  0  0  0  0  0  0  0
  190.8530  177.1410  141.3450 C   0  0  0  0  0  3  0  0  0  0  0  0
  188.9140  177.9200  140.0320 C   0  0  0  0  0  0  0  0  0  0  0  0
  187.6190  178.4440  140.0360 C   0  0  0  0  0  3  0  0  0  0  0  0
  191.4430  176.8500  142.5760 C   0  0  0  0  0  3  0  0  0  0  0  0
  185.5520  179.1920  141.2180 C   0  0  1  0  0  3  0  0  0  0  0  0
  184.7680  178.6210  140.0490 C   0  0  0  0  0  2  0  0  0  0  0  0
  184.8070  178.8010  142.4870 C   0  0  0  0  0  2  0  0  0  0  0  0
  183.8330  177.5930  140.6410 C   0  0  1  0  0  3  0  0  0  0  0  0
  183.5520  178.0730  142.0480 C   0  0  0  0  0  2  0  0  0  0  0  0
  182.5510  177.5220  139.8300 C   0  0  0  0  0  2  0  0  0  0  0  0
  182.8140  177.8880  138.4380 N   0  0  0  0  0  0  0  0  0  0  0  0
  182.5130  177.2250  136.1730 C   0  0  0  0  0  2  0  0  0  0  0  0
  181.6810  178.6510  137.9340 C   0  0  0  0  0  2  0  0  0  0  0  0
  182.9440  176.7280  137.5390 C   0  0  1  0  0  0  0  0  0  0  0  0
  184.4020  176.3010  137.4810 C   0  0  0  0  0  1  0  0  0  0  0  0
  181.6050  178.4070  136.4390 C   0  0  0  0  0  2  0  0  0  0  0  0
  182.0520  175.5360  137.9480 C   0  0  0  0  0  2  0  0  0  0  0  0
  181.3880  174.9340  136.7910 N   0  0  0  0  0  0  0  0  0  0  0  0
  182.0610  172.5940  137.3180 C   0  0  0  0  0  2  0  0  0  0  0  0
  179.9820  173.3650  138.1200 C   0  0  0  0  0  2  0  0  0  0  0  0
  180.6640  172.2270  137.5150 N   0  0  0  0  0  2  0  0  0  0  0  0
  180.0140  174.5580  137.1570 C   0  0  0  0  0  2  0  0  0  0  0  0
  182.1550  173.7660  136.3350 C   0  0  0  0  0  2  0  0  0  0  0  0
  189.5380  177.7300  138.7510 N   0  0  0  0  0  2  0  0  0  0  0  0
  189.5970  176.4910  137.9840 C   0  0  1  0  0  3  0  0  0  0  0  0
  188.2700  176.2300  137.2890 C   0  0  0  0  0  1  0  0  0  0  0  0
  190.7560  176.5280  136.9900 C   0  0  0  0  0  2  0  0  0  0  0  0
  191.6350  175.2790  137.0470 C   0  0  2  0  0  3  0  0  0  0  0  0
  191.0020  174.2790  137.7870 O   0  0  0  0  0  1  0  0  0  0  0  0
  193.1750  176.8560  138.2310 O   0  0  0  0  0  1  0  0  0  0  0  0
  193.8550  174.7310  137.7050 O   0  0  0  0  0  0  0  0  0  0  0  0
  192.9490  175.6030  137.6700 C   0  0  0  0  0  0  0  0  0  0  0  0
  1  6  1  0  0  0  0
  2 12  1  0  0  0  0
  2 11  1  0  0  0  0
  3 10  1  0  0  0  0
  4  8  1  0  0  0  0
  5  1  1  0  0  0  0
  7  4  2  0  0  0  0
  7  9  1  0  0  0  0
  8  1  2  0  0  0  0
  9  5  2  0  0  0  0
 10 11  2  0  0  0  0
 11  7  1  0  0  0  0
 12 15  2  0  0  0  0
 13 14  1  0  0  0  0
 13  2  2  0  0  0  0
 14  3  2  0  0  0  0
 15  4  1  0  0  0  0
 16  3  1  1  0  0  0
 16 18  1  0  0  0  0
 17 19  1  0  0  0  0
 17 16  1  0  0  0  0
 19 21  1  6  0  0  0
 19 20  1  0  0  0  0
 20 18  1  0  0  0  0
 22 21  1  0  0  0  0
 23 27  1  0  0  0  0
 23 25  1  0  0  0  0
 24 22  1  0  0  0  0
 25 26  1  6  0  0  0
 25 28  1  0  0  0  0
 25 22  1  0  0  0  0
 27 24  1  0  0  0  0
 29 33  1  0  0  0  0
 29 28  1  0  0  0  0
 30 32  1  0  0  0  0
 32 31  1  0  0  0  0
 33 31  1  0  0  0  0
 34 29  1  0  0  0  0
 34 30  1  0  0  0  0
 35 13  1  0  0  0  0
 36 37  1  6  0  0  0
 36 35  1  0  0  0  0
 38 39  1  0  0  0  0
 38 36  1  0  0  0  0
 39 43  1  0  0  0  0
 39 40  1  1  0  0  0
 43 42  2  0  0  0  0
 43 41  1  0  0  0  0
M  END
>  <MODEL>
5

>  <REMARK>
 VINA RESULT:      -8.4      4.112      8.296
  Name = 
  10 active torsions:
  status: ('A' for Active; 'I' for Inactive)
    1  A    between atoms: C_1  and  C_9
    2  A    between atoms: C_1  and  N_35
    3  A    between atoms: C_2  and  C_13
    4  A    between atoms: C_3  and  N_4
    5  A    between atoms: C_3  and  C_12
    6  A    between atoms: C_9  and  C_32
    7  A    between atoms: N_11  and  C_14
    8  A    between atoms: C_14  and  C_22
    9  A    between atoms: C_32  and  C_37
   10  A    between atoms: C_34  and  N_35
                            x       y       z     vdW  Elec       q    Type
                         _______ _______ _______ _____ _____    ______ ____

>  <TORSDO>
F 10

$$$$
=
 OpenBabel10272414203D

 43 48  0  0  1  0  0  0  0  0999 V2000
  189.3140  177.2120  146.2040 C   0  0  0  0  0  0  0  0  0  0  0  0
  185.9890  178.4430  142.5810 C   0  0  0  0  0  0  0  0  0  0  0  0
  187.4620  178.4210  140.2130 C   0  0  0  0  0  0  0  0  0  0  0  0
  187.3010  177.8030  144.9930 C   0  0  0  0  0  0  0  0  0  0  0  0
  190.0430  177.2360  145.0120 C   0  0  0  0  0  3  0  0  0  0  0  0
  190.1160  176.8290  147.7120 Cl  0  0  0  0  0  0  0  0  0  0  0  0
  188.0330  177.8290  143.7820 C   0  0  0  0  0  0  0  0  0  0  0  0
  187.9450  177.4940  146.1940 C   0  0  0  0  0  3  0  0  0  0  0  0
  189.4070  177.5420  143.8060 C   0  0  0  0  0  3  0  0  0  0  0  0
  188.0620  178.1420  141.4010 N   0  0  0  0  0  0  0  0  0  0  0  0
  187.3750  178.1400  142.5760 C   0  0  0  0  0  0  0  0  0  0  0  0
  185.2870  178.3960  143.7950 C   0  0  0  0  0  3  0  0  0  0  0  0
  185.3540  178.7610  141.3540 C   0  0  0  0  0  0  0  0  0  0  0  0
  186.1050  178.7330  140.1770 C   0  0  0  0  0  3  0  0  0  0  0  0
  185.9360  178.0810  144.9890 C   0  0  0  0  0  3  0  0  0  0  0  0
  188.2500  178.4110  138.9430 C   0  0  1  0  0  3  0  0  0  0  0  0
  189.5320  177.6130  139.1140 C   0  0  0  0  0  2  0  0  0  0  0  0
  187.4560  177.7430  137.8280 C   0  0  0  0  0  2  0  0  0  0  0  0
  189.2970  176.2980  138.4080 C   0  0  1  0  0  3  0  0  0  0  0  0
  188.3120  176.6090  137.3030 C   0  0  0  0  0  2  0  0  0  0  0  0
  190.6010  175.7700  137.8360 C   0  0  0  0  0  2  0  0  0  0  0  0
  190.3420  174.9900  136.6260 N   0  0  0  0  0  0  0  0  0  0  0  0
  191.3590  173.8890  134.7780 C   0  0  0  0  0  2  0  0  0  0  0  0
  190.3850  173.5750  136.9630 C   0  0  0  0  0  2  0  0  0  0  0  0
  191.3570  175.1790  135.5750 C   0  0  1  0  0  0  0  0  0  0  0  0
  190.9350  176.3270  134.6720 C   0  0  0  0  0  1  0  0  0  0  0  0
  190.8290  172.8290  135.7200 C   0  0  0  0  0  2  0  0  0  0  0  0
  192.7740  175.4290  136.1340 C   0  0  0  0  0  2  0  0  0  0  0  0
  193.7010  174.3590  135.7650 N   0  0  0  0  0  0  0  0  0  0  0  0
  195.7390  175.7910  135.7700 C   0  0  0  0  0  2  0  0  0  0  0  0
  195.1810  174.6350  137.7480 C   0  0  0  0  0  2  0  0  0  0  0  0
  196.2870  175.0220  136.8800 N   0  0  0  0  0  2  0  0  0  0  0  0
  194.2190  173.7190  136.9820 C   0  0  0  0  0  2  0  0  0  0  0  0
  194.7910  174.9110  134.9480 C   0  0  0  0  0  2  0  0  0  0  0  0
  183.9630  179.1070  141.2360 N   0  0  0  0  0  2  0  0  0  0  0  0
  182.8440  178.1850  141.0900 C   0  0  1  0  0  3  0  0  0  0  0  0
  181.6410  178.6750  141.8800 C   0  0  0  0  0  1  0  0  0  0  0  0
  182.5040  177.9810  139.6140 C   0  0  0  0  0  2  0  0  0  0  0  0
  183.1910  176.7590  139.0040 C   0  0  2  0  0  3  0  0  0  0  0  0
  183.8670  177.1200  137.8380 O   0  0  0  0  0  1  0  0  0  0  0  0
  182.5090  174.6440  137.8550 O   0  0  0  0  0  0  0  0  0  0  0  0
  181.0350  175.7710  139.1990 O   0  0  0  0  0  1  0  0  0  0  0  0
  182.1830  175.7070  138.6900 C   0  0  0  0  0  0  0  0  0  0  0  0
  1  6  1  0  0  0  0
  2 12  1  0  0  0  0
  3 10  1  0  0  0  0
  4  8  2  0  0  0  0
  5  1  2  0  0  0  0
  7  9  2  0  0  0  0
  7  4  1  0  0  0  0
  8  1  1  0  0  0  0
  9  5  1  0  0  0  0
 10 11  2  0  0  0  0
 11  2  1  0  0  0  0
 11  7  1  0  0  0  0
 12 15  2  0  0  0  0
 13  2  2  0  0  0  0
 14  3  2  0  0  0  0
 14 13  1  0  0  0  0
 15  4  1  0  0  0  0
 16 17  1  0  0  0  0
 16  3  1  1  0  0  0
 18 16  1  0  0  0  0
 19 21  1  6  0  0  0
 19 17  1  0  0  0  0
 20 18  1  0  0  0  0
 20 19  1  0  0  0  0
 22 24  1  0  0  0  0
 22 21  1  0  0  0  0
 23 25  1  0  0  0  0
 23 27  1  0  0  0  0
 25 26  1  6  0  0  0
 25 28  1  0  0  0  0
 25 22  1  0  0  0  0
 27 24  1  0  0  0  0
 29 28  1  0  0  0  0
 29 33  1  0  0  0  0
 30 32  1  0  0  0  0
 32 31  1  0  0  0  0
 33 31  1  0  0  0  0
 34 29  1  0  0  0  0
 34 30  1  0  0  0  0
 35 13  1  0  0  0  0
 36 35  1  0  0  0  0
 36 37  1  1  0  0  0
 38 36  1  0  0  0  0
 39 40  1  6  0  0  0
 39 38  1  0  0  0  0
 41 43  2  0  0  0  0
 43 39  1  0  0  0  0
 43 42  1  0  0  0  0
M  END
>  <MODEL>
6

>  <REMARK>
 VINA RESULT:      -8.1      1.653      2.479
  Name = 
  10 active torsions:
  status: ('A' for Active; 'I' for Inactive)
    1  A    between atoms: C_1  and  C_9
    2  A    between atoms: C_1  and  N_35
    3  A    between atoms: C_2  and  C_13
    4  A    between atoms: C_3  and  N_4
    5  A    between atoms: C_3  and  C_12
    6  A    between atoms: C_9  and  C_32
    7  A    between atoms: N_11  and  C_14
    8  A    between atoms: C_14  and  C_22
    9  A    between atoms: C_32  and  C_37
   10  A    between atoms: C_34  and  N_35
                            x       y       z     vdW  Elec       q    Type
                         _______ _______ _______ _____ _____    ______ ____

>  <TORSDO>
F 10

$$$$
=
 OpenBabel10272414203D

 43 48  0  0  1  0  0  0  0  0999 V2000
  191.3660  176.5930  146.8180 C   0  0  0  0  0  0  0  0  0  0  0  0
  187.5950  177.5080  143.5550 C   0  0  0  0  0  0  0  0  0  0  0  0
  188.8550  177.9830  141.1130 C   0  0  0  0  0  0  0  0  0  0  0  0
  189.1890  176.9050  145.8010 C   0  0  0  0  0  0  0  0  0  0  0  0
  191.9820  176.8640  145.5930 C   0  0  0  0  0  3  0  0  0  0  0  0
  192.3410  176.2290  148.2240 Cl  0  0  0  0  0  0  0  0  0  0  0  0
  189.8060  177.1810  144.5570 C   0  0  0  0  0  0  0  0  0  0  0  0
  189.9720  176.6120  146.9210 C   0  0  0  0  0  3  0  0  0  0  0  0
  191.2060  177.1560  144.4670 C   0  0  0  0  0  3  0  0  0  0  0  0
  189.5880  177.7130  142.2260 N   0  0  0  0  0  0  0  0  0  0  0  0
  189.0080  177.4730  143.4340 C   0  0  0  0  0  0  0  0  0  0  0  0
  187.0120  177.2180  144.7980 C   0  0  0  0  0  3  0  0  0  0  0  0
  186.8180  177.8130  142.4100 C   0  0  0  0  0  0  0  0  0  0  0  0
  187.4650  178.0370  141.1930 C   0  0  0  0  0  3  0  0  0  0  0  0
  187.8000  176.9200  145.9100 C   0  0  0  0  0  3  0  0  0  0  0  0
  189.5280  178.2400  139.8030 C   0  0  1  0  0  3  0  0  0  0  0  0
  190.6720  177.2640  139.5890 C   0  0  0  0  0  2  0  0  0  0  0  0
  188.5510  178.0380  138.6530 C   0  0  0  0  0  2  0  0  0  0  0  0
  190.1720  176.2550  138.5810 C   0  0  1  0  0  3  0  0  0  0  0  0
  189.1670  177.0030  137.7340 C   0  0  0  0  0  2  0  0  0  0  0  0
  191.3240  175.7490  137.7310 C   0  0  0  0  0  2  0  0  0  0  0  0
  190.8130  175.1160  136.5150 N   0  0  0  0  0  0  0  0  0  0  0  0
  191.3820  173.7220  134.6720 C   0  0  0  0  0  2  0  0  0  0  0  0
  190.3370  173.7810  136.8470 C   0  0  0  0  0  2  0  0  0  0  0  0
  191.8380  174.9250  135.4740 C   0  0  1  0  0  0  0  0  0  0  0  0
  191.8700  176.1480  134.5720 C   0  0  0  0  0  1  0  0  0  0  0  0
  190.4940  172.9260  135.6040 C   0  0  0  0  0  2  0  0  0  0  0  0
  193.2440  174.6460  136.0480 C   0  0  0  0  0  2  0  0  0  0  0  0
  194.1740  174.1930  135.0120 N   0  0  0  0  0  0  0  0  0  0  0  0
  196.2030  175.1900  136.0560 C   0  0  0  0  0  2  0  0  0  0  0  0
  195.6710  172.9520  136.5670 C   0  0  0  0  0  2  0  0  0  0  0  0
  196.7670  173.8610  136.2530 N   0  0  0  0  0  2  0  0  0  0  0  0
  194.7070  172.8730  135.3780 C   0  0  0  0  0  2  0  0  0  0  0  0
  195.2530  175.1780  134.8540 C   0  0  0  0  0  2  0  0  0  0  0  0
  185.3820  177.9010  142.4130 N   0  0  0  0  0  2  0  0  0  0  0  0
  184.5830  179.1170  142.3420 C   0  0  1  0  0  3  0  0  0  0  0  0
  183.2070  178.8200  141.7670 C   0  0  0  0  0  1  0  0  0  0  0  0
  184.4880  179.7810  143.7150 C   0  0  0  0  0  2  0  0  0  0  0  0
  183.9200  178.8550  144.7900 C   0  0  2  0  0  3  0  0  0  0  0  0
  182.5890  179.1830  145.0530 O   0  0  0  0  0  1  0  0  0  0  0  0
  184.4870  178.1110  147.1110 O   0  0  0  0  0  1  0  0  0  0  0  0
  185.6200  179.8440  146.1290 O   0  0  0  0  0  0  0  0  0  0  0  0
  184.7180  178.9720  146.0430 C   0  0  0  0  0  0  0  0  0  0  0  0
  1  8  1  0  0  0  0
  1  6  1  0  0  0  0
  2 12  1  0  0  0  0
  3 14  2  0  0  0  0
  3 10  1  0  0  0  0
  4 15  1  0  0  0  0
  4  8  2  0  0  0  0
  5  1  2  0  0  0  0
  7  4  1  0  0  0  0
  9  7  2  0  0  0  0
  9  5  1  0  0  0  0
 10 11  2  0  0  0  0
 11  2  1  0  0  0  0
 11  7  1  0  0  0  0
 12 15  2  0  0  0  0
 13 35  1  0  0  0  0
 13  2  2  0  0  0  0
 14 13  1  0  0  0  0
 16  3  1  1  0  0  0
 17 16  1  0  0  0  0
 18 16  1  0  0  0  0
 19 21  1  6  0  0  0
 19 17  1  0  0  0  0
 20 19  1  0  0  0  0
 20 18  1  0  0  0  0
 22 24  1  0  0  0  0
 22 21  1  0  0  0  0
 23 25  1  0  0  0  0
 23 27  1  0  0  0  0
 25 26  1  6  0  0  0
 25 28  1  0  0  0  0
 25 22  1  0  0  0  0
 27 24  1  0  0  0  0
 29 33  1  0  0  0  0
 29 28  1  0  0  0  0
 30 32  1  0  0  0  0
 32 31  1  0  0  0  0
 33 31  1  0  0  0  0
 34 29  1  0  0  0  0
 34 30  1  0  0  0  0
 36 37  1  1  0  0  0
 36 35  1  0  0  0  0
 36 38  1  0  0  0  0
 38 39  1  0  0  0  0
 39 40  1  1  0  0  0
 39 43  1  0  0  0  0
 43 42  2  0  0  0  0
 43 41  1  0  0  0  0
M  END
>  <MODEL>
7

>  <REMARK>
 VINA RESULT:      -8.1      2.150      2.883
  Name = 
  10 active torsions:
  status: ('A' for Active; 'I' for Inactive)
    1  A    between atoms: C_1  and  C_9
    2  A    between atoms: C_1  and  N_35
    3  A    between atoms: C_2  and  C_13
    4  A    between atoms: C_3  and  N_4
    5  A    between atoms: C_3  and  C_12
    6  A    between atoms: C_9  and  C_32
    7  A    between atoms: N_11  and  C_14
    8  A    between atoms: C_14  and  C_22
    9  A    between atoms: C_32  and  C_37
   10  A    between atoms: C_34  and  N_35
                            x       y       z     vdW  Elec       q    Type
                         _______ _______ _______ _____ _____    ______ ____

>  <TORSDO>
F 10

$$$$
=
 OpenBabel10272414203D

 43 48  0  0  1  0  0  0  0  0999 V2000
  190.8010  176.6780  146.1100 C   0  0  0  0  0  0  0  0  0  0  0  0
  189.4150  177.4360  141.2930 C   0  0  0  0  0  0  0  0  0  0  0  0
  186.9130  178.6580  141.4470 C   0  0  0  0  0  0  0  0  0  0  0  0
  190.7430  176.7730  143.6900 C   0  0  0  0  0  0  0  0  0  0  0  0
  189.5330  177.2630  146.1680 C   0  0  0  0  0  3  0  0  0  0  0  0
  191.6340  176.2480  147.5880 Cl  0  0  0  0  0  0  0  0  0  0  0  0
  189.4580  177.3660  143.7400 C   0  0  0  0  0  0  0  0  0  0  0  0
  191.4050  176.4350  144.8730 C   0  0  0  0  0  3  0  0  0  0  0  0
  188.8640  177.6060  144.9890 C   0  0  0  0  0  3  0  0  0  0  0  0
  187.5760  178.3000  142.5790 N   0  0  0  0  0  0  0  0  0  0  0  0
  188.8000  177.7050  142.5430 C   0  0  0  0  0  0  0  0  0  0  0  0
  190.6940  176.8600  141.2750 C   0  0  0  0  0  3  0  0  0  0  0  0
  188.7260  177.7810  140.1030 C   0  0  0  0  0  0  0  0  0  0  0  0
  187.4790  178.4030  140.2000 C   0  0  0  0  0  3  0  0  0  0  0  0
  191.3520  176.5310  142.4600 C   0  0  0  0  0  3  0  0  0  0  0  0
  185.5710  179.3120  141.5270 C   0  0  1  0  0  3  0  0  0  0  0  0
  184.6540  178.7870  140.4350 C   0  0  0  0  0  2  0  0  0  0  0  0
  184.9020  178.9970  142.8580 C   0  0  0  0  0  2  0  0  0  0  0  0
  183.6940  177.8430  141.1210 C   0  0  1  0  0  3  0  0  0  0  0  0
  183.5650  178.3620  142.5350 C   0  0  0  0  0  2  0  0  0  0  0  0
  182.3490  177.8590  140.4150 C   0  0  0  0  0  2  0  0  0  0  0  0
  182.3250  178.9120  139.4000 N   0  0  0  0  0  0  0  0  0  0  0  0
  181.4690  179.5230  137.2650 C   0  0  0  0  0  2  0  0  0  0  0  0
  181.1790  179.7750  139.6480 C   0  0  0  0  0  2  0  0  0  0  0  0
  182.1500  178.4030  138.0280 C   0  0  1  0  0  0  0  0  0  0  0  0
  183.5150  178.1350  137.4160 C   0  0  0  0  0  1  0  0  0  0  0  0
  180.7510  180.3480  138.3110 C   0  0  0  0  0  2  0  0  0  0  0  0
  181.2720  177.1350  137.9560 C   0  0  0  0  0  2  0  0  0  0  0  0
  182.0170  175.9870  137.4380 N   0  0  0  0  0  0  0  0  0  0  0  0
  180.6820  174.2670  138.6490 C   0  0  0  0  0  2  0  0  0  0  0  0
  180.0340  174.8440  136.4570 C   0  0  0  0  0  2  0  0  0  0  0  0
  180.2070  173.7290  137.3800 N   0  0  0  0  0  2  0  0  0  0  0  0
  181.3870  175.5160  136.1960 C   0  0  0  0  0  2  0  0  0  0  0  0
  182.0520  174.9240  138.4530 C   0  0  0  0  0  2  0  0  0  0  0  0
  189.2350  177.5370  138.7810 N   0  0  0  0  0  2  0  0  0  0  0  0
  188.4530  177.3630  137.5640 C   0  0  1  0  0  3  0  0  0  0  0  0
  189.1020  178.0970  136.4010 C   0  0  0  0  0  1  0  0  0  0  0  0
  188.2610  175.8780  137.2560 C   0  0  0  0  0  2  0  0  0  0  0  0
  186.8880  175.5620  136.6630 C   0  0  2  0  0  3  0  0  0  0  0  0
  186.3120  174.4820  137.3360 O   0  0  0  0  0  1  0  0  0  0  0  0
  187.3670  173.9520  134.8080 O   0  0  0  0  0  1  0  0  0  0  0  0
  186.7870  176.1220  134.3530 O   0  0  0  0  0  0  0  0  0  0  0  0
  187.0160  175.2350  135.2150 C   0  0  0  0  0  0  0  0  0  0  0  0
  1  5  1  0  0  0  0
  1  6  1  0  0  0  0
  2 11  1  0  0  0  0
  3 10  1  0  0  0  0
  4  7  2  0  0  0  0
  4  8  1  0  0  0  0
  7  9  1  0  0  0  0
  8  1  2  0  0  0  0
  9  5  2  0  0  0  0
 11 10  2  0  0  0  0
 11  7  1  0  0  0  0
 12  2  1  0  0  0  0
 12 15  2  0  0  0  0
 13 14  1  0  0  0  0
 13  2  2  0  0  0  0
 14  3  2  0  0  0  0
 15  4  1  0  0  0  0
 16  3  1  1  0  0  0
 16 18  1  0  0  0  0
 17 19  1  0  0  0  0
 17 16  1  0  0  0  0
 19 21  1  6  0  0  0
 19 20  1  0  0  0  0
 20 18  1  0  0  0  0
 22 24  1  0  0  0  0
 22 21  1  0  0  0  0
 23 25  1  0  0  0  0
 23 27  1  0  0  0  0
 25 26  1  6  0  0  0
 25 22  1  0  0  0  0
 27 24  1  0  0  0  0
 28 25  1  0  0  0  0
 29 28  1  0  0  0  0
 29 34  1  0  0  0  0
 31 32  1  0  0  0  0
 32 30  1  0  0  0  0
 33 31  1  0  0  0  0
 33 29  1  0  0  0  0
 34 30  1  0  0  0  0
 35 13  1  0  0  0  0
 36 37  1  6  0  0  0
 36 35  1  0  0  0  0
 38 36  1  0  0  0  0
 39 38  1  0  0  0  0
 39 40  1  1  0  0  0
 41 43  1  0  0  0  0
 42 43  2  0  0  0  0
 43 39  1  0  0  0  0
M  END
>  <MODEL>
8

>  <REMARK>
 VINA RESULT:      -7.9      3.769      8.157
  Name = 
  10 active torsions:
  status: ('A' for Active; 'I' for Inactive)
    1  A    between atoms: C_1  and  C_9
    2  A    between atoms: C_1  and  N_35
    3  A    between atoms: C_2  and  C_13
    4  A    between atoms: C_3  and  N_4
    5  A    between atoms: C_3  and  C_12
    6  A    between atoms: C_9  and  C_32
    7  A    between atoms: N_11  and  C_14
    8  A    between atoms: C_14  and  C_22
    9  A    between atoms: C_32  and  C_37
   10  A    between atoms: C_34  and  N_35
                            x       y       z     vdW  Elec       q    Type
                         _______ _______ _______ _____ _____    ______ ____

>  <TORSDO>
F 10

$$$$
=
 OpenBabel10272414203D

 43 48  0  0  1  0  0  0  0  0999 V2000
  187.6510  171.1970  135.7090 C   0  0  0  0  0  0  0  0  0  0  0  0
  185.1570  175.4610  136.8460 C   0  0  0  0  0  0  0  0  0  0  0  0
  187.1120  177.2050  137.8030 C   0  0  0  0  0  0  0  0  0  0  0  0
  185.9400  172.8840  136.0130 C   0  0  0  0  0  0  0  0  0  0  0  0
  188.6120  172.0740  136.2200 C   0  0  0  0  0  3  0  0  0  0  0  0
  188.1170  169.5900  135.1990 Cl  0  0  0  0  0  0  0  0  0  0  0  0
  186.9070  173.7780  136.5320 C   0  0  0  0  0  0  0  0  0  0  0  0
  186.3170  171.6020  135.6050 C   0  0  0  0  0  3  0  0  0  0  0  0
  188.2430  173.3580  136.6290 C   0  0  0  0  0  3  0  0  0  0  0  0
  187.4430  175.9450  137.4140 N   0  0  0  0  0  0  0  0  0  0  0  0
  186.5170  175.0680  136.9390 C   0  0  0  0  0  0  0  0  0  0  0  0
  184.2230  174.5590  136.3160 C   0  0  0  0  0  3  0  0  0  0  0  0
  184.7910  176.7630  137.2710 C   0  0  0  0  0  0  0  0  0  0  0  0
  185.7850  177.6270  137.7370 C   0  0  0  0  0  3  0  0  0  0  0  0
  184.6090  173.2830  135.9050 C   0  0  0  0  0  3  0  0  0  0  0  0
  188.1570  178.1420  138.3180 C   0  0  1  0  0  3  0  0  0  0  0  0
  187.9490  178.4150  139.7980 C   0  0  0  0  0  2  0  0  0  0  0  0
  189.5430  177.5280  138.1700 C   0  0  0  0  0  2  0  0  0  0  0  0
  189.0070  177.6130  140.5190 C   0  0  1  0  0  3  0  0  0  0  0  0
  190.1650  177.5190  139.5510 C   0  0  0  0  0  2  0  0  0  0  0  0
  189.4250  178.3230  141.7940 C   0  0  0  0  0  2  0  0  0  0  0  0
  190.5050  177.5870  142.4510 N   0  0  0  0  0  0  0  0  0  0  0  0
  191.2390  176.6560  144.5150 C   0  0  0  0  0  2  0  0  0  0  0  0
  190.2050  176.1640  142.3900 C   0  0  0  0  0  2  0  0  0  0  0  0
  190.6480  177.9020  143.8830 C   0  0  1  0  0  0  0  0  0  0  0  0
  191.6210  179.0580  144.0460 C   0  0  0  0  0  1  0  0  0  0  0  0
  190.8550  175.5150  143.5970 C   0  0  0  0  0  2  0  0  0  0  0  0
  189.3050  178.2300  144.5710 C   0  0  0  0  0  2  0  0  0  0  0  0
  188.6770  177.0330  145.1340 N   0  0  0  0  0  0  0  0  0  0  0  0
  187.4730  178.2270  146.9580 C   0  0  0  0  0  2  0  0  0  0  0  0
  186.3420  177.8720  144.9200 C   0  0  0  0  0  2  0  0  0  0  0  0
  186.1930  177.8530  146.3710 N   0  0  0  0  0  2  0  0  0  0  0  0
  187.3720  176.8190  144.4930 C   0  0  0  0  0  2  0  0  0  0  0  0
  188.5370  177.1880  146.5890 C   0  0  0  0  0  2  0  0  0  0  0  0
  183.4450  177.2670  137.2480 N   0  0  0  0  0  2  0  0  0  0  0  0
  182.4860  177.2460  138.3460 C   0  0  1  0  0  3  0  0  0  0  0  0
  182.7120  176.0290  139.2290 C   0  0  0  0  0  1  0  0  0  0  0  0
  182.5580  178.5450  139.1480 C   0  0  0  0  0  2  0  0  0  0  0  0
  183.1050  178.3470  140.5610 C   0  0  2  0  0  3  0  0  0  0  0  0
  182.1550  178.7450  141.5040 O   0  0  0  0  0  1  0  0  0  0  0  0
  184.8600  179.9100  139.7030 O   0  0  0  0  0  0  0  0  0  0  0  0
  184.9390  179.1320  141.8570 O   0  0  0  0  0  1  0  0  0  0  0  0
  184.3520  179.1410  140.7450 C   0  0  0  0  0  0  0  0  0  0  0  0
  1  5  1  0  0  0  0
  2 11  1  0  0  0  0
  2 13  1  0  0  0  0
  4  7  1  0  0  0  0
  5  9  2  0  0  0  0
  6  1  1  0  0  0  0
  7  9  1  0  0  0  0
  7 11  2  0  0  0  0
  8  1  2  0  0  0  0
  8  4  1  0  0  0  0
 10  3  2  0  0  0  0
 11 10  1  0  0  0  0
 12  2  2  0  0  0  0
 13 14  2  0  0  0  0
 14  3  1  0  0  0  0
 15  4  2  0  0  0  0
 15 12  1  0  0  0  0
 16  3  1  1  0  0  0
 16 17  1  0  0  0  0
 17 19  1  0  0  0  0
 18 16  1  0  0  0  0
 18 20  1  0  0  0  0
 19 21  1  1  0  0  0
 20 19  1  0  0  0  0
 21 22  1  0  0  0  0
 22 25  1  0  0  0  0
 24 22  1  0  0  0  0
 24 27  1  0  0  0  0
 25 26  1  1  0  0  0
 25 23  1  0  0  0  0
 25 28  1  0  0  0  0
 27 23  1  0  0  0  0
 28 29  1  0  0  0  0
 29 34  1  0  0  0  0
 31 32  1  0  0  0  0
 32 30  1  0  0  0  0
 33 31  1  0  0  0  0
 33 29  1  0  0  0  0
 34 30  1  0  0  0  0
 35 13  1  0  0  0  0
 35 36  1  0  0  0  0
 36 38  1  0  0  0  0
 36 37  1  1  0  0  0
 38 39  1  0  0  0  0
 39 43  1  0  0  0  0
 39 40  1  1  0  0  0
 41 43  2  0  0  0  0
 43 42  1  0  0  0  0
M  END
>  <MODEL>
9

>  <REMARK>
 VINA RESULT:      -7.8      4.068      8.201
  Name = 
  10 active torsions:
  status: ('A' for Active; 'I' for Inactive)
    1  A    between atoms: C_1  and  C_9
    2  A    between atoms: C_1  and  N_35
    3  A    between atoms: C_2  and  C_13
    4  A    between atoms: C_3  and  N_4
    5  A    between atoms: C_3  and  C_12
    6  A    between atoms: C_9  and  C_32
    7  A    between atoms: N_11  and  C_14
    8  A    between atoms: C_14  and  C_22
    9  A    between atoms: C_32  and  C_37
   10  A    between atoms: C_34  and  N_35
                            x       y       z     vdW  Elec       q    Type
                         _______ _______ _______ _____ _____    ______ ____

>  <TORSDO>
F 10

$$$$
