=
 OpenBabel10272414483D

 37 41  0  0  1  0  0  0  0  0999 V2000
  183.9820  178.0570  140.2890 C   0  0  1  0  0  0  0  0  0  0  0  0
  186.5520  178.2050  137.4260 C   0  0  1  0  0  0  0  0  0  0  0  0
  188.1020  178.7010  140.8890 C   0  0  2  0  0  3  0  0  0  0  0  0
  182.8710  179.0780  139.9440 C   0  0  1  0  0  3  0  0  0  0  0  0
  188.8330  177.7060  138.3070 C   0  0  0  0  0  3  0  0  0  0  0  0
  187.3990  177.9110  141.9720 C   0  0  0  0  0  0  0  0  0  0  0  0
  182.0270  179.3730  142.3210 C   0  0  0  0  0  0  0  0  0  0  0  0
  187.3190  178.8490  139.7100 O   0  0  0  0  0  0  0  0  0  0  0  0
  188.1380  177.4940  143.0340 C   0  0  0  0  0  0  0  0  0  0  0  0
  191.0960  177.1050  139.1810 N   0  0  0  0  0  1  0  0  0  0  0  0
  181.8460  179.2870  140.9300 O   0  0  0  0  0  0  0  0  0  0  0  0
  184.6480  177.5030  139.0110 C   0  0  0  0  0  2  0  0  0  0  0  0
  186.4800  176.8460  136.7400 C   0  0  0  0  0  1  0  0  0  0  0  0
  190.2700  177.8560  141.8310 C   0  0  0  0  0  3  0  0  0  0  0  0
  189.8210  177.7010  139.4050 C   0  0  0  0  0  0  0  0  0  0  0  0
  185.1800  178.5590  138.0280 C   0  0  0  0  0  2  0  0  0  0  0  0
  183.2590  178.8920  143.0230 C   0  0  0  0  0  2  0  0  0  0  0  0
  185.9490  177.5130  141.8120 C   0  0  0  0  0  2  0  0  0  0  0  0
  189.4660  178.1230  140.6280 C   0  0  0  0  0  0  0  0  0  0  0  0
  185.0530  178.6240  141.2570 C   0  0  2  0  0  3  0  0  0  0  0  0
  187.6140  178.2240  138.4970 C   0  0  0  0  0  0  0  0  0  0  0  0
  186.8680  179.1670  136.4670 O   0  0  0  0  0  1  0  0  0  0  0  0
  184.5140  179.4800  142.4050 C   0  0  0  0  0  2  0  0  0  0  0  0
  181.0780  179.8090  143.0230 O   0  0  0  0  0  0  0  0  0  0  0  0
  183.3650  176.9720  140.8930 F   0  0  0  0  0  0  0  0  0  0  0  0
  189.6280  177.5900  142.9770 C   0  0  0  0  0  3  0  0  0  0  0  0
  187.3520  175.5570  144.1620 O   0  0  0  0  0  0  0  0  0  0  0  0
  187.5360  176.8050  144.2050 C   0  0  0  0  0  0  0  0  0  0  0  0
  185.9560  178.2470  145.5250 C   0  0  0  0  0  3  0  0  0  0  0  0
  187.1680  177.5420  145.4360 C   0  0  0  0  0  0  0  0  0  0  0  0
  188.0220  177.5160  146.5480 C   0  0  0  0  0  3  0  0  0  0  0  0
  188.5940  178.1600  148.8930 C   0  0  0  0  0  1  0  0  0  0  0  0
  186.4740  178.8960  147.7970 C   0  0  0  0  0  3  0  0  0  0  0  0
  187.6790  178.1920  147.7220 C   0  0  0  0  0  0  0  0  0  0  0  0
  185.6130  178.9230  146.6980 C   0  0  0  0  0  3  0  0  0  0  0  0
  182.1900  180.7840  138.5600 C   0  0  0  0  0  1  0  0  0  0  0  0
  183.2790  180.2470  139.2590 O   0  0  0  0  0  0  0  0  0  0  0  0
  1 25  1  1  0  0  0
  1 20  1  0  0  0  0
  2 13  1  6  0  0  0
  2 16  1  0  0  0  0
  2 21  1  0  0  0  0
  3  8  1  6  0  0  0
  3  6  1  0  0  0  0
  4 37  1  1  0  0  0
  4  1  1  0  0  0  0
  4 11  1  0  0  0  0
  5 21  2  0  0  0  0
  5 15  1  0  0  0  0
  6  9  2  0  0  0  0
  7 24  2  0  0  0  0
  7 17  1  0  0  0  0
  9 28  1  0  0  0  0
 10 15  1  0  0  0  0
 11  7  1  0  0  0  0
 12  1  1  0  0  0  0
 14 26  2  0  0  0  0
 15 19  2  0  0  0  0
 16 12  1  0  0  0  0
 18  6  1  0  0  0  0
 19  3  1  0  0  0  0
 19 14  1  0  0  0  0
 20 18  1  1  0  0  0
 20 23  1  0  0  0  0
 21  8  1  0  0  0  0
 22  2  1  0  0  0  0
 23 17  1  0  0  0  0
 26  9  1  0  0  0  0
 27 28  2  0  0  0  0
 28 30  1  0  0  0  0
 29 35  1  0  0  0  0
 30 29  2  0  0  0  0
 30 31  1  0  0  0  0
 31 34  2  0  0  0  0
 34 33  1  0  0  0  0
 34 32  1  0  0  0  0
 35 33  2  0  0  0  0
 36 37  1  0  0  0  0
M  END
>  <MODEL>
1

>  <REMARK>
 VINA RESULT:      -8.1      0.000      0.000
  Name = 
  3 active torsions:
  status: ('A' for Active; 'I' for Inactive)
    1  A    between atoms: C_5  and  O_23
    2  A    between atoms: C_6  and  C_31
    3  A    between atoms: C_14  and  C_31
                            x       y       z     vdW  Elec       q    Type
                         _______ _______ _______ _____ _____    ______ ____

>  <TORSDO>
F 3

$$$$
=
 OpenBabel10272414483D

 37 41  0  0  1  0  0  0  0  0999 V2000
  183.0300  177.1170  137.8980 C   0  0  1  0  0  0  0  0  0  0  0  0
  185.8890  175.3530  136.0160 C   0  0  1  0  0  0  0  0  0  0  0  0
  187.1000  178.0830  138.4080 C   0  0  2  0  0  3  0  0  0  0  0  0
  182.0320  177.6170  136.8260 C   0  0  1  0  0  3  0  0  0  0  0  0
  188.0270  175.6250  137.2740 C   0  0  0  0  0  3  0  0  0  0  0  0
  186.2360  178.2130  139.6440 C   0  0  0  0  0  0  0  0  0  0  0  0
  180.9670  179.4170  138.2660 C   0  0  0  0  0  0  0  0  0  0  0  0
  186.4550  177.3830  137.3500 O   0  0  0  0  0  0  0  0  0  0  0  0
  186.8310  178.6350  140.7920 C   0  0  0  0  0  0  0  0  0  0  0  0
  190.1420  175.8160  138.5910 N   0  0  0  0  0  1  0  0  0  0  0  0
  180.9270  178.4140  137.2840 O   0  0  0  0  0  0  0  0  0  0  0  0
  183.7880  175.8620  137.4150 C   0  0  0  0  0  2  0  0  0  0  0  0
  185.7980  173.8850  136.4150 C   0  0  0  0  0  1  0  0  0  0  0  0
  189.0970  178.1370  139.9280 C   0  0  0  0  0  3  0  0  0  0  0  0
  188.8930  176.3800  138.2010 C   0  0  0  0  0  0  0  0  0  0  0  0
  184.4880  175.9920  136.0530 C   0  0  0  0  0  2  0  0  0  0  0  0
  182.0850  179.5600  139.2530 C   0  0  0  0  0  2  0  0  0  0  0  0
  184.7880  177.7810  139.6180 C   0  0  0  0  0  2  0  0  0  0  0  0
  188.4410  177.5090  138.7700 C   0  0  0  0  0  0  0  0  0  0  0  0
  184.0310  178.2100  138.3580 C   0  0  2  0  0  3  0  0  0  0  0  0
  186.8320  176.1110  136.9160 C   0  0  0  0  0  0  0  0  0  0  0  0
  186.3660  175.4260  134.7070 O   0  0  0  0  0  1  0  0  0  0  0  0
  183.4330  179.6050  138.5590 C   0  0  0  0  0  2  0  0  0  0  0  0
  179.9820  180.1930  138.3730 O   0  0  0  0  0  0  0  0  0  0  0  0
  182.2830  176.7090  138.9930 F   0  0  0  0  0  0  0  0  0  0  0  0
  188.3230  178.6990  140.8670 C   0  0  0  0  0  3  0  0  0  0  0  0
  185.0190  179.6020  141.9840 O   0  0  0  0  0  0  0  0  0  0  0  0
  186.0670  178.9010  142.0380 C   0  0  0  0  0  0  0  0  0  0  0  0
  187.6340  177.5360  143.4520 C   0  0  0  0  0  3  0  0  0  0  0  0
  186.4890  178.3430  143.3430 C   0  0  0  0  0  0  0  0  0  0  0  0
  185.7580  178.6440  144.5020 C   0  0  0  0  0  3  0  0  0  0  0  0
  185.3710  178.4640  146.9630 C   0  0  0  0  0  1  0  0  0  0  0  0
  187.2920  177.3320  145.8380 C   0  0  0  0  0  3  0  0  0  0  0  0
  186.1550  178.1390  145.7430 C   0  0  0  0  0  0  0  0  0  0  0  0
  188.0310  177.0310  144.6920 C   0  0  0  0  0  3  0  0  0  0  0  0
  181.5560  178.2740  134.6740 C   0  0  0  0  0  1  0  0  0  0  0  0
  182.5860  178.0290  135.5910 O   0  0  0  0  0  0  0  0  0  0  0  0
  1 20  1  0  0  0  0
  1 25  1  1  0  0  0
  2 16  1  0  0  0  0
  2 13  1  1  0  0  0
  2 21  1  0  0  0  0
  3  8  1  6  0  0  0
  3 19  1  0  0  0  0
  3  6  1  0  0  0  0
  4 37  1  6  0  0  0
  4 11  1  0  0  0  0
  4  1  1  0  0  0  0
  5 15  1  0  0  0  0
  6  9  2  0  0  0  0
  7 24  2  0  0  0  0
  7 17  1  0  0  0  0
  9 26  1  0  0  0  0
  9 28  1  0  0  0  0
 11  7  1  0  0  0  0
 12  1  1  0  0  0  0
 14 26  2  0  0  0  0
 15 10  1  0  0  0  0
 15 19  2  0  0  0  0
 16 12  1  0  0  0  0
 18  6  1  0  0  0  0
 19 14  1  0  0  0  0
 20 23  1  1  0  0  0
 20 18  1  0  0  0  0
 21  5  2  0  0  0  0
 21  8  1  0  0  0  0
 22  2  1  0  0  0  0
 23 17  1  0  0  0  0
 27 28  2  0  0  0  0
 28 30  1  0  0  0  0
 29 35  1  0  0  0  0
 30 29  2  0  0  0  0
 30 31  1  0  0  0  0
 31 34  2  0  0  0  0
 34 33  1  0  0  0  0
 34 32  1  0  0  0  0
 35 33  2  0  0  0  0
 36 37  1  0  0  0  0
M  END
>  <MODEL>
2

>  <REMARK>
 VINA RESULT:      -7.2      2.163      3.264
  Name = 
  3 active torsions:
  status: ('A' for Active; 'I' for Inactive)
    1  A    between atoms: C_5  and  O_23
    2  A    between atoms: C_6  and  C_31
    3  A    between atoms: C_14  and  C_31
                            x       y       z     vdW  Elec       q    Type
                         _______ _______ _______ _____ _____    ______ ____

>  <TORSDO>
F 3

$$$$
=
 OpenBabel10272414483D

 37 41  0  0  1  0  0  0  0  0999 V2000
  189.3190  178.1040  138.7720 C   0  0  1  0  0  0  0  0  0  0  0  0
  188.7160  176.2910  135.4290 C   0  0  1  0  0  0  0  0  0  0  0  0
  185.6340  176.3650  137.6970 C   0  0  0  0  0  0  0  0  0  0  0  0
  190.5610  177.4450  139.4180 C   0  0  1  0  0  3  0  0  0  0  0  0
  186.2750  176.2600  134.9090 C   0  0  0  0  0  3  0  0  0  0  0  0
  185.5450  177.6230  138.5340 C   0  0  0  0  0  0  0  0  0  0  0  0
  190.0360  178.1550  141.7990 C   0  0  0  0  0  0  0  0  0  0  0  0
  186.9370  176.1380  137.1710 O   0  0  0  0  0  0  0  0  0  0  0  0
  184.3080  178.0720  138.8740 C   0  0  0  0  0  0  0  0  0  0  0  0
  183.8410  176.3240  134.3490 N   0  0  0  0  0  1  0  0  0  0  0  0
  190.9180  177.8810  140.7420 O   0  0  0  0  0  0  0  0  0  0  0  0
  189.3730  178.0080  137.2320 C   0  0  0  0  0  2  0  0  0  0  0  0
  188.9700  177.3340  134.3460 C   0  0  0  0  0  1  0  0  0  0  0  0
  183.2120  176.6990  137.1290 C   0  0  0  0  0  2  0  0  0  0  0  0
  184.8630  176.2680  135.3400 C   0  0  0  0  0  0  0  0  0  0  0  0
  189.5870  176.5970  136.6610 C   0  0  0  0  0  2  0  0  0  0  0  0
  188.5700  178.3950  141.6100 C   0  0  0  0  0  2  0  0  0  0  0  0
  186.7920  178.4040  138.8810 C   0  0  0  0  0  2  0  0  0  0  0  0
  184.5600  176.3650  136.6450 C   0  0  0  0  0  0  0  0  0  0  0  0
  187.9780  177.5330  139.3040 C   0  0  2  0  0  3  0  0  0  0  0  0
  187.2590  176.2460  135.8170 C   0  0  0  0  0  0  0  0  0  0  0  0
  189.0850  175.0410  134.9330 O   0  0  0  0  0  1  0  0  0  0  0  0
  187.9250  177.2780  140.8120 C   0  0  0  0  0  2  0  0  0  0  0  0
  190.5090  178.2790  142.9590 O   0  0  0  0  0  0  0  0  0  0  0  0
  189.3740  179.4570  139.0680 F   0  0  0  0  0  0  0  0  0  0  0  0
  183.1030  177.4850  138.2100 C   0  0  0  0  0  3  0  0  0  0  0  0
  184.1240  180.4010  139.3030 O   0  0  0  0  0  0  0  0  0  0  0  0
  184.0990  179.2320  139.7780 C   0  0  0  0  0  0  0  0  0  0  0  0
  182.5260  179.0680  141.7320 C   0  0  0  0  0  3  0  0  0  0  0  0
  183.8350  179.0530  141.2250 C   0  0  0  0  0  0  0  0  0  0  0  0
  184.9030  178.8300  142.1070 C   0  0  0  0  0  3  0  0  0  0  0  0
  185.8080  178.4100  144.3970 C   0  0  0  0  0  1  0  0  0  0  0  0
  183.3610  178.6660  143.9660 C   0  0  0  0  0  3  0  0  0  0  0  0
  184.6680  178.6410  143.4720 C   0  0  0  0  0  0  0  0  0  0  0  0
  182.2910  178.8790  143.0960 C   0  0  0  0  0  3  0  0  0  0  0  0
  192.0110  175.8280  138.6610 C   0  0  0  0  0  1  0  0  0  0  0  0
  190.7330  176.0590  139.1870 O   0  0  0  0  0  0  0  0  0  0  0  0
  1 25  1  1  0  0  0
  1 20  1  0  0  0  0
  1  4  1  0  0  0  0
  2 13  1  6  0  0  0
  2 21  1  0  0  0  0
  2 16  1  0  0  0  0
  3  6  2  0  0  0  0
  4 37  1  1  0  0  0
  4 11  1  0  0  0  0
  5 15  1  0  0  0  0
  5 21  2  0  0  0  0
  6  9  1  0  0  0  0
  6 18  1  0  0  0  0
  7 24  2  0  0  0  0
  8  3  1  0  0  0  0
  9 28  1  0  0  0  0
 10 15  1  0  0  0  0
 11  7  1  0  0  0  0
 12  1  1  0  0  0  0
 14 26  1  0  0  0  0
 15 19  2  0  0  0  0
 16 12  1  0  0  0  0
 17  7  1  0  0  0  0
 19 14  1  0  0  0  0
 19  3  1  0  0  0  0
 20 18  1  1  0  0  0
 20 23  1  0  0  0  0
 21  8  1  0  0  0  0
 22  2  1  0  0  0  0
 23 17  1  0  0  0  0
 26  9  2  0  0  0  0
 27 28  2  0  0  0  0
 28 30  1  0  0  0  0
 29 35  1  0  0  0  0
 30 29  2  0  0  0  0
 30 31  1  0  0  0  0
 31 34  2  0  0  0  0
 34 33  1  0  0  0  0
 34 32  1  0  0  0  0
 35 33  2  0  0  0  0
 36 37  1  0  0  0  0
M  END
>  <MODEL>
3

>  <REMARK>
 VINA RESULT:      -7.1      2.904      6.262
  Name = 
  3 active torsions:
  status: ('A' for Active; 'I' for Inactive)
    1  A    between atoms: C_5  and  O_23
    2  A    between atoms: C_6  and  C_31
    3  A    between atoms: C_14  and  C_31
                            x       y       z     vdW  Elec       q    Type
                         _______ _______ _______ _____ _____    ______ ____

>  <TORSDO>
F 3

$$$$
=
 OpenBabel10272414483D

 37 41  0  0  1  0  0  0  0  0999 V2000
  184.1640  179.4630  143.2800 C   0  0  1  0  0  0  0  0  0  0  0  0
  185.8210  178.4960  146.6180 C   0  0  1  0  0  0  0  0  0  0  0  0
  187.4020  176.7840  143.5840 C   0  0  0  0  0  0  0  0  0  0  0  0
  182.6490  179.1900  143.4380 C   0  0  1  0  0  3  0  0  0  0  0  0
  188.1370  177.6630  146.2060 C   0  0  0  0  0  3  0  0  0  0  0  0
  187.3800  177.6450  142.3390 C   0  0  0  0  0  0  0  0  0  0  0  0
  182.1480  178.9970  140.9560 C   0  0  0  0  0  0  0  0  0  0  0  0
  186.4850  177.2220  144.5800 O   0  0  0  0  0  0  0  0  0  0  0  0
  188.3800  177.4770  141.4340 C   0  0  0  0  0  0  0  0  0  0  0  0
  190.4880  176.9270  145.7930 N   0  0  0  0  0  1  0  0  0  0  0  0
  181.8270  179.3690  142.2720 O   0  0  0  0  0  0  0  0  0  0  0  0
  184.8170  179.8000  144.6380 C   0  0  0  0  0  2  0  0  0  0  0  0
  186.3540  179.7990  147.2030 C   0  0  0  0  0  1  0  0  0  0  0  0
  189.8100  176.2940  143.0720 C   0  0  0  0  0  2  0  0  0  0  0  0
  189.1410  177.0140  145.3400 C   0  0  0  0  0  0  0  0  0  0  0  0
  184.5730  178.7810  145.7630 C   0  0  0  0  0  2  0  0  0  0  0  0
  183.5420  178.6940  140.5010 C   0  0  0  0  0  2  0  0  0  0  0  0
  186.3370  178.7270  142.1730 C   0  0  0  0  0  2  0  0  0  0  0  0
  188.8100  176.6440  144.0930 C   0  0  0  0  0  0  0  0  0  0  0  0
  184.9250  178.3020  142.5860 C   0  0  2  0  0  3  0  0  0  0  0  0
  186.8700  177.7940  145.7940 C   0  0  0  0  0  0  0  0  0  0  0  0
  185.4460  177.6610  147.6700 O   0  0  0  0  0  1  0  0  0  0  0  0
  184.2050  177.6630  141.3970 C   0  0  0  0  0  2  0  0  0  0  0  0
  181.2300  178.9870  140.0950 O   0  0  0  0  0  0  0  0  0  0  0  0
  184.2940  180.6060  142.5050 F   0  0  0  0  0  0  0  0  0  0  0  0
  189.5800  176.6660  141.8050 C   0  0  0  0  0  3  0  0  0  0  0  0
  188.9820  179.3070  140.0450 O   0  0  0  0  0  0  0  0  0  0  0  0
  188.4060  178.1880  140.1300 C   0  0  0  0  0  0  0  0  0  0  0  0
  186.5380  178.0380  138.4550 C   0  0  0  0  0  3  0  0  0  0  0  0
  187.7920  177.6050  138.9140 C   0  0  0  0  0  0  0  0  0  0  0  0
  188.4800  176.6240  138.1850 C   0  0  0  0  0  3  0  0  0  0  0  0
  188.6600  175.0370  136.2650 C   0  0  0  0  0  1  0  0  0  0  0  0
  186.6700  176.5120  136.5820 C   0  0  0  0  0  3  0  0  0  0  0  0
  187.9210  176.0770  137.0270 C   0  0  0  0  0  0  0  0  0  0  0  0
  185.9780  177.4920  137.2970 C   0  0  0  0  0  3  0  0  0  0  0  0
  180.8930  178.0380  144.3750 C   0  0  0  0  0  1  0  0  0  0  0  0
  182.2870  178.0900  144.2520 O   0  0  0  0  0  0  0  0  0  0  0  0
  1 25  1  6  0  0  0
  1  4  1  0  0  0  0
  1 12  1  0  0  0  0
  2 13  1  1  0  0  0
  2 22  1  0  0  0  0
  3 19  1  0  0  0  0
  3  8  1  0  0  0  0
  4 37  1  6  0  0  0
  6  3  2  0  0  0  0
  7 11  1  0  0  0  0
  8 21  1  0  0  0  0
  9 26  2  0  0  0  0
  9  6  1  0  0  0  0
 11  4  1  0  0  0  0
 12 16  1  0  0  0  0
 14 19  1  0  0  0  0
 15 10  1  0  0  0  0
 15  5  1  0  0  0  0
 16  2  1  0  0  0  0
 17  7  1  0  0  0  0
 17 23  1  0  0  0  0
 18  6  1  0  0  0  0
 18 20  1  0  0  0  0
 19 15  2  0  0  0  0
 20 23  1  6  0  0  0
 20  1  1  0  0  0  0
 21  5  2  0  0  0  0
 21  2  1  0  0  0  0
 24  7  2  0  0  0  0
 26 14  1  0  0  0  0
 27 28  2  0  0  0  0
 28  9  1  0  0  0  0
 29 30  1  0  0  0  0
 30 28  1  0  0  0  0
 31 30  2  0  0  0  0
 32 34  1  0  0  0  0
 33 34  2  0  0  0  0
 33 35  1  0  0  0  0
 34 31  1  0  0  0  0
 35 29  2  0  0  0  0
 37 36  1  0  0  0  0
M  END
>  <MODEL>
4

>  <REMARK>
 VINA RESULT:      -7.1      1.991      6.490
  Name = 
  3 active torsions:
  status: ('A' for Active; 'I' for Inactive)
    1  A    between atoms: C_5  and  O_23
    2  A    between atoms: C_6  and  C_31
    3  A    between atoms: C_14  and  C_31
                            x       y       z     vdW  Elec       q    Type
                         _______ _______ _______ _____ _____    ______ ____

>  <TORSDO>
F 3

$$$$
=
 OpenBabel10272414483D

 37 41  0  0  1  0  0  0  0  0999 V2000
  189.0340  177.0630  142.4330 C   0  0  1  0  0  0  0  0  0  0  0  0
  186.3250  178.1860  144.9280 C   0  0  1  0  0  0  0  0  0  0  0  0
  185.5950  179.2280  141.3190 C   0  0  0  0  0  0  0  0  0  0  0  0
  190.3860  177.5840  142.9780 C   0  0  1  0  0  3  0  0  0  0  0  0
  184.1780  178.5920  143.7230 C   0  0  0  0  0  3  0  0  0  0  0  0
  186.0970  178.2270  140.3000 C   0  0  0  0  0  0  0  0  0  0  0  0
  191.6130  177.5300  140.7550 C   0  0  0  0  0  0  0  0  0  0  0  0
  186.1970  179.0690  142.5990 O   0  0  0  0  0  0  0  0  0  0  0  0
  185.4170  178.1200  139.1280 C   0  0  0  0  0  0  0  0  0  0  0  0
  182.0080  178.8970  142.5230 N   0  0  0  0  0  1  0  0  0  0  0  0
  191.5450  177.3850  142.1500 O   0  0  0  0  0  0  0  0  0  0  0  0
  188.0310  176.8080  143.5780 C   0  0  0  0  0  2  0  0  0  0  0  0
  185.7790  176.9030  145.5450 C   0  0  0  0  0  1  0  0  0  0  0  0
  183.4290  179.2710  140.0510 C   0  0  0  0  0  2  0  0  0  0  0  0
  183.4310  178.9610  142.5040 C   0  0  0  0  0  0  0  0  0  0  0  0
  187.8010  177.9890  144.5350 C   0  0  0  0  0  2  0  0  0  0  0  0
  190.4050  177.5530  139.8680 C   0  0  0  0  0  2  0  0  0  0  0  0
  187.2490  177.3060  140.6320 C   0  0  0  0  0  2  0  0  0  0  0  0
  184.0920  179.2140  141.3630 C   0  0  0  0  0  0  0  0  0  0  0  0
  188.4080  177.9930  141.3610 C   0  0  2  0  0  3  0  0  0  0  0  0
  185.5170  178.6060  143.7260 C   0  0  0  0  0  0  0  0  0  0  0  0
  186.2610  179.1980  145.8850 O   0  0  0  0  0  1  0  0  0  0  0  0
  189.3900  178.5760  140.3430 C   0  0  0  0  0  2  0  0  0  0  0  0
  192.7460  177.5700  140.2100 O   0  0  0  0  0  0  0  0  0  0  0  0
  189.2760  175.8230  141.8600 F   0  0  0  0  0  0  0  0  0  0  0  0
  184.0820  178.7780  138.9890 C   0  0  0  0  0  3  0  0  0  0  0  0
  185.0910  176.3830  137.5410 O   0  0  0  0  0  0  0  0  0  0  0  0
  185.8760  177.2510  138.0140 C   0  0  0  0  0  0  0  0  0  0  0  0
  187.7550  178.6560  137.1120 C   0  0  0  0  0  3  0  0  0  0  0  0
  187.2280  177.3920  137.4240 C   0  0  0  0  0  0  0  0  0  0  0  0
  188.0150  176.2530  137.1990 C   0  0  0  0  0  3  0  0  0  0  0  0
  190.1220  175.1590  136.4230 C   0  0  0  0  0  1  0  0  0  0  0  0
  189.8100  177.6360  136.3470 C   0  0  0  0  0  3  0  0  0  0  0  0
  189.2990  176.3730  136.6600 C   0  0  0  0  0  0  0  0  0  0  0  0
  189.0380  178.7770  136.5730 C   0  0  0  0  0  3  0  0  0  0  0  0
  191.6400  179.1330  144.1250 C   0  0  0  0  0  1  0  0  0  0  0  0
  190.3560  178.8220  143.6620 O   0  0  0  0  0  0  0  0  0  0  0  0
  1 25  1  6  0  0  0
  1  4  1  0  0  0  0
  1 12  1  0  0  0  0
  2 13  1  1  0  0  0
  2 22  1  0  0  0  0
  3 19  1  0  0  0  0
  3  8  1  0  0  0  0
  4 37  1  6  0  0  0
  5 21  2  0  0  0  0
  6 18  1  0  0  0  0
  6  3  2  0  0  0  0
  7 11  1  0  0  0  0
  8 21  1  0  0  0  0
  9  6  1  0  0  0  0
 11  4  1  0  0  0  0
 12 16  1  0  0  0  0
 14 19  1  0  0  0  0
 15 10  1  0  0  0  0
 15  5  1  0  0  0  0
 16  2  1  0  0  0  0
 17 23  1  0  0  0  0
 17  7  1  0  0  0  0
 18 20  1  0  0  0  0
 19 15  2  0  0  0  0
 20 23  1  6  0  0  0
 20  1  1  0  0  0  0
 21  2  1  0  0  0  0
 24  7  2  0  0  0  0
 26  9  2  0  0  0  0
 26 14  1  0  0  0  0
 27 28  2  0  0  0  0
 28  9  1  0  0  0  0
 29 30  1  0  0  0  0
 30 28  1  0  0  0  0
 31 30  2  0  0  0  0
 32 34  1  0  0  0  0
 33 35  1  0  0  0  0
 33 34  2  0  0  0  0
 34 31  1  0  0  0  0
 35 29  2  0  0  0  0
 37 36  1  0  0  0  0
M  END
>  <MODEL>
5

>  <REMARK>
 VINA RESULT:      -6.8      2.952      8.000
  Name = 
  3 active torsions:
  status: ('A' for Active; 'I' for Inactive)
    1  A    between atoms: C_5  and  O_23
    2  A    between atoms: C_6  and  C_31
    3  A    between atoms: C_14  and  C_31
                            x       y       z     vdW  Elec       q    Type
                         _______ _______ _______ _____ _____    ______ ____

>  <TORSDO>
F 3

$$$$
=
 OpenBabel10272414483D

 37 41  0  0  1  0  0  0  0  0999 V2000
  189.3410  177.0200  142.0510 C   0  0  1  0  0  0  0  0  0  0  0  0
  186.5310  178.0520  144.4730 C   0  0  1  0  0  0  0  0  0  0  0  0
  185.9120  179.1630  140.8640 C   0  0  0  0  0  0  0  0  0  0  0  0
  190.6650  177.5480  142.6540 C   0  0  1  0  0  3  0  0  0  0  0  0
  184.4210  178.4550  143.2020 C   0  0  0  0  0  3  0  0  0  0  0  0
  186.4640  178.1920  139.8420 C   0  0  0  0  0  0  0  0  0  0  0  0
  191.9690  177.5590  140.4750 C   0  0  0  0  0  0  0  0  0  0  0  0
  186.4720  178.9840  142.1610 O   0  0  0  0  0  0  0  0  0  0  0  0
  185.8260  178.1020  138.6440 C   0  0  0  0  0  0  0  0  0  0  0  0
  182.2910  178.7580  141.9330 N   0  0  0  0  0  1  0  0  0  0  0  0
  191.8550  177.3820  141.8630 O   0  0  0  0  0  0  0  0  0  0  0  0
  188.3020  176.7270  143.1540 C   0  0  0  0  0  2  0  0  0  0  0  0
  185.9820  176.7480  145.0420 C   0  0  0  0  0  1  0  0  0  0  0  0
  183.7910  179.2050  139.5220 C   0  0  0  0  0  2  0  0  0  0  0  0
  183.7120  178.8420  141.9660 C   0  0  0  0  0  0  0  0  0  0  0  0
  188.0220  177.8830  144.1280 C   0  0  0  0  0  2  0  0  0  0  0  0
  190.7940  177.5860  139.5470 C   0  0  0  0  0  2  0  0  0  0  0  0
  187.6160  177.2800  140.1940 C   0  0  0  0  0  2  0  0  0  0  0  0
  184.4090  179.1280  140.8550 C   0  0  0  0  0  0  0  0  0  0  0  0
  188.7390  177.9660  140.9780 C   0  0  2  0  0  3  0  0  0  0  0  0
  185.7590  178.4870  143.2530 C   0  0  0  0  0  0  0  0  0  0  0  0
  186.4190  179.0410  145.4490 O   0  0  0  0  0  1  0  0  0  0  0  0
  189.7480  178.5840  140.0080 C   0  0  0  0  0  2  0  0  0  0  0  0
  193.1210  177.6260  139.9710 O   0  0  0  0  0  0  0  0  0  0  0  0
  189.6200  175.7970  141.4600 F   0  0  0  0  0  0  0  0  0  0  0  0
  184.4870  178.7450  138.4730 C   0  0  0  0  0  3  0  0  0  0  0  0
  187.1340  177.7680  136.6910 O   0  0  0  0  0  0  0  0  0  0  0  0
  186.3360  177.2640  137.5280 C   0  0  0  0  0  0  0  0  0  0  0  0
  184.6010  175.4550  137.3460 C   0  0  0  0  0  3  0  0  0  0  0  0
  185.9510  175.8410  137.3860 C   0  0  0  0  0  0  0  0  0  0  0  0
  186.9430  174.8580  137.2570 C   0  0  0  0  0  3  0  0  0  0  0  0
  187.6550  172.4810  136.9710 C   0  0  0  0  0  1  0  0  0  0  0  0
  185.2480  173.1400  137.0720 C   0  0  0  0  0  3  0  0  0  0  0  0
  186.5940  173.5130  137.1040 C   0  0  0  0  0  0  0  0  0  0  0  0
  184.2520  174.1110  137.1930 C   0  0  0  0  0  3  0  0  0  0  0  0
  191.7710  178.9530  144.1000 C   0  0  0  0  0  1  0  0  0  0  0  0
  190.5940  178.7700  143.3630 O   0  0  0  0  0  0  0  0  0  0  0  0
  1 25  1  6  0  0  0
  1  4  1  0  0  0  0
  1 12  1  0  0  0  0
  2 13  1  1  0  0  0
  2 22  1  0  0  0  0
  3  8  1  0  0  0  0
  4 37  1  6  0  0  0
  5 21  2  0  0  0  0
  6 18  1  0  0  0  0
  6  3  2  0  0  0  0
  7 11  1  0  0  0  0
  8 21  1  0  0  0  0
  9  6  1  0  0  0  0
 10 15  1  0  0  0  0
 11  4  1  0  0  0  0
 12 16  1  0  0  0  0
 14 19  1  0  0  0  0
 15  5  1  0  0  0  0
 16  2  1  0  0  0  0
 17 23  1  0  0  0  0
 17  7  1  0  0  0  0
 18 20  1  0  0  0  0
 19  3  1  0  0  0  0
 19 15  2  0  0  0  0
 20 23  1  6  0  0  0
 20  1  1  0  0  0  0
 21  2  1  0  0  0  0
 24  7  2  0  0  0  0
 26  9  2  0  0  0  0
 26 14  1  0  0  0  0
 27 28  2  0  0  0  0
 28  9  1  0  0  0  0
 29 30  1  0  0  0  0
 30 28  1  0  0  0  0
 31 30  2  0  0  0  0
 32 34  1  0  0  0  0
 33 34  2  0  0  0  0
 33 35  1  0  0  0  0
 34 31  1  0  0  0  0
 35 29  2  0  0  0  0
 37 36  1  0  0  0  0
M  END
>  <MODEL>
6

>  <REMARK>
 VINA RESULT:      -6.2      3.067      8.062
  Name = 
  3 active torsions:
  status: ('A' for Active; 'I' for Inactive)
    1  A    between atoms: C_5  and  O_23
    2  A    between atoms: C_6  and  C_31
    3  A    between atoms: C_14  and  C_31
                            x       y       z     vdW  Elec       q    Type
                         _______ _______ _______ _____ _____    ______ ____

>  <TORSDO>
F 3

$$$$
=
 OpenBabel10272414483D

 37 41  0  0  1  0  0  0  0  0999 V2000
  183.6390  176.6880  138.2980 C   0  0  1  0  0  0  0  0  0  0  0  0
  184.4480  173.5640  136.1980 C   0  0  1  0  0  0  0  0  0  0  0  0
  187.3070  176.1050  136.3080 C   0  0  2  0  0  3  0  0  0  0  0  0
  182.3090  177.2600  137.7520 C   0  0  1  0  0  3  0  0  0  0  0  0
  186.9200  173.2840  136.0110 C   0  0  0  0  0  3  0  0  0  0  0  0
  187.3870  176.8500  137.6230 C   0  0  0  0  0  0  0  0  0  0  0  0
  182.6510  179.6210  138.6250 C   0  0  0  0  0  0  0  0  0  0  0  0
  186.0470  175.4750  136.1010 O   0  0  0  0  0  0  0  0  0  0  0  0
  188.6110  177.2720  138.0390 C   0  0  0  0  0  0  0  0  0  0  0  0
  189.3950  172.9570  135.9150 N   0  0  0  0  0  1  0  0  0  0  0  0
  181.8560  178.5070  138.3080 O   0  0  0  0  0  0  0  0  0  0  0  0
  183.7210  175.1620  138.0820 C   0  0  0  0  0  2  0  0  0  0  0  0
  184.3510  172.3860  137.1610 C   0  0  0  0  0  1  0  0  0  0  0  0
  189.7860  175.7480  136.4810 C   0  0  0  0  0  3  0  0  0  0  0  0
  188.2850  173.8470  135.9870 C   0  0  0  0  0  0  0  0  0  0  0  0
  183.4850  174.6810  136.6410 C   0  0  0  0  0  2  0  0  0  0  0  0
  184.1390  179.5550  138.7790 C   0  0  0  0  0  2  0  0  0  0  0  0
  186.1580  177.0160  138.4870 C   0  0  0  0  0  2  0  0  0  0  0  0
  188.4710  175.1630  136.1730 C   0  0  0  0  0  0  0  0  0  0  0  0
  184.8920  177.3870  137.7090 C   0  0  2  0  0  3  0  0  0  0  0  0
  185.8580  174.0920  136.1150 C   0  0  0  0  0  0  0  0  0  0  0  0
  184.0580  173.1310  134.9310 O   0  0  0  0  0  1  0  0  0  0  0  0
  184.7930  178.9080  137.5730 C   0  0  0  0  0  2  0  0  0  0  0  0
  182.0800  180.7170  138.8630 O   0  0  0  0  0  0  0  0  0  0  0  0
  183.6300  176.8750  139.6720 F   0  0  0  0  0  0  0  0  0  0  0  0
  189.8370  176.7730  137.3450 C   0  0  0  0  0  3  0  0  0  0  0  0
  188.7930  179.3600  139.1560 O   0  0  0  0  0  0  0  0  0  0  0  0
  188.7980  178.1020  139.2570 C   0  0  0  0  0  0  0  0  0  0  0  0
  190.1240  176.7650  140.9220 C   0  0  0  0  0  3  0  0  0  0  0  0
  188.9680  177.4920  140.5960 C   0  0  0  0  0  0  0  0  0  0  0  0
  187.9750  177.6620  141.5730 C   0  0  0  0  0  3  0  0  0  0  0  0
  187.0700  177.2920  143.8710 C   0  0  0  0  0  1  0  0  0  0  0  0
  189.2820  176.3810  143.1570 C   0  0  0  0  0  3  0  0  0  0  0  0
  188.1300  177.1070  142.8460 C   0  0  0  0  0  0  0  0  0  0  0  0
  190.2790  176.2100  142.1940 C   0  0  0  0  0  3  0  0  0  0  0  0
  181.1030  178.0300  135.9510 C   0  0  0  0  0  1  0  0  0  0  0  0
  182.0830  177.1180  136.3620 O   0  0  0  0  0  0  0  0  0  0  0  0
  1 25  1  1  0  0  0
  2 16  1  0  0  0  0
  2 13  1  1  0  0  0
  3  8  1  1  0  0  0
  3  6  1  0  0  0  0
  4 37  1  6  0  0  0
  4  1  1  0  0  0  0
  4 11  1  0  0  0  0
  5 21  2  0  0  0  0
  6  9  2  0  0  0  0
  6 18  1  0  0  0  0
  7 17  1  0  0  0  0
  7 24  2  0  0  0  0
  8 21  1  0  0  0  0
  9 28  1  0  0  0  0
 10 15  1  0  0  0  0
 11  7  1  0  0  0  0
 12  1  1  0  0  0  0
 14 26  2  0  0  0  0
 15  5  1  0  0  0  0
 15 19  2  0  0  0  0
 16 12  1  0  0  0  0
 19  3  1  0  0  0  0
 19 14  1  0  0  0  0
 20 23  1  1  0  0  0
 20  1  1  0  0  0  0
 20 18  1  0  0  0  0
 21  2  1  0  0  0  0
 22  2  1  0  0  0  0
 23 17  1  0  0  0  0
 26  9  1  0  0  0  0
 27 28  2  0  0  0  0
 28 30  1  0  0  0  0
 29 35  1  0  0  0  0
 30 29  2  0  0  0  0
 30 31  1  0  0  0  0
 31 34  2  0  0  0  0
 34 33  1  0  0  0  0
 34 32  1  0  0  0  0
 35 33  2  0  0  0  0
 36 37  1  0  0  0  0
M  END
>  <MODEL>
7

>  <REMARK>
 VINA RESULT:      -5.9      2.791      4.919
  Name = 
  3 active torsions:
  status: ('A' for Active; 'I' for Inactive)
    1  A    between atoms: C_5  and  O_23
    2  A    between atoms: C_6  and  C_31
    3  A    between atoms: C_14  and  C_31
                            x       y       z     vdW  Elec       q    Type
                         _______ _______ _______ _____ _____    ______ ____

>  <TORSDO>
F 3

$$$$
=
 OpenBabel10272414483D

 37 41  0  0  1  0  0  0  0  0999 V2000
  184.2530  179.3660  142.9730 C   0  0  1  0  0  0  0  0  0  0  0  0
  185.4850  178.6740  146.5550 C   0  0  1  0  0  0  0  0  0  0  0  0
  187.3690  176.6800  143.8870 C   0  0  0  0  0  0  0  0  0  0  0  0
  182.7240  179.1280  142.9740 C   0  0  1  0  0  3  0  0  0  0  0  0
  187.8130  177.7770  146.4930 C   0  0  0  0  0  3  0  0  0  0  0  0
  187.5120  177.4280  142.5790 C   0  0  0  0  0  0  0  0  0  0  0  0
  182.5110  178.7240  140.4760 C   0  0  0  0  0  0  0  0  0  0  0  0
  186.3520  177.2160  144.7260 O   0  0  0  0  0  0  0  0  0  0  0  0
  188.6070  177.1680  141.8160 C   0  0  0  0  0  0  0  0  0  0  0  0
  190.1790  176.9750  146.4250 N   0  0  0  0  0  1  0  0  0  0  0  0
  182.0480  179.2150  141.7080 O   0  0  0  0  0  0  0  0  0  0  0  0
  184.7510  179.8120  144.3650 C   0  0  0  0  0  2  0  0  0  0  0  0
  185.9780  180.0160  147.0850 C   0  0  0  0  0  1  0  0  0  0  0  0
  189.8080  176.1140  143.7070 C   0  0  0  0  0  2  0  0  0  0  0  0
  188.8950  177.0400  145.8100 C   0  0  0  0  0  0  0  0  0  0  0  0
  184.3530  178.9000  145.5360 C   0  0  0  0  0  2  0  0  0  0  0  0
  183.9420  178.3630  140.2170 C   0  0  0  0  0  2  0  0  0  0  0  0
  186.5220  178.5060  142.1990 C   0  0  0  0  0  2  0  0  0  0  0  0
  188.7040  176.5660  144.5690 C   0  0  0  0  0  0  0  0  0  0  0  0
  185.0620  178.1380  142.4770 C   0  0  2  0  0  3  0  0  0  0  0  0
  186.6060  177.8870  145.9240 C   0  0  0  0  0  0  0  0  0  0  0  0
  184.9710  177.9390  147.6230 O   0  0  0  0  0  1  0  0  0  0  0  0
  184.4700  177.4070  141.2690 C   0  0  0  0  0  2  0  0  0  0  0  0
  181.7010  178.6510  139.5160 O   0  0  0  0  0  0  0  0  0  0  0  0
  184.5000  180.4340  142.1240 F   0  0  0  0  0  0  0  0  0  0  0  0
  189.7360  176.3760  142.3940 C   0  0  0  0  0  3  0  0  0  0  0  0
  188.0510  178.7030  140.0920 O   0  0  0  0  0  0  0  0  0  0  0  0
  188.8020  177.7610  140.4680 C   0  0  0  0  0  0  0  0  0  0  0  0
  189.5720  176.7750  138.2890 C   0  0  0  0  0  3  0  0  0  0  0  0
  189.8730  177.2910  139.5590 C   0  0  0  0  0  0  0  0  0  0  0  0
  191.2160  177.3890  139.9530 C   0  0  0  0  0  3  0  0  0  0  0  0
  193.6570  177.0720  139.5280 C   0  0  0  0  0  1  0  0  0  0  0  0
  191.9270  176.4470  137.8390 C   0  0  0  0  0  3  0  0  0  0  0  0
  192.2380  176.9660  139.0980 C   0  0  0  0  0  0  0  0  0  0  0  0
  190.5940  176.3520  137.4340 C   0  0  0  0  0  3  0  0  0  0  0  0
  180.8680  178.2800  144.0360 C   0  0  0  0  0  1  0  0  0  0  0  0
  182.2430  178.1090  143.8300 O   0  0  0  0  0  0  0  0  0  0  0  0
  1 25  1  6  0  0  0
  1  4  1  0  0  0  0
  1 12  1  0  0  0  0
  2 13  1  1  0  0  0
  2 22  1  0  0  0  0
  3 19  1  0  0  0  0
  3  8  1  0  0  0  0
  4 37  1  6  0  0  0
  6  3  2  0  0  0  0
  7 11  1  0  0  0  0
  8 21  1  0  0  0  0
  9 26  2  0  0  0  0
  9  6  1  0  0  0  0
 11  4  1  0  0  0  0
 12 16  1  0  0  0  0
 14 19  1  0  0  0  0
 15 10  1  0  0  0  0
 15  5  1  0  0  0  0
 16  2  1  0  0  0  0
 17  7  1  0  0  0  0
 17 23  1  0  0  0  0
 18 20  1  0  0  0  0
 18  6  1  0  0  0  0
 19 15  2  0  0  0  0
 20 23  1  6  0  0  0
 20  1  1  0  0  0  0
 21  5  2  0  0  0  0
 21  2  1  0  0  0  0
 24  7  2  0  0  0  0
 26 14  1  0  0  0  0
 27 28  2  0  0  0  0
 28  9  1  0  0  0  0
 29 30  1  0  0  0  0
 30 31  2  0  0  0  0
 30 28  1  0  0  0  0
 33 34  2  0  0  0  0
 34 32  1  0  0  0  0
 34 31  1  0  0  0  0
 35 33  1  0  0  0  0
 35 29  2  0  0  0  0
 37 36  1  0  0  0  0
M  END
>  <MODEL>
8

>  <REMARK>
 VINA RESULT:      -5.9      2.177      6.406
  Name = 
  3 active torsions:
  status: ('A' for Active; 'I' for Inactive)
    1  A    between atoms: C_5  and  O_23
    2  A    between atoms: C_6  and  C_31
    3  A    between atoms: C_14  and  C_31
                            x       y       z     vdW  Elec       q    Type
                         _______ _______ _______ _____ _____    ______ ____

>  <TORSDO>
F 3

$$$$
=
 OpenBabel10272414483D

 37 41  0  0  1  0  0  0  0  0999 V2000
  188.9790  178.2920  140.1840 C   0  0  1  0  0  0  0  0  0  0  0  0
  186.7110  178.0000  137.0860 C   0  0  1  0  0  0  0  0  0  0  0  0
  184.8250  177.6160  140.3940 C   0  0  2  0  0  3  0  0  0  0  0  0
  190.1280  177.2740  139.9920 C   0  0  1  0  0  3  0  0  0  0  0  0
  184.3480  178.5020  137.7140 C   0  0  0  0  0  3  0  0  0  0  0  0
  185.4090  178.4570  141.5090 C   0  0  0  0  0  0  0  0  0  0  0  0
  190.7310  177.0810  142.4520 C   0  0  0  0  0  0  0  0  0  0  0  0
  185.7240  177.4340  139.3060 O   0  0  0  0  0  0  0  0  0  0  0  0
  184.5620  178.9050  142.4750 C   0  0  0  0  0  0  0  0  0  0  0  0
  182.0040  179.1050  138.3320 N   0  0  0  0  0  1  0  0  0  0  0  0
  191.0500  177.1160  141.0850 O   0  0  0  0  0  0  0  0  0  0  0  0
  188.4390  178.7880  138.8250 C   0  0  0  0  0  2  0  0  0  0  0  0
  186.8380  179.3330  136.3580 C   0  0  0  0  0  1  0  0  0  0  0  0
  182.5650  178.4680  141.0790 C   0  0  0  0  0  3  0  0  0  0  0  0
  183.2550  178.5360  138.7060 C   0  0  0  0  0  0  0  0  0  0  0  0
  188.0190  177.6880  137.8360 C   0  0  0  0  0  2  0  0  0  0  0  0
  189.4300  177.5720  143.0080 C   0  0  0  0  0  2  0  0  0  0  0  0
  186.8630  178.8680  141.4800 C   0  0  0  0  0  2  0  0  0  0  0  0
  183.4890  178.1650  139.9750 C   0  0  0  0  0  0  0  0  0  0  0  0
  187.8210  177.7490  141.0620 C   0  0  2  0  0  3  0  0  0  0  0  0
  185.5470  178.0080  138.0460 C   0  0  0  0  0  0  0  0  0  0  0  0
  186.5020  176.9980  136.1390 O   0  0  0  0  0  1  0  0  0  0  0  0
  188.2500  176.9450  142.2910 C   0  0  0  0  0  2  0  0  0  0  0  0
  191.6090  176.6850  143.2630 O   0  0  0  0  0  0  0  0  0  0  0  0
  189.5210  179.4080  140.8040 F   0  0  0  0  0  0  0  0  0  0  0  0
  183.0860  178.7860  142.2730 C   0  0  0  0  0  3  0  0  0  0  0  0
  185.0950  180.9060  143.6370 O   0  0  0  0  0  0  0  0  0  0  0  0
  185.0370  179.6460  143.6720 C   0  0  0  0  0  0  0  0  0  0  0  0
  184.4860  178.7180  145.9420 C   0  0  0  0  0  3  0  0  0  0  0  0
  185.4210  178.9450  144.9190 C   0  0  0  0  0  0  0  0  0  0  0  0
  186.7300  178.4660  145.0770 C   0  0  0  0  0  3  0  0  0  0  0  0
  188.4930  177.2880  146.3970 C   0  0  0  0  0  1  0  0  0  0  0  0
  186.1640  177.5740  147.2550 C   0  0  0  0  0  3  0  0  0  0  0  0
  187.1020  177.7870  146.2410 C   0  0  0  0  0  0  0  0  0  0  0  0
  184.8570  178.0390  147.1050 C   0  0  0  0  0  3  0  0  0  0  0  0
  190.8560  175.7130  138.4680 C   0  0  0  0  0  1  0  0  0  0  0  0
  189.8030  176.0740  139.3180 O   0  0  0  0  0  0  0  0  0  0  0  0
  1 25  1  1  0  0  0
  1 20  1  0  0  0  0
  2 13  1  6  0  0  0
  2 16  1  0  0  0  0
  2 21  1  0  0  0  0
  3  8  1  6  0  0  0
  3  6  1  0  0  0  0
  4 37  1  1  0  0  0
  4  1  1  0  0  0  0
  4 11  1  0  0  0  0
  5 21  2  0  0  0  0
  5 15  1  0  0  0  0
  6  9  2  0  0  0  0
  7 17  1  0  0  0  0
  7 24  2  0  0  0  0
  9 28  1  0  0  0  0
 10 15  1  0  0  0  0
 11  7  1  0  0  0  0
 12  1  1  0  0  0  0
 14 26  2  0  0  0  0
 15 19  2  0  0  0  0
 16 12  1  0  0  0  0
 18  6  1  0  0  0  0
 19  3  1  0  0  0  0
 19 14  1  0  0  0  0
 20 18  1  1  0  0  0
 20 23  1  0  0  0  0
 21  8  1  0  0  0  0
 22  2  1  0  0  0  0
 23 17  1  0  0  0  0
 26  9  1  0  0  0  0
 27 28  2  0  0  0  0
 28 30  1  0  0  0  0
 29 35  1  0  0  0  0
 30 31  1  0  0  0  0
 30 29  2  0  0  0  0
 31 34  2  0  0  0  0
 34 32  1  0  0  0  0
 34 33  1  0  0  0  0
 35 33  2  0  0  0  0
 36 37  1  0  0  0  0
M  END
>  <MODEL>
9

>  <REMARK>
 VINA RESULT:      -5.5      2.627      5.438
  Name = 
  3 active torsions:
  status: ('A' for Active; 'I' for Inactive)
    1  A    between atoms: C_5  and  O_23
    2  A    between atoms: C_6  and  C_31
    3  A    between atoms: C_14  and  C_31
                            x       y       z     vdW  Elec       q    Type
                         _______ _______ _______ _____ _____    ______ ____

>  <TORSDO>
F 3

$$$$
