=
 OpenBabel10272415343D

 34 40  0  0  1  0  0  0  0  0999 V2000
  188.7990  173.8840  136.6530 C   0  0  1  0  0  3  0  0  0  0  0  0
  190.5900  174.8960  135.0860 C   0  0  1  0  0  3  0  0  0  0  0  0
  184.8350  175.6770  136.7280 C   0  0  0  0  0  0  0  0  0  0  0  0
  190.1000  172.3870  135.2800 C   0  0  2  0  0  3  0  0  0  0  0  0
  185.9060  174.9320  134.5890 C   0  0  0  0  0  2  0  0  0  0  0  0
  187.6820  177.1150  137.6790 O   0  0  0  0  0  0  0  0  0  0  0  0
  186.3730  172.0950  136.3540 C   0  0  2  0  0  3  0  0  0  0  0  0
  187.4830  174.2500  137.3400 C   0  0  0  0  0  2  0  0  0  0  0  0
  187.7010  171.8190  135.6540 C   0  0  1  0  0  0  0  0  0  0  0  0
  187.4570  177.7750  136.4630 C   0  0  0  0  0  0  0  0  0  0  0  0
  188.2090  170.5060  135.7240 O   0  0  0  0  0  0  0  0  0  0  0  0
  188.7810  177.3750  138.5560 C   0  0  2  0  0  3  0  0  0  0  0  0
  188.1640  178.7620  136.1240 O   0  0  0  0  0  0  0  0  0  0  0  0
  185.0570  177.0800  136.2300 C   0  0  0  0  0  2  0  0  0  0  0  0
  186.4340  171.9230  134.8360 C   0  0  0  0  0  2  0  0  0  0  0  0
  186.2330  173.5780  136.7640 C   0  0  1  0  0  3  0  0  0  0  0  0
  190.1480  171.1790  134.3460 C   0  0  0  0  0  2  0  0  0  0  0  0
  188.6960  172.9580  135.4460 C   0  0  1  0  0  3  0  0  0  0  0  0
  188.7110  178.7840  139.1150 C   0  0  0  0  0  1  0  0  0  0  0  0
  188.9160  170.2650  134.5210 C   0  0  0  0  0  2  0  0  0  0  0  0
  186.9410  176.0410  134.7670 C   0  0  0  0  0  2  0  0  0  0  0  0
  190.3350  175.6930  137.5280 C   0  0  0  0  0  0  0  0  0  0  0  0
  186.4110  177.2670  135.5250 C   0  0  2  0  0  3  0  0  0  0  0  0
  190.1270  177.1360  137.8770 C   0  0  0  0  0  2  0  0  0  0  0  0
  185.3070  174.4890  135.9290 C   0  0  1  0  0  3  0  0  0  0  0  0
  184.2080  175.5040  137.7590 O   0  0  0  0  0  0  0  0  0  0  0  0
  191.1470  173.4660  134.9510 C   0  0  0  0  0  2  0  0  0  0  0  0
  191.1820  174.9600  138.2520 C   0  0  0  0  0  2  0  0  0  0  0  0
  189.6530  175.1220  136.3100 C   0  0  2  0  0  3  0  0  0  0  0  0
  191.6720  175.9490  134.8960 C   0  0  0  0  0  2  0  0  0  0  0  0
  193.8580  176.3120  135.9790 C   0  0  2  0  0  3  0  0  0  0  0  0
  194.0970  176.1980  134.4900 C   0  0  0  0  0  2  0  0  0  0  0  0
  194.8470  175.6050  136.6590 O   0  0  0  0  0  1  0  0  0  0  0  0
  193.0380  175.3420  135.1530 C   0  0  2  0  0  3  0  0  0  0  0  0
  1  8  1  6  0  0  0
  2 30  1  1  0  0  0
  2 29  1  0  0  0  0
  3 26  2  0  0  0  0
  4 17  1  6  0  0  0
  4 18  1  0  0  0  0
  5 21  1  0  0  0  0
  5 25  1  0  0  0  0
  6 12  1  0  0  0  0
  7 15  1  6  0  0  0
  7 16  1  0  0  0  0
  9 15  1  6  0  0  0
  9 11  1  0  0  0  0
  9  7  1  0  0  0  0
 10  6  1  0  0  0  0
 12 19  1  6  0  0  0
 13 10  2  0  0  0  0
 14  3  1  0  0  0  0
 16  8  1  6  0  0  0
 17 20  1  0  0  0  0
 18  9  1  0  0  0  0
 18  1  1  0  0  0  0
 20 11  1  0  0  0  0
 21 23  1  0  0  0  0
 22 24  1  0  0  0  0
 22 28  2  0  0  0  0
 23 14  1  0  0  0  0
 23 10  1  0  0  0  0
 24 12  1  0  0  0  0
 25  3  1  0  0  0  0
 25 16  1  0  0  0  0
 27  2  1  0  0  0  0
 27  4  1  0  0  0  0
 29  1  1  0  0  0  0
 29 22  1  0  0  0  0
 30 34  1  0  0  0  0
 31 33  1  0  0  0  0
 32 34  1  0  0  0  0
 32 31  1  0  0  0  0
 34 31  1  0  0  0  0
M  END
>  <MODEL>
1

>  <REMARK>
 VINA RESULT:      -4.8      0.000      0.000
  Name = 
  2 active torsions:
  status: ('A' for Active; 'I' for Inactive)
    1  A    between atoms: C_2  and  C_23
    2  A    between atoms: C_23  and  C_25
                            x       y       z     vdW  Elec       q    Type
                         _______ _______ _______ _____ _____    ______ ____

>  <TORSDO>
F 2

$$$$
=
 OpenBabel10272415343D

 34 40  0  0  1  0  0  0  0  0999 V2000
  186.3350  178.2160  138.2780 C   0  0  1  0  0  3  0  0  0  0  0  0
  188.1050  177.3460  139.9500 C   0  0  1  0  0  3  0  0  0  0  0  0
  184.6740  175.4450  135.3630 C   0  0  0  0  0  0  0  0  0  0  0  0
  186.0850  178.7800  140.6100 C   0  0  2  0  0  3  0  0  0  0  0  0
  184.6600  174.9430  137.8180 C   0  0  0  0  0  2  0  0  0  0  0  0
  187.8400  176.4530  135.5640 O   0  0  0  0  0  0  0  0  0  0  0  0
  183.3270  178.0390  137.9700 C   0  0  2  0  0  3  0  0  0  0  0  0
  185.7180  177.8750  136.9210 C   0  0  0  0  0  2  0  0  0  0  0  0
  184.0100  178.3220  139.3040 C   0  0  1  0  0  0  0  0  0  0  0  0
  187.9560  175.1470  136.0580 C   0  0  0  0  0  0  0  0  0  0  0  0
  183.5040  179.3860  140.0780 O   0  0  0  0  0  0  0  0  0  0  0  0
  188.9310  177.3600  135.3920 C   0  0  2  0  0  3  0  0  0  0  0  0
  189.0880  174.6330  136.2640 O   0  0  0  0  0  0  0  0  0  0  0  0
  185.7130  174.3630  135.2520 C   0  0  0  0  0  2  0  0  0  0  0  0
  183.0490  177.1610  139.1900 C   0  0  0  0  0  2  0  0  0  0  0  0
  184.2800  177.3520  136.9660 C   0  0  1  0  0  3  0  0  0  0  0  0
  185.1800  178.9110  141.8340 C   0  0  0  0  0  2  0  0  0  0  0  0
  185.4720  177.9300  139.5020 C   0  0  1  0  0  3  0  0  0  0  0  0
  189.9060  176.8480  134.3460 C   0  0  0  0  0  1  0  0  0  0  0  0
  183.6930  179.0410  141.4390 C   0  0  0  0  0  2  0  0  0  0  0  0
  186.1840  174.8430  137.7650 C   0  0  0  0  0  2  0  0  0  0  0  0
  188.7880  178.3750  137.6830 C   0  0  0  0  0  0  0  0  0  0  0  0
  186.7270  174.3730  136.4080 C   0  0  2  0  0  3  0  0  0  0  0  0
  189.6570  177.6420  136.7050 C   0  0  0  0  0  2  0  0  0  0  0  0
  184.1080  175.8410  136.7030 C   0  0  1  0  0  3  0  0  0  0  0  0
  184.2410  175.9610  134.3460 O   0  0  0  0  0  0  0  0  0  0  0  0
  187.5280  178.3660  140.9490 C   0  0  0  0  0  2  0  0  0  0  0  0
  189.0070  179.6700  137.9100 C   0  0  0  0  0  2  0  0  0  0  0  0
  187.7430  177.6130  138.4580 C   0  0  2  0  0  3  0  0  0  0  0  0
  189.5750  177.0560  140.2170 C   0  0  0  0  0  2  0  0  0  0  0  0
  191.3270  176.9640  141.9500 C   0  0  2  0  0  3  0  0  0  0  0  0
  190.1060  176.2560  142.4940 C   0  0  0  0  0  2  0  0  0  0  0  0
  191.8850  177.7560  142.9530 O   0  0  0  0  0  1  0  0  0  0  0  0
  189.9420  177.4850  141.6240 C   0  0  2  0  0  3  0  0  0  0  0  0
  1  8  1  6  0  0  0
  1 29  1  0  0  0  0
  1 18  1  0  0  0  0
  2 30  1  6  0  0  0
  2 27  1  0  0  0  0
  3 25  1  0  0  0  0
  4 27  1  1  0  0  0
  4 17  1  0  0  0  0
  6 10  1  0  0  0  0
  7 15  1  1  0  0  0
  7  9  1  0  0  0  0
  9 15  1  1  0  0  0
  9 18  1  0  0  0  0
  9 11  1  0  0  0  0
 10 13  2  0  0  0  0
 10 23  1  0  0  0  0
 11 20  1  0  0  0  0
 12 19  1  6  0  0  0
 12  6  1  0  0  0  0
 12 24  1  0  0  0  0
 14  3  1  0  0  0  0
 14 23  1  0  0  0  0
 16  8  1  1  0  0  0
 16  7  1  0  0  0  0
 18  4  1  0  0  0  0
 20 17  1  0  0  0  0
 21  5  1  0  0  0  0
 22 28  2  0  0  0  0
 22 29  1  0  0  0  0
 23 21  1  0  0  0  0
 24 22  1  0  0  0  0
 25 16  1  0  0  0  0
 25  5  1  0  0  0  0
 26  3  2  0  0  0  0
 29  2  1  0  0  0  0
 30 34  1  0  0  0  0
 31 32  1  0  0  0  0
 31 33  1  0  0  0  0
 34 31  1  0  0  0  0
 34 32  1  0  0  0  0
M  END
>  <MODEL>
2

>  <REMARK>
 VINA RESULT:      -4.8      2.893      6.278
  Name = 
  2 active torsions:
  status: ('A' for Active; 'I' for Inactive)
    1  A    between atoms: C_2  and  C_23
    2  A    between atoms: C_23  and  C_25
                            x       y       z     vdW  Elec       q    Type
                         _______ _______ _______ _____ _____    ______ ____

>  <TORSDO>
F 2

$$$$
=
 OpenBabel10272415343D

 34 40  0  0  1  0  0  0  0  0999 V2000
  186.5850  176.4540  136.3960 C   0  0  1  0  0  3  0  0  0  0  0  0
  188.0520  177.1170  138.4190 C   0  0  1  0  0  3  0  0  0  0  0  0
  186.0340  172.2300  135.5080 C   0  0  0  0  0  0  0  0  0  0  0  0
  185.7480  178.1240  137.9240 C   0  0  2  0  0  3  0  0  0  0  0  0
  185.5550  173.1750  137.7790 C   0  0  0  0  0  2  0  0  0  0  0  0
  188.8940  173.9290  135.3800 O   0  0  0  0  0  0  0  0  0  0  0  0
  183.7780  175.3990  135.9670 C   0  0  2  0  0  3  0  0  0  0  0  0
  186.3390  175.2850  135.4440 C   0  0  0  0  0  2  0  0  0  0  0  0
  184.1020  176.5270  136.9420 C   0  0  1  0  0  0  0  0  0  0  0  0
  189.0900  173.1870  136.5530 C   0  0  0  0  0  0  0  0  0  0  0  0
  183.2860  177.6760  136.8970 O   0  0  0  0  0  0  0  0  0  0  0  0
  189.8500  174.8290  134.8150 C   0  0  2  0  0  3  0  0  0  0  0  0
  190.2120  173.1700  137.1260 O   0  0  0  0  0  0  0  0  0  0  0  0
  187.2200  171.5630  136.1490 C   0  0  0  0  0  2  0  0  0  0  0  0
  183.3720  175.3000  137.4380 C   0  0  0  0  0  2  0  0  0  0  0  0
  185.0200  174.5360  135.6500 C   0  0  1  0  0  3  0  0  0  0  0  0
  184.5860  178.6760  138.7470 C   0  0  0  0  0  2  0  0  0  0  0  0
  185.5260  176.6850  137.4690 C   0  0  1  0  0  3  0  0  0  0  0  0
  191.0950  174.0870  134.3640 C   0  0  0  0  0  1  0  0  0  0  0  0
  183.2200  178.1950  138.2130 C   0  0  0  0  0  2  0  0  0  0  0  0
  187.0500  173.4440  137.9390 C   0  0  0  0  0  2  0  0  0  0  0  0
  189.0570  176.8610  136.0550 C   0  0  0  0  0  0  0  0  0  0  0  0
  187.9420  172.4570  137.1720 C   0  0  2  0  0  3  0  0  0  0  0  0
  190.2190  175.9550  135.7780 C   0  0  0  0  0  2  0  0  0  0  0  0
  185.1350  173.1420  136.3040 C   0  0  1  0  0  3  0  0  0  0  0  0
  185.7640  171.9770  134.3460 O   0  0  0  0  0  0  0  0  0  0  0  0
  187.1250  178.3370  138.5750 C   0  0  0  0  0  2  0  0  0  0  0  0
  189.0270  178.0750  135.5030 C   0  0  0  0  0  2  0  0  0  0  0  0
  187.9920  176.4210  137.0270 C   0  0  2  0  0  3  0  0  0  0  0  0
  189.4540  177.3960  138.9430 C   0  0  0  0  0  2  0  0  0  0  0  0
  190.3840  177.2590  141.2230 C   0  0  2  0  0  3  0  0  0  0  0  0
  188.9180  176.8990  141.3040 C   0  0  0  0  0  2  0  0  0  0  0  0
  190.7150  178.0850  142.2960 O   0  0  0  0  0  1  0  0  0  0  0  0
  189.3800  177.9750  140.3420 C   0  0  2  0  0  3  0  0  0  0  0  0
  1  8  1  1  0  0  0
  1 29  1  0  0  0  0
  1 18  1  0  0  0  0
  2 27  1  0  0  0  0
  2 30  1  6  0  0  0
  3 14  1  0  0  0  0
  3 25  1  0  0  0  0
  4 27  1  1  0  0  0
  4 17  1  0  0  0  0
  5 21  1  0  0  0  0
  6 10  1  0  0  0  0
  7  9  1  0  0  0  0
  7 15  1  1  0  0  0
  9 15  1  1  0  0  0
  9 18  1  0  0  0  0
 10 13  2  0  0  0  0
 10 23  1  0  0  0  0
 11  9  1  0  0  0  0
 11 20  1  0  0  0  0
 12 19  1  1  0  0  0
 12  6  1  0  0  0  0
 12 24  1  0  0  0  0
 14 23  1  0  0  0  0
 16  8  1  1  0  0  0
 16  7  1  0  0  0  0
 16 25  1  0  0  0  0
 18  4  1  0  0  0  0
 20 17  1  0  0  0  0
 22 29  1  0  0  0  0
 23 21  1  0  0  0  0
 24 22  1  0  0  0  0
 25  5  1  0  0  0  0
 26  3  2  0  0  0  0
 28 22  2  0  0  0  0
 29  2  1  0  0  0  0
 30 34  1  0  0  0  0
 31 32  1  0  0  0  0
 31 33  1  0  0  0  0
 34 31  1  0  0  0  0
 34 32  1  0  0  0  0
M  END
>  <MODEL>
3

>  <REMARK>
 VINA RESULT:      -4.8      2.275      5.744
  Name = 
  2 active torsions:
  status: ('A' for Active; 'I' for Inactive)
    1  A    between atoms: C_2  and  C_23
    2  A    between atoms: C_23  and  C_25
                            x       y       z     vdW  Elec       q    Type
                         _______ _______ _______ _____ _____    ______ ____

>  <TORSDO>
F 2

$$$$
=
 OpenBabel10272415343D

 34 40  0  0  1  0  0  0  0  0999 V2000
  184.7030  175.1700  137.6990 C   0  0  1  0  0  3  0  0  0  0  0  0
  183.3360  177.1730  136.8050 C   0  0  1  0  0  3  0  0  0  0  0  0
  184.9380  171.5560  135.2860 C   0  0  0  0  0  0  0  0  0  0  0  0
  185.6920  177.3680  137.7960 C   0  0  2  0  0  3  0  0  0  0  0  0
  185.5370  173.8050  134.3570 C   0  0  0  0  0  2  0  0  0  0  0  0
  182.2010  172.8370  136.6810 O   0  0  0  0  0  0  0  0  0  0  0  0
  187.4190  173.9430  137.1540 C   0  0  2  0  0  3  0  0  0  0  0  0
  184.8440  173.6580  137.5220 C   0  0  0  0  0  2  0  0  0  0  0  0
  187.1980  175.4470  137.2890 C   0  0  1  0  0  0  0  0  0  0  0  0
  181.9820  173.1710  135.3380 C   0  0  0  0  0  0  0  0  0  0  0  0
  188.0900  176.1610  138.1140 O   0  0  0  0  0  0  0  0  0  0  0  0
  181.2960  173.1230  137.7500 C   0  0  2  0  0  3  0  0  0  0  0  0
  180.8760  173.6430  134.9620 O   0  0  0  0  0  0  0  0  0  0  0  0
  183.7240  171.6280  134.3990 C   0  0  0  0  0  2  0  0  0  0  0  0
  187.8530  174.8970  136.0420 C   0  0  0  0  0  2  0  0  0  0  0  0
  186.1130  173.1960  136.8000 C   0  0  1  0  0  3  0  0  0  0  0  0
  186.9080  178.2650  137.5770 C   0  0  0  0  0  2  0  0  0  0  0  0
  185.8010  176.0260  137.0790 C   0  0  1  0  0  3  0  0  0  0  0  0
  179.9910  172.3660  137.5760 C   0  0  0  0  0  1  0  0  0  0  0  0
  188.2250  177.4580  137.5630 C   0  0  0  0  0  2  0  0  0  0  0  0
  184.0680  174.2060  134.4850 C   0  0  0  0  0  2  0  0  0  0  0  0
  182.2570  175.3730  138.3090 C   0  0  0  0  0  0  0  0  0  0  0  0
  183.0910  173.0290  134.3470 C   0  0  2  0  0  3  0  0  0  0  0  0
  181.0300  174.6190  137.8930 C   0  0  0  0  0  2  0  0  0  0  0  0
  185.9170  172.7010  135.3510 C   0  0  1  0  0  3  0  0  0  0  0  0
  185.1610  170.5320  135.9080 O   0  0  0  0  0  0  0  0  0  0  0  0
  184.3480  178.0730  137.5380 C   0  0  0  0  0  2  0  0  0  0  0  0
  182.3580  175.8210  139.5610 C   0  0  0  0  0  2  0  0  0  0  0  0
  183.3130  175.6890  137.2800 C   0  0  2  0  0  3  0  0  0  0  0  0
  181.9700  177.8340  136.6840 C   0  0  0  0  0  2  0  0  0  0  0  0
  180.4550  179.0900  138.1710 C   0  0  2  0  0  3  0  0  0  0  0  0
  180.9120  180.0320  137.0810 C   0  0  0  0  0  2  0  0  0  0  0  0
  180.4660  179.7600  139.3930 O   0  0  0  0  0  1  0  0  0  0  0  0
  181.8730  179.0050  137.6430 C   0  0  2  0  0  3  0  0  0  0  0  0
  1  8  1  6  0  0  0
  2 30  1  1  0  0  0
  2 29  1  0  0  0  0
  2 27  1  0  0  0  0
  3 25  1  0  0  0  0
  3 26  2  0  0  0  0
  4 27  1  6  0  0  0
  5 21  1  0  0  0  0
  5 25  1  0  0  0  0
  6 12  1  0  0  0  0
  7 15  1  6  0  0  0
  7  9  1  0  0  0  0
  9 15  1  6  0  0  0
  9 11  1  0  0  0  0
 10  6  1  0  0  0  0
 12 19  1  6  0  0  0
 12 24  1  0  0  0  0
 13 10  2  0  0  0  0
 14  3  1  0  0  0  0
 16  7  1  0  0  0  0
 16  8  1  6  0  0  0
 17  4  1  0  0  0  0
 18  9  1  0  0  0  0
 18  1  1  0  0  0  0
 18  4  1  0  0  0  0
 20 17  1  0  0  0  0
 20 11  1  0  0  0  0
 22 28  2  0  0  0  0
 23 14  1  0  0  0  0
 23 21  1  0  0  0  0
 23 10  1  0  0  0  0
 24 22  1  0  0  0  0
 25 16  1  0  0  0  0
 29  1  1  0  0  0  0
 29 22  1  0  0  0  0
 30 34  1  0  0  0  0
 31 33  1  0  0  0  0
 32 34  1  0  0  0  0
 32 31  1  0  0  0  0
 34 31  1  0  0  0  0
M  END
>  <MODEL>
4

>  <REMARK>
 VINA RESULT:      -4.5      3.182      7.831
  Name = 
  2 active torsions:
  status: ('A' for Active; 'I' for Inactive)
    1  A    between atoms: C_2  and  C_23
    2  A    between atoms: C_23  and  C_25
                            x       y       z     vdW  Elec       q    Type
                         _______ _______ _______ _____ _____    ______ ____

>  <TORSDO>
F 2

$$$$
=
 OpenBabel10272415343D

 34 40  0  0  1  0  0  0  0  0999 V2000
  184.0420  175.2480  135.4890 C   0  0  1  0  0  3  0  0  0  0  0  0
  184.5170  176.9150  137.4070 C   0  0  1  0  0  3  0  0  0  0  0  0
  186.0440  171.3840  135.5340 C   0  0  0  0  0  0  0  0  0  0  0  0
  182.1710  176.3480  136.5440 C   0  0  2  0  0  3  0  0  0  0  0  0
  184.7250  172.2100  137.4980 C   0  0  0  0  0  2  0  0  0  0  0  0
  187.4900  174.3670  135.2230 O   0  0  0  0  0  0  0  0  0  0  0  0
  182.3910  172.7350  135.1180 C   0  0  2  0  0  3  0  0  0  0  0  0
  184.6480  174.0210  134.8080 C   0  0  0  0  0  2  0  0  0  0  0  0
  181.8670  173.9760  135.8360 C   0  0  1  0  0  0  0  0  0  0  0  0
  187.8410  174.0490  136.5420 C   0  0  0  0  0  0  0  0  0  0  0  0
  180.5830  174.4350  135.4790 O   0  0  0  0  0  0  0  0  0  0  0  0
  187.8890  175.5550  134.5370 C   0  0  2  0  0  3  0  0  0  0  0  0
  188.6650  174.7580  137.1790 O   0  0  0  0  0  0  0  0  0  0  0  0
  187.2620  171.6130  136.3870 C   0  0  0  0  0  2  0  0  0  0  0  0
  181.8440  172.6400  136.5430 C   0  0  0  0  0  2  0  0  0  0  0  0
  183.9350  172.6950  135.0870 C   0  0  1  0  0  3  0  0  0  0  0  0
  180.7690  176.2560  137.1420 C   0  0  0  0  0  2  0  0  0  0  0  0
  182.8530  174.9900  136.4090 C   0  0  1  0  0  3  0  0  0  0  0  0
  189.3950  175.5970  134.3480 C   0  0  0  0  0  1  0  0  0  0  0  0
  180.0070  175.0110  136.6380 C   0  0  0  0  0  2  0  0  0  0  0  0
  185.7760  173.3010  137.6950 C   0  0  0  0  0  2  0  0  0  0  0  0
  185.9100  176.9320  135.2340 C   0  0  0  0  0  0  0  0  0  0  0  0
  187.1830  172.8970  137.2290 C   0  0  2  0  0  3  0  0  0  0  0  0
  187.4050  176.8180  135.2450 C   0  0  0  0  0  2  0  0  0  0  0  0
  184.6670  171.7290  136.0430 C   0  0  1  0  0  3  0  0  0  0  0  0
  186.1720  170.8550  134.4430 O   0  0  0  0  0  0  0  0  0  0  0  0
  183.0670  177.3990  137.2230 C   0  0  0  0  0  2  0  0  0  0  0  0
  185.3280  177.8170  134.4230 C   0  0  0  0  0  2  0  0  0  0  0  0
  185.0990  176.1130  136.2050 C   0  0  2  0  0  3  0  0  0  0  0  0
  185.4200  178.0150  137.9490 C   0  0  0  0  0  2  0  0  0  0  0  0
  185.5790  178.5830  140.3430 C   0  0  2  0  0  3  0  0  0  0  0  0
  184.3490  177.7230  140.1570 C   0  0  0  0  0  2  0  0  0  0  0  0
  185.2830  179.6260  141.2190 O   0  0  0  0  0  1  0  0  0  0  0  0
  184.7330  178.7320  139.0950 C   0  0  2  0  0  3  0  0  0  0  0  0
  1  8  1  1  0  0  0
  1 29  1  0  0  0  0
  1 18  1  0  0  0  0
  2 30  1  6  0  0  0
  3 25  1  0  0  0  0
  3 14  1  0  0  0  0
  4 17  1  1  0  0  0
  4 27  1  0  0  0  0
  5 21  1  0  0  0  0
  6 10  1  0  0  0  0
  7  9  1  0  0  0  0
  7 15  1  1  0  0  0
  9 18  1  0  0  0  0
  9 15  1  1  0  0  0
 10 13  2  0  0  0  0
 10 23  1  0  0  0  0
 11  9  1  0  0  0  0
 11 20  1  0  0  0  0
 12 19  1  1  0  0  0
 12  6  1  0  0  0  0
 12 24  1  0  0  0  0
 14 23  1  0  0  0  0
 16  8  1  1  0  0  0
 16  7  1  0  0  0  0
 16 25  1  0  0  0  0
 18  4  1  0  0  0  0
 20 17  1  0  0  0  0
 22 24  1  0  0  0  0
 22 29  1  0  0  0  0
 23 21  1  0  0  0  0
 25  5  1  0  0  0  0
 26  3  2  0  0  0  0
 27  2  1  0  0  0  0
 28 22  2  0  0  0  0
 29  2  1  0  0  0  0
 30 34  1  0  0  0  0
 31 33  1  0  0  0  0
 32 31  1  0  0  0  0
 34 32  1  0  0  0  0
 34 31  1  0  0  0  0
M  END
>  <MODEL>
5

>  <REMARK>
 VINA RESULT:      -4.3      2.864      6.771
  Name = 
  2 active torsions:
  status: ('A' for Active; 'I' for Inactive)
    1  A    between atoms: C_2  and  C_23
    2  A    between atoms: C_23  and  C_25
                            x       y       z     vdW  Elec       q    Type
                         _______ _______ _______ _____ _____    ______ ____

>  <TORSDO>
F 2

$$$$
=
 OpenBabel10272415343D

 34 40  0  0  1  0  0  0  0  0999 V2000
  184.7370  177.5030  137.3500 C   0  0  1  0  0  3  0  0  0  0  0  0
  185.2060  175.0060  136.8680 C   0  0  1  0  0  3  0  0  0  0  0  0
  181.2750  178.5500  139.7690 C   0  0  0  0  0  0  0  0  0  0  0  0
  186.9870  176.6800  137.6410 C   0  0  2  0  0  3  0  0  0  0  0  0
  182.9930  176.9090  140.5650 C   0  0  0  0  0  2  0  0  0  0  0  0
  181.2380  177.0940  136.7760 O   0  0  0  0  0  0  0  0  0  0  0  0
  185.0980  179.3960  139.6870 C   0  0  2  0  0  3  0  0  0  0  0  0
  183.6010  178.4360  137.7680 C   0  0  0  0  0  2  0  0  0  0  0  0
  186.1700  178.4020  139.2500 C   0  0  1  0  0  0  0  0  0  0  0  0
  180.9060  176.0050  137.5930 C   0  0  0  0  0  0  0  0  0  0  0  0
  187.4880  178.8850  139.1240 O   0  0  0  0  0  0  0  0  0  0  0  0
  181.3320  177.0440  135.3500 C   0  0  2  0  0  3  0  0  0  0  0  0
  180.5310  174.9110  137.0910 O   0  0  0  0  0  0  0  0  0  0  0  0
  180.3580  177.3650  139.6290 C   0  0  0  0  0  2  0  0  0  0  0  0
  185.6760  178.3870  140.6780 C   0  0  0  0  0  2  0  0  0  0  0  0
  183.6920  178.9850  139.1950 C   0  0  1  0  0  3  0  0  0  0  0  0
  188.2590  176.6250  138.4840 C   0  0  0  0  0  2  0  0  0  0  0  0
  185.7750  177.1830  138.4200 C   0  0  1  0  0  3  0  0  0  0  0  0
  179.9820  176.7420  134.7250 C   0  0  0  0  0  1  0  0  0  0  0  0
  188.3590  177.8190  139.4570 C   0  0  0  0  0  2  0  0  0  0  0  0
  182.5400  175.9580  139.4590 C   0  0  0  0  0  2  0  0  0  0  0  0
  183.7660  176.4370  135.2730 C   0  0  0  0  0  0  0  0  0  0  0  0
  181.0610  176.1140  139.0750 C   0  0  2  0  0  3  0  0  0  0  0  0
  182.3770  176.0360  134.8780 C   0  0  0  0  0  2  0  0  0  0  0  0
  182.7050  178.3740  140.2120 C   0  0  1  0  0  3  0  0  0  0  0  0
  180.8320  179.6710  139.5810 O   0  0  0  0  0  0  0  0  0  0  0  0
  186.6990  175.3820  136.8670 C   0  0  0  0  0  2  0  0  0  0  0  0
  184.5970  176.9160  134.3460 C   0  0  0  0  0  2  0  0  0  0  0  0
  184.2280  176.2060  136.6890 C   0  0  2  0  0  3  0  0  0  0  0  0
  184.9200  173.8020  135.9820 C   0  0  0  0  0  2  0  0  0  0  0  0
  183.6550  171.6850  135.9700 C   0  0  2  0  0  3  0  0  0  0  0  0
  182.9590  172.6300  136.9230 C   0  0  0  0  0  2  0  0  0  0  0  0
  183.6930  170.4100  136.5310 O   0  0  0  0  0  1  0  0  0  0  0  0
  184.4710  172.6280  136.8310 C   0  0  2  0  0  3  0  0  0  0  0  0
  1  8  1  1  0  0  0
  1 18  1  0  0  0  0
  2 30  1  6  0  0  0
  3 25  1  0  0  0  0
  4 27  1  1  0  0  0
  4 18  1  0  0  0  0
  4 17  1  0  0  0  0
  6 10  1  0  0  0  0
  7 15  1  1  0  0  0
  9  7  1  0  0  0  0
  9 15  1  1  0  0  0
 10 23  1  0  0  0  0
 11  9  1  0  0  0  0
 11 20  1  0  0  0  0
 12 19  1  6  0  0  0
 12  6  1  0  0  0  0
 13 10  2  0  0  0  0
 14  3  1  0  0  0  0
 16  8  1  6  0  0  0
 16  7  1  0  0  0  0
 16 25  1  0  0  0  0
 17 20  1  0  0  0  0
 18  9  1  0  0  0  0
 21  5  1  0  0  0  0
 22 29  1  0  0  0  0
 23 21  1  0  0  0  0
 23 14  1  0  0  0  0
 24 22  1  0  0  0  0
 24 12  1  0  0  0  0
 25  5  1  0  0  0  0
 26  3  2  0  0  0  0
 27  2  1  0  0  0  0
 28 22  2  0  0  0  0
 29  2  1  0  0  0  0
 29  1  1  0  0  0  0
 30 34  1  0  0  0  0
 31 33  1  0  0  0  0
 31 34  1  0  0  0  0
 31 32  1  0  0  0  0
 34 32  1  0  0  0  0
M  END
>  <MODEL>
6

>  <REMARK>
 VINA RESULT:      -4.1      3.838      7.694
  Name = 
  2 active torsions:
  status: ('A' for Active; 'I' for Inactive)
    1  A    between atoms: C_2  and  C_23
    2  A    between atoms: C_23  and  C_25
                            x       y       z     vdW  Elec       q    Type
                         _______ _______ _______ _____ _____    ______ ____

>  <TORSDO>
F 2

$$$$
=
 OpenBabel10272415343D

 34 40  0  0  1  0  0  0  0  0999 V2000
  184.6210  174.2220  135.2790 C   0  0  1  0  0  3  0  0  0  0  0  0
  183.8550  175.6600  137.2860 C   0  0  1  0  0  3  0  0  0  0  0  0
  188.5420  172.3410  135.4310 C   0  0  0  0  0  0  0  0  0  0  0  0
  182.3970  173.8820  136.1510 C   0  0  2  0  0  3  0  0  0  0  0  0
  186.8570  172.0310  137.2600 C   0  0  0  0  0  2  0  0  0  0  0  0
  187.9080  175.6080  135.3710 O   0  0  0  0  0  0  0  0  0  0  0  0
  184.8560  171.2680  134.6530 C   0  0  2  0  0  3  0  0  0  0  0  0
  185.8920  173.6700  134.6330 C   0  0  0  0  0  2  0  0  0  0  0  0
  183.6400  171.8760  135.3440 C   0  0  1  0  0  0  0  0  0  0  0  0
  188.2850  175.4460  136.7120 C   0  0  0  0  0  0  0  0  0  0  0  0
  182.3680  171.5060  134.8610 O   0  0  0  0  0  0  0  0  0  0  0  0
  187.5550  176.8560  134.7690 C   0  0  2  0  0  3  0  0  0  0  0  0
  188.4660  176.4460  137.4570 O   0  0  0  0  0  0  0  0  0  0  0  0
  189.3100  173.1740  136.4210 C   0  0  0  0  0  2  0  0  0  0  0  0
  184.3800  170.7350  136.0040 C   0  0  0  0  0  2  0  0  0  0  0  0
  186.1080  172.1630  134.7920 C   0  0  1  0  0  3  0  0  0  0  0  0
  181.2980  172.9150  136.5880 C   0  0  0  0  0  2  0  0  0  0  0  0
  183.7690  173.2220  136.0530 C   0  0  1  0  0  3  0  0  0  0  0  0
  188.7380  177.8070  134.7500 C   0  0  0  0  0  1  0  0  0  0  0  0
  181.4810  171.5150  135.9650 C   0  0  0  0  0  2  0  0  0  0  0  0
  187.0180  173.5110  137.6050 C   0  0  0  0  0  2  0  0  0  0  0  0
  185.1030  176.7040  135.2830 C   0  0  0  0  0  0  0  0  0  0  0  0
  188.4110  174.0730  137.2870 C   0  0  2  0  0  3  0  0  0  0  0  0
  186.3570  177.5070  135.4560 C   0  0  0  0  0  2  0  0  0  0  0  0
  187.2050  171.7450  135.7940 C   0  0  1  0  0  3  0  0  0  0  0  0
  189.0400  172.0950  134.3460 O   0  0  0  0  0  0  0  0  0  0  0  0
  182.4240  175.1930  136.9560 C   0  0  0  0  0  2  0  0  0  0  0  0
  184.1630  177.1330  134.4380 C   0  0  0  0  0  2  0  0  0  0  0  0
  184.8860  175.4780  136.1330 C   0  0  2  0  0  3  0  0  0  0  0  0
  183.8680  177.0260  137.9570 C   0  0  0  0  0  2  0  0  0  0  0  0
  182.5960  178.6150  139.3490 C   0  0  2  0  0  3  0  0  0  0  0  0
  183.0090  177.4600  140.2330 C   0  0  0  0  0  2  0  0  0  0  0  0
  181.2790  178.9700  139.6400 O   0  0  0  0  0  1  0  0  0  0  0  0
  182.6150  177.2060  138.7920 C   0  0  2  0  0  3  0  0  0  0  0  0
  1  8  1  1  0  0  0
  1 18  1  0  0  0  0
  1 29  1  0  0  0  0
  2 30  1  6  0  0  0
  3 25  1  0  0  0  0
  3 14  1  0  0  0  0
  4 17  1  1  0  0  0
  4 27  1  0  0  0  0
  5 21  1  0  0  0  0
  6 10  1  0  0  0  0
  7 16  1  0  0  0  0
  7  9  1  0  0  0  0
  7 15  1  1  0  0  0
  9 15  1  1  0  0  0
  9 18  1  0  0  0  0
 10 23  1  0  0  0  0
 10 13  2  0  0  0  0
 11  9  1  0  0  0  0
 11 20  1  0  0  0  0
 12 19  1  1  0  0  0
 12  6  1  0  0  0  0
 12 24  1  0  0  0  0
 14 23  1  0  0  0  0
 16  8  1  1  0  0  0
 16 25  1  0  0  0  0
 18  4  1  0  0  0  0
 20 17  1  0  0  0  0
 22 24  1  0  0  0  0
 22 29  1  0  0  0  0
 23 21  1  0  0  0  0
 25  5  1  0  0  0  0
 26  3  2  0  0  0  0
 27  2  1  0  0  0  0
 28 22  2  0  0  0  0
 29  2  1  0  0  0  0
 30 34  1  0  0  0  0
 31 33  1  0  0  0  0
 31 32  1  0  0  0  0
 34 31  1  0  0  0  0
 34 32  1  0  0  0  0
M  END
>  <MODEL>
7

>  <REMARK>
 VINA RESULT:      -3.7      2.731      6.724
  Name = 
  2 active torsions:
  status: ('A' for Active; 'I' for Inactive)
    1  A    between atoms: C_2  and  C_23
    2  A    between atoms: C_23  and  C_25
                            x       y       z     vdW  Elec       q    Type
                         _______ _______ _______ _____ _____    ______ ____

>  <TORSDO>
F 2

$$$$
=
 OpenBabel10272415343D

 34 40  0  0  1  0  0  0  0  0999 V2000
  186.2250  177.1830  138.9110 C   0  0  1  0  0  3  0  0  0  0  0  0
  184.5000  179.1070  138.9460 C   0  0  1  0  0  3  0  0  0  0  0  0
  188.8300  176.7740  135.4500 C   0  0  0  0  0  0  0  0  0  0  0  0
  186.0400  178.5220  140.9100 C   0  0  2  0  0  3  0  0  0  0  0  0
  188.6430  178.9300  136.7130 C   0  0  0  0  0  2  0  0  0  0  0  0
  185.5190  176.4350  135.4940 O   0  0  0  0  0  0  0  0  0  0  0  0
  189.2090  176.8970  139.3460 C   0  0  2  0  0  3  0  0  0  0  0  0
  187.0710  176.3680  137.9330 C   0  0  0  0  0  2  0  0  0  0  0  0
  188.3140  177.7380  140.2520 C   0  0  1  0  0  0  0  0  0  0  0  0
  185.6390  177.6810  134.8630 C   0  0  0  0  0  0  0  0  0  0  0  0
  188.4630  177.5720  141.6430 O   0  0  0  0  0  0  0  0  0  0  0  0
  184.2820  175.7650  135.7460 C   0  0  2  0  0  3  0  0  0  0  0  0
  184.6360  178.2430  134.3480 O   0  0  0  0  0  0  0  0  0  0  0  0
  188.0860  177.4760  134.3460 C   0  0  0  0  0  2  0  0  0  0  0  0
  189.5200  178.3720  139.5970 C   0  0  0  0  0  2  0  0  0  0  0  0
  188.5730  176.6670  137.9570 C   0  0  1  0  0  3  0  0  0  0  0  0
  186.7280  179.2880  142.0380 C   0  0  0  0  0  2  0  0  0  0  0  0
  186.9660  178.2310  139.7330 C   0  0  1  0  0  3  0  0  0  0  0  0
  183.5900  175.3890  134.4480 C   0  0  0  0  0  1  0  0  0  0  0  0
  188.1850  178.8220  142.2470 C   0  0  0  0  0  2  0  0  0  0  0  0
  187.2010  179.0470  136.2220 C   0  0  0  0  0  2  0  0  0  0  0  0
  183.8970  176.7780  138.0100 C   0  0  0  0  0  0  0  0  0  0  0  0
  186.9560  178.3860  134.8570 C   0  0  2  0  0  3  0  0  0  0  0  0
  183.3490  176.5930  136.6270 C   0  0  0  0  0  2  0  0  0  0  0  0
  189.1150  177.4710  136.7560 C   0  0  1  0  0  3  0  0  0  0  0  0
  189.2610  175.6500  135.2560 O   0  0  0  0  0  0  0  0  0  0  0  0
  184.6970  179.1340  140.4730 C   0  0  0  0  0  2  0  0  0  0  0  0
  183.3630  176.0940  139.0230 C   0  0  0  0  0  2  0  0  0  0  0  0
  184.9800  177.8010  138.2450 C   0  0  2  0  0  3  0  0  0  0  0  0
  183.1110  179.5850  138.5440 C   0  0  0  0  0  2  0  0  0  0  0  0
  180.8770  178.8920  139.3230 C   0  0  2  0  0  3  0  0  0  0  0  0
  180.9620  180.3950  139.4540 C   0  0  0  0  0  2  0  0  0  0  0  0
  180.2510  178.3650  140.4520 O   0  0  0  0  0  1  0  0  0  0  0  0
  182.1800  179.5420  139.7390 C   0  0  2  0  0  3  0  0  0  0  0  0
  1  8  1  6  0  0  0
  1 18  1  0  0  0  0
  2 30  1  1  0  0  0
  2 27  1  0  0  0  0
  3 25  1  0  0  0  0
  4 27  1  6  0  0  0
  4 17  1  0  0  0  0
  5 25  1  0  0  0  0
  6 12  1  0  0  0  0
  7 15  1  6  0  0  0
  7  9  1  0  0  0  0
  9 15  1  6  0  0  0
  9 11  1  0  0  0  0
 10  6  1  0  0  0  0
 11 20  1  0  0  0  0
 12 19  1  6  0  0  0
 12 24  1  0  0  0  0
 13 10  2  0  0  0  0
 14 23  1  0  0  0  0
 14  3  1  0  0  0  0
 16  8  1  1  0  0  0
 16  7  1  0  0  0  0
 17 20  1  0  0  0  0
 18  9  1  0  0  0  0
 18  4  1  0  0  0  0
 21  5  1  0  0  0  0
 22 29  1  0  0  0  0
 22 28  2  0  0  0  0
 23 10  1  0  0  0  0
 23 21  1  0  0  0  0
 24 22  1  0  0  0  0
 25 16  1  0  0  0  0
 26  3  2  0  0  0  0
 29  1  1  0  0  0  0
 29  2  1  0  0  0  0
 30 34  1  0  0  0  0
 31 32  1  0  0  0  0
 31 34  1  0  0  0  0
 31 33  1  0  0  0  0
 32 34  1  0  0  0  0
M  END
>  <MODEL>
8

>  <REMARK>
 VINA RESULT:      -3.4      3.583      8.059
  Name = 
  2 active torsions:
  status: ('A' for Active; 'I' for Inactive)
    1  A    between atoms: C_2  and  C_23
    2  A    between atoms: C_23  and  C_25
                            x       y       z     vdW  Elec       q    Type
                         _______ _______ _______ _____ _____    ______ ____

>  <TORSDO>
F 2

$$$$
=
 OpenBabel10272415343D

 34 40  0  0  1  0  0  0  0  0999 V2000
  184.9250  176.5780  138.0270 C   0  0  1  0  0  3  0  0  0  0  0  0
  184.1650  179.0440  138.1830 C   0  0  1  0  0  3  0  0  0  0  0  0
  182.6960  173.8610  135.4600 C   0  0  0  0  0  0  0  0  0  0  0  0
  186.5960  178.3080  137.8410 C   0  0  2  0  0  3  0  0  0  0  0  0
  183.6140  176.0300  134.6050 C   0  0  0  0  0  2  0  0  0  0  0  0
  181.5630  175.3920  138.1900 O   0  0  0  0  0  0  0  0  0  0  0  0
  186.4380  174.8650  136.0390 C   0  0  2  0  0  3  0  0  0  0  0  0
  184.3960  175.1970  137.6410 C   0  0  0  0  0  2  0  0  0  0  0  0
  186.8800  176.2720  136.4290 C   0  0  1  0  0  0  0  0  0  0  0  0
  180.9140  176.1350  137.1940 C   0  0  0  0  0  0  0  0  0  0  0  0
  188.2400  176.4560  136.7520 O   0  0  0  0  0  0  0  0  0  0  0  0
  181.4050  175.6020  139.5950 C   0  0  2  0  0  3  0  0  0  0  0  0
  180.0230  176.9750  137.4910 O   0  0  0  0  0  0  0  0  0  0  0  0
  181.3410  174.5040  135.3350 C   0  0  0  0  0  2  0  0  0  0  0  0
  186.6560  175.9370  134.9720 C   0  0  0  0  0  2  0  0  0  0  0  0
  184.9370  174.6300  136.3250 C   0  0  1  0  0  3  0  0  0  0  0  0
  187.8260  178.8660  137.1270 C   0  0  0  0  0  2  0  0  0  0  0  0
  185.8660  177.2430  137.0290 C   0  0  1  0  0  3  0  0  0  0  0  0
  179.9820  175.3070  140.0340 C   0  0  0  0  0  1  0  0  0  0  0  0
  188.5910  177.7700  136.3540 C   0  0  0  0  0  2  0  0  0  0  0  0
  182.6240  176.7610  135.5100 C   0  0  0  0  0  2  0  0  0  0  0  0
  183.2780  177.2570  139.8210 C   0  0  0  0  0  0  0  0  0  0  0  0
  181.3260  175.9810  135.7660 C   0  0  2  0  0  3  0  0  0  0  0  0
  181.8120  177.0120  140.0160 C   0  0  0  0  0  2  0  0  0  0  0  0
  183.9510  174.6320  135.1380 C   0  0  1  0  0  3  0  0  0  0  0  0
  182.7700  172.6830  135.7660 O   0  0  0  0  0  0  0  0  0  0  0  0
  185.6510  179.3930  138.3850 C   0  0  0  0  0  2  0  0  0  0  0  0
  184.0820  177.2920  140.8850 C   0  0  0  0  0  2  0  0  0  0  0  0
  183.8010  177.5500  138.4380 C   0  0  2  0  0  3  0  0  0  0  0  0
  183.2450  180.0570  138.8510 C   0  0  0  0  0  2  0  0  0  0  0  0
  181.4670  181.6720  138.2960 C   0  0  2  0  0  3  0  0  0  0  0  0
  180.8050  180.4430  138.8750 C   0  0  0  0  0  2  0  0  0  0  0  0
  180.7290  182.1200  137.2010 O   0  0  0  0  0  1  0  0  0  0  0  0
  182.0230  180.2970  137.9870 C   0  0  2  0  0  3  0  0  0  0  0  0
  1  8  1  6  0  0  0
  1 29  1  0  0  0  0
  2 27  1  0  0  0  0
  2 29  1  0  0  0  0
  2 30  1  1  0  0  0
  3 26  2  0  0  0  0
  4 17  1  6  0  0  0
  4 27  1  0  0  0  0
  5 25  1  0  0  0  0
  5 21  1  0  0  0  0
  6 12  1  0  0  0  0
  7 15  1  6  0  0  0
  7 16  1  0  0  0  0
  7  9  1  0  0  0  0
  9 15  1  6  0  0  0
  9 11  1  0  0  0  0
  9 18  1  0  0  0  0
 10 13  2  0  0  0  0
 10  6  1  0  0  0  0
 12 24  1  0  0  0  0
 12 19  1  6  0  0  0
 14  3  1  0  0  0  0
 14 23  1  0  0  0  0
 16  8  1  1  0  0  0
 18  4  1  0  0  0  0
 18  1  1  0  0  0  0
 20 11  1  0  0  0  0
 20 17  1  0  0  0  0
 21 23  1  0  0  0  0
 22 24  1  0  0  0  0
 22 28  2  0  0  0  0
 23 10  1  0  0  0  0
 25  3  1  0  0  0  0
 25 16  1  0  0  0  0
 29 22  1  0  0  0  0
 31 32  1  0  0  0  0
 33 31  1  0  0  0  0
 34 31  1  0  0  0  0
 34 30  1  0  0  0  0
 34 32  1  0  0  0  0
M  END
>  <MODEL>
9

>  <REMARK>
 VINA RESULT:      -3.3      3.568      7.719
  Name = 
  2 active torsions:
  status: ('A' for Active; 'I' for Inactive)
    1  A    between atoms: C_2  and  C_23
    2  A    between atoms: C_23  and  C_25
                            x       y       z     vdW  Elec       q    Type
                         _______ _______ _______ _____ _____    ______ ____

>  <TORSDO>
F 2

$$$$
