=
 OpenBabel10272402003D

 28 32  0  0  1  0  0  0  0  0999 V2000
  186.8260  177.5280  146.1270 C   0  0  2  0  0  3  0  0  0  0  0  0
  188.3990  177.2310  141.1620 C   0  0  0  0  0  3  0  0  0  0  0  0
  191.7100  177.2020  146.2560 O   0  0  0  0  0  0  0  0  0  0  0  0
  190.8150  177.4480  141.3060 C   0  0  0  0  0  0  0  0  0  0  0  0
  189.5000  177.2250  143.3530 C   0  0  0  0  0  0  0  0  0  0  0  0
  189.7220  177.4580  139.1460 C   0  0  0  0  0  0  0  0  0  0  0  0
  189.5610  177.2990  141.9470 C   0  0  0  0  0  0  0  0  0  0  0  0
  191.9240  177.4340  143.4540 C   0  0  0  0  0  3  0  0  0  0  0  0
  190.8860  177.5280  139.9120 C   0  0  0  0  0  3  0  0  0  0  0  0
  189.3110  177.0950  146.2860 C   0  0  1  0  0  3  0  0  0  0  0  0
  188.1830  177.0110  144.0540 C   0  0  0  0  0  2  0  0  0  0  0  0
  191.9850  177.5140  142.0630 C   0  0  0  0  0  3  0  0  0  0  0  0
  187.9920  177.5460  148.3560 C   0  0  0  0  0  2  0  0  0  0  0  0
  190.6410  177.2220  145.5860 C   0  0  0  0  0  0  0  0  0  0  0  0
  189.3290  177.7670  147.6580 C   0  0  0  0  0  2  0  0  0  0  0  0
  189.7950  177.5360  137.7950 F   0  0  0  0  0  0  0  0  0  0  0  0
  188.4790  177.3100  139.7690 C   0  0  0  0  0  3  0  0  0  0  0  0
  190.6940  177.2860  144.1080 C   0  0  0  0  0  0  0  0  0  0  0  0
  186.8620  178.1470  147.5270 C   0  0  0  0  0  2  0  0  0  0  0  0
  188.1840  177.6880  145.4250 C   0  0  1  0  0  3  0  0  0  0  0  0
  185.7080  178.1340  145.3310 C   0  0  0  0  0  0  0  0  0  0  0  0
  185.8310  178.3430  143.9480 C   0  0  0  0  0  3  0  0  0  0  0  0
  183.5880  179.2560  143.8800 C   0  0  0  0  0  0  0  0  0  0  0  0
  184.5220  178.4900  145.9810 C   0  0  0  0  0  3  0  0  0  0  0  0
  184.9580  179.1470  141.4960 Cl  0  0  0  0  0  0  0  0  0  0  0  0
  184.7750  178.9020  143.2240 C   0  0  0  0  0  0  0  0  0  0  0  0
  182.5270  179.8120  143.1740 O   0  0  0  0  0  1  0  0  0  0  0  0
  183.4660  179.0500  145.2580 C   0  0  0  0  0  3  0  0  0  0  0  0
  1 21  1  6  0  0  0
  1 19  1  0  0  0  0
  2  7  1  0  0  0  0
  4  7  2  0  0  0  0
  4 12  1  0  0  0  0
  5 11  1  0  0  0  0
  5 18  2  0  0  0  0
  6 17  1  0  0  0  0
  6  9  2  0  0  0  0
  7  5  1  0  0  0  0
  8 18  1  0  0  0  0
  9  4  1  0  0  0  0
 10 15  1  1  0  0  0
 12  8  2  0  0  0  0
 14  3  2  0  0  0  0
 14 10  1  0  0  0  0
 15 13  1  0  0  0  0
 16  6  1  0  0  0  0
 17  2  2  0  0  0  0
 18 14  1  0  0  0  0
 19 13  1  0  0  0  0
 20 11  1  6  0  0  0
 20  1  1  0  0  0  0
 20 10  1  0  0  0  0
 21 24  1  0  0  0  0
 22 21  2  0  0  0  0
 23 28  1  0  0  0  0
 25 26  1  0  0  0  0
 26 23  2  0  0  0  0
 26 22  1  0  0  0  0
 27 23  1  0  0  0  0
 28 24  2  0  0  0  0
M  END
>  <MODEL>
1

>  <REMARK>
 VINA RESULT:     -12.2      0.000      0.000
  Name = 
  1 active torsions:
  status: ('A' for Active; 'I' for Inactive)
    1  A    between atoms: C_1  and  C_2
                            x       y       z     vdW  Elec       q    Type
                         _______ _______ _______ _____ _____    ______ ____

>  <TORSDO>
F 1

$$$$
=
 OpenBabel10272402003D

 28 32  0  0  1  0  0  0  0  0999 V2000
  186.0740  178.0010  142.4430 C   0  0  2  0  0  3  0  0  0  0  0  0
  190.2020  176.4290  145.2170 C   0  0  0  0  0  3  0  0  0  0  0  0
  185.0310  178.9850  147.1250 O   0  0  0  0  0  0  0  0  0  0  0  0
  189.7610  177.2870  147.4490 C   0  0  0  0  0  0  0  0  0  0  0  0
  188.0340  177.4530  145.7290 C   0  0  0  0  0  0  0  0  0  0  0  0
  191.9030  176.2790  146.9360 C   0  0  0  0  0  0  0  0  0  0  0  0
  189.3270  177.0540  146.1210 C   0  0  0  0  0  0  0  0  0  0  0  0
  187.6270  178.2900  147.9800 C   0  0  0  0  0  3  0  0  0  0  0  0
  191.0440  176.8990  147.8460 C   0  0  0  0  0  3  0  0  0  0  0  0
  185.3550  178.2920  144.8490 C   0  0  1  0  0  3  0  0  0  0  0  0
  187.5300  177.1660  144.3380 C   0  0  0  0  0  2  0  0  0  0  0  0
  188.9090  177.9010  148.3670 C   0  0  0  0  0  3  0  0  0  0  0  0
  183.8690  179.0760  143.0040 C   0  0  0  0  0  2  0  0  0  0  0  0
  185.8210  178.5040  146.2670 C   0  0  0  0  0  0  0  0  0  0  0  0
  184.3690  179.3750  144.4120 C   0  0  0  0  0  2  0  0  0  0  0  0
  193.1450  175.9050  147.3250 F   0  0  0  0  0  0  0  0  0  0  0  0
  191.4830  176.0440  145.6230 C   0  0  0  0  0  3  0  0  0  0  0  0
  187.1780  178.0680  146.6710 C   0  0  0  0  0  0  0  0  0  0  0  0
  185.0390  179.0500  142.0250 C   0  0  0  0  0  2  0  0  0  0  0  0
  186.5500  178.2490  143.8840 C   0  0  1  0  0  3  0  0  0  0  0  0
  187.2140  177.9940  141.4680 C   0  0  0  0  0  0  0  0  0  0  0  0
  188.5170  177.6680  141.8760 C   0  0  0  0  0  3  0  0  0  0  0  0
  189.3110  177.9790  139.6090 C   0  0  0  0  0  0  0  0  0  0  0  0
  186.9690  178.3120  140.1290 C   0  0  0  0  0  3  0  0  0  0  0  0
  191.1800  177.2450  141.4910 Cl  0  0  0  0  0  0  0  0  0  0  0  0
  189.5640  177.6600  140.9510 C   0  0  0  0  0  0  0  0  0  0  0  0
  190.3410  177.9740  138.6760 O   0  0  0  0  0  1  0  0  0  0  0  0
  188.0140  178.3050  139.2020 C   0  0  0  0  0  3  0  0  0  0  0  0
  1 21  1  6  0  0  0
  1 20  1  0  0  0  0
  2 17  2  0  0  0  0
  2  7  1  0  0  0  0
  4  9  1  0  0  0  0
  4 12  1  0  0  0  0
  5  7  1  0  0  0  0
  5 18  2  0  0  0  0
  6 16  1  0  0  0  0
  6  9  2  0  0  0  0
  7  4  2  0  0  0  0
  8 12  2  0  0  0  0
 10 15  1  6  0  0  0
 10 14  1  0  0  0  0
 11  5  1  0  0  0  0
 13 15  1  0  0  0  0
 14 18  1  0  0  0  0
 14  3  2  0  0  0  0
 17  6  1  0  0  0  0
 18  8  1  0  0  0  0
 19  1  1  0  0  0  0
 19 13  1  0  0  0  0
 20 11  1  1  0  0  0
 20 10  1  0  0  0  0
 21 22  1  0  0  0  0
 23 26  1  0  0  0  0
 24 21  2  0  0  0  0
 26 25  1  0  0  0  0
 26 22  2  0  0  0  0
 27 23  1  0  0  0  0
 28 23  2  0  0  0  0
 28 24  1  0  0  0  0
M  END
>  <MODEL>
2

>  <REMARK>
 VINA RESULT:     -12.1      3.055      6.103
  Name = 
  1 active torsions:
  status: ('A' for Active; 'I' for Inactive)
    1  A    between atoms: C_1  and  C_2
                            x       y       z     vdW  Elec       q    Type
                         _______ _______ _______ _____ _____    ______ ____

>  <TORSDO>
F 1

$$$$
=
 OpenBabel10272402003D

 28 32  0  0  1  0  0  0  0  0999 V2000
  186.5940  177.8790  142.2080 C   0  0  2  0  0  3  0  0  0  0  0  0
  190.4340  176.3280  145.3790 C   0  0  0  0  0  3  0  0  0  0  0  0
  185.1940  179.0830  146.7430 O   0  0  0  0  0  0  0  0  0  0  0  0
  189.8330  177.2880  147.5300 C   0  0  0  0  0  0  0  0  0  0  0  0
  188.2600  177.4230  145.6660 C   0  0  0  0  0  0  0  0  0  0  0  0
  191.9820  176.2100  147.2390 C   0  0  0  0  0  0  0  0  0  0  0  0
  189.5050  177.0100  146.1800 C   0  0  0  0  0  0  0  0  0  0  0  0
  187.6900  178.3630  147.8390 C   0  0  0  0  0  3  0  0  0  0  0  0
  191.0680  176.8870  148.0480 C   0  0  0  0  0  3  0  0  0  0  0  0
  185.6870  178.2880  144.5310 C   0  0  1  0  0  3  0  0  0  0  0  0
  187.8650  177.0900  144.2500 C   0  0  0  0  0  2  0  0  0  0  0  0
  188.9250  177.9610  148.3480 C   0  0  0  0  0  3  0  0  0  0  0  0
  184.3810  179.0280  142.5380 C   0  0  0  0  0  2  0  0  0  0  0  0
  186.0390  178.5480  145.9740 C   0  0  0  0  0  0  0  0  0  0  0  0
  184.7700  179.3740  143.9700 C   0  0  0  0  0  2  0  0  0  0  0  0
  193.1770  175.8230  147.7460 F   0  0  0  0  0  0  0  0  0  0  0  0
  191.6660  175.9300  145.9070 C   0  0  0  0  0  3  0  0  0  0  0  0
  187.3460  178.0970  146.5070 C   0  0  0  0  0  0  0  0  0  0  0  0
  185.6260  178.9340  141.6630 C   0  0  0  0  0  2  0  0  0  0  0  0
  186.9560  178.1760  143.6730 C   0  0  1  0  0  3  0  0  0  0  0  0
  187.8110  177.8040  141.3340 C   0  0  0  0  0  0  0  0  0  0  0  0
  187.8350  178.4130  140.0690 C   0  0  0  0  0  3  0  0  0  0  0  0
  190.1110  177.6530  139.7390 C   0  0  0  0  0  0  0  0  0  0  0  0
  188.9400  177.1200  141.7930 C   0  0  0  0  0  3  0  0  0  0  0  0
  188.9820  179.1150  137.7000 Cl  0  0  0  0  0  0  0  0  0  0  0  0
  188.9820  178.3390  139.2730 C   0  0  0  0  0  0  0  0  0  0  0  0
  191.2600  177.5700  138.9610 O   0  0  0  0  0  1  0  0  0  0  0  0
  190.0870  177.0440  140.9980 C   0  0  0  0  0  3  0  0  0  0  0  0
  1 21  1  6  0  0  0
  1 20  1  0  0  0  0
  2 17  2  0  0  0  0
  2  7  1  0  0  0  0
  4  9  1  0  0  0  0
  4 12  1  0  0  0  0
  5  7  1  0  0  0  0
  5 18  2  0  0  0  0
  6 16  1  0  0  0  0
  6  9  2  0  0  0  0
  7  4  2  0  0  0  0
  8 12  2  0  0  0  0
 10 15  1  6  0  0  0
 10 14  1  0  0  0  0
 11  5  1  0  0  0  0
 13 15  1  0  0  0  0
 14 18  1  0  0  0  0
 14  3  2  0  0  0  0
 17  6  1  0  0  0  0
 18  8  1  0  0  0  0
 19  1  1  0  0  0  0
 19 13  1  0  0  0  0
 20 11  1  1  0  0  0
 20 10  1  0  0  0  0
 21 24  1  0  0  0  0
 22 21  2  0  0  0  0
 23 28  1  0  0  0  0
 25 26  1  0  0  0  0
 26 23  2  0  0  0  0
 26 22  1  0  0  0  0
 27 23  1  0  0  0  0
 28 24  2  0  0  0  0
M  END
>  <MODEL>
3

>  <REMARK>
 VINA RESULT:     -11.9      2.992      6.251
  Name = 
  1 active torsions:
  status: ('A' for Active; 'I' for Inactive)
    1  A    between atoms: C_1  and  C_2
                            x       y       z     vdW  Elec       q    Type
                         _______ _______ _______ _____ _____    ______ ____

>  <TORSDO>
F 1

$$$$
=
 OpenBabel10272402003D

 28 32  0  0  1  0  0  0  0  0999 V2000
  185.1350  177.9860  144.2580 C   0  0  2  0  0  3  0  0  0  0  0  0
  189.2130  177.0410  141.1470 C   0  0  0  0  0  3  0  0  0  0  0  0
  189.0890  177.9880  147.1470 O   0  0  0  0  0  0  0  0  0  0  0  0
  191.1380  177.4280  142.5810 C   0  0  0  0  0  0  0  0  0  0  0  0
  188.8930  177.4340  143.5460 C   0  0  0  0  0  0  0  0  0  0  0  0
  191.4470  177.0430  140.2100 C   0  0  0  0  0  0  0  0  0  0  0  0
  189.7360  177.2990  142.4240 C   0  0  0  0  0  0  0  0  0  0  0  0
  190.8470  177.8070  144.9500 C   0  0  0  0  0  3  0  0  0  0  0  0
  191.9820  177.3000  141.4740 C   0  0  0  0  0  3  0  0  0  0  0  0
  187.0850  177.7380  145.8460 C   0  0  1  0  0  3  0  0  0  0  0  0
  187.4040  177.2470  143.4140 C   0  0  0  0  0  2  0  0  0  0  0  0
  191.6820  177.6790  143.8410 C   0  0  0  0  0  3  0  0  0  0  0  0
  184.8480  178.4130  146.7210 C   0  0  0  0  0  2  0  0  0  0  0  0
  188.5820  177.8400  146.0010 C   0  0  0  0  0  0  0  0  0  0  0  0
  186.3520  178.6090  146.8660 C   0  0  0  0  0  2  0  0  0  0  0  0
  192.2690  176.9200  139.1400 F   0  0  0  0  0  0  0  0  0  0  0  0
  190.0650  176.9130  140.0460 C   0  0  0  0  0  3  0  0  0  0  0  0
  189.4580  177.6830  144.8170 C   0  0  0  0  0  0  0  0  0  0  0  0
  184.3990  178.8110  145.3190 C   0  0  0  0  0  2  0  0  0  0  0  0
  186.6580  178.1230  144.4210 C   0  0  1  0  0  3  0  0  0  0  0  0
  184.6790  178.3950  142.8890 C   0  0  0  0  0  0  0  0  0  0  0  0
  183.3160  178.4100  142.5510 C   0  0  0  0  0  3  0  0  0  0  0  0
  183.8700  179.1800  140.3220 C   0  0  0  0  0  0  0  0  0  0  0  0
  185.6300  178.7720  141.9370 C   0  0  0  0  0  3  0  0  0  0  0  0
  181.2010  178.8130  140.8830 Cl  0  0  0  0  0  0  0  0  0  0  0  0
  182.9120  178.8010  141.2720 C   0  0  0  0  0  0  0  0  0  0  0  0
  183.4840  179.5730  139.0460 O   0  0  0  0  0  1  0  0  0  0  0  0
  185.2280  179.1630  140.6570 C   0  0  0  0  0  3  0  0  0  0  0  0
  1 21  1  6  0  0  0
  1 20  1  0  0  0  0
  1 19  1  0  0  0  0
  2  7  1  0  0  0  0
  4 12  1  0  0  0  0
  5 18  2  0  0  0  0
  6  9  2  0  0  0  0
  7  4  2  0  0  0  0
  7  5  1  0  0  0  0
  9  4  1  0  0  0  0
 10 14  1  0  0  0  0
 10 15  1  1  0  0  0
 11  5  1  0  0  0  0
 12  8  2  0  0  0  0
 13 15  1  0  0  0  0
 14  3  2  0  0  0  0
 16  6  1  0  0  0  0
 17  6  1  0  0  0  0
 17  2  2  0  0  0  0
 18  8  1  0  0  0  0
 18 14  1  0  0  0  0
 19 13  1  0  0  0  0
 20 11  1  6  0  0  0
 20 10  1  0  0  0  0
 22 21  1  0  0  0  0
 23 28  2  0  0  0  0
 23 26  1  0  0  0  0
 24 21  2  0  0  0  0
 25 26  1  0  0  0  0
 26 22  2  0  0  0  0
 27 23  1  0  0  0  0
 28 24  1  0  0  0  0
M  END
>  <MODEL>
4

>  <REMARK>
 VINA RESULT:     -11.7      1.804      2.711
  Name = 
  1 active torsions:
  status: ('A' for Active; 'I' for Inactive)
    1  A    between atoms: C_1  and  C_2
                            x       y       z     vdW  Elec       q    Type
                         _______ _______ _______ _____ _____    ______ ____

>  <TORSDO>
F 1

$$$$
=
 OpenBabel10272402003D

 28 32  0  0  1  0  0  0  0  0999 V2000
  185.1670  178.1120  141.6810 C   0  0  2  0  0  3  0  0  0  0  0  0
  189.4110  176.8060  144.4170 C   0  0  0  0  0  3  0  0  0  0  0  0
  184.0500  178.8760  146.3870 O   0  0  0  0  0  0  0  0  0  0  0  0
  188.9030  177.5620  146.6710 C   0  0  0  0  0  0  0  0  0  0  0  0
  187.1670  177.6340  144.9540 C   0  0  0  0  0  0  0  0  0  0  0  0
  191.1190  176.7470  146.1340 C   0  0  0  0  0  0  0  0  0  0  0  0
  188.4890  177.3310  145.3360 C   0  0  0  0  0  0  0  0  0  0  0  0
  186.6940  178.3710  147.2260 C   0  0  0  0  0  3  0  0  0  0  0  0
  190.2130  177.2690  147.0590 C   0  0  0  0  0  3  0  0  0  0  0  0
  184.4280  178.2760  144.0920 C   0  0  1  0  0  3  0  0  0  0  0  0
  186.6880  177.3460  143.5540 C   0  0  0  0  0  2  0  0  0  0  0  0
  188.0040  178.0780  147.6040 C   0  0  0  0  0  3  0  0  0  0  0  0
  182.8820  178.9870  142.2670 C   0  0  0  0  0  2  0  0  0  0  0  0
  184.8760  178.4850  145.5170 C   0  0  0  0  0  0  0  0  0  0  0  0
  183.3570  179.2860  143.6840 C   0  0  0  0  0  2  0  0  0  0  0  0
  192.3890  176.4660  146.5150 F   0  0  0  0  0  0  0  0  0  0  0  0
  190.7200  176.5150  144.8150 C   0  0  0  0  0  3  0  0  0  0  0  0
  186.2640  178.1510  145.9110 C   0  0  0  0  0  0  0  0  0  0  0  0
  184.0490  179.0850  141.2910 C   0  0  0  0  0  2  0  0  0  0  0  0
  185.6220  178.3580  143.1290 C   0  0  1  0  0  3  0  0  0  0  0  0
  186.3030  178.2260  140.7080 C   0  0  0  0  0  0  0  0  0  0  0  0
  186.0930  178.0990  139.3260 C   0  0  0  0  0  3  0  0  0  0  0  0
  188.4540  178.4620  138.9260 C   0  0  0  0  0  0  0  0  0  0  0  0
  187.5930  178.4690  141.1910 C   0  0  0  0  0  3  0  0  0  0  0  0
  186.8670  178.0580  136.7150 Cl  0  0  0  0  0  0  0  0  0  0  0  0
  187.1640  178.2170  138.4370 C   0  0  0  0  0  0  0  0  0  0  0  0
  189.5310  178.5820  138.0550 O   0  0  0  0  0  1  0  0  0  0  0  0
  188.6660  178.5860  140.3030 C   0  0  0  0  0  3  0  0  0  0  0  0
  1 21  1  6  0  0  0
  1 20  1  0  0  0  0
  2 17  2  0  0  0  0
  2  7  1  0  0  0  0
  4  9  1  0  0  0  0
  4 12  1  0  0  0  0
  5  7  1  0  0  0  0
  5 18  2  0  0  0  0
  6 16  1  0  0  0  0
  6  9  2  0  0  0  0
  7  4  2  0  0  0  0
  8 12  2  0  0  0  0
 10 15  1  6  0  0  0
 10 14  1  0  0  0  0
 11  5  1  0  0  0  0
 13 15  1  0  0  0  0
 14 18  1  0  0  0  0
 14  3  2  0  0  0  0
 17  6  1  0  0  0  0
 18  8  1  0  0  0  0
 19  1  1  0  0  0  0
 19 13  1  0  0  0  0
 20 11  1  1  0  0  0
 20 10  1  0  0  0  0
 21 24  1  0  0  0  0
 22 21  2  0  0  0  0
 23 28  1  0  0  0  0
 25 26  1  0  0  0  0
 26 23  2  0  0  0  0
 26 22  1  0  0  0  0
 27 23  1  0  0  0  0
 28 24  2  0  0  0  0
M  END
>  <MODEL>
5

>  <REMARK>
 VINA RESULT:     -11.4      2.957      6.084
  Name = 
  1 active torsions:
  status: ('A' for Active; 'I' for Inactive)
    1  A    between atoms: C_1  and  C_2
                            x       y       z     vdW  Elec       q    Type
                         _______ _______ _______ _____ _____    ______ ____

>  <TORSDO>
F 1

$$$$
=
 OpenBabel10272402003D

 28 32  0  0  1  0  0  0  0  0999 V2000
  188.6700  178.0390  144.6690 C   0  0  2  0  0  3  0  0  0  0  0  0
  184.9420  178.9900  141.1480 C   0  0  0  0  0  3  0  0  0  0  0  0
  184.4820  178.4130  147.1790 O   0  0  0  0  0  0  0  0  0  0  0  0
  182.8790  178.7890  142.4190 C   0  0  0  0  0  0  0  0  0  0  0  0
  185.0260  178.7310  143.5840 C   0  0  0  0  0  0  0  0  0  0  0  0
  182.8030  179.0400  140.0110 C   0  0  0  0  0  0  0  0  0  0  0  0
  184.2940  178.8380  142.3840 C   0  0  0  0  0  0  0  0  0  0  0  0
  182.9370  178.5440  144.8230 C   0  0  0  0  0  3  0  0  0  0  0  0
  182.1450  178.8890  141.2340 C   0  0  0  0  0  3  0  0  0  0  0  0
  186.6030  178.4820  146.0550 C   0  0  1  0  0  3  0  0  0  0  0  0
  186.5290  178.8360  143.5790 C   0  0  0  0  0  2  0  0  0  0  0  0
  182.2130  178.6430  143.6360 C   0  0  0  0  0  3  0  0  0  0  0  0
  188.7140  177.7530  147.1690 C   0  0  0  0  0  2  0  0  0  0  0  0
  185.0950  178.4640  146.0770 C   0  0  0  0  0  0  0  0  0  0  0  0
  187.1940  177.6410  147.1860 C   0  0  0  0  0  2  0  0  0  0  0  0
  182.0870  179.1360  138.8650 F   0  0  0  0  0  0  0  0  0  0  0  0
  184.1990  179.0900  139.9670 C   0  0  0  0  0  3  0  0  0  0  0  0
  184.3380  178.5910  144.8110 C   0  0  0  0  0  0  0  0  0  0  0  0
  189.2630  177.2470  145.8390 C   0  0  0  0  0  2  0  0  0  0  0  0
  187.1340  177.9890  144.7000 C   0  0  1  0  0  3  0  0  0  0  0  0
  189.2230  177.5240  143.3740 C   0  0  0  0  0  0  0  0  0  0  0  0
  188.8820  178.1210  142.1500 C   0  0  0  0  0  3  0  0  0  0  0  0
  190.2920  176.5390  140.9770 C   0  0  0  0  0  0  0  0  0  0  0  0
  190.0980  176.4340  143.3900 C   0  0  0  0  0  3  0  0  0  0  0  0
  188.9720  178.4020  139.4420 Cl  0  0  0  0  0  0  0  0  0  0  0  0
  189.4140  177.6310  140.9540 C   0  0  0  0  0  0  0  0  0  0  0  0
  190.8310  176.0390  139.7970 O   0  0  0  0  0  1  0  0  0  0  0  0
  190.6310  175.9420  142.1960 C   0  0  0  0  0  3  0  0  0  0  0  0
  1 21  1  6  0  0  0
  1 20  1  0  0  0  0
  1 19  1  0  0  0  0
  2  7  1  0  0  0  0
  4 12  1  0  0  0  0
  5 18  2  0  0  0  0
  6  9  2  0  0  0  0
  7  4  2  0  0  0  0
  7  5  1  0  0  0  0
  9  4  1  0  0  0  0
 10 14  1  0  0  0  0
 10 15  1  1  0  0  0
 11  5  1  0  0  0  0
 12  8  2  0  0  0  0
 13 15  1  0  0  0  0
 14  3  2  0  0  0  0
 16  6  1  0  0  0  0
 17  6  1  0  0  0  0
 17  2  2  0  0  0  0
 18  8  1  0  0  0  0
 18 14  1  0  0  0  0
 19 13  1  0  0  0  0
 20 11  1  6  0  0  0
 20 10  1  0  0  0  0
 21 24  1  0  0  0  0
 22 21  2  0  0  0  0
 23 28  1  0  0  0  0
 25 26  1  0  0  0  0
 26 23  2  0  0  0  0
 26 22  1  0  0  0  0
 27 23  1  0  0  0  0
 28 24  2  0  0  0  0
M  END
>  <MODEL>
6

>  <REMARK>
 VINA RESULT:     -11.0      2.742      6.117
  Name = 
  1 active torsions:
  status: ('A' for Active; 'I' for Inactive)
    1  A    between atoms: C_1  and  C_2
                            x       y       z     vdW  Elec       q    Type
                         _______ _______ _______ _____ _____    ______ ____

>  <TORSDO>
F 1

$$$$
=
 OpenBabel10272402003D

 28 32  0  0  1  0  0  0  0  0999 V2000
  184.1760  178.2120  142.3060 C   0  0  2  0  0  3  0  0  0  0  0  0
  189.0060  176.4280  143.1420 C   0  0  0  0  0  3  0  0  0  0  0  0
  185.0130  178.7230  147.1040 O   0  0  0  0  0  0  0  0  0  0  0  0
  189.4660  177.0590  145.4440 C   0  0  0  0  0  0  0  0  0  0  0  0
  187.2210  177.3700  144.5340 C   0  0  0  0  0  0  0  0  0  0  0  0
  191.2270  176.1310  144.0630 C   0  0  0  0  0  0  0  0  0  0  0  0
  188.5560  176.9510  144.3650 C   0  0  0  0  0  0  0  0  0  0  0  0
  187.7190  177.9790  146.8380 C   0  0  0  0  0  3  0  0  0  0  0  0
  190.7940  176.6490  145.2850 C   0  0  0  0  0  3  0  0  0  0  0  0
  184.4310  178.2590  144.8210 C   0  0  1  0  0  3  0  0  0  0  0  0
  186.2200  177.2140  143.4180 C   0  0  0  0  0  2  0  0  0  0  0  0
  189.0420  177.5700  146.6700 C   0  0  0  0  0  3  0  0  0  0  0  0
  182.3770  179.2000  143.7610 C   0  0  0  0  0  2  0  0  0  0  0  0
  185.4060  178.3370  145.9690 C   0  0  0  0  0  0  0  0  0  0  0  0
  183.3810  179.3670  144.8950 C   0  0  0  0  0  2  0  0  0  0  0  0
  192.5140  175.7370  143.9130 F   0  0  0  0  0  0  0  0  0  0  0  0
  190.3350  176.0200  142.9930 C   0  0  0  0  0  3  0  0  0  0  0  0
  186.8020  177.8810  145.7830 C   0  0  0  0  0  0  0  0  0  0  0  0
  183.0870  179.2840  142.4150 C   0  0  0  0  0  2  0  0  0  0  0  0
  185.1700  178.3240  143.4750 C   0  0  1  0  0  3  0  0  0  0  0  0
  184.8610  178.3140  140.9760 C   0  0  0  0  0  0  0  0  0  0  0  0
  186.2590  178.3990  140.8820 C   0  0  0  0  0  3  0  0  0  0  0  0
  186.0990  178.4870  138.4670 C   0  0  0  0  0  0  0  0  0  0  0  0
  184.0890  178.3180  139.8100 C   0  0  0  0  0  3  0  0  0  0  0  0
  188.6270  178.5860  139.5490 Cl  0  0  0  0  0  0  0  0  0  0  0  0
  186.8770  178.4850  139.6320 C   0  0  0  0  0  0  0  0  0  0  0  0
  186.6990  178.5710  137.2160 O   0  0  0  0  0  1  0  0  0  0  0  0
  184.7060  178.4050  138.5590 C   0  0  0  0  0  3  0  0  0  0  0  0
  1 21  1  6  0  0  0
  1 19  1  0  0  0  0
  1 20  1  0  0  0  0
  2  7  1  0  0  0  0
  4 12  1  0  0  0  0
  5 18  2  0  0  0  0
  6  9  2  0  0  0  0
  7  5  1  0  0  0  0
  7  4  2  0  0  0  0
  9  4  1  0  0  0  0
 10 15  1  1  0  0  0
 10 14  1  0  0  0  0
 11  5  1  0  0  0  0
 12  8  2  0  0  0  0
 13 15  1  0  0  0  0
 14  3  2  0  0  0  0
 16  6  1  0  0  0  0
 17  2  2  0  0  0  0
 17  6  1  0  0  0  0
 18 14  1  0  0  0  0
 18  8  1  0  0  0  0
 19 13  1  0  0  0  0
 20 11  1  1  0  0  0
 20 10  1  0  0  0  0
 22 21  1  0  0  0  0
 23 28  2  0  0  0  0
 23 26  1  0  0  0  0
 24 21  2  0  0  0  0
 25 26  1  0  0  0  0
 26 22  2  0  0  0  0
 27 23  1  0  0  0  0
 28 24  1  0  0  0  0
M  END
>  <MODEL>
7

>  <REMARK>
 VINA RESULT:     -10.9      2.776      5.220
  Name = 
  1 active torsions:
  status: ('A' for Active; 'I' for Inactive)
    1  A    between atoms: C_1  and  C_2
                            x       y       z     vdW  Elec       q    Type
                         _______ _______ _______ _____ _____    ______ ____

>  <TORSDO>
F 1

$$$$
=
 OpenBabel10272402003D

 28 32  0  0  1  0  0  0  0  0999 V2000
  190.6160  177.5250  144.5980 C   0  0  2  0  0  3  0  0  0  0  0  0
  185.8180  178.8940  143.0750 C   0  0  0  0  0  3  0  0  0  0  0  0
  187.8090  177.3600  148.6070 O   0  0  0  0  0  0  0  0  0  0  0  0
  184.4380  178.4270  145.0210 C   0  0  0  0  0  0  0  0  0  0  0  0
  186.8690  178.2580  145.1970 C   0  0  0  0  0  0  0  0  0  0  0  0
  183.4060  179.0510  142.9210 C   0  0  0  0  0  0  0  0  0  0  0  0
  185.7200  178.5270  144.4270 C   0  0  0  0  0  0  0  0  0  0  0  0
  185.4520  177.8090  147.1270 C   0  0  0  0  0  3  0  0  0  0  0  0
  183.2920  178.6880  144.2640 C   0  0  0  0  0  3  0  0  0  0  0  0
  189.2990  177.6760  146.7500 C   0  0  1  0  0  3  0  0  0  0  0  0
  188.2450  178.4120  144.6030 C   0  0  0  0  0  2  0  0  0  0  0  0
  184.3140  178.0690  146.3640 C   0  0  0  0  0  3  0  0  0  0  0  0
  191.6540  176.8500  146.7880 C   0  0  0  0  0  2  0  0  0  0  0  0
  187.9280  177.6040  147.3750 C   0  0  0  0  0  0  0  0  0  0  0  0
  190.2670  176.6870  147.3990 C   0  0  0  0  0  2  0  0  0  0  0  0
  182.2930  179.3030  142.1910 F   0  0  0  0  0  0  0  0  0  0  0  0
  184.6670  179.1540  142.3260 C   0  0  0  0  0  3  0  0  0  0  0  0
  186.7290  177.9030  146.5590 C   0  0  0  0  0  0  0  0  0  0  0  0
  191.6030  176.5790  145.2890 C   0  0  0  0  0  2  0  0  0  0  0  0
  189.2210  177.4190  145.2370 C   0  0  1  0  0  3  0  0  0  0  0  0
  190.5820  177.2390  143.1260 C   0  0  0  0  0  0  0  0  0  0  0  0
  191.7300  177.3820  142.3310 C   0  0  0  0  0  3  0  0  0  0  0  0
  190.4760  176.6790  140.3810 C   0  0  0  0  0  0  0  0  0  0  0  0
  189.3850  176.8170  142.5400 C   0  0  0  0  0  3  0  0  0  0  0  0
  193.1320  177.2880  139.9970 Cl  0  0  0  0  0  0  0  0  0  0  0  0
  191.6790  177.1030  140.9620 C   0  0  0  0  0  0  0  0  0  0  0  0
  190.4090  176.3960  139.0220 O   0  0  0  0  0  1  0  0  0  0  0  0
  189.3310  176.5380  141.1720 C   0  0  0  0  0  3  0  0  0  0  0  0
  1 21  1  6  0  0  0
  1 20  1  0  0  0  0
  1 19  1  0  0  0  0
  2  7  1  0  0  0  0
  4 12  1  0  0  0  0
  5 18  2  0  0  0  0
  6  9  2  0  0  0  0
  7  4  2  0  0  0  0
  7  5  1  0  0  0  0
  9  4  1  0  0  0  0
 10 14  1  0  0  0  0
 10 15  1  1  0  0  0
 11  5  1  0  0  0  0
 12  8  2  0  0  0  0
 13 15  1  0  0  0  0
 14  3  2  0  0  0  0
 16  6  1  0  0  0  0
 17  6  1  0  0  0  0
 17  2  2  0  0  0  0
 18  8  1  0  0  0  0
 18 14  1  0  0  0  0
 19 13  1  0  0  0  0
 20 11  1  6  0  0  0
 20 10  1  0  0  0  0
 22 21  2  0  0  0  0
 23 26  2  0  0  0  0
 23 28  1  0  0  0  0
 24 21  1  0  0  0  0
 25 26  1  0  0  0  0
 26 22  1  0  0  0  0
 27 23  1  0  0  0  0
 28 24  2  0  0  0  0
M  END
>  <MODEL>
8

>  <REMARK>
 VINA RESULT:     -10.9      3.050      6.110
  Name = 
  1 active torsions:
  status: ('A' for Active; 'I' for Inactive)
    1  A    between atoms: C_1  and  C_2
                            x       y       z     vdW  Elec       q    Type
                         _______ _______ _______ _____ _____    ______ ____

>  <TORSDO>
F 1

$$$$
=
 OpenBabel10272402003D

 28 32  0  0  1  0  0  0  0  0999 V2000
  186.8370  178.3200  145.0130 C   0  0  2  0  0  3  0  0  0  0  0  0
  186.7480  178.3270  139.7980 C   0  0  0  0  0  3  0  0  0  0  0  0
  182.1680  179.0420  143.7260 O   0  0  0  0  0  0  0  0  0  0  0  0
  184.3780  178.3140  139.2590 C   0  0  0  0  0  0  0  0  0  0  0  0
  185.0860  178.6020  141.5790 C   0  0  0  0  0  0  0  0  0  0  0  0
  186.0240  178.0380  137.5040 C   0  0  0  0  0  0  0  0  0  0  0  0
  185.4120  178.4160  140.2210 C   0  0  0  0  0  0  0  0  0  0  0  0
  182.7210  178.5960  140.9970 C   0  0  0  0  0  3  0  0  0  0  0  0
  184.6910  178.1250  137.9100 C   0  0  0  0  0  3  0  0  0  0  0  0
  184.4620  178.9600  144.4320 C   0  0  1  0  0  3  0  0  0  0  0  0
  186.1700  178.7690  142.6130 C   0  0  0  0  0  2  0  0  0  0  0  0
  183.0420  178.4050  139.6530 C   0  0  0  0  0  3  0  0  0  0  0  0
  185.1000  178.5800  146.8140 C   0  0  0  0  0  2  0  0  0  0  0  0
  183.3740  178.8810  143.3910 C   0  0  0  0  0  0  0  0  0  0  0  0
  183.9960  178.4080  145.7780 C   0  0  0  0  0  2  0  0  0  0  0  0
  186.3220  177.8540  136.1960 F   0  0  0  0  0  0  0  0  0  0  0  0
  187.0520  178.1390  138.4460 C   0  0  0  0  0  3  0  0  0  0  0  0
  183.7300  178.6990  141.9640 C   0  0  0  0  0  0  0  0  0  0  0  0
  186.3510  177.8240  146.3780 C   0  0  0  0  0  2  0  0  0  0  0  0
  185.7190  178.2100  143.9630 C   0  0  1  0  0  3  0  0  0  0  0  0
  188.0660  177.5630  144.6050 C   0  0  0  0  0  0  0  0  0  0  0  0
  189.2330  177.5980  145.3840 C   0  0  0  0  0  3  0  0  0  0  0  0
  190.3350  176.1200  143.8120 C   0  0  0  0  0  0  0  0  0  0  0  0
  188.0420  176.8050  143.4300 C   0  0  0  0  0  3  0  0  0  0  0  0
  191.8070  176.9390  145.9880 Cl  0  0  0  0  0  0  0  0  0  0  0  0
  190.3650  176.8780  144.9900 C   0  0  0  0  0  0  0  0  0  0  0  0
  191.4510  175.3980  143.4070 O   0  0  0  0  0  1  0  0  0  0  0  0
  189.1730  176.0860  143.0340 C   0  0  0  0  0  3  0  0  0  0  0  0
  1 21  1  6  0  0  0
  1 19  1  0  0  0  0
  2  7  1  0  0  0  0
  4 12  2  0  0  0  0
  4  7  1  0  0  0  0
  5 18  1  0  0  0  0
  5 11  1  0  0  0  0
  6  9  2  0  0  0  0
  6 17  1  0  0  0  0
  7  5  2  0  0  0  0
  8 18  2  0  0  0  0
  9  4  1  0  0  0  0
 10 15  1  1  0  0  0
 12  8  1  0  0  0  0
 14  3  2  0  0  0  0
 14 10  1  0  0  0  0
 15 13  1  0  0  0  0
 16  6  1  0  0  0  0
 17  2  2  0  0  0  0
 18 14  1  0  0  0  0
 19 13  1  0  0  0  0
 20 11  1  6  0  0  0
 20 10  1  0  0  0  0
 20  1  1  0  0  0  0
 21 22  1  0  0  0  0
 23 26  1  0  0  0  0
 24 21  2  0  0  0  0
 26 22  2  0  0  0  0
 26 25  1  0  0  0  0
 27 23  1  0  0  0  0
 28 24  1  0  0  0  0
 28 23  2  0  0  0  0
M  END
>  <MODEL>
9

>  <REMARK>
 VINA RESULT:     -10.7      2.720      6.039
  Name = 
  1 active torsions:
  status: ('A' for Active; 'I' for Inactive)
    1  A    between atoms: C_1  and  C_2
                            x       y       z     vdW  Elec       q    Type
                         _______ _______ _______ _____ _____    ______ ____

>  <TORSDO>
F 1

$$$$
