=
 OpenBabel10272400393D

 25 29  0  0  1  0  0  0  0  0999 V2000
  187.0640  177.9500  145.5350 C   0  0  0  0  0  0  0  0  0  0  0  0
  188.3020  177.1720  145.2150 C   0  0  1  0  0  3  0  0  0  0  0  0
  187.5460  178.1310  147.9080 C   0  0  0  0  0  3  0  0  0  0  0  0
  185.9660  178.1870  144.8400 C   0  0  0  0  0  0  0  0  0  0  0  0
  183.4550  178.8340  143.8590 C   0  0  0  0  0  3  0  0  0  0  0  0
  188.8970  177.5800  147.6320 C   0  0  0  0  0  3  0  0  0  0  0  0
  185.0020  178.7190  145.6910 C   0  0  0  0  0  0  0  0  0  0  0  0
  183.7360  179.0560  145.2170 C   0  0  0  0  0  3  0  0  0  0  0  0
  190.6640  176.7790  146.1180 C   0  0  0  0  0  0  0  0  0  0  0  0
  191.7330  176.2260  147.3960 Cl  0  0  0  0  0  0  0  0  0  0  0  0
  188.9800  177.6140  143.9470 C   0  0  0  0  0  3  0  0  0  0  0  0
  184.4290  178.2770  143.0040 C   0  0  0  0  0  3  0  0  0  0  0  0
  186.7180  178.3180  146.8830 C   0  0  0  0  0  0  0  0  0  0  0  0
  185.3860  178.8200  146.9290 N   0  0  0  0  0  0  0  0  0  0  0  0
  191.1400  176.9010  144.8730 C   0  0  0  0  0  3  0  0  0  0  0  0
  185.7020  177.9410  143.4930 C   0  0  0  0  0  3  0  0  0  0  0  0
  190.2950  177.4250  143.7740 C   0  0  0  0  0  0  0  0  0  0  0  0
  189.2710  177.1830  146.3950 C   0  0  0  0  0  0  0  0  0  0  0  0
  190.9230  177.7800  142.4720 C   0  0  0  0  0  2  0  0  0  0  0  0
  190.3060  176.9590  141.3540 C   0  0  2  0  0  3  0  0  0  0  0  0
  190.4790  177.7050  140.0440 C   0  0  2  0  0  3  0  0  0  0  0  0
  189.1400  177.7170  140.7580 C   0  0  0  0  0  2  0  0  0  0  0  0
  190.4430  176.7380  138.9060 C   0  0  0  0  0  0  0  0  0  0  0  0
  189.9330  177.1270  137.6740 O   0  0  0  0  0  0  0  0  0  0  0  0
  190.8340  175.5530  139.0730 O   0  0  0  0  0  1  0  0  0  0  0  0
  1 13  1  0  0  0  0
  2 11  1  6  0  0  0
  2  1  1  0  0  0  0
  2 18  1  0  0  0  0
  4  1  2  0  0  0  0
  4  7  1  0  0  0  0
  5  8  2  0  0  0  0
  6  3  1  0  0  0  0
  7 14  2  0  0  0  0
  8  7  1  0  0  0  0
  9 18  1  0  0  0  0
  9 10  1  0  0  0  0
 12 16  2  0  0  0  0
 12  5  1  0  0  0  0
 13 14  1  0  0  0  0
 13  3  2  0  0  0  0
 15  9  2  0  0  0  0
 16  4  1  0  0  0  0
 17 11  2  0  0  0  0
 17 15  1  0  0  0  0
 18  6  2  0  0  0  0
 19 17  1  0  0  0  0
 20 19  1  1  0  0  0
 21 23  1  6  0  0  0
 21 22  1  0  0  0  0
 21 20  1  0  0  0  0
 22 20  1  0  0  0  0
 23 25  1  0  0  0  0
 24 23  2  0  0  0  0
M  END
>  <MODEL>
1

>  <REMARK>
 VINA RESULT:     -11.3      0.000      0.000
  Name = 
  3 active torsions:
  status: ('A' for Active; 'I' for Inactive)
    1  A    between atoms: C_2  and  C_21
    2  A    between atoms: C_6  and  C_15
    3  A    between atoms: C_6  and  C_23
                            x       y       z     vdW  Elec       q    Type
                         _______ _______ _______ _____ _____    ______ ____

>  <TORSDO>
F 3

$$$$
=
 OpenBabel10272400393D

 25 29  0  0  1  0  0  0  0  0999 V2000
  187.1960  177.9750  142.4520 C   0  0  0  0  0  0  0  0  0  0  0  0
  186.3100  177.6700  143.6180 C   0  0  1  0  0  3  0  0  0  0  0  0
  185.4940  179.1920  141.2190 C   0  0  0  0  0  3  0  0  0  0  0  0
  188.3740  177.5000  142.0890 C   0  0  0  0  0  0  0  0  0  0  0  0
  190.7300  176.7270  140.8490 C   0  0  0  0  0  3  0  0  0  0  0  0
  184.6390  179.1380  142.4310 C   0  0  0  0  0  3  0  0  0  0  0  0
  188.6360  177.8990  140.7810 C   0  0  0  0  0  0  0  0  0  0  0  0
  189.8160  177.5260  140.1420 C   0  0  0  0  0  3  0  0  0  0  0  0
  184.2210  178.5730  144.7890 C   0  0  0  0  0  0  0  0  0  0  0  0
  182.5150  178.9850  144.7550 Cl  0  0  0  0  0  0  0  0  0  0  0  0
  186.9900  177.8320  144.9500 C   0  0  0  0  0  3  0  0  0  0  0  0
  190.4510  176.3100  142.1670 C   0  0  0  0  0  3  0  0  0  0  0  0
  186.7100  178.6560  141.2790 C   0  0  0  0  0  0  0  0  0  0  0  0
  187.6780  178.5890  140.2360 N   0  0  0  0  0  0  0  0  0  0  0  0
  184.8280  178.3950  145.9680 C   0  0  0  0  0  3  0  0  0  0  0  0
  189.2580  176.6920  142.8010 C   0  0  0  0  0  3  0  0  0  0  0  0
  186.2800  178.1090  146.0520 C   0  0  0  0  0  0  0  0  0  0  0  0
  185.0210  178.4860  143.5520 C   0  0  0  0  0  0  0  0  0  0  0  0
  186.9640  178.1660  147.3720 C   0  0  0  0  0  2  0  0  0  0  0  0
  188.4660  178.2690  147.1770 C   0  0  2  0  0  3  0  0  0  0  0  0
  189.1110  176.9750  147.6390 C   0  0  2  0  0  3  0  0  0  0  0  0
  189.1530  178.2080  148.5240 C   0  0  0  0  0  2  0  0  0  0  0  0
  190.4240  176.7950  146.9510 C   0  0  0  0  0  0  0  0  0  0  0  0
  191.4330  176.0550  147.5540 O   0  0  0  0  0  1  0  0  0  0  0  0
  190.6360  177.3490  145.8400 O   0  0  0  0  0  0  0  0  0  0  0  0
  1  2  1  0  0  0  0
  2 11  1  1  0  0  0
  3 13  2  0  0  0  0
  3  6  1  0  0  0  0
  4  1  2  0  0  0  0
  4 16  1  0  0  0  0
  5 12  1  0  0  0  0
  6 18  2  0  0  0  0
  7  4  1  0  0  0  0
  8  7  1  0  0  0  0
  8  5  2  0  0  0  0
  9 15  2  0  0  0  0
 10  9  1  0  0  0  0
 11 17  2  0  0  0  0
 12 16  2  0  0  0  0
 13  1  1  0  0  0  0
 14  7  2  0  0  0  0
 14 13  1  0  0  0  0
 15 17  1  0  0  0  0
 17 19  1  0  0  0  0
 18  2  1  0  0  0  0
 18  9  1  0  0  0  0
 20 19  1  1  0  0  0
 20 21  1  0  0  0  0
 20 22  1  0  0  0  0
 21 23  1  6  0  0  0
 21 22  1  0  0  0  0
 23 24  1  0  0  0  0
 25 23  2  0  0  0  0
M  END
>  <MODEL>
2

>  <REMARK>
 VINA RESULT:     -10.8      3.471      6.611
  Name = 
  3 active torsions:
  status: ('A' for Active; 'I' for Inactive)
    1  A    between atoms: C_2  and  C_21
    2  A    between atoms: C_6  and  C_15
    3  A    between atoms: C_6  and  C_23
                            x       y       z     vdW  Elec       q    Type
                         _______ _______ _______ _____ _____    ______ ____

>  <TORSDO>
F 3

$$$$
=
 OpenBabel10272400393D

 25 29  0  0  1  0  0  0  0  0999 V2000
  186.9890  177.7490  144.1340 C   0  0  0  0  0  0  0  0  0  0  0  0
  188.0030  176.9130  143.4170 C   0  0  1  0  0  3  0  0  0  0  0  0
  188.1510  177.6910  146.2650 C   0  0  0  0  0  3  0  0  0  0  0  0
  185.7640  178.1230  143.8100 C   0  0  0  0  0  0  0  0  0  0  0  0
  183.1490  179.0310  143.6540 C   0  0  0  0  0  3  0  0  0  0  0  0
  189.3060  177.0700  145.5700 C   0  0  0  0  0  3  0  0  0  0  0  0
  185.1420  178.6490  144.9380 C   0  0  0  0  0  0  0  0  0  0  0  0
  183.8310  179.1160  144.8800 C   0  0  0  0  0  3  0  0  0  0  0  0
  190.4770  176.2750  143.5560 C   0  0  0  0  0  0  0  0  0  0  0  0
  191.8130  175.5380  144.4260 Cl  0  0  0  0  0  0  0  0  0  0  0  0
  188.3240  177.4110  142.0340 C   0  0  0  0  0  3  0  0  0  0  0  0
  183.7780  178.4800  142.5190 C   0  0  0  0  0  3  0  0  0  0  0  0
  187.0840  178.0250  145.5440 C   0  0  0  0  0  0  0  0  0  0  0  0
  185.8750  178.6160  146.0110 N   0  0  0  0  0  0  0  0  0  0  0  0
  190.5820  176.4670  142.2370 C   0  0  0  0  0  3  0  0  0  0  0  0
  185.1000  178.0120  142.5890 C   0  0  0  0  0  3  0  0  0  0  0  0
  189.5090  177.1420  141.4690 C   0  0  0  0  0  0  0  0  0  0  0  0
  189.2680  176.7530  144.2560 C   0  0  0  0  0  0  0  0  0  0  0  0
  189.7640  177.5610  140.0640 C   0  0  0  0  0  2  0  0  0  0  0  0
  188.5990  178.3840  139.5450 C   0  0  2  0  0  3  0  0  0  0  0  0
  187.9690  177.6580  138.3710 C   0  0  2  0  0  3  0  0  0  0  0  0
  188.8940  178.8370  138.1320 C   0  0  0  0  0  2  0  0  0  0  0  0
  186.5460  178.0860  138.2210 C   0  0  0  0  0  0  0  0  0  0  0  0
  185.9010  178.7460  139.2600 O   0  0  0  0  0  1  0  0  0  0  0  0
  185.9120  177.8110  137.1690 O   0  0  0  0  0  0  0  0  0  0  0  0
  1 13  1  0  0  0  0
  2 11  1  6  0  0  0
  2  1  1  0  0  0  0
  2 18  1  0  0  0  0
  4  1  2  0  0  0  0
  4  7  1  0  0  0  0
  5  8  2  0  0  0  0
  6  3  1  0  0  0  0
  7 14  2  0  0  0  0
  8  7  1  0  0  0  0
  9 18  1  0  0  0  0
  9 10  1  0  0  0  0
 12 16  2  0  0  0  0
 12  5  1  0  0  0  0
 13 14  1  0  0  0  0
 13  3  2  0  0  0  0
 15  9  2  0  0  0  0
 16  4  1  0  0  0  0
 17 11  2  0  0  0  0
 17 15  1  0  0  0  0
 18  6  2  0  0  0  0
 19 17  1  0  0  0  0
 20 19  1  6  0  0  0
 21 23  1  1  0  0  0
 21 20  1  0  0  0  0
 22 21  1  0  0  0  0
 22 20  1  0  0  0  0
 23 24  1  0  0  0  0
 25 23  2  0  0  0  0
M  END
>  <MODEL>
3

>  <REMARK>
 VINA RESULT:     -10.6      1.936      2.556
  Name = 
  3 active torsions:
  status: ('A' for Active; 'I' for Inactive)
    1  A    between atoms: C_2  and  C_21
    2  A    between atoms: C_6  and  C_15
    3  A    between atoms: C_6  and  C_23
                            x       y       z     vdW  Elec       q    Type
                         _______ _______ _______ _____ _____    ______ ____

>  <TORSDO>
F 3

$$$$
=
 OpenBabel10272400393D

 25 29  0  0  1  0  0  0  0  0999 V2000
  189.8480  177.1720  143.2940 C   0  0  0  0  0  0  0  0  0  0  0  0
  189.8920  177.6940  144.6960 C   0  0  1  0  0  3  0  0  0  0  0  0
  191.7630  175.7040  143.5650 C   0  0  0  0  0  3  0  0  0  0  0  0
  189.1990  177.5820  142.2180 C   0  0  0  0  0  0  0  0  0  0  0  0
  188.1860  178.1250  139.6960 C   0  0  0  0  0  3  0  0  0  0  0  0
  191.7210  175.9890  145.0220 C   0  0  0  0  0  3  0  0  0  0  0  0
  189.7210  176.9300  141.1050 C   0  0  0  0  0  0  0  0  0  0  0  0
  189.2220  177.1850  139.8290 C   0  0  0  0  0  3  0  0  0  0  0  0
  190.7180  177.0150  147.0210 C   0  0  0  0  0  0  0  0  0  0  0  0
  192.0300  176.5780  148.1030 Cl  0  0  0  0  0  0  0  0  0  0  0  0
  188.5360  177.8160  145.3360 C   0  0  0  0  0  3  0  0  0  0  0  0
  187.6750  178.7960  140.8260 C   0  0  0  0  0  3  0  0  0  0  0  0
  190.8400  176.2600  142.7860 C   0  0  0  0  0  0  0  0  0  0  0  0
  190.7080  176.1290  141.3730 N   0  0  0  0  0  0  0  0  0  0  0  0
  189.5580  177.4370  147.5370 C   0  0  0  0  0  3  0  0  0  0  0  0
  188.1860  178.5320  142.1070 C   0  0  0  0  0  3  0  0  0  0  0  0
  188.4010  177.7570  146.6680 C   0  0  0  0  0  0  0  0  0  0  0  0
  190.8380  176.8610  145.5580 C   0  0  0  0  0  0  0  0  0  0  0  0
  187.0620  177.9800  147.2800 C   0  0  0  0  0  2  0  0  0  0  0  0
  185.9740  177.7930  146.2390 C   0  0  2  0  0  3  0  0  0  0  0  0
  185.4710  179.1580  145.8040 C   0  0  2  0  0  3  0  0  0  0  0  0
  184.6640  178.3210  146.7810 C   0  0  0  0  0  2  0  0  0  0  0  0
  184.8780  179.0620  144.4370 C   0  0  0  0  0  0  0  0  0  0  0  0
  185.1720  177.9760  143.6220 O   0  0  0  0  0  0  0  0  0  0  0  0
  184.1430  179.9870  144.0020 O   0  0  0  0  0  1  0  0  0  0  0  0
  1  2  1  0  0  0  0
  2 11  1  1  0  0  0
  2 18  1  0  0  0  0
  3  6  1  0  0  0  0
  4  1  2  0  0  0  0
  5  8  2  0  0  0  0
  5 12  1  0  0  0  0
  6 18  2  0  0  0  0
  7 14  2  0  0  0  0
  7  4  1  0  0  0  0
  8  7  1  0  0  0  0
  9 15  2  0  0  0  0
  9 10  1  0  0  0  0
 11 17  2  0  0  0  0
 12 16  2  0  0  0  0
 13  1  1  0  0  0  0
 13  3  2  0  0  0  0
 14 13  1  0  0  0  0
 16  4  1  0  0  0  0
 17 19  1  0  0  0  0
 17 15  1  0  0  0  0
 18  9  1  0  0  0  0
 20 22  1  0  0  0  0
 20 19  1  1  0  0  0
 21 23  1  6  0  0  0
 21 20  1  0  0  0  0
 21 22  1  0  0  0  0
 24 23  2  0  0  0  0
 25 23  1  0  0  0  0
M  END
>  <MODEL>
4

>  <REMARK>
 VINA RESULT:     -10.1      3.082      5.705
  Name = 
  3 active torsions:
  status: ('A' for Active; 'I' for Inactive)
    1  A    between atoms: C_2  and  C_21
    2  A    between atoms: C_6  and  C_15
    3  A    between atoms: C_6  and  C_23
                            x       y       z     vdW  Elec       q    Type
                         _______ _______ _______ _____ _____    ______ ____

>  <TORSDO>
F 3

$$$$
=
 OpenBabel10272400393D

 25 29  0  0  1  0  0  0  0  0999 V2000
  186.8480  177.7790  144.0990 C   0  0  0  0  0  0  0  0  0  0  0  0
  187.8260  177.0200  143.2590 C   0  0  0  0  0  0  0  0  0  0  0  0
  188.1330  177.5640  146.1480 C   0  0  0  0  0  3  0  0  0  0  0  0
  185.6020  178.1610  143.8780 C   0  0  0  0  0  0  0  0  0  0  0  0
  182.9740  179.0400  143.9500 C   0  0  0  0  0  3  0  0  0  0  0  0
  189.2520  177.0190  145.3390 C   0  0  0  0  0  3  0  0  0  0  0  0
  185.0430  178.5830  145.0810 C   0  0  0  0  0  0  0  0  0  0  0  0
  183.7250  179.0330  145.1370 C   0  0  0  0  0  3  0  0  0  0  0  0
  190.3110  176.4090  143.2020 C   0  0  0  0  0  0  0  0  0  0  0  0
  191.7020  175.6230  143.9290 Cl  0  0  0  0  0  0  0  0  0  0  0  0
  188.0610  177.6340  141.9060 C   0  0  0  0  0  2  0  0  0  0  0  0
  183.5410  178.5930  142.7380 C   0  0  0  0  0  3  0  0  0  0  0  0
  187.0230  177.9400  145.5200 C   0  0  0  0  0  0  0  0  0  0  0  0
  185.8380  178.4730  146.1030 N   0  0  0  0  0  0  0  0  0  0  0  0
  190.3360  176.7100  141.8990 C   0  0  0  0  0  3  0  0  0  0  0  0
  184.8690  178.1400  142.6930 C   0  0  0  0  0  3  0  0  0  0  0  0
  189.2130  177.4300  141.2530 C   0  0  0  0  0  0  0  0  0  0  0  0
  189.1400  176.8100  144.0070 C   0  0  0  0  0  0  0  0  0  0  0  0
  189.3810  177.9660  139.8750 C   0  0  0  0  0  2  0  0  0  0  0  0
  189.4730  176.8250  138.8780 C   0  0  2  0  0  3  0  0  0  0  0  0
  190.6530  177.0720  137.9570 C   0  0  2  0  0  3  0  0  0  0  0  0
  189.2400  177.3570  137.4820 C   0  0  0  0  0  2  0  0  0  0  0  0
  191.1310  175.7740  137.3930 C   0  0  0  0  0  0  0  0  0  0  0  0
  190.9980  174.6020  138.1270 O   0  0  0  0  0  1  0  0  0  0  0  0
  191.6940  175.7440  136.2680 O   0  0  0  0  0  0  0  0  0  0  0  0
  1 13  1  0  0  0  0
  2 18  1  0  0  0  0
  2  1  2  0  0  0  0
  4  1  1  0  0  0  0
  4  7  1  0  0  0  0
  5  8  1  0  0  0  0
  6  3  2  0  0  0  0
  7  8  2  0  0  0  0
  7 14  1  0  0  0  0
  9 10  1  0  0  0  0
  9 18  2  0  0  0  0
 11  2  1  0  0  0  0
 12  5  2  0  0  0  0
 13 14  2  0  0  0  0
 13  3  1  0  0  0  0
 15  9  1  0  0  0  0
 16 12  1  0  0  0  0
 16  4  2  0  0  0  0
 17 15  2  0  0  0  0
 17 11  1  0  0  0  0
 18  6  1  0  0  0  0
 19 17  1  0  0  0  0
 20 19  1  1  0  0  0
 21 23  1  6  0  0  0
 21 20  1  0  0  0  0
 22 21  1  0  0  0  0
 22 20  1  0  0  0  0
 23 24  1  0  0  0  0
 25 23  2  0  0  0  0
M  END
>  <MODEL>
5

>  <REMARK>
 VINA RESULT:     -10.1      1.391      2.224
  Name = 
  3 active torsions:
  status: ('A' for Active; 'I' for Inactive)
    1  A    between atoms: C_2  and  C_21
    2  A    between atoms: C_6  and  C_15
    3  A    between atoms: C_6  and  C_23
                            x       y       z     vdW  Elec       q    Type
                         _______ _______ _______ _____ _____    ______ ____

>  <TORSDO>
F 3

$$$$
=
 OpenBabel10272400393D

 25 29  0  0  1  0  0  0  0  0999 V2000
  187.5510  178.0010  142.1860 C   0  0  0  0  0  0  0  0  0  0  0  0
  187.1870  177.5120  143.5530 C   0  0  1  0  0  3  0  0  0  0  0  0
  185.4680  179.1980  141.8370 C   0  0  0  0  0  3  0  0  0  0  0  0
  188.5190  177.6570  141.3540 C   0  0  0  0  0  0  0  0  0  0  0  0
  190.2510  177.1970  139.2390 C   0  0  0  0  0  3  0  0  0  0  0  0
  185.1400  178.9580  143.2640 C   0  0  0  0  0  3  0  0  0  0  0  0
  188.2490  178.2040  140.1020 C   0  0  0  0  0  0  0  0  0  0  0  0
  189.1090  177.9890  139.0280 C   0  0  0  0  0  3  0  0  0  0  0  0
  185.6700  178.1280  145.5200 C   0  0  0  0  0  0  0  0  0  0  0  0
  184.0660  178.4080  146.1770 Cl  0  0  0  0  0  0  0  0  0  0  0  0
  188.3160  177.5930  144.5430 C   0  0  0  0  0  3  0  0  0  0  0  0
  190.5090  176.6300  140.5040 C   0  0  0  0  0  3  0  0  0  0  0  0
  186.6330  178.7550  141.3720 C   0  0  0  0  0  0  0  0  0  0  0  0
  187.1340  178.8690  140.0440 N   0  0  0  0  0  0  0  0  0  0  0  0
  186.6850  177.8820  146.3560 C   0  0  0  0  0  3  0  0  0  0  0  0
  189.6340  176.8530  141.5800 C   0  0  0  0  0  3  0  0  0  0  0  0
  188.0690  177.7030  145.8550 C   0  0  0  0  0  0  0  0  0  0  0  0
  185.9420  178.2280  144.0730 C   0  0  0  0  0  0  0  0  0  0  0  0
  189.2020  177.6800  146.8200 C   0  0  0  0  0  2  0  0  0  0  0  0
  190.2570  176.6890  146.3640 C   0  0  2  0  0  3  0  0  0  0  0  0
  191.5400  176.9500  147.1300 C   0  0  2  0  0  3  0  0  0  0  0  0
  191.3930  177.4330  145.6990 C   0  0  0  0  0  2  0  0  0  0  0  0
  192.3650  175.7060  147.1670 C   0  0  0  0  0  0  0  0  0  0  0  0
  192.3190  174.8050  146.1100 O   0  0  0  0  0  0  0  0  0  0  0  0
  193.0730  175.4470  148.1760 O   0  0  0  0  0  1  0  0  0  0  0  0
  1  2  1  0  0  0  0
  2 18  1  0  0  0  0
  2 11  1  1  0  0  0
  3  6  1  0  0  0  0
  4 16  1  0  0  0  0
  4  1  2  0  0  0  0
  5 12  1  0  0  0  0
  6 18  2  0  0  0  0
  7  4  1  0  0  0  0
  8  5  2  0  0  0  0
  8  7  1  0  0  0  0
  9 10  1  0  0  0  0
  9 15  2  0  0  0  0
 11 17  2  0  0  0  0
 12 16  2  0  0  0  0
 13  3  2  0  0  0  0
 13  1  1  0  0  0  0
 14  7  2  0  0  0  0
 14 13  1  0  0  0  0
 17 15  1  0  0  0  0
 17 19  1  0  0  0  0
 18  9  1  0  0  0  0
 20 19  1  1  0  0  0
 20 21  1  0  0  0  0
 21 23  1  6  0  0  0
 22 20  1  0  0  0  0
 22 21  1  0  0  0  0
 23 25  1  0  0  0  0
 24 23  2  0  0  0  0
M  END
>  <MODEL>
6

>  <REMARK>
 VINA RESULT:      -9.9      3.415      6.178
  Name = 
  3 active torsions:
  status: ('A' for Active; 'I' for Inactive)
    1  A    between atoms: C_2  and  C_21
    2  A    between atoms: C_6  and  C_15
    3  A    between atoms: C_6  and  C_23
                            x       y       z     vdW  Elec       q    Type
                         _______ _______ _______ _____ _____    ______ ____

>  <TORSDO>
F 3

$$$$
=
 OpenBabel10272400393D

 25 29  0  0  1  0  0  0  0  0999 V2000
  186.1690  178.3390  142.5800 C   0  0  0  0  0  0  0  0  0  0  0  0
  187.4930  178.4740  141.8950 C   0  0  0  0  0  0  0  0  0  0  0  0
  184.8620  178.6750  140.5610 C   0  0  0  0  0  3  0  0  0  0  0  0
  185.8300  178.3410  143.8570 C   0  0  0  0  0  0  0  0  0  0  0  0
  184.6190  178.4280  146.3490 C   0  0  0  0  0  3  0  0  0  0  0  0
  186.1210  178.5780  139.7810 C   0  0  0  0  0  3  0  0  0  0  0  0
  184.4480  178.4730  143.9540 C   0  0  1  0  0  3  0  0  0  0  0  0
  183.8190  178.5130  145.1970 C   0  0  0  0  0  3  0  0  0  0  0  0
  188.5440  178.1960  139.5780 C   0  0  0  0  0  0  0  0  0  0  0  0
  188.6390  178.6500  137.8850 Cl  0  0  0  0  0  0  0  0  0  0  0  0
  188.5140  177.4700  142.3560 C   0  0  0  0  0  3  0  0  0  0  0  0
  186.0210  178.3130  146.2440 C   0  0  0  0  0  3  0  0  0  0  0  0
  184.9230  178.5260  141.8810 C   0  0  0  0  0  0  0  0  0  0  0  0
  183.8450  178.5930  142.8090 N   0  0  0  0  0  0  0  0  0  0  0  0
  189.5750  177.5570  140.1430 C   0  0  0  0  0  3  0  0  0  0  0  0
  186.6440  178.2740  144.9860 C   0  0  0  0  0  3  0  0  0  0  0  0
  189.5180  177.0970  141.5510 C   0  0  0  0  0  0  0  0  0  0  0  0
  187.3270  178.4380  140.3770 C   0  0  0  0  0  0  0  0  0  0  0  0
  190.5700  176.1790  142.0660 C   0  0  0  0  0  2  0  0  0  0  0  0
  190.3980  175.9750  143.5610 C   0  0  2  0  0  3  0  0  0  0  0  0
  191.5160  176.6990  144.2870 C   0  0  2  0  0  3  0  0  0  0  0  0
  191.5760  175.1950  144.1000 C   0  0  0  0  0  2  0  0  0  0  0  0
  191.0840  177.0250  145.6780 C   0  0  0  0  0  0  0  0  0  0  0  0
  191.9800  176.9130  146.7340 O   0  0  0  0  0  1  0  0  0  0  0  0
  189.8920  177.3620  145.9060 O   0  0  0  0  0  0  0  0  0  0  0  0
  1  4  2  0  0  0  0
  2 11  1  0  0  0  0
  2  1  1  0  0  0  0
  3 13  1  0  0  0  0
  4  7  1  0  0  0  0
  4 16  1  0  0  0  0
  6 18  1  0  0  0  0
  6  3  2  0  0  0  0
  7  8  1  1  0  0  0
  8  5  2  0  0  0  0
  9 15  2  0  0  0  0
  9 18  1  0  0  0  0
 10  9  1  0  0  0  0
 12  5  1  0  0  0  0
 13  1  1  0  0  0  0
 13 14  2  0  0  0  0
 14  7  1  0  0  0  0
 15 17  1  0  0  0  0
 16 12  2  0  0  0  0
 17 19  1  0  0  0  0
 17 11  2  0  0  0  0
 18  2  2  0  0  0  0
 20 19  1  6  0  0  0
 20 22  1  0  0  0  0
 20 21  1  0  0  0  0
 21 23  1  1  0  0  0
 22 21  1  0  0  0  0
 23 25  2  0  0  0  0
 23 24  1  0  0  0  0
M  END
>  <MODEL>
7

>  <REMARK>
 VINA RESULT:      -9.4      3.376      5.282
  Name = 
  3 active torsions:
  status: ('A' for Active; 'I' for Inactive)
    1  A    between atoms: C_2  and  C_21
    2  A    between atoms: C_6  and  C_15
    3  A    between atoms: C_6  and  C_23
                            x       y       z     vdW  Elec       q    Type
                         _______ _______ _______ _____ _____    ______ ____

>  <TORSDO>
F 3

$$$$
=
 OpenBabel10272400393D

 25 29  0  0  1  0  0  0  0  0999 V2000
  188.1880  177.6760  142.7300 C   0  0  0  0  0  0  0  0  0  0  0  0
  187.0540  178.4310  143.3500 C   0  0  1  0  0  3  0  0  0  0  0  0
  189.0490  176.8350  144.8390 C   0  0  0  0  0  3  0  0  0  0  0  0
  188.7090  177.7060  141.5160 C   0  0  0  0  0  0  0  0  0  0  0  0
  190.2190  177.5100  139.1990 C   0  0  0  0  0  3  0  0  0  0  0  0
  187.8220  177.3510  145.4960 C   0  0  0  0  0  3  0  0  0  0  0  0
  189.9250  177.0280  141.5330 C   0  0  0  0  0  0  0  0  0  0  0  0
  190.6960  176.9130  140.3790 C   0  0  0  0  0  3  0  0  0  0  0  0
  185.6020  178.4130  145.4580 C   0  0  0  0  0  0  0  0  0  0  0  0
  185.4500  178.5340  147.2030 Cl  0  0  0  0  0  0  0  0  0  0  0  0
  185.7600  178.3020  142.5940 C   0  0  0  0  0  3  0  0  0  0  0  0
  188.9950  178.2110  139.1920 C   0  0  0  0  0  3  0  0  0  0  0  0
  189.1700  176.9830  143.5230 C   0  0  0  0  0  0  0  0  0  0  0  0
  190.2620  176.5740  142.7040 N   0  0  0  0  0  0  0  0  0  0  0  0
  184.5210  178.6000  144.6930 C   0  0  0  0  0  3  0  0  0  0  0  0
  188.2270  178.3210  140.3620 C   0  0  0  0  0  3  0  0  0  0  0  0
  184.5840  178.4460  143.2200 C   0  0  0  0  0  0  0  0  0  0  0  0
  186.8780  178.0410  144.8160 C   0  0  0  0  0  0  0  0  0  0  0  0
  183.3230  178.4140  142.4300 C   0  0  0  0  0  2  0  0  0  0  0  0
  183.6290  178.5660  140.9510 C   0  0  2  0  0  3  0  0  0  0  0  0
  182.4120  179.1460  140.2550 C   0  0  2  0  0  3  0  0  0  0  0  0
  182.7150  177.6620  140.1530 C   0  0  0  0  0  2  0  0  0  0  0  0
  182.8340  179.8410  139.0020 C   0  0  0  0  0  0  0  0  0  0  0  0
  184.1410  180.2880  138.8570 O   0  0  0  0  0  1  0  0  0  0  0  0
  181.9950  180.0630  138.0910 O   0  0  0  0  0  0  0  0  0  0  0  0
  1  2  1  0  0  0  0
  1 13  1  0  0  0  0
  2 11  1  6  0  0  0
  2 18  1  0  0  0  0
  3  6  1  0  0  0  0
  4  7  1  0  0  0  0
  4  1  2  0  0  0  0
  5  8  2  0  0  0  0
  7 14  2  0  0  0  0
  8  7  1  0  0  0  0
  9 10  1  0  0  0  0
 11 17  2  0  0  0  0
 12  5  1  0  0  0  0
 12 16  2  0  0  0  0
 13  3  2  0  0  0  0
 14 13  1  0  0  0  0
 15  9  2  0  0  0  0
 16  4  1  0  0  0  0
 17 15  1  0  0  0  0
 18  9  1  0  0  0  0
 18  6  2  0  0  0  0
 19 17  1  0  0  0  0
 20 19  1  1  0  0  0
 21 23  1  6  0  0  0
 21 20  1  0  0  0  0
 22 21  1  0  0  0  0
 22 20  1  0  0  0  0
 24 23  1  0  0  0  0
 25 23  2  0  0  0  0
M  END
>  <MODEL>
8

>  <REMARK>
 VINA RESULT:      -9.3      3.319      6.208
  Name = 
  3 active torsions:
  status: ('A' for Active; 'I' for Inactive)
    1  A    between atoms: C_2  and  C_21
    2  A    between atoms: C_6  and  C_15
    3  A    between atoms: C_6  and  C_23
                            x       y       z     vdW  Elec       q    Type
                         _______ _______ _______ _____ _____    ______ ____

>  <TORSDO>
F 3

$$$$
=
 OpenBabel10272400393D

 25 29  0  0  1  0  0  0  0  0999 V2000
  189.4260  177.4710  143.6980 C   0  0  0  0  0  0  0  0  0  0  0  0
  188.3940  177.3110  142.6260 C   0  0  0  0  0  0  0  0  0  0  0  0
  191.2980  177.6140  142.1590 C   0  0  0  0  0  3  0  0  0  0  0  0
  189.3740  177.2940  145.0070 C   0  0  0  0  0  0  0  0  0  0  0  0
  189.8070  176.9270  147.7200 C   0  0  0  0  0  3  0  0  0  0  0  0
  190.3200  177.7030  141.0450 C   0  0  0  0  0  3  0  0  0  0  0  0
  190.6720  177.2960  145.5110 C   0  0  1  0  0  3  0  0  0  0  0  0
  190.9110  177.1180  146.8720 C   0  0  0  0  0  3  0  0  0  0  0  0
  188.0320  177.8530  140.1510 C   0  0  0  0  0  0  0  0  0  0  0  0
  188.5040  177.6770  138.4690 Cl  0  0  0  0  0  0  0  0  0  0  0  0
  187.1440  178.1100  142.8690 C   0  0  0  0  0  3  0  0  0  0  0  0
  188.4960  176.9080  147.2010 C   0  0  0  0  0  3  0  0  0  0  0  0
  190.8340  177.5350  143.4030 C   0  0  0  0  0  0  0  0  0  0  0  0
  191.5930  177.4310  144.6030 N   0  0  0  0  0  0  0  0  0  0  0  0
  186.7970  178.2770  140.4430 C   0  0  0  0  0  3  0  0  0  0  0  0
  188.2670  177.0870  145.8270 C   0  0  0  0  0  3  0  0  0  0  0  0
  186.3730  178.5020  141.8450 C   0  0  0  0  0  0  0  0  0  0  0  0
  188.9860  177.6140  141.2510 C   0  0  0  0  0  0  0  0  0  0  0  0
  185.0900  179.2050  142.1200 C   0  0  0  0  0  2  0  0  0  0  0  0
  185.0610  179.6980  143.5550 C   0  0  2  0  0  3  0  0  0  0  0  0
  184.5080  178.5970  144.4420 C   0  0  2  0  0  3  0  0  0  0  0  0
  183.6280  179.7650  144.0350 C   0  0  0  0  0  2  0  0  0  0  0  0
  184.9950  178.7870  145.8410 C   0  0  0  0  0  0  0  0  0  0  0  0
  184.3330  178.1780  146.9000 O   0  0  0  0  0  1  0  0  0  0  0  0
  185.9830  179.5330  146.0700 O   0  0  0  0  0  0  0  0  0  0  0  0
  1  4  2  0  0  0  0
  2 11  1  0  0  0  0
  2  1  1  0  0  0  0
  3 13  1  0  0  0  0
  4  7  1  0  0  0  0
  4 16  1  0  0  0  0
  6 18  1  0  0  0  0
  6  3  2  0  0  0  0
  7  8  1  6  0  0  0
  8  5  2  0  0  0  0
  9 15  2  0  0  0  0
  9 18  1  0  0  0  0
 10  9  1  0  0  0  0
 12  5  1  0  0  0  0
 13  1  1  0  0  0  0
 13 14  2  0  0  0  0
 14  7  1  0  0  0  0
 15 17  1  0  0  0  0
 16 12  2  0  0  0  0
 17 19  1  0  0  0  0
 17 11  2  0  0  0  0
 18  2  2  0  0  0  0
 20 19  1  6  0  0  0
 20 22  1  0  0  0  0
 20 21  1  0  0  0  0
 21 23  1  1  0  0  0
 22 21  1  0  0  0  0
 23 25  2  0  0  0  0
 23 24  1  0  0  0  0
M  END
>  <MODEL>
9

>  <REMARK>
 VINA RESULT:      -9.0      3.829      6.602
  Name = 
  3 active torsions:
  status: ('A' for Active; 'I' for Inactive)
    1  A    between atoms: C_2  and  C_21
    2  A    between atoms: C_6  and  C_15
    3  A    between atoms: C_6  and  C_23
                            x       y       z     vdW  Elec       q    Type
                         _______ _______ _______ _____ _____    ______ ____

>  <TORSDO>
F 3

$$$$
