=
 OpenBabel10272400583D

 27 31  0  0  1  0  0  0  0  0999 V2000
  188.3450  177.9690  144.6000 N   0  0  0  0  0  2  0  0  0  0  0  0
  187.5480  177.7930  142.3230 C   0  0  0  0  0  0  0  0  0  0  0  0
  189.6120  176.3750  142.3640 N   0  0  0  0  0  2  0  0  0  0  0  0
  188.3190  178.3560  138.3110 C   0  0  0  0  0  3  0  0  0  0  0  0
  190.2700  177.3480  137.0240 C   0  0  0  0  0  1  0  0  0  0  0  0
  186.6870  178.5900  141.6090 N   0  0  0  0  0  0  0  0  0  0  0  0
  189.7650  177.0310  139.4660 N   0  0  0  0  0  0  0  0  0  0  0  0
  191.9700  175.8750  145.1840 C   0  0  0  0  0  3  0  0  0  0  0  0
  190.9000  176.1680  139.7660 C   0  0  0  0  0  1  0  0  0  0  0  0
  191.4710  176.7390  146.1580 C   0  0  0  0  0  0  0  0  0  0  0  0
  188.8110  177.4630  140.3100 C   0  0  0  0  0  0  0  0  0  0  0  0
  187.2690  177.4780  143.7600 C   0  0  2  0  0  3  0  0  0  0  0  0
  189.4670  177.5680  138.2600 C   0  0  0  0  0  0  0  0  0  0  0  0
  187.9310  178.2650  139.6350 C   0  0  0  0  0  0  0  0  0  0  0  0
  189.6030  177.3090  144.7120 C   0  0  0  0  0  0  0  0  0  0  0  0
  188.6680  177.2160  141.6840 C   0  0  0  0  0  0  0  0  0  0  0  0
  191.3050  175.7460  143.9650 C   0  0  0  0  0  3  0  0  0  0  0  0
  186.8530  178.8470  140.2800 C   0  0  0  0  0  3  0  0  0  0  0  0
  192.1400  176.8840  147.3650 O   0  0  0  0  0  1  0  0  0  0  0  0
  190.2920  177.4460  145.9230 C   0  0  0  0  0  3  0  0  0  0  0  0
  190.1310  176.4640  143.7010 C   0  0  0  0  0  0  0  0  0  0  0  0
  183.4750  178.8990  145.2090 C   0  0  0  0  0  3  0  0  0  0  0  0
  185.9440  177.9870  144.2470 C   0  0  0  0  0  0  0  0  0  0  0  0
  184.8730  178.1920  143.3630 C   0  0  0  0  0  3  0  0  0  0  0  0
  183.6420  178.6480  143.8430 C   0  0  0  0  0  3  0  0  0  0  0  0
  184.5370  178.6900  146.0940 C   0  0  0  0  0  3  0  0  0  0  0  0
  185.7680  178.2340  145.6130 C   0  0  0  0  0  3  0  0  0  0  0  0
  1 15  1  0  0  0  0
  2 12  1  0  0  0  0
  3 21  1  0  0  0  0
  4 14  1  0  0  0  0
  5 13  1  0  0  0  0
  6  2  2  0  0  0  0
  7  9  1  0  0  0  0
  7 11  1  0  0  0  0
  8 10  1  0  0  0  0
 10 19  1  0  0  0  0
 11 16  2  0  0  0  0
 12 23  1  1  0  0  0
 12  1  1  0  0  0  0
 13  4  2  0  0  0  0
 13  7  1  0  0  0  0
 14 18  2  0  0  0  0
 14 11  1  0  0  0  0
 15 20  1  0  0  0  0
 16  2  1  0  0  0  0
 16  3  1  0  0  0  0
 17  8  2  0  0  0  0
 18  6  1  0  0  0  0
 20 10  2  0  0  0  0
 21 17  1  0  0  0  0
 21 15  2  0  0  0  0
 22 26  1  0  0  0  0
 23 27  1  0  0  0  0
 24 25  1  0  0  0  0
 24 23  2  0  0  0  0
 25 22  2  0  0  0  0
 27 26  2  0  0  0  0
M  END
>  <MODEL>
1

>  <REMARK>
 VINA RESULT:     -10.1      0.000      0.000
  Name = 
  1 active torsions:
  status: ('A' for Active; 'I' for Inactive)
    1  A    between atoms: C_9  and  C_15
                            x       y       z     vdW  Elec       q    Type
                         _______ _______ _______ _____ _____    ______ ____

>  <TORSDO>
F 1

$$$$
=
 OpenBabel10272400583D

 27 31  0  0  1  0  0  0  0  0999 V2000
  186.4430  178.5290  144.8780 N   0  0  0  0  0  2  0  0  0  0  0  0
  186.9730  177.9510  142.5900 C   0  0  0  0  0  0  0  0  0  0  0  0
  188.7380  176.7960  143.9400 N   0  0  0  0  0  2  0  0  0  0  0  0
  189.7310  178.0380  139.5260 C   0  0  0  0  0  3  0  0  0  0  0  0
  192.0920  177.0910  139.6330 C   0  0  0  0  0  1  0  0  0  0  0  0
  186.6000  178.5380  141.4060 N   0  0  0  0  0  0  0  0  0  0  0  0
  190.3820  177.0590  141.4750 N   0  0  0  0  0  0  0  0  0  0  0  0
  189.2630  176.9620  147.6090 C   0  0  0  0  0  3  0  0  0  0  0  0
  191.2080  176.3800  142.4650 C   0  0  0  0  0  1  0  0  0  0  0  0
  188.3050  177.8890  148.0150 C   0  0  0  0  0  0  0  0  0  0  0  0
  189.1160  177.4920  141.6130 C   0  0  0  0  0  0  0  0  0  0  0  0
  185.9850  177.8080  143.7060 C   0  0  2  0  0  3  0  0  0  0  0  0
  190.7520  177.3860  140.2150 C   0  0  0  0  0  0  0  0  0  0  0  0
  188.7060  178.0880  140.4510 C   0  0  0  0  0  0  0  0  0  0  0  0
  187.4690  178.0380  145.7390 C   0  0  0  0  0  0  0  0  0  0  0  0
  188.2750  177.4220  142.7350 C   0  0  0  0  0  0  0  0  0  0  0  0
  189.3450  176.5910  146.2670 C   0  0  0  0  0  3  0  0  0  0  0  0
  187.4360  178.6270  140.3320 C   0  0  0  0  0  3  0  0  0  0  0  0
  188.2320  178.2750  149.3460 O   0  0  0  0  0  1  0  0  0  0  0  0
  187.4110  178.4190  147.0840 C   0  0  0  0  0  3  0  0  0  0  0  0
  188.4710  177.1270  145.3130 C   0  0  0  0  0  0  0  0  0  0  0  0
  181.9660  178.9810  142.7140 C   0  0  0  0  0  3  0  0  0  0  0  0
  184.5910  178.2250  143.3400 C   0  0  0  0  0  0  0  0  0  0  0  0
  184.0930  178.0380  142.0410 C   0  0  0  0  0  3  0  0  0  0  0  0
  182.7840  178.4170  141.7300 C   0  0  0  0  0  3  0  0  0  0  0  0
  182.4570  179.1630  144.0110 C   0  0  0  0  0  3  0  0  0  0  0  0
  183.7660  178.7850  144.3220 C   0  0  0  0  0  3  0  0  0  0  0  0
  1 15  1  0  0  0  0
  2 16  1  0  0  0  0
  2 12  1  0  0  0  0
  3 21  1  0  0  0  0
  4 13  2  0  0  0  0
  4 14  1  0  0  0  0
  5 13  1  0  0  0  0
  6  2  2  0  0  0  0
  7 11  1  0  0  0  0
  7  9  1  0  0  0  0
  8 10  1  0  0  0  0
 10 19  1  0  0  0  0
 11 16  2  0  0  0  0
 12 23  1  6  0  0  0
 12  1  1  0  0  0  0
 13  7  1  0  0  0  0
 14 11  1  0  0  0  0
 15 20  1  0  0  0  0
 16  3  1  0  0  0  0
 17  8  2  0  0  0  0
 18 14  2  0  0  0  0
 18  6  1  0  0  0  0
 20 10  2  0  0  0  0
 21 15  2  0  0  0  0
 21 17  1  0  0  0  0
 22 26  1  0  0  0  0
 23 27  1  0  0  0  0
 24 23  2  0  0  0  0
 25 24  1  0  0  0  0
 25 22  2  0  0  0  0
 26 27  2  0  0  0  0
M  END
>  <MODEL>
2

>  <REMARK>
 VINA RESULT:      -9.9      1.699      2.449
  Name = 
  1 active torsions:
  status: ('A' for Active; 'I' for Inactive)
    1  A    between atoms: C_9  and  C_15
                            x       y       z     vdW  Elec       q    Type
                         _______ _______ _______ _____ _____    ______ ____

>  <TORSDO>
F 1

$$$$
=
 OpenBabel10272400583D

 27 31  0  0  1  0  0  0  0  0999 V2000
  187.3180  177.6630  142.7140 N   0  0  0  0  0  2  0  0  0  0  0  0
  188.9860  177.6280  140.9630 C   0  0  0  0  0  0  0  0  0  0  0  0
  186.9880  178.6840  139.8860 N   0  0  0  0  0  2  0  0  0  0  0  0
  190.0410  176.3630  137.1820 C   0  0  0  0  0  3  0  0  0  0  0  0
  188.7410  176.8420  135.0470 C   0  0  0  0  0  1  0  0  0  0  0  0
  190.1340  176.8840  140.8310 N   0  0  0  0  0  0  0  0  0  0  0  0
  188.1340  177.5930  137.3670 N   0  0  0  0  0  0  0  0  0  0  0  0
  183.6230  179.2060  141.3610 C   0  0  0  0  0  3  0  0  0  0  0  0
  186.9100  178.2960  137.0060 C   0  0  0  0  0  1  0  0  0  0  0  0
  183.7340  178.5880  142.6050 C   0  0  0  0  0  0  0  0  0  0  0  0
  188.6730  177.4490  138.5920 C   0  0  0  0  0  0  0  0  0  0  0  0
  188.6030  178.1920  142.2960 C   0  0  2  0  0  3  0  0  0  0  0  0
  188.9600  176.9400  136.5170 C   0  0  0  0  0  0  0  0  0  0  0  0
  189.8210  176.7100  138.5020 C   0  0  0  0  0  0  0  0  0  0  0  0
  186.0790  178.1200  142.1760 C   0  0  0  0  0  0  0  0  0  0  0  0
  188.1990  177.9160  139.8270 C   0  0  0  0  0  0  0  0  0  0  0  0
  184.7290  179.2600  140.5110 C   0  0  0  0  0  3  0  0  0  0  0  0
  190.5700  176.4110  139.6290 C   0  0  0  0  0  3  0  0  0  0  0  0
  182.6320  178.5150  143.4440 O   0  0  0  0  0  1  0  0  0  0  0  0
  184.9570  178.0530  143.0090 C   0  0  0  0  0  3  0  0  0  0  0  0
  185.9600  178.7100  140.8910 C   0  0  0  0  0  0  0  0  0  0  0  0
  191.5140  177.5820  145.4050 C   0  0  0  0  0  3  0  0  0  0  0  0
  189.6340  177.9810  143.3650 C   0  0  0  0  0  0  0  0  0  0  0  0
  190.8190  178.7330  143.3920 C   0  0  0  0  0  3  0  0  0  0  0  0
  191.7560  178.5330  144.4090 C   0  0  0  0  0  3  0  0  0  0  0  0
  190.3320  176.8340  145.3850 C   0  0  0  0  0  3  0  0  0  0  0  0
  189.3950  177.0350  144.3680 C   0  0  0  0  0  3  0  0  0  0  0  0
  2 12  1  0  0  0  0
  3 21  1  0  0  0  0
  4 14  1  0  0  0  0
  5 13  1  0  0  0  0
  6  2  1  0  0  0  0
  7 11  1  0  0  0  0
  8 10  1  0  0  0  0
  9  7  1  0  0  0  0
 10 20  2  0  0  0  0
 10 19  1  0  0  0  0
 11 16  1  0  0  0  0
 12  1  1  0  0  0  0
 12 23  1  1  0  0  0
 13  4  2  0  0  0  0
 13  7  1  0  0  0  0
 14 11  2  0  0  0  0
 14 18  1  0  0  0  0
 15  1  1  0  0  0  0
 15 20  1  0  0  0  0
 16  3  1  0  0  0  0
 16  2  2  0  0  0  0
 17 21  1  0  0  0  0
 17  8  2  0  0  0  0
 18  6  2  0  0  0  0
 21 15  2  0  0  0  0
 23 24  2  0  0  0  0
 23 27  1  0  0  0  0
 24 25  1  0  0  0  0
 25 22  2  0  0  0  0
 26 22  1  0  0  0  0
 27 26  2  0  0  0  0
M  END
>  <MODEL>
3

>  <REMARK>
 VINA RESULT:      -9.5      2.526      5.464
  Name = 
  1 active torsions:
  status: ('A' for Active; 'I' for Inactive)
    1  A    between atoms: C_9  and  C_15
                            x       y       z     vdW  Elec       q    Type
                         _______ _______ _______ _____ _____    ______ ____

>  <TORSDO>
F 1

$$$$
=
 OpenBabel10272400583D

 27 31  0  0  1  0  0  0  0  0999 V2000
  184.8930  177.9600  142.6240 N   0  0  0  0  0  2  0  0  0  0  0  0
  187.2890  177.9190  142.2940 C   0  0  0  0  0  0  0  0  0  0  0  0
  186.3940  178.9150  140.1780 N   0  0  0  0  0  2  0  0  0  0  0  0
  190.4700  176.5940  140.0290 C   0  0  0  0  0  3  0  0  0  0  0  0
  190.7830  177.0030  137.5360 C   0  0  0  0  0  1  0  0  0  0  0  0
  188.2700  177.1940  142.9260 N   0  0  0  0  0  0  0  0  0  0  0  0
  188.8610  177.7910  138.9520 N   0  0  0  0  0  0  0  0  0  0  0  0
  182.8430  179.4050  139.2220 C   0  0  0  0  0  3  0  0  0  0  0  0
  188.1280  178.4630  137.8870 C   0  0  0  0  0  1  0  0  0  0  0  0
  182.1560  178.8150  140.2810 C   0  0  0  0  0  0  0  0  0  0  0  0
  188.5210  177.6840  140.2490 C   0  0  0  0  0  0  0  0  0  0  0  0
  186.1580  178.5040  143.0810 C   0  0  2  0  0  3  0  0  0  0  0  0
  190.0380  177.1360  138.8200 C   0  0  0  0  0  0  0  0  0  0  0  0
  189.4760  176.9640  140.9140 C   0  0  0  0  0  0  0  0  0  0  0  0
  184.2580  178.3820  141.4190 C   0  0  0  0  0  0  0  0  0  0  0  0
  187.3800  178.1680  140.9070 C   0  0  0  0  0  0  0  0  0  0  0  0
  184.2370  179.4610  139.2440 C   0  0  0  0  0  3  0  0  0  0  0  0
  189.3600  176.7030  142.2700 C   0  0  0  0  0  3  0  0  0  0  0  0
  180.7710  178.7400  140.2540 O   0  0  0  0  0  1  0  0  0  0  0  0
  182.8610  178.3120  141.3740 C   0  0  0  0  0  3  0  0  0  0  0  0
  184.9650  178.9430  140.3230 C   0  0  0  0  0  0  0  0  0  0  0  0
  186.5290  178.0750  147.3460 C   0  0  0  0  0  3  0  0  0  0  0  0
  186.3000  178.3350  144.5660 C   0  0  0  0  0  0  0  0  0  0  0  0
  187.5120  177.9210  145.1390 C   0  0  0  0  0  3  0  0  0  0  0  0
  187.6250  177.7900  146.5260 C   0  0  0  0  0  3  0  0  0  0  0  0
  185.3210  178.4930  146.7790 C   0  0  0  0  0  3  0  0  0  0  0  0
  185.2080  178.6240  145.3920 C   0  0  0  0  0  3  0  0  0  0  0  0
  1 12  1  0  0  0  0
  2  6  1  0  0  0  0
  2 12  1  0  0  0  0
  3 21  1  0  0  0  0
  3 16  1  0  0  0  0
  4 14  1  0  0  0  0
  5 13  1  0  0  0  0
  7 11  1  0  0  0  0
  8 17  2  0  0  0  0
  8 10  1  0  0  0  0
  9  7  1  0  0  0  0
 10 20  2  0  0  0  0
 11 16  1  0  0  0  0
 11 14  2  0  0  0  0
 12 23  1  1  0  0  0
 13  7  1  0  0  0  0
 13  4  2  0  0  0  0
 14 18  1  0  0  0  0
 15  1  1  0  0  0  0
 16  2  2  0  0  0  0
 17 21  1  0  0  0  0
 18  6  2  0  0  0  0
 19 10  1  0  0  0  0
 20 15  1  0  0  0  0
 21 15  2  0  0  0  0
 23 24  2  0  0  0  0
 23 27  1  0  0  0  0
 24 25  1  0  0  0  0
 25 22  2  0  0  0  0
 26 22  1  0  0  0  0
 27 26  2  0  0  0  0
M  END
>  <MODEL>
4

>  <REMARK>
 VINA RESULT:      -9.4      3.159      5.574
  Name = 
  1 active torsions:
  status: ('A' for Active; 'I' for Inactive)
    1  A    between atoms: C_9  and  C_15
                            x       y       z     vdW  Elec       q    Type
                         _______ _______ _______ _____ _____    ______ ____

>  <TORSDO>
F 1

$$$$
=
 OpenBabel10272400583D

 27 31  0  0  1  0  0  0  0  0999 V2000
  185.9150  177.7090  143.0150 N   0  0  0  0  0  2  0  0  0  0  0  0
  188.1940  177.7190  142.2030 C   0  0  0  0  0  0  0  0  0  0  0  0
  186.8780  178.7770  140.3540 N   0  0  0  0  0  2  0  0  0  0  0  0
  190.8570  176.5290  139.2880 C   0  0  0  0  0  3  0  0  0  0  0  0
  190.6510  177.0330  136.8020 C   0  0  0  0  0  1  0  0  0  0  0  0
  189.2890  176.9870  142.5940 N   0  0  0  0  0  0  0  0  0  0  0  0
  189.0520  177.7390  138.6090 N   0  0  0  0  0  0  0  0  0  0  0  0
  183.2030  179.2440  140.1610 C   0  0  0  0  0  3  0  0  0  0  0  0
  188.1110  178.4370  137.7430 C   0  0  0  0  0  1  0  0  0  0  0  0
  182.7500  178.6050  141.3140 C   0  0  0  0  0  0  0  0  0  0  0  0
  188.9850  177.5780  139.9430 C   0  0  0  0  0  0  0  0  0  0  0  0
  187.2420  178.2560  143.2270 C   0  0  2  0  0  3  0  0  0  0  0  0
  190.1830  177.1070  138.2150 C   0  0  0  0  0  0  0  0  0  0  0  0
  190.0610  176.8500  140.3710 C   0  0  0  0  0  0  0  0  0  0  0  0
  185.0450  178.1650  141.9830 C   0  0  0  0  0  0  0  0  0  0  0  0
  187.9980  178.0200  140.8370 C   0  0  0  0  0  0  0  0  0  0  0  0
  184.5710  179.3220  139.9010 C   0  0  0  0  0  3  0  0  0  0  0  0
  190.2270  176.5380  141.7110 C   0  0  0  0  0  3  0  0  0  0  0  0
  181.3900  178.5090  141.5660 O   0  0  0  0  0  1  0  0  0  0  0  0
  183.6680  178.0740  142.2200 C   0  0  0  0  0  3  0  0  0  0  0  0
  185.5080  178.7770  140.7880 C   0  0  0  0  0  0  0  0  0  0  0  0
  188.4630  177.6620  147.3090 C   0  0  0  0  0  3  0  0  0  0  0  0
  187.6850  178.0360  144.6430 C   0  0  0  0  0  0  0  0  0  0  0  0
  189.0450  178.0390  144.9890 C   0  0  0  0  0  3  0  0  0  0  0  0
  189.4330  177.8510  146.3190 C   0  0  0  0  0  3  0  0  0  0  0  0
  187.1070  177.6630  146.9690 C   0  0  0  0  0  3  0  0  0  0  0  0
  186.7200  177.8520  145.6390 C   0  0  0  0  0  3  0  0  0  0  0  0
  1 12  1  0  0  0  0
  2  6  1  0  0  0  0
  2 12  1  0  0  0  0
  3 21  1  0  0  0  0
  3 16  1  0  0  0  0
  4 14  1  0  0  0  0
  5 13  1  0  0  0  0
  7 11  1  0  0  0  0
  8 10  1  0  0  0  0
  9  7  1  0  0  0  0
 10 19  1  0  0  0  0
 10 20  2  0  0  0  0
 11 14  2  0  0  0  0
 11 16  1  0  0  0  0
 12 23  1  1  0  0  0
 13  7  1  0  0  0  0
 13  4  2  0  0  0  0
 14 18  1  0  0  0  0
 15 20  1  0  0  0  0
 15  1  1  0  0  0  0
 16  2  2  0  0  0  0
 17  8  2  0  0  0  0
 17 21  1  0  0  0  0
 18  6  2  0  0  0  0
 21 15  2  0  0  0  0
 23 24  2  0  0  0  0
 23 27  1  0  0  0  0
 24 25  1  0  0  0  0
 25 22  2  0  0  0  0
 26 22  1  0  0  0  0
 27 26  2  0  0  0  0
M  END
>  <MODEL>
5

>  <REMARK>
 VINA RESULT:      -9.4      2.873      5.322
  Name = 
  1 active torsions:
  status: ('A' for Active; 'I' for Inactive)
    1  A    between atoms: C_9  and  C_15
                            x       y       z     vdW  Elec       q    Type
                         _______ _______ _______ _____ _____    ______ ____

>  <TORSDO>
F 1

$$$$
=
 OpenBabel10272400583D

 27 31  0  0  1  0  0  0  0  0999 V2000
  187.2700  177.4540  144.2160 N   0  0  0  0  0  2  0  0  0  0  0  0
  189.1760  177.4080  142.7290 C   0  0  0  0  0  0  0  0  0  0  0  0
  187.4390  178.6880  141.4600 N   0  0  0  0  0  2  0  0  0  0  0  0
  190.7000  176.3240  139.0530 C   0  0  0  0  0  3  0  0  0  0  0  0
  189.7720  177.0470  136.7960 C   0  0  0  0  0  1  0  0  0  0  0  0
  190.2780  176.5870  142.7060 N   0  0  0  0  0  0  0  0  0  0  0  0
  188.8740  177.6840  139.0560 N   0  0  0  0  0  0  0  0  0  0  0  0
  183.9340  179.3710  142.4670 C   0  0  0  0  0  3  0  0  0  0  0  0
  187.7690  178.5040  138.5770 C   0  0  0  0  0  1  0  0  0  0  0  0
  183.8130  178.6630  143.6610 C   0  0  0  0  0  0  0  0  0  0  0  0
  189.2120  177.4160  140.3300 C   0  0  0  0  0  0  0  0  0  0  0  0
  188.6350  177.9080  144.0320 C   0  0  2  0  0  3  0  0  0  0  0  0
  189.7730  177.0270  138.2860 C   0  0  0  0  0  0  0  0  0  0  0  0
  190.3080  176.5960  140.3500 C   0  0  0  0  0  0  0  0  0  0  0  0
  186.1600  178.0430  143.5420 C   0  0  0  0  0  0  0  0  0  0  0  0
  188.5900  177.8330  141.5160 C   0  0  0  0  0  0  0  0  0  0  0  0
  185.1560  179.3960  141.7940 C   0  0  0  0  0  3  0  0  0  0  0  0
  190.8560  176.1630  141.5460 C   0  0  0  0  0  3  0  0  0  0  0  0
  182.5950  178.6210  144.3230 O   0  0  0  0  0  1  0  0  0  0  0  0
  184.9220  178.0080  144.1950 C   0  0  0  0  0  3  0  0  0  0  0  0
  186.2760  178.7270  142.3030 C   0  0  0  0  0  0  0  0  0  0  0  0
  191.0210  176.9140  147.4710 C   0  0  0  0  0  3  0  0  0  0  0  0
  189.4780  177.5450  145.2190 C   0  0  0  0  0  0  0  0  0  0  0  0
  190.8380  177.2300  145.0780 C   0  0  0  0  0  3  0  0  0  0  0  0
  191.6070  176.9130  146.2010 C   0  0  0  0  0  3  0  0  0  0  0  0
  189.6680  177.2330  147.6170 C   0  0  0  0  0  3  0  0  0  0  0  0
  188.8990  177.5490  146.4930 C   0  0  0  0  0  3  0  0  0  0  0  0
  2 12  1  0  0  0  0
  3 16  1  0  0  0  0
  3 21  1  0  0  0  0
  4 14  1  0  0  0  0
  5 13  1  0  0  0  0
  6  2  1  0  0  0  0
  7 11  1  0  0  0  0
  8 10  1  0  0  0  0
  9  7  1  0  0  0  0
 10 20  2  0  0  0  0
 10 19  1  0  0  0  0
 11 14  2  0  0  0  0
 11 16  1  0  0  0  0
 12  1  1  0  0  0  0
 12 23  1  1  0  0  0
 13  4  2  0  0  0  0
 13  7  1  0  0  0  0
 14 18  1  0  0  0  0
 15 20  1  0  0  0  0
 15  1  1  0  0  0  0
 16  2  2  0  0  0  0
 17 21  1  0  0  0  0
 17  8  2  0  0  0  0
 18  6  2  0  0  0  0
 21 15  2  0  0  0  0
 22 26  1  0  0  0  0
 23 27  1  0  0  0  0
 24 23  2  0  0  0  0
 24 25  1  0  0  0  0
 25 22  2  0  0  0  0
 27 26  2  0  0  0  0
M  END
>  <MODEL>
6

>  <REMARK>
 VINA RESULT:      -9.2      2.271      5.135
  Name = 
  1 active torsions:
  status: ('A' for Active; 'I' for Inactive)
    1  A    between atoms: C_9  and  C_15
                            x       y       z     vdW  Elec       q    Type
                         _______ _______ _______ _____ _____    ______ ____

>  <TORSDO>
F 1

$$$$
=
 OpenBabel10272400583D

 27 31  0  0  1  0  0  0  0  0999 V2000
  188.8220  177.1640  139.8760 N   0  0  0  0  0  2  0  0  0  0  0  0
  188.0960  177.8480  142.0800 C   0  0  0  0  0  0  0  0  0  0  0  0
  190.5950  177.9830  142.1860 N   0  0  0  0  0  2  0  0  0  0  0  0
  188.2110  177.1800  146.1470 C   0  0  0  0  0  3  0  0  0  0  0  0
  190.3180  177.0940  147.5730 C   0  0  0  0  0  1  0  0  0  0  0  0
  186.9040  177.6540  142.7330 N   0  0  0  0  0  0  0  0  0  0  0  0
  190.2040  177.4980  145.0950 N   0  0  0  0  0  0  0  0  0  0  0  0
  193.0350  177.0350  139.5570 C   0  0  0  0  0  3  0  0  0  0  0  0
  191.6390  177.6280  144.8760 C   0  0  0  0  0  1  0  0  0  0  0  0
  192.2200  176.5060  138.5580 C   0  0  0  0  0  0  0  0  0  0  0  0
  189.2190  177.5800  144.1830 C   0  0  0  0  0  0  0  0  0  0  0  0
  188.1110  178.1860  140.6210 C   0  0  2  0  0  3  0  0  0  0  0  0
  189.5960  177.2580  146.2800 C   0  0  0  0  0  0  0  0  0  0  0  0
  188.0110  177.3890  144.7960 C   0  0  0  0  0  0  0  0  0  0  0  0
  190.2440  177.0670  139.8570 C   0  0  0  0  0  0  0  0  0  0  0  0
  189.3110  177.7920  142.7990 C   0  0  0  0  0  0  0  0  0  0  0  0
  192.4610  177.5550  140.7180 C   0  0  0  0  0  3  0  0  0  0  0  0
  186.8290  177.4180  144.0740 C   0  0  0  0  0  3  0  0  0  0  0  0
  192.7870  175.9710  137.4100 O   0  0  0  0  0  1  0  0  0  0  0  0
  190.8330  176.5280  138.7070 C   0  0  0  0  0  3  0  0  0  0  0  0
  191.0720  177.5670  140.8960 C   0  0  0  0  0  0  0  0  0  0  0  0
  184.2310  178.8620  138.8890 C   0  0  0  0  0  3  0  0  0  0  0  0
  186.7480  178.4150  140.0360 C   0  0  0  0  0  0  0  0  0  0  0  0
  185.7140  178.9770  140.8000 C   0  0  0  0  0  3  0  0  0  0  0  0
  184.4580  179.1990  140.2270 C   0  0  0  0  0  3  0  0  0  0  0  0
  185.2610  178.3060  138.1240 C   0  0  0  0  0  3  0  0  0  0  0  0
  186.5170  178.0840  138.6960 C   0  0  0  0  0  3  0  0  0  0  0  0
  1 12  1  0  0  0  0
  2  6  2  0  0  0  0
  2 16  1  0  0  0  0
  3 16  1  0  0  0  0
  4 13  2  0  0  0  0
  6 18  1  0  0  0  0
  7 13  1  0  0  0  0
  8 17  1  0  0  0  0
  9  7  1  0  0  0  0
 10 20  1  0  0  0  0
 10  8  2  0  0  0  0
 11 14  1  0  0  0  0
 11  7  1  0  0  0  0
 12 23  1  6  0  0  0
 12  2  1  0  0  0  0
 13  5  1  0  0  0  0
 14  4  1  0  0  0  0
 15  1  1  0  0  0  0
 15 21  1  0  0  0  0
 16 11  2  0  0  0  0
 17 21  2  0  0  0  0
 18 14  2  0  0  0  0
 19 10  1  0  0  0  0
 20 15  2  0  0  0  0
 21  3  1  0  0  0  0
 22 25  1  0  0  0  0
 23 24  1  0  0  0  0
 25 24  2  0  0  0  0
 26 27  1  0  0  0  0
 26 22  2  0  0  0  0
 27 23  2  0  0  0  0
M  END
>  <MODEL>
7

>  <REMARK>
 VINA RESULT:      -9.2      2.639      5.741
  Name = 
  1 active torsions:
  status: ('A' for Active; 'I' for Inactive)
    1  A    between atoms: C_9  and  C_15
                            x       y       z     vdW  Elec       q    Type
                         _______ _______ _______ _____ _____    ______ ____

>  <TORSDO>
F 1

$$$$
=
 OpenBabel10272400583D

 27 31  0  0  1  0  0  0  0  0999 V2000
  188.1350  178.4170  140.9260 N   0  0  0  0  0  2  0  0  0  0  0  0
  189.2570  177.5310  142.8760 C   0  0  0  0  0  0  0  0  0  0  0  0
  186.8260  177.4250  143.4650 N   0  0  0  0  0  2  0  0  0  0  0  0
  189.9670  177.8390  146.9260 C   0  0  0  0  0  3  0  0  0  0  0  0
  188.1860  177.8320  148.7450 C   0  0  0  0  0  1  0  0  0  0  0  0
  190.5610  177.6480  143.2930 N   0  0  0  0  0  0  0  0  0  0  0  0
  187.7960  177.6460  146.2680 N   0  0  0  0  0  0  0  0  0  0  0  0
  183.9480  178.6390  141.4620 C   0  0  0  0  0  3  0  0  0  0  0  0
  186.3430  177.5580  146.3290 C   0  0  0  0  0  1  0  0  0  0  0  0
  184.5670  179.2410  140.3680 C   0  0  0  0  0  0  0  0  0  0  0  0
  188.5800  177.6300  145.1750 C   0  0  0  0  0  0  0  0  0  0  0  0
  188.9450  177.3230  141.4260 C   0  0  2  0  0  3  0  0  0  0  0  0
  188.6330  177.7700  147.3250 C   0  0  0  0  0  0  0  0  0  0  0  0
  189.8910  177.7470  145.5500 C   0  0  0  0  0  0  0  0  0  0  0  0
  186.7410  178.5380  141.1970 C   0  0  0  0  0  0  0  0  0  0  0  0
  188.2100  177.5410  143.8240 C   0  0  0  0  0  0  0  0  0  0  0  0
  184.7220  178.0100  142.4380 C   0  0  0  0  0  3  0  0  0  0  0  0
  190.9060  177.7630  144.6070 C   0  0  0  0  0  3  0  0  0  0  0  0
  183.8040  179.8840  139.4050 O   0  0  0  0  0  1  0  0  0  0  0  0
  185.9550  179.1850  140.2370 C   0  0  0  0  0  3  0  0  0  0  0  0
  186.1170  177.9610  142.3350 C   0  0  0  0  0  0  0  0  0  0  0  0
  192.4010  176.6980  138.9410 C   0  0  0  0  0  3  0  0  0  0  0  0
  190.1580  177.1250  140.5650 C   0  0  0  0  0  0  0  0  0  0  0  0
  191.4270  177.5480  140.9880 C   0  0  0  0  0  3  0  0  0  0  0  0
  192.5450  177.3360  140.1770 C   0  0  0  0  0  3  0  0  0  0  0  0
  191.1380  176.2700  138.5180 C   0  0  0  0  0  3  0  0  0  0  0  0
  190.0200  176.4830  139.3300 C   0  0  0  0  0  3  0  0  0  0  0  0
  1 15  1  0  0  0  0
  1 12  1  0  0  0  0
  2  6  2  0  0  0  0
  2 16  1  0  0  0  0
  3 16  1  0  0  0  0
  4 13  2  0  0  0  0
  6 18  1  0  0  0  0
  7  9  1  0  0  0  0
  7 13  1  0  0  0  0
  8 17  1  0  0  0  0
 10  8  2  0  0  0  0
 11 14  1  0  0  0  0
 11  7  1  0  0  0  0
 12 23  1  6  0  0  0
 12  2  1  0  0  0  0
 13  5  1  0  0  0  0
 14  4  1  0  0  0  0
 15 21  1  0  0  0  0
 16 11  2  0  0  0  0
 18 14  2  0  0  0  0
 19 10  1  0  0  0  0
 20 10  1  0  0  0  0
 20 15  2  0  0  0  0
 21 17  2  0  0  0  0
 21  3  1  0  0  0  0
 22 25  1  0  0  0  0
 23 24  1  0  0  0  0
 25 24  2  0  0  0  0
 26 22  2  0  0  0  0
 26 27  1  0  0  0  0
 27 23  2  0  0  0  0
M  END
>  <MODEL>
8

>  <REMARK>
 VINA RESULT:      -9.1      2.879      7.468
  Name = 
  1 active torsions:
  status: ('A' for Active; 'I' for Inactive)
    1  A    between atoms: C_9  and  C_15
                            x       y       z     vdW  Elec       q    Type
                         _______ _______ _______ _____ _____    ______ ____

>  <TORSDO>
F 1

$$$$
=
 OpenBabel10272400583D

 27 31  0  0  1  0  0  0  0  0999 V2000
  185.8000  177.9650  140.4560 N   0  0  0  0  0  2  0  0  0  0  0  0
  186.5470  178.1500  142.7490 C   0  0  0  0  0  0  0  0  0  0  0  0
  188.5880  178.6680  141.3950 N   0  0  0  0  0  2  0  0  0  0  0  0
  189.1320  176.8480  145.6860 C   0  0  0  0  0  3  0  0  0  0  0  0
  191.6730  176.8690  145.5350 C   0  0  0  0  0  1  0  0  0  0  0  0
  186.0040  177.6600  143.9120 N   0  0  0  0  0  0  0  0  0  0  0  0
  190.0630  177.6520  143.7700 N   0  0  0  0  0  0  0  0  0  0  0  0
  188.9500  178.5730  137.7040 C   0  0  0  0  0  3  0  0  0  0  0  0
  191.0640  178.0470  142.7880 C   0  0  0  0  0  1  0  0  0  0  0  0
  187.7110  178.0920  137.2860 C   0  0  0  0  0  0  0  0  0  0  0  0
  188.7240  177.7230  143.6600 C   0  0  0  0  0  0  0  0  0  0  0  0
  185.6610  178.7210  141.6860 C   0  0  2  0  0  3  0  0  0  0  0  0
  190.3090  177.1260  144.9930 C   0  0  0  0  0  0  0  0  0  0  0  0
  188.1450  177.2410  144.8030 C   0  0  0  0  0  0  0  0  0  0  0  0
  186.9190  178.1030  139.5830 C   0  0  0  0  0  0  0  0  0  0  0  0
  187.9490  178.1730  142.5810 C   0  0  0  0  0  0  0  0  0  0  0  0
  189.1870  178.7950  139.0610 C   0  0  0  0  0  3  0  0  0  0  0  0
  186.7680  177.1980  144.9430 C   0  0  0  0  0  3  0  0  0  0  0  0
  187.4770  177.8520  135.9390 O   0  0  0  0  0  1  0  0  0  0  0  0
  186.7020  177.8630  138.2210 C   0  0  0  0  0  3  0  0  0  0  0  0
  188.1940  178.5520  140.0180 C   0  0  0  0  0  0  0  0  0  0  0  0
  181.5100  179.0310  142.7730 C   0  0  0  0  0  3  0  0  0  0  0  0
  184.2180  178.8200  142.0850 C   0  0  0  0  0  0  0  0  0  0  0  0
  183.8470  179.1950  143.3860 C   0  0  0  0  0  3  0  0  0  0  0  0
  182.4950  179.2990  143.7280 C   0  0  0  0  0  3  0  0  0  0  0  0
  181.8760  178.6630  141.4750 C   0  0  0  0  0  3  0  0  0  0  0  0
  183.2270  178.5590  141.1320 C   0  0  0  0  0  3  0  0  0  0  0  0
  1 12  1  0  0  0  0
  2  6  1  0  0  0  0
  3 16  1  0  0  0  0
  6 18  2  0  0  0  0
  7 13  1  0  0  0  0
  8 17  1  0  0  0  0
  9  7  1  0  0  0  0
 10  8  2  0  0  0  0
 10 20  1  0  0  0  0
 11  7  1  0  0  0  0
 11 14  2  0  0  0  0
 12 23  1  1  0  0  0
 12  2  1  0  0  0  0
 13  5  1  0  0  0  0
 13  4  2  0  0  0  0
 14 18  1  0  0  0  0
 14  4  1  0  0  0  0
 15 21  1  0  0  0  0
 15  1  1  0  0  0  0
 16  2  2  0  0  0  0
 16 11  1  0  0  0  0
 17 21  2  0  0  0  0
 19 10  1  0  0  0  0
 20 15  2  0  0  0  0
 21  3  1  0  0  0  0
 22 25  1  0  0  0  0
 23 24  1  0  0  0  0
 24 25  2  0  0  0  0
 26 22  2  0  0  0  0
 27 26  1  0  0  0  0
 27 23  2  0  0  0  0
M  END
>  <MODEL>
9

>  <REMARK>
 VINA RESULT:      -8.8      2.870      5.729
  Name = 
  1 active torsions:
  status: ('A' for Active; 'I' for Inactive)
    1  A    between atoms: C_9  and  C_15
                            x       y       z     vdW  Elec       q    Type
                         _______ _______ _______ _____ _____    ______ ____

>  <TORSDO>
F 1

$$$$
