=
 OpenBabel10272413443D

 30 32  0  0  1  0  0  0  0  0999 V2000
  184.2000  178.9850  139.5820 C   0  0  0  0  0  0  0  0  0  0  0  0
  183.7220  177.1040  137.9360 C   0  0  2  0  0  3  0  0  0  0  0  0
  183.1290  179.7880  139.5840 C   0  0  0  0  0  3  0  0  0  0  0  0
  181.0050  179.1250  136.5070 C   0  0  0  0  0  3  0  0  0  0  0  0
  181.8530  178.8860  137.5950 C   0  0  0  0  0  0  0  0  0  0  0  0
  181.7450  181.2490  138.1650 C   0  0  0  0  0  3  0  0  0  0  0  0
  182.2390  179.9660  138.4250 C   0  0  0  0  0  0  0  0  0  0  0  0
  182.2190  177.4510  137.8940 C   0  0  2  0  0  3  0  0  0  0  0  0
  180.5390  180.4140  136.2410 C   0  0  0  0  0  3  0  0  0  0  0  0
  180.9040  181.4740  137.0740 C   0  0  0  0  0  3  0  0  0  0  0  0
  184.6200  178.3030  138.2960 C   0  0  2  0  0  3  0  0  0  0  0  0
  184.2090  178.4950  142.0740 C   0  0  0  0  0  0  0  0  0  0  0  0
  184.9280  178.2360  143.2460 C   0  0  0  0  0  3  0  0  0  0  0  0
  182.4570  178.5920  142.1940 Cl  0  0  0  0  0  0  0  0  0  0  0  0
  186.3020  178.6830  140.8600 C   0  0  0  0  0  3  0  0  0  0  0  0
  188.7590  178.3800  142.0070 Cl  0  0  0  0  0  0  0  0  0  0  0  0
  184.8990  178.7180  140.8610 C   0  0  0  0  0  0  0  0  0  0  0  0
  186.3230  178.1960  143.2270 C   0  0  0  0  0  3  0  0  0  0  0  0
  187.0100  178.4230  142.0340 C   0  0  0  0  0  0  0  0  0  0  0  0
  182.1540  176.1100  139.9160 O   0  0  0  0  0  1  0  0  0  0  0  0
  181.3740  176.8370  139.0150 C   0  0  2  0  0  3  0  0  0  0  0  0
  180.2750  175.9790  138.4710 C   0  0  0  0  0  3  0  0  0  0  0  0
  180.3320  175.5290  137.3380 O   0  0  0  0  0  0  0  0  0  0  0  0
  186.1140  177.9700  138.2620 C   0  0  0  0  0  2  0  0  0  0  0  0
  187.9800  179.1670  137.3740 O   0  0  0  0  0  1  0  0  0  0  0  0
  186.7770  178.5510  137.0250 C   0  0  0  0  0  2  0  0  0  0  0  0
  184.0950  176.5240  136.5740 C   0  0  0  0  0  2  0  0  0  0  0  0
  185.8050  174.8580  136.5150 O   0  0  0  0  0  1  0  0  0  0  0  0
  184.4320  175.0460  136.6730 C   0  0  1  0  0  3  0  0  0  0  0  0
  184.0460  174.5710  137.9110 F   0  0  0  0  0  0  0  0  0  0  0  0
  1  3  2  0  0  0  0
  1 17  1  0  0  0  0
  2 27  1  6  0  0  0
  2 11  1  0  0  0  0
  4  5  1  0  0  0  0
  5  8  1  0  0  0  0
  5  7  2  0  0  0  0
  6  7  1  0  0  0  0
  7  3  1  0  0  0  0
  8  2  1  0  0  0  0
  8 21  1  1  0  0  0
  9  4  2  0  0  0  0
  9 10  1  0  0  0  0
 10  6  2  0  0  0  0
 11 24  1  1  0  0  0
 11  1  1  0  0  0  0
 12 14  1  0  0  0  0
 12 13  1  0  0  0  0
 15 17  1  0  0  0  0
 15 19  2  0  0  0  0
 16 19  1  0  0  0  0
 17 12  2  0  0  0  0
 18 13  2  0  0  0  0
 19 18  1  0  0  0  0
 21 20  1  1  0  0  0
 22 21  1  0  0  0  0
 23 22  2  0  0  0  0
 26 25  1  0  0  0  0
 26 24  1  0  0  0  0
 27 29  1  0  0  0  0
 29 28  1  1  0  0  0
 29 30  1  0  0  0  0
M  END
>  <MODEL>
1

>  <REMARK>
 VINA RESULT:      -5.8      0.000      0.000
  Name = 
  7 active torsions:
  status: ('A' for Active; 'I' for Inactive)
    1  A    between atoms: C_1  and  C_22
    2  A    between atoms: C_4  and  C_25
    3  A    between atoms: C_7  and  C_30
    4  A    between atoms: C_10  and  C_23
    5  A    between atoms: C_10  and  C_26
    6  A    between atoms: C_11  and  C_25
    7  A    between atoms: C_13  and  C_30
                            x       y       z     vdW  Elec       q    Type
                         _______ _______ _______ _____ _____    ______ ____

>  <TORSDO>
F 7

$$$$
=
 OpenBabel10272413443D

 30 32  0  0  1  0  0  0  0  0999 V2000
  190.7820  174.9760  137.3310 C   0  0  0  0  0  0  0  0  0  0  0  0
  189.2490  176.9940  137.5720 C   0  0  2  0  0  3  0  0  0  0  0  0
  190.0590  173.9960  136.7780 C   0  0  0  0  0  3  0  0  0  0  0  0
  186.3560  174.7760  137.0990 C   0  0  0  0  0  3  0  0  0  0  0  0
  187.7310  174.9760  136.9310 C   0  0  0  0  0  0  0  0  0  0  0  0
  188.0740  172.5730  137.1000 C   0  0  0  0  0  3  0  0  0  0  0  0
  188.6020  173.8590  136.9470 C   0  0  0  0  0  0  0  0  0  0  0  0
  188.2010  176.3780  136.6210 C   0  0  2  0  0  3  0  0  0  0  0  0
  185.8430  173.4890  137.2790 C   0  0  0  0  0  3  0  0  0  0  0  0
  186.7020  172.3880  137.2720 C   0  0  0  0  0  3  0  0  0  0  0  0
  190.1190  175.9440  138.2910 C   0  0  2  0  0  3  0  0  0  0  0  0
  192.5730  175.6360  135.6550 C   0  0  0  0  0  0  0  0  0  0  0  0
  193.9280  175.7790  135.3370 C   0  0  0  0  0  3  0  0  0  0  0  0
  191.3940  176.0280  134.4100 Cl  0  0  0  0  0  0  0  0  0  0  0  0
  193.2000  174.7930  137.8430 C   0  0  0  0  0  3  0  0  0  0  0  0
  195.7800  174.5040  138.6800 Cl  0  0  0  0  0  0  0  0  0  0  0  0
  192.1980  175.1410  136.9250 C   0  0  0  0  0  0  0  0  0  0  0  0
  194.9130  175.4360  136.2650 C   0  0  0  0  0  3  0  0  0  0  0  0
  194.5480  174.9400  137.5170 C   0  0  0  0  0  0  0  0  0  0  0  0
  189.1860  177.7770  134.9000 O   0  0  0  0  0  1  0  0  0  0  0  0
  188.4580  176.6090  135.1280 C   0  0  2  0  0  3  0  0  0  0  0  0
  187.1810  176.6320  134.3460 C   0  0  0  0  0  3  0  0  0  0  0  0
  186.2760  177.3960  134.6430 O   0  0  0  0  0  0  0  0  0  0  0  0
  191.1050  176.5580  139.2880 C   0  0  0  0  0  2  0  0  0  0  0  0
  191.0770  177.5650  141.4540 O   0  0  0  0  0  1  0  0  0  0  0  0
  190.5520  176.5120  140.7030 C   0  0  0  0  0  2  0  0  0  0  0  0
  188.4980  177.8670  138.5740 C   0  0  0  0  0  2  0  0  0  0  0  0
  186.3370  178.7260  139.1190 O   0  0  0  0  0  1  0  0  0  0  0  0
  187.1060  178.2150  138.0730 C   0  0  1  0  0  3  0  0  0  0  0  0
  187.2050  179.1640  137.0740 F   0  0  0  0  0  0  0  0  0  0  0  0
  1 11  1  0  0  0  0
  2 11  1  0  0  0  0
  2 27  1  1  0  0  0
  3  7  1  0  0  0  0
  3  1  2  0  0  0  0
  4  9  1  0  0  0  0
  5  7  1  0  0  0  0
  5  4  2  0  0  0  0
  6 10  1  0  0  0  0
  7  6  2  0  0  0  0
  8 21  1  6  0  0  0
  8  5  1  0  0  0  0
  8  2  1  0  0  0  0
 10  9  2  0  0  0  0
 11 24  1  6  0  0  0
 12 17  1  0  0  0  0
 13 12  2  0  0  0  0
 13 18  1  0  0  0  0
 14 12  1  0  0  0  0
 17  1  1  0  0  0  0
 17 15  2  0  0  0  0
 18 19  2  0  0  0  0
 19 15  1  0  0  0  0
 19 16  1  0  0  0  0
 21 20  1  1  0  0  0
 22 23  2  0  0  0  0
 22 21  1  0  0  0  0
 24 26  1  0  0  0  0
 26 25  1  0  0  0  0
 29 30  1  6  0  0  0
 29 27  1  0  0  0  0
 29 28  1  0  0  0  0
M  END
>  <MODEL>
2

>  <REMARK>
 VINA RESULT:      -4.9      5.327      8.270
  Name = 
  7 active torsions:
  status: ('A' for Active; 'I' for Inactive)
    1  A    between atoms: C_1  and  C_22
    2  A    between atoms: C_4  and  C_25
    3  A    between atoms: C_7  and  C_30
    4  A    between atoms: C_10  and  C_23
    5  A    between atoms: C_10  and  C_26
    6  A    between atoms: C_11  and  C_25
    7  A    between atoms: C_13  and  C_30
                            x       y       z     vdW  Elec       q    Type
                         _______ _______ _______ _____ _____    ______ ____

>  <TORSDO>
F 7

$$$$
=
 OpenBabel10272413443D

 30 32  0  0  1  0  0  0  0  0999 V2000
  189.0140  174.2950  136.3640 C   0  0  0  0  0  0  0  0  0  0  0  0
  189.0660  176.8160  136.7050 C   0  0  2  0  0  3  0  0  0  0  0  0
  190.0390  173.7820  137.0540 C   0  0  0  0  0  3  0  0  0  0  0  0
  192.5280  176.5220  137.9060 C   0  0  0  0  0  3  0  0  0  0  0  0
  191.3040  175.8880  137.6630 C   0  0  0  0  0  0  0  0  0  0  0  0
  192.4930  173.8020  137.2670 C   0  0  0  0  0  3  0  0  0  0  0  0
  191.2890  174.5120  137.3240 C   0  0  0  0  0  0  0  0  0  0  0  0
  190.0430  176.6890  137.8920 C   0  0  2  0  0  3  0  0  0  0  0  0
  193.7250  175.8080  137.8200 C   0  0  0  0  0  3  0  0  0  0  0  0
  193.7070  174.4480  137.5070 C   0  0  0  0  0  3  0  0  0  0  0  0
  189.1620  175.6510  135.7020 C   0  0  2  0  0  3  0  0  0  0  0  0
  187.5430  172.3860  135.5630 C   0  0  0  0  0  0  0  0  0  0  0  0
  186.3080  171.7290  135.5860 C   0  0  0  0  0  3  0  0  0  0  0  0
  188.7940  171.7410  134.5100 Cl  0  0  0  0  0  0  0  0  0  0  0  0
  186.6610  174.0440  137.1010 C   0  0  0  0  0  3  0  0  0  0  0  0
  184.1180  174.0030  138.0880 Cl  0  0  0  0  0  0  0  0  0  0  0  0
  187.7290  173.5570  136.3320 C   0  0  0  0  0  0  0  0  0  0  0  0
  185.2580  172.2210  136.3620 C   0  0  0  0  0  3  0  0  0  0  0  0
  185.4350  173.3800  137.1180 C   0  0  0  0  0  0  0  0  0  0  0  0
  188.1220  176.9780  139.3470 O   0  0  0  0  0  1  0  0  0  0  0  0
  189.3900  176.4040  139.2500 C   0  0  2  0  0  3  0  0  0  0  0  0
  190.2540  176.8600  140.3840 C   0  0  0  0  0  3  0  0  0  0  0  0
  190.3800  176.1790  141.3900 O   0  0  0  0  0  0  0  0  0  0  0  0
  188.2440  175.8210  134.4890 C   0  0  0  0  0  2  0  0  0  0  0  0
  185.8600  175.8640  134.3470 O   0  0  0  0  0  1  0  0  0  0  0  0
  186.9620  176.5430  134.8700 C   0  0  0  0  0  2  0  0  0  0  0  0
  189.3470  178.1540  136.0250 C   0  0  0  0  0  2  0  0  0  0  0  0
  187.3520  179.0210  137.0100 O   0  0  0  0  0  1  0  0  0  0  0  0
  188.6970  179.3050  136.7740 C   0  0  1  0  0  3  0  0  0  0  0  0
  189.3430  179.4880  137.9810 F   0  0  0  0  0  0  0  0  0  0  0  0
  1  3  2  0  0  0  0
  2 27  1  6  0  0  0
  2  8  1  0  0  0  0
  3  7  1  0  0  0  0
  5  8  1  0  0  0  0
  5  4  2  0  0  0  0
  6  7  2  0  0  0  0
  6 10  1  0  0  0  0
  7  5  1  0  0  0  0
  8 21  1  1  0  0  0
  9  4  1  0  0  0  0
 10  9  2  0  0  0  0
 11 24  1  6  0  0  0
 11  1  1  0  0  0  0
 11  2  1  0  0  0  0
 12 13  2  0  0  0  0
 12 17  1  0  0  0  0
 13 18  1  0  0  0  0
 14 12  1  0  0  0  0
 15 19  1  0  0  0  0
 17  1  1  0  0  0  0
 17 15  2  0  0  0  0
 18 19  2  0  0  0  0
 19 16  1  0  0  0  0
 21 20  1  6  0  0  0
 21 22  1  0  0  0  0
 22 23  2  0  0  0  0
 24 26  1  0  0  0  0
 25 26  1  0  0  0  0
 27 29  1  0  0  0  0
 29 28  1  1  0  0  0
 29 30  1  0  0  0  0
M  END
>  <MODEL>
3

>  <REMARK>
 VINA RESULT:      -4.8      5.573      8.849
  Name = 
  7 active torsions:
  status: ('A' for Active; 'I' for Inactive)
    1  A    between atoms: C_1  and  C_22
    2  A    between atoms: C_4  and  C_25
    3  A    between atoms: C_7  and  C_30
    4  A    between atoms: C_10  and  C_23
    5  A    between atoms: C_10  and  C_26
    6  A    between atoms: C_11  and  C_25
    7  A    between atoms: C_13  and  C_30
                            x       y       z     vdW  Elec       q    Type
                         _______ _______ _______ _____ _____    ______ ____

>  <TORSDO>
F 7

$$$$
=
 OpenBabel10272413443D

 30 32  0  0  1  0  0  0  0  0999 V2000
  193.9040  174.0660  135.5810 C   0  0  0  0  0  0  0  0  0  0  0  0
  192.0760  175.3130  136.8390 C   0  0  2  0  0  3  0  0  0  0  0  0
  193.3000  173.3080  134.6580 C   0  0  0  0  0  3  0  0  0  0  0  0
  189.6130  172.9410  135.4900 C   0  0  0  0  0  3  0  0  0  0  0  0
  190.8830  173.5190  135.3760 C   0  0  0  0  0  0  0  0  0  0  0  0
  191.6940  171.4680  134.3470 C   0  0  0  0  0  3  0  0  0  0  0  0
  191.9400  172.7650  134.8090 C   0  0  0  0  0  0  0  0  0  0  0  0
  191.0270  174.9730  135.7590 C   0  0  2  0  0  3  0  0  0  0  0  0
  189.3860  171.6350  135.0500 C   0  0  0  0  0  3  0  0  0  0  0  0
  190.4240  170.9020  134.4730 C   0  0  0  0  0  3  0  0  0  0  0  0
  193.2290  174.2940  136.9190 C   0  0  2  0  0  3  0  0  0  0  0  0
  196.3940  174.0200  135.0850 C   0  0  0  0  0  0  0  0  0  0  0  0
  197.5660  174.7060  134.7500 C   0  0  0  0  0  3  0  0  0  0  0  0
  196.5110  172.2880  135.3650 Cl  0  0  0  0  0  0  0  0  0  0  0  0
  195.1830  176.1230  135.0590 C   0  0  0  0  0  3  0  0  0  0  0  0
  196.3330  178.5330  134.4980 Cl  0  0  0  0  0  0  0  0  0  0  0  0
  195.1830  174.7320  135.2390 C   0  0  0  0  0  0  0  0  0  0  0  0
  197.5490  176.0890  134.5650 C   0  0  0  0  0  3  0  0  0  0  0  0
  196.3570  176.7980  134.7230 C   0  0  0  0  0  0  0  0  0  0  0  0
  192.0910  176.7870  134.5480 O   0  0  0  0  0  1  0  0  0  0  0  0
  191.0000  175.9180  134.5530 C   0  0  2  0  0  3  0  0  0  0  0  0
  189.7200  176.6910  134.4870 C   0  0  0  0  0  3  0  0  0  0  0  0
  189.0060  176.8090  135.4710 O   0  0  0  0  0  0  0  0  0  0  0  0
  194.2250  174.5970  138.0420 C   0  0  0  0  0  2  0  0  0  0  0  0
  196.3060  173.6420  138.7210 O   0  0  0  0  0  1  0  0  0  0  0  0
  194.9660  173.3410  138.4700 C   0  0  0  0  0  2  0  0  0  0  0  0
  191.3400  175.4200  138.1720 C   0  0  0  0  0  2  0  0  0  0  0  0
  189.6510  176.9930  138.7860 O   0  0  0  0  0  1  0  0  0  0  0  0
  191.0130  176.8650  138.5120 C   0  0  1  0  0  3  0  0  0  0  0  0
  191.7400  177.2490  139.6210 F   0  0  0  0  0  0  0  0  0  0  0  0
  1 11  1  0  0  0  0
  2 11  1  0  0  0  0
  2 27  1  1  0  0  0
  3  7  1  0  0  0  0
  3  1  2  0  0  0  0
  5  4  1  0  0  0  0
  5  8  1  0  0  0  0
  6 10  2  0  0  0  0
  6  7  1  0  0  0  0
  7  5  2  0  0  0  0
  8 21  1  6  0  0  0
  8  2  1  0  0  0  0
  9  4  2  0  0  0  0
 10  9  1  0  0  0  0
 11 24  1  1  0  0  0
 12 17  1  0  0  0  0
 12 14  1  0  0  0  0
 13 12  2  0  0  0  0
 15 17  2  0  0  0  0
 16 19  1  0  0  0  0
 17  1  1  0  0  0  0
 18 19  2  0  0  0  0
 18 13  1  0  0  0  0
 19 15  1  0  0  0  0
 21 20  1  1  0  0  0
 22 21  1  0  0  0  0
 22 23  2  0  0  0  0
 24 26  1  0  0  0  0
 26 25  1  0  0  0  0
 27 29  1  0  0  0  0
 29 28  1  1  0  0  0
 29 30  1  0  0  0  0
M  END
>  <MODEL>
4

>  <REMARK>
 VINA RESULT:      -4.7      8.201     11.409
  Name = 
  7 active torsions:
  status: ('A' for Active; 'I' for Inactive)
    1  A    between atoms: C_1  and  C_22
    2  A    between atoms: C_4  and  C_25
    3  A    between atoms: C_7  and  C_30
    4  A    between atoms: C_10  and  C_23
    5  A    between atoms: C_10  and  C_26
    6  A    between atoms: C_11  and  C_25
    7  A    between atoms: C_13  and  C_30
                            x       y       z     vdW  Elec       q    Type
                         _______ _______ _______ _____ _____    ______ ____

>  <TORSDO>
F 7

$$$$
=
 OpenBabel10272413443D

 30 32  0  0  1  0  0  0  0  0999 V2000
  191.3250  174.3830  136.3600 C   0  0  0  0  0  0  0  0  0  0  0  0
  190.2460  176.5120  137.2440 C   0  0  2  0  0  3  0  0  0  0  0  0
  190.3540  173.6520  135.8010 C   0  0  0  0  0  3  0  0  0  0  0  0
  186.9610  174.8850  136.9780 C   0  0  0  0  0  3  0  0  0  0  0  0
  188.3020  174.9110  136.5790 C   0  0  0  0  0  0  0  0  0  0  0  0
  188.2260  172.5000  136.2610 C   0  0  0  0  0  3  0  0  0  0  0  0
  188.9460  173.6990  136.2290 C   0  0  0  0  0  0  0  0  0  0  0  0
  188.9600  176.2620  136.4280 C   0  0  2  0  0  3  0  0  0  0  0  0
  186.2600  173.6780  137.0320 C   0  0  0  0  0  3  0  0  0  0  0  0
  186.8910  172.4870  136.6670 C   0  0  0  0  0  3  0  0  0  0  0  0
  191.0180  175.2220  137.5850 C   0  0  2  0  0  3  0  0  0  0  0  0
  193.3940  173.2440  135.4260 C   0  0  0  0  0  0  0  0  0  0  0  0
  194.6440  173.3430  134.8060 C   0  0  0  0  0  3  0  0  0  0  0  0
  192.8270  171.6410  135.8740 Cl  0  0  0  0  0  0  0  0  0  0  0  0
  193.2080  175.6640  135.3820 C   0  0  0  0  0  3  0  0  0  0  0  0
  195.1170  177.3180  134.3510 Cl  0  0  0  0  0  0  0  0  0  0  0  0
  192.6590  174.4170  135.7170 C   0  0  0  0  0  0  0  0  0  0  0  0
  195.1720  174.5910  134.4720 C   0  0  0  0  0  3  0  0  0  0  0  0
  194.4550  175.7520  134.7630 C   0  0  0  0  0  0  0  0  0  0  0  0
  190.1150  177.5560  134.7300 O   0  0  0  0  0  1  0  0  0  0  0  0
  189.0020  176.7510  134.9760 C   0  0  2  0  0  3  0  0  0  0  0  0
  187.7460  177.4730  134.6000 C   0  0  0  0  0  3  0  0  0  0  0  0
  187.1440  178.1530  135.4170 O   0  0  0  0  0  0  0  0  0  0  0  0
  192.2510  175.4710  138.4580 C   0  0  0  0  0  2  0  0  0  0  0  0
  193.6400  177.1920  139.3590 O   0  0  0  0  0  1  0  0  0  0  0  0
  192.7170  176.9130  138.3500 C   0  0  0  0  0  2  0  0  0  0  0  0
  189.8430  177.2640  138.5090 C   0  0  0  0  0  2  0  0  0  0  0  0
  188.2290  178.7730  139.4170 O   0  0  0  0  0  1  0  0  0  0  0  0
  188.7740  178.3050  138.2210 C   0  0  1  0  0  3  0  0  0  0  0  0
  189.3390  179.3610  137.5330 F   0  0  0  0  0  0  0  0  0  0  0  0
  1 11  1  0  0  0  0
  2 11  1  0  0  0  0
  2 27  1  1  0  0  0
  3  7  1  0  0  0  0
  3  1  2  0  0  0  0
  4  9  1  0  0  0  0
  5  4  2  0  0  0  0
  6 10  1  0  0  0  0
  7  6  2  0  0  0  0
  7  5  1  0  0  0  0
  8 21  1  6  0  0  0
  8  5  1  0  0  0  0
  8  2  1  0  0  0  0
 10  9  2  0  0  0  0
 11 24  1  6  0  0  0
 12 17  1  0  0  0  0
 12 14  1  0  0  0  0
 13 12  2  0  0  0  0
 15 17  2  0  0  0  0
 16 19  1  0  0  0  0
 17  1  1  0  0  0  0
 18 19  2  0  0  0  0
 18 13  1  0  0  0  0
 19 15  1  0  0  0  0
 21 20  1  1  0  0  0
 22 21  1  0  0  0  0
 22 23  2  0  0  0  0
 26 24  1  0  0  0  0
 26 25  1  0  0  0  0
 29 30  1  1  0  0  0
 29 27  1  0  0  0  0
 29 28  1  0  0  0  0
M  END
>  <MODEL>
5

>  <REMARK>
 VINA RESULT:      -4.5      6.295      9.194
  Name = 
  7 active torsions:
  status: ('A' for Active; 'I' for Inactive)
    1  A    between atoms: C_1  and  C_22
    2  A    between atoms: C_4  and  C_25
    3  A    between atoms: C_7  and  C_30
    4  A    between atoms: C_10  and  C_23
    5  A    between atoms: C_10  and  C_26
    6  A    between atoms: C_11  and  C_25
    7  A    between atoms: C_13  and  C_30
                            x       y       z     vdW  Elec       q    Type
                         _______ _______ _______ _____ _____    ______ ____

>  <TORSDO>
F 7

$$$$
=
 OpenBabel10272413443D

 30 32  0  0  1  0  0  0  0  0999 V2000
  182.3930  176.4050  137.9330 C   0  0  0  0  0  0  0  0  0  0  0  0
  183.2350  177.6350  139.9950 C   0  0  2  0  0  3  0  0  0  0  0  0
  182.2390  177.3160  136.9660 C   0  0  0  0  0  3  0  0  0  0  0  0
  182.1600  180.8020  138.4710 C   0  0  0  0  0  3  0  0  0  0  0  0
  182.5080  179.4590  138.2840 C   0  0  0  0  0  0  0  0  0  0  0  0
  181.0270  179.3720  136.3550 C   0  0  0  0  0  3  0  0  0  0  0  0
  181.9210  178.7310  137.2200 C   0  0  0  0  0  0  0  0  0  0  0  0
  183.5910  178.8880  139.1680 C   0  0  2  0  0  3  0  0  0  0  0  0
  181.2460  181.4230  137.6170 C   0  0  0  0  0  3  0  0  0  0  0  0
  180.6850  180.7100  136.5560 C   0  0  0  0  0  3  0  0  0  0  0  0
  182.1100  176.7860  139.3720 C   0  0  2  0  0  3  0  0  0  0  0  0
  182.0760  173.9940  137.1970 C   0  0  0  0  0  0  0  0  0  0  0  0
  182.6350  172.7560  136.8630 C   0  0  0  0  0  3  0  0  0  0  0  0
  180.3230  174.1320  137.1850 Cl  0  0  0  0  0  0  0  0  0  0  0  0
  184.3050  174.8580  137.6220 C   0  0  0  0  0  3  0  0  0  0  0  0
  186.5850  173.3870  137.3430 Cl  0  0  0  0  0  0  0  0  0  0  0  0
  182.9180  175.0650  137.5790 C   0  0  0  0  0  0  0  0  0  0  0  0
  184.0170  172.5690  136.9030 C   0  0  0  0  0  3  0  0  0  0  0  0
  184.8520  173.6200  137.2860 C   0  0  0  0  0  0  0  0  0  0  0  0
  185.0060  177.9290  137.4440 O   0  0  0  0  0  1  0  0  0  0  0  0
  184.9650  178.8540  138.4880 C   0  0  2  0  0  3  0  0  0  0  0  0
  186.0600  178.5760  139.4710 C   0  0  0  0  0  3  0  0  0  0  0  0
  187.2110  178.4130  139.0980 O   0  0  0  0  0  0  0  0  0  0  0  0
  181.7100  175.5860  140.2350 C   0  0  0  0  0  2  0  0  0  0  0  0
  179.9820  176.4330  141.6500 O   0  0  0  0  0  1  0  0  0  0  0  0
  180.2230  175.6090  140.5500 C   0  0  0  0  0  2  0  0  0  0  0  0
  182.8580  178.1070  141.3970 C   0  0  0  0  0  2  0  0  0  0  0  0
  183.6710  179.1650  143.3770 O   0  0  0  0  0  1  0  0  0  0  0  0
  184.0680  178.6320  142.1510 C   0  0  1  0  0  3  0  0  0  0  0  0
  184.9560  177.5970  142.3690 F   0  0  0  0  0  0  0  0  0  0  0  0
  1 11  1  0  0  0  0
  2 27  1  1  0  0  0
  3  7  1  0  0  0  0
  3  1  2  0  0  0  0
  5  4  1  0  0  0  0
  5  8  1  0  0  0  0
  6 10  2  0  0  0  0
  6  7  1  0  0  0  0
  7  5  2  0  0  0  0
  8 21  1  6  0  0  0
  8  2  1  0  0  0  0
  9  4  2  0  0  0  0
 10  9  1  0  0  0  0
 11  2  1  0  0  0  0
 11 24  1  1  0  0  0
 12 17  1  0  0  0  0
 13 18  1  0  0  0  0
 13 12  2  0  0  0  0
 14 12  1  0  0  0  0
 17 15  2  0  0  0  0
 17  1  1  0  0  0  0
 18 19  2  0  0  0  0
 19 16  1  0  0  0  0
 19 15  1  0  0  0  0
 21 20  1  6  0  0  0
 21 22  1  0  0  0  0
 23 22  2  0  0  0  0
 24 26  1  0  0  0  0
 26 25  1  0  0  0  0
 27 29  1  0  0  0  0
 29 30  1  1  0  0  0
 29 28  1  0  0  0  0
M  END
>  <MODEL>
6

>  <REMARK>
 VINA RESULT:      -4.5      2.741      5.681
  Name = 
  7 active torsions:
  status: ('A' for Active; 'I' for Inactive)
    1  A    between atoms: C_1  and  C_22
    2  A    between atoms: C_4  and  C_25
    3  A    between atoms: C_7  and  C_30
    4  A    between atoms: C_10  and  C_23
    5  A    between atoms: C_10  and  C_26
    6  A    between atoms: C_11  and  C_25
    7  A    between atoms: C_13  and  C_30
                            x       y       z     vdW  Elec       q    Type
                         _______ _______ _______ _____ _____    ______ ____

>  <TORSDO>
F 7

$$$$
=
 OpenBabel10272413443D

 30 32  0  0  1  0  0  0  0  0999 V2000
  183.7110  177.9690  138.6610 C   0  0  0  0  0  0  0  0  0  0  0  0
  183.9180  175.8610  137.2520 C   0  0  2  0  0  3  0  0  0  0  0  0
  184.8830  178.6100  138.5870 C   0  0  0  0  0  3  0  0  0  0  0  0
  187.5730  176.2490  137.3180 C   0  0  0  0  0  3  0  0  0  0  0  0
  186.3180  176.8500  137.4730 C   0  0  0  0  0  0  0  0  0  0  0  0
  187.2890  178.4040  139.0740 C   0  0  0  0  0  3  0  0  0  0  0  0
  186.1730  177.9320  138.3740 C   0  0  0  0  0  0  0  0  0  0  0  0
  185.2020  176.3790  136.5700 C   0  0  2  0  0  3  0  0  0  0  0  0
  188.6740  176.7110  138.0430 C   0  0  0  0  0  3  0  0  0  0  0  0
  188.5330  177.7920  138.9150 C   0  0  0  0  0  3  0  0  0  0  0  0
  183.6850  176.4540  138.6550 C   0  0  2  0  0  3  0  0  0  0  0  0
  181.8420  179.2050  139.8580 C   0  0  0  0  0  0  0  0  0  0  0  0
  180.6660  179.9600  139.7930 C   0  0  0  0  0  3  0  0  0  0  0  0
  182.4610  178.7880  141.4500 Cl  0  0  0  0  0  0  0  0  0  0  0  0
  181.8690  179.0850  137.4340 C   0  0  0  0  0  3  0  0  0  0  0  0
  179.9830  180.2350  135.8320 Cl  0  0  0  0  0  0  0  0  0  0  0  0
  182.4580  178.7620  138.6650 C   0  0  0  0  0  0  0  0  0  0  0  0
  180.0970  180.2810  138.5600 C   0  0  0  0  0  3  0  0  0  0  0  0
  180.6970  179.8400  137.3800 C   0  0  0  0  0  0  0  0  0  0  0  0
  183.7680  177.0270  134.7220 O   0  0  0  0  0  1  0  0  0  0  0  0
  184.9760  177.2990  135.3650 C   0  0  2  0  0  3  0  0  0  0  0  0
  186.1110  177.2210  134.3910 C   0  0  0  0  0  3  0  0  0  0  0  0
  186.9680  178.0900  134.3560 O   0  0  0  0  0  0  0  0  0  0  0  0
  182.4510  175.8790  139.3560 C   0  0  0  0  0  2  0  0  0  0  0  0
  180.1360  175.3650  139.0760 O   0  0  0  0  0  1  0  0  0  0  0  0
  181.2940  175.7190  138.3830 C   0  0  0  0  0  2  0  0  0  0  0  0
  184.0140  174.3380  137.3060 C   0  0  0  0  0  2  0  0  0  0  0  0
  184.2920  172.7690  135.5270 O   0  0  0  0  0  1  0  0  0  0  0  0
  183.4050  173.6990  136.0690 C   0  0  1  0  0  3  0  0  0  0  0  0
  182.2300  173.0610  136.4170 F   0  0  0  0  0  0  0  0  0  0  0  0
  1 17  1  0  0  0  0
  2 27  1  1  0  0  0
  2 11  1  0  0  0  0
  3  1  2  0  0  0  0
  4  5  2  0  0  0  0
  4  9  1  0  0  0  0
  5  7  1  0  0  0  0
  7  3  1  0  0  0  0
  7  6  2  0  0  0  0
  8 21  1  6  0  0  0
  8  2  1  0  0  0  0
  8  5  1  0  0  0  0
  9 10  2  0  0  0  0
 10  6  1  0  0  0  0
 11  1  1  0  0  0  0
 11 24  1  6  0  0  0
 12 14  1  0  0  0  0
 13 12  1  0  0  0  0
 15 17  1  0  0  0  0
 16 19  1  0  0  0  0
 17 12  2  0  0  0  0
 18 13  2  0  0  0  0
 19 15  2  0  0  0  0
 19 18  1  0  0  0  0
 21 20  1  6  0  0  0
 22 21  1  0  0  0  0
 23 22  2  0  0  0  0
 26 25  1  0  0  0  0
 26 24  1  0  0  0  0
 29 28  1  1  0  0  0
 29 30  1  0  0  0  0
 29 27  1  0  0  0  0
M  END
>  <MODEL>
7

>  <REMARK>
 VINA RESULT:      -4.4      2.387      5.727
  Name = 
  7 active torsions:
  status: ('A' for Active; 'I' for Inactive)
    1  A    between atoms: C_1  and  C_22
    2  A    between atoms: C_4  and  C_25
    3  A    between atoms: C_7  and  C_30
    4  A    between atoms: C_10  and  C_23
    5  A    between atoms: C_10  and  C_26
    6  A    between atoms: C_11  and  C_25
    7  A    between atoms: C_13  and  C_30
                            x       y       z     vdW  Elec       q    Type
                         _______ _______ _______ _____ _____    ______ ____

>  <TORSDO>
F 7

$$$$
=
 OpenBabel10272413443D

 30 32  0  0  1  0  0  0  0  0999 V2000
  182.2410  176.7180  138.6750 C   0  0  0  0  0  0  0  0  0  0  0  0
  183.6240  176.7630  136.5390 C   0  0  2  0  0  3  0  0  0  0  0  0
  181.8110  175.4620  138.8390 C   0  0  0  0  0  3  0  0  0  0  0  0
  182.1340  173.5440  135.5770 C   0  0  0  0  0  3  0  0  0  0  0  0
  182.4250  174.4520  136.6020 C   0  0  0  0  0  0  0  0  0  0  0  0
  180.4580  173.6800  137.8080 C   0  0  0  0  0  3  0  0  0  0  0  0
  181.5660  174.5300  137.7250 C   0  0  0  0  0  0  0  0  0  0  0  0
  183.7200  175.2240  136.5050 C   0  0  2  0  0  3  0  0  0  0  0  0
  181.0090  172.7190  135.6590 C   0  0  0  0  0  3  0  0  0  0  0  0
  180.1760  172.7830  136.7770 C   0  0  0  0  0  3  0  0  0  0  0  0
  182.3750  177.2850  137.2760 C   0  0  2  0  0  3  0  0  0  0  0  0
  181.7240  178.0460  140.7770 C   0  0  0  0  0  0  0  0  0  0  0  0
  182.1800  178.7610  141.8900 C   0  0  0  0  0  3  0  0  0  0  0  0
  179.9860  177.9240  140.5370 Cl  0  0  0  0  0  0  0  0  0  0  0  0
  184.0260  177.6890  140.0940 C   0  0  0  0  0  3  0  0  0  0  0  0
  186.1850  178.6250  141.4750 Cl  0  0  0  0  0  0  0  0  0  0  0  0
  182.6550  177.4960  139.8660 C   0  0  0  0  0  0  0  0  0  0  0  0
  183.5470  178.9360  142.1080 C   0  0  0  0  0  3  0  0  0  0  0  0
  184.4700  178.4020  141.2080 C   0  0  0  0  0  0  0  0  0  0  0  0
  185.7970  175.5750  137.7110 O   0  0  0  0  0  1  0  0  0  0  0  0
  184.8440  174.6200  137.3540 C   0  0  2  0  0  3  0  0  0  0  0  0
  185.4990  173.4660  136.6620 C   0  0  0  0  0  3  0  0  0  0  0  0
  185.9100  172.5050  137.2940 O   0  0  0  0  0  0  0  0  0  0  0  0
  182.2470  178.8110  137.2400 C   0  0  0  0  0  2  0  0  0  0  0  0
  180.7230  180.1830  136.0170 O   0  0  0  0  0  1  0  0  0  0  0  0
  180.8020  179.2340  137.0370 C   0  0  0  0  0  2  0  0  0  0  0  0
  183.6560  177.2540  135.0930 C   0  0  0  0  0  2  0  0  0  0  0  0
  185.9260  177.9090  135.4450 O   0  0  0  0  0  1  0  0  0  0  0  0
  185.0730  177.2710  134.5450 C   0  0  1  0  0  3  0  0  0  0  0  0
  185.5040  175.9730  134.3510 F   0  0  0  0  0  0  0  0  0  0  0  0
  1  3  2  0  0  0  0
  1 17  1  0  0  0  0
  2 27  1  6  0  0  0
  2 11  1  0  0  0  0
  4  9  2  0  0  0  0
  4  5  1  0  0  0  0
  5  7  2  0  0  0  0
  7  6  1  0  0  0  0
  7  3  1  0  0  0  0
  8  2  1  0  0  0  0
  8  5  1  0  0  0  0
  8 21  1  1  0  0  0
  9 10  1  0  0  0  0
 10  6  2  0  0  0  0
 11 24  1  1  0  0  0
 11  1  1  0  0  0  0
 12 13  1  0  0  0  0
 13 18  2  0  0  0  0
 14 12  1  0  0  0  0
 15 19  2  0  0  0  0
 17 15  1  0  0  0  0
 17 12  2  0  0  0  0
 19 16  1  0  0  0  0
 19 18  1  0  0  0  0
 21 20  1  6  0  0  0
 22 23  2  0  0  0  0
 22 21  1  0  0  0  0
 25 26  1  0  0  0  0
 26 24  1  0  0  0  0
 29 30  1  1  0  0  0
 29 27  1  0  0  0  0
 29 28  1  0  0  0  0
M  END
>  <MODEL>
8

>  <REMARK>
 VINA RESULT:      -4.2      2.331      4.682
  Name = 
  7 active torsions:
  status: ('A' for Active; 'I' for Inactive)
    1  A    between atoms: C_1  and  C_22
    2  A    between atoms: C_4  and  C_25
    3  A    between atoms: C_7  and  C_30
    4  A    between atoms: C_10  and  C_23
    5  A    between atoms: C_10  and  C_26
    6  A    between atoms: C_11  and  C_25
    7  A    between atoms: C_13  and  C_30
                            x       y       z     vdW  Elec       q    Type
                         _______ _______ _______ _____ _____    ______ ____

>  <TORSDO>
F 7

$$$$
=
 OpenBabel10272413443D

 30 32  0  0  1  0  0  0  0  0999 V2000
  182.9030  176.4580  137.5510 C   0  0  0  0  0  0  0  0  0  0  0  0
  182.8290  178.8010  138.5420 C   0  0  2  0  0  3  0  0  0  0  0  0
  184.1890  176.0950  137.4930 C   0  0  0  0  0  3  0  0  0  0  0  0
  186.4160  179.1540  137.8190 C   0  0  0  0  0  3  0  0  0  0  0  0
  185.3290  178.2940  138.0110 C   0  0  0  0  0  0  0  0  0  0  0  0
  186.3720  176.6830  136.5160 C   0  0  0  0  0  3  0  0  0  0  0  0
  185.3010  177.0480  137.3380 C   0  0  0  0  0  0  0  0  0  0  0  0
  184.2890  178.6980  139.0300 C   0  0  2  0  0  3  0  0  0  0  0  0
  187.4670  178.7910  136.9740 C   0  0  0  0  0  3  0  0  0  0  0  0
  187.4480  177.5530  136.3280 C   0  0  0  0  0  3  0  0  0  0  0  0
  182.5240  177.9080  137.3230 C   0  0  2  0  0  3  0  0  0  0  0  0
  181.3440  174.5360  136.9810 C   0  0  0  0  0  0  0  0  0  0  0  0
  180.3960  173.5940  137.3940 C   0  0  0  0  0  3  0  0  0  0  0  0
  181.7650  174.5790  135.2740 Cl  0  0  0  0  0  0  0  0  0  0  0  0
  181.4540  175.3850  139.2520 C   0  0  0  0  0  3  0  0  0  0  0  0
  179.9880  174.3840  141.3230 Cl  0  0  0  0  0  0  0  0  0  0  0  0
  181.8870  175.4440  137.9190 C   0  0  0  0  0  0  0  0  0  0  0  0
  179.9820  173.5430  138.7260 C   0  0  0  0  0  3  0  0  0  0  0  0
  180.5090  174.4410  139.6540 C   0  0  0  0  0  0  0  0  0  0  0  0
  183.2560  177.6770  140.9750 O   0  0  0  0  0  1  0  0  0  0  0  0
  184.4770  178.0080  140.3860 C   0  0  2  0  0  3  0  0  0  0  0  0
  185.2960  178.8430  141.3210 C   0  0  0  0  0  3  0  0  0  0  0  0
  186.2840  178.3830  141.8720 O   0  0  0  0  0  0  0  0  0  0  0  0
  181.0950  178.0720  136.7970 C   0  0  0  0  0  2  0  0  0  0  0  0
  180.9040  179.4390  134.8490 O   0  0  0  0  0  1  0  0  0  0  0  0
  181.0740  178.1220  135.2790 C   0  0  0  0  0  2  0  0  0  0  0  0
  182.5560  180.2700  138.2300 C   0  0  0  0  0  2  0  0  0  0  0  0
  180.3050  181.0480  138.4090 O   0  0  0  0  0  1  0  0  0  0  0  0
  181.4760  180.8380  139.1370 C   0  0  1  0  0  3  0  0  0  0  0  0
  181.2230  179.9460  140.1600 F   0  0  0  0  0  0  0  0  0  0  0  0
  1 17  1  0  0  0  0
  2 27  1  6  0  0  0
  2  8  1  0  0  0  0
  3  1  2  0  0  0  0
  4  5  1  0  0  0  0
  5  8  1  0  0  0  0
  6  7  1  0  0  0  0
  7  3  1  0  0  0  0
  7  5  2  0  0  0  0
  8 21  1  1  0  0  0
  9  4  2  0  0  0  0
 10  6  2  0  0  0  0
 10  9  1  0  0  0  0
 11 24  1  1  0  0  0
 11  1  1  0  0  0  0
 11  2  1  0  0  0  0
 12 13  2  0  0  0  0
 12 17  1  0  0  0  0
 13 18  1  0  0  0  0
 14 12  1  0  0  0  0
 15 19  1  0  0  0  0
 17 15  2  0  0  0  0
 18 19  2  0  0  0  0
 19 16  1  0  0  0  0
 21 20  1  1  0  0  0
 21 22  1  0  0  0  0
 22 23  2  0  0  0  0
 25 26  1  0  0  0  0
 26 24  1  0  0  0  0
 27 29  1  0  0  0  0
 29 28  1  6  0  0  0
 29 30  1  0  0  0  0
M  END
>  <MODEL>
9

>  <REMARK>
 VINA RESULT:      -4.1      3.108      6.286
  Name = 
  7 active torsions:
  status: ('A' for Active; 'I' for Inactive)
    1  A    between atoms: C_1  and  C_22
    2  A    between atoms: C_4  and  C_25
    3  A    between atoms: C_7  and  C_30
    4  A    between atoms: C_10  and  C_23
    5  A    between atoms: C_10  and  C_26
    6  A    between atoms: C_11  and  C_25
    7  A    between atoms: C_13  and  C_30
                            x       y       z     vdW  Elec       q    Type
                         _______ _______ _______ _____ _____    ______ ____

>  <TORSDO>
F 7

$$$$
