=
 OpenBabel10272400533D

 25 27  0  0  1  0  0  0  0  0999 V2000
  190.4320  177.2750  140.7110 C   0  0  1  0  0  3  0  0  0  0  0  0
  190.0440  176.3110  141.7980 C   0  0  2  0  0  3  0  0  0  0  0  0
  191.7910  177.6220  140.9070 O   0  0  0  0  0  0  0  0  0  0  0  0
  192.1090  177.3460  142.2170 N   0  0  0  0  0  2  0  0  0  0  0  0
  190.6060  176.6380  144.0200 C   0  0  0  0  0  0  0  0  0  0  0  0
  191.3470  176.7790  145.0290 O   0  0  0  0  0  0  0  0  0  0  0  0
  188.2830  177.9400  142.2360 O   0  0  0  0  0  1  0  0  0  0  0  0
  189.1310  176.5780  144.0680 C   0  0  2  0  0  3  0  0  0  0  0  0
  188.7500  176.6630  142.5750 C   0  0  2  0  0  3  0  0  0  0  0  0
  191.1160  176.4950  142.7110 N   0  0  0  0  0  0  0  0  0  0  0  0
  189.1760  177.0640  138.5000 N   0  0  0  0  0  0  0  0  0  0  0  0
  186.9650  177.7040  136.9540 O   0  0  0  0  0  0  0  0  0  0  0  0
  188.9790  176.4150  137.2030 C   0  0  0  0  0  2  0  0  0  0  0  0
  187.4870  176.4010  136.8680 C   0  0  0  0  0  2  0  0  0  0  0  0
  186.9470  178.0380  138.3220 C   0  0  0  0  0  2  0  0  0  0  0  0
  190.2420  176.6400  139.3640 C   0  0  0  0  0  0  0  0  0  0  0  0
  190.9970  175.6900  139.0170 O   0  0  0  0  0  0  0  0  0  0  0  0
  188.3760  178.2460  138.8230 C   0  0  0  0  0  2  0  0  0  0  0  0
  188.4390  177.9180  145.1020 S   0  0  0  0  0  0  0  0  0  0  0  0
  186.7810  177.1700  145.0920 C   0  0  0  0  0  2  0  0  0  0  0  0
  185.7480  178.2130  145.3720 C   0  0  0  0  0  0  0  0  0  0  0  0
  185.7740  178.9480  146.8390 S   0  0  0  0  0  0  0  0  0  0  0  0
  184.7200  178.5060  144.4060 N   0  0  0  0  0  0  0  0  0  0  0  0
  184.9690  178.3470  142.9820 C   0  0  0  0  0  1  0  0  0  0  0  0
  183.4010  178.9740  144.8110 C   0  0  0  0  0  1  0  0  0  0  0  0
  1 16  1  6  0  0  0
  1  3  1  0  0  0  0
  1  2  1  0  0  0  0
  2  9  1  0  0  0  0
  2 10  1  1  0  0  0
  3  4  1  0  0  0  0
  4 10  1  0  0  0  0
  5  8  1  0  0  0  0
  5  6  2  0  0  0  0
  8 19  1  1  0  0  0
  9  7  1  6  0  0  0
  9  8  1  0  0  0  0
 10  5  1  0  0  0  0
 11 18  1  0  0  0  0
 11 16  1  0  0  0  0
 12 15  1  0  0  0  0
 13 11  1  0  0  0  0
 14 12  1  0  0  0  0
 14 13  1  0  0  0  0
 15 18  1  0  0  0  0
 17 16  2  0  0  0  0
 20 19  1  0  0  0  0
 20 21  1  0  0  0  0
 21 22  2  0  0  0  0
 23 25  1  0  0  0  0
 23 21  1  0  0  0  0
 24 23  1  0  0  0  0
M  END
>  <MODEL>
1

>  <REMARK>
 VINA RESULT:      -6.8      0.000      0.000
  Name = 
  5 active torsions:
  status: ('A' for Active; 'I' for Inactive)
    1  A    between atoms: C_1  and  C_18
    2  A    between atoms: N_2  and  C_21
    3  A    between atoms: S_6  and  C_15
    4  A    between atoms: S_6  and  C_20
    5  A    between atoms: C_15  and  C_21
                            x       y       z     vdW  Elec       q    Type
                         _______ _______ _______ _____ _____    ______ ____

>  <TORSDO>
F 5

$$$$
=
 OpenBabel10272400533D

 25 27  0  0  1  0  0  0  0  0999 V2000
  188.9930  177.8640  142.5450 C   0  0  1  0  0  3  0  0  0  0  0  0
  187.7340  177.1940  143.0220 C   0  0  2  0  0  3  0  0  0  0  0  0
  189.8000  178.1250  143.6800 O   0  0  0  0  0  0  0  0  0  0  0  0
  188.9840  178.1090  144.7870 N   0  0  0  0  0  2  0  0  0  0  0  0
  186.5390  177.9380  144.8590 C   0  0  0  0  0  0  0  0  0  0  0  0
  186.3060  178.2260  146.0630 O   0  0  0  0  0  0  0  0  0  0  0  0
  186.6380  179.0280  141.8460 O   0  0  0  0  0  1  0  0  0  0  0  0
  185.5410  178.0200  143.7730 C   0  0  2  0  0  3  0  0  0  0  0  0
  186.4100  177.8170  142.5130 C   0  0  2  0  0  3  0  0  0  0  0  0
  187.7960  177.4740  144.4130 N   0  0  0  0  0  0  0  0  0  0  0  0
  189.6960  177.2550  140.1690 N   0  0  0  0  0  0  0  0  0  0  0  0
  189.4290  177.6510  137.4370 O   0  0  0  0  0  0  0  0  0  0  0  0
  190.3790  176.3620  139.2310 C   0  0  0  0  0  2  0  0  0  0  0  0
  189.6110  176.3380  137.9090 C   0  0  0  0  0  2  0  0  0  0  0  0
  188.4950  178.2580  138.2990 C   0  0  0  0  0  2  0  0  0  0  0  0
  189.7190  176.9750  141.5780 C   0  0  0  0  0  0  0  0  0  0  0  0
  190.3080  175.9460  142.0080 O   0  0  0  0  0  0  0  0  0  0  0  0
  189.1350  178.5080  139.6640 C   0  0  0  0  0  2  0  0  0  0  0  0
  184.6320  179.6050  143.8160 S   0  0  0  0  0  0  0  0  0  0  0  0
  183.0500  178.7750  144.1540 C   0  0  0  0  0  2  0  0  0  0  0  0
  182.1510  178.8840  142.9650 C   0  0  0  0  0  0  0  0  0  0  0  0
  182.8220  178.7350  141.4750 S   0  0  0  0  0  0  0  0  0  0  0  0
  180.7500  179.1820  143.1290 N   0  0  0  0  0  0  0  0  0  0  0  0
  179.9890  178.6060  144.2270 C   0  0  0  0  0  1  0  0  0  0  0  0
  180.0430  180.0630  142.2090 C   0  0  0  0  0  1  0  0  0  0  0  0
  1 16  1  6  0  0  0
  1  2  1  0  0  0  0
  1  3  1  0  0  0  0
  2 10  1  1  0  0  0
  3  4  1  0  0  0  0
  5  6  2  0  0  0  0
  8 19  1  6  0  0  0
  8  5  1  0  0  0  0
  9  7  1  1  0  0  0
  9  2  1  0  0  0  0
  9  8  1  0  0  0  0
 10  4  1  0  0  0  0
 10  5  1  0  0  0  0
 11 16  1  0  0  0  0
 12 14  1  0  0  0  0
 12 15  1  0  0  0  0
 13 11  1  0  0  0  0
 14 13  1  0  0  0  0
 15 18  1  0  0  0  0
 16 17  2  0  0  0  0
 18 11  1  0  0  0  0
 19 20  1  0  0  0  0
 21 23  1  0  0  0  0
 21 20  1  0  0  0  0
 22 21  2  0  0  0  0
 23 24  1  0  0  0  0
 25 23  1  0  0  0  0
M  END
>  <MODEL>
2

>  <REMARK>
 VINA RESULT:      -6.6      2.672      3.615
  Name = 
  5 active torsions:
  status: ('A' for Active; 'I' for Inactive)
    1  A    between atoms: C_1  and  C_18
    2  A    between atoms: N_2  and  C_21
    3  A    between atoms: S_6  and  C_15
    4  A    between atoms: S_6  and  C_20
    5  A    between atoms: C_15  and  C_21
                            x       y       z     vdW  Elec       q    Type
                         _______ _______ _______ _____ _____    ______ ____

>  <TORSDO>
F 5

$$$$
=
 OpenBabel10272400533D

 25 27  0  0  1  0  0  0  0  0999 V2000
  187.5360  177.2710  145.9300 C   0  0  1  0  0  3  0  0  0  0  0  0
  188.6090  178.1430  145.3370 C   0  0  2  0  0  3  0  0  0  0  0  0
  188.0220  176.7670  147.1610 O   0  0  0  0  0  0  0  0  0  0  0  0
  189.3940  176.8620  147.1410 N   0  0  0  0  0  2  0  0  0  0  0  0
  190.8360  177.5170  145.2690 C   0  0  0  0  0  0  0  0  0  0  0  0
  191.9720  177.1900  145.7050 O   0  0  0  0  0  0  0  0  0  0  0  0
  188.3640  176.6640  143.4130 O   0  0  0  0  0  1  0  0  0  0  0  0
  190.5170  177.7210  143.8410 C   0  0  2  0  0  3  0  0  0  0  0  0
  188.9780  177.8410  143.8630 C   0  0  2  0  0  3  0  0  0  0  0  0
  189.7300  177.7510  146.1150 N   0  0  0  0  0  0  0  0  0  0  0  0
  185.3690  178.3010  145.0640 N   0  0  0  0  0  0  0  0  0  0  0  0
  183.7480  178.9660  142.9140 O   0  0  0  0  0  0  0  0  0  0  0  0
  184.1650  179.1070  145.2780 C   0  0  0  0  0  2  0  0  0  0  0  0
  183.8330  179.8660  143.9930 C   0  0  0  0  0  2  0  0  0  0  0  0
  185.0620  178.5290  142.6550 C   0  0  0  0  0  2  0  0  0  0  0  0
  186.2830  178.0670  146.1470 C   0  0  0  0  0  0  0  0  0  0  0  0
  186.0620  178.5770  147.2800 O   0  0  0  0  0  0  0  0  0  0  0  0
  185.5340  177.6130  143.7830 C   0  0  0  0  0  2  0  0  0  0  0  0
  191.1540  176.3530  142.8090 S   0  0  0  0  0  0  0  0  0  0  0  0
  191.6750  177.4910  141.4910 C   0  0  0  0  0  2  0  0  0  0  0  0
  190.9240  177.1960  140.2330 C   0  0  0  0  0  0  0  0  0  0  0  0
  189.3150  177.5160  140.2020 S   0  0  0  0  0  0  0  0  0  0  0  0
  191.5860  176.5800  139.1100 N   0  0  0  0  0  0  0  0  0  0  0  0
  193.0160  176.7510  138.9040 C   0  0  0  0  0  1  0  0  0  0  0  0
  190.8570  175.7730  138.1410 C   0  0  0  0  0  1  0  0  0  0  0  0
  1 16  1  1  0  0  0
  1  3  1  0  0  0  0
  2  1  1  0  0  0  0
  2 10  1  1  0  0  0
  4  3  1  0  0  0  0
  5  6  2  0  0  0  0
  5 10  1  0  0  0  0
  8 19  1  6  0  0  0
  8  9  1  0  0  0  0
  8  5  1  0  0  0  0
  9  7  1  1  0  0  0
  9  2  1  0  0  0  0
 10  4  1  0  0  0  0
 11 13  1  0  0  0  0
 11 16  1  0  0  0  0
 12 14  1  0  0  0  0
 14 13  1  0  0  0  0
 15 12  1  0  0  0  0
 15 18  1  0  0  0  0
 16 17  2  0  0  0  0
 18 11  1  0  0  0  0
 20 19  1  0  0  0  0
 21 20  1  0  0  0  0
 22 21  2  0  0  0  0
 23 21  1  0  0  0  0
 24 23  1  0  0  0  0
 25 23  1  0  0  0  0
M  END
>  <MODEL>
3

>  <REMARK>
 VINA RESULT:      -6.4      3.200      6.646
  Name = 
  5 active torsions:
  status: ('A' for Active; 'I' for Inactive)
    1  A    between atoms: C_1  and  C_18
    2  A    between atoms: N_2  and  C_21
    3  A    between atoms: S_6  and  C_15
    4  A    between atoms: S_6  and  C_20
    5  A    between atoms: C_15  and  C_21
                            x       y       z     vdW  Elec       q    Type
                         _______ _______ _______ _____ _____    ______ ____

>  <TORSDO>
F 5

$$$$
=
 OpenBabel10272400533D

 25 27  0  0  1  0  0  0  0  0999 V2000
  189.4860  176.9070  145.0110 C   0  0  1  0  0  3  0  0  0  0  0  0
  189.7870  177.9860  144.0070 C   0  0  2  0  0  3  0  0  0  0  0  0
  190.7040  176.2520  145.3180 O   0  0  0  0  0  0  0  0  0  0  0  0
  191.5850  176.5040  144.2920 N   0  0  0  0  0  2  0  0  0  0  0  0
  191.1420  177.6370  142.1630 C   0  0  0  0  0  0  0  0  0  0  0  0
  192.1900  177.3690  141.5180 O   0  0  0  0  0  0  0  0  0  0  0  0
  188.0780  176.8520  142.6870 O   0  0  0  0  0  1  0  0  0  0  0  0
  189.8650  178.0530  141.5480 C   0  0  2  0  0  3  0  0  0  0  0  0
  188.8900  177.9930  142.7430 C   0  0  2  0  0  3  0  0  0  0  0  0
  191.0800  177.5920  143.5730 N   0  0  0  0  0  0  0  0  0  0  0  0
  187.4790  177.7880  146.3170 N   0  0  0  0  0  0  0  0  0  0  0  0
  184.8180  178.5710  146.3420 O   0  0  0  0  0  0  0  0  0  0  0  0
  186.9090  178.4030  147.5170 C   0  0  0  0  0  2  0  0  0  0  0  0
  185.7390  179.3010  147.1160 C   0  0  0  0  0  2  0  0  0  0  0  0
  185.4390  178.3380  145.0990 C   0  0  0  0  0  2  0  0  0  0  0  0
  188.8850  177.5060  146.2490 C   0  0  0  0  0  0  0  0  0  0  0  0
  189.6370  177.8090  147.2170 O   0  0  0  0  0  0  0  0  0  0  0  0
  186.5720  177.3260  145.2670 C   0  0  0  0  0  2  0  0  0  0  0  0
  189.4110  176.9700  140.1470 S   0  0  0  0  0  0  0  0  0  0  0  0
  188.1770  178.1550  139.5340 C   0  0  0  0  0  2  0  0  0  0  0  0
  187.9760  177.9710  138.0640 C   0  0  0  0  0  0  0  0  0  0  0  0
  188.9290  178.8310  137.0420 S   0  0  0  0  0  0  0  0  0  0  0  0
  186.9270  177.1160  137.5680 N   0  0  0  0  0  0  0  0  0  0  0  0
  187.2210  175.7660  137.1110 C   0  0  0  0  0  1  0  0  0  0  0  0
  185.5430  177.5630  137.5010 C   0  0  0  0  0  1  0  0  0  0  0  0
  1  3  1  0  0  0  0
  1 16  1  1  0  0  0
  2 10  1  6  0  0  0
  2  1  1  0  0  0  0
  4  3  1  0  0  0  0
  5 10  1  0  0  0  0
  6  5  2  0  0  0  0
  8 19  1  6  0  0  0
  8  5  1  0  0  0  0
  8  9  1  0  0  0  0
  9  7  1  6  0  0  0
  9  2  1  0  0  0  0
 10  4  1  0  0  0  0
 11 13  1  0  0  0  0
 12 14  1  0  0  0  0
 14 13  1  0  0  0  0
 15 18  1  0  0  0  0
 15 12  1  0  0  0  0
 16 11  1  0  0  0  0
 16 17  2  0  0  0  0
 18 11  1  0  0  0  0
 20 19  1  0  0  0  0
 21 20  1  0  0  0  0
 22 21  2  0  0  0  0
 23 21  1  0  0  0  0
 24 23  1  0  0  0  0
 25 23  1  0  0  0  0
M  END
>  <MODEL>
4

>  <REMARK>
 VINA RESULT:      -6.4      2.764      6.568
  Name = 
  5 active torsions:
  status: ('A' for Active; 'I' for Inactive)
    1  A    between atoms: C_1  and  C_18
    2  A    between atoms: N_2  and  C_21
    3  A    between atoms: S_6  and  C_15
    4  A    between atoms: S_6  and  C_20
    5  A    between atoms: C_15  and  C_21
                            x       y       z     vdW  Elec       q    Type
                         _______ _______ _______ _____ _____    ______ ____

>  <TORSDO>
F 5

$$$$
=
 OpenBabel10272400533D

 25 27  0  0  1  0  0  0  0  0999 V2000
  190.5940  177.3020  139.9650 C   0  0  1  0  0  3  0  0  0  0  0  0
  190.1960  176.4320  141.1250 C   0  0  2  0  0  3  0  0  0  0  0  0
  191.9470  177.6770  140.1510 O   0  0  0  0  0  0  0  0  0  0  0  0
  192.2460  177.5170  141.4840 N   0  0  0  0  0  2  0  0  0  0  0  0
  190.7210  176.9520  143.3180 C   0  0  0  0  0  0  0  0  0  0  0  0
  191.4440  177.1860  144.3230 O   0  0  0  0  0  0  0  0  0  0  0  0
  188.4150  178.0770  141.3950 O   0  0  0  0  0  1  0  0  0  0  0  0
  189.2450  176.8840  143.3500 C   0  0  2  0  0  3  0  0  0  0  0  0
  188.8870  176.8380  141.8490 C   0  0  2  0  0  3  0  0  0  0  0  0
  191.2520  176.7030  142.0350 N   0  0  0  0  0  0  0  0  0  0  0  0
  189.6510  177.1060  137.6020 N   0  0  0  0  0  0  0  0  0  0  0  0
  187.9360  178.0590  135.6420 O   0  0  0  0  0  0  0  0  0  0  0  0
  189.4690  176.3520  136.3610 C   0  0  0  0  0  2  0  0  0  0  0  0
  188.0910  176.6670  135.7770 C   0  0  0  0  0  2  0  0  0  0  0  0
  187.8180  178.5750  136.9470 C   0  0  0  0  0  2  0  0  0  0  0  0
  190.4290  176.5530  138.6750 C   0  0  0  0  0  0  0  0  0  0  0  0
  190.9390  175.4050  138.5580 O   0  0  0  0  0  0  0  0  0  0  0  0
  189.1650  178.4850  137.6640 C   0  0  0  0  0  2  0  0  0  0  0  0
  188.5270  178.3010  144.2550 S   0  0  0  0  0  0  0  0  0  0  0  0
  187.3950  177.2260  145.1880 C   0  0  0  0  0  2  0  0  0  0  0  0
  187.2280  177.7460  146.5790 C   0  0  0  0  0  0  0  0  0  0  0  0
  185.8860  178.6290  146.9160 S   0  0  0  0  0  0  0  0  0  0  0  0
  188.2530  177.5350  147.5700 N   0  0  0  0  0  0  0  0  0  0  0  0
  189.4350  176.7440  147.2630 C   0  0  0  0  0  1  0  0  0  0  0  0
  188.1480  178.0970  148.9100 C   0  0  0  0  0  1  0  0  0  0  0  0
  1 16  1  6  0  0  0
  1  3  1  0  0  0  0
  1  2  1  0  0  0  0
  2  9  1  0  0  0  0
  2 10  1  1  0  0  0
  3  4  1  0  0  0  0
  4 10  1  0  0  0  0
  5  8  1  0  0  0  0
  5  6  2  0  0  0  0
  8 19  1  6  0  0  0
  9  7  1  6  0  0  0
  9  8  1  0  0  0  0
 10  5  1  0  0  0  0
 11 18  1  0  0  0  0
 11 16  1  0  0  0  0
 12 14  1  0  0  0  0
 12 15  1  0  0  0  0
 13 11  1  0  0  0  0
 14 13  1  0  0  0  0
 15 18  1  0  0  0  0
 17 16  2  0  0  0  0
 19 20  1  0  0  0  0
 20 21  1  0  0  0  0
 21 22  2  0  0  0  0
 21 23  1  0  0  0  0
 23 25  1  0  0  0  0
 24 23  1  0  0  0  0
M  END
>  <MODEL>
5

>  <REMARK>
 VINA RESULT:      -6.2      1.765      2.261
  Name = 
  5 active torsions:
  status: ('A' for Active; 'I' for Inactive)
    1  A    between atoms: C_1  and  C_18
    2  A    between atoms: N_2  and  C_21
    3  A    between atoms: S_6  and  C_15
    4  A    between atoms: S_6  and  C_20
    5  A    between atoms: C_15  and  C_21
                            x       y       z     vdW  Elec       q    Type
                         _______ _______ _______ _____ _____    ______ ____

>  <TORSDO>
F 5

$$$$
=
 OpenBabel10272400533D

 25 27  0  0  1  0  0  0  0  0999 V2000
  188.5770  176.9590  143.7420 C   0  0  1  0  0  3  0  0  0  0  0  0
  189.2100  177.9420  142.7960 C   0  0  2  0  0  3  0  0  0  0  0  0
  189.3670  175.7840  143.7350 O   0  0  0  0  0  0  0  0  0  0  0  0
  190.1100  175.7850  142.5780 N   0  0  0  0  0  2  0  0  0  0  0  0
  189.9670  177.3460  140.6920 C   0  0  0  0  0  0  0  0  0  0  0  0
  190.6610  176.7510  139.8250 O   0  0  0  0  0  0  0  0  0  0  0  0
  187.0030  177.9470  141.7580 O   0  0  0  0  0  1  0  0  0  0  0  0
  188.9690  178.3920  140.3890 C   0  0  2  0  0  3  0  0  0  0  0  0
  188.2580  178.5710  141.7470 C   0  0  2  0  0  3  0  0  0  0  0  0
  190.0880  177.0900  142.0750 N   0  0  0  0  0  0  0  0  0  0  0  0
  187.2450  177.8650  145.7210 N   0  0  0  0  0  0  0  0  0  0  0  0
  184.8230  178.7310  146.7590 O   0  0  0  0  0  0  0  0  0  0  0  0
  187.1940  178.4610  147.0570 C   0  0  0  0  0  2  0  0  0  0  0  0
  185.9960  179.4080  147.1400 C   0  0  0  0  0  2  0  0  0  0  0  0
  184.9220  178.5150  145.3700 C   0  0  0  0  0  2  0  0  0  0  0  0
  188.5110  177.5400  145.1240 C   0  0  0  0  0  0  0  0  0  0  0  0
  189.5830  177.7900  145.7410 O   0  0  0  0  0  0  0  0  0  0  0  0
  185.9920  177.4630  145.0830 C   0  0  0  0  0  2  0  0  0  0  0  0
  187.8650  177.8890  139.0200 S   0  0  0  0  0  0  0  0  0  0  0  0
  188.9790  178.5920  137.7660 C   0  0  0  0  0  2  0  0  0  0  0  0
  188.7200  177.9570  136.4380 C   0  0  0  0  0  0  0  0  0  0  0  0
  187.2250  178.1250  135.7820 S   0  0  0  0  0  0  0  0  0  0  0  0
  189.7350  177.1620  135.7940 N   0  0  0  0  0  0  0  0  0  0  0  0
  190.6500  176.3460  136.5780 C   0  0  0  0  0  1  0  0  0  0  0  0
  189.8890  177.1450  134.3460 C   0  0  0  0  0  1  0  0  0  0  0  0
  1 16  1  1  0  0  0
  2 10  1  6  0  0  0
  2  1  1  0  0  0  0
  3  1  1  0  0  0  0
  4  3  1  0  0  0  0
  5 10  1  0  0  0  0
  6  5  2  0  0  0  0
  8 19  1  6  0  0  0
  8  5  1  0  0  0  0
  8  9  1  0  0  0  0
  9  7  1  6  0  0  0
  9  2  1  0  0  0  0
 10  4  1  0  0  0  0
 11 13  1  0  0  0  0
 12 14  1  0  0  0  0
 13 14  1  0  0  0  0
 15 12  1  0  0  0  0
 16 11  1  0  0  0  0
 16 17  2  0  0  0  0
 18 15  1  0  0  0  0
 18 11  1  0  0  0  0
 20 19  1  0  0  0  0
 21 20  1  0  0  0  0
 22 21  2  0  0  0  0
 23 21  1  0  0  0  0
 23 24  1  0  0  0  0
 25 23  1  0  0  0  0
M  END
>  <MODEL>
6

>  <REMARK>
 VINA RESULT:      -6.2      3.060      7.261
  Name = 
  5 active torsions:
  status: ('A' for Active; 'I' for Inactive)
    1  A    between atoms: C_1  and  C_18
    2  A    between atoms: N_2  and  C_21
    3  A    between atoms: S_6  and  C_15
    4  A    between atoms: S_6  and  C_20
    5  A    between atoms: C_15  and  C_21
                            x       y       z     vdW  Elec       q    Type
                         _______ _______ _______ _____ _____    ______ ____

>  <TORSDO>
F 5

$$$$
=
 OpenBabel10272400533D

 25 27  0  0  1  0  0  0  0  0999 V2000
  187.6770  178.4520  139.1470 C   0  0  1  0  0  3  0  0  0  0  0  0
  188.2630  177.3010  139.9180 C   0  0  2  0  0  3  0  0  0  0  0  0
  188.6230  178.8400  138.1660 O   0  0  0  0  0  0  0  0  0  0  0  0
  189.8540  178.3700  138.5620 N   0  0  0  0  0  2  0  0  0  0  0  0
  190.4490  177.2870  140.6800 C   0  0  0  0  0  0  0  0  0  0  0  0
  191.7070  177.3020  140.6200 O   0  0  0  0  0  0  0  0  0  0  0  0
  187.8340  178.7310  141.8460 O   0  0  0  0  0  1  0  0  0  0  0  0
  189.6730  177.1350  141.9280 C   0  0  2  0  0  3  0  0  0  0  0  0
  188.2350  177.4450  141.4610 C   0  0  2  0  0  3  0  0  0  0  0  0
  189.6280  177.3930  139.5360 N   0  0  0  0  0  0  0  0  0  0  0  0
  185.1300  178.3110  139.1350 N   0  0  0  0  0  0  0  0  0  0  0  0
  182.7280  178.6060  140.4900 O   0  0  0  0  0  0  0  0  0  0  0  0
  183.8800  177.8740  138.5110 C   0  0  0  0  0  2  0  0  0  0  0  0
  182.8670  177.5240  139.6010 C   0  0  0  0  0  2  0  0  0  0  0  0
  183.9270  178.6750  141.2250 C   0  0  0  0  0  2  0  0  0  0  0  0
  186.3880  178.0390  138.4990 C   0  0  0  0  0  0  0  0  0  0  0  0
  186.4200  177.4000  137.4110 O   0  0  0  0  0  0  0  0  0  0  0  0
  185.0610  179.1620  140.3230 C   0  0  0  0  0  2  0  0  0  0  0  0
  190.2940  178.2440  143.2430 S   0  0  0  0  0  0  0  0  0  0  0  0
  190.3410  176.8940  144.4610 C   0  0  0  0  0  2  0  0  0  0  0  0
  189.4560  177.2200  145.6200 C   0  0  0  0  0  0  0  0  0  0  0  0
  187.9070  177.6630  145.3050 S   0  0  0  0  0  0  0  0  0  0  0  0
  189.9740  177.2140  146.9640 N   0  0  0  0  0  0  0  0  0  0  0  0
  189.2630  177.8890  148.0400 C   0  0  0  0  0  1  0  0  0  0  0  0
  191.2200  176.5400  147.3010 C   0  0  0  0  0  1  0  0  0  0  0  0
  1 16  1  6  0  0  0
  1  2  1  0  0  0  0
  2 10  1  6  0  0  0
  2  9  1  0  0  0  0
  3  4  1  0  0  0  0
  3  1  1  0  0  0  0
  4 10  1  0  0  0  0
  5  8  1  0  0  0  0
  6  5  2  0  0  0  0
  8 19  1  1  0  0  0
  9  7  1  6  0  0  0
  9  8  1  0  0  0  0
 10  5  1  0  0  0  0
 11 18  1  0  0  0  0
 12 15  1  0  0  0  0
 13 11  1  0  0  0  0
 13 14  1  0  0  0  0
 14 12  1  0  0  0  0
 16 11  1  0  0  0  0
 17 16  2  0  0  0  0
 18 15  1  0  0  0  0
 19 20  1  0  0  0  0
 20 21  1  0  0  0  0
 21 23  1  0  0  0  0
 22 21  2  0  0  0  0
 23 25  1  0  0  0  0
 23 24  1  0  0  0  0
M  END
>  <MODEL>
7

>  <REMARK>
 VINA RESULT:      -6.1      2.542      4.440
  Name = 
  5 active torsions:
  status: ('A' for Active; 'I' for Inactive)
    1  A    between atoms: C_1  and  C_18
    2  A    between atoms: N_2  and  C_21
    3  A    between atoms: S_6  and  C_15
    4  A    between atoms: S_6  and  C_20
    5  A    between atoms: C_15  and  C_21
                            x       y       z     vdW  Elec       q    Type
                         _______ _______ _______ _____ _____    ______ ____

>  <TORSDO>
F 5

$$$$
=
 OpenBabel10272400533D

 25 27  0  0  1  0  0  0  0  0999 V2000
  189.2340  178.2580  139.1520 C   0  0  1  0  0  3  0  0  0  0  0  0
  189.1770  176.9800  138.3610 C   0  0  2  0  0  3  0  0  0  0  0  0
  188.9200  179.3240  138.2730 O   0  0  0  0  0  0  0  0  0  0  0  0
  189.1340  178.8840  136.9880 N   0  0  0  0  0  2  0  0  0  0  0  0
  190.1270  176.7630  136.2620 C   0  0  0  0  0  0  0  0  0  0  0  0
  190.3170  176.9850  135.0370 O   0  0  0  0  0  0  0  0  0  0  0  0
  191.4560  176.6930  139.1790 O   0  0  0  0  0  1  0  0  0  0  0  0
  190.8230  175.7170  137.0390 C   0  0  2  0  0  3  0  0  0  0  0  0
  190.4160  176.0580  138.4880 C   0  0  2  0  0  3  0  0  0  0  0  0
  189.1940  177.4880  137.0350 N   0  0  0  0  0  0  0  0  0  0  0  0
  188.6530  177.7060  141.5740 N   0  0  0  0  0  0  0  0  0  0  0  0
  189.3530  176.4940  143.9690 O   0  0  0  0  0  0  0  0  0  0  0  0
  187.6810  177.6310  142.6670 C   0  0  0  0  0  2  0  0  0  0  0  0
  188.0100  176.4280  143.5520 C   0  0  0  0  0  2  0  0  0  0  0  0
  190.1370  176.2330  142.8280 C   0  0  0  0  0  2  0  0  0  0  0  0
  188.2560  178.2090  140.2890 C   0  0  0  0  0  0  0  0  0  0  0  0
  187.0610  178.5650  140.0910 O   0  0  0  0  0  0  0  0  0  0  0  0
  190.0570  177.4150  141.8620 C   0  0  0  0  0  2  0  0  0  0  0  0
  192.6260  175.7430  136.7350 S   0  0  0  0  0  0  0  0  0  0  0  0
  192.8260  174.0370  137.3300 C   0  0  0  0  0  2  0  0  0  0  0  0
  194.1600  173.5040  136.9160 C   0  0  0  0  0  0  0  0  0  0  0  0
  194.1930  172.2320  135.8780 S   0  0  0  0  0  0  0  0  0  0  0  0
  195.3730  174.0490  137.4700 N   0  0  0  0  0  0  0  0  0  0  0  0
  195.5810  174.0900  138.9100 C   0  0  0  0  0  1  0  0  0  0  0  0
  196.4310  174.5800  136.6220 C   0  0  0  0  0  1  0  0  0  0  0  0
  1 16  1  1  0  0  0
  2 10  1  6  0  0  0
  2  9  1  0  0  0  0
  2  1  1  0  0  0  0
  3  1  1  0  0  0  0
  4 10  1  0  0  0  0
  4  3  1  0  0  0  0
  5 10  1  0  0  0  0
  5  8  1  0  0  0  0
  6  5  2  0  0  0  0
  8 19  1  1  0  0  0
  8  9  1  0  0  0  0
  9  7  1  6  0  0  0
 11 18  1  0  0  0  0
 11 13  1  0  0  0  0
 13 14  1  0  0  0  0
 14 12  1  0  0  0  0
 15 12  1  0  0  0  0
 16 11  1  0  0  0  0
 17 16  2  0  0  0  0
 18 15  1  0  0  0  0
 19 20  1  0  0  0  0
 21 20  1  0  0  0  0
 21 23  1  0  0  0  0
 22 21  2  0  0  0  0
 23 24  1  0  0  0  0
 25 23  1  0  0  0  0
M  END
>  <MODEL>
8

>  <REMARK>
 VINA RESULT:      -6.1      4.437      8.424
  Name = 
  5 active torsions:
  status: ('A' for Active; 'I' for Inactive)
    1  A    between atoms: C_1  and  C_18
    2  A    between atoms: N_2  and  C_21
    3  A    between atoms: S_6  and  C_15
    4  A    between atoms: S_6  and  C_20
    5  A    between atoms: C_15  and  C_21
                            x       y       z     vdW  Elec       q    Type
                         _______ _______ _______ _____ _____    ______ ____

>  <TORSDO>
F 5

$$$$
=
 OpenBabel10272400533D

 25 27  0  0  1  0  0  0  0  0999 V2000
  184.1820  178.2090  141.8990 C   0  0  1  0  0  3  0  0  0  0  0  0
  185.0390  179.1020  142.7530 C   0  0  2  0  0  3  0  0  0  0  0  0
  182.8620  178.2620  142.4090 O   0  0  0  0  0  0  0  0  0  0  0  0
  182.9320  178.7040  143.7090 N   0  0  0  0  0  2  0  0  0  0  0  0
  184.9370  179.0960  145.0660 C   0  0  0  0  0  0  0  0  0  0  0  0
  184.4370  179.2330  146.2140 O   0  0  0  0  0  0  0  0  0  0  0  0
  186.3840  177.0860  143.0300 O   0  0  0  0  0  1  0  0  0  0  0  0
  186.3500  178.7520  144.8070 C   0  0  2  0  0  3  0  0  0  0  0  0
  186.3450  178.4620  143.2900 C   0  0  2  0  0  3  0  0  0  0  0  0
  184.1940  179.2830  143.8800 N   0  0  0  0  0  0  0  0  0  0  0  0
  183.6230  177.8780  139.4320 N   0  0  0  0  0  0  0  0  0  0  0  0
  182.7160  176.2180  137.4030 O   0  0  0  0  0  0  0  0  0  0  0  0
  183.6880  178.3230  138.0390 C   0  0  0  0  0  2  0  0  0  0  0  0
  183.7740  177.1020  137.1230 C   0  0  0  0  0  2  0  0  0  0  0  0
  182.9940  175.6510  138.6620 C   0  0  0  0  0  2  0  0  0  0  0  0
  184.2130  178.6730  140.4720 C   0  0  0  0  0  0  0  0  0  0  0  0
  184.8100  179.7460  140.1840 O   0  0  0  0  0  0  0  0  0  0  0  0
  182.8130  176.7030  139.7560 C   0  0  0  0  0  2  0  0  0  0  0  0
  186.9000  177.3480  145.8420 S   0  0  0  0  0  0  0  0  0  0  0  0
  188.6410  177.5900  145.3770 C   0  0  0  0  0  2  0  0  0  0  0  0
  189.5210  177.3930  146.5680 C   0  0  0  0  0  0  0  0  0  0  0  0
  188.9380  177.8320  148.0380 S   0  0  0  0  0  0  0  0  0  0  0  0
  190.8650  176.8980  146.4140 N   0  0  0  0  0  0  0  0  0  0  0  0
  191.5360  176.9520  145.1230 C   0  0  0  0  0  1  0  0  0  0  0  0
  191.6030  176.3240  147.5320 C   0  0  0  0  0  1  0  0  0  0  0  0
  1 16  1  6  0  0  0
  1  3  1  0  0  0  0
  1  2  1  0  0  0  0
  2  9  1  0  0  0  0
  2 10  1  1  0  0  0
  3  4  1  0  0  0  0
  4 10  1  0  0  0  0
  5  6  2  0  0  0  0
  8  5  1  0  0  0  0
  8 19  1  1  0  0  0
  9  7  1  1  0  0  0
  9  8  1  0  0  0  0
 10  5  1  0  0  0  0
 11 18  1  0  0  0  0
 11 16  1  0  0  0  0
 12 15  1  0  0  0  0
 13 11  1  0  0  0  0
 14 12  1  0  0  0  0
 14 13  1  0  0  0  0
 15 18  1  0  0  0  0
 17 16  2  0  0  0  0
 20 19  1  0  0  0  0
 20 21  1  0  0  0  0
 21 22  2  0  0  0  0
 23 21  1  0  0  0  0
 23 25  1  0  0  0  0
 24 23  1  0  0  0  0
M  END
>  <MODEL>
9

>  <REMARK>
 VINA RESULT:      -6.0      3.811      5.965
  Name = 
  5 active torsions:
  status: ('A' for Active; 'I' for Inactive)
    1  A    between atoms: C_1  and  C_18
    2  A    between atoms: N_2  and  C_21
    3  A    between atoms: S_6  and  C_15
    4  A    between atoms: S_6  and  C_20
    5  A    between atoms: C_15  and  C_21
                            x       y       z     vdW  Elec       q    Type
                         _______ _______ _______ _____ _____    ______ ____

>  <TORSDO>
F 5

$$$$
