=
 OpenBabel10272414033D

 43 47  0  0  1  0  0  0  0  0999 V2000
  191.5910  176.4980  147.1470 C   0  0  0  0  0  0  0  0  0  0  0  0
  187.3520  177.7230  144.6710 C   0  0  0  0  0  0  0  0  0  0  0  0
  188.0420  177.7310  141.9760 C   0  0  0  0  0  0  0  0  0  0  0  0
  189.3170  177.1140  146.5840 C   0  0  0  0  0  0  0  0  0  0  0  0
  191.9300  176.4890  145.7910 C   0  0  0  0  0  3  0  0  0  0  0  0
  192.5500  176.1960  148.1030 O   0  0  0  0  0  1  0  0  0  0  0  0
  189.6540  177.1120  145.2090 C   0  0  0  0  0  0  0  0  0  0  0  0
  190.2860  176.8100  147.5430 C   0  0  0  0  0  3  0  0  0  0  0  0
  190.9680  176.7950  144.8250 C   0  0  0  0  0  3  0  0  0  0  0  0
  188.9720  177.4280  142.9230 N   0  0  0  0  0  0  0  0  0  0  0  0
  188.6700  177.4200  144.2510 C   0  0  0  0  0  0  0  0  0  0  0  0
  187.0380  177.7200  146.0360 C   0  0  0  0  0  3  0  0  0  0  0  0
  186.3700  178.0120  143.7080 C   0  0  0  0  0  0  0  0  0  0  0  0
  186.7320  178.0210  142.3540 C   0  0  0  0  0  3  0  0  0  0  0  0
  188.0150  177.4190  146.9870 C   0  0  0  0  0  3  0  0  0  0  0  0
  188.4020  177.7040  140.5300 C   0  0  1  0  0  3  0  0  0  0  0  0
  188.4800  179.0070  140.0340 O   0  0  0  0  0  1  0  0  0  0  0  0
  189.6780  177.0290  140.3560 N   0  0  0  0  0  2  0  0  0  0  0  0
  190.1490  177.3380  139.0160 C   0  0  0  0  0  2  0  0  0  0  0  0
  190.0330  176.1120  138.1160 C   0  0  1  0  0  3  0  0  0  0  0  0
  188.6450  176.0660  137.5100 C   0  0  0  0  0  1  0  0  0  0  0  0
  191.0940  176.0480  137.0070 C   0  0  2  0  0  3  0  0  0  0  0  0
  192.3910  174.3900  135.7680 C   0  0  0  0  0  2  0  0  0  0  0  0
  190.4780  175.8720  135.6370 C   0  0  0  0  0  2  0  0  0  0  0  0
  192.0980  174.9160  137.1690 C   0  0  1  0  0  3  0  0  0  0  0  0
  191.5580  175.2160  134.8050 C   0  0  0  0  0  2  0  0  0  0  0  0
  193.3590  175.4000  137.8930 C   0  0  2  0  0  3  0  0  0  0  0  0
  193.4690  176.7920  137.8150 O   0  0  0  0  0  1  0  0  0  0  0  0
  194.6260  174.7390  137.3460 C   0  0  1  0  0  3  0  0  0  0  0  0
  195.5050  175.7110  136.8670 O   0  0  0  0  0  1  0  0  0  0  0  0
  195.3190  173.9020  138.3820 C   0  0  0  0  0  0  0  0  0  0  0  0
  195.1430  172.5840  138.3690 C   0  0  0  0  0  2  0  0  0  0  0  0
  195.8240  175.3720  140.1700 O   0  0  0  0  0  1  0  0  0  0  0  0
  196.3890  174.4920  139.2460 C   0  0  0  0  0  2  0  0  0  0  0  0
  185.0610  178.3120  144.1280 O   0  0  0  0  0  0  0  0  0  0  0  0
  182.7920  178.3950  141.1640 C   0  0  0  0  0  3  0  0  0  0  0  0
  181.6250  178.8860  141.7590 C   0  0  0  0  0  0  0  0  0  0  0  0
  182.7660  179.0010  143.8920 C   0  0  0  0  0  3  0  0  0  0  0  0
  183.9400  178.2040  141.9360 C   0  0  0  0  0  3  0  0  0  0  0  0
  183.9380  178.5100  143.3070 C   0  0  0  0  0  0  0  0  0  0  0  0
  181.6150  179.1930  143.1220 C   0  0  0  0  0  3  0  0  0  0  0  0
  180.4920  178.3310  139.7090 N   0  0  0  0  0  1  0  0  0  0  0  0
  180.4070  179.1080  140.9340 C   0  0  0  0  0  2  0  0  0  0  0  0
  1  8  1  0  0  0  0
  1  6  1  0  0  0  0
  2 12  1  0  0  0  0
  3 14  2  0  0  0  0
  3 10  1  0  0  0  0
  4 15  1  0  0  0  0
  4  8  2  0  0  0  0
  5  1  2  0  0  0  0
  7  4  1  0  0  0  0
  9  7  2  0  0  0  0
  9  5  1  0  0  0  0
 10 11  2  0  0  0  0
 11  2  1  0  0  0  0
 11  7  1  0  0  0  0
 12 15  2  0  0  0  0
 13 35  1  0  0  0  0
 13  2  2  0  0  0  0
 14 13  1  0  0  0  0
 16 17  1  1  0  0  0
 16  3  1  0  0  0  0
 18 16  1  0  0  0  0
 19 18  1  0  0  0  0
 20 21  1  6  0  0  0
 20 19  1  0  0  0  0
 22 25  1  0  0  0  0
 22 20  1  1  0  0  0
 23 25  1  0  0  0  0
 24 22  1  0  0  0  0
 25 27  1  6  0  0  0
 26 24  1  0  0  0  0
 26 23  1  0  0  0  0
 27 28  1  6  0  0  0
 29 30  1  1  0  0  0
 29 27  1  0  0  0  0
 29 31  1  0  0  0  0
 31 34  1  0  0  0  0
 32 31  2  0  0  0  0
 34 33  1  0  0  0  0
 36 37  2  0  0  0  0
 36 39  1  0  0  0  0
 37 41  1  0  0  0  0
 39 40  2  0  0  0  0
 40 38  1  0  0  0  0
 40 35  1  0  0  0  0
 41 38  2  0  0  0  0
 42 43  1  0  0  0  0
 43 37  1  0  0  0  0
M  END
>  <MODEL>
1

>  <REMARK>
 VINA RESULT:     -10.0      0.000      0.000
  Name = 
  12 active torsions:
  status: ('A' for Active; 'I' for Inactive)
    1  A    between atoms: O_1  and  C_34
    2  A    between atoms: O_1  and  C_35
    3  A    between atoms: C_2  and  N_6
    4  A    between atoms: C_2  and  C_13
    5  A    between atoms: C_3  and  C_4
    6  A    between atoms: C_3  and  C_12
    7  A    between atoms: N_6  and  C_12
    8  A    between atoms: C_11  and  C_14
    9  A    between atoms: C_11  and  C_29
   10  A    between atoms: C_14  and  C_22
   11  A    between atoms: C_19  and  C_37
   12  A    between atoms: C_29  and  C_31
                            x       y       z     vdW  Elec       q    Type
                         _______ _______ _______ _____ _____    ______ ____

>  <TORSDO>
F 12

$$$$
=
 OpenBabel10272414033D

 43 47  0  0  1  0  0  0  0  0999 V2000
  191.5990  176.2550  147.1940 C   0  0  0  0  0  0  0  0  0  0  0  0
  187.4660  177.7420  144.6810 C   0  0  0  0  0  0  0  0  0  0  0  0
  188.2060  177.7930  142.0000 C   0  0  0  0  0  0  0  0  0  0  0  0
  189.3660  176.9910  146.6090 C   0  0  0  0  0  0  0  0  0  0  0  0
  191.9620  176.2690  145.8440 C   0  0  0  0  0  3  0  0  0  0  0  0
  192.5250  175.8820  148.1560 O   0  0  0  0  0  1  0  0  0  0  0  0
  189.7280  177.0110  145.2410 C   0  0  0  0  0  0  0  0  0  0  0  0
  190.3020  176.6160  147.5760 C   0  0  0  0  0  3  0  0  0  0  0  0
  191.0330  176.6450  144.8710 C   0  0  0  0  0  3  0  0  0  0  0  0
  189.1040  177.4220  142.9530 N   0  0  0  0  0  0  0  0  0  0  0  0
  188.7770  177.3900  144.2750 C   0  0  0  0  0  0  0  0  0  0  0  0
  187.1280  177.7150  146.0400 C   0  0  0  0  0  3  0  0  0  0  0  0
  186.5160  178.1020  143.7110 C   0  0  0  0  0  0  0  0  0  0  0  0
  186.9030  178.1320  142.3630 C   0  0  0  0  0  3  0  0  0  0  0  0
  188.0720  177.3430  146.9980 C   0  0  0  0  0  3  0  0  0  0  0  0
  188.5910  177.7900  140.5600 C   0  0  1  0  0  3  0  0  0  0  0  0
  188.4530  179.0730  140.0270 O   0  0  0  0  0  1  0  0  0  0  0  0
  189.9660  177.3410  140.4220 N   0  0  0  0  0  2  0  0  0  0  0  0
  189.9850  176.3210  139.3870 C   0  0  0  0  0  2  0  0  0  0  0  0
  189.6360  176.9320  138.0340 C   0  0  1  0  0  3  0  0  0  0  0  0
  190.8390  176.8340  137.1160 C   0  0  0  0  0  1  0  0  0  0  0  0
  188.4080  176.3010  137.3600 C   0  0  2  0  0  3  0  0  0  0  0  0
  187.4540  176.0120  135.1300 C   0  0  0  0  0  2  0  0  0  0  0  0
  188.6750  174.8870  136.8950 C   0  0  0  0  0  2  0  0  0  0  0  0
  187.9070  177.0600  136.1400 C   0  0  1  0  0  3  0  0  0  0  0  0
  187.6940  174.6560  135.7660 C   0  0  0  0  0  2  0  0  0  0  0  0
  186.7860  178.0340  136.5220 C   0  0  2  0  0  3  0  0  0  0  0  0
  187.3040  179.3090  136.7710 O   0  0  0  0  0  1  0  0  0  0  0  0
  185.9860  177.5450  137.7310 C   0  0  1  0  0  3  0  0  0  0  0  0
  185.7840  178.5940  138.6290 O   0  0  0  0  0  1  0  0  0  0  0  0
  184.6610  176.9630  137.3330 C   0  0  0  0  0  0  0  0  0  0  0  0
  184.5460  175.6420  137.2170 C   0  0  0  0  0  2  0  0  0  0  0  0
  182.3080  177.0260  137.6040 O   0  0  0  0  0  1  0  0  0  0  0  0
  183.4280  177.8100  137.3240 C   0  0  0  0  0  2  0  0  0  0  0  0
  185.2150  178.4510  144.1160 O   0  0  0  0  0  0  0  0  0  0  0  0
  182.9580  178.4230  141.1420 C   0  0  0  0  0  3  0  0  0  0  0  0
  181.7400  178.7400  141.7520 C   0  0  0  0  0  0  0  0  0  0  0  0
  182.8550  178.8770  143.8980 C   0  0  0  0  0  3  0  0  0  0  0  0
  184.1190  178.3270  141.9130 C   0  0  0  0  0  3  0  0  0  0  0  0
  184.0780  178.5580  143.2980 C   0  0  0  0  0  0  0  0  0  0  0  0
  181.6910  178.9720  143.1290 C   0  0  0  0  0  3  0  0  0  0  0  0
  180.8200  179.4890  139.6580 N   0  0  0  0  0  1  0  0  0  0  0  0
  180.5060  178.8610  140.9300 C   0  0  0  0  0  2  0  0  0  0  0  0
  1  8  1  0  0  0  0
  1  6  1  0  0  0  0
  2 12  1  0  0  0  0
  3 14  2  0  0  0  0
  3 10  1  0  0  0  0
  4 15  1  0  0  0  0
  4  8  2  0  0  0  0
  5  1  2  0  0  0  0
  7  4  1  0  0  0  0
  9  7  2  0  0  0  0
  9  5  1  0  0  0  0
 10 11  2  0  0  0  0
 11  2  1  0  0  0  0
 11  7  1  0  0  0  0
 12 15  2  0  0  0  0
 13 35  1  0  0  0  0
 13  2  2  0  0  0  0
 14 13  1  0  0  0  0
 16 17  1  1  0  0  0
 16  3  1  0  0  0  0
 18 16  1  0  0  0  0
 19 18  1  0  0  0  0
 20 21  1  6  0  0  0
 20 19  1  0  0  0  0
 22 20  1  6  0  0  0
 23 26  1  0  0  0  0
 23 25  1  0  0  0  0
 24 22  1  0  0  0  0
 25 27  1  1  0  0  0
 25 22  1  0  0  0  0
 26 24  1  0  0  0  0
 27 28  1  1  0  0  0
 27 29  1  0  0  0  0
 29 30  1  1  0  0  0
 31 29  1  0  0  0  0
 32 31  2  0  0  0  0
 34 31  1  0  0  0  0
 34 33  1  0  0  0  0
 36 37  2  0  0  0  0
 36 39  1  0  0  0  0
 37 41  1  0  0  0  0
 39 40  2  0  0  0  0
 40 38  1  0  0  0  0
 40 35  1  0  0  0  0
 41 38  2  0  0  0  0
 42 43  1  0  0  0  0
 43 37  1  0  0  0  0
M  END
>  <MODEL>
2

>  <REMARK>
 VINA RESULT:      -9.9      2.828      4.817
  Name = 
  12 active torsions:
  status: ('A' for Active; 'I' for Inactive)
    1  A    between atoms: O_1  and  C_34
    2  A    between atoms: O_1  and  C_35
    3  A    between atoms: C_2  and  N_6
    4  A    between atoms: C_2  and  C_13
    5  A    between atoms: C_3  and  C_4
    6  A    between atoms: C_3  and  C_12
    7  A    between atoms: N_6  and  C_12
    8  A    between atoms: C_11  and  C_14
    9  A    between atoms: C_11  and  C_29
   10  A    between atoms: C_14  and  C_22
   11  A    between atoms: C_19  and  C_37
   12  A    between atoms: C_29  and  C_31
                            x       y       z     vdW  Elec       q    Type
                         _______ _______ _______ _____ _____    ______ ____

>  <TORSDO>
F 12

$$$$
=
 OpenBabel10272414033D

 43 47  0  0  1  0  0  0  0  0999 V2000
  191.5970  176.4070  147.1360 C   0  0  0  0  0  0  0  0  0  0  0  0
  187.3110  177.7520  144.8080 C   0  0  0  0  0  0  0  0  0  0  0  0
  187.9060  177.7390  142.0920 C   0  0  0  0  0  0  0  0  0  0  0  0
  189.3230  177.0870  146.6520 C   0  0  0  0  0  0  0  0  0  0  0  0
  191.8880  176.3880  145.7690 C   0  0  0  0  0  3  0  0  0  0  0  0
  192.5800  176.0770  148.0580 O   0  0  0  0  0  1  0  0  0  0  0  0
  189.6120  177.0750  145.2660 C   0  0  0  0  0  0  0  0  0  0  0  0
  190.3160  176.7560  147.5780 C   0  0  0  0  0  3  0  0  0  0  0  0
  190.9020  176.7200  144.8370 C   0  0  0  0  0  3  0  0  0  0  0  0
  188.8600  177.4100  143.0050 N   0  0  0  0  0  0  0  0  0  0  0  0
  188.6040  177.4110  144.3430 C   0  0  0  0  0  0  0  0  0  0  0  0
  187.0450  177.7580  146.1840 C   0  0  0  0  0  3  0  0  0  0  0  0
  186.3040  178.0680  143.8810 C   0  0  0  0  0  0  0  0  0  0  0  0
  186.6190  178.0660  142.5150 C   0  0  0  0  0  3  0  0  0  0  0  0
  188.0450  177.4290  147.1000 C   0  0  0  0  0  3  0  0  0  0  0  0
  188.2140  177.7020  140.6340 C   0  0  1  0  0  3  0  0  0  0  0  0
  187.7070  178.8440  140.0100 O   0  0  0  0  0  1  0  0  0  0  0  0
  189.6530  177.6280  140.4390 N   0  0  0  0  0  2  0  0  0  0  0  0
  189.9040  176.5640  139.4820 C   0  0  0  0  0  2  0  0  0  0  0  0
  190.5330  177.1300  138.2120 C   0  0  1  0  0  3  0  0  0  0  0  0
  191.6460  176.2090  137.7520 C   0  0  0  0  0  1  0  0  0  0  0  0
  189.5350  177.3610  137.0690 C   0  0  2  0  0  3  0  0  0  0  0  0
  187.1210  177.4200  136.6910 C   0  0  0  0  0  2  0  0  0  0  0  0
  189.0890  178.8040  136.9810 C   0  0  0  0  0  2  0  0  0  0  0  0
  188.2620  176.5320  137.1750 C   0  0  1  0  0  3  0  0  0  0  0  0
  187.7340  178.7540  136.3090 C   0  0  0  0  0  2  0  0  0  0  0  0
  188.3840  175.2350  136.3660 C   0  0  2  0  0  3  0  0  0  0  0  0
  189.0310  175.4720  135.1490 O   0  0  0  0  0  1  0  0  0  0  0  0
  187.0240  174.5790  136.1220 C   0  0  1  0  0  3  0  0  0  0  0  0
  186.8530  174.3230  134.7610 O   0  0  0  0  0  1  0  0  0  0  0  0
  186.8650  173.3030  136.8970 C   0  0  0  0  0  0  0  0  0  0  0  0
  187.9360  172.5440  137.1150 C   0  0  0  0  0  2  0  0  0  0  0  0
  184.4970  173.2980  136.8230 O   0  0  0  0  0  1  0  0  0  0  0  0
  185.5960  173.0130  137.6340 C   0  0  0  0  0  2  0  0  0  0  0  0
  185.0200  178.4060  144.3460 O   0  0  0  0  0  0  0  0  0  0  0  0
  182.6860  178.6250  141.4400 C   0  0  0  0  0  3  0  0  0  0  0  0
  181.4850  178.8930  142.1060 C   0  0  0  0  0  0  0  0  0  0  0  0
  182.6570  178.8510  144.2250 C   0  0  0  0  0  3  0  0  0  0  0  0
  183.8660  178.4650  142.1690 C   0  0  0  0  0  3  0  0  0  0  0  0
  183.8630  178.5820  143.5690 C   0  0  0  0  0  0  0  0  0  0  0  0
  181.4730  179.0100  143.4980 C   0  0  0  0  0  3  0  0  0  0  0  0
  180.4010  178.5640  139.9830 N   0  0  0  0  0  1  0  0  0  0  0  0
  180.2300  179.0820  141.3290 C   0  0  0  0  0  2  0  0  0  0  0  0
  1  8  1  0  0  0  0
  1  6  1  0  0  0  0
  2 12  1  0  0  0  0
  3 14  2  0  0  0  0
  3 10  1  0  0  0  0
  4 15  1  0  0  0  0
  4  8  2  0  0  0  0
  5  1  2  0  0  0  0
  7  4  1  0  0  0  0
  9  7  2  0  0  0  0
  9  5  1  0  0  0  0
 10 11  2  0  0  0  0
 11  2  1  0  0  0  0
 11  7  1  0  0  0  0
 12 15  2  0  0  0  0
 13 35  1  0  0  0  0
 13  2  2  0  0  0  0
 14 13  1  0  0  0  0
 16 17  1  6  0  0  0
 16  3  1  0  0  0  0
 18 16  1  0  0  0  0
 19 18  1  0  0  0  0
 20 21  1  6  0  0  0
 20 19  1  0  0  0  0
 22 25  1  0  0  0  0
 22 20  1  1  0  0  0
 23 25  1  0  0  0  0
 24 22  1  0  0  0  0
 25 27  1  6  0  0  0
 26 23  1  0  0  0  0
 26 24  1  0  0  0  0
 27 28  1  6  0  0  0
 29 30  1  6  0  0  0
 29 27  1  0  0  0  0
 29 31  1  0  0  0  0
 31 32  2  0  0  0  0
 31 34  1  0  0  0  0
 33 34  1  0  0  0  0
 36 37  2  0  0  0  0
 36 39  1  0  0  0  0
 37 41  1  0  0  0  0
 39 40  2  0  0  0  0
 40 38  1  0  0  0  0
 40 35  1  0  0  0  0
 41 38  2  0  0  0  0
 42 43  1  0  0  0  0
 43 37  1  0  0  0  0
M  END
>  <MODEL>
3

>  <REMARK>
 VINA RESULT:      -9.9      2.474      4.045
  Name = 
  12 active torsions:
  status: ('A' for Active; 'I' for Inactive)
    1  A    between atoms: O_1  and  C_34
    2  A    between atoms: O_1  and  C_35
    3  A    between atoms: C_2  and  N_6
    4  A    between atoms: C_2  and  C_13
    5  A    between atoms: C_3  and  C_4
    6  A    between atoms: C_3  and  C_12
    7  A    between atoms: N_6  and  C_12
    8  A    between atoms: C_11  and  C_14
    9  A    between atoms: C_11  and  C_29
   10  A    between atoms: C_14  and  C_22
   11  A    between atoms: C_19  and  C_37
   12  A    between atoms: C_29  and  C_31
                            x       y       z     vdW  Elec       q    Type
                         _______ _______ _______ _____ _____    ______ ____

>  <TORSDO>
F 12

$$$$
=
 OpenBabel10272414033D

 43 47  0  0  1  0  0  0  0  0999 V2000
  191.5450  176.4960  147.2220 C   0  0  0  0  0  0  0  0  0  0  0  0
  187.2560  177.8100  144.8800 C   0  0  0  0  0  0  0  0  0  0  0  0
  187.8520  177.7690  142.1640 C   0  0  0  0  0  0  0  0  0  0  0  0
  189.2700  177.1680  146.7300 C   0  0  0  0  0  0  0  0  0  0  0  0
  191.8360  176.4630  145.8540 C   0  0  0  0  0  3  0  0  0  0  0  0
  192.5280  176.1770  148.1470 O   0  0  0  0  0  1  0  0  0  0  0  0
  189.5590  177.1410  145.3450 C   0  0  0  0  0  0  0  0  0  0  0  0
  190.2630  176.8480  147.6590 C   0  0  0  0  0  3  0  0  0  0  0  0
  190.8490  176.7840  144.9190 C   0  0  0  0  0  3  0  0  0  0  0  0
  188.8060  177.4520  143.0800 N   0  0  0  0  0  0  0  0  0  0  0  0
  188.5500  177.4660  144.4180 C   0  0  0  0  0  0  0  0  0  0  0  0
  186.9910  177.8300  146.2550 C   0  0  0  0  0  3  0  0  0  0  0  0
  186.2490  178.1150  143.9490 C   0  0  0  0  0  0  0  0  0  0  0  0
  186.5630  178.0990  142.5830 C   0  0  0  0  0  3  0  0  0  0  0  0
  187.9920  177.5120  147.1750 C   0  0  0  0  0  3  0  0  0  0  0  0
  188.1600  177.7180  140.7060 C   0  0  1  0  0  3  0  0  0  0  0  0
  187.4500  178.7140  140.0330 O   0  0  0  0  0  1  0  0  0  0  0  0
  189.5870  177.9000  140.5010 N   0  0  0  0  0  2  0  0  0  0  0  0
  190.0640  176.7520  139.7480 C   0  0  0  0  0  2  0  0  0  0  0  0
  191.3760  177.0870  139.0450 C   0  0  1  0  0  3  0  0  0  0  0  0
  192.4450  177.3620  140.0850 C   0  0  0  0  0  1  0  0  0  0  0  0
  191.8570  176.0020  138.0710 C   0  0  2  0  0  3  0  0  0  0  0  0
  192.6600  175.7890  135.7730 C   0  0  0  0  0  2  0  0  0  0  0  0
  193.3610  175.8400  138.0920 C   0  0  0  0  0  2  0  0  0  0  0  0
  191.4800  176.2550  136.6180 C   0  0  1  0  0  3  0  0  0  0  0  0
  193.7120  175.2700  136.7350 C   0  0  0  0  0  2  0  0  0  0  0  0
  190.1750  175.5370  136.2570 C   0  0  2  0  0  3  0  0  0  0  0  0
  190.4340  174.4080  135.4730 O   0  0  0  0  0  1  0  0  0  0  0  0
  189.1880  176.4610  135.5410 C   0  0  1  0  0  3  0  0  0  0  0  0
  188.5760  175.7840  134.4860 O   0  0  0  0  0  1  0  0  0  0  0  0
  188.1380  176.9960  136.4720 C   0  0  0  0  0  0  0  0  0  0  0  0
  187.5040  176.1520  137.2810 C   0  0  0  0  0  2  0  0  0  0  0  0
  189.1950  179.0170  137.1100 O   0  0  0  0  0  1  0  0  0  0  0  0
  187.9850  178.4690  136.6820 C   0  0  0  0  0  2  0  0  0  0  0  0
  184.9640  178.4560  144.4110 O   0  0  0  0  0  0  0  0  0  0  0  0
  181.4200  179.0310  143.3860 C   0  0  0  0  0  3  0  0  0  0  0  0
  181.5360  178.8840  142.0010 C   0  0  0  0  0  0  0  0  0  0  0  0
  183.9040  178.4410  142.2490 C   0  0  0  0  0  3  0  0  0  0  0  0
  182.5480  178.8880  144.1990 C   0  0  0  0  0  3  0  0  0  0  0  0
  183.7990  178.5860  143.6370 C   0  0  0  0  0  0  0  0  0  0  0  0
  182.7770  178.5840  141.4340 C   0  0  0  0  0  3  0  0  0  0  0  0
  180.5450  180.0670  140.1540 N   0  0  0  0  0  1  0  0  0  0  0  0
  180.3320  179.0180  141.1360 C   0  0  0  0  0  2  0  0  0  0  0  0
  1  8  1  0  0  0  0
  1  6  1  0  0  0  0
  2 12  1  0  0  0  0
  3 14  2  0  0  0  0
  3 10  1  0  0  0  0
  4 15  1  0  0  0  0
  4  8  2  0  0  0  0
  5  1  2  0  0  0  0
  7  4  1  0  0  0  0
  9  7  2  0  0  0  0
  9  5  1  0  0  0  0
 10 11  2  0  0  0  0
 11  2  1  0  0  0  0
 11  7  1  0  0  0  0
 12 15  2  0  0  0  0
 13 35  1  0  0  0  0
 13  2  2  0  0  0  0
 14 13  1  0  0  0  0
 16 17  1  6  0  0  0
 16  3  1  0  0  0  0
 18 16  1  0  0  0  0
 19 18  1  0  0  0  0
 20 19  1  0  0  0  0
 20 21  1  1  0  0  0
 22 24  1  0  0  0  0
 22 20  1  1  0  0  0
 23 25  1  0  0  0  0
 23 26  1  0  0  0  0
 25 27  1  6  0  0  0
 25 22  1  0  0  0  0
 26 24  1  0  0  0  0
 27 28  1  6  0  0  0
 29 30  1  6  0  0  0
 29 27  1  0  0  0  0
 29 31  1  0  0  0  0
 31 34  1  0  0  0  0
 31 32  2  0  0  0  0
 34 33  1  0  0  0  0
 36 39  1  0  0  0  0
 37 36  2  0  0  0  0
 38 40  1  0  0  0  0
 40 39  2  0  0  0  0
 40 35  1  0  0  0  0
 41 37  1  0  0  0  0
 41 38  2  0  0  0  0
 42 43  1  0  0  0  0
 43 37  1  0  0  0  0
M  END
>  <MODEL>
4

>  <REMARK>
 VINA RESULT:      -9.9      1.896      3.428
  Name = 
  12 active torsions:
  status: ('A' for Active; 'I' for Inactive)
    1  A    between atoms: O_1  and  C_34
    2  A    between atoms: O_1  and  C_35
    3  A    between atoms: C_2  and  N_6
    4  A    between atoms: C_2  and  C_13
    5  A    between atoms: C_3  and  C_4
    6  A    between atoms: C_3  and  C_12
    7  A    between atoms: N_6  and  C_12
    8  A    between atoms: C_11  and  C_14
    9  A    between atoms: C_11  and  C_29
   10  A    between atoms: C_14  and  C_22
   11  A    between atoms: C_19  and  C_37
   12  A    between atoms: C_29  and  C_31
                            x       y       z     vdW  Elec       q    Type
                         _______ _______ _______ _____ _____    ______ ____

>  <TORSDO>
F 12

$$$$
=
 OpenBabel10272414033D

 43 47  0  0  1  0  0  0  0  0999 V2000
  191.3420  176.6540  147.0660 C   0  0  0  0  0  0  0  0  0  0  0  0
  187.1940  177.8900  144.4450 C   0  0  0  0  0  0  0  0  0  0  0  0
  188.0470  178.2220  141.8190 C   0  0  0  0  0  0  0  0  0  0  0  0
  189.0730  177.1950  146.4150 C   0  0  0  0  0  0  0  0  0  0  0  0
  191.7640  176.8080  145.7420 C   0  0  0  0  0  3  0  0  0  0  0  0
  192.2580  176.3070  148.0490 O   0  0  0  0  0  1  0  0  0  0  0  0
  189.4940  177.3570  145.0730 C   0  0  0  0  0  0  0  0  0  0  0  0
  189.9980  176.8470  147.4020 C   0  0  0  0  0  3  0  0  0  0  0  0
  190.8460  177.1590  144.7500 C   0  0  0  0  0  3  0  0  0  0  0  0
  188.9350  177.8750  142.7910 N   0  0  0  0  0  0  0  0  0  0  0  0
  188.5530  177.7080  144.0870 C   0  0  0  0  0  0  0  0  0  0  0  0
  186.7980  177.7240  145.7790 C   0  0  0  0  0  3  0  0  0  0  0  0
  186.2570  178.2220  143.4530 C   0  0  0  0  0  0  0  0  0  0  0  0
  186.7000  178.3950  142.1340 C   0  0  0  0  0  3  0  0  0  0  0  0
  187.7310  177.3800  146.7580 C   0  0  0  0  0  3  0  0  0  0  0  0
  188.4960  178.3700  140.4050 C   0  0  1  0  0  3  0  0  0  0  0  0
  189.2820  177.2760  140.0380 O   0  0  0  0  0  1  0  0  0  0  0  0
  187.3390  178.4660  139.5320 N   0  0  0  0  0  2  0  0  0  0  0  0
  187.5270  177.5040  138.4590 C   0  0  0  0  0  2  0  0  0  0  0  0
  187.5750  178.2150  137.1100 C   0  0  1  0  0  3  0  0  0  0  0  0
  188.8750  178.9860  136.9980 C   0  0  0  0  0  1  0  0  0  0  0  0
  187.4120  177.2790  135.9040 C   0  0  2  0  0  3  0  0  0  0  0  0
  186.6340  175.0190  135.3950 C   0  0  0  0  0  2  0  0  0  0  0  0
  186.0300  177.3640  135.2960 C   0  0  0  0  0  2  0  0  0  0  0  0
  187.6450  175.8080  136.2200 C   0  0  1  0  0  3  0  0  0  0  0  0
  185.8230  176.0320  134.6090 C   0  0  0  0  0  2  0  0  0  0  0  0
  189.0930  175.4050  135.9200 C   0  0  2  0  0  3  0  0  0  0  0  0
  189.1340  174.3930  134.9570 O   0  0  0  0  0  1  0  0  0  0  0  0
  189.8400  174.9650  137.1800 C   0  0  1  0  0  3  0  0  0  0  0  0
  189.7100  173.5870  137.3580 O   0  0  0  0  0  1  0  0  0  0  0  0
  191.2960  175.3290  137.1300 C   0  0  0  0  0  0  0  0  0  0  0  0
  191.6820  176.5100  137.6070 C   0  0  0  0  0  2  0  0  0  0  0  0
  193.2810  174.2340  137.8190 O   0  0  0  0  0  1  0  0  0  0  0  0
  192.3280  174.2970  136.8010 C   0  0  0  0  0  2  0  0  0  0  0  0
  184.9080  178.4010  143.8120 O   0  0  0  0  0  0  0  0  0  0  0  0
  182.7520  178.1790  140.7710 C   0  0  0  0  0  3  0  0  0  0  0  0
  181.5450  178.6590  141.2880 C   0  0  0  0  0  0  0  0  0  0  0  0
  182.5980  178.9720  143.4460 C   0  0  0  0  0  3  0  0  0  0  0  0
  183.8770  178.0910  141.5950 C   0  0  0  0  0  3  0  0  0  0  0  0
  183.8100  178.4920  142.9390 C   0  0  0  0  0  0  0  0  0  0  0  0
  181.4700  179.0600  142.6240 C   0  0  0  0  0  3  0  0  0  0  0  0
  180.7160  178.4450  139.0390 N   0  0  0  0  0  1  0  0  0  0  0  0
  180.3510  178.7710  140.4070 C   0  0  0  0  0  2  0  0  0  0  0  0
  1  8  1  0  0  0  0
  1  6  1  0  0  0  0
  2 12  1  0  0  0  0
  3 14  2  0  0  0  0
  3 10  1  0  0  0  0
  4 15  1  0  0  0  0
  4  8  2  0  0  0  0
  5  1  2  0  0  0  0
  7  4  1  0  0  0  0
  9  7  2  0  0  0  0
  9  5  1  0  0  0  0
 10 11  2  0  0  0  0
 11  2  1  0  0  0  0
 11  7  1  0  0  0  0
 12 15  2  0  0  0  0
 13 35  1  0  0  0  0
 13  2  2  0  0  0  0
 14 13  1  0  0  0  0
 16 17  1  6  0  0  0
 16  3  1  0  0  0  0
 18 16  1  0  0  0  0
 19 18  1  0  0  0  0
 20 21  1  6  0  0  0
 20 19  1  0  0  0  0
 22 25  1  0  0  0  0
 22 20  1  1  0  0  0
 23 25  1  0  0  0  0
 24 22  1  0  0  0  0
 25 27  1  6  0  0  0
 26 24  1  0  0  0  0
 26 23  1  0  0  0  0
 27 28  1  6  0  0  0
 27 29  1  0  0  0  0
 29 30  1  6  0  0  0
 31 29  1  0  0  0  0
 31 32  2  0  0  0  0
 34 31  1  0  0  0  0
 34 33  1  0  0  0  0
 36 37  2  0  0  0  0
 36 39  1  0  0  0  0
 37 41  1  0  0  0  0
 39 40  2  0  0  0  0
 40 38  1  0  0  0  0
 40 35  1  0  0  0  0
 41 38  2  0  0  0  0
 42 43  1  0  0  0  0
 43 37  1  0  0  0  0
M  END
>  <MODEL>
5

>  <REMARK>
 VINA RESULT:      -9.7      1.888      2.938
  Name = 
  12 active torsions:
  status: ('A' for Active; 'I' for Inactive)
    1  A    between atoms: O_1  and  C_34
    2  A    between atoms: O_1  and  C_35
    3  A    between atoms: C_2  and  N_6
    4  A    between atoms: C_2  and  C_13
    5  A    between atoms: C_3  and  C_4
    6  A    between atoms: C_3  and  C_12
    7  A    between atoms: N_6  and  C_12
    8  A    between atoms: C_11  and  C_14
    9  A    between atoms: C_11  and  C_29
   10  A    between atoms: C_14  and  C_22
   11  A    between atoms: C_19  and  C_37
   12  A    between atoms: C_29  and  C_31
                            x       y       z     vdW  Elec       q    Type
                         _______ _______ _______ _____ _____    ______ ____

>  <TORSDO>
F 12

$$$$
=
 OpenBabel10272414033D

 43 47  0  0  1  0  0  0  0  0999 V2000
  191.3610  176.6250  146.9370 C   0  0  0  0  0  0  0  0  0  0  0  0
  187.0000  177.8810  144.6980 C   0  0  0  0  0  0  0  0  0  0  0  0
  187.5320  177.8520  141.9690 C   0  0  0  0  0  0  0  0  0  0  0  0
  189.0650  177.2650  146.5000 C   0  0  0  0  0  0  0  0  0  0  0  0
  191.6200  176.5980  145.5640 C   0  0  0  0  0  3  0  0  0  0  0  0
  192.3700  176.3200  147.8390 O   0  0  0  0  0  1  0  0  0  0  0  0
  189.3220  177.2450  145.1080 C   0  0  0  0  0  0  0  0  0  0  0  0
  190.0850  176.9580  147.4050 C   0  0  0  0  0  3  0  0  0  0  0  0
  190.6070  176.9070  144.6520 C   0  0  0  0  0  3  0  0  0  0  0  0
  188.5120  177.5470  142.8620 N   0  0  0  0  0  0  0  0  0  0  0  0
  188.2880  177.5560  144.2060 C   0  0  0  0  0  0  0  0  0  0  0  0
  186.7670  177.8950  146.0790 C   0  0  0  0  0  3  0  0  0  0  0  0
  185.9670  178.1730  143.7920 C   0  0  0  0  0  0  0  0  0  0  0  0
  186.2500  178.1630  142.4190 C   0  0  0  0  0  3  0  0  0  0  0  0
  187.7930  177.5910  146.9750 C   0  0  0  0  0  3  0  0  0  0  0  0
  187.8070  177.8070  140.5040 C   0  0  1  0  0  3  0  0  0  0  0  0
  187.1150  178.8320  139.8570 O   0  0  0  0  0  1  0  0  0  0  0  0
  189.2350  177.9470  140.2700 N   0  0  0  0  0  2  0  0  0  0  0  0
  189.4130  178.2310  138.8560 C   0  0  0  0  0  2  0  0  0  0  0  0
  190.3510  177.2080  138.2230 C   0  0  1  0  0  3  0  0  0  0  0  0
  190.9330  176.3230  139.3080 C   0  0  0  0  0  1  0  0  0  0  0  0
  189.6930  176.3450  137.1370 C   0  0  2  0  0  3  0  0  0  0  0  0
  188.8950  174.0590  136.8090 C   0  0  0  0  0  2  0  0  0  0  0  0
  188.1850  176.3330  137.2520 C   0  0  0  0  0  2  0  0  0  0  0  0
  190.1290  174.8870  137.1490 C   0  0  1  0  0  3  0  0  0  0  0  0
  187.7540  175.0370  136.6010 C   0  0  0  0  0  2  0  0  0  0  0  0
  191.2860  174.6520  136.1710 C   0  0  2  0  0  3  0  0  0  0  0  0
  190.8500  173.9260  135.0580 O   0  0  0  0  0  1  0  0  0  0  0  0
  192.4660  173.9410  136.8350 C   0  0  1  0  0  3  0  0  0  0  0  0
  192.6500  172.6810  136.2640 O   0  0  0  0  0  1  0  0  0  0  0  0
  193.7370  174.7320  136.7260 C   0  0  0  0  0  0  0  0  0  0  0  0
  194.8960  174.0830  136.6560 C   0  0  0  0  0  2  0  0  0  0  0  0
  193.8570  176.9240  137.6170 O   0  0  0  0  0  1  0  0  0  0  0  0
  193.6980  176.1990  136.4350 C   0  0  0  0  0  2  0  0  0  0  0  0
  184.6890  178.4940  144.2840 O   0  0  0  0  0  0  0  0  0  0  0  0
  181.1260  179.0810  143.3340 C   0  0  0  0  0  3  0  0  0  0  0  0
  181.2050  178.8990  141.9500 C   0  0  0  0  0  0  0  0  0  0  0  0
  183.5750  178.4380  142.1500 C   0  0  0  0  0  3  0  0  0  0  0  0
  182.2720  178.9460  144.1220 C   0  0  0  0  0  3  0  0  0  0  0  0
  183.5060  178.6180  143.5360 C   0  0  0  0  0  0  0  0  0  0  0  0
  182.4290  178.5730  141.3600 C   0  0  0  0  0  3  0  0  0  0  0  0
  180.3530  179.1570  139.7140 N   0  0  0  0  0  1  0  0  0  0  0  0
  179.9820  179.0250  141.1120 C   0  0  0  0  0  2  0  0  0  0  0  0
  1  8  1  0  0  0  0
  1  6  1  0  0  0  0
  2 12  1  0  0  0  0
  3 14  2  0  0  0  0
  3 10  1  0  0  0  0
  4 15  1  0  0  0  0
  4  8  2  0  0  0  0
  5  1  2  0  0  0  0
  7  4  1  0  0  0  0
  9  7  2  0  0  0  0
  9  5  1  0  0  0  0
 10 11  2  0  0  0  0
 11  2  1  0  0  0  0
 11  7  1  0  0  0  0
 12 15  2  0  0  0  0
 13 35  1  0  0  0  0
 13  2  2  0  0  0  0
 14 13  1  0  0  0  0
 16 17  1  6  0  0  0
 16  3  1  0  0  0  0
 18 16  1  0  0  0  0
 19 18  1  0  0  0  0
 20 19  1  0  0  0  0
 20 21  1  1  0  0  0
 22 25  1  0  0  0  0
 22 24  1  0  0  0  0
 22 20  1  1  0  0  0
 23 25  1  0  0  0  0
 25 27  1  6  0  0  0
 26 23  1  0  0  0  0
 26 24  1  0  0  0  0
 27 28  1  6  0  0  0
 27 29  1  0  0  0  0
 29 30  1  6  0  0  0
 31 29  1  0  0  0  0
 32 31  2  0  0  0  0
 34 31  1  0  0  0  0
 34 33  1  0  0  0  0
 36 39  1  0  0  0  0
 37 36  2  0  0  0  0
 38 40  1  0  0  0  0
 40 39  2  0  0  0  0
 40 35  1  0  0  0  0
 41 37  1  0  0  0  0
 41 38  2  0  0  0  0
 42 43  1  0  0  0  0
 43 37  1  0  0  0  0
M  END
>  <MODEL>
6

>  <REMARK>
 VINA RESULT:      -9.4      1.288      2.067
  Name = 
  12 active torsions:
  status: ('A' for Active; 'I' for Inactive)
    1  A    between atoms: O_1  and  C_34
    2  A    between atoms: O_1  and  C_35
    3  A    between atoms: C_2  and  N_6
    4  A    between atoms: C_2  and  C_13
    5  A    between atoms: C_3  and  C_4
    6  A    between atoms: C_3  and  C_12
    7  A    between atoms: N_6  and  C_12
    8  A    between atoms: C_11  and  C_14
    9  A    between atoms: C_11  and  C_29
   10  A    between atoms: C_14  and  C_22
   11  A    between atoms: C_19  and  C_37
   12  A    between atoms: C_29  and  C_31
                            x       y       z     vdW  Elec       q    Type
                         _______ _______ _______ _____ _____    ______ ____

>  <TORSDO>
F 12

$$$$
=
 OpenBabel10272414033D

 43 47  0  0  1  0  0  0  0  0999 V2000
  192.2060  173.8770  135.2920 C   0  0  0  0  0  0  0  0  0  0  0  0
  189.0210  176.9890  137.6950 C   0  0  0  0  0  0  0  0  0  0  0  0
  189.8010  176.9330  140.3640 C   0  0  0  0  0  0  0  0  0  0  0  0
  190.4250  175.4300  135.8280 C   0  0  0  0  0  0  0  0  0  0  0  0
  192.6040  173.8630  136.6330 C   0  0  0  0  0  3  0  0  0  0  0  0
  192.8930  173.1150  134.3580 O   0  0  0  0  0  1  0  0  0  0  0  0
  190.8190  175.4160  137.1870 C   0  0  0  0  0  0  0  0  0  0  0  0
  191.1190  174.6600  134.8900 C   0  0  0  0  0  3  0  0  0  0  0  0
  191.9140  174.6280  137.5770 C   0  0  0  0  0  3  0  0  0  0  0  0
  190.4710  176.1950  139.4380 N   0  0  0  0  0  0  0  0  0  0  0  0
  190.1140  176.1950  138.1230 C   0  0  0  0  0  0  0  0  0  0  0  0
  188.6480  176.9890  136.3450 C   0  0  0  0  0  3  0  0  0  0  0  0
  188.3320  177.7790  138.6310 C   0  0  0  0  0  0  0  0  0  0  0  0
  188.7300  177.7360  139.9750 C   0  0  0  0  0  3  0  0  0  0  0  0
  189.3440  176.2130  135.4170 C   0  0  0  0  0  3  0  0  0  0  0  0
  190.2370  176.9290  141.7900 C   0  0  1  0  0  3  0  0  0  0  0  0
  191.5870  177.2730  141.8770 O   0  0  0  0  0  1  0  0  0  0  0  0
  189.4340  177.8720  142.5500 N   0  0  0  0  0  2  0  0  0  0  0  0
  188.4140  177.1070  143.2470 C   0  0  0  0  0  2  0  0  0  0  0  0
  187.2850  178.0230  143.7080 C   0  0  1  0  0  3  0  0  0  0  0  0
  186.1890  178.0310  142.6610 C   0  0  0  0  0  1  0  0  0  0  0  0
  186.7000  177.6520  145.0790 C   0  0  2  0  0  3  0  0  0  0  0  0
  186.4750  178.5960  147.3220 C   0  0  0  0  0  2  0  0  0  0  0  0
  185.2870  178.1640  145.2540 C   0  0  0  0  0  2  0  0  0  0  0  0
  187.4930  178.1890  146.2620 C   0  0  1  0  0  3  0  0  0  0  0  0
  185.1020  178.2950  146.7500 C   0  0  0  0  0  2  0  0  0  0  0  0
  188.4900  177.1430  146.7730 C   0  0  2  0  0  3  0  0  0  0  0  0
  188.0370  176.5700  147.9650 O   0  0  0  0  0  1  0  0  0  0  0  0
  189.8900  177.7290  146.9670 C   0  0  1  0  0  3  0  0  0  0  0  0
  190.0850  178.0700  148.3060 O   0  0  0  0  0  1  0  0  0  0  0  0
  190.9660  176.7790  146.5300 C   0  0  0  0  0  0  0  0  0  0  0  0
  191.5850  176.9940  145.3720 C   0  0  0  0  0  2  0  0  0  0  0  0
  192.6800  176.2600  148.0820 O   0  0  0  0  0  1  0  0  0  0  0  0
  191.5210  175.7660  147.4810 C   0  0  0  0  0  2  0  0  0  0  0  0
  187.2480  178.5670  138.2030 O   0  0  0  0  0  0  0  0  0  0  0  0
  183.7430  178.8410  139.4590 C   0  0  0  0  0  3  0  0  0  0  0  0
  183.1510  177.7730  138.7780 C   0  0  0  0  0  0  0  0  0  0  0  0
  185.2830  177.2500  137.7550 C   0  0  0  0  0  3  0  0  0  0  0  0
  185.1010  179.1140  139.2820 C   0  0  0  0  0  3  0  0  0  0  0  0
  185.8840  178.3170  138.4310 C   0  0  0  0  0  0  0  0  0  0  0  0
  183.9230  176.9760  137.9300 C   0  0  0  0  0  3  0  0  0  0  0  0
  181.5370  176.0580  139.2730 N   0  0  0  0  0  1  0  0  0  0  0  0
  181.7080  177.4700  138.9810 C   0  0  0  0  0  2  0  0  0  0  0  0
  1  5  1  0  0  0  0
  2 11  1  0  0  0  0
  2 13  1  0  0  0  0
  3 16  1  0  0  0  0
  4  7  1  0  0  0  0
  5  9  2  0  0  0  0
  6  1  1  0  0  0  0
  7  9  1  0  0  0  0
  7 11  2  0  0  0  0
  8  1  2  0  0  0  0
  8  4  1  0  0  0  0
 10  3  2  0  0  0  0
 11 10  1  0  0  0  0
 12  2  2  0  0  0  0
 13 14  2  0  0  0  0
 14  3  1  0  0  0  0
 15  4  2  0  0  0  0
 15 12  1  0  0  0  0
 16 17  1  6  0  0  0
 16 18  1  0  0  0  0
 18 19  1  0  0  0  0
 19 20  1  0  0  0  0
 20 21  1  6  0  0  0
 22 20  1  6  0  0  0
 22 24  1  0  0  0  0
 22 25  1  0  0  0  0
 24 26  1  0  0  0  0
 25 27  1  1  0  0  0
 25 23  1  0  0  0  0
 26 23  1  0  0  0  0
 27 29  1  0  0  0  0
 27 28  1  1  0  0  0
 29 30  1  1  0  0  0
 31 29  1  0  0  0  0
 31 34  1  0  0  0  0
 32 31  2  0  0  0  0
 34 33  1  0  0  0  0
 35 40  1  0  0  0  0
 35 13  1  0  0  0  0
 37 43  1  0  0  0  0
 37 36  2  0  0  0  0
 38 41  2  0  0  0  0
 38 40  1  0  0  0  0
 39 36  1  0  0  0  0
 40 39  2  0  0  0  0
 41 37  1  0  0  0  0
 43 42  1  0  0  0  0
M  END
>  <MODEL>
7

>  <REMARK>
 VINA RESULT:      -9.3      2.343      8.536
  Name = 
  12 active torsions:
  status: ('A' for Active; 'I' for Inactive)
    1  A    between atoms: O_1  and  C_34
    2  A    between atoms: O_1  and  C_35
    3  A    between atoms: C_2  and  N_6
    4  A    between atoms: C_2  and  C_13
    5  A    between atoms: C_3  and  C_4
    6  A    between atoms: C_3  and  C_12
    7  A    between atoms: N_6  and  C_12
    8  A    between atoms: C_11  and  C_14
    9  A    between atoms: C_11  and  C_29
   10  A    between atoms: C_14  and  C_22
   11  A    between atoms: C_19  and  C_37
   12  A    between atoms: C_29  and  C_31
                            x       y       z     vdW  Elec       q    Type
                         _______ _______ _______ _____ _____    ______ ____

>  <TORSDO>
F 12

$$$$
=
 OpenBabel10272414033D

 43 47  0  0  1  0  0  0  0  0999 V2000
  190.7190  176.9130  146.6230 C   0  0  0  0  0  0  0  0  0  0  0  0
  189.6480  177.6710  141.7360 C   0  0  0  0  0  0  0  0  0  0  0  0
  186.9640  178.3980  141.6690 C   0  0  0  0  0  0  0  0  0  0  0  0
  190.8480  177.1010  144.2120 C   0  0  0  0  0  0  0  0  0  0  0  0
  189.3740  177.2930  146.5860 C   0  0  0  0  0  3  0  0  0  0  0  0
  191.3260  176.6330  147.8390 O   0  0  0  0  0  1  0  0  0  0  0  0
  189.4850  177.4810  144.1660 C   0  0  0  0  0  0  0  0  0  0  0  0
  191.4550  176.8170  145.4380 C   0  0  0  0  0  3  0  0  0  0  0  0
  188.7580  177.5750  145.3640 C   0  0  0  0  0  3  0  0  0  0  0  0
  187.5730  178.1270  142.8560 N   0  0  0  0  0  0  0  0  0  0  0  0
  188.8830  177.7640  142.9250 C   0  0  0  0  0  0  0  0  0  0  0  0
  190.9950  177.2930  141.8030 C   0  0  0  0  0  3  0  0  0  0  0  0
  189.0470  177.9720  140.5030 C   0  0  0  0  0  0  0  0  0  0  0  0
  187.6910  178.3300  140.4810 C   0  0  0  0  0  3  0  0  0  0  0  0
  191.5910  177.0080  143.0330 C   0  0  0  0  0  3  0  0  0  0  0  0
  185.5350  178.8190  141.6330 C   0  0  1  0  0  3  0  0  0  0  0  0
  185.2830  179.7390  142.6520 O   0  0  0  0  0  1  0  0  0  0  0  0
  185.2320  179.4130  140.3420 N   0  0  0  0  0  2  0  0  0  0  0  0
  183.8480  179.0940  140.0340 C   0  0  0  0  0  2  0  0  0  0  0  0
  183.7420  177.6790  139.4720 C   0  0  1  0  0  3  0  0  0  0  0  0
  182.5600  176.9750  140.1110 C   0  0  0  0  0  1  0  0  0  0  0  0
  183.6230  177.6210  137.9430 C   0  0  2  0  0  3  0  0  0  0  0  0
  182.4890  176.3210  136.2130 C   0  0  0  0  0  2  0  0  0  0  0  0
  182.4430  178.4160  137.4300 C   0  0  0  0  0  2  0  0  0  0  0  0
  183.4620  176.2150  137.3820 C   0  0  1  0  0  3  0  0  0  0  0  0
  182.0920  177.7810  136.1020 C   0  0  0  0  0  2  0  0  0  0  0  0
  184.8170  175.6300  136.9700 C   0  0  2  0  0  3  0  0  0  0  0  0
  185.5860  176.5890  136.3030 O   0  0  0  0  0  1  0  0  0  0  0  0
  184.6650  174.3800  136.1030 C   0  0  1  0  0  3  0  0  0  0  0  0
  185.5920  174.4030  135.0600 O   0  0  0  0  0  1  0  0  0  0  0  0
  184.8350  173.1170  136.8970 C   0  0  0  0  0  0  0  0  0  0  0  0
  185.8740  173.0080  137.7210 C   0  0  0  0  0  2  0  0  0  0  0  0
  182.4950  172.7540  136.9610 O   0  0  0  0  0  1  0  0  0  0  0  0
  183.7320  172.1090  136.9700 C   0  0  0  0  0  2  0  0  0  0  0  0
  189.8080  177.8800  139.3240 O   0  0  0  0  0  0  0  0  0  0  0  0
  191.1820  174.9590  137.4470 C   0  0  0  0  0  3  0  0  0  0  0  0
  190.0230  174.5060  136.8090 C   0  0  0  0  0  0  0  0  0  0  0  0
  188.7630  176.3040  137.8340 C   0  0  0  0  0  3  0  0  0  0  0  0
  191.1270  176.0780  138.2810 C   0  0  0  0  0  3  0  0  0  0  0  0
  189.9170  176.7640  138.4770 C   0  0  0  0  0  0  0  0  0  0  0  0
  188.8150  175.1820  137.0000 C   0  0  0  0  0  3  0  0  0  0  0  0
  188.7450  172.9720  135.4660 N   0  0  0  0  0  1  0  0  0  0  0  0
  190.0830  173.3250  135.9070 C   0  0  0  0  0  2  0  0  0  0  0  0
  1  6  1  0  0  0  0
  2 12  1  0  0  0  0
  2 11  1  0  0  0  0
  3 10  1  0  0  0  0
  4  8  1  0  0  0  0
  5  1  1  0  0  0  0
  7  4  2  0  0  0  0
  7  9  1  0  0  0  0
  8  1  2  0  0  0  0
  9  5  2  0  0  0  0
 10 11  2  0  0  0  0
 11  7  1  0  0  0  0
 12 15  2  0  0  0  0
 13  2  2  0  0  0  0
 14 13  1  0  0  0  0
 14  3  2  0  0  0  0
 15  4  1  0  0  0  0
 16  3  1  0  0  0  0
 16 17  1  1  0  0  0
 18 16  1  0  0  0  0
 19 18  1  0  0  0  0
 20 19  1  0  0  0  0
 20 21  1  1  0  0  0
 22 20  1  1  0  0  0
 23 25  1  0  0  0  0
 24 22  1  0  0  0  0
 25 27  1  6  0  0  0
 25 22  1  0  0  0  0
 26 23  1  0  0  0  0
 26 24  1  0  0  0  0
 27 28  1  6  0  0  0
 29 30  1  6  0  0  0
 29 31  1  0  0  0  0
 29 27  1  0  0  0  0
 31 34  1  0  0  0  0
 31 32  2  0  0  0  0
 33 34  1  0  0  0  0
 35 13  1  0  0  0  0
 36 39  1  0  0  0  0
 37 41  1  0  0  0  0
 37 36  2  0  0  0  0
 38 40  1  0  0  0  0
 39 40  2  0  0  0  0
 40 35  1  0  0  0  0
 41 38  2  0  0  0  0
 42 43  1  0  0  0  0
 43 37  1  0  0  0  0
M  END
>  <MODEL>
8

>  <REMARK>
 VINA RESULT:      -9.2      3.445      7.593
  Name = 
  12 active torsions:
  status: ('A' for Active; 'I' for Inactive)
    1  A    between atoms: O_1  and  C_34
    2  A    between atoms: O_1  and  C_35
    3  A    between atoms: C_2  and  N_6
    4  A    between atoms: C_2  and  C_13
    5  A    between atoms: C_3  and  C_4
    6  A    between atoms: C_3  and  C_12
    7  A    between atoms: N_6  and  C_12
    8  A    between atoms: C_11  and  C_14
    9  A    between atoms: C_11  and  C_29
   10  A    between atoms: C_14  and  C_22
   11  A    between atoms: C_19  and  C_37
   12  A    between atoms: C_29  and  C_31
                            x       y       z     vdW  Elec       q    Type
                         _______ _______ _______ _____ _____    ______ ____

>  <TORSDO>
F 12

$$$$
=
 OpenBabel10272414033D

 43 47  0  0  1  0  0  0  0  0999 V2000
  191.6750  176.3060  147.2440 C   0  0  0  0  0  0  0  0  0  0  0  0
  187.4270  177.7030  144.8770 C   0  0  0  0  0  0  0  0  0  0  0  0
  188.0530  177.7040  142.1670 C   0  0  0  0  0  0  0  0  0  0  0  0
  189.4130  177.0090  146.7390 C   0  0  0  0  0  0  0  0  0  0  0  0
  191.9820  176.2930  145.8800 C   0  0  0  0  0  3  0  0  0  0  0  0
  192.6450  175.9610  148.1740 O   0  0  0  0  0  1  0  0  0  0  0  0
  189.7170  177.0040  145.3560 C   0  0  0  0  0  0  0  0  0  0  0  0
  190.3920  176.6630  147.6730 C   0  0  0  0  0  3  0  0  0  0  0  0
  191.0090  176.6410  144.9390 C   0  0  0  0  0  3  0  0  0  0  0  0
  188.9940  177.3610  143.0890 N   0  0  0  0  0  0  0  0  0  0  0  0
  188.7230  177.3540  144.4240 C   0  0  0  0  0  0  0  0  0  0  0  0
  187.1460  177.7020  146.2490 C   0  0  0  0  0  3  0  0  0  0  0  0
  186.4340  178.0350  143.9400 C   0  0  0  0  0  0  0  0  0  0  0  0
  186.7640  178.0390  142.5770 C   0  0  0  0  0  3  0  0  0  0  0  0
  188.1330  177.3590  147.1750 C   0  0  0  0  0  3  0  0  0  0  0  0
  188.3780  177.6740  140.7120 C   0  0  1  0  0  3  0  0  0  0  0  0
  188.3960  178.9730  140.2010 O   0  0  0  0  0  1  0  0  0  0  0  0
  189.6720  177.0440  140.5120 N   0  0  0  0  0  2  0  0  0  0  0  0
  190.2750  177.6580  139.3420 C   0  0  0  0  0  2  0  0  0  0  0  0
  189.9400  176.8550  138.0890 C   0  0  1  0  0  3  0  0  0  0  0  0
  189.3910  177.7890  137.0280 C   0  0  0  0  0  1  0  0  0  0  0  0
  191.1220  176.0550  137.5240 C   0  0  2  0  0  3  0  0  0  0  0  0
  192.7310  176.1600  135.6880 C   0  0  0  0  0  2  0  0  0  0  0  0
  192.4500  176.5380  138.0650 C   0  0  0  0  0  2  0  0  0  0  0  0
  191.2410  176.1030  136.0070 C   0  0  1  0  0  3  0  0  0  0  0  0
  193.4660  176.1440  137.0150 C   0  0  0  0  0  2  0  0  0  0  0  0
  190.5450  174.8990  135.3640 C   0  0  2  0  0  3  0  0  0  0  0  0
  189.1950  175.1770  135.1300 O   0  0  0  0  0  1  0  0  0  0  0  0
  190.6840  173.6330  136.2110 C   0  0  1  0  0  3  0  0  0  0  0  0
  189.4270  173.1960  136.6290 O   0  0  0  0  0  1  0  0  0  0  0  0
  191.3780  172.5290  135.4680 C   0  0  0  0  0  0  0  0  0  0  0  0
  190.6540  171.6990  134.7220 C   0  0  0  0  0  2  0  0  0  0  0  0
  193.4510  172.6830  136.6060 O   0  0  0  0  0  1  0  0  0  0  0  0
  192.8690  172.5110  135.3490 C   0  0  0  0  0  2  0  0  0  0  0  0
  185.1470  178.3800  144.3930 O   0  0  0  0  0  0  0  0  0  0  0  0
  181.6530  179.1350  143.3160 C   0  0  0  0  0  3  0  0  0  0  0  0
  181.7490  178.8570  141.9490 C   0  0  0  0  0  0  0  0  0  0  0  0
  184.0770  178.2550  142.2400 C   0  0  0  0  0  3  0  0  0  0  0  0
  182.7700  178.9780  144.1400 C   0  0  0  0  0  3  0  0  0  0  0  0
  183.9910  178.5310  143.6090 C   0  0  0  0  0  0  0  0  0  0  0  0
  182.9610  178.4130  141.4130 C   0  0  0  0  0  3  0  0  0  0  0  0
  180.7750  178.3130  139.8170 N   0  0  0  0  0  1  0  0  0  0  0  0
  180.5550  179.0070  141.0740 C   0  0  0  0  0  2  0  0  0  0  0  0
  1  8  1  0  0  0  0
  1  6  1  0  0  0  0
  2 12  1  0  0  0  0
  3 14  2  0  0  0  0
  3 10  1  0  0  0  0
  4 15  1  0  0  0  0
  4  8  2  0  0  0  0
  5  1  2  0  0  0  0
  7  4  1  0  0  0  0
  9  7  2  0  0  0  0
  9  5  1  0  0  0  0
 10 11  2  0  0  0  0
 11  2  1  0  0  0  0
 11  7  1  0  0  0  0
 12 15  2  0  0  0  0
 13 35  1  0  0  0  0
 13  2  2  0  0  0  0
 14 13  1  0  0  0  0
 16 17  1  1  0  0  0
 16  3  1  0  0  0  0
 18 16  1  0  0  0  0
 19 18  1  0  0  0  0
 20 21  1  6  0  0  0
 20 19  1  0  0  0  0
 22 24  1  0  0  0  0
 22 20  1  1  0  0  0
 23 25  1  0  0  0  0
 23 26  1  0  0  0  0
 25 27  1  6  0  0  0
 25 22  1  0  0  0  0
 26 24  1  0  0  0  0
 27 28  1  1  0  0  0
 27 29  1  0  0  0  0
 29 30  1  6  0  0  0
 31 29  1  0  0  0  0
 32 31  2  0  0  0  0
 34 31  1  0  0  0  0
 34 33  1  0  0  0  0
 36 39  1  0  0  0  0
 37 36  2  0  0  0  0
 38 40  1  0  0  0  0
 40 39  2  0  0  0  0
 40 35  1  0  0  0  0
 41 37  1  0  0  0  0
 41 38  2  0  0  0  0
 42 43  1  0  0  0  0
 43 37  1  0  0  0  0
M  END
>  <MODEL>
9

>  <REMARK>
 VINA RESULT:      -9.1      1.643      2.539
  Name = 
  12 active torsions:
  status: ('A' for Active; 'I' for Inactive)
    1  A    between atoms: O_1  and  C_34
    2  A    between atoms: O_1  and  C_35
    3  A    between atoms: C_2  and  N_6
    4  A    between atoms: C_2  and  C_13
    5  A    between atoms: C_3  and  C_4
    6  A    between atoms: C_3  and  C_12
    7  A    between atoms: N_6  and  C_12
    8  A    between atoms: C_11  and  C_14
    9  A    between atoms: C_11  and  C_29
   10  A    between atoms: C_14  and  C_22
   11  A    between atoms: C_19  and  C_37
   12  A    between atoms: C_29  and  C_31
                            x       y       z     vdW  Elec       q    Type
                         _______ _______ _______ _____ _____    ______ ____

>  <TORSDO>
F 12

$$$$
