=
 OpenBabel10272415173D

 34 39  0  0  1  0  0  0  0  0999 V2000
  188.6540  177.3800  141.6670 C   0  0  0  0  0  0  0  0  0  0  0  0
  188.3170  177.1970  145.4460 N   0  0  0  0  0  0  0  0  0  0  0  0
  190.2040  177.0980  144.0820 N   0  0  0  0  0  2  0  0  0  0  0  0
  188.9540  177.8530  139.2500 C   0  0  0  0  0  0  0  0  0  0  0  0
  188.1630  177.8880  140.5150 C   0  0  0  0  0  3  0  0  0  0  0  0
  190.8350  177.1120  140.5470 C   0  0  2  0  0  3  0  0  0  0  0  0
  191.9780  177.5290  140.9850 N   0  0  0  0  0  0  0  0  0  0  0  0
  190.2580  177.5270  139.2650 C   0  0  0  0  0  3  0  0  0  0  0  0
  190.7710  176.9380  142.7870 C   0  0  1  0  0  3  0  0  0  0  0  0
  189.9420  176.6140  141.6210 C   0  0  1  0  0  3  0  0  0  0  0  0
  191.9450  177.4220  142.4090 C   0  0  0  0  0  3  0  0  0  0  0  0
  186.9430  177.2830  145.9070 C   0  0  0  0  0  2  0  0  0  0  0  0
  186.2640  178.4980  145.3240 C   0  0  1  0  0  3  0  0  0  0  0  0
  185.6490  178.0110  144.0350 C   0  0  0  0  0  2  0  0  0  0  0  0
  188.7780  177.2310  144.2280 C   0  0  0  0  0  0  0  0  0  0  0  0
  186.6480  177.8540  142.9350 C   0  0  0  0  0  3  0  0  0  0  0  0
  187.9420  177.4770  142.9780 C   0  0  0  0  0  0  0  0  0  0  0  0
  185.2240  178.9860  146.2300 N   0  0  0  0  0  0  0  0  0  0  0  0
  185.5810  179.6150  147.4000 O   0  0  0  0  0  0  0  0  0  0  0  0
  184.0590  179.1350  145.8060 O   0  0  0  0  0  0  0  0  0  0  0  0
  188.3150  178.2650  137.9680 C   0  0  0  0  0  2  0  0  0  0  0  0
  184.9160  176.9410  137.2420 C   0  0  0  0  0  3  0  0  0  0  0  0
  187.5880  175.9460  137.3990 C   0  0  0  0  0  3  0  0  0  0  0  0
  184.5340  173.2260  136.5000 C   0  0  0  0  0  0  0  0  0  0  0  0
  184.2540  174.6590  136.7310 C   0  0  0  0  0  3  0  0  0  0  0  0
  185.2270  175.5220  137.0160 C   0  0  0  0  0  0  0  0  0  0  0  0
  186.9840  173.6190  136.8960 C   0  0  0  0  0  2  0  0  0  0  0  0
  186.6300  175.0630  137.1110 C   0  0  0  0  0  0  0  0  0  0  0  0
  185.7890  172.7580  136.5770 C   0  0  0  0  0  3  0  0  0  0  0  0
  187.2630  177.3300  137.6090 N   0  0  0  0  0  0  0  0  0  0  0  0
  185.9040  177.7920  137.5250 C   0  0  0  0  0  3  0  0  0  0  0  0
  183.4230  172.3110  136.1840 C   0  0  0  0  0  0  0  0  0  0  0  0
  182.8270  172.3870  135.0760 O   0  0  0  0  0  0  0  0  0  0  0  0
  183.0100  171.3300  137.1300 N   0  0  0  0  0  1  0  0  0  0  0  0
  1 17  1  0  0  0  0
  2 12  1  0  0  0  0
  3 15  1  0  0  0  0
  4  8  2  0  0  0  0
  4  5  1  0  0  0  0
  5  1  2  0  0  0  0
  6  8  1  1  0  0  0
  6  7  1  0  0  0  0
  6 10  1  0  0  0  0
  7 11  2  0  0  0  0
  9 11  1  6  0  0  0
  9  3  1  0  0  0  0
 10  1  1  1  0  0  0
 10  9  1  0  0  0  0
 13 12  1  0  0  0  0
 13 18  1  1  0  0  0
 14 13  1  0  0  0  0
 15  2  2  0  0  0  0
 16 17  2  0  0  0  0
 16 14  1  0  0  0  0
 17 15  1  0  0  0  0
 18 19  2  0  0  0  0
 20 18  2  0  0  0  0
 21  4  1  0  0  0  0
 22 31  2  0  0  0  0
 23 30  1  0  0  0  0
 24 29  2  0  0  0  0
 24 25  1  0  0  0  0
 25 26  2  0  0  0  0
 26 28  1  0  0  0  0
 26 22  1  0  0  0  0
 27 28  1  0  0  0  0
 28 23  2  0  0  0  0
 29 27  1  0  0  0  0
 30 21  1  0  0  0  0
 31 30  1  0  0  0  0
 32 24  1  0  0  0  0
 32 34  1  0  0  0  0
 33 32  2  0  0  0  0
M  END
>  <MODEL>
1

>  <REMARK>
 VINA RESULT:      -9.5      0.000      0.000
  Name = 
  4 active torsions:
  status: ('A' for Active; 'I' for Inactive)
    1  A    between atoms: N_3  and  C_25
    2  A    between atoms: C_7  and  C_11
    3  A    between atoms: C_8  and  C_18
    4  A    between atoms: C_18  and  N_30
                            x       y       z     vdW  Elec       q    Type
                         _______ _______ _______ _____ _____    ______ ____

>  <TORSDO>
F 4

$$$$
=
 OpenBabel10272415173D

 34 39  0  0  1  0  0  0  0  0999 V2000
  188.9240  177.9170  144.7080 C   0  0  0  0  0  0  0  0  0  0  0  0
  191.8230  177.0610  142.4080 N   0  0  0  0  0  0  0  0  0  0  0  0
  191.5900  176.8200  144.7140 N   0  0  0  0  0  2  0  0  0  0  0  0
  186.9410  178.1230  146.1840 C   0  0  0  0  0  0  0  0  0  0  0  0
  187.5830  178.0190  144.8410 C   0  0  0  0  0  3  0  0  0  0  0  0
  189.0830  177.6340  147.1530 C   0  0  2  0  0  3  0  0  0  0  0  0
  189.7100  176.6900  147.7760 N   0  0  0  0  0  0  0  0  0  0  0  0
  187.6480  177.8890  147.3040 C   0  0  0  0  0  3  0  0  0  0  0  0
  190.8880  177.1300  145.9130 C   0  0  1  0  0  3  0  0  0  0  0  0
  189.7800  178.0900  145.9260 C   0  0  1  0  0  3  0  0  0  0  0  0
  190.8600  176.3640  146.9930 C   0  0  0  0  0  3  0  0  0  0  0  0
  191.5690  177.3850  141.0150 C   0  0  0  0  0  2  0  0  0  0  0  0
  190.2680  176.7740  140.5580 C   0  0  1  0  0  3  0  0  0  0  0  0
  189.2280  177.8290  140.8440 C   0  0  0  0  0  2  0  0  0  0  0  0
  191.0470  177.2200  143.4430 C   0  0  0  0  0  0  0  0  0  0  0  0
  188.8580  177.9070  142.2890 C   0  0  0  0  0  3  0  0  0  0  0  0
  189.6060  177.7140  143.3930 C   0  0  0  0  0  0  0  0  0  0  0  0
  190.3160  176.4830  139.1250 N   0  0  0  0  0  0  0  0  0  0  0  0
  190.0940  177.4930  138.2170 O   0  0  0  0  0  0  0  0  0  0  0  0
  190.8700  175.4370  138.7280 O   0  0  0  0  0  0  0  0  0  0  0  0
  185.4800  178.4050  146.2840 C   0  0  0  0  0  2  0  0  0  0  0  0
  185.1860  178.2240  142.5810 C   0  0  0  0  0  3  0  0  0  0  0  0
  183.4860  178.7330  144.8180 C   0  0  0  0  0  3  0  0  0  0  0  0
  181.7940  178.9070  140.9920 C   0  0  0  0  0  0  0  0  0  0  0  0
  183.2240  178.5940  141.1940 C   0  0  0  0  0  3  0  0  0  0  0  0
  183.7600  178.5380  142.4120 C   0  0  2  0  0  3  0  0  0  0  0  0
  181.4680  179.1260  143.4740 C   0  0  0  0  0  3  0  0  0  0  0  0
  182.9270  178.7930  143.6080 C   0  0  0  0  0  0  0  0  0  0  0  0
  180.9950  179.1490  142.0440 C   0  0  0  0  0  3  0  0  0  0  0  0
  184.8810  178.4180  144.9600 N   0  0  0  0  0  0  0  0  0  0  0  0
  185.7060  178.1720  143.8090 C   0  0  0  0  0  3  0  0  0  0  0  0
  181.2470  178.9530  139.6240 C   0  0  0  0  0  0  0  0  0  0  0  0
  180.6180  177.9680  139.1530 O   0  0  0  0  0  0  0  0  0  0  0  0
  181.4260  180.1140  138.8190 N   0  0  0  0  0  1  0  0  0  0  0  0
  1  5  2  0  0  0  0
  2 15  2  0  0  0  0
  3  9  1  0  0  0  0
  4 21  1  0  0  0  0
  4  8  2  0  0  0  0
  5  4  1  0  0  0  0
  6  8  1  6  0  0  0
  6  7  1  0  0  0  0
  9 10  1  0  0  0  0
  9 11  1  6  0  0  0
 10  1  1  6  0  0  0
 10  6  1  0  0  0  0
 11  7  2  0  0  0  0
 12  2  1  0  0  0  0
 13 18  1  6  0  0  0
 13 14  1  0  0  0  0
 13 12  1  0  0  0  0
 14 16  1  0  0  0  0
 15  3  1  0  0  0  0
 16 17  2  0  0  0  0
 17 15  1  0  0  0  0
 17  1  1  0  0  0  0
 19 18  2  0  0  0  0
 20 18  2  0  0  0  0
 22 31  2  0  0  0  0
 23 30  1  0  0  0  0
 24 25  2  0  0  0  0
 24 29  1  0  0  0  0
 26 25  1  6  0  0  0
 26 22  1  0  0  0  0
 26 28  1  0  0  0  0
 27 28  1  0  0  0  0
 28 23  2  0  0  0  0
 29 27  2  0  0  0  0
 30 21  1  0  0  0  0
 31 30  1  0  0  0  0
 32 24  1  0  0  0  0
 33 32  2  0  0  0  0
 34 32  1  0  0  0  0
M  END
>  <MODEL>
2

>  <REMARK>
 VINA RESULT:      -9.3      4.524      6.952
  Name = 
  4 active torsions:
  status: ('A' for Active; 'I' for Inactive)
    1  A    between atoms: N_3  and  C_25
    2  A    between atoms: C_7  and  C_11
    3  A    between atoms: C_8  and  C_18
    4  A    between atoms: C_18  and  N_30
                            x       y       z     vdW  Elec       q    Type
                         _______ _______ _______ _____ _____    ______ ____

>  <TORSDO>
F 4

$$$$
=
 OpenBabel10272415173D

 34 39  0  0  1  0  0  0  0  0999 V2000
  187.9770  178.0370  139.1430 C   0  0  0  0  0  0  0  0  0  0  0  0
  184.3010  178.7170  138.4670 N   0  0  0  0  0  0  0  0  0  0  0  0
  185.9490  177.7850  137.1090 N   0  0  0  0  0  2  0  0  0  0  0  0
  190.2720  177.2500  139.6580 C   0  0  0  0  0  0  0  0  0  0  0  0
  188.9120  177.7130  140.0630 C   0  0  0  0  0  3  0  0  0  0  0  0
  189.4690  177.1380  137.3980 C   0  0  2  0  0  3  0  0  0  0  0  0
  189.1520  176.2760  136.4880 N   0  0  0  0  0  0  0  0  0  0  0  0
  190.5350  176.9230  138.3810 C   0  0  0  0  0  3  0  0  0  0  0  0
  187.3260  177.5350  136.8510 C   0  0  1  0  0  3  0  0  0  0  0  0
  188.3800  178.0980  137.7010 C   0  0  1  0  0  3  0  0  0  0  0  0
  187.7900  176.5220  136.1340 C   0  0  0  0  0  3  0  0  0  0  0  0
  183.6130  179.3330  139.5890 C   0  0  0  0  0  2  0  0  0  0  0  0
  183.8310  178.5320  140.8480 C   0  0  1  0  0  3  0  0  0  0  0  0
  185.0720  179.1250  141.4690 C   0  0  0  0  0  2  0  0  0  0  0  0
  185.5480  178.3540  138.3690 C   0  0  0  0  0  0  0  0  0  0  0  0
  186.3300  178.6870  140.7930 C   0  0  0  0  0  3  0  0  0  0  0  0
  186.5730  178.4130  139.4960 C   0  0  0  0  0  0  0  0  0  0  0  0
  182.6900  178.6800  141.7520 N   0  0  0  0  0  0  0  0  0  0  0  0
  181.4210  178.4060  141.2960 O   0  0  0  0  0  0  0  0  0  0  0  0
  182.8830  178.7230  142.9850 O   0  0  0  0  0  0  0  0  0  0  0  0
  191.3280  177.0670  140.6950 C   0  0  0  0  0  2  0  0  0  0  0  0
  191.1870  178.1400  144.2530 C   0  0  0  0  0  3  0  0  0  0  0  0
  189.4230  177.0160  142.3080 C   0  0  0  0  0  3  0  0  0  0  0  0
  187.9150  177.7100  146.1520 C   0  0  0  0  0  0  0  0  0  0  0  0
  189.3130  178.0310  145.7980 C   0  0  0  0  0  3  0  0  0  0  0  0
  189.7910  177.8100  144.5750 C   0  0  0  0  0  0  0  0  0  0  0  0
  187.4940  176.8720  143.8210 C   0  0  0  0  0  2  0  0  0  0  0  0
  188.9230  177.2290  143.5270 C   0  0  0  0  0  0  0  0  0  0  0  0
  187.0860  177.1790  145.2390 C   0  0  0  0  0  3  0  0  0  0  0  0
  190.7890  177.3520  142.0140 N   0  0  0  0  0  0  0  0  0  0  0  0
  191.6480  177.9130  143.0220 C   0  0  0  0  0  3  0  0  0  0  0  0
  187.4320  177.9770  147.5190 C   0  0  0  0  0  0  0  0  0  0  0  0
  186.2970  178.4900  147.7080 O   0  0  0  0  0  0  0  0  0  0  0  0
  188.2470  177.6570  148.6430 N   0  0  0  0  0  1  0  0  0  0  0  0
  1 17  1  0  0  0  0
  1  5  2  0  0  0  0
  2 12  1  0  0  0  0
  3 15  1  0  0  0  0
  4  5  1  0  0  0  0
  4 21  1  0  0  0  0
  6 10  1  0  0  0  0
  6  8  1  1  0  0  0
  7  6  1  0  0  0  0
  8  4  2  0  0  0  0
  9 11  1  1  0  0  0
  9  3  1  0  0  0  0
  9 10  1  0  0  0  0
 10  1  1  1  0  0  0
 11  7  2  0  0  0  0
 12 13  1  0  0  0  0
 13 14  1  0  0  0  0
 13 18  1  1  0  0  0
 15  2  2  0  0  0  0
 15 17  1  0  0  0  0
 16 14  1  0  0  0  0
 17 16  2  0  0  0  0
 18 20  2  0  0  0  0
 19 18  2  0  0  0  0
 21 30  1  0  0  0  0
 22 26  1  0  0  0  0
 23 28  2  0  0  0  0
 24 32  1  0  0  0  0
 25 24  1  0  0  0  0
 26 25  2  0  0  0  0
 27 29  1  0  0  0  0
 28 27  1  0  0  0  0
 28 26  1  0  0  0  0
 29 24  2  0  0  0  0
 30 23  1  0  0  0  0
 30 31  1  0  0  0  0
 31 22  2  0  0  0  0
 32 33  2  0  0  0  0
 32 34  1  0  0  0  0
M  END
>  <MODEL>
3

>  <REMARK>
 VINA RESULT:      -9.2      3.043      7.496
  Name = 
  4 active torsions:
  status: ('A' for Active; 'I' for Inactive)
    1  A    between atoms: N_3  and  C_25
    2  A    between atoms: C_7  and  C_11
    3  A    between atoms: C_8  and  C_18
    4  A    between atoms: C_18  and  N_30
                            x       y       z     vdW  Elec       q    Type
                         _______ _______ _______ _____ _____    ______ ____

>  <TORSDO>
F 4

$$$$
=
 OpenBabel10272415173D

 34 39  0  0  1  0  0  0  0  0999 V2000
  188.6500  177.4040  141.7430 C   0  0  0  0  0  0  0  0  0  0  0  0
  188.3190  177.2570  145.5250 N   0  0  0  0  0  0  0  0  0  0  0  0
  190.1990  177.1040  144.1570 N   0  0  0  0  0  2  0  0  0  0  0  0
  188.9550  177.8510  139.3230 C   0  0  0  0  0  0  0  0  0  0  0  0
  188.1680  177.9150  140.5890 C   0  0  0  0  0  3  0  0  0  0  0  0
  190.8210  177.0760  140.6200 C   0  0  2  0  0  3  0  0  0  0  0  0
  191.9740  177.4700  141.0520 N   0  0  0  0  0  0  0  0  0  0  0  0
  190.2510  177.4950  139.3360 C   0  0  0  0  0  3  0  0  0  0  0  0
  190.7590  176.9210  142.8610 C   0  0  1  0  0  3  0  0  0  0  0  0
  189.9200  176.6080  141.7000 C   0  0  1  0  0  3  0  0  0  0  0  0
  191.9430  177.3740  142.4770 C   0  0  0  0  0  3  0  0  0  0  0  0
  186.9480  177.3800  145.9890 C   0  0  0  0  0  2  0  0  0  0  0  0
  186.2960  178.6050  145.3980 C   0  0  1  0  0  3  0  0  0  0  0  0
  185.6670  178.1230  144.1140 C   0  0  0  0  0  2  0  0  0  0  0  0
  188.7770  177.2710  144.3050 C   0  0  0  0  0  0  0  0  0  0  0  0
  186.6590  177.9350  143.0130 C   0  0  0  0  0  3  0  0  0  0  0  0
  187.9430  177.5280  143.0550 C   0  0  0  0  0  0  0  0  0  0  0  0
  185.2700  179.1250  146.3030 N   0  0  0  0  0  0  0  0  0  0  0  0
  183.9470  178.8260  146.0740 O   0  0  0  0  0  0  0  0  0  0  0  0
  185.6000  179.5410  147.4320 O   0  0  0  0  0  0  0  0  0  0  0  0
  188.3220  178.2690  138.0390 C   0  0  0  0  0  2  0  0  0  0  0  0
  186.5230  175.1980  136.9610 C   0  0  0  0  0  3  0  0  0  0  0  0
  185.8770  177.8740  137.7220 C   0  0  0  0  0  3  0  0  0  0  0  0
  182.7320  175.3350  136.6310 C   0  0  0  0  0  0  0  0  0  0  0  0
  184.1360  174.8760  136.6270 C   0  0  0  0  0  3  0  0  0  0  0  0
  185.1350  175.6840  136.9750 C   0  0  2  0  0  3  0  0  0  0  0  0
  183.4570  177.6160  137.3970 C   0  0  0  0  0  3  0  0  0  0  0  0
  184.8610  177.0810  137.3780 C   0  0  0  0  0  0  0  0  0  0  0  0
  182.4290  176.5930  136.9870 C   0  0  0  0  0  3  0  0  0  0  0  0
  187.2250  177.3760  137.7070 N   0  0  0  0  0  0  0  0  0  0  0  0
  187.5110  176.0230  137.3140 C   0  0  0  0  0  3  0  0  0  0  0  0
  181.6610  174.4000  136.2410 C   0  0  0  0  0  0  0  0  0  0  0  0
  181.4110  174.1850  135.0250 O   0  0  0  0  0  0  0  0  0  0  0  0
  180.8960  173.7290  137.2380 N   0  0  0  0  0  1  0  0  0  0  0  0
  1 17  1  0  0  0  0
  2 12  1  0  0  0  0
  3 15  1  0  0  0  0
  4  8  2  0  0  0  0
  4  5  1  0  0  0  0
  5  1  2  0  0  0  0
  6  8  1  1  0  0  0
  6  7  1  0  0  0  0
  6 10  1  0  0  0  0
  7 11  2  0  0  0  0
  9 11  1  6  0  0  0
  9  3  1  0  0  0  0
 10  1  1  1  0  0  0
 10  9  1  0  0  0  0
 13 12  1  0  0  0  0
 13 18  1  1  0  0  0
 14 13  1  0  0  0  0
 15  2  2  0  0  0  0
 16 17  2  0  0  0  0
 16 14  1  0  0  0  0
 17 15  1  0  0  0  0
 18 20  2  0  0  0  0
 19 18  2  0  0  0  0
 21  4  1  0  0  0  0
 22 26  1  0  0  0  0
 22 31  2  0  0  0  0
 24 29  1  0  0  0  0
 25 24  2  0  0  0  0
 26 25  1  6  0  0  0
 26 28  1  0  0  0  0
 28 27  1  0  0  0  0
 28 23  2  0  0  0  0
 29 27  2  0  0  0  0
 30 23  1  0  0  0  0
 30 21  1  0  0  0  0
 31 30  1  0  0  0  0
 32 24  1  0  0  0  0
 32 34  1  0  0  0  0
 33 32  2  0  0  0  0
M  END
>  <MODEL>
4

>  <REMARK>
 VINA RESULT:      -9.2      1.024      1.891
  Name = 
  4 active torsions:
  status: ('A' for Active; 'I' for Inactive)
    1  A    between atoms: N_3  and  C_25
    2  A    between atoms: C_7  and  C_11
    3  A    between atoms: C_8  and  C_18
    4  A    between atoms: C_18  and  N_30
                            x       y       z     vdW  Elec       q    Type
                         _______ _______ _______ _____ _____    ______ ____

>  <TORSDO>
F 4

$$$$
=
 OpenBabel10272415173D

 34 39  0  0  1  0  0  0  0  0999 V2000
  189.3220  177.7740  143.5380 C   0  0  0  0  0  0  0  0  0  0  0  0
  190.5640  177.4840  139.9600 N   0  0  0  0  0  0  0  0  0  0  0  0
  191.5090  176.7530  141.9600 N   0  0  0  0  0  2  0  0  0  0  0  0
  188.3880  177.6210  145.8310 C   0  0  0  0  0  0  0  0  0  0  0  0
  188.2490  177.8190  144.3580 C   0  0  0  0  0  3  0  0  0  0  0  0
  190.6690  176.9790  145.4450 C   0  0  2  0  0  3  0  0  0  0  0  0
  191.4340  175.9360  145.4600 N   0  0  0  0  0  0  0  0  0  0  0  0
  189.5390  177.1680  146.3580 C   0  0  0  0  0  3  0  0  0  0  0  0
  191.5420  176.7860  143.3830 C   0  0  1  0  0  3  0  0  0  0  0  0
  190.6890  177.7000  144.1490 C   0  0  1  0  0  3  0  0  0  0  0  0
  191.9940  175.8060  144.1520 C   0  0  0  0  0  3  0  0  0  0  0  0
  189.6720  178.0930  138.9890 C   0  0  0  0  0  2  0  0  0  0  0  0
  188.2670  177.5690  139.1580 C   0  0  1  0  0  3  0  0  0  0  0  0
  187.6190  178.5190  140.1350 C   0  0  0  0  0  2  0  0  0  0  0  0
  190.4370  177.4040  141.2540 C   0  0  0  0  0  0  0  0  0  0  0  0
  188.0400  178.2790  141.5490 C   0  0  0  0  0  3  0  0  0  0  0  0
  189.2230  177.8690  142.0490 C   0  0  0  0  0  0  0  0  0  0  0  0
  187.5560  177.5920  137.8800 N   0  0  0  0  0  0  0  0  0  0  0  0
  186.9770  176.4380  137.4030 O   0  0  0  0  0  0  0  0  0  0  0  0
  187.1910  178.6840  137.3980 O   0  0  0  0  0  0  0  0  0  0  0  0
  187.2120  177.8470  146.7200 C   0  0  0  0  0  2  0  0  0  0  0  0
  183.7650  178.9620  145.8790 C   0  0  0  0  0  3  0  0  0  0  0  0
  186.0560  177.9450  144.5090 C   0  0  0  0  0  3  0  0  0  0  0  0
  182.6330  178.7800  142.2480 C   0  0  0  0  0  0  0  0  0  0  0  0
  182.6690  178.9990  143.7090 C   0  0  0  0  0  3  0  0  0  0  0  0
  183.7600  178.7340  144.4260 C   0  0  0  0  0  0  0  0  0  0  0  0
  185.0040  177.9500  142.2900 C   0  0  0  0  0  2  0  0  0  0  0  0
  184.9760  178.2040  143.7700 C   0  0  0  0  0  0  0  0  0  0  0  0
  183.7080  178.3000  141.6050 C   0  0  0  0  0  3  0  0  0  0  0  0
  186.0420  178.1810  145.9270 N   0  0  0  0  0  0  0  0  0  0  0  0
  184.8670  178.6910  146.5810 C   0  0  0  0  0  3  0  0  0  0  0  0
  181.4030  179.0930  141.4980 C   0  0  0  0  0  0  0  0  0  0  0  0
  181.1730  178.5440  140.3870 O   0  0  0  0  0  0  0  0  0  0  0  0
  180.4590  180.0230  142.0220 N   0  0  0  0  0  1  0  0  0  0  0  0
  1  5  2  0  0  0  0
  2 15  2  0  0  0  0
  3  9  1  0  0  0  0
  4  8  2  0  0  0  0
  4 21  1  0  0  0  0
  5  4  1  0  0  0  0
  6  7  1  0  0  0  0
  6  8  1  6  0  0  0
  9 10  1  0  0  0  0
  9 11  1  1  0  0  0
 10  1  1  6  0  0  0
 10  6  1  0  0  0  0
 11  7  2  0  0  0  0
 12 13  1  0  0  0  0
 12  2  1  0  0  0  0
 13 18  1  6  0  0  0
 13 14  1  0  0  0  0
 14 16  1  0  0  0  0
 15  3  1  0  0  0  0
 15 17  1  0  0  0  0
 16 17  2  0  0  0  0
 17  1  1  0  0  0  0
 19 18  2  0  0  0  0
 20 18  2  0  0  0  0
 22 31  2  0  0  0  0
 23 30  1  0  0  0  0
 24 25  1  0  0  0  0
 25 26  2  0  0  0  0
 26 22  1  0  0  0  0
 27 28  1  0  0  0  0
 28 26  1  0  0  0  0
 28 23  2  0  0  0  0
 29 24  2  0  0  0  0
 29 27  1  0  0  0  0
 30 31  1  0  0  0  0
 30 21  1  0  0  0  0
 32 34  1  0  0  0  0
 32 24  1  0  0  0  0
 33 32  2  0  0  0  0
M  END
>  <MODEL>
5

>  <REMARK>
 VINA RESULT:      -9.2      3.790      6.903
  Name = 
  4 active torsions:
  status: ('A' for Active; 'I' for Inactive)
    1  A    between atoms: N_3  and  C_25
    2  A    between atoms: C_7  and  C_11
    3  A    between atoms: C_8  and  C_18
    4  A    between atoms: C_18  and  N_30
                            x       y       z     vdW  Elec       q    Type
                         _______ _______ _______ _____ _____    ______ ____

>  <TORSDO>
F 4

$$$$
=
 OpenBabel10272415173D

 34 39  0  0  1  0  0  0  0  0999 V2000
  184.0640  178.3670  141.5560 C   0  0  0  0  0  0  0  0  0  0  0  0
  185.0540  178.1280  137.8970 N   0  0  0  0  0  0  0  0  0  0  0  0
  183.0070  178.6370  138.8870 N   0  0  0  0  0  2  0  0  0  0  0  0
  183.4650  178.8840  143.9070 C   0  0  0  0  0  0  0  0  0  0  0  0
  184.4570  178.6730  142.8130 C   0  0  0  0  0  3  0  0  0  0  0  0
  181.7370  178.8140  142.2410 C   0  0  2  0  0  3  0  0  0  0  0  0
  180.8950  179.5880  141.6360 N   0  0  0  0  0  0  0  0  0  0  0  0
  182.1540  179.0030  143.6340 C   0  0  0  0  0  3  0  0  0  0  0  0
  182.1780  178.6560  140.0430 C   0  0  1  0  0  3  0  0  0  0  0  0
  182.6160  178.0650  141.3110 C   0  0  1  0  0  3  0  0  0  0  0  0
  181.1680  179.4920  140.2370 C   0  0  0  0  0  3  0  0  0  0  0  0
  186.4470  177.7660  137.6990 C   0  0  0  0  0  2  0  0  0  0  0  0
  187.3500  178.6850  138.4840 C   0  0  1  0  0  3  0  0  0  0  0  0
  187.5130  178.0090  139.8230 C   0  0  0  0  0  2  0  0  0  0  0  0
  184.4000  178.2970  139.0110 C   0  0  0  0  0  0  0  0  0  0  0  0
  186.3220  178.1750  140.7100 C   0  0  0  0  0  3  0  0  0  0  0  0
  185.0110  178.2420  140.4060 C   0  0  0  0  0  0  0  0  0  0  0  0
  188.6470  178.8170  137.8200 N   0  0  0  0  0  0  0  0  0  0  0  0
  189.3070  177.6900  137.3850 O   0  0  0  0  0  0  0  0  0  0  0  0
  188.9910  179.9240  137.3570 O   0  0  0  0  0  0  0  0  0  0  0  0
  183.9390  179.0500  145.3110 C   0  0  0  0  0  2  0  0  0  0  0  0
  187.2140  177.5430  144.3930 C   0  0  0  0  0  3  0  0  0  0  0  0
  185.9790  178.6820  146.7030 C   0  0  0  0  0  3  0  0  0  0  0  0
  189.8910  177.2400  147.0830 C   0  0  0  0  0  0  0  0  0  0  0  0
  189.1600  177.1690  145.8010 C   0  0  0  0  0  3  0  0  0  0  0  0
  187.9160  177.6290  145.6820 C   0  0  2  0  0  3  0  0  0  0  0  0
  187.9080  178.3250  148.1800 C   0  0  0  0  0  3  0  0  0  0  0  0
  187.2260  178.2280  146.8450 C   0  0  0  0  0  0  0  0  0  0  0  0
  189.3100  177.7730  148.1690 C   0  0  0  0  0  3  0  0  0  0  0  0
  185.3140  178.5940  145.4320 N   0  0  0  0  0  0  0  0  0  0  0  0
  185.9680  178.0100  144.2930 C   0  0  0  0  0  3  0  0  0  0  0  0
  191.2690  176.7210  147.1630 C   0  0  0  0  0  0  0  0  0  0  0  0
  191.9410  176.8480  148.2210 O   0  0  0  0  0  0  0  0  0  0  0  0
  191.8560  176.0680  146.0410 N   0  0  0  0  0  1  0  0  0  0  0  0
  1  5  2  0  0  0  0
  2 15  2  0  0  0  0
  3 15  1  0  0  0  0
  3  9  1  0  0  0  0
  4 21  1  0  0  0  0
  5  4  1  0  0  0  0
  6  8  1  1  0  0  0
  7  6  1  0  0  0  0
  8  4  2  0  0  0  0
  9 11  1  1  0  0  0
  9 10  1  0  0  0  0
 10  1  1  1  0  0  0
 10  6  1  0  0  0  0
 11  7  2  0  0  0  0
 12  2  1  0  0  0  0
 12 13  1  0  0  0  0
 13 18  1  6  0  0  0
 13 14  1  0  0  0  0
 14 16  1  0  0  0  0
 15 17  1  0  0  0  0
 17 16  2  0  0  0  0
 17  1  1  0  0  0  0
 19 18  2  0  0  0  0
 20 18  2  0  0  0  0
 21 30  1  0  0  0  0
 23 28  2  0  0  0  0
 24 32  1  0  0  0  0
 24 29  1  0  0  0  0
 25 24  2  0  0  0  0
 26 22  1  1  0  0  0
 26 25  1  0  0  0  0
 26 28  1  0  0  0  0
 28 27  1  0  0  0  0
 29 27  2  0  0  0  0
 30 23  1  0  0  0  0
 31 22  2  0  0  0  0
 31 30  1  0  0  0  0
 32 33  2  0  0  0  0
 34 32  1  0  0  0  0
M  END
>  <MODEL>
6

>  <REMARK>
 VINA RESULT:      -8.8      3.939      9.541
  Name = 
  4 active torsions:
  status: ('A' for Active; 'I' for Inactive)
    1  A    between atoms: N_3  and  C_25
    2  A    between atoms: C_7  and  C_11
    3  A    between atoms: C_8  and  C_18
    4  A    between atoms: C_18  and  N_30
                            x       y       z     vdW  Elec       q    Type
                         _______ _______ _______ _____ _____    ______ ____

>  <TORSDO>
F 4

$$$$
=
 OpenBabel10272415173D

 34 39  0  0  1  0  0  0  0  0999 V2000
  188.9680  177.3210  142.3230 C   0  0  0  0  0  0  0  0  0  0  0  0
  189.9650  176.8890  145.9630 N   0  0  0  0  0  0  0  0  0  0  0  0
  191.2620  176.9470  144.0280 N   0  0  0  0  0  2  0  0  0  0  0  0
  188.4050  177.9560  139.9920 C   0  0  0  0  0  0  0  0  0  0  0  0
  188.1010  177.8820  141.4510 C   0  0  0  0  0  3  0  0  0  0  0  0
  190.6280  177.2060  140.5030 C   0  0  2  0  0  3  0  0  0  0  0  0
  191.8460  177.6370  140.5490 N   0  0  0  0  0  0  0  0  0  0  0  0
  189.6370  177.6790  139.5320 C   0  0  0  0  0  3  0  0  0  0  0  0
  191.3470  176.8900  142.6090 C   0  0  1  0  0  3  0  0  0  0  0  0
  190.1700  176.6090  141.7810 C   0  0  1  0  0  3  0  0  0  0  0  0
  192.3110  177.4390  141.8850 C   0  0  0  0  0  3  0  0  0  0  0  0
  188.8350  176.8950  146.8750 C   0  0  0  0  0  2  0  0  0  0  0  0
  187.9790  178.1170  146.6500 C   0  0  1  0  0  3  0  0  0  0  0  0
  186.9630  177.6890  145.6210 C   0  0  0  0  0  2  0  0  0  0  0  0
  189.9740  177.0170  144.6660 C   0  0  0  0  0  0  0  0  0  0  0  0
  187.5200  177.6400  144.2360 C   0  0  0  0  0  3  0  0  0  0  0  0
  188.7530  177.3090  143.8020 C   0  0  0  0  0  0  0  0  0  0  0  0
  187.3110  178.5080  147.8920 N   0  0  0  0  0  0  0  0  0  0  0  0
  186.0600  179.0790  147.8410 O   0  0  0  0  0  0  0  0  0  0  0  0
  187.7070  178.0370  148.9780 O   0  0  0  0  0  0  0  0  0  0  0  0
  187.3550  178.4240  139.0420 C   0  0  0  0  0  2  0  0  0  0  0  0
  183.6810  178.0360  139.4670 C   0  0  0  0  0  3  0  0  0  0  0  0
  185.9300  178.7840  141.0600 C   0  0  0  0  0  3  0  0  0  0  0  0
  182.1510  178.8280  142.8620 C   0  0  0  0  0  0  0  0  0  0  0  0
  182.3310  178.4400  141.4480 C   0  0  0  0  0  3  0  0  0  0  0  0
  183.5340  178.4260  140.8770 C   0  0  2  0  0  3  0  0  0  0  0  0
  184.6220  179.2180  143.0930 C   0  0  0  0  0  3  0  0  0  0  0  0
  184.7350  178.8050  141.6530 C   0  0  0  0  0  0  0  0  0  0  0  0
  183.2070  179.1830  143.6100 C   0  0  0  0  0  3  0  0  0  0  0  0
  186.0510  178.3930  139.6820 N   0  0  0  0  0  0  0  0  0  0  0  0
  184.8940  178.0270  138.9120 C   0  0  0  0  0  3  0  0  0  0  0  0
  180.7990  178.8240  143.4500 C   0  0  0  0  0  0  0  0  0  0  0  0
  180.3510  177.7930  144.0180 O   0  0  0  0  0  0  0  0  0  0  0  0
  179.9820  179.9890  143.3800 N   0  0  0  0  0  1  0  0  0  0  0  0
  1 17  1  0  0  0  0
  2 12  1  0  0  0  0
  3 15  1  0  0  0  0
  4  5  1  0  0  0  0
  5  1  2  0  0  0  0
  6  8  1  1  0  0  0
  6  7  1  0  0  0  0
  6 10  1  0  0  0  0
  7 11  2  0  0  0  0
  8  4  2  0  0  0  0
  9 11  1  6  0  0  0
  9  3  1  0  0  0  0
 10  1  1  1  0  0  0
 10  9  1  0  0  0  0
 13 12  1  0  0  0  0
 13 18  1  1  0  0  0
 14 13  1  0  0  0  0
 15  2  2  0  0  0  0
 16 14  1  0  0  0  0
 17 16  2  0  0  0  0
 17 15  1  0  0  0  0
 18 20  2  0  0  0  0
 19 18  2  0  0  0  0
 21 30  1  0  0  0  0
 21  4  1  0  0  0  0
 23 28  2  0  0  0  0
 24 32  1  0  0  0  0
 24 29  1  0  0  0  0
 25 24  2  0  0  0  0
 26 22  1  6  0  0  0
 26 25  1  0  0  0  0
 26 28  1  0  0  0  0
 27 29  2  0  0  0  0
 28 27  1  0  0  0  0
 30 23  1  0  0  0  0
 31 22  2  0  0  0  0
 31 30  1  0  0  0  0
 32 33  2  0  0  0  0
 34 32  1  0  0  0  0
M  END
>  <MODEL>
7

>  <REMARK>
 VINA RESULT:      -8.8      3.485      4.850
  Name = 
  4 active torsions:
  status: ('A' for Active; 'I' for Inactive)
    1  A    between atoms: N_3  and  C_25
    2  A    between atoms: C_7  and  C_11
    3  A    between atoms: C_8  and  C_18
    4  A    between atoms: C_18  and  N_30
                            x       y       z     vdW  Elec       q    Type
                         _______ _______ _______ _____ _____    ______ ____

>  <TORSDO>
F 4

$$$$
=
 OpenBabel10272415173D

 34 39  0  0  1  0  0  0  0  0999 V2000
  184.0490  178.3750  141.5070 C   0  0  0  0  0  0  0  0  0  0  0  0
  185.3140  178.0540  137.9400 N   0  0  0  0  0  0  0  0  0  0  0  0
  183.1900  178.5490  138.7600 N   0  0  0  0  0  2  0  0  0  0  0  0
  183.2670  178.9460  143.7910 C   0  0  0  0  0  0  0  0  0  0  0  0
  184.3420  178.7240  142.7790 C   0  0  0  0  0  3  0  0  0  0  0  0
  181.6700  178.7950  142.0040 C   0  0  2  0  0  3  0  0  0  0  0  0
  180.8620  179.5350  141.3160 N   0  0  0  0  0  0  0  0  0  0  0  0
  181.9790  179.0310  143.4170 C   0  0  0  0  0  3  0  0  0  0  0  0
  182.2770  178.5840  139.8500 C   0  0  1  0  0  3  0  0  0  0  0  0
  182.6290  178.0370  141.1640 C   0  0  1  0  0  3  0  0  0  0  0  0
  181.2410  179.4050  139.9440 C   0  0  0  0  0  3  0  0  0  0  0  0
  186.7240  177.7140  137.8560 C   0  0  0  0  0  2  0  0  0  0  0  0
  187.5490  178.6710  138.6790 C   0  0  1  0  0  3  0  0  0  0  0  0
  187.6240  178.0370  140.0460 C   0  0  0  0  0  2  0  0  0  0  0  0
  184.5760  178.2410  138.9970 C   0  0  0  0  0  0  0  0  0  0  0  0
  186.3680  178.2040  140.8360 C   0  0  0  0  0  3  0  0  0  0  0  0
  185.0820  178.2360  140.4350 C   0  0  0  0  0  0  0  0  0  0  0  0
  188.8900  178.8110  138.1090 N   0  0  0  0  0  0  0  0  0  0  0  0
  189.1930  179.9140  137.3450 O   0  0  0  0  0  0  0  0  0  0  0  0
  189.8290  178.1310  138.5730 O   0  0  0  0  0  0  0  0  0  0  0  0
  183.6330  179.1610  145.2200 C   0  0  0  0  0  2  0  0  0  0  0  0
  186.8720  178.6150  146.9640 C   0  0  0  0  0  3  0  0  0  0  0  0
  185.7260  178.0710  144.4050 C   0  0  0  0  0  3  0  0  0  0  0  0
  189.6950  176.9120  145.0600 C   0  0  0  0  0  0  0  0  0  0  0  0
  188.9000  177.5820  146.1090 C   0  0  0  0  0  3  0  0  0  0  0  0
  187.6370  177.9490  145.9000 C   0  0  0  0  0  0  0  0  0  0  0  0
  187.7450  177.0240  143.4800 C   0  0  0  0  0  2  0  0  0  0  0  0
  186.9920  177.6930  144.5930 C   0  0  0  0  0  0  0  0  0  0  0  0
  189.1580  176.6580  143.8560 C   0  0  0  0  0  3  0  0  0  0  0  0
  184.9940  178.7150  145.4610 N   0  0  0  0  0  0  0  0  0  0  0  0
  185.6080  178.9750  146.7350 C   0  0  0  0  0  3  0  0  0  0  0  0
  191.0880  176.5210  145.3420 C   0  0  0  0  0  0  0  0  0  0  0  0
  191.7440  175.8390  144.5090 O   0  0  0  0  0  0  0  0  0  0  0  0
  191.7090  176.9110  146.5640 N   0  0  0  0  0  1  0  0  0  0  0  0
  1  5  2  0  0  0  0
  2 15  2  0  0  0  0
  3 15  1  0  0  0  0
  3  9  1  0  0  0  0
  4 21  1  0  0  0  0
  5  4  1  0  0  0  0
  6  8  1  1  0  0  0
  7  6  1  0  0  0  0
  8  4  2  0  0  0  0
  9 11  1  1  0  0  0
  9 10  1  0  0  0  0
 10  1  1  1  0  0  0
 10  6  1  0  0  0  0
 11  7  2  0  0  0  0
 12  2  1  0  0  0  0
 12 13  1  0  0  0  0
 13 18  1  6  0  0  0
 13 14  1  0  0  0  0
 14 16  1  0  0  0  0
 15 17  1  0  0  0  0
 17 16  2  0  0  0  0
 17  1  1  0  0  0  0
 18 20  2  0  0  0  0
 19 18  2  0  0  0  0
 21 30  1  0  0  0  0
 23 28  2  0  0  0  0
 23 30  1  0  0  0  0
 24 32  1  0  0  0  0
 24 25  1  0  0  0  0
 26 25  2  0  0  0  0
 26 22  1  0  0  0  0
 27 29  1  0  0  0  0
 27 28  1  0  0  0  0
 28 26  1  0  0  0  0
 29 24  2  0  0  0  0
 30 31  1  0  0  0  0
 31 22  2  0  0  0  0
 32 34  1  0  0  0  0
 33 32  2  0  0  0  0
M  END
>  <MODEL>
8

>  <REMARK>
 VINA RESULT:      -8.6      3.956      8.966
  Name = 
  4 active torsions:
  status: ('A' for Active; 'I' for Inactive)
    1  A    between atoms: N_3  and  C_25
    2  A    between atoms: C_7  and  C_11
    3  A    between atoms: C_8  and  C_18
    4  A    between atoms: C_18  and  N_30
                            x       y       z     vdW  Elec       q    Type
                         _______ _______ _______ _____ _____    ______ ____

>  <TORSDO>
F 4

$$$$
=
 OpenBabel10272415173D

 34 39  0  0  1  0  0  0  0  0999 V2000
  187.3030  177.5290  145.1870 C   0  0  0  0  0  0  0  0  0  0  0  0
  183.7530  178.6980  145.8660 N   0  0  0  0  0  0  0  0  0  0  0  0
  185.6360  178.6830  147.2380 N   0  0  0  0  0  2  0  0  0  0  0  0
  189.6960  177.1180  144.6790 C   0  0  0  0  0  0  0  0  0  0  0  0
  188.2850  177.3820  144.2700 C   0  0  0  0  0  3  0  0  0  0  0  0
  189.0310  177.5500  146.9460 C   0  0  2  0  0  3  0  0  0  0  0  0
  189.1650  178.4360  147.8790 N   0  0  0  0  0  0  0  0  0  0  0  0
  190.0750  177.2460  145.9630 C   0  0  0  0  0  3  0  0  0  0  0  0
  186.9600  178.2290  147.4940 C   0  0  1  0  0  3  0  0  0  0  0  0
  187.6160  177.2460  146.6260 C   0  0  1  0  0  3  0  0  0  0  0  0
  187.8520  178.8720  148.2340 C   0  0  0  0  0  3  0  0  0  0  0  0
  182.8610  178.5210  144.7330 C   0  0  0  0  0  2  0  0  0  0  0  0
  183.4490  179.1460  143.4930 C   0  0  1  0  0  3  0  0  0  0  0  0
  184.2510  178.0410  142.8510 C   0  0  0  0  0  2  0  0  0  0  0  0
  185.0200  178.4100  145.9660 C   0  0  0  0  0  0  0  0  0  0  0  0
  185.5590  177.7990  143.5310 C   0  0  0  0  0  3  0  0  0  0  0  0
  185.8960  177.8890  144.8330 C   0  0  0  0  0  0  0  0  0  0  0  0
  182.3850  179.5910  142.5920 N   0  0  0  0  0  0  0  0  0  0  0  0
  182.3830  179.1700  141.2820 O   0  0  0  0  0  0  0  0  0  0  0  0
  181.3310  180.0590  143.0690 O   0  0  0  0  0  0  0  0  0  0  0  0
  190.7160  176.7920  143.6420 C   0  0  0  0  0  2  0  0  0  0  0  0
  188.7630  178.5740  141.0250 C   0  0  0  0  0  3  0  0  0  0  0  0
  190.7170  176.4950  141.1630 C   0  0  0  0  0  3  0  0  0  0  0  0
  189.2330  177.5420  137.3900 C   0  0  0  0  0  0  0  0  0  0  0  0
  188.7700  178.2170  138.6200 C   0  0  0  0  0  3  0  0  0  0  0  0
  189.2440  177.8830  139.8190 C   0  0  0  0  0  0  0  0  0  0  0  0
  190.7650  176.0800  138.7430 C   0  0  0  0  0  2  0  0  0  0  0  0
  190.2570  176.8130  139.9510 C   0  0  0  0  0  0  0  0  0  0  0  0
  190.1490  176.5630  137.4550 C   0  0  0  0  0  3  0  0  0  0  0  0
  190.2370  177.1870  142.3280 N   0  0  0  0  0  0  0  0  0  0  0  0
  189.2500  178.2260  142.2180 C   0  0  0  0  0  3  0  0  0  0  0  0
  188.6810  177.9510  136.0860 C   0  0  0  0  0  0  0  0  0  0  0  0
  189.3260  177.7430  135.0240 O   0  0  0  0  0  0  0  0  0  0  0  0
  187.4080  178.5870  136.0130 N   0  0  0  0  0  1  0  0  0  0  0  0
  2 15  2  0  0  0  0
  3  9  1  0  0  0  0
  4  8  2  0  0  0  0
  5  4  1  0  0  0  0
  5  1  2  0  0  0  0
  6  8  1  6  0  0  0
  6  7  1  0  0  0  0
  7 11  2  0  0  0  0
  9 11  1  6  0  0  0
 10  1  1  6  0  0  0
 10  6  1  0  0  0  0
 10  9  1  0  0  0  0
 12  2  1  0  0  0  0
 13 18  1  6  0  0  0
 13 12  1  0  0  0  0
 14 13  1  0  0  0  0
 14 16  1  0  0  0  0
 15  3  1  0  0  0  0
 16 17  2  0  0  0  0
 17  1  1  0  0  0  0
 17 15  1  0  0  0  0
 18 20  2  0  0  0  0
 19 18  2  0  0  0  0
 21  4  1  0  0  0  0
 22 31  2  0  0  0  0
 23 30  1  0  0  0  0
 24 29  2  0  0  0  0
 24 25  1  0  0  0  0
 25 26  2  0  0  0  0
 26 28  1  0  0  0  0
 26 22  1  0  0  0  0
 27 28  1  0  0  0  0
 28 23  2  0  0  0  0
 29 27  1  0  0  0  0
 30 21  1  0  0  0  0
 31 30  1  0  0  0  0
 32 24  1  0  0  0  0
 33 32  2  0  0  0  0
 34 32  1  0  0  0  0
M  END
>  <MODEL>
9

>  <REMARK>
 VINA RESULT:      -8.6      3.760      5.650
  Name = 
  4 active torsions:
  status: ('A' for Active; 'I' for Inactive)
    1  A    between atoms: N_3  and  C_25
    2  A    between atoms: C_7  and  C_11
    3  A    between atoms: C_8  and  C_18
    4  A    between atoms: C_18  and  N_30
                            x       y       z     vdW  Elec       q    Type
                         _______ _______ _______ _____ _____    ______ ____

>  <TORSDO>
F 4

$$$$
