=
 OpenBabel10272400443D

 25 28  0  0  1  0  0  0  0  0999 V2000
  189.3000  177.5890  141.7430 C   0  0  0  0  0  0  0  0  0  0  0  0
  187.9550  177.9190  141.9840 C   0  0  0  0  0  0  0  0  0  0  0  0
  189.0070  178.2450  139.4330 C   0  0  0  0  0  3  0  0  0  0  0  0
  185.5810  177.9870  144.8060 N   0  0  0  0  0  2  0  0  0  0  0  0
  187.7050  178.5440  139.6800 N   0  0  0  0  0  0  0  0  0  0  0  0
  185.8180  178.7230  141.1650 C   0  0  0  0  0  0  0  0  0  0  0  0
  184.9300  179.2260  140.0780 C   0  0  0  0  0  1  0  0  0  0  0  0
  187.4160  177.8010  143.2270 N   0  0  0  0  0  0  0  0  0  0  0  0
  189.8260  177.7670  140.4580 C   0  0  0  0  0  3  0  0  0  0  0  0
  185.2980  178.5820  142.4540 C   0  0  0  0  0  3  0  0  0  0  0  0
  186.1170  178.1190  143.4850 C   0  0  0  0  0  0  0  0  0  0  0  0
  187.1600  178.3970  140.9190 C   0  0  0  0  0  0  0  0  0  0  0  0
  190.1770  177.0800  142.8150 C   0  0  0  0  0  0  0  0  0  0  0  0
  191.8440  176.0400  144.8170 C   0  0  0  0  0  3  0  0  0  0  0  0
  190.8220  177.9470  143.7210 C   0  0  0  0  0  0  0  0  0  0  0  0
  191.6520  177.4190  144.7160 C   0  0  0  0  0  3  0  0  0  0  0  0
  191.2000  175.1780  143.9270 C   0  0  0  0  0  3  0  0  0  0  0  0
  190.5800  179.6880  143.6810 Cl  0  0  0  0  0  0  0  0  0  0  0  0
  190.3670  175.6970  142.9320 C   0  0  0  0  0  3  0  0  0  0  0  0
  188.6460  177.5980  147.0320 C   0  0  0  0  0  2  0  0  0  0  0  0
  185.8760  178.2600  147.2460 C   0  0  0  0  0  2  0  0  0  0  0  0
  187.9070  178.2520  148.2100 C   0  0  0  0  0  2  0  0  0  0  0  0
  186.3450  177.5410  145.9680 C   0  0  2  0  0  3  0  0  0  0  0  0
  186.8790  179.1010  147.7610 O   0  0  0  0  0  0  0  0  0  0  0  0
  187.8500  177.7050  145.7280 C   0  0  0  0  0  2  0  0  0  0  0  0
  1  2  1  0  0  0  0
  1 13  1  0  0  0  0
  2  8  1  0  0  0  0
  3  5  2  0  0  0  0
  3  9  1  0  0  0  0
  5 12  1  0  0  0  0
  6 10  2  0  0  0  0
  7  6  1  0  0  0  0
  8 11  2  0  0  0  0
  9  1  2  0  0  0  0
 10 11  1  0  0  0  0
 11  4  1  0  0  0  0
 12  6  1  0  0  0  0
 12  2  2  0  0  0  0
 13 19  2  0  0  0  0
 13 15  1  0  0  0  0
 15 16  2  0  0  0  0
 16 14  1  0  0  0  0
 17 14  2  0  0  0  0
 18 15  1  0  0  0  0
 19 17  1  0  0  0  0
 20 22  1  0  0  0  0
 21 24  1  0  0  0  0
 23  4  1  6  0  0  0
 23 21  1  0  0  0  0
 24 22  1  0  0  0  0
 25 23  1  0  0  0  0
 25 20  1  0  0  0  0
M  END
>  <MODEL>
1

>  <REMARK>
 VINA RESULT:      -8.7      0.000      0.000
  Name = 
  2 active torsions:
  status: ('A' for Active; 'I' for Inactive)
    1  A    between atoms: C_1  and  C_5
    2  A    between atoms: N_6  and  C_15
                            x       y       z     vdW  Elec       q    Type
                         _______ _______ _______ _____ _____    ______ ____

>  <TORSDO>
F 2

$$$$
=
 OpenBabel10272400443D

 25 28  0  0  1  0  0  0  0  0999 V2000
  187.5870  177.6610  145.9030 C   0  0  0  0  0  0  0  0  0  0  0  0
  188.8670  177.2270  145.5140 C   0  0  0  0  0  0  0  0  0  0  0  0
  188.3100  177.5970  148.2110 C   0  0  0  0  0  3  0  0  0  0  0  0
  190.7190  176.4970  142.4090 N   0  0  0  0  0  2  0  0  0  0  0  0
  189.5360  177.1630  147.8180 N   0  0  0  0  0  0  0  0  0  0  0  0
  191.1160  176.5400  146.1100 C   0  0  0  0  0  0  0  0  0  0  0  0
  192.1820  176.2520  147.1120 C   0  0  0  0  0  1  0  0  0  0  0  0
  189.1830  177.0660  144.2000 N   0  0  0  0  0  0  0  0  0  0  0  0
  187.3180  177.8560  147.2630 C   0  0  0  0  0  3  0  0  0  0  0  0
  191.4010  176.3800  144.7520 C   0  0  0  0  0  3  0  0  0  0  0  0
  190.4170  176.6520  143.8000 C   0  0  0  0  0  0  0  0  0  0  0  0
  189.8410  176.9750  146.5040 C   0  0  0  0  0  0  0  0  0  0  0  0
  186.5280  177.9350  144.9130 C   0  0  0  0  0  0  0  0  0  0  0  0
  184.5590  178.4200  142.9750 C   0  0  0  0  0  3  0  0  0  0  0  0
  185.2440  178.3740  145.3000 C   0  0  0  0  0  0  0  0  0  0  0  0
  184.2690  178.6130  144.3270 C   0  0  0  0  0  3  0  0  0  0  0  0
  185.8310  177.9940  142.5870 C   0  0  0  0  0  3  0  0  0  0  0  0
  184.8330  178.6860  146.9810 Cl  0  0  0  0  0  0  0  0  0  0  0  0
  186.8130  177.7570  143.5530 C   0  0  0  0  0  3  0  0  0  0  0  0
  188.5870  178.6490  140.1040 C   0  0  0  0  0  2  0  0  0  0  0  0
  190.4180  176.4620  139.9550 C   0  0  0  0  0  2  0  0  0  0  0  0
  189.3070  178.0870  138.8680 C   0  0  0  0  0  2  0  0  0  0  0  0
  189.7840  176.7760  141.3230 C   0  0  2  0  0  3  0  0  0  0  0  0
  190.5970  177.6310  139.1920 O   0  0  0  0  0  0  0  0  0  0  0  0
  189.2650  178.2160  141.4070 C   0  0  0  0  0  2  0  0  0  0  0  0
  1  9  1  0  0  0  0
  2  1  2  0  0  0  0
  2 12  1  0  0  0  0
  4 11  1  0  0  0  0
  5  3  1  0  0  0  0
  6 12  1  0  0  0  0
  6  7  1  0  0  0  0
  8  2  1  0  0  0  0
  9  3  2  0  0  0  0
 10  6  2  0  0  0  0
 11  8  2  0  0  0  0
 11 10  1  0  0  0  0
 12  5  2  0  0  0  0
 13 15  1  0  0  0  0
 13  1  1  0  0  0  0
 14 16  1  0  0  0  0
 15 18  1  0  0  0  0
 16 15  2  0  0  0  0
 17 14  2  0  0  0  0
 17 19  1  0  0  0  0
 19 13  2  0  0  0  0
 20 25  1  0  0  0  0
 21 23  1  0  0  0  0
 22 24  1  0  0  0  0
 22 20  1  0  0  0  0
 23 25  1  0  0  0  0
 23  4  1  1  0  0  0
 24 21  1  0  0  0  0
M  END
>  <MODEL>
2

>  <REMARK>
 VINA RESULT:      -8.7      2.883      6.878
  Name = 
  2 active torsions:
  status: ('A' for Active; 'I' for Inactive)
    1  A    between atoms: C_1  and  C_5
    2  A    between atoms: N_6  and  C_15
                            x       y       z     vdW  Elec       q    Type
                         _______ _______ _______ _____ _____    ______ ____

>  <TORSDO>
F 2

$$$$
=
 OpenBabel10272400443D

 25 28  0  0  1  0  0  0  0  0999 V2000
  187.9440  177.9020  144.8030 C   0  0  0  0  0  0  0  0  0  0  0  0
  186.8680  178.1930  143.9470 C   0  0  0  0  0  0  0  0  0  0  0  0
  186.4060  177.9000  146.6710 C   0  0  0  0  0  3  0  0  0  0  0  0
  186.2520  178.7050  140.3460 N   0  0  0  0  0  2  0  0  0  0  0  0
  185.3810  178.1980  145.8310 N   0  0  0  0  0  0  0  0  0  0  0  0
  184.5040  178.6390  143.6320 C   0  0  0  0  0  0  0  0  0  0  0  0
  183.1180  178.8160  144.1510 C   0  0  0  0  0  1  0  0  0  0  0  0
  187.0530  178.3130  142.6040 N   0  0  0  0  0  0  0  0  0  0  0  0
  187.7020  177.7440  146.1720 C   0  0  0  0  0  3  0  0  0  0  0  0
  184.7340  178.7600  142.2590 C   0  0  0  0  0  3  0  0  0  0  0  0
  186.0250  178.5900  141.7550 C   0  0  0  0  0  0  0  0  0  0  0  0
  185.5740  178.3460  144.4910 C   0  0  0  0  0  0  0  0  0  0  0  0
  189.3180  177.7370  144.2920 C   0  0  0  0  0  0  0  0  0  0  0  0
  191.9540  177.4860  143.3650 C   0  0  0  0  0  3  0  0  0  0  0  0
  189.7200  176.5730  143.6030 C   0  0  0  0  0  0  0  0  0  0  0  0
  191.0360  176.4580  143.1440 C   0  0  0  0  0  3  0  0  0  0  0  0
  191.5570  178.6430  144.0390 C   0  0  0  0  0  3  0  0  0  0  0  0
  188.5990  175.2660  143.2470 Cl  0  0  0  0  0  0  0  0  0  0  0  0
  190.2430  178.7680  144.4970 C   0  0  0  0  0  3  0  0  0  0  0  0
  189.6620  177.1220  139.7450 C   0  0  0  0  0  2  0  0  0  0  0  0
  187.3790  177.9890  138.2650 C   0  0  0  0  0  2  0  0  0  0  0  0
  189.2860  176.7980  138.2910 C   0  0  0  0  0  2  0  0  0  0  0  0
  187.5480  178.5210  139.6990 C   0  0  2  0  0  3  0  0  0  0  0  0
  187.8930  176.6850  138.1360 O   0  0  0  0  0  0  0  0  0  0  0  0
  188.4600  177.6270  140.5480 C   0  0  0  0  0  2  0  0  0  0  0  0
  1  9  1  0  0  0  0
  2 12  1  0  0  0  0
  2  1  2  0  0  0  0
  4 11  1  0  0  0  0
  5  3  1  0  0  0  0
  6  7  1  0  0  0  0
  6 12  1  0  0  0  0
  8  2  1  0  0  0  0
  9  3  2  0  0  0  0
 10  6  2  0  0  0  0
 11 10  1  0  0  0  0
 11  8  2  0  0  0  0
 12  5  2  0  0  0  0
 13 19  1  0  0  0  0
 13  1  1  0  0  0  0
 14 17  1  0  0  0  0
 15 13  2  0  0  0  0
 16 14  2  0  0  0  0
 16 15  1  0  0  0  0
 17 19  2  0  0  0  0
 18 15  1  0  0  0  0
 20 25  1  0  0  0  0
 21 23  1  0  0  0  0
 22 20  1  0  0  0  0
 23  4  1  1  0  0  0
 23 25  1  0  0  0  0
 24 21  1  0  0  0  0
 24 22  1  0  0  0  0
M  END
>  <MODEL>
3

>  <REMARK>
 VINA RESULT:      -8.5      2.555      5.272
  Name = 
  2 active torsions:
  status: ('A' for Active; 'I' for Inactive)
    1  A    between atoms: C_1  and  C_5
    2  A    between atoms: N_6  and  C_15
                            x       y       z     vdW  Elec       q    Type
                         _______ _______ _______ _____ _____    ______ ____

>  <TORSDO>
F 2

$$$$
=
 OpenBabel10272400443D

 25 28  0  0  1  0  0  0  0  0999 V2000
  185.5810  178.4210  144.5540 C   0  0  0  0  0  0  0  0  0  0  0  0
  186.9000  177.9570  144.7080 C   0  0  0  0  0  0  0  0  0  0  0  0
  185.4250  178.6530  146.9570 C   0  0  0  0  0  3  0  0  0  0  0  0
  189.7180  176.8660  142.5920 N   0  0  0  0  0  2  0  0  0  0  0  0
  186.6950  178.1880  147.0880 N   0  0  0  0  0  0  0  0  0  0  0  0
  188.7590  177.3760  146.1530 C   0  0  0  0  0  0  0  0  0  0  0  0
  189.3840  177.2270  147.4980 C   0  0  0  0  0  1  0  0  0  0  0  0
  187.6610  177.6370  143.6260 N   0  0  0  0  0  0  0  0  0  0  0  0
  184.8490  178.7810  145.6910 C   0  0  0  0  0  3  0  0  0  0  0  0
  189.5080  177.0500  145.0190 C   0  0  0  0  0  3  0  0  0  0  0  0
  188.9410  177.1900  143.7510 C   0  0  0  0  0  0  0  0  0  0  0  0
  187.4440  177.8410  146.0050 C   0  0  0  0  0  0  0  0  0  0  0  0
  184.9590  178.5580  143.2240 C   0  0  0  0  0  0  0  0  0  0  0  0
  183.8470  178.8020  140.6600 C   0  0  0  0  0  3  0  0  0  0  0  0
  183.5580  178.5950  143.0590 C   0  0  0  0  0  0  0  0  0  0  0  0
  183.0130  178.7170  141.7770 C   0  0  0  0  0  3  0  0  0  0  0  0
  185.2340  178.7740  140.8200 C   0  0  0  0  0  3  0  0  0  0  0  0
  182.4560  178.5460  144.4280 Cl  0  0  0  0  0  0  0  0  0  0  0  0
  185.7870  178.6560  142.0980 C   0  0  0  0  0  3  0  0  0  0  0  0
  188.7640  178.6840  139.3850 C   0  0  0  0  0  2  0  0  0  0  0  0
  190.2610  176.4010  140.2250 C   0  0  0  0  0  2  0  0  0  0  0  0
  189.7860  177.8620  138.5840 C   0  0  0  0  0  2  0  0  0  0  0  0
  189.2450  176.9970  141.2170 C   0  0  2  0  0  3  0  0  0  0  0  0
  190.8270  177.3970  139.4080 O   0  0  0  0  0  0  0  0  0  0  0  0
  188.9050  178.4570  140.8930 C   0  0  0  0  0  2  0  0  0  0  0  0
  1  2  2  0  0  0  0
  1  9  1  0  0  0  0
  2 12  1  0  0  0  0
  3  5  1  0  0  0  0
  4 11  1  0  0  0  0
  6  7  1  0  0  0  0
  8 11  2  0  0  0  0
  8  2  1  0  0  0  0
  9  3  2  0  0  0  0
 10  6  2  0  0  0  0
 11 10  1  0  0  0  0
 12  6  1  0  0  0  0
 12  5  2  0  0  0  0
 13  1  1  0  0  0  0
 14 17  2  0  0  0  0
 14 16  1  0  0  0  0
 15 13  1  0  0  0  0
 15 18  1  0  0  0  0
 16 15  2  0  0  0  0
 17 19  1  0  0  0  0
 19 13  2  0  0  0  0
 20 25  1  0  0  0  0
 21 23  1  0  0  0  0
 22 20  1  0  0  0  0
 22 24  1  0  0  0  0
 23  4  1  1  0  0  0
 24 21  1  0  0  0  0
 25 23  1  0  0  0  0
M  END
>  <MODEL>
4

>  <REMARK>
 VINA RESULT:      -8.4      3.003      6.915
  Name = 
  2 active torsions:
  status: ('A' for Active; 'I' for Inactive)
    1  A    between atoms: C_1  and  C_5
    2  A    between atoms: N_6  and  C_15
                            x       y       z     vdW  Elec       q    Type
                         _______ _______ _______ _____ _____    ______ ____

>  <TORSDO>
F 2

$$$$
=
 OpenBabel10272400443D

 25 28  0  0  1  0  0  0  0  0999 V2000
  187.3610  178.0330  145.4110 C   0  0  0  0  0  0  0  0  0  0  0  0
  186.6170  178.2790  144.2440 C   0  0  0  0  0  0  0  0  0  0  0  0
  185.3170  178.1660  146.6970 C   0  0  0  0  0  3  0  0  0  0  0  0
  187.1740  178.5630  140.6090 N   0  0  0  0  0  2  0  0  0  0  0  0
  184.6150  178.4190  145.5620 N   0  0  0  0  0  0  0  0  0  0  0  0
  184.4840  178.7250  143.1770 C   0  0  0  0  0  0  0  0  0  0  0  0
  183.0110  178.9490  143.2230 C   0  0  0  0  0  1  0  0  0  0  0  0
  187.2160  178.3100  143.0230 N   0  0  0  0  0  0  0  0  0  0  0  0
  186.6980  177.9660  146.6410 C   0  0  0  0  0  3  0  0  0  0  0  0
  185.1360  178.7560  141.9420 C   0  0  0  0  0  3  0  0  0  0  0  0
  186.5140  178.5420  141.8790 C   0  0  0  0  0  0  0  0  0  0  0  0
  185.2220  178.4780  144.3440 C   0  0  0  0  0  0  0  0  0  0  0  0
  188.8210  177.8220  145.3680 C   0  0  0  0  0  0  0  0  0  0  0  0
  191.6010  177.4740  145.2230 C   0  0  0  0  0  3  0  0  0  0  0  0
  189.5110  177.1850  146.4200 C   0  0  0  0  0  0  0  0  0  0  0  0
  190.8970  177.0150  146.3390 C   0  0  0  0  0  3  0  0  0  0  0  0
  190.9200  178.0980  144.1760 C   0  0  0  0  0  3  0  0  0  0  0  0
  188.6770  176.5380  147.8260 Cl  0  0  0  0  0  0  0  0  0  0  0  0
  189.5340  178.2680  144.2470 C   0  0  0  0  0  3  0  0  0  0  0  0
  190.3970  176.5390  140.5140 C   0  0  0  0  0  2  0  0  0  0  0  0
  188.9840  178.4470  138.9280 C   0  0  0  0  0  2  0  0  0  0  0  0
  190.6150  176.9040  139.0380 C   0  0  0  0  0  2  0  0  0  0  0  0
  188.6020  178.3260  140.4140 C   0  0  2  0  0  3  0  0  0  0  0  0
  189.3990  177.2090  138.4020 O   0  0  0  0  0  0  0  0  0  0  0  0
  189.0180  176.9790  141.0140 C   0  0  0  0  0  2  0  0  0  0  0  0
  1  9  1  0  0  0  0
  2 12  1  0  0  0  0
  2  1  2  0  0  0  0
  4 11  1  0  0  0  0
  5  3  1  0  0  0  0
  6  7  1  0  0  0  0
  6 12  1  0  0  0  0
  8  2  1  0  0  0  0
  9  3  2  0  0  0  0
 10  6  2  0  0  0  0
 11 10  1  0  0  0  0
 11  8  2  0  0  0  0
 12  5  2  0  0  0  0
 13  1  1  0  0  0  0
 13 15  1  0  0  0  0
 14 16  1  0  0  0  0
 15 18  1  0  0  0  0
 16 15  2  0  0  0  0
 17 19  1  0  0  0  0
 17 14  2  0  0  0  0
 19 13  2  0  0  0  0
 20 25  1  0  0  0  0
 21 23  1  0  0  0  0
 22 20  1  0  0  0  0
 23  4  1  6  0  0  0
 23 25  1  0  0  0  0
 24 21  1  0  0  0  0
 24 22  1  0  0  0  0
M  END
>  <MODEL>
5

>  <REMARK>
 VINA RESULT:      -8.4      2.616      5.260
  Name = 
  2 active torsions:
  status: ('A' for Active; 'I' for Inactive)
    1  A    between atoms: C_1  and  C_5
    2  A    between atoms: N_6  and  C_15
                            x       y       z     vdW  Elec       q    Type
                         _______ _______ _______ _____ _____    ______ ____

>  <TORSDO>
F 2

$$$$
=
 OpenBabel10272400443D

 25 28  0  0  1  0  0  0  0  0999 V2000
  188.6670  177.7550  143.7020 C   0  0  0  0  0  0  0  0  0  0  0  0
  187.3280  177.9530  144.0800 C   0  0  0  0  0  0  0  0  0  0  0  0
  189.2950  177.8160  146.0370 C   0  0  0  0  0  3  0  0  0  0  0  0
  184.0090  178.2130  142.4910 N   0  0  0  0  0  2  0  0  0  0  0  0
  187.9980  178.0230  146.3840 N   0  0  0  0  0  0  0  0  0  0  0  0
  185.6720  178.2920  145.8200 C   0  0  0  0  0  0  0  0  0  0  0  0
  185.2790  178.4530  147.2490 C   0  0  0  0  0  1  0  0  0  0  0  0
  186.3350  177.9940  143.1500 N   0  0  0  0  0  0  0  0  0  0  0  0
  189.6510  177.6760  144.6940 C   0  0  0  0  0  3  0  0  0  0  0  0
  184.6810  178.3350  144.8360 C   0  0  0  0  0  3  0  0  0  0  0  0
  185.0310  178.1800  143.4940 C   0  0  0  0  0  0  0  0  0  0  0  0
  187.0100  178.0930  145.4490 C   0  0  0  0  0  0  0  0  0  0  0  0
  189.0590  177.6070  142.2870 C   0  0  0  0  0  0  0  0  0  0  0  0
  189.7700  177.3990  139.5820 C   0  0  0  0  0  3  0  0  0  0  0  0
  189.9670  176.6130  141.8670 C   0  0  0  0  0  0  0  0  0  0  0  0
  190.3160  176.5170  140.5160 C   0  0  0  0  0  3  0  0  0  0  0  0
  188.8650  178.3790  139.9920 C   0  0  0  0  0  3  0  0  0  0  0  0
  190.6480  175.4390  142.9860 Cl  0  0  0  0  0  0  0  0  0  0  0  0
  188.5080  178.4800  141.3400 C   0  0  0  0  0  3  0  0  0  0  0  0
  183.0970  177.9650  138.8030 C   0  0  0  0  0  2  0  0  0  0  0  0
  185.0340  179.2250  140.4810 C   0  0  0  0  0  2  0  0  0  0  0  0
  184.0530  179.1180  138.4610 C   0  0  0  0  0  2  0  0  0  0  0  0
  184.2470  178.0360  141.0610 C   0  0  2  0  0  3  0  0  0  0  0  0
  184.2550  179.9610  139.5690 O   0  0  0  0  0  0  0  0  0  0  0  0
  182.9310  177.7890  140.3150 C   0  0  0  0  0  2  0  0  0  0  0  0
  1  2  2  0  0  0  0
  1  9  1  0  0  0  0
  2 12  1  0  0  0  0
  3  5  1  0  0  0  0
  4 11  1  0  0  0  0
  6  7  1  0  0  0  0
  8 11  2  0  0  0  0
  8  2  1  0  0  0  0
  9  3  2  0  0  0  0
 10  6  2  0  0  0  0
 11 10  1  0  0  0  0
 12  6  1  0  0  0  0
 12  5  2  0  0  0  0
 13  1  1  0  0  0  0
 14 17  2  0  0  0  0
 14 16  1  0  0  0  0
 15 13  1  0  0  0  0
 15 18  1  0  0  0  0
 16 15  2  0  0  0  0
 17 19  1  0  0  0  0
 19 13  2  0  0  0  0
 20 25  1  0  0  0  0
 21 23  1  0  0  0  0
 22 20  1  0  0  0  0
 22 24  1  0  0  0  0
 23  4  1  1  0  0  0
 24 21  1  0  0  0  0
 25 23  1  0  0  0  0
M  END
>  <MODEL>
6

>  <REMARK>
 VINA RESULT:      -8.2      2.501      5.535
  Name = 
  2 active torsions:
  status: ('A' for Active; 'I' for Inactive)
    1  A    between atoms: C_1  and  C_5
    2  A    between atoms: N_6  and  C_15
                            x       y       z     vdW  Elec       q    Type
                         _______ _______ _______ _____ _____    ______ ____

>  <TORSDO>
F 2

$$$$
=
 OpenBabel10272400443D

 25 28  0  0  1  0  0  0  0  0999 V2000
  185.8990  178.4790  142.4610 C   0  0  0  0  0  0  0  0  0  0  0  0
  187.0640  178.1610  141.7400 C   0  0  0  0  0  0  0  0  0  0  0  0
  184.8420  179.1390  140.3880 C   0  0  0  0  0  3  0  0  0  0  0  0
  190.4300  176.7920  142.3750 N   0  0  0  0  0  2  0  0  0  0  0  0
  185.9810  178.8420  139.7090 N   0  0  0  0  0  0  0  0  0  0  0  0
  188.2510  178.0430  139.6280 C   0  0  0  0  0  0  0  0  0  0  0  0
  188.3340  178.2370  138.1520 C   0  0  0  0  0  1  0  0  0  0  0  0
  188.1590  177.6510  142.3660 N   0  0  0  0  0  0  0  0  0  0  0  0
  184.7810  178.9590  141.7720 C   0  0  0  0  0  3  0  0  0  0  0  0
  189.3580  177.5270  140.3060 C   0  0  0  0  0  3  0  0  0  0  0  0
  189.2960  177.3320  141.6870 C   0  0  0  0  0  0  0  0  0  0  0  0
  187.0860  178.3590  140.3420 C   0  0  0  0  0  0  0  0  0  0  0  0
  185.8200  178.2970  143.9230 C   0  0  0  0  0  0  0  0  0  0  0  0
  185.7490  177.9330  146.7040 C   0  0  0  0  0  3  0  0  0  0  0  0
  184.7070  178.7390  144.6680 C   0  0  0  0  0  0  0  0  0  0  0  0
  184.6800  178.5530  146.0540 C   0  0  0  0  0  3  0  0  0  0  0  0
  186.8490  177.4860  145.9690 C   0  0  0  0  0  3  0  0  0  0  0  0
  183.3080  179.4800  143.9030 Cl  0  0  0  0  0  0  0  0  0  0  0  0
  186.8820  177.6640  144.5830 C   0  0  0  0  0  3  0  0  0  0  0  0
  191.9210  175.5370  145.6460 C   0  0  0  0  0  2  0  0  0  0  0  0
  190.5550  177.8260  144.6180 C   0  0  0  0  0  2  0  0  0  0  0  0
  191.7870  176.9330  146.2740 C   0  0  0  0  0  2  0  0  0  0  0  0
  190.4750  176.5180  143.8080 C   0  0  2  0  0  3  0  0  0  0  0  0
  191.7860  177.9390  145.2900 O   0  0  0  0  0  0  0  0  0  0  0  0
  191.6180  175.5550  144.1440 C   0  0  0  0  0  2  0  0  0  0  0  0
  1 13  1  0  0  0  0
  2  8  1  0  0  0  0
  2  1  2  0  0  0  0
  3  9  2  0  0  0  0
  5 12  2  0  0  0  0
  5  3  1  0  0  0  0
  6 10  2  0  0  0  0
  6 12  1  0  0  0  0
  7  6  1  0  0  0  0
  9  1  1  0  0  0  0
 10 11  1  0  0  0  0
 11  8  2  0  0  0  0
 11  4  1  0  0  0  0
 12  2  1  0  0  0  0
 13 19  2  0  0  0  0
 13 15  1  0  0  0  0
 15 16  2  0  0  0  0
 16 14  1  0  0  0  0
 17 14  2  0  0  0  0
 18 15  1  0  0  0  0
 19 17  1  0  0  0  0
 20 22  1  0  0  0  0
 21 24  1  0  0  0  0
 23  4  1  6  0  0  0
 23 25  1  0  0  0  0
 23 21  1  0  0  0  0
 24 22  1  0  0  0  0
 25 20  1  0  0  0  0
M  END
>  <MODEL>
7

>  <REMARK>
 VINA RESULT:      -8.2      2.238      4.720
  Name = 
  2 active torsions:
  status: ('A' for Active; 'I' for Inactive)
    1  A    between atoms: C_1  and  C_5
    2  A    between atoms: N_6  and  C_15
                            x       y       z     vdW  Elec       q    Type
                         _______ _______ _______ _____ _____    ______ ____

>  <TORSDO>
F 2

$$$$
=
 OpenBabel10272400443D

 25 28  0  0  1  0  0  0  0  0999 V2000
  187.1990  177.9120  144.4000 C   0  0  0  0  0  0  0  0  0  0  0  0
  188.4800  177.4380  144.0690 C   0  0  0  0  0  0  0  0  0  0  0  0
  187.8110  177.8180  146.7380 C   0  0  0  0  0  3  0  0  0  0  0  0
  190.4500  176.6550  141.0500 N   0  0  0  0  0  2  0  0  0  0  0  0
  189.0390  177.3450  146.4010 N   0  0  0  0  0  0  0  0  0  0  0  0
  190.6750  176.6750  144.7660 C   0  0  0  0  0  0  0  0  0  0  0  0
  191.6830  176.3490  145.8150 C   0  0  0  0  0  1  0  0  0  0  0  0
  188.8520  177.2700  142.7700 N   0  0  0  0  0  0  0  0  0  0  0  0
  186.8730  178.1130  145.7460 C   0  0  0  0  0  3  0  0  0  0  0  0
  191.0180  176.5090  143.4220 C   0  0  0  0  0  3  0  0  0  0  0  0
  190.0890  176.8160  142.4260 C   0  0  0  0  0  0  0  0  0  0  0  0
  189.3980  177.1500  145.1020 C   0  0  0  0  0  0  0  0  0  0  0  0
  186.1970  178.2250  143.3630 C   0  0  0  0  0  0  0  0  0  0  0  0
  184.3460  178.7990  141.3340 C   0  0  0  0  0  3  0  0  0  0  0  0
  184.8330  178.4060  143.6770 C   0  0  0  0  0  0  0  0  0  0  0  0
  183.9180  178.6930  142.6590 C   0  0  0  0  0  3  0  0  0  0  0  0
  185.6960  178.6280  141.0200 C   0  0  0  0  0  3  0  0  0  0  0  0
  184.2400  178.3380  145.3310 Cl  0  0  0  0  0  0  0  0  0  0  0  0
  186.6180  178.3460  142.0320 C   0  0  0  0  0  3  0  0  0  0  0  0
  188.9020  178.8200  138.3280 C   0  0  0  0  0  2  0  0  0  0  0  0
  190.0170  176.2120  138.6560 C   0  0  0  0  0  2  0  0  0  0  0  0
  189.3610  177.8330  137.2440 C   0  0  0  0  0  2  0  0  0  0  0  0
  189.5770  176.9680  139.9230 C   0  0  2  0  0  3  0  0  0  0  0  0
  190.4820  177.0960  137.6650 O   0  0  0  0  0  0  0  0  0  0  0  0
  189.4980  178.4820  139.6980 C   0  0  0  0  0  2  0  0  0  0  0  0
  1  9  1  0  0  0  0
  2  1  2  0  0  0  0
  2 12  1  0  0  0  0
  4 11  1  0  0  0  0
  5  3  1  0  0  0  0
  6 12  1  0  0  0  0
  6  7  1  0  0  0  0
  8  2  1  0  0  0  0
  9  3  2  0  0  0  0
 10  6  2  0  0  0  0
 11  8  2  0  0  0  0
 11 10  1  0  0  0  0
 12  5  2  0  0  0  0
 13 15  1  0  0  0  0
 13  1  1  0  0  0  0
 14 16  1  0  0  0  0
 15 18  1  0  0  0  0
 16 15  2  0  0  0  0
 17 14  2  0  0  0  0
 17 19  1  0  0  0  0
 19 13  2  0  0  0  0
 20 25  1  0  0  0  0
 21 23  1  0  0  0  0
 22 24  1  0  0  0  0
 22 20  1  0  0  0  0
 23  4  1  1  0  0  0
 24 21  1  0  0  0  0
 25 23  1  0  0  0  0
M  END
>  <MODEL>
8

>  <REMARK>
 VINA RESULT:      -8.1      3.015      6.986
  Name = 
  2 active torsions:
  status: ('A' for Active; 'I' for Inactive)
    1  A    between atoms: C_1  and  C_5
    2  A    between atoms: N_6  and  C_15
                            x       y       z     vdW  Elec       q    Type
                         _______ _______ _______ _____ _____    ______ ____

>  <TORSDO>
F 2

$$$$
=
 OpenBabel10272400443D

 25 28  0  0  1  0  0  0  0  0999 V2000
  187.9410  177.8200  142.6120 C   0  0  0  0  0  0  0  0  0  0  0  0
  186.9600  178.0780  143.5860 C   0  0  0  0  0  0  0  0  0  0  0  0
  186.4500  178.7160  140.9310 C   0  0  0  0  0  3  0  0  0  0  0  0
  186.5290  177.7610  147.2360 N   0  0  0  0  0  2  0  0  0  0  0  0
  185.5080  178.9440  141.8830 N   0  0  0  0  0  0  0  0  0  0  0  0
  184.7530  178.8980  144.1680 C   0  0  0  0  0  0  0  0  0  0  0  0
  183.4320  179.4890  143.8110 C   0  0  0  0  0  1  0  0  0  0  0  0
  187.1880  177.8070  144.9000 N   0  0  0  0  0  0  0  0  0  0  0  0
  187.6810  178.1550  141.2780 C   0  0  0  0  0  3  0  0  0  0  0  0
  185.0210  178.6000  145.5070 C   0  0  0  0  0  3  0  0  0  0  0  0
  186.2560  178.0530  145.8610 C   0  0  0  0  0  0  0  0  0  0  0  0
  185.7280  178.6440  143.1930 C   0  0  0  0  0  0  0  0  0  0  0  0
  189.2440  177.2250  142.9640 C   0  0  0  0  0  0  0  0  0  0  0  0
  191.6970  176.0230  143.6030 C   0  0  0  0  0  3  0  0  0  0  0  0
  190.3540  178.0210  143.3170 C   0  0  0  0  0  0  0  0  0  0  0  0
  191.5720  177.4130  143.6350 C   0  0  0  0  0  3  0  0  0  0  0  0
  190.5990  175.2310  143.2620 C   0  0  0  0  0  3  0  0  0  0  0  0
  190.2470  179.7730  143.4270 Cl  0  0  0  0  0  0  0  0  0  0  0  0
  189.3760  175.8300  142.9480 C   0  0  0  0  0  3  0  0  0  0  0  0
  190.2100  176.7960  147.1010 C   0  0  0  0  0  2  0  0  0  0  0  0
  188.3670  178.0910  148.8570 C   0  0  0  0  0  2  0  0  0  0  0  0
  190.5110  177.6680  148.3310 C   0  0  0  0  0  2  0  0  0  0  0  0
  187.7890  177.2150  147.7310 C   0  0  2  0  0  3  0  0  0  0  0  0
  189.5710  178.7050  148.4650 O   0  0  0  0  0  0  0  0  0  0  0  0
  188.7850  177.0120  146.5830 C   0  0  0  0  0  2  0  0  0  0  0  0
  1 13  1  0  0  0  0
  1  2  1  0  0  0  0
  2  8  1  0  0  0  0
  3  9  1  0  0  0  0
  3  5  2  0  0  0  0
  5 12  1  0  0  0  0
  6 10  2  0  0  0  0
  7  6  1  0  0  0  0
  8 11  2  0  0  0  0
  9  1  2  0  0  0  0
 10 11  1  0  0  0  0
 11  4  1  0  0  0  0
 12  2  2  0  0  0  0
 12  6  1  0  0  0  0
 13 15  1  0  0  0  0
 14 16  1  0  0  0  0
 15 18  1  0  0  0  0
 15 16  2  0  0  0  0
 17 14  2  0  0  0  0
 19 13  2  0  0  0  0
 19 17  1  0  0  0  0
 20 22  1  0  0  0  0
 22 24  1  0  0  0  0
 23  4  1  6  0  0  0
 23 21  1  0  0  0  0
 24 21  1  0  0  0  0
 25 20  1  0  0  0  0
 25 23  1  0  0  0  0
M  END
>  <MODEL>
9

>  <REMARK>
 VINA RESULT:      -8.0      1.479      2.274
  Name = 
  2 active torsions:
  status: ('A' for Active; 'I' for Inactive)
    1  A    between atoms: C_1  and  C_5
    2  A    between atoms: N_6  and  C_15
                            x       y       z     vdW  Elec       q    Type
                         _______ _______ _______ _____ _____    ______ ____

>  <TORSDO>
F 2

$$$$
