=
 OpenBabel10272414403D

 43 48  0  0  1  0  0  0  0  0999 V2000
  194.7750  175.2050  136.5130 O   0  0  0  0  0  0  0  0  0  0  0  0
  190.6360  176.8010  138.7040 C   0  0  2  0  0  3  0  0  0  0  0  0
  189.3410  175.8110  136.8180 C   0  0  0  0  0  2  0  0  0  0  0  0
  192.8340  176.5250  137.0970 C   0  0  2  0  0  3  0  0  0  0  0  0
  193.2460  173.3550  136.2520 C   0  0  0  0  0  2  0  0  0  0  0  0
  194.2670  174.2830  135.5920 C   0  0  0  0  0  2  0  0  0  0  0  0
  191.8210  175.3700  136.9170 C   0  0  1  0  0  3  0  0  0  0  0  0
  194.0880  176.3920  136.2330 C   0  0  0  0  0  2  0  0  0  0  0  0
  192.4150  174.0280  137.3490 C   0  0  0  0  0  2  0  0  0  0  0  0
  188.0790  176.1460  137.5790 C   0  0  0  0  0  0  0  0  0  0  0  0
  190.5420  175.6140  137.7340 C   0  0  1  0  0  3  0  0  0  0  0  0
  191.9430  176.7180  139.4930 C   0  0  0  0  0  2  0  0  0  0  0  0
  189.4110  176.7860  139.6170 C   0  0  2  0  0  3  0  0  0  0  0  0
  188.1340  176.6620  138.8190 C   0  0  0  0  0  3  0  0  0  0  0  0
  193.1700  176.8010  138.5710 C   0  0  0  0  0  2  0  0  0  0  0  0
  186.7790  176.0810  136.8790 C   0  0  0  0  0  0  0  0  0  0  0  0
  185.6800  176.9160  137.2620 N   0  0  0  0  0  2  0  0  0  0  0  0
  186.6070  175.2400  135.9550 O   0  0  0  0  0  0  0  0  0  0  0  0
  185.8170  178.2680  137.7100 C   0  0  0  0  0  0  0  0  0  0  0  0
  186.8480  178.9350  137.4300 O   0  0  0  0  0  0  0  0  0  0  0  0
  184.7320  178.8910  138.5180 C   0  0  0  0  0  2  0  0  0  0  0  0
  183.5030  178.1180  138.3780 N   0  0  0  0  0  2  0  0  0  0  0  0
  183.1140  177.2080  140.6230 C   0  0  0  0  0  3  0  0  0  0  0  0
  183.0150  177.1220  139.2920 C   0  0  0  0  0  0  0  0  0  0  0  0
  182.3230  175.9330  138.7280 C   0  0  0  0  0  1  0  0  0  0  0  0
  183.7130  178.3550  141.3640 C   0  0  0  0  0  2  0  0  0  0  0  0
  185.4610  178.6570  143.1760 C   0  0  2  0  0  0  0  0  0  0  0  0
  185.9840  179.2280  141.8780 C   0  0  0  0  0  2  0  0  0  0  0  0
  185.1030  177.9840  141.8560 C   0  0  2  0  0  3  0  0  0  0  0  0
  186.0130  177.6660  145.4020 C   0  0  0  0  0  3  0  0  0  0  0  0
  184.2600  179.3770  145.1820 C   0  0  0  0  0  3  0  0  0  0  0  0
  184.9900  178.3420  145.9420 C   0  0  0  0  0  3  0  0  0  0  0  0
  184.4790  179.5530  143.8780 C   0  0  0  0  0  3  0  0  0  0  0  0
  186.5320  177.9720  144.0200 C   0  0  0  0  0  2  0  0  0  0  0  0
  189.3640  178.0450  140.4760 C   0  0  0  0  0  2  0  0  0  0  0  0
  189.6540  176.1100  143.7210 C   0  0  0  0  0  3  0  0  0  0  0  0
  190.0720  177.1070  144.6100 C   0  0  0  0  0  0  0  0  0  0  0  0
  190.0210  178.7240  142.7960 C   0  0  0  0  0  3  0  0  0  0  0  0
  189.4190  176.4170  142.3770 C   0  0  0  0  0  3  0  0  0  0  0  0
  189.5990  177.7240  141.9140 C   0  0  0  0  0  0  0  0  0  0  0  0
  190.2560  178.4190  144.1390 C   0  0  0  0  0  3  0  0  0  0  0  0
  189.4160  177.1460  146.9940 C   0  0  0  0  0  1  0  0  0  0  0  0
  190.2990  176.7690  145.9470 O   0  0  0  0  0  0  0  0  0  0  0  0
  2 12  1  1  0  0  0
  2 13  1  0  0  0  0
  3 10  1  0  0  0  0
  4  8  1  6  0  0  0
  4 15  1  0  0  0  0
  5  9  1  0  0  0  0
  6  5  1  0  0  0  0
  6  1  1  0  0  0  0
  7  4  1  0  0  0  0
  7  9  1  1  0  0  0
  7 11  1  0  0  0  0
  8  1  1  0  0  0  0
 10 14  2  0  0  0  0
 11  3  1  6  0  0  0
 11  2  1  0  0  0  0
 13 35  1  6  0  0  0
 14 13  1  0  0  0  0
 15 12  1  0  0  0  0
 16 17  1  0  0  0  0
 16 10  1  0  0  0  0
 17 19  1  0  0  0  0
 18 16  2  0  0  0  0
 19 21  1  0  0  0  0
 20 19  2  0  0  0  0
 22 21  1  0  0  0  0
 22 24  1  0  0  0  0
 23 26  1  0  0  0  0
 24 23  2  0  0  0  0
 25 24  1  0  0  0  0
 27 28  1  6  0  0  0
 27 33  1  0  0  0  0
 27 34  1  0  0  0  0
 29 26  1  6  0  0  0
 29 28  1  0  0  0  0
 29 27  1  0  0  0  0
 30 32  2  0  0  0  0
 31 32  1  0  0  0  0
 33 31  2  0  0  0  0
 34 30  1  0  0  0  0
 35 40  1  0  0  0  0
 36 37  1  0  0  0  0
 37 43  1  0  0  0  0
 38 41  1  0  0  0  0
 39 36  2  0  0  0  0
 40 39  1  0  0  0  0
 40 38  2  0  0  0  0
 41 37  2  0  0  0  0
 43 42  1  0  0  0  0
M  END
>  <MODEL>
1

>  <REMARK>
 VINA RESULT:      -8.4      0.000      0.000
  Name = 
  9 active torsions:
  status: ('A' for Active; 'I' for Inactive)
    1  A    between atoms: C_1  and  C_34
    2  A    between atoms: C_1  and  C_35
    3  A    between atoms: C_2  and  C_27
    4  A    between atoms: C_3  and  N_4
    5  A    between atoms: C_3  and  C_12
    6  A    between atoms: N_4  and  C_15
    7  A    between atoms: C_10  and  C_41
    8  A    between atoms: C_19  and  O_37
    9  A    between atoms: C_22  and  C_41
                            x       y       z     vdW  Elec       q    Type
                         _______ _______ _______ _____ _____    ______ ____

>  <TORSDO>
F 9

$$$$
=
 OpenBabel10272414403D

 43 48  0  0  1  0  0  0  0  0999 V2000
  190.6670  176.8250  145.5000 O   0  0  0  0  0  0  0  0  0  0  0  0
  187.5740  178.2460  141.9090 C   0  0  2  0  0  3  0  0  0  0  0  0
  189.4520  177.9900  140.2890 C   0  0  0  0  0  2  0  0  0  0  0  0
  189.4900  178.1590  143.8610 C   0  0  2  0  0  3  0  0  0  0  0  0
  191.1830  175.3250  143.6800 C   0  0  0  0  0  2  0  0  0  0  0  0
  191.7150  176.2660  144.7620 C   0  0  0  0  0  2  0  0  0  0  0  0
  189.8210  177.2350  142.6650 C   0  0  1  0  0  3  0  0  0  0  0  0
  190.5270  178.1180  144.9840 C   0  0  0  0  0  2  0  0  0  0  0  0
  189.8430  175.7630  143.0820 C   0  0  0  0  0  2  0  0  0  0  0  0
  188.4590  178.2530  139.1800 C   0  0  0  0  0  0  0  0  0  0  0  0
  188.7970  177.3980  141.5300 C   0  0  1  0  0  3  0  0  0  0  0  0
  187.0260  177.7850  143.2600 C   0  0  0  0  0  2  0  0  0  0  0  0
  186.5330  178.1290  140.7960 C   0  0  2  0  0  3  0  0  0  0  0  0
  187.1480  178.3920  139.4420 C   0  0  0  0  0  3  0  0  0  0  0  0
  188.0580  177.9690  144.3850 C   0  0  0  0  0  2  0  0  0  0  0  0
  188.9620  178.5470  137.8210 C   0  0  0  0  0  0  0  0  0  0  0  0
  189.5420  177.5250  137.0010 N   0  0  0  0  0  2  0  0  0  0  0  0
  188.9290  179.7290  137.3840 O   0  0  0  0  0  0  0  0  0  0  0  0
  189.0890  176.1690  136.9670 C   0  0  0  0  0  0  0  0  0  0  0  0
  187.9250  175.8720  137.3470 O   0  0  0  0  0  0  0  0  0  0  0  0
  190.0030  175.0970  136.4820 C   0  0  0  0  0  2  0  0  0  0  0  0
  189.4560  173.7890  136.8250 N   0  0  0  0  0  2  0  0  0  0  0  0
  187.8060  172.2320  135.8880 C   0  0  0  0  0  3  0  0  0  0  0  0
  189.0280  172.7750  135.8990 C   0  0  0  0  0  0  0  0  0  0  0  0
  189.9930  172.3220  134.8620 C   0  0  0  0  0  1  0  0  0  0  0  0
  186.6930  172.6120  136.8050 C   0  0  0  0  0  2  0  0  0  0  0  0
  184.3760  173.5920  136.4850 C   0  0  2  0  0  0  0  0  0  0  0  0
  184.2540  172.2080  137.0780 C   0  0  0  0  0  2  0  0  0  0  0  0
  185.3630  172.5050  136.0750 C   0  0  2  0  0  3  0  0  0  0  0  0
  183.2980  175.3930  135.1300 C   0  0  0  0  0  3  0  0  0  0  0  0
  184.5090  175.9270  137.2030 C   0  0  0  0  0  3  0  0  0  0  0  0
  183.8350  176.3100  135.9460 C   0  0  0  0  0  3  0  0  0  0  0  0
  184.7600  174.6470  137.4840 C   0  0  0  0  0  3  0  0  0  0  0  0
  183.2790  173.9270  135.4790 C   0  0  0  0  0  2  0  0  0  0  0  0
  185.3780  179.0950  141.0360 C   0  0  0  0  0  2  0  0  0  0  0  0
  182.6260  179.0340  138.4330 C   0  0  0  0  0  3  0  0  0  0  0  0
  181.9050  177.8930  138.8070 C   0  0  0  0  0  0  0  0  0  0  0  0
  183.4520  177.5400  140.6470 C   0  0  0  0  0  3  0  0  0  0  0  0
  183.7530  179.4270  139.1610 C   0  0  0  0  0  3  0  0  0  0  0  0
  184.1650  178.6830  140.2710 C   0  0  0  0  0  0  0  0  0  0  0  0
  182.3260  177.1460  139.9200 C   0  0  0  0  0  3  0  0  0  0  0  0
  180.5650  176.2000  137.6020 C   0  0  0  0  0  1  0  0  0  0  0  0
  180.7830  177.5270  138.0590 O   0  0  0  0  0  0  0  0  0  0  0  0
  2 12  1  1  0  0  0
  4 15  1  1  0  0  0
  4  8  1  0  0  0  0
  5  6  1  0  0  0  0
  6  1  1  0  0  0  0
  7  9  1  1  0  0  0
  7  4  1  0  0  0  0
  8  1  1  0  0  0  0
  9  5  1  0  0  0  0
 10 14  2  0  0  0  0
 10  3  1  0  0  0  0
 11  3  1  6  0  0  0
 11  2  1  0  0  0  0
 11  7  1  0  0  0  0
 12 15  1  0  0  0  0
 13 35  1  1  0  0  0
 13  2  1  0  0  0  0
 14 13  1  0  0  0  0
 16 10  1  0  0  0  0
 17 16  1  0  0  0  0
 18 16  2  0  0  0  0
 19 17  1  0  0  0  0
 19 20  2  0  0  0  0
 21 22  1  0  0  0  0
 21 19  1  0  0  0  0
 23 24  2  0  0  0  0
 23 26  1  0  0  0  0
 24 22  1  0  0  0  0
 25 24  1  0  0  0  0
 27 34  1  6  0  0  0
 27 28  1  0  0  0  0
 27 33  1  0  0  0  0
 29 27  1  0  0  0  0
 29 26  1  1  0  0  0
 29 28  1  0  0  0  0
 30 34  1  0  0  0  0
 30 32  2  0  0  0  0
 31 33  2  0  0  0  0
 32 31  1  0  0  0  0
 36 37  2  0  0  0  0
 36 39  1  0  0  0  0
 37 41  1  0  0  0  0
 39 40  2  0  0  0  0
 40 38  1  0  0  0  0
 40 35  1  0  0  0  0
 41 38  2  0  0  0  0
 42 43  1  0  0  0  0
 43 37  1  0  0  0  0
M  END
>  <MODEL>
2

>  <REMARK>
 VINA RESULT:      -8.4      2.645      7.717
  Name = 
  9 active torsions:
  status: ('A' for Active; 'I' for Inactive)
    1  A    between atoms: C_1  and  C_34
    2  A    between atoms: C_1  and  C_35
    3  A    between atoms: C_2  and  C_27
    4  A    between atoms: C_3  and  N_4
    5  A    between atoms: C_3  and  C_12
    6  A    between atoms: N_4  and  C_15
    7  A    between atoms: C_10  and  C_41
    8  A    between atoms: C_19  and  O_37
    9  A    between atoms: C_22  and  C_41
                            x       y       z     vdW  Elec       q    Type
                         _______ _______ _______ _____ _____    ______ ____

>  <TORSDO>
F 9

$$$$
=
 OpenBabel10272414403D

 43 48  0  0  1  0  0  0  0  0999 V2000
  181.3510  178.8430  142.6900 O   0  0  0  0  0  0  0  0  0  0  0  0
  182.9560  176.8190  138.4700 C   0  0  2  0  0  3  0  0  0  0  0  0
  184.8780  178.4060  138.5240 C   0  0  0  0  0  2  0  0  0  0  0  0
  181.8030  178.4420  140.3470 C   0  0  2  0  0  3  0  0  0  0  0  0
  183.7360  178.6550  143.0210 C   0  0  0  0  0  2  0  0  0  0  0  0
  182.4880  179.5350  143.1190 C   0  0  0  0  0  2  0  0  0  0  0  0
  183.3370  178.3390  140.5160 C   0  0  1  0  0  3  0  0  0  0  0  0
  181.1190  179.3210  141.3950 C   0  0  0  0  0  2  0  0  0  0  0  0
  183.7130  177.6760  141.8430 C   0  0  0  0  0  2  0  0  0  0  0  0
  185.4510  177.6670  137.3360 C   0  0  0  0  0  0  0  0  0  0  0  0
  183.9730  177.5270  139.3770 C   0  0  1  0  0  3  0  0  0  0  0  0
  181.9190  176.0930  139.3270 C   0  0  0  0  0  2  0  0  0  0  0  0
  183.7070  175.8640  137.5430 C   0  0  2  0  0  3  0  0  0  0  0  0
  184.8590  176.5590  136.8570 C   0  0  0  0  0  3  0  0  0  0  0  0
  181.1230  177.0700  140.2070 C   0  0  0  0  0  2  0  0  0  0  0  0
  186.5660  178.2770  136.5800 C   0  0  0  0  0  0  0  0  0  0  0  0
  187.7900  178.6510  137.2240 N   0  0  0  0  0  2  0  0  0  0  0  0
  186.4280  178.5240  135.3520 O   0  0  0  0  0  0  0  0  0  0  0  0
  188.3960  177.9110  138.2880 C   0  0  0  0  0  0  0  0  0  0  0  0
  188.1150  176.6960  138.4650 O   0  0  0  0  0  0  0  0  0  0  0  0
  189.3650  178.5850  139.1980 C   0  0  0  0  0  2  0  0  0  0  0  0
  189.4900  177.8250  140.4370 N   0  0  0  0  0  0  0  0  0  0  0  0
  190.7480  176.4920  142.0670 C   0  0  0  0  0  2  0  0  0  0  0  0
  190.6640  177.1350  140.8980 C   0  0  0  0  0  0  0  0  0  0  0  0
  191.8530  177.1020  140.0060 C   0  0  0  0  0  1  0  0  0  0  0  0
  189.6380  176.3610  143.0550 C   0  0  0  0  0  2  0  0  0  0  0  0
  189.0460  177.7300  145.1060 C   0  0  2  0  0  0  0  0  0  0  0  0
  190.2000  178.3870  144.3850 C   0  0  0  0  0  2  0  0  0  0  0  0
  190.0940  176.8660  144.4150 C   0  0  2  0  0  3  0  0  0  0  0  0
  187.8440  177.3980  147.2700 C   0  0  0  0  0  3  0  0  0  0  0  0
  186.6020  177.8230  145.1900 C   0  0  0  0  0  3  0  0  0  0  0  0
  186.6770  177.4340  146.6140 C   0  0  0  0  0  3  0  0  0  0  0  0
  187.7100  177.9840  144.4650 C   0  0  0  0  0  3  0  0  0  0  0  0
  189.1370  177.8250  146.6260 C   0  0  0  0  0  2  0  0  0  0  0  0
  182.7650  175.2730  136.5010 C   0  0  0  0  0  2  0  0  0  0  0  0
  182.1820  171.6550  135.5410 C   0  0  0  0  0  3  0  0  0  0  0  0
  183.2130  171.0070  136.2330 C   0  0  0  0  0  0  0  0  0  0  0  0
  183.9490  173.1510  137.1090 C   0  0  0  0  0  3  0  0  0  0  0  0
  182.0330  173.0420  135.6320 C   0  0  0  0  0  3  0  0  0  0  0  0
  182.9150  173.7910  136.4180 C   0  0  0  0  0  0  0  0  0  0  0  0
  184.0980  171.7650  137.0180 C   0  0  0  0  0  3  0  0  0  0  0  0
  183.0750  168.9210  134.9120 C   0  0  0  0  0  1  0  0  0  0  0  0
  183.3350  169.6200  136.1210 O   0  0  0  0  0  0  0  0  0  0  0  0
  1  6  1  0  0  0  0
  2 12  1  1  0  0  0
  2 11  1  0  0  0  0
  4 15  1  1  0  0  0
  4  7  1  0  0  0  0
  4  8  1  0  0  0  0
  5  6  1  0  0  0  0
  7  9  1  1  0  0  0
  8  1  1  0  0  0  0
  9  5  1  0  0  0  0
 10  3  1  0  0  0  0
 11  3  1  6  0  0  0
 11  7  1  0  0  0  0
 12 15  1  0  0  0  0
 13 35  1  6  0  0  0
 13  2  1  0  0  0  0
 14 10  2  0  0  0  0
 14 13  1  0  0  0  0
 16 17  1  0  0  0  0
 16 10  1  0  0  0  0
 17 19  1  0  0  0  0
 18 16  2  0  0  0  0
 19 20  2  0  0  0  0
 19 21  1  0  0  0  0
 21 22  1  0  0  0  0
 22 24  2  0  0  0  0
 23 26  1  0  0  0  0
 24 23  1  0  0  0  0
 25 24  1  0  0  0  0
 27 28  1  6  0  0  0
 27 34  1  0  0  0  0
 28 29  1  0  0  0  0
 29 26  1  6  0  0  0
 29 27  1  0  0  0  0
 31 32  1  0  0  0  0
 32 30  2  0  0  0  0
 33 27  1  0  0  0  0
 33 31  2  0  0  0  0
 34 30  1  0  0  0  0
 36 39  2  0  0  0  0
 36 37  1  0  0  0  0
 37 41  2  0  0  0  0
 39 40  1  0  0  0  0
 40 35  1  0  0  0  0
 40 38  2  0  0  0  0
 41 38  1  0  0  0  0
 42 43  1  0  0  0  0
 43 37  1  0  0  0  0
M  END
>  <MODEL>
3

>  <REMARK>
 VINA RESULT:      -8.1      3.026      8.810
  Name = 
  9 active torsions:
  status: ('A' for Active; 'I' for Inactive)
    1  A    between atoms: C_1  and  C_34
    2  A    between atoms: C_1  and  C_35
    3  A    between atoms: C_2  and  C_27
    4  A    between atoms: C_3  and  N_4
    5  A    between atoms: C_3  and  C_12
    6  A    between atoms: N_4  and  C_15
    7  A    between atoms: C_10  and  C_41
    8  A    between atoms: C_19  and  O_37
    9  A    between atoms: C_22  and  C_41
                            x       y       z     vdW  Elec       q    Type
                         _______ _______ _______ _____ _____    ______ ____

>  <TORSDO>
F 9

$$$$
=
 OpenBabel10272414403D

 43 48  0  0  1  0  0  0  0  0999 V2000
  193.9480  173.1260  135.9920 O   0  0  0  0  0  0  0  0  0  0  0  0
  190.2010  176.3230  136.4570 C   0  0  2  0  0  3  0  0  0  0  0  0
  190.5120  176.2160  138.9280 C   0  0  0  0  0  2  0  0  0  0  0  0
  191.7500  174.0690  136.3510 C   0  0  2  0  0  3  0  0  0  0  0  0
  194.7110  174.6490  137.7030 C   0  0  0  0  0  2  0  0  0  0  0  0
  194.5360  173.1960  137.2590 C   0  0  0  0  0  2  0  0  0  0  0  0
  192.1970  175.0420  137.4680 C   0  0  1  0  0  3  0  0  0  0  0  0
  192.6090  172.8090  136.2450 C   0  0  0  0  0  2  0  0  0  0  0  0
  193.6040  175.5850  137.2110 C   0  0  0  0  0  2  0  0  0  0  0  0
  189.4880  177.3220  139.0500 C   0  0  0  0  0  0  0  0  0  0  0  0
  191.2360  176.2360  137.5890 C   0  0  1  0  0  3  0  0  0  0  0  0
  190.8970  176.1430  135.1080 C   0  0  0  0  0  2  0  0  0  0  0  0
  189.4780  177.6650  136.5570 C   0  0  2  0  0  3  0  0  0  0  0  0
  188.9720  177.9120  137.9580 C   0  0  0  0  0  3  0  0  0  0  0  0
  191.5650  174.7630  134.9930 C   0  0  0  0  0  2  0  0  0  0  0  0
  188.9120  177.6240  140.3780 C   0  0  0  0  0  0  0  0  0  0  0  0
  189.5450  177.1840  141.5860 N   0  0  0  0  0  2  0  0  0  0  0  0
  187.8150  178.2400  140.4590 O   0  0  0  0  0  0  0  0  0  0  0  0
  190.9620  177.1280  141.7760 C   0  0  0  0  0  0  0  0  0  0  0  0
  191.7330  177.8180  141.0580 O   0  0  0  0  0  0  0  0  0  0  0  0
  191.5310  176.2420  142.8300 C   0  0  0  0  0  2  0  0  0  0  0  0
  191.1490  176.7340  144.1480 N   0  0  0  0  0  2  0  0  0  0  0  0
  189.9370  178.6490  145.0900 C   0  0  0  0  0  3  0  0  0  0  0  0
  191.0330  178.1120  144.5430 C   0  0  0  0  0  0  0  0  0  0  0  0
  192.2170  178.9940  144.3650 C   0  0  0  0  0  1  0  0  0  0  0  0
  188.6850  177.9030  145.4050 C   0  0  0  0  0  2  0  0  0  0  0  0
  186.3300  177.6340  144.5030 C   0  0  2  0  0  0  0  0  0  0  0  0
  187.1620  176.4440  144.0860 C   0  0  0  0  0  2  0  0  0  0  0  0
  187.8050  177.8240  144.1670 C   0  0  2  0  0  3  0  0  0  0  0  0
  184.3580  179.0870  144.0110 C   0  0  0  0  0  3  0  0  0  0  0  0
  184.8190  178.3190  146.3020 C   0  0  0  0  0  3  0  0  0  0  0  0
  184.1030  179.1640  145.3240 C   0  0  0  0  0  3  0  0  0  0  0  0
  185.8640  177.5770  145.9310 C   0  0  0  0  0  3  0  0  0  0  0  0
  185.3280  178.0840  143.4430 C   0  0  0  0  0  2  0  0  0  0  0  0
  188.3170  177.7250  135.5700 C   0  0  0  0  0  2  0  0  0  0  0  0
  184.9010  176.9580  137.0170 C   0  0  0  0  0  3  0  0  0  0  0  0
  184.8990  175.5580  137.0150 C   0  0  0  0  0  0  0  0  0  0  0  0
  187.1390  175.5720  136.0740 C   0  0  0  0  0  3  0  0  0  0  0  0
  186.0150  177.6630  136.5520 C   0  0  0  0  0  3  0  0  0  0  0  0
  187.1360  176.9710  136.0820 C   0  0  0  0  0  0  0  0  0  0  0  0
  186.0260  174.8670  136.5390 C   0  0  0  0  0  3  0  0  0  0  0  0
  182.8930  175.4380  138.4570 C   0  0  0  0  0  1  0  0  0  0  0  0
  183.7700  174.8830  137.4870 O   0  0  0  0  0  0  0  0  0  0  0  0
  1  8  1  0  0  0  0
  1  6  1  0  0  0  0
  2 12  1  6  0  0  0
  2 13  1  0  0  0  0
  2 11  1  0  0  0  0
  3 10  1  0  0  0  0
  4 15  1  6  0  0  0
  4  7  1  0  0  0  0
  6  5  1  0  0  0  0
  7  9  1  6  0  0  0
  7 11  1  0  0  0  0
  8  4  1  0  0  0  0
  9  5  1  0  0  0  0
 10 16  1  0  0  0  0
 11  3  1  1  0  0  0
 13 35  1  6  0  0  0
 13 14  1  0  0  0  0
 14 10  2  0  0  0  0
 15 12  1  0  0  0  0
 16 18  2  0  0  0  0
 16 17  1  0  0  0  0
 17 19  1  0  0  0  0
 19 21  1  0  0  0  0
 20 19  2  0  0  0  0
 21 22  1  0  0  0  0
 22 24  1  0  0  0  0
 23 26  1  0  0  0  0
 24 23  2  0  0  0  0
 25 24  1  0  0  0  0
 27 34  1  6  0  0  0
 27 33  1  0  0  0  0
 28 29  1  0  0  0  0
 28 27  1  0  0  0  0
 29 27  1  0  0  0  0
 29 26  1  1  0  0  0
 30 32  2  0  0  0  0
 32 31  1  0  0  0  0
 33 31  2  0  0  0  0
 34 30  1  0  0  0  0
 35 40  1  0  0  0  0
 37 36  1  0  0  0  0
 37 43  1  0  0  0  0
 38 40  2  0  0  0  0
 38 41  1  0  0  0  0
 39 36  2  0  0  0  0
 40 39  1  0  0  0  0
 41 37  2  0  0  0  0
 43 42  1  0  0  0  0
M  END
>  <MODEL>
4

>  <REMARK>
 VINA RESULT:      -8.1      2.349      5.899
  Name = 
  9 active torsions:
  status: ('A' for Active; 'I' for Inactive)
    1  A    between atoms: C_1  and  C_34
    2  A    between atoms: C_1  and  C_35
    3  A    between atoms: C_2  and  C_27
    4  A    between atoms: C_3  and  N_4
    5  A    between atoms: C_3  and  C_12
    6  A    between atoms: N_4  and  C_15
    7  A    between atoms: C_10  and  C_41
    8  A    between atoms: C_19  and  O_37
    9  A    between atoms: C_22  and  C_41
                            x       y       z     vdW  Elec       q    Type
                         _______ _______ _______ _____ _____    ______ ____

>  <TORSDO>
F 9

$$$$
=
 OpenBabel10272414403D

 43 48  0  0  1  0  0  0  0  0999 V2000
  190.6070  176.8680  145.5390 O   0  0  0  0  0  0  0  0  0  0  0  0
  187.5650  178.2920  141.9070 C   0  0  2  0  0  3  0  0  0  0  0  0
  189.4520  177.9910  140.3060 C   0  0  0  0  0  2  0  0  0  0  0  0
  189.4630  178.2000  143.8750 C   0  0  2  0  0  3  0  0  0  0  0  0
  191.1180  175.3410  143.7400 C   0  0  0  0  0  2  0  0  0  0  0  0
  191.6540  176.2860  144.8170 C   0  0  0  0  0  2  0  0  0  0  0  0
  189.7910  177.2580  142.6930 C   0  0  1  0  0  3  0  0  0  0  0  0
  190.4900  178.1570  145.0080 C   0  0  0  0  0  2  0  0  0  0  0  0
  189.7890  175.7910  143.1260 C   0  0  0  0  0  2  0  0  0  0  0  0
  188.4730  178.2560  139.1850 C   0  0  0  0  0  0  0  0  0  0  0  0
  188.7790  177.4230  141.5480 C   0  0  1  0  0  3  0  0  0  0  0  0
  187.0000  177.8540  143.2580 C   0  0  0  0  0  2  0  0  0  0  0  0
  186.5320  178.1770  140.7870 C   0  0  2  0  0  3  0  0  0  0  0  0
  187.1610  178.4160  139.4340 C   0  0  0  0  0  3  0  0  0  0  0  0
  188.0250  178.0360  144.3890 C   0  0  0  0  0  2  0  0  0  0  0  0
  188.9910  178.5270  137.8280 C   0  0  0  0  0  0  0  0  0  0  0  0
  189.6970  177.5270  137.0820 N   0  0  0  0  0  2  0  0  0  0  0  0
  188.8580  179.6750  137.3250 O   0  0  0  0  0  0  0  0  0  0  0  0
  189.3800  176.1330  137.1100 C   0  0  0  0  0  0  0  0  0  0  0  0
  188.2390  175.7410  137.4710 O   0  0  0  0  0  0  0  0  0  0  0  0
  190.4110  175.1330  136.7120 C   0  0  0  0  0  2  0  0  0  0  0  0
  191.3110  174.8780  137.8310 N   0  0  0  0  0  2  0  0  0  0  0  0
  193.7450  175.0030  137.5520 C   0  0  0  0  0  3  0  0  0  0  0  0
  192.5980  175.4820  138.0440 C   0  0  0  0  0  0  0  0  0  0  0  0
  192.6590  176.7400  138.8330 C   0  0  0  0  0  1  0  0  0  0  0  0
  193.8670  173.7950  136.6850 C   0  0  0  0  0  2  0  0  0  0  0  0
  196.2600  173.0090  136.3940 C   0  0  2  0  0  0  0  0  0  0  0  0
  195.3220  171.8500  136.1500 C   0  0  0  0  0  2  0  0  0  0  0  0
  194.9750  172.8940  137.2060 C   0  0  2  0  0  3  0  0  0  0  0  0
  198.5470  173.7440  137.0770 C   0  0  0  0  0  3  0  0  0  0  0  0
  197.4170  174.7670  135.1470 C   0  0  0  0  0  3  0  0  0  0  0  0
  198.5000  174.7110  136.1520 C   0  0  0  0  0  3  0  0  0  0  0  0
  196.3590  173.9610  135.2340 C   0  0  0  0  0  3  0  0  0  0  0  0
  197.5510  172.6140  137.1040 C   0  0  0  0  0  2  0  0  0  0  0  0
  185.3890  179.1610  141.0060 C   0  0  0  0  0  2  0  0  0  0  0  0
  182.3520  177.2070  139.8580 C   0  0  0  0  0  3  0  0  0  0  0  0
  181.8760  178.0090  138.8140 C   0  0  0  0  0  0  0  0  0  0  0  0
  183.7030  179.5650  139.1960 C   0  0  0  0  0  3  0  0  0  0  0  0
  183.4980  177.5800  140.5680 C   0  0  0  0  0  3  0  0  0  0  0  0
  184.1760  178.7570  140.2360 C   0  0  0  0  0  0  0  0  0  0  0  0
  182.5590  179.1930  138.4870 C   0  0  0  0  0  3  0  0  0  0  0  0
  180.7800  176.9320  136.8760 C   0  0  0  0  0  1  0  0  0  0  0  0
  180.7290  177.6090  138.1230 O   0  0  0  0  0  0  0  0  0  0  0  0
  2 12  1  1  0  0  0
  4 15  1  1  0  0  0
  4  8  1  0  0  0  0
  5  6  1  0  0  0  0
  6  1  1  0  0  0  0
  7  9  1  1  0  0  0
  7  4  1  0  0  0  0
  8  1  1  0  0  0  0
  9  5  1  0  0  0  0
 10 14  2  0  0  0  0
 10  3  1  0  0  0  0
 11  3  1  6  0  0  0
 11  2  1  0  0  0  0
 11  7  1  0  0  0  0
 12 15  1  0  0  0  0
 13 35  1  1  0  0  0
 13  2  1  0  0  0  0
 14 13  1  0  0  0  0
 16 10  1  0  0  0  0
 17 19  1  0  0  0  0
 17 16  1  0  0  0  0
 18 16  2  0  0  0  0
 19 20  2  0  0  0  0
 21 19  1  0  0  0  0
 21 22  1  0  0  0  0
 22 24  1  0  0  0  0
 23 24  2  0  0  0  0
 24 25  1  0  0  0  0
 26 23  1  0  0  0  0
 27 33  1  6  0  0  0
 27 34  1  0  0  0  0
 27 29  1  0  0  0  0
 28 27  1  0  0  0  0
 28 29  1  0  0  0  0
 29 26  1  6  0  0  0
 30 34  1  0  0  0  0
 31 33  2  0  0  0  0
 31 32  1  0  0  0  0
 32 30  2  0  0  0  0
 36 39  1  0  0  0  0
 37 36  2  0  0  0  0
 38 40  1  0  0  0  0
 40 39  2  0  0  0  0
 40 35  1  0  0  0  0
 41 37  1  0  0  0  0
 41 38  2  0  0  0  0
 42 43  1  0  0  0  0
 43 37  1  0  0  0  0
M  END
>  <MODEL>
5

>  <REMARK>
 VINA RESULT:      -7.9      2.399      9.513
  Name = 
  9 active torsions:
  status: ('A' for Active; 'I' for Inactive)
    1  A    between atoms: C_1  and  C_34
    2  A    between atoms: C_1  and  C_35
    3  A    between atoms: C_2  and  C_27
    4  A    between atoms: C_3  and  N_4
    5  A    between atoms: C_3  and  C_12
    6  A    between atoms: N_4  and  C_15
    7  A    between atoms: C_10  and  C_41
    8  A    between atoms: C_19  and  O_37
    9  A    between atoms: C_22  and  C_41
                            x       y       z     vdW  Elec       q    Type
                         _______ _______ _______ _____ _____    ______ ____

>  <TORSDO>
F 9

$$$$
=
 OpenBabel10272414403D

 43 48  0  0  1  0  0  0  0  0999 V2000
  190.9610  176.5890  145.7750 O   0  0  0  0  0  0  0  0  0  0  0  0
  187.8320  178.1860  142.2910 C   0  0  2  0  0  3  0  0  0  0  0  0
  189.6710  177.9330  140.6260 C   0  0  0  0  0  2  0  0  0  0  0  0
  189.7840  177.9980  144.1990 C   0  0  2  0  0  3  0  0  0  0  0  0
  191.4050  175.1310  143.9030 C   0  0  0  0  0  2  0  0  0  0  0  0
  191.9810  176.0270  145.0010 C   0  0  0  0  0  2  0  0  0  0  0  0
  190.0690  177.1010  142.9720 C   0  0  1  0  0  3  0  0  0  0  0  0
  190.8420  177.9000  145.2990 C   0  0  0  0  0  2  0  0  0  0  0  0
  190.0640  175.6170  143.3450 C   0  0  0  0  0  2  0  0  0  0  0  0
  188.6630  178.2510  139.5460 C   0  0  0  0  0  0  0  0  0  0  0  0
  189.0270  177.3210  141.8630 C   0  0  1  0  0  3  0  0  0  0  0  0
  187.3010  177.6990  143.6390 C   0  0  0  0  0  2  0  0  0  0  0  0
  186.7670  178.1260  141.1970 C   0  0  2  0  0  3  0  0  0  0  0  0
  187.3610  178.4130  139.8380 C   0  0  0  0  0  3  0  0  0  0  0  0
  188.3590  177.8260  144.7470 C   0  0  0  0  0  2  0  0  0  0  0  0
  189.1450  178.5730  138.1860 C   0  0  0  0  0  0  0  0  0  0  0  0
  189.9650  177.6580  137.4470 N   0  0  0  0  0  2  0  0  0  0  0  0
  188.8770  179.6940  137.6750 O   0  0  0  0  0  0  0  0  0  0  0  0
  189.8160  176.2360  137.4850 C   0  0  0  0  0  0  0  0  0  0  0  0
  188.7290  175.7150  137.8500 O   0  0  0  0  0  0  0  0  0  0  0  0
  190.9580  175.3630  137.0930 C   0  0  0  0  0  2  0  0  0  0  0  0
  190.5780  173.9620  137.2280 N   0  0  0  0  0  2  0  0  0  0  0  0
  190.6320  172.7160  135.1150 C   0  0  0  0  0  3  0  0  0  0  0  0
  189.9880  173.1370  136.2080 C   0  0  0  0  0  0  0  0  0  0  0  0
  188.5810  172.6940  136.3930 C   0  0  0  0  0  1  0  0  0  0  0  0
  192.0600  173.0030  134.7980 C   0  0  0  0  0  2  0  0  0  0  0  0
  194.2130  172.7830  136.1210 C   0  0  2  0  0  0  0  0  0  0  0  0
  194.2990  171.9230  134.8830 C   0  0  0  0  0  2  0  0  0  0  0  0
  192.9640  172.0810  135.6010 C   0  0  2  0  0  3  0  0  0  0  0  0
  194.9960  173.1720  138.4620 C   0  0  0  0  0  3  0  0  0  0  0  0
  194.7940  175.0380  136.8730 C   0  0  0  0  0  3  0  0  0  0  0  0
  194.9910  174.4910  138.2310 C   0  0  0  0  0  3  0  0  0  0  0  0
  194.4420  174.2460  135.8590 C   0  0  0  0  0  3  0  0  0  0  0  0
  194.8810  172.1650  137.3460 C   0  0  0  0  0  2  0  0  0  0  0  0
  185.6410  179.1110  141.4880 C   0  0  0  0  0  2  0  0  0  0  0  0
  182.9700  179.2210  138.8020 C   0  0  0  0  0  3  0  0  0  0  0  0
  182.1480  178.1510  139.1750 C   0  0  0  0  0  0  0  0  0  0  0  0
  183.6060  177.7100  141.0680 C   0  0  0  0  0  3  0  0  0  0  0  0
  184.1040  179.5360  139.5580 C   0  0  0  0  0  3  0  0  0  0  0  0
  184.4210  178.7830  140.6930 C   0  0  0  0  0  0  0  0  0  0  0  0
  182.4730  177.3940  140.3130 C   0  0  0  0  0  3  0  0  0  0  0  0
  180.9170  178.2310  137.0310 C   0  0  0  0  0  1  0  0  0  0  0  0
  181.0230  177.8610  138.3990 O   0  0  0  0  0  0  0  0  0  0  0  0
  2 12  1  1  0  0  0
  4 15  1  1  0  0  0
  4  8  1  0  0  0  0
  5  6  1  0  0  0  0
  6  1  1  0  0  0  0
  7  9  1  1  0  0  0
  7  4  1  0  0  0  0
  8  1  1  0  0  0  0
  9  5  1  0  0  0  0
 10 14  2  0  0  0  0
 10  3  1  0  0  0  0
 11  3  1  6  0  0  0
 11  2  1  0  0  0  0
 11  7  1  0  0  0  0
 12 15  1  0  0  0  0
 13 35  1  1  0  0  0
 13  2  1  0  0  0  0
 14 13  1  0  0  0  0
 16 10  1  0  0  0  0
 17 19  1  0  0  0  0
 17 16  1  0  0  0  0
 18 16  2  0  0  0  0
 19 20  2  0  0  0  0
 21 22  1  0  0  0  0
 21 19  1  0  0  0  0
 23 24  2  0  0  0  0
 24 25  1  0  0  0  0
 24 22  1  0  0  0  0
 26 23  1  0  0  0  0
 27 28  1  6  0  0  0
 27 34  1  0  0  0  0
 28 29  1  0  0  0  0
 29 26  1  6  0  0  0
 29 27  1  0  0  0  0
 31 32  1  0  0  0  0
 32 30  2  0  0  0  0
 33 27  1  0  0  0  0
 33 31  2  0  0  0  0
 34 30  1  0  0  0  0
 36 37  2  0  0  0  0
 36 39  1  0  0  0  0
 37 41  1  0  0  0  0
 39 40  2  0  0  0  0
 40 38  1  0  0  0  0
 40 35  1  0  0  0  0
 41 38  2  0  0  0  0
 42 43  1  0  0  0  0
 43 37  1  0  0  0  0
M  END
>  <MODEL>
6

>  <REMARK>
 VINA RESULT:      -7.5      2.352      8.792
  Name = 
  9 active torsions:
  status: ('A' for Active; 'I' for Inactive)
    1  A    between atoms: C_1  and  C_34
    2  A    between atoms: C_1  and  C_35
    3  A    between atoms: C_2  and  C_27
    4  A    between atoms: C_3  and  N_4
    5  A    between atoms: C_3  and  C_12
    6  A    between atoms: N_4  and  C_15
    7  A    between atoms: C_10  and  C_41
    8  A    between atoms: C_19  and  O_37
    9  A    between atoms: C_22  and  C_41
                            x       y       z     vdW  Elec       q    Type
                         _______ _______ _______ _____ _____    ______ ____

>  <TORSDO>
F 9

$$$$
=
 OpenBabel10272414403D

 43 48  0  0  1  0  0  0  0  0999 V2000
  180.0880  178.9090  138.7990 O   0  0  0  0  0  0  0  0  0  0  0  0
  183.9630  178.4030  141.8330 C   0  0  2  0  0  3  0  0  0  0  0  0
  185.4460  178.4530  139.8290 C   0  0  0  0  0  2  0  0  0  0  0  0
  181.9130  177.9640  140.0750 C   0  0  2  0  0  3  0  0  0  0  0  0
  181.7190  180.4440  137.8960 C   0  0  0  0  0  2  0  0  0  0  0  0
  180.7080  179.3290  137.6180 C   0  0  0  0  0  2  0  0  0  0  0  0
  182.9900  178.9130  139.5010 C   0  0  1  0  0  3  0  0  0  0  0  0
  180.7370  177.7150  139.1300 C   0  0  0  0  0  2  0  0  0  0  0  0
  182.4280  180.3140  139.2470 C   0  0  0  0  0  2  0  0  0  0  0  0
  186.6280  178.4750  140.7720 C   0  0  0  0  0  0  0  0  0  0  0  0
  184.1890  179.0420  140.4540 C   0  0  1  0  0  3  0  0  0  0  0  0
  182.6040  178.8350  142.3840 C   0  0  0  0  0  2  0  0  0  0  0  0
  185.1130  178.8070  142.7540 C   0  0  2  0  0  3  0  0  0  0  0  0
  186.4520  178.5570  142.1020 C   0  0  0  0  0  3  0  0  0  0  0  0
  181.4500  178.3670  141.4840 C   0  0  0  0  0  2  0  0  0  0  0  0
  187.9800  178.2150  140.2340 C   0  0  0  0  0  0  0  0  0  0  0  0
  188.1720  177.6480  138.9320 N   0  0  0  0  0  2  0  0  0  0  0  0
  188.9930  178.4480  140.9480 O   0  0  0  0  0  0  0  0  0  0  0  0
  187.3480  177.9420  137.8000 C   0  0  0  0  0  0  0  0  0  0  0  0
  186.6580  178.9950  137.7640 O   0  0  0  0  0  0  0  0  0  0  0  0
  187.3040  176.9920  136.6530 C   0  0  0  0  0  2  0  0  0  0  0  0
  187.2240  175.6220  137.1480 N   0  0  0  0  0  2  0  0  0  0  0  0
  187.5560  173.2210  136.7670 C   0  0  0  0  0  3  0  0  0  0  0  0
  187.9570  174.4910  136.6480 C   0  0  0  0  0  0  0  0  0  0  0  0
  189.2290  174.7470  135.9210 C   0  0  0  0  0  1  0  0  0  0  0  0
  186.2800  172.7830  137.4010 C   0  0  0  0  0  2  0  0  0  0  0  0
  184.0010  173.6130  136.6600 C   0  0  2  0  0  0  0  0  0  0  0  0
  183.9130  172.1410  136.9850 C   0  0  0  0  0  2  0  0  0  0  0  0
  185.1820  172.7000  136.3520 C   0  0  2  0  0  3  0  0  0  0  0  0
  183.0600  175.5340  135.3690 C   0  0  0  0  0  3  0  0  0  0  0  0
  183.6750  175.7860  137.7370 C   0  0  0  0  0  3  0  0  0  0  0  0
  183.2730  176.3310  136.4240 C   0  0  0  0  0  3  0  0  0  0  0  0
  184.0070  174.5010  137.8730 C   0  0  0  0  0  3  0  0  0  0  0  0
  183.1380  174.0320  135.4730 C   0  0  0  0  0  2  0  0  0  0  0  0
  185.0330  178.0530  144.0770 C   0  0  0  0  0  2  0  0  0  0  0  0
  187.9460  178.1630  146.4970 C   0  0  0  0  0  3  0  0  0  0  0  0
  188.9280  177.4560  145.7930 C   0  0  0  0  0  0  0  0  0  0  0  0
  187.3650  177.1440  143.9590 C   0  0  0  0  0  3  0  0  0  0  0  0
  186.6800  178.3610  145.9360 C   0  0  0  0  0  3  0  0  0  0  0  0
  186.3890  177.8550  144.6660 C   0  0  0  0  0  0  0  0  0  0  0  0
  188.6290  176.9450  144.5180 C   0  0  0  0  0  3  0  0  0  0  0  0
  191.2500  176.6090  145.7210 C   0  0  0  0  0  1  0  0  0  0  0  0
  190.1820  177.2750  146.3800 O   0  0  0  0  0  0  0  0  0  0  0  0
  1  8  1  0  0  0  0
  2 12  1  1  0  0  0
  2 13  1  0  0  0  0
  3 10  1  0  0  0  0
  4  8  1  6  0  0  0
  4 15  1  0  0  0  0
  5  9  1  0  0  0  0
  6  5  1  0  0  0  0
  6  1  1  0  0  0  0
  7  9  1  1  0  0  0
  7  4  1  0  0  0  0
  7 11  1  0  0  0  0
 10 14  2  0  0  0  0
 11  3  1  6  0  0  0
 11  2  1  0  0  0  0
 13 35  1  1  0  0  0
 14 13  1  0  0  0  0
 15 12  1  0  0  0  0
 16 10  1  0  0  0  0
 16 18  2  0  0  0  0
 17 16  1  0  0  0  0
 19 17  1  0  0  0  0
 20 19  2  0  0  0  0
 21 22  1  0  0  0  0
 21 19  1  0  0  0  0
 23 26  1  0  0  0  0
 24 23  2  0  0  0  0
 24 22  1  0  0  0  0
 25 24  1  0  0  0  0
 27 34  1  6  0  0  0
 27 28  1  0  0  0  0
 27 33  1  0  0  0  0
 29 27  1  0  0  0  0
 29 28  1  0  0  0  0
 29 26  1  1  0  0  0
 30 34  1  0  0  0  0
 30 32  2  0  0  0  0
 31 33  2  0  0  0  0
 32 31  1  0  0  0  0
 35 40  1  0  0  0  0
 37 43  1  0  0  0  0
 37 36  2  0  0  0  0
 38 41  2  0  0  0  0
 38 40  1  0  0  0  0
 39 36  1  0  0  0  0
 40 39  2  0  0  0  0
 41 37  1  0  0  0  0
 42 43  1  0  0  0  0
M  END
>  <MODEL>
7

>  <REMARK>
 VINA RESULT:      -7.4      2.849      7.957
  Name = 
  9 active torsions:
  status: ('A' for Active; 'I' for Inactive)
    1  A    between atoms: C_1  and  C_34
    2  A    between atoms: C_1  and  C_35
    3  A    between atoms: C_2  and  C_27
    4  A    between atoms: C_3  and  N_4
    5  A    between atoms: C_3  and  C_12
    6  A    between atoms: N_4  and  C_15
    7  A    between atoms: C_10  and  C_41
    8  A    between atoms: C_19  and  O_37
    9  A    between atoms: C_22  and  C_41
                            x       y       z     vdW  Elec       q    Type
                         _______ _______ _______ _____ _____    ______ ____

>  <TORSDO>
F 9

$$$$
=
 OpenBabel10272414403D

 43 48  0  0  1  0  0  0  0  0999 V2000
  194.8100  174.5670  135.9660 O   0  0  0  0  0  0  0  0  0  0  0  0
  190.7820  176.6640  137.9290 C   0  0  2  0  0  3  0  0  0  0  0  0
  189.5080  175.9360  135.9130 C   0  0  0  0  0  2  0  0  0  0  0  0
  193.0350  176.1310  136.4710 C   0  0  2  0  0  3  0  0  0  0  0  0
  193.0600  172.9660  135.5150 C   0  0  0  0  0  2  0  0  0  0  0  0
  194.2490  173.7590  134.9710 C   0  0  0  0  0  2  0  0  0  0  0  0
  191.8860  175.1410  136.1680 C   0  0  1  0  0  3  0  0  0  0  0  0
  194.3200  175.8490  135.6930 C   0  0  0  0  0  2  0  0  0  0  0  0
  192.2510  173.7130  136.5790 C   0  0  0  0  0  2  0  0  0  0  0  0
  188.2510  176.4230  136.5980 C   0  0  0  0  0  0  0  0  0  0  0  0
  190.5950  175.5370  136.9020 C   0  0  1  0  0  3  0  0  0  0  0  0
  192.0000  176.3660  138.8040 C   0  0  0  0  0  2  0  0  0  0  0  0
  189.5000  176.7930  138.7520 C   0  0  2  0  0  3  0  0  0  0  0  0
  188.2840  176.8820  137.8610 C   0  0  0  0  0  3  0  0  0  0  0  0
  193.2930  176.3040  137.9760 C   0  0  0  0  0  2  0  0  0  0  0  0
  187.0120  176.5690  135.8050 C   0  0  0  0  0  0  0  0  0  0  0  0
  186.2790  175.4270  135.3460 N   0  0  0  0  0  2  0  0  0  0  0  0
  186.6100  177.7180  135.4790 O   0  0  0  0  0  0  0  0  0  0  0  0
  186.1260  174.2170  136.0930 C   0  0  0  0  0  0  0  0  0  0  0  0
  186.2850  174.2100  137.3420 O   0  0  0  0  0  0  0  0  0  0  0  0
  185.7800  172.9520  135.3870 C   0  0  0  0  0  2  0  0  0  0  0  0
  184.3310  172.8250  135.2800 N   0  0  0  0  0  2  0  0  0  0  0  0
  182.6460  173.1760  137.0280 C   0  0  0  0  0  3  0  0  0  0  0  0
  183.4380  172.3720  136.3110 C   0  0  0  0  0  0  0  0  0  0  0  0
  183.3600  170.9120  136.5790 C   0  0  0  0  0  1  0  0  0  0  0  0
  182.5400  174.6530  136.8520 C   0  0  0  0  0  2  0  0  0  0  0  0
  182.4160  176.6780  138.3730 C   0  0  2  0  0  0  0  0  0  0  0  0
  183.7340  176.6900  137.6350 C   0  0  0  0  0  2  0  0  0  0  0  0
  183.1200  175.3620  138.0650 C   0  0  2  0  0  3  0  0  0  0  0  0
  181.1420  177.3980  140.3980 C   0  0  0  0  0  3  0  0  0  0  0  0
  180.1460  177.5660  138.1560 C   0  0  0  0  0  3  0  0  0  0  0  0
  180.0660  177.6100  139.6310 C   0  0  0  0  0  3  0  0  0  0  0  0
  181.2530  177.1450  137.5420 C   0  0  0  0  0  3  0  0  0  0  0  0
  182.5130  177.1810  139.8110 C   0  0  0  0  0  2  0  0  0  0  0  0
  189.5660  178.0150  139.6610 C   0  0  0  0  0  2  0  0  0  0  0  0
  187.0990  178.1590  142.5330 C   0  0  0  0  0  3  0  0  0  0  0  0
  187.6400  177.2210  143.4200 C   0  0  0  0  0  0  0  0  0  0  0  0
  189.4490  176.8050  141.8520 C   0  0  0  0  0  3  0  0  0  0  0  0
  187.7280  178.4210  141.3120 C   0  0  0  0  0  3  0  0  0  0  0  0
  188.9050  177.7470  140.9720 C   0  0  0  0  0  0  0  0  0  0  0  0
  188.8200  176.5430  143.0720 C   0  0  0  0  0  3  0  0  0  0  0  0
  187.3190  177.6670  145.8310 C   0  0  0  0  0  1  0  0  0  0  0  0
  186.9870  176.9820  144.6320 O   0  0  0  0  0  0  0  0  0  0  0  0
  2 13  1  0  0  0  0
  2 12  1  1  0  0  0
  3 10  1  0  0  0  0
  4  8  1  6  0  0  0
  4 15  1  0  0  0  0
  5  9  1  0  0  0  0
  6  5  1  0  0  0  0
  6  1  1  0  0  0  0
  7  4  1  0  0  0  0
  7  9  1  1  0  0  0
  7 11  1  0  0  0  0
  8  1  1  0  0  0  0
 10 14  2  0  0  0  0
 11  3  1  6  0  0  0
 11  2  1  0  0  0  0
 13 35  1  6  0  0  0
 14 13  1  0  0  0  0
 15 12  1  0  0  0  0
 16 10  1  0  0  0  0
 17 16  1  0  0  0  0
 17 19  1  0  0  0  0
 18 16  2  0  0  0  0
 19 20  2  0  0  0  0
 21 19  1  0  0  0  0
 22 21  1  0  0  0  0
 22 24  1  0  0  0  0
 24 25  1  0  0  0  0
 24 23  2  0  0  0  0
 26 23  1  0  0  0  0
 27 33  1  6  0  0  0
 27 34  1  0  0  0  0
 28 29  1  0  0  0  0
 28 27  1  0  0  0  0
 29 26  1  6  0  0  0
 29 27  1  0  0  0  0
 31 32  1  0  0  0  0
 32 30  2  0  0  0  0
 33 31  2  0  0  0  0
 34 30  1  0  0  0  0
 35 40  1  0  0  0  0
 36 37  1  0  0  0  0
 37 43  1  0  0  0  0
 38 41  1  0  0  0  0
 39 36  2  0  0  0  0
 40 39  1  0  0  0  0
 40 38  2  0  0  0  0
 41 37  2  0  0  0  0
 43 42  1  0  0  0  0
M  END
>  <MODEL>
8

>  <REMARK>
 VINA RESULT:      -7.1      2.097      4.044
  Name = 
  9 active torsions:
  status: ('A' for Active; 'I' for Inactive)
    1  A    between atoms: C_1  and  C_34
    2  A    between atoms: C_1  and  C_35
    3  A    between atoms: C_2  and  C_27
    4  A    between atoms: C_3  and  N_4
    5  A    between atoms: C_3  and  C_12
    6  A    between atoms: N_4  and  C_15
    7  A    between atoms: C_10  and  C_41
    8  A    between atoms: C_19  and  O_37
    9  A    between atoms: C_22  and  C_41
                            x       y       z     vdW  Elec       q    Type
                         _______ _______ _______ _____ _____    ______ ____

>  <TORSDO>
F 9

$$$$
=
 OpenBabel10272414403D

 43 48  0  0  1  0  0  0  0  0999 V2000
  188.2980  177.6540  143.7870 O   0  0  0  0  0  0  0  0  0  0  0  0
  190.8390  176.8610  139.6170 C   0  0  2  0  0  3  0  0  0  0  0  0
  188.6730  176.4060  138.4690 C   0  0  0  0  0  2  0  0  0  0  0  0
  189.4480  176.5710  141.9550 C   0  0  2  0  0  3  0  0  0  0  0  0
  186.9740  178.7600  142.0970 C   0  0  0  0  0  2  0  0  0  0  0  0
  186.9970  177.8120  143.2970 C   0  0  0  0  0  2  0  0  0  0  0  0
  188.6050  177.2410  140.8450 C   0  0  1  0  0  3  0  0  0  0  0  0
  188.7120  176.4150  143.2860 C   0  0  0  0  0  2  0  0  0  0  0  0
  188.2250  178.6760  141.2170 C   0  0  0  0  0  2  0  0  0  0  0  0
  189.4390  176.3390  137.1670 C   0  0  0  0  0  0  0  0  0  0  0  0
  189.3640  177.2770  139.5090 C   0  0  1  0  0  3  0  0  0  0  0  0
  191.4940  177.5860  140.7920 C   0  0  0  0  0  2  0  0  0  0  0  0
  191.5330  177.1690  138.2910 C   0  0  2  0  0  3  0  0  0  0  0  0
  190.7550  176.6120  137.1220 C   0  0  0  0  0  3  0  0  0  0  0  0
  190.8310  177.2180  142.1290 C   0  0  0  0  0  2  0  0  0  0  0  0
  188.7730  175.7840  135.9690 C   0  0  0  0  0  0  0  0  0  0  0  0
  187.3800  176.0070  135.7170 N   0  0  0  0  0  2  0  0  0  0  0  0
  189.4240  175.0570  135.1720 O   0  0  0  0  0  0  0  0  0  0  0  0
  186.6950  177.2260  136.0190 C   0  0  0  0  0  0  0  0  0  0  0  0
  187.3330  178.3030  136.1570 O   0  0  0  0  0  0  0  0  0  0  0  0
  185.2130  177.2210  136.1740 C   0  0  0  0  0  2  0  0  0  0  0  0
  184.8610  176.8800  137.5480 N   0  0  0  0  0  2  0  0  0  0  0  0
  182.9590  175.9470  138.7850 C   0  0  0  0  0  3  0  0  0  0  0  0
  184.0050  175.8020  137.9650 C   0  0  0  0  0  0  0  0  0  0  0  0
  184.2760  174.4430  137.4270 C   0  0  0  0  0  1  0  0  0  0  0  0
  182.4970  177.2410  139.3640 C   0  0  0  0  0  2  0  0  0  0  0  0
  182.8090  178.7000  141.4150 C   0  0  2  0  0  0  0  0  0  0  0  0
  183.7570  179.1550  140.3300 C   0  0  0  0  0  2  0  0  0  0  0  0
  183.4360  177.6730  140.4790 C   0  0  2  0  0  3  0  0  0  0  0  0
  182.3290  178.5810  143.8630 C   0  0  0  0  0  3  0  0  0  0  0  0
  180.5660  179.1910  142.2600 C   0  0  0  0  0  3  0  0  0  0  0  0
  181.0330  178.8030  143.6070 C   0  0  0  0  0  3  0  0  0  0  0  0
  181.3930  179.1650  141.2140 C   0  0  0  0  0  3  0  0  0  0  0  0
  183.3970  178.7880  142.8200 C   0  0  0  0  0  2  0  0  0  0  0  0
  192.9510  176.6090  138.2820 C   0  0  0  0  0  2  0  0  0  0  0  0
  193.9690  174.7820  135.1230 C   0  0  0  0  0  3  0  0  0  0  0  0
  193.4100  173.5160  135.3340 C   0  0  0  0  0  0  0  0  0  0  0  0
  192.5420  174.2730  137.4730 C   0  0  0  0  0  3  0  0  0  0  0  0
  193.8150  175.7900  136.0800 C   0  0  0  0  0  3  0  0  0  0  0  0
  193.0990  175.5370  137.2550 C   0  0  0  0  0  0  0  0  0  0  0  0
  192.6950  173.2660  136.5170 C   0  0  0  0  0  3  0  0  0  0  0  0
  192.8740  171.2990  134.3770 C   0  0  0  0  0  1  0  0  0  0  0  0
  193.5820  172.5300  134.3580 O   0  0  0  0  0  0  0  0  0  0  0  0
  2 12  1  1  0  0  0
  4 15  1  1  0  0  0
  4  8  1  0  0  0  0
  5  6  1  0  0  0  0
  6  1  1  0  0  0  0
  7  9  1  1  0  0  0
  7  4  1  0  0  0  0
  8  1  1  0  0  0  0
  9  5  1  0  0  0  0
 10  3  1  0  0  0  0
 11  3  1  6  0  0  0
 11  2  1  0  0  0  0
 11  7  1  0  0  0  0
 12 15  1  0  0  0  0
 13 35  1  1  0  0  0
 13  2  1  0  0  0  0
 14 10  2  0  0  0  0
 14 13  1  0  0  0  0
 16 10  1  0  0  0  0
 17 16  1  0  0  0  0
 17 19  1  0  0  0  0
 18 16  2  0  0  0  0
 19 20  2  0  0  0  0
 19 21  1  0  0  0  0
 21 22  1  0  0  0  0
 22 24  1  0  0  0  0
 23 26  1  0  0  0  0
 24 23  2  0  0  0  0
 25 24  1  0  0  0  0
 27 28  1  6  0  0  0
 27 34  1  0  0  0  0
 28 29  1  0  0  0  0
 29 26  1  6  0  0  0
 29 27  1  0  0  0  0
 31 32  1  0  0  0  0
 32 30  2  0  0  0  0
 33 27  1  0  0  0  0
 33 31  2  0  0  0  0
 34 30  1  0  0  0  0
 36 37  2  0  0  0  0
 36 39  1  0  0  0  0
 37 41  1  0  0  0  0
 39 40  2  0  0  0  0
 40 38  1  0  0  0  0
 40 35  1  0  0  0  0
 41 38  2  0  0  0  0
 43 42  1  0  0  0  0
 43 37  1  0  0  0  0
M  END
>  <MODEL>
9

>  <REMARK>
 VINA RESULT:      -7.1      1.725      6.074
  Name = 
  9 active torsions:
  status: ('A' for Active; 'I' for Inactive)
    1  A    between atoms: C_1  and  C_34
    2  A    between atoms: C_1  and  C_35
    3  A    between atoms: C_2  and  C_27
    4  A    between atoms: C_3  and  N_4
    5  A    between atoms: C_3  and  C_12
    6  A    between atoms: N_4  and  C_15
    7  A    between atoms: C_10  and  C_41
    8  A    between atoms: C_19  and  O_37
    9  A    between atoms: C_22  and  C_41
                            x       y       z     vdW  Elec       q    Type
                         _______ _______ _______ _____ _____    ______ ____

>  <TORSDO>
F 9

$$$$
