=
 OpenBabel10272400553D

 25 28  0  0  1  0  0  0  0  0999 V2000
  187.4930  177.8710  145.7730 C   0  0  0  0  0  0  0  0  0  0  0  0
  188.7960  177.4840  145.4040 C   0  0  0  0  0  0  0  0  0  0  0  0
  188.0310  177.9720  148.1220 C   0  0  0  0  0  3  0  0  0  0  0  0
  186.3510  178.1150  145.0370 C   0  0  1  0  0  3  0  0  0  0  0  0
  190.1610  177.0510  143.2620 C   0  0  0  0  0  0  0  0  0  0  0  0
  183.8000  178.7420  144.1550 C   0  0  0  0  0  3  0  0  0  0  0  0
  189.3360  177.5820  147.8030 C   0  0  0  0  0  3  0  0  0  0  0  0
  185.3750  178.4730  145.9430 C   0  0  0  0  0  0  0  0  0  0  0  0
  184.0830  178.7930  145.5320 C   0  0  0  0  0  3  0  0  0  0  0  0
  191.2090  176.9610  146.3040 C   0  0  1  0  0  3  0  0  0  0  0  0
  191.6940  176.2760  147.4230 O   0  0  0  0  0  1  0  0  0  0  0  0
  189.0320  177.2620  143.9510 C   0  0  0  0  0  3  0  0  0  0  0  0
  184.8000  178.3760  143.2300 C   0  0  0  0  0  3  0  0  0  0  0  0
  187.1250  178.1040  147.0840 C   0  0  0  0  0  0  0  0  0  0  0  0
  185.8310  178.4740  147.2130 N   0  0  0  0  0  0  0  0  0  0  0  0
  191.5300  176.1480  145.0760 C   0  0  0  0  0  2  0  0  0  0  0  0
  186.0980  178.0580  143.6670 C   0  0  0  0  0  3  0  0  0  0  0  0
  191.5030  177.0780  143.8950 C   0  0  0  0  0  2  0  0  0  0  0  0
  189.7430  177.3090  146.4730 C   0  0  0  0  0  0  0  0  0  0  0  0
  189.6030  177.4220  139.4750 N   0  0  0  0  0  0  0  0  0  0  0  0
  188.9060  178.2220  138.4810 C   0  0  0  0  0  1  0  0  0  0  0  0
  190.4840  176.3620  139.0160 C   0  0  0  0  0  1  0  0  0  0  0  0
  190.1240  176.8690  141.8390 N   0  0  0  0  0  2  0  0  0  0  0  0
  188.6540  178.5970  141.2520 O   0  0  0  0  0  0  0  0  0  0  0  0
  189.4300  177.6770  140.8750 C   0  0  0  0  0  0  0  0  0  0  0  0
  1 14  1  0  0  0  0
  2  1  2  0  0  0  0
  2 19  1  0  0  0  0
  4 17  1  6  0  0  0
  4  1  1  0  0  0  0
  4  8  1  0  0  0  0
  5 18  1  0  0  0  0
  5 12  2  0  0  0  0
  6  9  2  0  0  0  0
  7  3  1  0  0  0  0
  8 15  2  0  0  0  0
  9  8  1  0  0  0  0
 10 19  1  0  0  0  0
 10 11  1  1  0  0  0
 12  2  1  0  0  0  0
 13 17  2  0  0  0  0
 13  6  1  0  0  0  0
 14 15  1  0  0  0  0
 14  3  2  0  0  0  0
 16 10  1  0  0  0  0
 18 16  1  0  0  0  0
 19  7  2  0  0  0  0
 20 25  1  0  0  0  0
 21 20  1  0  0  0  0
 22 20  1  0  0  0  0
 23  5  1  0  0  0  0
 25 24  2  0  0  0  0
 25 23  1  0  0  0  0
M  END
>  <MODEL>
1

>  <REMARK>
 VINA RESULT:     -12.2      0.000      0.000
  Name = 
  1 active torsions:
  status: ('A' for Active; 'I' for Inactive)
    1  A    between atoms: C_6  and  N_15
                            x       y       z     vdW  Elec       q    Type
                         _______ _______ _______ _____ _____    ______ ____

>  <TORSDO>
F 1

$$$$
=
 OpenBabel10272400553D

 25 28  0  0  1  0  0  0  0  0999 V2000
  187.1800  178.0570  145.5630 C   0  0  0  0  0  0  0  0  0  0  0  0
  188.4820  177.8290  145.0760 C   0  0  0  0  0  0  0  0  0  0  0  0
  187.8240  177.7110  147.8620 C   0  0  0  0  0  3  0  0  0  0  0  0
  185.9940  178.3800  144.9350 C   0  0  1  0  0  3  0  0  0  0  0  0
  189.7630  177.9170  142.8420 C   0  0  0  0  0  0  0  0  0  0  0  0
  183.3770  179.0260  144.2940 C   0  0  0  0  0  3  0  0  0  0  0  0
  189.1290  177.4690  147.4230 C   0  0  0  0  0  3  0  0  0  0  0  0
  185.0460  178.4910  145.9300 C   0  0  0  0  0  0  0  0  0  0  0  0
  183.7230  178.8130  145.6400 C   0  0  0  0  0  3  0  0  0  0  0  0
  190.9570  177.2720  145.7610 C   0  0  1  0  0  3  0  0  0  0  0  0
  191.5270  176.4040  146.6970 O   0  0  0  0  0  1  0  0  0  0  0  0
  188.6590  177.9190  143.6000 C   0  0  0  0  0  3  0  0  0  0  0  0
  184.3490  178.9130  143.2780 C   0  0  0  0  0  3  0  0  0  0  0  0
  186.8640  177.9980  146.9070 C   0  0  0  0  0  0  0  0  0  0  0  0
  185.5610  178.2610  147.1560 N   0  0  0  0  0  0  0  0  0  0  0  0
  191.2580  176.7440  144.3820 C   0  0  0  0  0  2  0  0  0  0  0  0
  185.6800  178.5870  143.5930 C   0  0  0  0  0  3  0  0  0  0  0  0
  191.1310  177.8920  143.4180 C   0  0  0  0  0  2  0  0  0  0  0  0
  189.4850  177.4950  146.0510 C   0  0  0  0  0  0  0  0  0  0  0  0
  189.7530  177.2630  139.0530 N   0  0  0  0  0  0  0  0  0  0  0  0
  190.1190  176.2790  138.0470 C   0  0  0  0  0  1  0  0  0  0  0  0
  189.0930  178.4830  138.6190 C   0  0  0  0  0  1  0  0  0  0  0  0
  189.6680  178.0250  141.4140 N   0  0  0  0  0  2  0  0  0  0  0  0
  190.6130  175.9720  140.7940 O   0  0  0  0  0  0  0  0  0  0  0  0
  190.0320  177.0340  140.4390 C   0  0  0  0  0  0  0  0  0  0  0  0
  1 14  1  0  0  0  0
  2  1  2  0  0  0  0
  2 19  1  0  0  0  0
  4 17  1  1  0  0  0
  4  1  1  0  0  0  0
  4  8  1  0  0  0  0
  5 18  1  0  0  0  0
  5 12  2  0  0  0  0
  6  9  2  0  0  0  0
  7  3  1  0  0  0  0
  8 15  2  0  0  0  0
  9  8  1  0  0  0  0
 10 19  1  0  0  0  0
 10 11  1  1  0  0  0
 12  2  1  0  0  0  0
 13 17  2  0  0  0  0
 13  6  1  0  0  0  0
 14 15  1  0  0  0  0
 14  3  2  0  0  0  0
 16 10  1  0  0  0  0
 18 16  1  0  0  0  0
 19  7  2  0  0  0  0
 20 25  1  0  0  0  0
 21 20  1  0  0  0  0
 22 20  1  0  0  0  0
 23  5  1  0  0  0  0
 25 24  2  0  0  0  0
 25 23  1  0  0  0  0
M  END
>  <MODEL>
2

>  <REMARK>
 VINA RESULT:     -11.5      0.946      1.161
  Name = 
  1 active torsions:
  status: ('A' for Active; 'I' for Inactive)
    1  A    between atoms: C_6  and  N_15
                            x       y       z     vdW  Elec       q    Type
                         _______ _______ _______ _____ _____    ______ ____

>  <TORSDO>
F 1

$$$$
=
 OpenBabel10272400553D

 25 28  0  0  1  0  0  0  0  0999 V2000
  187.8490  177.7330  145.6360 C   0  0  0  0  0  0  0  0  0  0  0  0
  187.0290  178.1120  144.5550 C   0  0  0  0  0  0  0  0  0  0  0  0
  186.0740  177.9650  147.2530 C   0  0  0  0  0  3  0  0  0  0  0  0
  189.1740  177.3520  145.7100 C   0  0  0  0  0  0  0  0  0  0  0  0
  187.1620  178.3040  141.9890 C   0  0  0  0  0  0  0  0  0  0  0  0
  191.6950  176.5240  146.5060 C   0  0  0  0  0  3  0  0  0  0  0  0
  185.2250  178.3540  146.2120 C   0  0  0  0  0  3  0  0  0  0  0  0
  189.4260  177.0840  147.0390 C   0  0  0  0  0  0  0  0  0  0  0  0
  190.6820  176.6660  147.4710 C   0  0  0  0  0  3  0  0  0  0  0  0
  184.5990  178.8360  143.8630 C   0  0  1  0  0  3  0  0  0  0  0  0
  183.6440  179.6800  144.4370 O   0  0  0  0  0  1  0  0  0  0  0  0
  187.6770  178.1470  143.2160 C   0  0  0  0  0  3  0  0  0  0  0  0
  191.4350  176.7980  145.1470 C   0  0  0  0  0  3  0  0  0  0  0  0
  187.3870  177.6640  146.9360 C   0  0  1  0  0  3  0  0  0  0  0  0
  188.3370  177.2680  147.8150 N   0  0  0  0  0  0  0  0  0  0  0  0
  185.1130  179.4890  142.6060 C   0  0  0  0  0  2  0  0  0  0  0  0
  190.1590  177.2170  144.7330 C   0  0  0  0  0  3  0  0  0  0  0  0
  185.7020  178.4090  141.7410 C   0  0  0  0  0  2  0  0  0  0  0  0
  185.6690  178.4610  144.8710 C   0  0  0  0  0  0  0  0  0  0  0  0
  189.7580  177.4430  139.2870 N   0  0  0  0  0  0  0  0  0  0  0  0
  190.8560  176.5400  138.9830 C   0  0  0  0  0  1  0  0  0  0  0  0
  189.3520  178.4030  138.2750 C   0  0  0  0  0  1  0  0  0  0  0  0
  188.0130  178.2940  140.8340 N   0  0  0  0  0  2  0  0  0  0  0  0
  189.4640  176.5500  141.4210 O   0  0  0  0  0  0  0  0  0  0  0  0
  189.0900  177.3850  140.5530 C   0  0  0  0  0  0  0  0  0  0  0  0
  1  4  2  0  0  0  0
  1 14  1  0  0  0  0
  2 19  2  0  0  0  0
  2  1  1  0  0  0  0
  4  8  1  0  0  0  0
  5 12  2  0  0  0  0
  6  9  2  0  0  0  0
  7  3  2  0  0  0  0
  8  9  1  0  0  0  0
  8 15  2  0  0  0  0
 10 11  1  1  0  0  0
 10 19  1  0  0  0  0
 12  2  1  0  0  0  0
 13  6  1  0  0  0  0
 14  3  1  6  0  0  0
 14 15  1  0  0  0  0
 16 10  1  0  0  0  0
 17 13  2  0  0  0  0
 17  4  1  0  0  0  0
 18  5  1  0  0  0  0
 18 16  1  0  0  0  0
 19  7  1  0  0  0  0
 20 25  1  0  0  0  0
 21 20  1  0  0  0  0
 22 20  1  0  0  0  0
 23  5  1  0  0  0  0
 25 23  1  0  0  0  0
 25 24  2  0  0  0  0
M  END
>  <MODEL>
3

>  <REMARK>
 VINA RESULT:     -10.8      1.768      4.722
  Name = 
  1 active torsions:
  status: ('A' for Active; 'I' for Inactive)
    1  A    between atoms: C_6  and  N_15
                            x       y       z     vdW  Elec       q    Type
                         _______ _______ _______ _____ _____    ______ ____

>  <TORSDO>
F 1

$$$$
=
 OpenBabel10272400553D

 25 28  0  0  1  0  0  0  0  0999 V2000
  187.9460  177.6920  145.7510 C   0  0  0  0  0  0  0  0  0  0  0  0
  187.1220  177.9970  144.6500 C   0  0  0  0  0  0  0  0  0  0  0  0
  186.1930  178.0940  147.3580 C   0  0  0  0  0  3  0  0  0  0  0  0
  189.2640  177.2930  145.8450 C   0  0  0  0  0  0  0  0  0  0  0  0
  187.2310  177.9710  142.0750 C   0  0  0  0  0  0  0  0  0  0  0  0
  191.7770  176.4820  146.6840 C   0  0  0  0  0  3  0  0  0  0  0  0
  185.3410  178.4130  146.2960 C   0  0  0  0  0  3  0  0  0  0  0  0
  189.5250  177.1310  147.1880 C   0  0  0  0  0  0  0  0  0  0  0  0
  190.7770  176.7250  147.6430 C   0  0  0  0  0  3  0  0  0  0  0  0
  184.7000  178.7090  143.9210 C   0  0  1  0  0  3  0  0  0  0  0  0
  183.7670  179.6180  144.4310 O   0  0  0  0  0  1  0  0  0  0  0  0
  187.7560  177.9060  143.3060 C   0  0  0  0  0  3  0  0  0  0  0  0
  191.5070  176.6470  145.3090 C   0  0  0  0  0  3  0  0  0  0  0  0
  187.4970  177.7410  147.0560 C   0  0  1  0  0  3  0  0  0  0  0  0
  188.4480  177.4010  147.9560 N   0  0  0  0  0  0  0  0  0  0  0  0
  185.2130  179.2450  142.6090 C   0  0  0  0  0  2  0  0  0  0  0  0
  190.2350  177.0560  144.8730 C   0  0  0  0  0  3  0  0  0  0  0  0
  185.7710  178.0840  141.8320 C   0  0  0  0  0  2  0  0  0  0  0  0
  185.7730  178.3990  144.9470 C   0  0  0  0  0  0  0  0  0  0  0  0
  188.7980  178.2130  138.5720 N   0  0  0  0  0  0  0  0  0  0  0  0
  188.5380  178.6710  137.2170 C   0  0  0  0  0  1  0  0  0  0  0  0
  190.1060  177.6580  138.8750 C   0  0  0  0  0  1  0  0  0  0  0  0
  188.0690  177.8470  140.9170 N   0  0  0  0  0  2  0  0  0  0  0  0
  186.6590  178.7890  139.3000 O   0  0  0  0  0  0  0  0  0  0  0  0
  187.7910  178.3130  139.5860 C   0  0  0  0  0  0  0  0  0  0  0  0
  1  4  2  0  0  0  0
  1 14  1  0  0  0  0
  2 19  2  0  0  0  0
  2  1  1  0  0  0  0
  4  8  1  0  0  0  0
  5 12  2  0  0  0  0
  6  9  2  0  0  0  0
  7  3  2  0  0  0  0
  8  9  1  0  0  0  0
  8 15  2  0  0  0  0
 10 11  1  1  0  0  0
 10 19  1  0  0  0  0
 12  2  1  0  0  0  0
 13  6  1  0  0  0  0
 14  3  1  6  0  0  0
 14 15  1  0  0  0  0
 16 10  1  0  0  0  0
 17 13  2  0  0  0  0
 17  4  1  0  0  0  0
 18  5  1  0  0  0  0
 18 16  1  0  0  0  0
 19  7  1  0  0  0  0
 20 22  1  0  0  0  0
 20 25  1  0  0  0  0
 21 20  1  0  0  0  0
 23  5  1  0  0  0  0
 24 25  2  0  0  0  0
 25 23  1  0  0  0  0
M  END
>  <MODEL>
4

>  <REMARK>
 VINA RESULT:     -10.5      2.312      4.696
  Name = 
  1 active torsions:
  status: ('A' for Active; 'I' for Inactive)
    1  A    between atoms: C_6  and  N_15
                            x       y       z     vdW  Elec       q    Type
                         _______ _______ _______ _____ _____    ______ ____

>  <TORSDO>
F 1

$$$$
=
 OpenBabel10272400553D

 25 28  0  0  1  0  0  0  0  0999 V2000
  189.5190  177.4330  144.0610 C   0  0  0  0  0  0  0  0  0  0  0  0
  188.5320  177.6220  145.0480 C   0  0  0  0  0  0  0  0  0  0  0  0
  191.2270  176.8770  145.6720 C   0  0  0  0  0  3  0  0  0  0  0  0
  189.4880  177.5190  142.6840 C   0  0  0  0  0  0  0  0  0  0  0  0
  186.0070  178.1160  145.1990 C   0  0  0  0  0  0  0  0  0  0  0  0
  190.0630  177.5170  139.9730 C   0  0  0  0  0  3  0  0  0  0  0  0
  190.2810  177.0620  146.6850 C   0  0  0  0  0  3  0  0  0  0  0  0
  190.7600  177.2140  142.2480 C   0  0  0  0  0  0  0  0  0  0  0  0
  191.0810  177.2050  140.8920 C   0  0  0  0  0  2  0  0  0  0  0  0
  188.0410  177.5470  147.6280 C   0  0  1  0  0  3  0  0  0  0  0  0
  188.7580  177.9510  148.7580 O   0  0  0  0  0  1  0  0  0  0  0  0
  187.1810  178.0160  144.5610 C   0  0  0  0  0  3  0  0  0  0  0  0
  188.7620  177.8280  140.4220 C   0  0  0  0  0  3  0  0  0  0  0  0
  190.8190  177.0750  144.3640 C   0  0  0  0  0  0  0  0  0  0  0  0
  191.5980  176.9350  143.2670 N   0  0  0  0  0  0  0  0  0  0  0  0
  186.8560  178.4640  147.4660 C   0  0  0  0  0  2  0  0  0  0  0  0
  188.4600  177.8290  141.7950 C   0  0  0  0  0  3  0  0  0  0  0  0
  185.8370  177.7450  146.6260 C   0  0  0  0  0  2  0  0  0  0  0  0
  188.9470  177.4540  146.4150 C   0  0  0  0  0  0  0  0  0  0  0  0
  183.2540  178.6940  142.5770 N   0  0  0  0  0  0  0  0  0  0  0  0
  182.9500  178.5330  141.1650 C   0  0  0  0  0  1  0  0  0  0  0  0
  182.2190  179.2120  143.4540 C   0  0  0  0  0  1  0  0  0  0  0  0
  184.8240  178.5170  144.4930 N   0  0  0  0  0  2  0  0  0  0  0  0
  185.4320  177.9020  142.3150 O   0  0  0  0  0  0  0  0  0  0  0  0
  184.5440  178.3430  143.0940 C   0  0  0  0  0  0  0  0  0  0  0  0
  1 14  1  0  0  0  0
  1  2  2  0  0  0  0
  2 19  1  0  0  0  0
  3  7  1  0  0  0  0
  4  1  1  0  0  0  0
  5 18  1  0  0  0  0
  6 13  2  0  0  0  0
  6  9  1  0  0  0  0
  8  4  1  0  0  0  0
  8 15  2  0  0  0  0
  9  8  1  0  0  0  0
 10 11  1  1  0  0  0
 12  2  1  0  0  0  0
 12  5  2  0  0  0  0
 13 17  1  0  0  0  0
 14  3  2  0  0  0  0
 15 14  1  0  0  0  0
 16 10  1  0  0  0  0
 17  4  2  0  0  0  0
 18 16  1  0  0  0  0
 19  7  2  0  0  0  0
 19 10  1  0  0  0  0
 20 25  1  0  0  0  0
 20 22  1  0  0  0  0
 21 20  1  0  0  0  0
 23  5  1  0  0  0  0
 24 25  2  0  0  0  0
 25 23  1  0  0  0  0
M  END
>  <MODEL>
5

>  <REMARK>
 VINA RESULT:     -10.2      1.916      5.366
  Name = 
  1 active torsions:
  status: ('A' for Active; 'I' for Inactive)
    1  A    between atoms: C_6  and  N_15
                            x       y       z     vdW  Elec       q    Type
                         _______ _______ _______ _____ _____    ______ ____

>  <TORSDO>
F 1

$$$$
=
 OpenBabel10272400553D

 25 28  0  0  1  0  0  0  0  0999 V2000
  188.0950  177.6690  143.6610 C   0  0  0  0  0  0  0  0  0  0  0  0
  186.7570  178.0480  143.8860 C   0  0  0  0  0  0  0  0  0  0  0  0
  188.5260  177.2680  146.0010 C   0  0  0  0  0  3  0  0  0  0  0  0
  188.8500  177.5560  142.5120 C   0  0  0  0  0  0  0  0  0  0  0  0
  184.6630  178.6840  142.5250 C   0  0  0  0  0  0  0  0  0  0  0  0
  190.8370  177.1330  140.6270 C   0  0  0  0  0  3  0  0  0  0  0  0
  187.2070  177.6450  146.2720 C   0  0  0  0  0  3  0  0  0  0  0  0
  190.0990  177.1290  142.9090 C   0  0  0  0  0  0  0  0  0  0  0  0
  191.1190  176.9070  141.9860 C   0  0  0  0  0  2  0  0  0  0  0  0
  184.9030  178.3710  145.7200 C   0  0  1  0  0  3  0  0  0  0  0  0
  184.9090  178.8990  147.0150 O   0  0  0  0  0  1  0  0  0  0  0  0
  185.9700  178.4340  142.6830 C   0  0  0  0  0  3  0  0  0  0  0  0
  189.5580  177.5700  140.2230 C   0  0  0  0  0  3  0  0  0  0  0  0
  188.9470  177.2940  144.6820 C   0  0  0  0  0  0  0  0  0  0  0  0
  190.1820  176.9590  144.2450 N   0  0  0  0  0  0  0  0  0  0  0  0
  184.1350  179.3130  144.8280 C   0  0  0  0  0  2  0  0  0  0  0  0
  188.5430  177.7850  141.1710 C   0  0  0  0  0  3  0  0  0  0  0  0
  183.6800  178.5320  143.6260 C   0  0  0  0  0  2  0  0  0  0  0  0
  186.3120  178.0590  145.2540 C   0  0  0  0  0  0  0  0  0  0  0  0
  182.8360  178.7510  139.1430 N   0  0  0  0  0  0  0  0  0  0  0  0
  182.0840  177.9200  138.2170 C   0  0  0  0  0  1  0  0  0  0  0  0
  183.0050  180.1590  138.8270 C   0  0  0  0  0  1  0  0  0  0  0  0
  184.1380  179.0360  141.2370 N   0  0  0  0  0  2  0  0  0  0  0  0
  183.2410  176.9700  140.5920 O   0  0  0  0  0  0  0  0  0  0  0  0
  183.3920  178.1970  140.3410 C   0  0  0  0  0  0  0  0  0  0  0  0
  1  2  2  0  0  0  0
  1 14  1  0  0  0  0
  2 19  1  0  0  0  0
  3  7  1  0  0  0  0
  4  8  1  0  0  0  0
  4  1  1  0  0  0  0
  5 12  2  0  0  0  0
  5 18  1  0  0  0  0
  6  9  1  0  0  0  0
  8 15  2  0  0  0  0
  9  8  1  0  0  0  0
 10 11  1  1  0  0  0
 12  2  1  0  0  0  0
 13  6  2  0  0  0  0
 13 17  1  0  0  0  0
 14  3  2  0  0  0  0
 15 14  1  0  0  0  0
 16 10  1  0  0  0  0
 17  4  2  0  0  0  0
 18 16  1  0  0  0  0
 19 10  1  0  0  0  0
 19  7  2  0  0  0  0
 20 25  1  0  0  0  0
 21 20  1  0  0  0  0
 22 20  1  0  0  0  0
 23  5  1  0  0  0  0
 25 24  2  0  0  0  0
 25 23  1  0  0  0  0
M  END
>  <MODEL>
6

>  <REMARK>
 VINA RESULT:      -9.9      3.177      5.806
  Name = 
  1 active torsions:
  status: ('A' for Active; 'I' for Inactive)
    1  A    between atoms: C_6  and  N_15
                            x       y       z     vdW  Elec       q    Type
                         _______ _______ _______ _____ _____    ______ ____

>  <TORSDO>
F 1

$$$$
=
 OpenBabel10272400553D

 25 28  0  0  1  0  0  0  0  0999 V2000
  189.4010  177.5360  144.4300 C   0  0  0  0  0  0  0  0  0  0  0  0
  189.1090  177.6480  143.0570 C   0  0  0  0  0  0  0  0  0  0  0  0
  191.7290  177.0380  144.0430 C   0  0  0  0  0  3  0  0  0  0  0  0
  188.6250  177.6830  145.5620 C   0  0  1  0  0  3  0  0  0  0  0  0
  187.1280  178.2880  141.5380 C   0  0  0  0  0  0  0  0  0  0  0  0
  187.6370  177.8480  148.1460 C   0  0  0  0  0  3  0  0  0  0  0  0
  191.4830  177.1310  142.6690 C   0  0  0  0  0  3  0  0  0  0  0  0
  189.4610  177.4660  146.6360 C   0  0  0  0  0  0  0  0  0  0  0  0
  188.9950  177.5410  147.9470 C   0  0  0  0  0  3  0  0  0  0  0  0
  190.1250  177.5350  140.6360 C   0  0  1  0  0  3  0  0  0  0  0  0
  191.0530  176.6900  140.0180 O   0  0  0  0  0  1  0  0  0  0  0  0
  187.6960  177.9620  142.7060 C   0  0  0  0  0  2  0  0  0  0  0  0
  186.7840  178.0720  147.0450 C   0  0  0  0  0  3  0  0  0  0  0  0
  190.6640  177.2400  144.9040 C   0  0  0  0  0  0  0  0  0  0  0  0
  190.7250  177.1920  146.2540 N   0  0  0  0  0  0  0  0  0  0  0  0
  188.7680  177.2630  140.0400 C   0  0  0  0  0  2  0  0  0  0  0  0
  187.2750  177.9920  145.7310 C   0  0  0  0  0  3  0  0  0  0  0  0
  187.9110  178.4730  140.2910 C   0  0  0  0  0  2  0  0  0  0  0  0
  190.1960  177.4070  142.1460 C   0  0  0  0  0  0  0  0  0  0  0  0
  183.5360  179.0140  140.3730 N   0  0  0  0  0  0  0  0  0  0  0  0
  182.7480  179.3690  139.2040 C   0  0  0  0  0  1  0  0  0  0  0  0
  182.8430  178.7730  141.6270 C   0  0  0  0  0  1  0  0  0  0  0  0
  185.7210  178.5560  141.4610 N   0  0  0  0  0  0  0  0  0  0  0  0
  185.5450  179.1230  139.1940 O   0  0  0  0  0  0  0  0  0  0  0  0
  184.9620  178.9000  140.2900 C   0  0  0  0  0  0  0  0  0  0  0  0
  1 14  2  0  0  0  0
  1  4  1  0  0  0  0
  2  1  1  0  0  0  0
  3 14  1  0  0  0  0
  4 17  1  1  0  0  0
  4  8  1  0  0  0  0
  5 12  1  0  0  0  0
  7  3  2  0  0  0  0
  8  9  1  0  0  0  0
  9  6  2  0  0  0  0
 10 11  1  6  0  0  0
 10 19  1  0  0  0  0
 12  2  1  0  0  0  0
 13  6  1  0  0  0  0
 14 15  1  0  0  0  0
 15  8  2  0  0  0  0
 16 18  1  0  0  0  0
 16 10  1  0  0  0  0
 17 13  2  0  0  0  0
 18  5  1  0  0  0  0
 19  7  1  0  0  0  0
 19  2  2  0  0  0  0
 20 22  1  0  0  0  0
 21 20  1  0  0  0  0
 23  5  2  0  0  0  0
 24 25  2  0  0  0  0
 25 20  1  0  0  0  0
 25 23  1  0  0  0  0
M  END
>  <MODEL>
7

>  <REMARK>
 VINA RESULT:      -9.7      2.685      5.004
  Name = 
  1 active torsions:
  status: ('A' for Active; 'I' for Inactive)
    1  A    between atoms: C_6  and  N_15
                            x       y       z     vdW  Elec       q    Type
                         _______ _______ _______ _____ _____    ______ ____

>  <TORSDO>
F 1

$$$$
=
 OpenBabel10272400553D

 25 28  0  0  1  0  0  0  0  0999 V2000
  188.0520  177.7100  144.5220 C   0  0  0  0  0  0  0  0  0  0  0  0
  187.9410  177.8560  143.1250 C   0  0  0  0  0  0  0  0  0  0  0  0
  185.7280  178.2300  144.9070 C   0  0  0  0  0  3  0  0  0  0  0  0
  189.1100  177.3730  145.3410 C   0  0  0  0  0  0  0  0  0  0  0  0
  189.3890  177.5380  141.0180 C   0  0  0  0  0  0  0  0  0  0  0  0
  190.7790  176.7570  147.4660 C   0  0  0  0  0  3  0  0  0  0  0  0
  185.5730  178.3930  143.5270 C   0  0  0  0  0  3  0  0  0  0  0  0
  188.6190  177.3760  146.6300 C   0  0  0  0  0  0  0  0  0  0  0  0
  189.4320  177.0720  147.7190 C   0  0  0  0  0  3  0  0  0  0  0  0
  186.2880  178.3900  141.1540 C   0  0  1  0  0  3  0  0  0  0  0  0
  185.2540  179.3170  140.9870 O   0  0  0  0  0  1  0  0  0  0  0  0
  189.1850  177.6350  142.3380 C   0  0  0  0  0  3  0  0  0  0  0  0
  191.2790  176.7530  146.1470 C   0  0  0  0  0  3  0  0  0  0  0  0
  186.9840  177.8930  145.3800 C   0  0  1  0  0  3  0  0  0  0  0  0
  187.3080  177.6930  146.6780 N   0  0  0  0  0  0  0  0  0  0  0  0
  187.4310  178.7900  140.2560 C   0  0  0  0  0  2  0  0  0  0  0  0
  190.4400  177.0620  145.0620 C   0  0  0  0  0  3  0  0  0  0  0  0
  188.2800  177.5690  140.0320 C   0  0  0  0  0  2  0  0  0  0  0  0
  186.6500  178.2390  142.6190 C   0  0  0  0  0  0  0  0  0  0  0  0
  192.4270  176.5320  138.8870 N   0  0  0  0  0  0  0  0  0  0  0  0
  192.8160  175.7620  137.7160 C   0  0  0  0  0  1  0  0  0  0  0  0
  193.4500  177.2870  139.5890 C   0  0  0  0  0  1  0  0  0  0  0  0
  190.7070  177.3130  140.4980 N   0  0  0  0  0  2  0  0  0  0  0  0
  190.1940  175.8810  138.7150 O   0  0  0  0  0  0  0  0  0  0  0  0
  191.0660  176.5500  139.3340 C   0  0  0  0  0  0  0  0  0  0  0  0
  1  4  2  0  0  0  0
  1 14  1  0  0  0  0
  2  1  1  0  0  0  0
  4  8  1  0  0  0  0
  5 12  2  0  0  0  0
  6  9  2  0  0  0  0
  7  3  2  0  0  0  0
  8 15  2  0  0  0  0
  8  9  1  0  0  0  0
 10 11  1  1  0  0  0
 10 19  1  0  0  0  0
 12  2  1  0  0  0  0
 13  6  1  0  0  0  0
 14  3  1  6  0  0  0
 14 15  1  0  0  0  0
 16 10  1  0  0  0  0
 17  4  1  0  0  0  0
 17 13  2  0  0  0  0
 18 16  1  0  0  0  0
 18  5  1  0  0  0  0
 19  2  2  0  0  0  0
 19  7  1  0  0  0  0
 20 25  1  0  0  0  0
 20 22  1  0  0  0  0
 21 20  1  0  0  0  0
 23  5  1  0  0  0  0
 24 25  2  0  0  0  0
 25 23  1  0  0  0  0
M  END
>  <MODEL>
8

>  <REMARK>
 VINA RESULT:      -9.5      2.258      4.798
  Name = 
  1 active torsions:
  status: ('A' for Active; 'I' for Inactive)
    1  A    between atoms: C_6  and  N_15
                            x       y       z     vdW  Elec       q    Type
                         _______ _______ _______ _____ _____    ______ ____

>  <TORSDO>
F 1

$$$$
=
 OpenBabel10272400553D

 25 28  0  0  1  0  0  0  0  0999 V2000
  186.4650  178.2630  142.7820 C   0  0  0  0  0  0  0  0  0  0  0  0
  187.7100  177.8780  142.2480 C   0  0  0  0  0  0  0  0  0  0  0  0
  185.5570  178.8460  140.6250 C   0  0  0  0  0  3  0  0  0  0  0  0
  185.9670  178.2720  144.0690 C   0  0  1  0  0  3  0  0  0  0  0  0
  189.9250  176.8290  143.0440 C   0  0  0  0  0  0  0  0  0  0  0  0
  184.4200  178.5180  146.3550 C   0  0  0  0  0  3  0  0  0  0  0  0
  186.7790  178.4830  140.0520 C   0  0  0  0  0  3  0  0  0  0  0  0
  184.6750  178.7440  143.9810 C   0  0  0  0  0  0  0  0  0  0  0  0
  183.8710  178.8790  145.1110 C   0  0  0  0  0  3  0  0  0  0  0  0
  189.1000  177.6140  140.0340 C   0  0  1  0  0  3  0  0  0  0  0  0
  189.2350  178.3940  138.8810 O   0  0  0  0  0  1  0  0  0  0  0  0
  188.7290  177.4040  143.2250 C   0  0  0  0  0  3  0  0  0  0  0  0
  185.7420  178.0340  146.4420 C   0  0  0  0  0  3  0  0  0  0  0  0
  185.4280  178.7310  141.9980 C   0  0  0  0  0  0  0  0  0  0  0  0
  184.3190  179.0320  142.7120 N   0  0  0  0  0  0  0  0  0  0  0  0
  190.3980  177.6730  140.7990 C   0  0  0  0  0  2  0  0  0  0  0  0
  186.5340  177.9040  145.2890 C   0  0  0  0  0  3  0  0  0  0  0  0
  190.4480  176.4720  141.7020 C   0  0  0  0  0  2  0  0  0  0  0  0
  187.8740  178.0230  140.8260 C   0  0  0  0  0  0  0  0  0  0  0  0
  191.4900  176.4290  146.5340 N   0  0  0  0  0  0  0  0  0  0  0  0
  191.4810  176.9860  147.8770 C   0  0  0  0  0  1  0  0  0  0  0  0
  192.3160  175.2620  146.2740 C   0  0  0  0  0  1  0  0  0  0  0  0
  190.7300  176.4510  144.1700 N   0  0  0  0  0  2  0  0  0  0  0  0
  189.9960  178.0320  145.7360 O   0  0  0  0  0  0  0  0  0  0  0  0
  190.6990  177.0140  145.4920 C   0  0  0  0  0  0  0  0  0  0  0  0
  1  4  1  0  0  0  0
  2  1  1  0  0  0  0
  2 12  1  0  0  0  0
  3 14  1  0  0  0  0
  4 17  1  6  0  0  0
  5 12  2  0  0  0  0
  5 23  1  0  0  0  0
  6 13  1  0  0  0  0
  7  3  2  0  0  0  0
  7 19  1  0  0  0  0
  8  4  1  0  0  0  0
  8  9  1  0  0  0  0
  9  6  2  0  0  0  0
 10 11  1  6  0  0  0
 10 16  1  0  0  0  0
 10 19  1  0  0  0  0
 14 15  1  0  0  0  0
 14  1  2  0  0  0  0
 15  8  2  0  0  0  0
 16 18  1  0  0  0  0
 17 13  2  0  0  0  0
 18  5  1  0  0  0  0
 19  2  2  0  0  0  0
 20 21  1  0  0  0  0
 22 20  1  0  0  0  0
 23 25  1  0  0  0  0
 25 24  2  0  0  0  0
 25 20  1  0  0  0  0
M  END
>  <MODEL>
9

>  <REMARK>
 VINA RESULT:      -9.4      2.075      5.220
  Name = 
  1 active torsions:
  status: ('A' for Active; 'I' for Inactive)
    1  A    between atoms: C_6  and  N_15
                            x       y       z     vdW  Elec       q    Type
                         _______ _______ _______ _____ _____    ______ ____

>  <TORSDO>
F 1

$$$$
