=
 OpenBabel10272414213D

 43 47  0  0  1  0  0  0  0  0999 V2000
  191.4660  176.5670  147.0240 C   0  0  0  0  0  0  0  0  0  0  0  0
  187.5030  177.7800  144.0170 C   0  0  0  0  0  0  0  0  0  0  0  0
  188.4400  178.1190  141.4020 N   0  0  0  0  0  0  0  0  0  0  0  0
  189.3190  177.3410  146.2000 C   0  0  0  0  0  0  0  0  0  0  0  0
  191.9310  176.4590  145.6220 C   0  0  0  0  0  3  0  0  0  0  0  0
  192.3160  176.2040  148.0580 O   0  0  0  0  0  1  0  0  0  0  0  0
  189.9430  177.7330  144.8780 C   0  0  1  0  0  3  0  0  0  0  0  0
  190.2160  176.9560  147.3000 C   0  0  0  0  0  3  0  0  0  0  0  0
  191.2030  176.9490  144.6100 C   0  0  0  0  0  3  0  0  0  0  0  0
  189.3830  177.9530  142.4780 C   0  0  0  0  0  3  0  0  0  0  0  0
  188.9610  177.7630  143.7330 C   0  0  0  0  0  0  0  0  0  0  0  0
  187.0660  177.6080  145.2710 C   0  0  0  0  0  3  0  0  0  0  0  0
  186.5540  177.9800  142.8970 C   0  0  0  0  0  0  0  0  0  0  0  0
  187.0290  178.1270  141.6570 C   0  0  0  0  0  3  0  0  0  0  0  0
  187.9960  177.3410  146.3840 C   0  0  0  0  0  3  0  0  0  0  0  0
  188.8910  178.2260  140.0200 C   0  0  1  0  0  3  0  0  0  0  0  0
  190.0640  177.2970  139.7410 C   0  0  0  0  0  2  0  0  0  0  0  0
  187.5430  177.8530  138.8660 S   0  0  0  0  0  0  0  0  0  0  0  0
  189.9080  176.6990  138.3530 C   0  0  1  0  0  3  0  0  0  0  0  0
  188.7930  177.4320  137.6300 C   0  0  0  0  0  2  0  0  0  0  0  0
  191.2200  176.8230  137.5930 C   0  0  0  0  0  2  0  0  0  0  0  0
  192.0380  175.5280  137.6550 C   0  0  1  0  0  3  0  0  0  0  0  0
  191.4660  175.6780  135.2210 C   0  0  0  0  0  1  0  0  0  0  0  0
  192.1450  174.8230  136.2830 C   0  0  0  0  0  0  0  0  0  0  0  0
  193.6180  174.7050  135.9030 C   0  0  0  0  0  1  0  0  0  0  0  0
  191.4930  173.4290  136.3400 C   0  0  0  0  0  2  0  0  0  0  0  0
  190.0630  173.3910  135.8130 C   0  0  0  0  0  3  0  0  0  0  0  0
  187.6770  173.1050  136.4540 C   0  0  0  0  0  2  0  0  0  0  0  0
  188.3700  172.0350  134.5900 C   0  0  0  0  0  2  0  0  0  0  0  0
  187.6340  171.8710  135.7770 O   0  0  0  0  0  0  0  0  0  0  0  0
  189.8580  172.1710  134.9150 C   0  0  0  0  0  2  0  0  0  0  0  0
  189.0870  173.3540  136.9880 C   0  0  0  0  0  2  0  0  0  0  0  0
  193.3690  175.7580  138.3250 C   0  0  0  0  0  3  0  0  0  0  0  0
  193.6730  176.8540  138.7700 O   0  0  0  0  0  0  0  0  0  0  0  0
  185.0740  177.9360  143.1040 C   0  0  0  0  0  2  0  0  0  0  0  0
  184.1570  179.8180  143.9390 O   0  0  0  0  0  1  0  0  0  0  0  0
  184.4860  179.2240  142.7690 N   0  0  0  0  0  0  0  0  0  0  0  0
  183.2400  178.9640  142.0630 C   0  0  0  0  0  2  0  0  0  0  0  0
  183.5040  178.1180  140.8220 C   0  0  0  0  0  2  0  0  0  0  0  0
  184.5810  179.8630  139.5810 O   0  0  0  0  0  1  0  0  0  0  0  0
  183.5320  178.9440  139.5390 C   0  0  0  0  0  0  0  0  0  0  0  0
  182.3240  179.6210  139.3690 O   0  0  0  0  0  1  0  0  0  0  0  0
  183.7410  178.0130  138.3630 C   0  0  0  0  0  1  0  0  0  0  0  0
  1  8  2  0  0  0  0
  1  6  1  0  0  0  0
  2 12  2  0  0  0  0
  3 14  1  0  0  0  0
  3 10  1  0  0  0  0
  4 15  2  0  0  0  0
  4  8  1  0  0  0  0
  5  1  1  0  0  0  0
  7  9  1  6  0  0  0
  7  4  1  0  0  0  0
  9  5  2  0  0  0  0
 10 11  2  0  0  0  0
 11  2  1  0  0  0  0
 11  7  1  0  0  0  0
 12 15  1  0  0  0  0
 13 35  1  0  0  0  0
 13  2  1  0  0  0  0
 14 13  2  0  0  0  0
 16 17  1  1  0  0  0
 16  3  1  0  0  0  0
 18 16  1  0  0  0  0
 19 21  1  6  0  0  0
 19 17  1  0  0  0  0
 20 19  1  0  0  0  0
 20 18  1  0  0  0  0
 22 21  1  6  0  0  0
 22 33  1  0  0  0  0
 23 24  1  0  0  0  0
 24 26  1  0  0  0  0
 24 22  1  0  0  0  0
 25 24  1  0  0  0  0
 27 26  1  0  0  0  0
 27 32  1  0  0  0  0
 28 32  1  0  0  0  0
 29 31  1  0  0  0  0
 29 30  1  0  0  0  0
 30 28  1  0  0  0  0
 31 27  1  0  0  0  0
 33 34  2  0  0  0  0
 37 35  1  0  0  0  0
 37 36  1  0  0  0  0
 38 37  1  0  0  0  0
 39 38  1  0  0  0  0
 41 40  1  0  0  0  0
 41 39  1  0  0  0  0
 42 41  1  0  0  0  0
 43 41  1  0  0  0  0
M  END
>  <MODEL>
1

>  <REMARK>
 VINA RESULT:      -8.9      0.000      0.000
  Name = 
  12 active torsions:
  status: ('A' for Active; 'I' for Inactive)
    1  A    between atoms: C_1  and  C_34
    2  A    between atoms: C_1  and  N_35
    3  A    between atoms: C_2  and  N_13
    4  A    between atoms: C_3  and  C_4
    5  A    between atoms: C_3  and  C_12
    6  A    between atoms: C_4  and  C_15
    7  A    between atoms: C_4  and  C_22
    8  A    between atoms: C_11  and  C_14
    9  A    between atoms: C_14  and  C_22
   10  A    between atoms: C_19  and  C_39
   11  A    between atoms: C_28  and  N_35
   12  A    between atoms: C_28  and  C_39
                            x       y       z     vdW  Elec       q    Type
                         _______ _______ _______ _____ _____    ______ ____

>  <TORSDO>
F 12

$$$$
=
 OpenBabel10272414213D

 43 47  0  0  1  0  0  0  0  0999 V2000
  191.5090  176.4090  147.1850 C   0  0  0  0  0  0  0  0  0  0  0  0
  187.6680  177.7240  144.0650 C   0  0  0  0  0  0  0  0  0  0  0  0
  188.6710  177.9420  141.4620 N   0  0  0  0  0  0  0  0  0  0  0  0
  189.4180  177.2610  146.2970 C   0  0  0  0  0  0  0  0  0  0  0  0
  191.9950  176.2380  145.7970 C   0  0  0  0  0  3  0  0  0  0  0  0
  192.3200  176.0350  148.2470 O   0  0  0  0  0  1  0  0  0  0  0  0
  190.0850  177.5850  144.9770 C   0  0  1  0  0  3  0  0  0  0  0  0
  190.2740  176.8650  147.4250 C   0  0  0  0  0  3  0  0  0  0  0  0
  191.3110  176.7330  144.7570 C   0  0  0  0  0  3  0  0  0  0  0  0
  189.5830  177.7620  142.5610 C   0  0  0  0  0  3  0  0  0  0  0  0
  189.1290  177.6290  143.8120 C   0  0  0  0  0  0  0  0  0  0  0  0
  187.1990  177.6090  145.3140 C   0  0  0  0  0  3  0  0  0  0  0  0
  186.7520  177.9360  142.9210 C   0  0  0  0  0  0  0  0  0  0  0  0
  187.2570  178.0250  141.6880 C   0  0  0  0  0  3  0  0  0  0  0  0
  188.0940  177.3300  146.4530 C   0  0  0  0  0  3  0  0  0  0  0  0
  189.1520  177.9870  140.0870 C   0  0  1  0  0  3  0  0  0  0  0  0
  190.1070  176.8380  139.7900 C   0  0  0  0  0  2  0  0  0  0  0  0
  187.7710  177.9370  138.9120 S   0  0  0  0  0  0  0  0  0  0  0  0
  189.8460  176.3240  138.3850 C   0  0  1  0  0  3  0  0  0  0  0  0
  188.9220  177.2940  137.6750 C   0  0  0  0  0  2  0  0  0  0  0  0
  191.1650  176.1870  137.6390 C   0  0  0  0  0  2  0  0  0  0  0  0
  191.0840  175.1350  136.5260 C   0  0  1  0  0  3  0  0  0  0  0  0
  192.7600  173.4750  135.6850 C   0  0  0  0  0  1  0  0  0  0  0  0
  192.4220  174.9580  135.7720 C   0  0  0  0  0  0  0  0  0  0  0  0
  192.2550  175.4740  134.3460 C   0  0  0  0  0  1  0  0  0  0  0  0
  193.5510  175.7200  136.4900 C   0  0  0  0  0  2  0  0  0  0  0  0
  194.7340  174.8440  136.8890 C   0  0  0  0  0  3  0  0  0  0  0  0
  196.2300  174.1980  138.7680 C   0  0  0  0  0  2  0  0  0  0  0  0
  197.2050  174.5670  136.7650 C   0  0  0  0  0  2  0  0  0  0  0  0
  197.3120  174.8440  138.1400 O   0  0  0  0  0  0  0  0  0  0  0  0
  196.0050  175.3090  136.1770 C   0  0  0  0  0  2  0  0  0  0  0  0
  194.9240  174.9030  138.4040 C   0  0  0  0  0  2  0  0  0  0  0  0
  190.5030  173.8430  137.0430 C   0  0  0  0  0  3  0  0  0  0  0  0
  189.5920  173.2790  136.4560 O   0  0  0  0  0  0  0  0  0  0  0  0
  185.2670  177.9690  143.0990 C   0  0  0  0  0  2  0  0  0  0  0  0
  184.4630  179.8950  143.9510 O   0  0  0  0  0  1  0  0  0  0  0  0
  184.7560  179.2930  142.7760 N   0  0  0  0  0  0  0  0  0  0  0  0
  183.4970  179.1130  142.0680 C   0  0  0  0  0  2  0  0  0  0  0  0
  183.6870  178.1700  140.8850 C   0  0  0  0  0  2  0  0  0  0  0  0
  184.6290  179.9050  139.5250 O   0  0  0  0  0  1  0  0  0  0  0  0
  183.6670  178.8940  139.5410 C   0  0  0  0  0  0  0  0  0  0  0  0
  182.4080  179.4450  139.3040 O   0  0  0  0  0  1  0  0  0  0  0  0
  183.9810  177.8990  138.4450 C   0  0  0  0  0  1  0  0  0  0  0  0
  1  8  2  0  0  0  0
  1  6  1  0  0  0  0
  2 12  2  0  0  0  0
  3 14  1  0  0  0  0
  3 10  1  0  0  0  0
  4 15  2  0  0  0  0
  4  8  1  0  0  0  0
  5  1  1  0  0  0  0
  7  9  1  6  0  0  0
  7  4  1  0  0  0  0
  9  5  2  0  0  0  0
 10 11  2  0  0  0  0
 11  2  1  0  0  0  0
 11  7  1  0  0  0  0
 12 15  1  0  0  0  0
 13 35  1  0  0  0  0
 13  2  1  0  0  0  0
 14 13  2  0  0  0  0
 16 17  1  6  0  0  0
 16  3  1  0  0  0  0
 18 16  1  0  0  0  0
 19 21  1  6  0  0  0
 19 17  1  0  0  0  0
 20 19  1  0  0  0  0
 20 18  1  0  0  0  0
 22 33  1  1  0  0  0
 22 21  1  0  0  0  0
 23 24  1  0  0  0  0
 24 26  1  0  0  0  0
 24 22  1  0  0  0  0
 25 24  1  0  0  0  0
 26 27  1  0  0  0  0
 27 32  1  0  0  0  0
 29 30  1  0  0  0  0
 30 28  1  0  0  0  0
 31 29  1  0  0  0  0
 31 27  1  0  0  0  0
 32 28  1  0  0  0  0
 34 33  2  0  0  0  0
 37 35  1  0  0  0  0
 37 36  1  0  0  0  0
 38 37  1  0  0  0  0
 39 38  1  0  0  0  0
 40 41  1  0  0  0  0
 41 39  1  0  0  0  0
 42 41  1  0  0  0  0
 43 41  1  0  0  0  0
M  END
>  <MODEL>
2

>  <REMARK>
 VINA RESULT:      -8.8      1.279      3.286
  Name = 
  12 active torsions:
  status: ('A' for Active; 'I' for Inactive)
    1  A    between atoms: C_1  and  C_34
    2  A    between atoms: C_1  and  N_35
    3  A    between atoms: C_2  and  N_13
    4  A    between atoms: C_3  and  C_4
    5  A    between atoms: C_3  and  C_12
    6  A    between atoms: C_4  and  C_15
    7  A    between atoms: C_4  and  C_22
    8  A    between atoms: C_11  and  C_14
    9  A    between atoms: C_14  and  C_22
   10  A    between atoms: C_19  and  C_39
   11  A    between atoms: C_28  and  N_35
   12  A    between atoms: C_28  and  C_39
                            x       y       z     vdW  Elec       q    Type
                         _______ _______ _______ _____ _____    ______ ____

>  <TORSDO>
F 12

$$$$
=
 OpenBabel10272414213D

 43 47  0  0  1  0  0  0  0  0999 V2000
  191.5270  176.4120  147.2110 C   0  0  0  0  0  0  0  0  0  0  0  0
  187.6040  177.7650  144.2130 C   0  0  0  0  0  0  0  0  0  0  0  0
  188.5500  178.0850  141.5980 N   0  0  0  0  0  0  0  0  0  0  0  0
  189.4050  177.2580  146.3930 C   0  0  0  0  0  0  0  0  0  0  0  0
  191.9870  176.2950  145.8090 C   0  0  0  0  0  3  0  0  0  0  0  0
  192.3650  176.0170  148.2440 O   0  0  0  0  0  1  0  0  0  0  0  0
  190.0410  177.6360  145.0720 C   0  0  1  0  0  3  0  0  0  0  0  0
  190.2900  176.8400  147.4900 C   0  0  0  0  0  3  0  0  0  0  0  0
  191.2750  176.8120  144.7990 C   0  0  0  0  0  3  0  0  0  0  0  0
  189.4870  177.8840  142.6730 C   0  0  0  0  0  3  0  0  0  0  0  0
  189.0600  177.7020  143.9270 C   0  0  0  0  0  0  0  0  0  0  0  0
  187.1620  177.6010  145.4660 C   0  0  0  0  0  3  0  0  0  0  0  0
  186.6610  178.0000  143.0940 C   0  0  0  0  0  0  0  0  0  0  0  0
  187.1400  178.1370  141.8550 C   0  0  0  0  0  3  0  0  0  0  0  0
  188.0830  177.3000  146.5770 C   0  0  0  0  0  3  0  0  0  0  0  0
  189.0020  178.1830  140.2170 C   0  0  1  0  0  3  0  0  0  0  0  0
  190.0760  177.1490  139.9050 C   0  0  0  0  0  2  0  0  0  0  0  0
  187.6190  177.9770  139.0620 S   0  0  0  0  0  0  0  0  0  0  0  0
  189.8540  176.6070  138.5030 C   0  0  1  0  0  3  0  0  0  0  0  0
  188.8160  177.4670  137.8080 C   0  0  0  0  0  2  0  0  0  0  0  0
  191.1690  176.6200  137.7370 C   0  0  0  0  0  2  0  0  0  0  0  0
  191.2370  175.4890  136.7040 C   0  0  1  0  0  3  0  0  0  0  0  0
  192.4990  175.6940  134.5500 C   0  0  0  0  0  1  0  0  0  0  0  0
  192.6260  175.3740  136.0340 C   0  0  0  0  0  0  0  0  0  0  0  0
  193.5570  176.4140  136.6490 C   0  0  0  0  0  1  0  0  0  0  0  0
  193.2020  173.9580  136.2250 C   0  0  0  0  0  2  0  0  0  0  0  0
  194.6770  173.9360  136.6110 C   0  0  0  0  0  3  0  0  0  0  0  0
  196.8000  172.6550  136.4150 C   0  0  0  0  0  2  0  0  0  0  0  0
  196.3040  173.5080  138.4460 C   0  0  0  0  0  2  0  0  0  0  0  0
  196.7510  172.3480  137.7890 O   0  0  0  0  0  0  0  0  0  0  0  0
  194.8300  173.7540  138.1210 C   0  0  0  0  0  2  0  0  0  0  0  0
  195.3810  172.8020  135.8670 C   0  0  0  0  0  2  0  0  0  0  0  0
  190.7330  174.1910  137.2840 C   0  0  0  0  0  3  0  0  0  0  0  0
  189.7140  173.6640  136.8650 O   0  0  0  0  0  0  0  0  0  0  0  0
  185.1800  178.0020  143.3020 C   0  0  0  0  0  2  0  0  0  0  0  0
  184.5020  180.1000  143.7730 O   0  0  0  0  0  1  0  0  0  0  0  0
  184.6020  179.2190  142.7510 N   0  0  0  0  0  0  0  0  0  0  0  0
  183.2450  178.9050  142.3300 C   0  0  0  0  0  2  0  0  0  0  0  0
  182.2910  178.9930  143.5160 C   0  0  0  0  0  2  0  0  0  0  0  0
  180.6470  178.3860  141.8800 O   0  0  0  0  0  1  0  0  0  0  0  0
  180.8250  179.0530  143.0930 C   0  0  0  0  0  0  0  0  0  0  0  0
  180.4100  180.3780  142.9630 O   0  0  0  0  0  1  0  0  0  0  0  0
  179.9820  178.3770  144.1540 C   0  0  0  0  0  1  0  0  0  0  0  0
  1  8  2  0  0  0  0
  1  6  1  0  0  0  0
  2 12  2  0  0  0  0
  3 14  1  0  0  0  0
  3 10  1  0  0  0  0
  4 15  2  0  0  0  0
  4  8  1  0  0  0  0
  5  1  1  0  0  0  0
  7  9  1  6  0  0  0
  7  4  1  0  0  0  0
  9  5  2  0  0  0  0
 10 11  2  0  0  0  0
 11  2  1  0  0  0  0
 11  7  1  0  0  0  0
 12 15  1  0  0  0  0
 13 35  1  0  0  0  0
 13  2  1  0  0  0  0
 14 13  2  0  0  0  0
 16 17  1  6  0  0  0
 16  3  1  0  0  0  0
 18 16  1  0  0  0  0
 19 21  1  6  0  0  0
 19 17  1  0  0  0  0
 20 19  1  0  0  0  0
 20 18  1  0  0  0  0
 22 33  1  1  0  0  0
 22 21  1  0  0  0  0
 23 24  1  0  0  0  0
 24 26  1  0  0  0  0
 24 25  1  0  0  0  0
 24 22  1  0  0  0  0
 26 27  1  0  0  0  0
 27 31  1  0  0  0  0
 28 30  1  0  0  0  0
 30 29  1  0  0  0  0
 31 29  1  0  0  0  0
 32 28  1  0  0  0  0
 32 27  1  0  0  0  0
 34 33  2  0  0  0  0
 37 35  1  0  0  0  0
 37 36  1  0  0  0  0
 38 37  1  0  0  0  0
 38 39  1  0  0  0  0
 40 41  1  0  0  0  0
 41 39  1  0  0  0  0
 41 43  1  0  0  0  0
 42 41  1  0  0  0  0
M  END
>  <MODEL>
3

>  <REMARK>
 VINA RESULT:      -8.6      1.876      3.480
  Name = 
  12 active torsions:
  status: ('A' for Active; 'I' for Inactive)
    1  A    between atoms: C_1  and  C_34
    2  A    between atoms: C_1  and  N_35
    3  A    between atoms: C_2  and  N_13
    4  A    between atoms: C_3  and  C_4
    5  A    between atoms: C_3  and  C_12
    6  A    between atoms: C_4  and  C_15
    7  A    between atoms: C_4  and  C_22
    8  A    between atoms: C_11  and  C_14
    9  A    between atoms: C_14  and  C_22
   10  A    between atoms: C_19  and  C_39
   11  A    between atoms: C_28  and  N_35
   12  A    between atoms: C_28  and  C_39
                            x       y       z     vdW  Elec       q    Type
                         _______ _______ _______ _____ _____    ______ ____

>  <TORSDO>
F 12

$$$$
=
 OpenBabel10272414213D

 43 47  0  0  1  0  0  0  0  0999 V2000
  191.4700  176.6000  147.0930 C   0  0  0  0  0  0  0  0  0  0  0  0
  189.6530  177.2810  142.3550 C   0  0  0  0  0  0  0  0  0  0  0  0
  187.0470  178.2850  142.5360 N   0  0  0  0  0  0  0  0  0  0  0  0
  191.0940  176.4570  144.7000 C   0  0  0  0  0  0  0  0  0  0  0  0
  190.2220  177.3890  147.2120 C   0  0  0  0  0  3  0  0  0  0  0  0
  192.2300  176.3430  148.2250 O   0  0  0  0  0  1  0  0  0  0  0  0
  189.6250  176.7680  144.8900 C   0  0  1  0  0  3  0  0  0  0  0  0
  191.9020  176.1830  145.8970 C   0  0  0  0  0  3  0  0  0  0  0  0
  189.3830  177.5200  146.1760 C   0  0  0  0  0  3  0  0  0  0  0  0
  187.7180  177.8330  143.7280 C   0  0  0  0  0  3  0  0  0  0  0  0
  188.9730  177.3730  143.6720 C   0  0  0  0  0  0  0  0  0  0  0  0
  190.9030  176.8080  142.2810 C   0  0  0  0  0  3  0  0  0  0  0  0
  188.9310  177.7270  141.1400 C   0  0  0  0  0  0  0  0  0  0  0  0
  187.6930  178.2130  141.2580 C   0  0  0  0  0  3  0  0  0  0  0  0
  191.6570  176.4250  143.4900 C   0  0  0  0  0  3  0  0  0  0  0  0
  185.7180  178.8790  142.6040 C   0  0  1  0  0  3  0  0  0  0  0  0
  184.8120  178.3480  141.5010 C   0  0  0  0  0  2  0  0  0  0  0  0
  184.9460  178.5660  144.2150 S   0  0  0  0  0  0  0  0  0  0  0  0
  183.4110  178.1540  142.0560 C   0  0  1  0  0  3  0  0  0  0  0  0
  183.3370  178.8020  143.4260 C   0  0  0  0  0  2  0  0  0  0  0  0
  182.3950  178.7750  141.1080 C   0  0  0  0  0  2  0  0  0  0  0  0
  182.6860  178.4140  139.6460 C   0  0  1  0  0  3  0  0  0  0  0  0
  180.2920  177.6910  139.7820 C   0  0  0  0  0  1  0  0  0  0  0  0
  181.6030  177.4990  139.0290 C   0  0  0  0  0  0  0  0  0  0  0  0
  181.3660  177.9220  137.5830 C   0  0  0  0  0  1  0  0  0  0  0  0
  182.0420  176.0240  139.0920 C   0  0  0  0  0  2  0  0  0  0  0  0
  182.4420  175.4380  137.7420 C   0  0  0  0  0  3  0  0  0  0  0  0
  182.2430  173.4500  136.2610 C   0  0  0  0  0  2  0  0  0  0  0  0
  184.2850  174.3990  136.4300 C   0  0  0  0  0  2  0  0  0  0  0  0
  183.6100  173.1650  136.4450 O   0  0  0  0  0  0  0  0  0  0  0  0
  183.9490  175.1910  137.6950 C   0  0  0  0  0  2  0  0  0  0  0  0
  181.6830  174.1320  137.5090 C   0  0  0  0  0  2  0  0  0  0  0  0
  182.9760  179.6480  138.8290 C   0  0  0  0  0  3  0  0  0  0  0  0
  183.9830  180.3120  139.0220 O   0  0  0  0  0  0  0  0  0  0  0  0
  189.5840  177.7280  139.7940 C   0  0  0  0  0  2  0  0  0  0  0  0
  190.7090  175.9750  138.9330 O   0  0  0  0  0  1  0  0  0  0  0  0
  189.4540  176.4170  139.1780 N   0  0  0  0  0  0  0  0  0  0  0  0
  188.8130  176.6040  137.8850 C   0  0  0  0  0  2  0  0  0  0  0  0
  188.8100  178.0820  137.5070 C   0  0  0  0  0  2  0  0  0  0  0  0
  187.4320  177.9590  135.5500 O   0  0  0  0  0  1  0  0  0  0  0  0
  187.5140  178.5160  136.8270 C   0  0  0  0  0  0  0  0  0  0  0  0
  187.4560  179.9070  136.7350 O   0  0  0  0  0  1  0  0  0  0  0  0
  186.3420  178.0300  137.6530 C   0  0  0  0  0  1  0  0  0  0  0  0
  1  5  1  0  0  0  0
  1  6  1  0  0  0  0
  2 11  1  0  0  0  0
  3 16  1  0  0  0  0
  3 10  1  0  0  0  0
  4  7  1  0  0  0  0
  4  8  1  0  0  0  0
  7  9  1  1  0  0  0
  8  1  2  0  0  0  0
  9  5  2  0  0  0  0
 11 10  2  0  0  0  0
 11  7  1  0  0  0  0
 12  2  2  0  0  0  0
 12 15  1  0  0  0  0
 13 14  2  0  0  0  0
 13  2  1  0  0  0  0
 14  3  1  0  0  0  0
 15  4  2  0  0  0  0
 16 17  1  6  0  0  0
 16 18  1  0  0  0  0
 17 19  1  0  0  0  0
 19 21  1  6  0  0  0
 19 20  1  0  0  0  0
 20 18  1  0  0  0  0
 22 33  1  6  0  0  0
 22 21  1  0  0  0  0
 24 26  1  0  0  0  0
 24 22  1  0  0  0  0
 24 23  1  0  0  0  0
 25 24  1  0  0  0  0
 27 26  1  0  0  0  0
 28 30  1  0  0  0  0
 28 32  1  0  0  0  0
 29 30  1  0  0  0  0
 29 31  1  0  0  0  0
 31 27  1  0  0  0  0
 32 27  1  0  0  0  0
 33 34  2  0  0  0  0
 35 13  1  0  0  0  0
 36 37  1  0  0  0  0
 37 35  1  0  0  0  0
 38 37  1  0  0  0  0
 39 38  1  0  0  0  0
 40 41  1  0  0  0  0
 41 39  1  0  0  0  0
 41 43  1  0  0  0  0
 42 41  1  0  0  0  0
M  END
>  <MODEL>
4

>  <REMARK>
 VINA RESULT:      -8.6      2.810      6.581
  Name = 
  12 active torsions:
  status: ('A' for Active; 'I' for Inactive)
    1  A    between atoms: C_1  and  C_34
    2  A    between atoms: C_1  and  N_35
    3  A    between atoms: C_2  and  N_13
    4  A    between atoms: C_3  and  C_4
    5  A    between atoms: C_3  and  C_12
    6  A    between atoms: C_4  and  C_15
    7  A    between atoms: C_4  and  C_22
    8  A    between atoms: C_11  and  C_14
    9  A    between atoms: C_14  and  C_22
   10  A    between atoms: C_19  and  C_39
   11  A    between atoms: C_28  and  N_35
   12  A    between atoms: C_28  and  C_39
                            x       y       z     vdW  Elec       q    Type
                         _______ _______ _______ _____ _____    ______ ____

>  <TORSDO>
F 12

$$$$
=
 OpenBabel10272414213D

 43 47  0  0  1  0  0  0  0  0999 V2000
  182.0300  178.8450  143.1560 C   0  0  0  0  0  0  0  0  0  0  0  0
  184.6580  178.1550  138.8160 C   0  0  0  0  0  0  0  0  0  0  0  0
  187.3890  178.3880  139.3820 N   0  0  0  0  0  0  0  0  0  0  0  0
  182.6740  178.7030  140.8210 C   0  0  0  0  0  0  0  0  0  0  0  0
  183.4560  178.6890  143.5280 C   0  0  0  0  0  3  0  0  0  0  0  0
  181.0710  178.9580  144.1520 O   0  0  0  0  0  1  0  0  0  0  0  0
  184.0990  179.0770  141.1680 C   0  0  1  0  0  3  0  0  0  0  0  0
  181.6530  178.8220  141.8720 C   0  0  0  0  0  3  0  0  0  0  0  0
  184.4230  178.7390  142.6030 C   0  0  0  0  0  3  0  0  0  0  0  0
  186.4220  178.7210  140.3970 C   0  0  0  0  0  3  0  0  0  0  0  0
  185.1130  178.5940  140.1610 C   0  0  0  0  0  0  0  0  0  0  0  0
  183.3490  178.0380  138.5600 C   0  0  0  0  0  3  0  0  0  0  0  0
  185.6710  177.8440  137.7810 C   0  0  0  0  0  0  0  0  0  0  0  0
  186.9670  177.9520  138.0820 C   0  0  0  0  0  3  0  0  0  0  0  0
  182.3330  178.2800  139.6010 C   0  0  0  0  0  3  0  0  0  0  0  0
  188.8180  178.4290  139.6650 C   0  0  1  0  0  3  0  0  0  0  0  0
  189.1230  177.9480  141.0770 C   0  0  0  0  0  2  0  0  0  0  0  0
  189.7450  177.4210  138.4760 S   0  0  0  0  0  0  0  0  0  0  0  0
  190.3980  177.1220  141.0580 C   0  0  1  0  0  3  0  0  0  0  0  0
  191.0630  177.2850  139.7050 C   0  0  0  0  0  2  0  0  0  0  0  0
  191.3210  177.5850  142.1760 C   0  0  0  0  0  2  0  0  0  0  0  0
  191.1850  176.7080  143.4270 C   0  0  1  0  0  3  0  0  0  0  0  0
  191.4650  177.2660  145.8520 C   0  0  0  0  0  1  0  0  0  0  0  0
  190.5810  177.4700  144.6280 C   0  0  0  0  0  0  0  0  0  0  0  0
  190.5760  178.9630  144.3130 C   0  0  0  0  0  1  0  0  0  0  0  0
  189.1510  176.9780  144.9170 C   0  0  0  0  0  2  0  0  0  0  0  0
  188.3110  177.9570  145.7300 C   0  0  0  0  0  3  0  0  0  0  0  0
  187.3370  178.4080  147.9740 C   0  0  0  0  0  2  0  0  0  0  0  0
  186.0070  178.7830  146.1870 C   0  0  0  0  0  2  0  0  0  0  0  0
  186.0410  178.1940  147.4640 O   0  0  0  0  0  0  0  0  0  0  0  0
  186.8710  177.9750  145.2180 C   0  0  0  0  0  2  0  0  0  0  0  0
  188.3440  177.5540  147.2040 C   0  0  0  0  0  2  0  0  0  0  0  0
  190.4770  175.4150  143.1090 C   0  0  0  0  0  3  0  0  0  0  0  0
  190.9950  174.3350  143.3460 O   0  0  0  0  0  0  0  0  0  0  0  0
  185.2820  177.3290  136.4310 C   0  0  0  0  0  2  0  0  0  0  0  0
  186.8020  176.2290  135.1810 O   0  0  0  0  0  1  0  0  0  0  0  0
  185.9180  176.0430  136.1880 N   0  0  0  0  0  0  0  0  0  0  0  0
  184.8930  175.1380  135.6880 C   0  0  0  0  0  2  0  0  0  0  0  0
  184.2870  174.3410  136.8370 C   0  0  0  0  0  2  0  0  0  0  0  0
  185.6110  172.7870  138.0930 O   0  0  0  0  0  1  0  0  0  0  0  0
  184.8460  172.9240  136.9340 C   0  0  0  0  0  0  0  0  0  0  0  0
  185.6320  172.6330  135.8190 O   0  0  0  0  0  1  0  0  0  0  0  0
  183.6920  171.9450  136.9880 C   0  0  0  0  0  1  0  0  0  0  0  0
  1  5  1  0  0  0  0
  1  6  1  0  0  0  0
  2 11  1  0  0  0  0
  3 10  1  0  0  0  0
  4  7  1  0  0  0  0
  4  8  1  0  0  0  0
  7  9  1  1  0  0  0
  8  1  2  0  0  0  0
  9  5  2  0  0  0  0
 11 10  2  0  0  0  0
 11  7  1  0  0  0  0
 12  2  2  0  0  0  0
 12 15  1  0  0  0  0
 13 14  2  0  0  0  0
 13  2  1  0  0  0  0
 14  3  1  0  0  0  0
 15  4  2  0  0  0  0
 16  3  1  6  0  0  0
 16 17  1  0  0  0  0
 18 16  1  0  0  0  0
 18 20  1  0  0  0  0
 19 17  1  0  0  0  0
 19 21  1  1  0  0  0
 20 19  1  0  0  0  0
 22 21  1  6  0  0  0
 22 24  1  0  0  0  0
 24 26  1  0  0  0  0
 24 23  1  0  0  0  0
 25 24  1  0  0  0  0
 26 27  1  0  0  0  0
 27 32  1  0  0  0  0
 29 30  1  0  0  0  0
 30 28  1  0  0  0  0
 31 27  1  0  0  0  0
 31 29  1  0  0  0  0
 32 28  1  0  0  0  0
 33 34  2  0  0  0  0
 33 22  1  0  0  0  0
 35 13  1  0  0  0  0
 36 37  1  0  0  0  0
 37 35  1  0  0  0  0
 38 37  1  0  0  0  0
 38 39  1  0  0  0  0
 39 41  1  0  0  0  0
 41 43  1  0  0  0  0
 41 40  1  0  0  0  0
 42 41  1  0  0  0  0
M  END
>  <MODEL>
5

>  <REMARK>
 VINA RESULT:      -8.5      3.151      8.114
  Name = 
  12 active torsions:
  status: ('A' for Active; 'I' for Inactive)
    1  A    between atoms: C_1  and  C_34
    2  A    between atoms: C_1  and  N_35
    3  A    between atoms: C_2  and  N_13
    4  A    between atoms: C_3  and  C_4
    5  A    between atoms: C_3  and  C_12
    6  A    between atoms: C_4  and  C_15
    7  A    between atoms: C_4  and  C_22
    8  A    between atoms: C_11  and  C_14
    9  A    between atoms: C_14  and  C_22
   10  A    between atoms: C_19  and  C_39
   11  A    between atoms: C_28  and  N_35
   12  A    between atoms: C_28  and  C_39
                            x       y       z     vdW  Elec       q    Type
                         _______ _______ _______ _____ _____    ______ ____

>  <TORSDO>
F 12

$$$$
=
 OpenBabel10272414213D

 43 47  0  0  1  0  0  0  0  0999 V2000
  187.9240  177.8750  147.9350 C   0  0  0  0  0  0  0  0  0  0  0  0
  188.1050  177.9210  142.8180 C   0  0  0  0  0  0  0  0  0  0  0  0
  185.5460  178.4960  141.8420 N   0  0  0  0  0  0  0  0  0  0  0  0
  188.5660  177.5070  145.6240 C   0  0  0  0  0  0  0  0  0  0  0  0
  186.6480  178.4550  147.4570 C   0  0  0  0  0  3  0  0  0  0  0  0
  188.1870  177.8240  149.2960 O   0  0  0  0  0  1  0  0  0  0  0  0
  187.1190  177.5860  145.1860 C   0  0  1  0  0  3  0  0  0  0  0  0
  188.8490  177.4520  147.0650 C   0  0  0  0  0  3  0  0  0  0  0  0
  186.2890  178.3760  146.1690 C   0  0  0  0  0  3  0  0  0  0  0  0
  185.7290  178.2430  143.2480 C   0  0  0  0  0  3  0  0  0  0  0  0
  186.9450  177.9920  143.7440 C   0  0  0  0  0  0  0  0  0  0  0  0
  189.3260  177.6550  143.2970 C   0  0  0  0  0  3  0  0  0  0  0  0
  187.8860  178.1580  141.3720 C   0  0  0  0  0  0  0  0  0  0  0  0
  186.6560  178.4430  140.9360 C   0  0  0  0  0  3  0  0  0  0  0  0
  189.5680  177.4840  144.7420 C   0  0  0  0  0  3  0  0  0  0  0  0
  184.2410  178.8690  141.3100 C   0  0  1  0  0  3  0  0  0  0  0  0
  183.8310  177.9690  140.1520 C   0  0  0  0  0  2  0  0  0  0  0  0
  182.9690  178.8000  142.6010 S   0  0  0  0  0  0  0  0  0  0  0  0
  182.3430  177.6800  140.2480 C   0  0  1  0  0  3  0  0  0  0  0  0
  181.7360  178.5930  141.2950 C   0  0  0  0  0  2  0  0  0  0  0  0
  181.6910  177.9030  138.8910 C   0  0  0  0  0  2  0  0  0  0  0  0
  181.4600  176.5830  138.1460 C   0  0  1  0  0  3  0  0  0  0  0  0
  181.7900  175.6400  135.8490 C   0  0  0  0  0  1  0  0  0  0  0  0
  182.4780  176.3530  137.0060 C   0  0  0  0  0  0  0  0  0  0  0  0
  182.9550  177.7070  136.4900 C   0  0  0  0  0  1  0  0  0  0  0  0
  183.6720  175.5200  137.5090 C   0  0  0  0  0  2  0  0  0  0  0  0
  184.0850  174.3960  136.5650 C   0  0  0  0  0  3  0  0  0  0  0  0
  184.6940  171.9880  136.4320 C   0  0  0  0  0  2  0  0  0  0  0  0
  185.9510  173.4290  135.2310 C   0  0  0  0  0  2  0  0  0  0  0  0
  186.0210  172.3330  136.1090 O   0  0  0  0  0  0  0  0  0  0  0  0
  185.4720  174.6700  135.9850 C   0  0  0  0  0  2  0  0  0  0  0  0
  184.0810  173.0680  137.3220 C   0  0  0  0  0  2  0  0  0  0  0  0
  181.3540  175.4270  139.1090 C   0  0  0  0  0  3  0  0  0  0  0  0
  180.2720  175.0590  139.5390 O   0  0  0  0  0  0  0  0  0  0  0  0
  189.0210  178.1730  140.3970 C   0  0  0  0  0  2  0  0  0  0  0  0
  190.3540  176.3790  140.1060 O   0  0  0  0  0  1  0  0  0  0  0  0
  189.1440  176.8720  139.7580 N   0  0  0  0  0  0  0  0  0  0  0  0
  189.1760  177.0950  138.3200 C   0  0  0  0  0  2  0  0  0  0  0  0
  187.7620  177.0670  137.7500 C   0  0  0  0  0  2  0  0  0  0  0  0
  188.4060  179.3080  137.1920 O   0  0  0  0  0  1  0  0  0  0  0  0
  187.3710  178.3780  137.0730 C   0  0  0  0  0  0  0  0  0  0  0  0
  186.2110  178.8960  137.6490 O   0  0  0  0  0  1  0  0  0  0  0  0
  187.1140  178.1140  135.6050 C   0  0  0  0  0  1  0  0  0  0  0  0
  1  6  1  0  0  0  0
  2 12  2  0  0  0  0
  2 11  1  0  0  0  0
  3 10  1  0  0  0  0
  4  8  1  0  0  0  0
  5  1  1  0  0  0  0
  7  4  1  0  0  0  0
  7  9  1  1  0  0  0
  8  1  2  0  0  0  0
  9  5  2  0  0  0  0
 10 11  2  0  0  0  0
 11  7  1  0  0  0  0
 12 15  1  0  0  0  0
 13  2  1  0  0  0  0
 14 13  2  0  0  0  0
 14  3  1  0  0  0  0
 15  4  2  0  0  0  0
 16 17  1  6  0  0  0
 16  3  1  0  0  0  0
 16 18  1  0  0  0  0
 17 19  1  0  0  0  0
 19 21  1  6  0  0  0
 19 20  1  0  0  0  0
 20 18  1  0  0  0  0
 22 21  1  1  0  0  0
 22 33  1  0  0  0  0
 23 24  1  0  0  0  0
 24 26  1  0  0  0  0
 24 22  1  0  0  0  0
 25 24  1  0  0  0  0
 27 32  1  0  0  0  0
 27 26  1  0  0  0  0
 28 32  1  0  0  0  0
 29 31  1  0  0  0  0
 29 30  1  0  0  0  0
 30 28  1  0  0  0  0
 31 27  1  0  0  0  0
 33 34  2  0  0  0  0
 35 13  1  0  0  0  0
 37 36  1  0  0  0  0
 37 35  1  0  0  0  0
 38 37  1  0  0  0  0
 39 38  1  0  0  0  0
 41 40  1  0  0  0  0
 41 42  1  0  0  0  0
 41 39  1  0  0  0  0
 43 41  1  0  0  0  0
M  END
>  <MODEL>
6

>  <REMARK>
 VINA RESULT:      -8.5      2.939      6.279
  Name = 
  12 active torsions:
  status: ('A' for Active; 'I' for Inactive)
    1  A    between atoms: C_1  and  C_34
    2  A    between atoms: C_1  and  N_35
    3  A    between atoms: C_2  and  N_13
    4  A    between atoms: C_3  and  C_4
    5  A    between atoms: C_3  and  C_12
    6  A    between atoms: C_4  and  C_15
    7  A    between atoms: C_4  and  C_22
    8  A    between atoms: C_11  and  C_14
    9  A    between atoms: C_14  and  C_22
   10  A    between atoms: C_19  and  C_39
   11  A    between atoms: C_28  and  N_35
   12  A    between atoms: C_28  and  C_39
                            x       y       z     vdW  Elec       q    Type
                         _______ _______ _______ _____ _____    ______ ____

>  <TORSDO>
F 12

$$$$
=
 OpenBabel10272414213D

 43 47  0  0  1  0  0  0  0  0999 V2000
  181.9260  179.1790  142.0980 C   0  0  0  0  0  0  0  0  0  0  0  0
  185.9660  178.3500  145.1320 C   0  0  0  0  0  0  0  0  0  0  0  0
  188.0930  177.4450  143.5550 N   0  0  0  0  0  0  0  0  0  0  0  0
  183.3480  178.7370  144.0140 C   0  0  0  0  0  0  0  0  0  0  0  0
  183.1010  178.9820  141.2190 C   0  0  0  0  0  3  0  0  0  0  0  0
  180.7010  179.5140  141.5410 O   0  0  0  0  0  1  0  0  0  0  0  0
  184.3570  178.0350  143.1310 C   0  0  1  0  0  3  0  0  0  0  0  0
  182.0470  179.0930  143.4280 C   0  0  0  0  0  3  0  0  0  0  0  0
  184.2550  178.5030  141.7000 C   0  0  0  0  0  3  0  0  0  0  0  0
  186.7830  177.5780  142.9720 C   0  0  0  0  0  3  0  0  0  0  0  0
  185.7560  178.0320  143.6970 C   0  0  0  0  0  0  0  0  0  0  0  0
  184.9430  178.7910  145.8750 C   0  0  0  0  0  3  0  0  0  0  0  0
  187.3170  178.1800  145.7160 C   0  0  0  0  0  0  0  0  0  0  0  0
  188.3170  177.7580  144.9370 C   0  0  0  0  0  3  0  0  0  0  0  0
  183.6100  179.0290  145.2900 C   0  0  0  0  0  3  0  0  0  0  0  0
  189.2380  177.0460  142.7460 C   0  0  1  0  0  3  0  0  0  0  0  0
  188.9300  177.1400  141.2580 C   0  0  0  0  0  2  0  0  0  0  0  0
  190.6890  178.0660  143.1230 S   0  0  0  0  0  0  0  0  0  0  0  0
  190.1550  177.6630  140.5270 C   0  0  1  0  0  3  0  0  0  0  0  0
  191.3320  177.6570  141.4840 C   0  0  0  0  0  2  0  0  0  0  0  0
  190.4380  176.7900  139.3140 C   0  0  0  0  0  2  0  0  0  0  0  0
  189.9120  177.4240  138.0200 C   0  0  1  0  0  3  0  0  0  0  0  0
  189.1720  176.8780  135.6910 C   0  0  0  0  0  1  0  0  0  0  0  0
  189.1190  176.4260  137.1460 C   0  0  0  0  0  0  0  0  0  0  0  0
  189.7910  175.0590  137.2240 C   0  0  0  0  0  1  0  0  0  0  0  0
  187.6580  176.3340  137.6210 C   0  0  0  0  0  2  0  0  0  0  0  0
  186.6740  175.9320  136.5280 C   0  0  0  0  0  3  0  0  0  0  0  0
  184.6250  176.6200  135.2980 C   0  0  0  0  0  2  0  0  0  0  0  0
  184.7490  174.4620  135.9500 C   0  0  0  0  0  2  0  0  0  0  0  0
  183.8980  175.5810  135.9090 O   0  0  0  0  0  0  0  0  0  0  0  0
  185.8750  174.7010  136.9570 C   0  0  0  0  0  2  0  0  0  0  0  0
  185.7320  177.0990  136.2360 C   0  0  0  0  0  2  0  0  0  0  0  0
  189.1700  178.7050  138.3070 C   0  0  0  0  0  3  0  0  0  0  0  0
  188.9840  179.5380  137.4330 O   0  0  0  0  0  0  0  0  0  0  0  0
  187.6130  178.5500  147.1350 C   0  0  0  0  0  2  0  0  0  0  0  0
  187.3780  177.4570  149.0920 O   0  0  0  0  0  1  0  0  0  0  0  0
  187.9900  177.3650  147.8900 N   0  0  0  0  0  0  0  0  0  0  0  0
  189.4220  177.4450  148.1380 C   0  0  0  0  0  2  0  0  0  0  0  0
  190.1410  176.2850  147.4570 C   0  0  0  0  0  2  0  0  0  0  0  0
  192.0690  177.4260  148.3090 O   0  0  0  0  0  1  0  0  0  0  0  0
  191.6480  176.5030  147.3510 C   0  0  0  0  0  0  0  0  0  0  0  0
  191.9840  176.9660  146.0780 O   0  0  0  0  0  1  0  0  0  0  0  0
  192.3510  175.1850  147.5940 C   0  0  0  0  0  1  0  0  0  0  0  0
  1  8  2  0  0  0  0
  2 13  1  0  0  0  0
  2 12  2  0  0  0  0
  3 14  1  0  0  0  0
  4 15  2  0  0  0  0
  5  9  2  0  0  0  0
  5  1  1  0  0  0  0
  6  1  1  0  0  0  0
  7  9  1  6  0  0  0
  7 11  1  0  0  0  0
  7  4  1  0  0  0  0
  8  4  1  0  0  0  0
 10  3  1  0  0  0  0
 10 11  2  0  0  0  0
 11  2  1  0  0  0  0
 13 35  1  0  0  0  0
 14 13  2  0  0  0  0
 15 12  1  0  0  0  0
 16 17  1  6  0  0  0
 16 18  1  0  0  0  0
 16  3  1  0  0  0  0
 19 21  1  6  0  0  0
 19 17  1  0  0  0  0
 19 20  1  0  0  0  0
 20 18  1  0  0  0  0
 22 33  1  1  0  0  0
 22 21  1  0  0  0  0
 23 24  1  0  0  0  0
 24 25  1  0  0  0  0
 24 26  1  0  0  0  0
 24 22  1  0  0  0  0
 27 31  1  0  0  0  0
 27 26  1  0  0  0  0
 28 30  1  0  0  0  0
 28 32  1  0  0  0  0
 29 31  1  0  0  0  0
 30 29  1  0  0  0  0
 32 27  1  0  0  0  0
 34 33  2  0  0  0  0
 35 37  1  0  0  0  0
 37 38  1  0  0  0  0
 37 36  1  0  0  0  0
 39 38  1  0  0  0  0
 41 39  1  0  0  0  0
 41 43  1  0  0  0  0
 41 40  1  0  0  0  0
 42 41  1  0  0  0  0
M  END
>  <MODEL>
7

>  <REMARK>
 VINA RESULT:      -8.4      2.640      6.671
  Name = 
  12 active torsions:
  status: ('A' for Active; 'I' for Inactive)
    1  A    between atoms: C_1  and  C_34
    2  A    between atoms: C_1  and  N_35
    3  A    between atoms: C_2  and  N_13
    4  A    between atoms: C_3  and  C_4
    5  A    between atoms: C_3  and  C_12
    6  A    between atoms: C_4  and  C_15
    7  A    between atoms: C_4  and  C_22
    8  A    between atoms: C_11  and  C_14
    9  A    between atoms: C_14  and  C_22
   10  A    between atoms: C_19  and  C_39
   11  A    between atoms: C_28  and  N_35
   12  A    between atoms: C_28  and  C_39
                            x       y       z     vdW  Elec       q    Type
                         _______ _______ _______ _____ _____    ______ ____

>  <TORSDO>
F 12

$$$$
=
 OpenBabel10272414213D

 43 47  0  0  1  0  0  0  0  0999 V2000
  184.1830  178.9510  144.8030 C   0  0  0  0  0  0  0  0  0  0  0  0
  188.9210  177.6110  143.4010 C   0  0  0  0  0  0  0  0  0  0  0  0
  189.1160  177.8120  140.6170 N   0  0  0  0  0  0  0  0  0  0  0  0
  186.4100  177.9910  144.7450 C   0  0  0  0  0  0  0  0  0  0  0  0
  184.3440  179.3360  143.3820 C   0  0  0  0  0  3  0  0  0  0  0  0
  183.0140  179.2810  145.4750 O   0  0  0  0  0  1  0  0  0  0  0  0
  186.3550  177.8990  143.2360 C   0  0  1  0  0  3  0  0  0  0  0  0
  185.1740  178.3390  145.4610 C   0  0  0  0  0  3  0  0  0  0  0  0
  185.3820  178.8970  142.6580 C   0  0  0  0  0  3  0  0  0  0  0  0
  187.8310  177.9570  141.2510 C   0  0  0  0  0  3  0  0  0  0  0  0
  187.7150  177.8910  142.5810 C   0  0  0  0  0  0  0  0  0  0  0  0
  188.8170  177.5260  144.7330 C   0  0  0  0  0  3  0  0  0  0  0  0
  190.2270  177.4380  142.7230 C   0  0  0  0  0  0  0  0  0  0  0  0
  190.2930  177.5510  141.3940 C   0  0  0  0  0  3  0  0  0  0  0  0
  187.5360  177.7620  145.4250 C   0  0  0  0  0  3  0  0  0  0  0  0
  189.2660  177.9810  139.1770 C   0  0  1  0  0  3  0  0  0  0  0  0
  190.1240  176.8790  138.5700 C   0  0  0  0  0  2  0  0  0  0  0  0
  187.6510  178.0050  138.3530 S   0  0  0  0  0  0  0  0  0  0  0  0
  189.5440  176.4800  137.2240 C   0  0  1  0  0  3  0  0  0  0  0  0
  188.4820  177.4900  136.8330 C   0  0  0  0  0  2  0  0  0  0  0  0
  190.6540  176.4310  136.1850 C   0  0  0  0  0  2  0  0  0  0  0  0
  190.6090  175.1360  135.3640 C   0  0  1  0  0  3  0  0  0  0  0  0
  191.8930  173.2390  134.3510 C   0  0  0  0  0  1  0  0  0  0  0  0
  191.9650  174.3950  135.3410 C   0  0  0  0  0  0  0  0  0  0  0  0
  193.0430  175.3550  134.8460 C   0  0  0  0  0  1  0  0  0  0  0  0
  192.3180  173.8710  136.7450 C   0  0  0  0  0  2  0  0  0  0  0  0
  193.8060  173.9290  137.0730 C   0  0  0  0  0  3  0  0  0  0  0  0
  195.7720  172.5870  137.7930 C   0  0  0  0  0  2  0  0  0  0  0  0
  195.5020  174.6070  138.7660 C   0  0  0  0  0  2  0  0  0  0  0  0
  195.7860  173.2560  139.0330 O   0  0  0  0  0  0  0  0  0  0  0  0
  194.0420  174.7560  138.3370 C   0  0  0  0  0  2  0  0  0  0  0  0
  194.3420  172.5100  137.2620 C   0  0  0  0  0  2  0  0  0  0  0  0
  189.4490  174.2680  135.7830 C   0  0  0  0  0  3  0  0  0  0  0  0
  188.3910  174.2880  135.1720 O   0  0  0  0  0  0  0  0  0  0  0  0
  191.4910  177.2260  143.4950 C   0  0  0  0  0  2  0  0  0  0  0  0
  190.7110  175.1520  143.0820 O   0  0  0  0  0  1  0  0  0  0  0  0
  191.7800  175.8030  143.5930 N   0  0  0  0  0  0  0  0  0  0  0  0
  191.8410  175.4680  145.0080 C   0  0  0  0  0  2  0  0  0  0  0  0
  191.8230  176.7380  145.8520 C   0  0  0  0  0  2  0  0  0  0  0  0
  190.2200  175.8700  147.4090 O   0  0  0  0  0  1  0  0  0  0  0  0
  191.4760  176.4710  147.3150 C   0  0  0  0  0  0  0  0  0  0  0  0
  191.4790  177.6630  148.0400 O   0  0  0  0  0  1  0  0  0  0  0  0
  192.5130  175.5380  147.9010 C   0  0  0  0  0  1  0  0  0  0  0  0
  1  8  2  0  0  0  0
  1  6  1  0  0  0  0
  2 12  2  0  0  0  0
  3 10  1  0  0  0  0
  3 14  1  0  0  0  0
  4 15  2  0  0  0  0
  4  8  1  0  0  0  0
  5  1  1  0  0  0  0
  7  9  1  6  0  0  0
  7  4  1  0  0  0  0
  9  5  2  0  0  0  0
 10 11  2  0  0  0  0
 11  7  1  0  0  0  0
 11  2  1  0  0  0  0
 12 15  1  0  0  0  0
 13  2  1  0  0  0  0
 13 35  1  0  0  0  0
 14 13  2  0  0  0  0
 16 17  1  6  0  0  0
 16  3  1  0  0  0  0
 18 16  1  0  0  0  0
 19 21  1  6  0  0  0
 19 17  1  0  0  0  0
 20 19  1  0  0  0  0
 20 18  1  0  0  0  0
 22 33  1  1  0  0  0
 22 21  1  0  0  0  0
 23 24  1  0  0  0  0
 24 22  1  0  0  0  0
 24 26  1  0  0  0  0
 25 24  1  0  0  0  0
 26 27  1  0  0  0  0
 27 32  1  0  0  0  0
 27 31  1  0  0  0  0
 28 30  1  0  0  0  0
 29 30  1  0  0  0  0
 31 29  1  0  0  0  0
 32 28  1  0  0  0  0
 34 33  2  0  0  0  0
 35 37  1  0  0  0  0
 36 37  1  0  0  0  0
 37 38  1  0  0  0  0
 38 39  1  0  0  0  0
 39 41  1  0  0  0  0
 41 40  1  0  0  0  0
 41 43  1  0  0  0  0
 41 42  1  0  0  0  0
M  END
>  <MODEL>
8

>  <REMARK>
 VINA RESULT:      -8.0      2.326      6.315
  Name = 
  12 active torsions:
  status: ('A' for Active; 'I' for Inactive)
    1  A    between atoms: C_1  and  C_34
    2  A    between atoms: C_1  and  N_35
    3  A    between atoms: C_2  and  N_13
    4  A    between atoms: C_3  and  C_4
    5  A    between atoms: C_3  and  C_12
    6  A    between atoms: C_4  and  C_15
    7  A    between atoms: C_4  and  C_22
    8  A    between atoms: C_11  and  C_14
    9  A    between atoms: C_14  and  C_22
   10  A    between atoms: C_19  and  C_39
   11  A    between atoms: C_28  and  N_35
   12  A    between atoms: C_28  and  C_39
                            x       y       z     vdW  Elec       q    Type
                         _______ _______ _______ _____ _____    ______ ____

>  <TORSDO>
F 12

$$$$
=
 OpenBabel10272414213D

 43 47  0  0  1  0  0  0  0  0999 V2000
  188.3940  177.5530  146.2720 C   0  0  0  0  0  0  0  0  0  0  0  0
  191.0410  177.3150  141.8960 C   0  0  0  0  0  0  0  0  0  0  0  0
  189.2350  177.0190  139.7780 N   0  0  0  0  0  0  0  0  0  0  0  0
  190.1510  177.2460  144.6270 C   0  0  0  0  0  0  0  0  0  0  0  0
  187.4200  177.6850  145.1640 C   0  0  0  0  0  3  0  0  0  0  0  0
  187.9600  177.6740  147.5840 O   0  0  0  0  0  1  0  0  0  0  0  0
  189.1310  176.8530  143.5800 C   0  0  1  0  0  3  0  0  0  0  0  0
  189.6960  177.3750  146.0190 C   0  0  0  0  0  3  0  0  0  0  0  0
  187.7680  177.4160  143.8990 C   0  0  0  0  0  3  0  0  0  0  0  0
  188.7600  176.9270  141.1350 C   0  0  0  0  0  3  0  0  0  0  0  0
  189.5970  177.0910  142.1640 C   0  0  0  0  0  0  0  0  0  0  0  0
  191.8940  177.4640  142.9170 C   0  0  0  0  0  3  0  0  0  0  0  0
  191.5100  177.3780  140.4910 C   0  0  0  0  0  0  0  0  0  0  0  0
  190.6240  177.2460  139.5010 C   0  0  0  0  0  3  0  0  0  0  0  0
  191.4300  177.4700  144.3170 C   0  0  0  0  0  3  0  0  0  0  0  0
  188.3120  176.9420  138.6530 C   0  0  1  0  0  3  0  0  0  0  0  0
  187.2370  178.0170  138.7360 C   0  0  0  0  0  2  0  0  0  0  0  0
  189.1940  177.0980  137.0760 S   0  0  0  0  0  0  0  0  0  0  0  0
  186.9590  178.5530  137.3430 C   0  0  1  0  0  3  0  0  0  0  0  0
  187.6450  177.6560  136.3300 C   0  0  0  0  0  2  0  0  0  0  0  0
  185.4570  178.5930  137.1010 C   0  0  0  0  0  2  0  0  0  0  0  0
  184.7100  177.5940  137.9930 C   0  0  1  0  0  3  0  0  0  0  0  0
  183.8540  179.7280  138.9840 C   0  0  0  0  0  1  0  0  0  0  0  0
  183.5550  178.2470  138.7850 C   0  0  0  0  0  0  0  0  0  0  0  0
  182.2740  178.1460  137.9640 C   0  0  0  0  0  1  0  0  0  0  0  0
  183.3750  177.5540  140.1490 C   0  0  0  0  0  2  0  0  0  0  0  0
  183.3090  178.5150  141.3300 C   0  0  0  0  0  3  0  0  0  0  0  0
  184.2050  178.9950  143.6000 C   0  0  0  0  0  2  0  0  0  0  0  0
  181.9790  179.2370  143.3070 C   0  0  0  0  0  2  0  0  0  0  0  0
  182.9510  178.6960  144.1680 O   0  0  0  0  0  0  0  0  0  0  0  0
  181.9380  178.4410  142.0020 C   0  0  0  0  0  2  0  0  0  0  0  0
  184.4100  178.1680  142.3310 C   0  0  0  0  0  2  0  0  0  0  0  0
  184.2960  176.3730  137.2110 C   0  0  0  0  0  3  0  0  0  0  0  0
  184.3050  175.2620  137.7200 O   0  0  0  0  0  0  0  0  0  0  0  0
  192.9360  177.6730  140.1520 C   0  0  0  0  0  2  0  0  0  0  0  0
  194.8850  176.5430  140.2490 O   0  0  0  0  0  1  0  0  0  0  0  0
  193.6210  176.4460  139.7760 N   0  0  0  0  0  0  0  0  0  0  0  0
  193.7150  176.4270  138.3240 C   0  0  0  0  0  2  0  0  0  0  0  0
  193.4690  175.0170  137.7970 C   0  0  0  0  0  2  0  0  0  0  0  0
  195.7790  175.2410  137.1960 O   0  0  0  0  0  1  0  0  0  0  0  0
  194.7550  174.3100  137.3760 C   0  0  0  0  0  0  0  0  0  0  0  0
  194.5550  173.6010  136.1920 O   0  0  0  0  0  1  0  0  0  0  0  0
  195.1590  173.3400  138.4660 C   0  0  0  0  0  1  0  0  0  0  0  0
  1  6  1  0  0  0  0
  2 11  1  0  0  0  0
  2 12  2  0  0  0  0
  3 10  1  0  0  0  0
  4  8  1  0  0  0  0
  5  1  1  0  0  0  0
  7  9  1  1  0  0  0
  7  4  1  0  0  0  0
  8  1  2  0  0  0  0
  9  5  2  0  0  0  0
 10 11  2  0  0  0  0
 11  7  1  0  0  0  0
 12 15  1  0  0  0  0
 13  2  1  0  0  0  0
 14  3  1  0  0  0  0
 14 13  2  0  0  0  0
 15  4  2  0  0  0  0
 16 17  1  1  0  0  0
 16  3  1  0  0  0  0
 18 16  1  0  0  0  0
 19 21  1  6  0  0  0
 19 17  1  0  0  0  0
 20 18  1  0  0  0  0
 20 19  1  0  0  0  0
 22 21  1  6  0  0  0
 22 24  1  0  0  0  0
 24 23  1  0  0  0  0
 24 26  1  0  0  0  0
 25 24  1  0  0  0  0
 26 27  1  0  0  0  0
 27 31  1  0  0  0  0
 27 32  1  0  0  0  0
 28 30  1  0  0  0  0
 29 30  1  0  0  0  0
 31 29  1  0  0  0  0
 32 28  1  0  0  0  0
 33 34  2  0  0  0  0
 33 22  1  0  0  0  0
 35 13  1  0  0  0  0
 37 35  1  0  0  0  0
 37 36  1  0  0  0  0
 38 37  1  0  0  0  0
 39 38  1  0  0  0  0
 40 41  1  0  0  0  0
 41 39  1  0  0  0  0
 41 43  1  0  0  0  0
 42 41  1  0  0  0  0
M  END
>  <MODEL>
9

>  <REMARK>
 VINA RESULT:      -7.8      2.792      8.171
  Name = 
  12 active torsions:
  status: ('A' for Active; 'I' for Inactive)
    1  A    between atoms: C_1  and  C_34
    2  A    between atoms: C_1  and  N_35
    3  A    between atoms: C_2  and  N_13
    4  A    between atoms: C_3  and  C_4
    5  A    between atoms: C_3  and  C_12
    6  A    between atoms: C_4  and  C_15
    7  A    between atoms: C_4  and  C_22
    8  A    between atoms: C_11  and  C_14
    9  A    between atoms: C_14  and  C_22
   10  A    between atoms: C_19  and  C_39
   11  A    between atoms: C_28  and  N_35
   12  A    between atoms: C_28  and  C_39
                            x       y       z     vdW  Elec       q    Type
                         _______ _______ _______ _____ _____    ______ ____

>  <TORSDO>
F 12

$$$$
