=
 OpenBabel10272413463D

 30 33  0  0  1  0  0  0  0  0999 V2000
  185.5930  178.3870  139.8000 C   0  0  2  0  0  3  0  0  0  0  0  0
  187.9490  176.1800  142.5870 O   0  0  0  0  0  1  0  0  0  0  0  0
  187.8590  178.5270  141.0980 C   0  0  1  0  0  3  0  0  0  0  0  0
  186.2220  177.3370  138.8900 C   0  0  0  0  0  2  0  0  0  0  0  0
  188.9430  178.9100  137.0150 C   0  0  0  0  0  2  0  0  0  0  0  0
  187.8820  178.9020  138.0260 N   0  0  0  0  0  2  0  0  0  0  0  0
  188.2250  176.4150  137.8080 C   0  0  0  0  0  2  0  0  0  0  0  0
  184.3550  177.7110  142.5050 F   0  0  0  0  0  0  0  0  0  0  0  0
  187.9480  177.4410  143.1930 C   0  0  2  0  0  3  0  0  0  0  0  0
  187.7190  177.5840  138.6800 C   0  0  2  0  0  0  0  0  0  0  0  0
  188.4500  177.5510  140.0510 C   0  0  1  0  0  3  0  0  0  0  0  0
  185.7580  179.6130  142.0420 C   0  0  0  0  0  2  0  0  0  0  0  0
  188.5960  177.9730  135.8560 C   0  0  0  0  0  2  0  0  0  0  0  0
  187.9400  176.6750  136.3320 C   0  0  0  0  0  2  0  0  0  0  0  0
  186.3150  178.5110  141.1530 C   0  0  1  0  0  0  0  0  0  0  0  0
  186.5530  177.8310  143.6600 C   0  0  0  0  0  2  0  0  0  0  0  0
  188.5130  178.4370  142.3590 O   0  0  0  0  0  0  0  0  0  0  0  0
  185.6560  178.1600  142.4790 C   0  0  2  0  0  0  0  0  0  0  0  0
  183.6040  179.6440  139.1410 C   0  0  0  0  0  0  0  0  0  0  0  0
  184.4720  180.6750  138.7930 O   0  0  0  0  0  1  0  0  0  0  0  0
  184.0830  178.5120  139.6960 C   0  0  0  0  0  0  0  0  0  0  0  0
  181.8320  177.7570  140.6720 C   0  0  0  0  0  1  0  0  0  0  0  0
  182.8280  176.5110  138.7870 C   0  0  0  0  0  1  0  0  0  0  0  0
  183.1410  177.3510  140.0150 C   0  0  0  0  0  3  0  0  0  0  0  0
  182.1520  179.8340  138.8350 C   0  0  0  0  0  2  0  0  0  0  0  0
  181.9250  181.1530  138.4430 O   0  0  0  0  0  1  0  0  0  0  0  0
  190.5440  176.4980  139.0560 C   0  0  0  0  0  1  0  0  0  0  0  0
  189.9880  177.6220  139.9140 C   0  0  2  0  0  3  0  0  0  0  0  0
  190.7610  177.7870  141.2250 C   0  0  0  0  0  2  0  0  0  0  0  0
  192.1310  177.5920  141.0420 O   0  0  0  0  0  1  0  0  0  0  0  0
  1 21  1  1  0  0  0
  1 15  1  0  0  0  0
  3 15  1  0  0  0  0
  3 17  1  1  0  0  0
  4  1  1  0  0  0  0
  5  6  1  0  0  0  0
  6 10  1  0  0  0  0
  9  2  1  6  0  0  0
  9 16  1  0  0  0  0
 10  7  1  6  0  0  0
 10  4  1  0  0  0  0
 10 11  1  0  0  0  0
 11 28  1  6  0  0  0
 11  3  1  0  0  0  0
 12 18  1  0  0  0  0
 13 14  1  0  0  0  0
 13  5  1  0  0  0  0
 14  7  1  0  0  0  0
 15 12  1  1  0  0  0
 15 18  1  0  0  0  0
 17  9  1  0  0  0  0
 18  8  1  6  0  0  0
 18 16  1  0  0  0  0
 19 21  2  0  0  0  0
 20 19  1  0  0  0  0
 21 24  1  0  0  0  0
 23 24  1  0  0  0  0
 24 22  1  0  0  0  0
 25 19  1  0  0  0  0
 26 25  1  0  0  0  0
 28 27  1  1  0  0  0
 28 29  1  0  0  0  0
 30 29  1  0  0  0  0
M  END
>  <MODEL>
1

>  <REMARK>
 VINA RESULT:      -6.3      0.000      0.000
  Name = 
  5 active torsions:
  status: ('A' for Active; 'I' for Inactive)
    1  A    between atoms: C_1  and  C_22
    2  A    between atoms: C_2  and  C_14
    3  A    between atoms: C_7  and  C_30
    4  A    between atoms: C_13  and  C_30
    5  A    between atoms: C_22  and  C_29
                            x       y       z     vdW  Elec       q    Type
                         _______ _______ _______ _____ _____    ______ ____

>  <TORSDO>
F 5

$$$$
=
 OpenBabel10272413463D

 30 33  0  0  1  0  0  0  0  0999 V2000
  183.5890  177.4010  138.0020 C   0  0  2  0  0  3  0  0  0  0  0  0
  182.1330  174.1470  135.6630 O   0  0  0  0  0  1  0  0  0  0  0  0
  183.9590  174.8380  137.6430 C   0  0  1  0  0  3  0  0  0  0  0  0
  184.2960  177.6520  136.6740 C   0  0  0  0  0  2  0  0  0  0  0  0
  187.7770  176.5670  136.9930 C   0  0  0  0  0  2  0  0  0  0  0  0
  186.4050  176.7270  137.4820 N   0  0  0  0  0  2  0  0  0  0  0  0
  185.9630  176.9520  135.0110 C   0  0  0  0  0  2  0  0  0  0  0  0
  180.6250  176.7090  138.1980 F   0  0  0  0  0  0  0  0  0  0  0  0
  182.0830  173.5860  136.9430 C   0  0  2  0  0  3  0  0  0  0  0  0
  185.3930  176.6170  136.4050 C   0  0  2  0  0  0  0  0  0  0  0  0
  184.7710  175.1930  136.3730 C   0  0  1  0  0  3  0  0  0  0  0  0
  182.3920  175.6770  139.4670 C   0  0  0  0  0  2  0  0  0  0  0  0
  188.1480  177.6990  136.0330 C   0  0  0  0  0  2  0  0  0  0  0  0
  186.9940  178.0730  135.1000 C   0  0  0  0  0  2  0  0  0  0  0  0
  183.0260  175.9750  138.1170 C   0  0  1  0  0  0  0  0  0  0  0  0
  181.0560  174.2910  137.8190 C   0  0  0  0  0  2  0  0  0  0  0  0
  183.3560  173.5510  137.5630 O   0  0  0  0  0  0  0  0  0  0  0  0
  181.5360  175.6770  138.2100 C   0  0  2  0  0  0  0  0  0  0  0  0
  181.9170  179.1690  137.7730 C   0  0  0  0  0  0  0  0  0  0  0  0
  181.7590  178.7350  136.4590 O   0  0  0  0  0  1  0  0  0  0  0  0
  182.8410  178.5950  138.5700 C   0  0  0  0  0  0  0  0  0  0  0  0
  181.8730  178.4960  140.9450 C   0  0  0  0  0  1  0  0  0  0  0  0
  184.3170  178.6430  140.6250 C   0  0  0  0  0  1  0  0  0  0  0  0
  182.9690  179.0210  140.0320 C   0  0  0  0  0  3  0  0  0  0  0  0
  181.0010  180.2490  138.2560 C   0  0  0  0  0  2  0  0  0  0  0  0
  181.5510  181.4960  137.9600 O   0  0  0  0  0  1  0  0  0  0  0  0
  185.3080  173.3320  134.7210 C   0  0  0  0  0  1  0  0  0  0  0  0
  185.7800  174.1060  135.9400 C   0  0  2  0  0  3  0  0  0  0  0  0
  186.2760  173.1830  137.0560 C   0  0  0  0  0  2  0  0  0  0  0  0
  187.6580  172.9980  136.9950 O   0  0  0  0  0  1  0  0  0  0  0  0
  1 15  1  0  0  0  0
  1 21  1  6  0  0  0
  3 17  1  6  0  0  0
  3 15  1  0  0  0  0
  4  1  1  0  0  0  0
  5  6  1  0  0  0  0
  7 14  1  0  0  0  0
  9  2  1  6  0  0  0
  9 17  1  0  0  0  0
  9 16  1  0  0  0  0
 10  7  1  6  0  0  0
 10  4  1  0  0  0  0
 10  6  1  0  0  0  0
 11 28  1  1  0  0  0
 11 10  1  0  0  0  0
 11  3  1  0  0  0  0
 13  5  1  0  0  0  0
 14 13  1  0  0  0  0
 15 18  1  0  0  0  0
 15 12  1  1  0  0  0
 16 18  1  0  0  0  0
 18  8  1  6  0  0  0
 18 12  1  0  0  0  0
 19 25  1  0  0  0  0
 19 21  2  0  0  0  0
 20 19  1  0  0  0  0
 21 24  1  0  0  0  0
 24 23  1  0  0  0  0
 24 22  1  0  0  0  0
 26 25  1  0  0  0  0
 28 27  1  6  0  0  0
 28 29  1  0  0  0  0
 30 29  1  0  0  0  0
M  END
>  <MODEL>
2

>  <REMARK>
 VINA RESULT:      -5.7      3.485      5.328
  Name = 
  5 active torsions:
  status: ('A' for Active; 'I' for Inactive)
    1  A    between atoms: C_1  and  C_22
    2  A    between atoms: C_2  and  C_14
    3  A    between atoms: C_7  and  C_30
    4  A    between atoms: C_13  and  C_30
    5  A    between atoms: C_22  and  C_29
                            x       y       z     vdW  Elec       q    Type
                         _______ _______ _______ _____ _____    ______ ____

>  <TORSDO>
F 5

$$$$
=
 OpenBabel10272413463D

 30 33  0  0  1  0  0  0  0  0999 V2000
  191.4910  175.2040  136.4650 C   0  0  2  0  0  3  0  0  0  0  0  0
  188.3300  172.3770  136.9090 O   0  0  0  0  0  1  0  0  0  0  0  0
  189.1180  174.6510  135.5150 C   0  0  1  0  0  3  0  0  0  0  0  0
  190.8230  175.7050  137.7410 C   0  0  0  0  0  2  0  0  0  0  0  0
  188.8030  178.6430  136.9130 C   0  0  0  0  0  2  0  0  0  0  0  0
  189.6650  177.5080  136.5730 N   0  0  0  0  0  2  0  0  0  0  0  0
  188.8780  176.7300  138.8370 C   0  0  0  0  0  2  0  0  0  0  0  0
  192.1190  172.2610  135.9670 F   0  0  0  0  0  0  0  0  0  0  0  0
  188.4810  172.3770  135.5180 C   0  0  2  0  0  3  0  0  0  0  0  0
  189.4570  176.3410  137.4600 C   0  0  2  0  0  0  0  0  0  0  0  0
  188.5230  175.2940  136.7920 C   0  0  1  0  0  3  0  0  0  0  0  0
  191.2120  173.7930  134.3460 C   0  0  0  0  0  2  0  0  0  0  0  0
  189.1400  179.1840  138.3030 C   0  0  0  0  0  2  0  0  0  0  0  0
  189.4430  178.0680  139.3050 C   0  0  0  0  0  2  0  0  0  0  0  0
  190.6000  174.2380  135.6660 C   0  0  1  0  0  0  0  0  0  0  0  0
  189.8320  171.8080  135.1070 C   0  0  0  0  0  2  0  0  0  0  0  0
  188.2650  173.6580  134.9550 O   0  0  0  0  0  0  0  0  0  0  0  0
  190.9540  172.7740  135.4450 C   0  0  2  0  0  0  0  0  0  0  0  0
  193.7550  175.6600  135.6650 C   0  0  0  0  0  0  0  0  0  0  0  0
  193.1570  176.4000  134.6480 O   0  0  0  0  0  1  0  0  0  0  0  0
  192.9930  174.9980  136.5600 C   0  0  0  0  0  0  0  0  0  0  0  0
  194.5730  173.1150  137.2980 C   0  0  0  0  0  1  0  0  0  0  0  0
  194.4000  175.1710  138.6560 C   0  0  0  0  0  1  0  0  0  0  0  0
  193.6440  174.2440  137.7180 C   0  0  0  0  0  3  0  0  0  0  0  0
  195.2480  175.6730  135.7390 C   0  0  0  0  0  2  0  0  0  0  0  0
  195.7140  176.9790  135.5830 O   0  0  0  0  0  1  0  0  0  0  0  0
  186.0500  174.8070  137.1560 C   0  0  0  0  0  1  0  0  0  0  0  0
  187.0720  175.8010  136.6300 C   0  0  2  0  0  3  0  0  0  0  0  0
  186.7070  176.3250  135.2380 C   0  0  0  0  0  2  0  0  0  0  0  0
  185.4470  176.9260  135.2290 O   0  0  0  0  0  1  0  0  0  0  0  0
  1 21  1  1  0  0  0
  1  4  1  0  0  0  0
  3 17  1  1  0  0  0
  3 15  1  0  0  0  0
  3 11  1  0  0  0  0
  5 13  1  0  0  0  0
  6  5  1  0  0  0  0
  6 10  1  0  0  0  0
  7 14  1  0  0  0  0
  9  2  1  1  0  0  0
 10  4  1  1  0  0  0
 10  7  1  0  0  0  0
 11 28  1  6  0  0  0
 11 10  1  0  0  0  0
 12 18  1  0  0  0  0
 13 14  1  0  0  0  0
 15 12  1  6  0  0  0
 15  1  1  0  0  0  0
 16 18  1  0  0  0  0
 16  9  1  0  0  0  0
 17  9  1  0  0  0  0
 18 15  1  0  0  0  0
 18  8  1  1  0  0  0
 19 25  1  0  0  0  0
 19 21  2  0  0  0  0
 20 19  1  0  0  0  0
 21 24  1  0  0  0  0
 22 24  1  0  0  0  0
 24 23  1  0  0  0  0
 26 25  1  0  0  0  0
 28 27  1  6  0  0  0
 29 28  1  0  0  0  0
 30 29  1  0  0  0  0
M  END
>  <MODEL>
3

>  <REMARK>
 VINA RESULT:      -5.7      4.793      8.823
  Name = 
  5 active torsions:
  status: ('A' for Active; 'I' for Inactive)
    1  A    between atoms: C_1  and  C_22
    2  A    between atoms: C_2  and  C_14
    3  A    between atoms: C_7  and  C_30
    4  A    between atoms: C_13  and  C_30
    5  A    between atoms: C_22  and  C_29
                            x       y       z     vdW  Elec       q    Type
                         _______ _______ _______ _____ _____    ______ ____

>  <TORSDO>
F 5

$$$$
=
 OpenBabel10272413463D

 30 33  0  0  1  0  0  0  0  0999 V2000
  186.1070  176.4600  136.9710 C   0  0  2  0  0  3  0  0  0  0  0  0
  184.6440  172.5260  137.7210 O   0  0  0  0  0  1  0  0  0  0  0  0
  184.5020  174.6660  135.9500 C   0  0  1  0  0  3  0  0  0  0  0  0
  185.0590  176.7340  138.0440 C   0  0  0  0  0  2  0  0  0  0  0  0
  182.0800  178.1150  136.4260 C   0  0  0  0  0  2  0  0  0  0  0  0
  183.4230  177.5280  136.4170 N   0  0  0  0  0  2  0  0  0  0  0  0
  182.6960  176.7910  138.7140 C   0  0  0  0  0  2  0  0  0  0  0  0
  188.1360  174.1910  137.1740 F   0  0  0  0  0  0  0  0  0  0  0  0
  185.0310  172.4050  136.3820 C   0  0  2  0  0  3  0  0  0  0  0  0
  183.6340  176.5530  137.5110 C   0  0  2  0  0  0  0  0  0  0  0  0
  183.4490  175.0980  137.0000 C   0  0  1  0  0  3  0  0  0  0  0  0
  186.9280  174.8160  135.1870 C   0  0  0  0  0  2  0  0  0  0  0  0
  181.8570  178.9420  137.6940 C   0  0  0  0  0  2  0  0  0  0  0  0
  182.4620  178.2820  138.9350 C   0  0  0  0  0  2  0  0  0  0  0  0
  185.9460  175.0760  136.3200 C   0  0  1  0  0  0  0  0  0  0  0  0
  186.5400  172.5380  136.2270 C   0  0  0  0  0  2  0  0  0  0  0  0
  184.3420  173.3120  135.5400 O   0  0  0  0  0  0  0  0  0  0  0  0
  186.9850  173.9720  136.4510 C   0  0  2  0  0  0  0  0  0  0  0  0
  187.9210  177.9890  136.3810 C   0  0  0  0  0  0  0  0  0  0  0  0
  187.1780  178.3000  135.2450 O   0  0  0  0  0  1  0  0  0  0  0  0
  187.4810  177.0500  137.2440 C   0  0  0  0  0  0  0  0  0  0  0  0
  189.7490  176.5360  138.3280 C   0  0  0  0  0  1  0  0  0  0  0  0
  188.0610  177.8350  139.5780 C   0  0  0  0  0  1  0  0  0  0  0  0
  188.2580  176.7550  138.5260 C   0  0  0  0  0  3  0  0  0  0  0  0
  189.1800  178.7620  136.6130 C   0  0  0  0  0  2  0  0  0  0  0  0
  188.8950  179.9130  137.3460 O   0  0  0  0  0  1  0  0  0  0  0  0
  181.4360  173.5780  137.3460 C   0  0  0  0  0  1  0  0  0  0  0  0
  181.9900  174.7810  136.6020 C   0  0  2  0  0  3  0  0  0  0  0  0
  181.7160  174.7080  135.0980 C   0  0  0  0  0  2  0  0  0  0  0  0
  181.0960  173.5080  134.7450 O   0  0  0  0  0  1  0  0  0  0  0  0
  1 21  1  1  0  0  0
  1  4  1  0  0  0  0
  3 17  1  1  0  0  0
  3 15  1  0  0  0  0
  3 11  1  0  0  0  0
  5 13  1  0  0  0  0
  6  5  1  0  0  0  0
  6 10  1  0  0  0  0
  7 14  1  0  0  0  0
  9  2  1  1  0  0  0
 10  4  1  1  0  0  0
 10  7  1  0  0  0  0
 11 28  1  6  0  0  0
 11 10  1  0  0  0  0
 12 18  1  0  0  0  0
 13 14  1  0  0  0  0
 15 12  1  6  0  0  0
 15 18  1  0  0  0  0
 15  1  1  0  0  0  0
 16  9  1  0  0  0  0
 16 18  1  0  0  0  0
 17  9  1  0  0  0  0
 18  8  1  1  0  0  0
 19 25  1  0  0  0  0
 19 21  2  0  0  0  0
 20 19  1  0  0  0  0
 21 24  1  0  0  0  0
 22 24  1  0  0  0  0
 24 23  1  0  0  0  0
 25 26  1  0  0  0  0
 28 27  1  1  0  0  0
 29 28  1  0  0  0  0
 30 29  1  0  0  0  0
M  END
>  <MODEL>
4

>  <REMARK>
 VINA RESULT:      -5.4      3.935      7.376
  Name = 
  5 active torsions:
  status: ('A' for Active; 'I' for Inactive)
    1  A    between atoms: C_1  and  C_22
    2  A    between atoms: C_2  and  C_14
    3  A    between atoms: C_7  and  C_30
    4  A    between atoms: C_13  and  C_30
    5  A    between atoms: C_22  and  C_29
                            x       y       z     vdW  Elec       q    Type
                         _______ _______ _______ _____ _____    ______ ____

>  <TORSDO>
F 5

$$$$
=
 OpenBabel10272413463D

 30 33  0  0  1  0  0  0  0  0999 V2000
  183.5040  176.9940  137.2200 C   0  0  2  0  0  3  0  0  0  0  0  0
  182.6410  173.3000  135.2730 O   0  0  0  0  0  1  0  0  0  0  0  0
  184.1030  174.4520  137.3400 C   0  0  1  0  0  3  0  0  0  0  0  0
  184.3800  177.1040  135.9760 C   0  0  0  0  0  2  0  0  0  0  0  0
  187.8440  176.4090  136.9330 C   0  0  0  0  0  2  0  0  0  0  0  0
  186.4060  176.5140  137.2000 N   0  0  0  0  0  2  0  0  0  0  0  0
  186.3190  176.3170  134.6890 C   0  0  0  0  0  2  0  0  0  0  0  0
  180.6000  176.0670  137.1280 F   0  0  0  0  0  0  0  0  0  0  0  0
  182.4440  172.9380  136.6110 C   0  0  2  0  0  3  0  0  0  0  0  0
  185.5750  176.1470  136.0310 C   0  0  2  0  0  0  0  0  0  0  0  0
  185.0660  174.6830  136.1500 C   0  0  1  0  0  3  0  0  0  0  0  0
  182.2290  175.4090  138.7750 C   0  0  0  0  0  2  0  0  0  0  0  0
  188.2710  177.4110  135.8580 C   0  0  0  0  0  2  0  0  0  0  0  0
  187.2440  177.5290  134.7300 C   0  0  0  0  0  2  0  0  0  0  0  0
  183.0320  175.5560  137.4910 C   0  0  1  0  0  0  0  0  0  0  0  0
  181.2520  173.6700  137.2120 C   0  0  0  0  0  2  0  0  0  0  0  0
  183.6100  173.1170  137.3920 O   0  0  0  0  0  0  0  0  0  0  0  0
  181.5700  175.1390  137.4320 C   0  0  2  0  0  0  0  0  0  0  0  0
  182.7820  178.8470  138.6400 C   0  0  0  0  0  0  0  0  0  0  0  0
  183.6890  178.3700  139.5820 O   0  0  0  0  0  1  0  0  0  0  0  0
  182.5980  178.1860  137.4790 C   0  0  0  0  0  0  0  0  0  0  0  0
  181.7580  178.0680  135.0570 C   0  0  0  0  0  1  0  0  0  0  0  0
  180.2030  178.7170  136.8610 C   0  0  0  0  0  1  0  0  0  0  0  0
  181.6560  178.7440  136.4140 C   0  0  0  0  0  3  0  0  0  0  0  0
  182.0700  180.1240  138.9560 C   0  0  0  0  0  2  0  0  0  0  0  0
  182.9580  181.1950  138.8460 O   0  0  0  0  0  1  0  0  0  0  0  0
  185.9790  172.6610  134.9010 C   0  0  0  0  0  1  0  0  0  0  0  0
  186.2020  173.6410  136.0400 C   0  0  2  0  0  3  0  0  0  0  0  0
  186.5800  172.9370  137.3460 C   0  0  0  0  0  2  0  0  0  0  0  0
  187.8680  172.4010  137.2870 O   0  0  0  0  0  1  0  0  0  0  0  0
  1 21  1  6  0  0  0
  1 15  1  0  0  0  0
  3 17  1  6  0  0  0
  3 15  1  0  0  0  0
  4 10  1  0  0  0  0
  4  1  1  0  0  0  0
  5  6  1  0  0  0  0
  7 14  1  0  0  0  0
  9  2  1  6  0  0  0
  9 16  1  0  0  0  0
  9 17  1  0  0  0  0
 10  7  1  6  0  0  0
 10 11  1  0  0  0  0
 10  6  1  0  0  0  0
 11 28  1  1  0  0  0
 11  3  1  0  0  0  0
 13  5  1  0  0  0  0
 14 13  1  0  0  0  0
 15 12  1  1  0  0  0
 16 18  1  0  0  0  0
 18  8  1  6  0  0  0
 18 15  1  0  0  0  0
 18 12  1  0  0  0  0
 19 25  1  0  0  0  0
 19 20  1  0  0  0  0
 21 19  2  0  0  0  0
 22 24  1  0  0  0  0
 24 23  1  0  0  0  0
 24 21  1  0  0  0  0
 26 25  1  0  0  0  0
 28 27  1  6  0  0  0
 28 29  1  0  0  0  0
 30 29  1  0  0  0  0
M  END
>  <MODEL>
5

>  <REMARK>
 VINA RESULT:      -5.4      3.902      5.671
  Name = 
  5 active torsions:
  status: ('A' for Active; 'I' for Inactive)
    1  A    between atoms: C_1  and  C_22
    2  A    between atoms: C_2  and  C_14
    3  A    between atoms: C_7  and  C_30
    4  A    between atoms: C_13  and  C_30
    5  A    between atoms: C_22  and  C_29
                            x       y       z     vdW  Elec       q    Type
                         _______ _______ _______ _____ _____    ______ ____

>  <TORSDO>
F 5

$$$$
=
 OpenBabel10272413463D

 30 33  0  0  1  0  0  0  0  0999 V2000
  188.5960  177.5030  142.5630 C   0  0  2  0  0  3  0  0  0  0  0  0
  185.2780  180.1810  142.5830 O   0  0  0  0  0  1  0  0  0  0  0  0
  186.0950  177.6370  141.8110 C   0  0  1  0  0  3  0  0  0  0  0  0
  188.9560  178.4280  141.4060 C   0  0  0  0  0  2  0  0  0  0  0  0
  188.2260  176.6930  138.2670 C   0  0  0  0  0  2  0  0  0  0  0  0
  188.2300  176.8130  139.7270 N   0  0  0  0  0  2  0  0  0  0  0  0
  188.4790  179.2510  139.1410 C   0  0  0  0  0  2  0  0  0  0  0  0
  187.5970  178.5270  145.2580 F   0  0  0  0  0  0  0  0  0  0  0  0
  184.6780  179.0240  143.0930 C   0  0  2  0  0  3  0  0  0  0  0  0
  188.0470  178.2070  140.1920 C   0  0  2  0  0  0  0  0  0  0  0  0
  186.5690  178.4680  140.5930 C   0  0  1  0  0  3  0  0  0  0  0  0
  186.7160  176.6290  144.0660 C   0  0  0  0  0  2  0  0  0  0  0  0
  189.4160  177.4350  137.6580 C   0  0  0  0  0  2  0  0  0  0  0  0
  189.6970  178.7650  138.3610 C   0  0  0  0  0  2  0  0  0  0  0  0
  187.1160  177.6060  142.9710 C   0  0  1  0  0  0  0  0  0  0  0  0
  185.2480  178.6580  144.4560 C   0  0  0  0  0  2  0  0  0  0  0  0
  184.7560  177.9370  142.1890 O   0  0  0  0  0  0  0  0  0  0  0  0
  186.6650  178.1260  144.3280 C   0  0  2  0  0  0  0  0  0  0  0  0
  190.4060  176.1700  143.5220 C   0  0  0  0  0  0  0  0  0  0  0  0
  190.0630  175.1890  142.5950 O   0  0  0  0  0  1  0  0  0  0  0  0
  189.6890  177.3100  143.6000 C   0  0  0  0  0  0  0  0  0  0  0  0
  190.3330  177.9580  145.9980 C   0  0  0  0  0  1  0  0  0  0  0  0
  191.3440  179.1600  144.0930 C   0  0  0  0  0  1  0  0  0  0  0  0
  190.1050  178.4170  144.5670 C   0  0  0  0  0  3  0  0  0  0  0  0
  191.6080  175.9190  144.3770 C   0  0  0  0  0  2  0  0  0  0  0  0
  192.1270  174.6550  144.0960 O   0  0  0  0  0  1  0  0  0  0  0  0
  184.7160  179.6640  139.3200 C   0  0  0  0  0  1  0  0  0  0  0  0
  185.6040  178.4330  139.3870 C   0  0  2  0  0  3  0  0  0  0  0  0
  184.8090  177.1360  139.2140 C   0  0  0  0  0  2  0  0  0  0  0  0
  183.4380  177.3810  139.1250 O   0  0  0  0  0  1  0  0  0  0  0  0
  1 15  1  0  0  0  0
  1 21  1  1  0  0  0
  3 17  1  1  0  0  0
  3 15  1  0  0  0  0
  4  1  1  0  0  0  0
  5  6  1  0  0  0  0
  6 10  1  0  0  0  0
  9  2  1  6  0  0  0
  9 16  1  0  0  0  0
 10  7  1  6  0  0  0
 10 11  1  0  0  0  0
 10  4  1  0  0  0  0
 11 28  1  6  0  0  0
 11  3  1  0  0  0  0
 12 18  1  0  0  0  0
 13  5  1  0  0  0  0
 13 14  1  0  0  0  0
 14  7  1  0  0  0  0
 15 12  1  1  0  0  0
 15 18  1  0  0  0  0
 17  9  1  0  0  0  0
 18 16  1  0  0  0  0
 18  8  1  1  0  0  0
 19 21  2  0  0  0  0
 19 25  1  0  0  0  0
 20 19  1  0  0  0  0
 21 24  1  0  0  0  0
 23 24  1  0  0  0  0
 24 22  1  0  0  0  0
 26 25  1  0  0  0  0
 28 27  1  1  0  0  0
 29 28  1  0  0  0  0
 30 29  1  0  0  0  0
M  END
>  <MODEL>
6

>  <REMARK>
 VINA RESULT:      -5.2      2.380      6.211
  Name = 
  5 active torsions:
  status: ('A' for Active; 'I' for Inactive)
    1  A    between atoms: C_1  and  C_22
    2  A    between atoms: C_2  and  C_14
    3  A    between atoms: C_7  and  C_30
    4  A    between atoms: C_13  and  C_30
    5  A    between atoms: C_22  and  C_29
                            x       y       z     vdW  Elec       q    Type
                         _______ _______ _______ _____ _____    ______ ____

>  <TORSDO>
F 5

$$$$
=
 OpenBabel10272413463D

 30 33  0  0  1  0  0  0  0  0999 V2000
  195.7010  173.2860  136.6150 C   0  0  2  0  0  3  0  0  0  0  0  0
  196.2450  169.3040  135.1910 O   0  0  0  0  0  1  0  0  0  0  0  0
  197.0340  171.1040  137.1590 C   0  0  1  0  0  3  0  0  0  0  0  0
  196.6370  173.5200  135.4350 C   0  0  0  0  0  2  0  0  0  0  0  0
  200.0120  174.0930  136.7290 C   0  0  0  0  0  2  0  0  0  0  0  0
  198.5920  173.7630  136.8740 N   0  0  0  0  0  2  0  0  0  0  0  0
  198.8580  173.2470  134.4220 C   0  0  0  0  0  2  0  0  0  0  0  0
  193.2530  171.4730  136.4590 F   0  0  0  0  0  0  0  0  0  0  0  0
  196.0150  169.0620  136.5500 C   0  0  2  0  0  3  0  0  0  0  0  0
  198.0540  173.0100  135.7180 C   0  0  2  0  0  0  0  0  0  0  0  0
  198.0090  171.4870  136.0190 C   0  0  1  0  0  3  0  0  0  0  0  0
  194.8040  171.5760  138.2970 C   0  0  0  0  0  2  0  0  0  0  0  0
  200.2310  175.0410  135.5490 C   0  0  0  0  0  2  0  0  0  0  0  0
  199.3540  174.6880  134.3460 C   0  0  0  0  0  2  0  0  0  0  0  0
  195.6660  171.8160  137.0660 C   0  0  1  0  0  0  0  0  0  0  0  0
  194.5960  169.4400  136.9480 C   0  0  0  0  0  2  0  0  0  0  0  0
  196.9730  169.6980  137.3770 O   0  0  0  0  0  0  0  0  0  0  0  0
  194.4190  170.9480  136.9660 C   0  0  2  0  0  0  0  0  0  0  0  0
  194.2810  174.9610  137.6900 C   0  0  0  0  0  0  0  0  0  0  0  0
  195.1730  174.9110  138.7580 O   0  0  0  0  0  1  0  0  0  0  0  0
  194.4490  174.1470  136.6270 C   0  0  0  0  0  0  0  0  0  0  0  0
  192.0420  174.0400  135.7430 C   0  0  0  0  0  1  0  0  0  0  0  0
  193.6680  175.5680  134.6850 C   0  0  0  0  0  1  0  0  0  0  0  0
  193.5130  174.2480  135.4240 C   0  0  0  0  0  3  0  0  0  0  0  0
  193.1800  175.9700  137.7590 C   0  0  0  0  0  2  0  0  0  0  0  0
  193.5270  176.9820  138.6550 O   0  0  0  0  0  1  0  0  0  0  0  0
  199.5890  169.6420  135.2550 C   0  0  0  0  0  1  0  0  0  0  0  0
  199.4150  170.8590  136.1490 C   0  0  2  0  0  3  0  0  0  0  0  0
  199.8930  170.5990  137.5800 C   0  0  0  0  0  2  0  0  0  0  0  0
  200.0010  169.2330  137.8470 O   0  0  0  0  0  1  0  0  0  0  0  0
  1 21  1  6  0  0  0
  1 15  1  0  0  0  0
  3 17  1  6  0  0  0
  4 10  1  0  0  0  0
  4  1  1  0  0  0  0
  5  6  1  0  0  0  0
  9  2  1  6  0  0  0
  9 16  1  0  0  0  0
  9 17  1  0  0  0  0
 10  7  1  6  0  0  0
 10 11  1  0  0  0  0
 10  6  1  0  0  0  0
 11 28  1  1  0  0  0
 11  3  1  0  0  0  0
 13  5  1  0  0  0  0
 14  7  1  0  0  0  0
 14 13  1  0  0  0  0
 15  3  1  0  0  0  0
 15 12  1  1  0  0  0
 16 18  1  0  0  0  0
 18  8  1  6  0  0  0
 18 15  1  0  0  0  0
 18 12  1  0  0  0  0
 19 25  1  0  0  0  0
 19 20  1  0  0  0  0
 21 19  2  0  0  0  0
 23 24  1  0  0  0  0
 24 22  1  0  0  0  0
 24 21  1  0  0  0  0
 25 26  1  0  0  0  0
 28 27  1  6  0  0  0
 28 29  1  0  0  0  0
 29 30  1  0  0  0  0
M  END
>  <MODEL>
7

>  <REMARK>
 VINA RESULT:      -4.9      8.702     12.179
  Name = 
  5 active torsions:
  status: ('A' for Active; 'I' for Inactive)
    1  A    between atoms: C_1  and  C_22
    2  A    between atoms: C_2  and  C_14
    3  A    between atoms: C_7  and  C_30
    4  A    between atoms: C_13  and  C_30
    5  A    between atoms: C_22  and  C_29
                            x       y       z     vdW  Elec       q    Type
                         _______ _______ _______ _____ _____    ______ ____

>  <TORSDO>
F 5

$$$$
=
 OpenBabel10272413463D

 30 33  0  0  1  0  0  0  0  0999 V2000
  183.3090  176.8410  137.1370 C   0  0  2  0  0  3  0  0  0  0  0  0
  185.1280  177.9010  140.8450 O   0  0  0  0  0  1  0  0  0  0  0  0
  184.9750  178.5810  138.1530 C   0  0  1  0  0  3  0  0  0  0  0  0
  184.4040  175.7860  137.2410 C   0  0  0  0  0  2  0  0  0  0  0  0
  187.1440  176.7370  135.0090 C   0  0  0  0  0  2  0  0  0  0  0  0
  185.8550  176.9590  135.6680 N   0  0  0  0  0  2  0  0  0  0  0  0
  186.7960  175.2250  137.2360 C   0  0  0  0  0  2  0  0  0  0  0  0
  181.4850  177.5770  139.4700 F   0  0  0  0  0  0  0  0  0  0  0  0
  184.6590  179.1500  140.4230 C   0  0  2  0  0  3  0  0  0  0  0  0
  185.7990  176.3850  137.0330 C   0  0  2  0  0  0  0  0  0  0  0  0
  186.0620  177.4790  138.1050 C   0  0  1  0  0  3  0  0  0  0  0  0
  182.4990  179.1350  137.9390 C   0  0  0  0  0  2  0  0  0  0  0  0
  187.3890  175.2440  134.7820 C   0  0  0  0  0  2  0  0  0  0  0  0
  186.9270  174.3910  135.9660 C   0  0  0  0  0  2  0  0  0  0  0  0
  183.5330  178.0290  138.0880 C   0  0  1  0  0  0  0  0  0  0  0  0
  183.1370  179.1890  140.3910 C   0  0  0  0  0  2  0  0  0  0  0  0
  185.2140  179.5380  139.1800 O   0  0  0  0  0  0  0  0  0  0  0  0
  182.5960  178.3560  139.2420 C   0  0  2  0  0  0  0  0  0  0  0  0
  181.4070  175.4430  137.7700 C   0  0  0  0  0  0  0  0  0  0  0  0
  182.1880  175.0070  138.8370 O   0  0  0  0  0  1  0  0  0  0  0  0
  181.9150  176.3020  136.8620 C   0  0  0  0  0  0  0  0  0  0  0  0
  180.4370  178.2070  135.9870 C   0  0  0  0  0  1  0  0  0  0  0  0
  181.7750  176.8690  134.4000 C   0  0  0  0  0  1  0  0  0  0  0  0
  181.0390  176.8350  135.7310 C   0  0  0  0  0  3  0  0  0  0  0  0
  179.9940  174.9560  137.7080 C   0  0  0  0  0  2  0  0  0  0  0  0
  179.9830  173.5810  137.4740 O   0  0  0  0  0  1  0  0  0  0  0  0
  188.1500  178.0410  139.4500 C   0  0  0  0  0  1  0  0  0  0  0  0
  187.5100  178.0160  138.0720 C   0  0  2  0  0  3  0  0  0  0  0  0
  187.7090  179.3340  137.3180 C   0  0  0  0  0  2  0  0  0  0  0  0
  188.9770  179.8720  137.5490 O   0  0  0  0  0  1  0  0  0  0  0  0
  1 21  1  1  0  0  0
  1  4  1  0  0  0  0
  1 15  1  0  0  0  0
  3 17  1  1  0  0  0
  5  6  1  0  0  0  0
  6 10  1  0  0  0  0
  9  2  1  6  0  0  0
 10  7  1  1  0  0  0
 10  4  1  0  0  0  0
 10 11  1  0  0  0  0
 11 28  1  6  0  0  0
 11  3  1  0  0  0  0
 12 18  1  0  0  0  0
 13  5  1  0  0  0  0
 13 14  1  0  0  0  0
 14  7  1  0  0  0  0
 15 12  1  6  0  0  0
 15  3  1  0  0  0  0
 15 18  1  0  0  0  0
 16  9  1  0  0  0  0
 17  9  1  0  0  0  0
 18  8  1  1  0  0  0
 18 16  1  0  0  0  0
 19 20  1  0  0  0  0
 21 19  2  0  0  0  0
 23 24  1  0  0  0  0
 24 22  1  0  0  0  0
 24 21  1  0  0  0  0
 25 19  1  0  0  0  0
 26 25  1  0  0  0  0
 28 27  1  1  0  0  0
 29 30  1  0  0  0  0
 29 28  1  0  0  0  0
M  END
>  <MODEL>
8

>  <REMARK>
 VINA RESULT:      -4.8      3.061      4.390
  Name = 
  5 active torsions:
  status: ('A' for Active; 'I' for Inactive)
    1  A    between atoms: C_1  and  C_22
    2  A    between atoms: C_2  and  C_14
    3  A    between atoms: C_7  and  C_30
    4  A    between atoms: C_13  and  C_30
    5  A    between atoms: C_22  and  C_29
                            x       y       z     vdW  Elec       q    Type
                         _______ _______ _______ _____ _____    ______ ____

>  <TORSDO>
F 5

$$$$
=
 OpenBabel10272413463D

 30 33  0  0  1  0  0  0  0  0999 V2000
  186.1500  178.4210  142.6880 C   0  0  2  0  0  3  0  0  0  0  0  0
  185.0440  176.8600  146.4990 O   0  0  0  0  0  1  0  0  0  0  0  0
  186.6220  178.7700  145.2360 C   0  0  1  0  0  3  0  0  0  0  0  0
  186.9930  177.1510  142.7440 C   0  0  0  0  0  2  0  0  0  0  0  0
  190.4430  178.0860  143.5280 C   0  0  0  0  0  2  0  0  0  0  0  0
  189.0220  178.3770  143.3220 N   0  0  0  0  0  2  0  0  0  0  0  0
  188.8510  175.9000  143.7510 C   0  0  0  0  0  2  0  0  0  0  0  0
  183.2010  178.4890  143.4640 F   0  0  0  0  0  0  0  0  0  0  0  0
  184.8670  178.2300  146.7210 C   0  0  2  0  0  3  0  0  0  0  0  0
  188.1390  177.2690  143.7540 C   0  0  2  0  0  0  0  0  0  0  0  0
  187.5600  177.5400  145.1700 C   0  0  1  0  0  3  0  0  0  0  0  0
  184.8420  180.1510  144.0480 C   0  0  0  0  0  2  0  0  0  0  0  0
  190.8900  176.9100  142.6570 C   0  0  0  0  0  2  0  0  0  0  0  0
  189.8370  175.8020  142.5910 C   0  0  0  0  0  2  0  0  0  0  0  0
  185.6130  178.8400  144.0670 C   0  0  1  0  0  0  0  0  0  0  0  0
  183.7320  178.7870  145.8730 C   0  0  0  0  0  2  0  0  0  0  0  0
  186.0640  178.9630  146.5320 O   0  0  0  0  0  0  0  0  0  0  0  0
  184.1310  178.8570  144.4090 C   0  0  2  0  0  0  0  0  0  0  0  0
  185.9840  178.7550  140.2730 C   0  0  0  0  0  0  0  0  0  0  0  0
  187.3710  178.8790  140.2780 O   0  0  0  0  0  1  0  0  0  0  0  0
  185.3130  178.5860  141.4310 C   0  0  0  0  0  0  0  0  0  0  0  0
  183.0050  179.5350  140.8330 C   0  0  0  0  0  1  0  0  0  0  0  0
  183.3970  177.1000  140.7070 C   0  0  0  0  0  1  0  0  0  0  0  0
  183.8000  178.3800  141.4220 C   0  0  0  0  0  3  0  0  0  0  0  0
  185.2970  178.7760  138.9450 C   0  0  0  0  0  2  0  0  0  0  0  0
  186.2480  178.7870  137.9250 O   0  0  0  0  0  1  0  0  0  0  0  0
  188.3640  176.4300  147.3150 C   0  0  0  0  0  1  0  0  0  0  0  0
  188.6380  177.5040  146.2770 C   0  0  2  0  0  3  0  0  0  0  0  0
  188.9750  178.8540  146.9150 C   0  0  0  0  0  2  0  0  0  0  0  0
  188.9350  178.7890  148.3090 O   0  0  0  0  0  1  0  0  0  0  0  0
  1 21  1  6  0  0  0
  1  4  1  0  0  0  0
  1 15  1  0  0  0  0
  3 17  1  1  0  0  0
  6  5  1  0  0  0  0
  6 10  1  0  0  0  0
  7 10  1  0  0  0  0
  9  2  1  6  0  0  0
 10  4  1  6  0  0  0
 10 11  1  0  0  0  0
 11  3  1  0  0  0  0
 11 28  1  1  0  0  0
 12 18  1  0  0  0  0
 13  5  1  0  0  0  0
 14 13  1  0  0  0  0
 14  7  1  0  0  0  0
 15 12  1  6  0  0  0
 15 18  1  0  0  0  0
 15  3  1  0  0  0  0
 16  9  1  0  0  0  0
 17  9  1  0  0  0  0
 18  8  1  6  0  0  0
 18 16  1  0  0  0  0
 19 20  1  0  0  0  0
 19 21  2  0  0  0  0
 22 24  1  0  0  0  0
 23 24  1  0  0  0  0
 24 21  1  0  0  0  0
 25 19  1  0  0  0  0
 26 25  1  0  0  0  0
 28 29  1  0  0  0  0
 28 27  1  1  0  0  0
 29 30  1  0  0  0  0
M  END
>  <MODEL>
9

>  <REMARK>
 VINA RESULT:      -4.7      2.892      4.835
  Name = 
  5 active torsions:
  status: ('A' for Active; 'I' for Inactive)
    1  A    between atoms: C_1  and  C_22
    2  A    between atoms: C_2  and  C_14
    3  A    between atoms: C_7  and  C_30
    4  A    between atoms: C_13  and  C_30
    5  A    between atoms: C_22  and  C_29
                            x       y       z     vdW  Elec       q    Type
                         _______ _______ _______ _____ _____    ______ ____

>  <TORSDO>
F 5

$$$$
