=
 OpenBabel10272400383D

 31 34  0  0  1  0  0  0  0  0999 V2000
  187.0540  178.4980  142.7940 C   0  0  2  0  0  3  0  0  0  0  0  0
  187.9140  176.2050  142.7450 C   0  0  0  0  0  2  0  0  0  0  0  0
  188.0380  177.5740  142.0870 C   0  0  2  0  0  3  0  0  0  0  0  0
  186.2510  177.6330  143.7470 C   0  0  1  0  0  3  0  0  0  0  0  0
  187.1020  176.4070  144.0070 C   0  0  0  0  0  2  0  0  0  0  0  0
  185.0150  179.1970  145.0460 O   0  0  0  0  0  0  0  0  0  0  0  0
  185.9630  178.3640  145.0180 C   0  0  0  0  0  0  0  0  0  0  0  0
  186.7800  178.1500  146.1740 N   0  0  0  0  0  2  0  0  0  0  0  0
  186.5180  178.7910  147.4530 C   0  0  0  0  0  2  0  0  0  0  0  0
  188.5570  177.4180  147.8440 C   0  0  0  0  0  1  0  0  0  0  0  0
  187.5790  178.3940  148.4650 C   0  0  0  0  0  2  0  0  0  0  0  0
  186.1520  179.2120  141.7960 C   0  0  0  0  0  2  0  0  0  0  0  0
  185.0040  178.3660  141.4940 N   0  0  0  0  0  2  0  0  0  0  0  0
  184.2720  178.9700  140.3950 C   0  0  0  0  0  3  0  0  0  0  0  0
  184.9370  178.5820  139.0850 C   0  0  0  0  0  2  0  0  0  0  0  0
  183.6610  177.8990  139.5080 C   0  0  0  0  0  2  0  0  0  0  0  0
  189.4590  178.1530  142.1660 C   0  0  2  0  0  3  0  0  0  0  0  0
  189.1420  176.4370  137.4220 C   0  0  0  0  0  1  0  0  0  0  0  0
  190.1150  178.4030  140.8020 C   0  0  2  0  0  3  0  0  0  0  0  0
  191.2540  176.5520  139.4990 C   0  0  0  0  0  2  0  0  0  0  0  0
  188.9750  178.4290  139.3570 S   0  0  0  0  0  0  0  0  0  0  0  0
  189.0500  176.6380  138.9250 C   0  0  2  0  0  3  0  0  0  0  0  0
  190.0250  175.8920  139.6250 O   0  0  0  0  0  0  0  0  0  0  0  0
  191.3930  177.5860  140.6040 C   0  0  0  0  0  2  0  0  0  0  0  0
  190.3420  177.6000  143.2560 C   0  0  0  0  0  0  0  0  0  0  0  0
  191.3310  177.8730  145.4610 C   0  0  0  0  0  3  0  0  0  0  0  0
  190.5620  178.3730  144.4020 C   0  0  0  0  0  3  0  0  0  0  0  0
  191.8860  176.5940  145.3770 C   0  0  0  0  0  3  0  0  0  0  0  0
  192.2350  174.5520  144.1470 O   0  0  0  0  0  1  0  0  0  0  0  0
  190.9020  176.3180  143.1780 C   0  0  0  0  0  3  0  0  0  0  0  0
  191.6750  175.8170  144.2340 C   0  0  0  0  0  0  0  0  0  0  0  0
  1 12  1  6  0  0  0
  1  4  1  0  0  0  0
  2  5  1  0  0  0  0
  3 17  1  1  0  0  0
  3  2  1  0  0  0  0
  3  1  1  0  0  0  0
  4  5  1  0  0  0  0
  4  7  1  1  0  0  0
  7  6  2  0  0  0  0
  7  8  1  0  0  0  0
  8  9  1  0  0  0  0
  9 11  1  0  0  0  0
 10 11  1  0  0  0  0
 13 12  1  0  0  0  0
 14 13  1  0  0  0  0
 15 16  1  0  0  0  0
 15 14  1  0  0  0  0
 16 14  1  0  0  0  0
 17 25  1  1  0  0  0
 19 17  1  1  0  0  0
 20 23  1  0  0  0  0
 20 24  1  0  0  0  0
 21 19  1  0  0  0  0
 22 18  1  6  0  0  0
 22 21  1  0  0  0  0
 22 23  1  0  0  0  0
 24 19  1  0  0  0  0
 25 27  1  0  0  0  0
 27 26  2  0  0  0  0
 28 26  1  0  0  0  0
 29 31  1  0  0  0  0
 30 25  2  0  0  0  0
 30 31  1  0  0  0  0
 31 28  2  0  0  0  0
M  END
>  <MODEL>
1

>  <REMARK>
 VINA RESULT:      -6.1      0.000      0.000
  Name = 
  9 active torsions:
  status: ('A' for Active; 'I' for Inactive)
    1  A    between atoms: C_1  and  N_24
    2  A    between atoms: C_3  and  C_15
    3  A    between atoms: C_3  and  N_24
    4  A    between atoms: C_4  and  C_27
    5  A    between atoms: C_5  and  C_27
    6  A    between atoms: C_9  and  C_23
    7  A    between atoms: C_19  and  C_21
    8  A    between atoms: C_20  and  C_27
    9  A    between atoms: N_22  and  C_23
                            x       y       z     vdW  Elec       q    Type
                         _______ _______ _______ _____ _____    ______ ____

>  <TORSDO>
F 9

$$$$
=
 OpenBabel10272400383D

 31 34  0  0  1  0  0  0  0  0999 V2000
  189.7000  177.2620  138.8290 C   0  0  2  0  0  3  0  0  0  0  0  0
  189.3760  178.2810  136.6260 C   0  0  0  0  0  2  0  0  0  0  0  0
  190.0760  177.1420  137.3570 C   0  0  2  0  0  3  0  0  0  0  0  0
  188.9190  178.5530  138.9760 C   0  0  1  0  0  3  0  0  0  0  0  0
  188.3720  178.8630  137.5980 C   0  0  0  0  0  2  0  0  0  0  0  0
  186.6180  178.4140  139.5660 O   0  0  0  0  0  0  0  0  0  0  0  0
  187.8130  178.3980  139.9700 C   0  0  0  0  0  0  0  0  0  0  0  0
  188.1100  178.2760  141.3650 N   0  0  0  0  0  2  0  0  0  0  0  0
  187.0810  178.0700  142.3730 C   0  0  0  0  0  2  0  0  0  0  0  0
  187.6520  177.4770  144.7230 C   0  0  0  0  0  1  0  0  0  0  0  0
  187.4880  176.9480  143.3130 C   0  0  0  0  0  2  0  0  0  0  0  0
  190.9380  177.2560  139.7180 C   0  0  0  0  0  2  0  0  0  0  0  0
  190.6560  176.4930  140.9280 N   0  0  0  0  0  2  0  0  0  0  0  0
  191.6690  176.8220  141.9160 C   0  0  0  0  0  3  0  0  0  0  0  0
  191.1150  177.8740  142.8620 C   0  0  0  0  0  2  0  0  0  0  0  0
  191.2000  176.4370  143.3090 C   0  0  0  0  0  2  0  0  0  0  0  0
  189.6880  175.7550  136.8230 C   0  0  2  0  0  3  0  0  0  0  0  0
  194.2560  173.7210  137.5530 C   0  0  0  0  0  1  0  0  0  0  0  0
  190.7860  175.0630  136.0060 C   0  0  2  0  0  3  0  0  0  0  0  0
  193.1610  175.9440  135.9280 C   0  0  0  0  0  2  0  0  0  0  0  0
  191.5790  173.6060  136.8050 S   0  0  0  0  0  0  0  0  0  0  0  0
  192.9490  174.4870  137.6670 C   0  0  2  0  0  3  0  0  0  0  0  0
  193.0970  175.8500  137.3240 O   0  0  0  0  0  0  0  0  0  0  0  0
  191.7550  176.0550  135.3610 C   0  0  0  0  0  2  0  0  0  0  0  0
  188.2720  175.6080  136.3230 C   0  0  0  0  0  0  0  0  0  0  0  0
  186.7270  175.6000  134.4450 C   0  0  0  0  0  3  0  0  0  0  0  0
  188.0170  175.7820  134.9580 C   0  0  0  0  0  3  0  0  0  0  0  0
  185.6820  175.2420  135.2990 C   0  0  0  0  0  3  0  0  0  0  0  0
  184.8860  174.7260  137.5140 O   0  0  0  0  0  1  0  0  0  0  0  0
  187.2190  175.2490  137.1750 C   0  0  0  0  0  3  0  0  0  0  0  0
  185.9260  175.0700  136.6650 C   0  0  0  0  0  0  0  0  0  0  0  0
  1  4  1  0  0  0  0
  1 12  1  1  0  0  0
  2  3  1  0  0  0  0
  2  5  1  0  0  0  0
  3 17  1  6  0  0  0
  3  1  1  0  0  0  0
  4  7  1  1  0  0  0
  5  4  1  0  0  0  0
  6  7  2  0  0  0  0
  7  8  1  0  0  0  0
  8  9  1  0  0  0  0
  9 11  1  0  0  0  0
 11 10  1  0  0  0  0
 12 13  1  0  0  0  0
 13 14  1  0  0  0  0
 14 15  1  0  0  0  0
 14 16  1  0  0  0  0
 15 16  1  0  0  0  0
 17 25  1  6  0  0  0
 19 21  1  0  0  0  0
 19 17  1  1  0  0  0
 20 23  1  0  0  0  0
 21 22  1  0  0  0  0
 22 18  1  6  0  0  0
 23 22  1  0  0  0  0
 24 20  1  0  0  0  0
 24 19  1  0  0  0  0
 25 30  1  0  0  0  0
 26 27  1  0  0  0  0
 26 28  2  0  0  0  0
 27 25  2  0  0  0  0
 28 31  1  0  0  0  0
 31 30  2  0  0  0  0
 31 29  1  0  0  0  0
M  END
>  <MODEL>
2

>  <REMARK>
 VINA RESULT:      -6.0      3.134      6.937
  Name = 
  9 active torsions:
  status: ('A' for Active; 'I' for Inactive)
    1  A    between atoms: C_1  and  N_24
    2  A    between atoms: C_3  and  C_15
    3  A    between atoms: C_3  and  N_24
    4  A    between atoms: C_4  and  C_27
    5  A    between atoms: C_5  and  C_27
    6  A    between atoms: C_9  and  C_23
    7  A    between atoms: C_19  and  C_21
    8  A    between atoms: C_20  and  C_27
    9  A    between atoms: N_22  and  C_23
                            x       y       z     vdW  Elec       q    Type
                         _______ _______ _______ _____ _____    ______ ____

>  <TORSDO>
F 9

$$$$
=
 OpenBabel10272400383D

 31 34  0  0  1  0  0  0  0  0999 V2000
  189.9790  177.1410  140.8790 C   0  0  2  0  0  3  0  0  0  0  0  0
  189.0180  178.5160  139.0950 C   0  0  0  0  0  2  0  0  0  0  0  0
  190.1070  177.4950  139.4030 C   0  0  2  0  0  3  0  0  0  0  0  0
  188.9280  178.0660  141.4610 C   0  0  1  0  0  3  0  0  0  0  0  0
  188.0850  178.5210  140.2880 C   0  0  0  0  0  2  0  0  0  0  0  0
  188.2440  176.1130  142.6360 O   0  0  0  0  0  0  0  0  0  0  0  0
  188.0940  177.3560  142.4770 C   0  0  0  0  0  0  0  0  0  0  0  0
  187.1090  178.0730  143.2290 N   0  0  0  0  0  2  0  0  0  0  0  0
  186.3030  177.4490  144.2680 C   0  0  0  0  0  2  0  0  0  0  0  0
  185.7560  178.4830  146.4660 C   0  0  0  0  0  1  0  0  0  0  0  0
  186.8390  177.8210  145.6400 C   0  0  0  0  0  2  0  0  0  0  0  0
  191.3130  177.2890  141.6010 C   0  0  0  0  0  2  0  0  0  0  0  0
  191.2490  176.5880  142.8770 N   0  0  0  0  0  2  0  0  0  0  0  0
  191.6870  177.5020  143.9190 C   0  0  0  0  0  3  0  0  0  0  0  0
  190.5160  177.7990  144.8400 C   0  0  0  0  0  2  0  0  0  0  0  0
  191.5910  176.8400  145.2830 C   0  0  0  0  0  2  0  0  0  0  0  0
  190.0040  176.2270  138.5430 C   0  0  2  0  0  3  0  0  0  0  0  0
  194.2950  176.3390  135.8740 C   0  0  0  0  0  1  0  0  0  0  0  0
  191.3120  175.4340  138.4280 C   0  0  2  0  0  3  0  0  0  0  0  0
  192.0750  174.4090  136.2390 C   0  0  0  0  0  2  0  0  0  0  0  0
  192.8440  176.4390  138.2460 S   0  0  0  0  0  0  0  0  0  0  0  0
  192.8850  176.5330  136.4050 C   0  0  2  0  0  3  0  0  0  0  0  0
  191.9460  175.7120  135.7410 O   0  0  0  0  0  0  0  0  0  0  0  0
  191.2000  174.2460  137.4710 C   0  0  0  0  0  2  0  0  0  0  0  0
  189.1610  176.3360  137.2960 C   0  0  0  0  0  0  0  0  0  0  0  0
  188.7520  177.4220  135.1600 C   0  0  0  0  0  3  0  0  0  0  0  0
  189.4750  177.3230  136.3550 C   0  0  0  0  0  3  0  0  0  0  0  0
  187.7080  176.5310  134.9000 C   0  0  0  0  0  3  0  0  0  0  0  0
  186.3420  174.6680  135.5840 O   0  0  0  0  0  1  0  0  0  0  0  0
  188.1130  175.4450  137.0310 C   0  0  0  0  0  3  0  0  0  0  0  0
  187.3850  175.5450  135.8370 C   0  0  0  0  0  0  0  0  0  0  0  0
  1  4  1  0  0  0  0
  1 12  1  1  0  0  0
  2  3  1  0  0  0  0
  2  5  1  0  0  0  0
  3 17  1  6  0  0  0
  3  1  1  0  0  0  0
  4  7  1  1  0  0  0
  5  4  1  0  0  0  0
  7  6  2  0  0  0  0
  7  8  1  0  0  0  0
  8  9  1  0  0  0  0
  9 11  1  0  0  0  0
 11 10  1  0  0  0  0
 12 13  1  0  0  0  0
 13 14  1  0  0  0  0
 14 15  1  0  0  0  0
 14 16  1  0  0  0  0
 15 16  1  0  0  0  0
 17 25  1  6  0  0  0
 19 17  1  6  0  0  0
 20 24  1  0  0  0  0
 21 19  1  0  0  0  0
 22 18  1  6  0  0  0
 22 21  1  0  0  0  0
 23 20  1  0  0  0  0
 23 22  1  0  0  0  0
 24 19  1  0  0  0  0
 26 27  1  0  0  0  0
 27 25  2  0  0  0  0
 28 26  2  0  0  0  0
 28 31  1  0  0  0  0
 29 31  1  0  0  0  0
 30 25  1  0  0  0  0
 31 30  2  0  0  0  0
M  END
>  <MODEL>
3

>  <REMARK>
 VINA RESULT:      -6.0      2.724      6.247
  Name = 
  9 active torsions:
  status: ('A' for Active; 'I' for Inactive)
    1  A    between atoms: C_1  and  N_24
    2  A    between atoms: C_3  and  C_15
    3  A    between atoms: C_3  and  N_24
    4  A    between atoms: C_4  and  C_27
    5  A    between atoms: C_5  and  C_27
    6  A    between atoms: C_9  and  C_23
    7  A    between atoms: C_19  and  C_21
    8  A    between atoms: C_20  and  C_27
    9  A    between atoms: N_22  and  C_23
                            x       y       z     vdW  Elec       q    Type
                         _______ _______ _______ _____ _____    ______ ____

>  <TORSDO>
F 9

$$$$
=
 OpenBabel10272400383D

 31 34  0  0  1  0  0  0  0  0999 V2000
  187.8810  177.4400  136.9830 C   0  0  2  0  0  3  0  0  0  0  0  0
  187.2230  176.7890  134.7160 C   0  0  0  0  0  2  0  0  0  0  0  0
  188.3600  176.7200  135.7280 C   0  0  2  0  0  3  0  0  0  0  0  0
  186.5390  178.0600  136.6460 C   0  0  1  0  0  3  0  0  0  0  0  0
  186.0020  177.2650  135.4730 C   0  0  0  0  0  2  0  0  0  0  0  0
  184.8500  176.9860  137.9330 O   0  0  0  0  0  0  0  0  0  0  0  0
  185.6080  177.9870  137.8130 C   0  0  0  0  0  0  0  0  0  0  0  0
  185.5510  179.0630  138.7560 N   0  0  0  0  0  2  0  0  0  0  0  0
  184.7060  179.0270  139.9400 C   0  0  0  0  0  2  0  0  0  0  0  0
  184.7180  179.0550  142.4300 C   0  0  0  0  0  1  0  0  0  0  0  0
  185.5570  178.8490  141.1860 C   0  0  0  0  0  2  0  0  0  0  0  0
  188.8840  178.4960  137.4320 C   0  0  0  0  0  2  0  0  0  0  0  0
  188.8240  178.6280  138.8830 N   0  0  0  0  0  2  0  0  0  0  0  0
  188.9350  177.3010  139.4640 C   0  0  0  0  0  3  0  0  0  0  0  0
  190.2720  177.1840  140.1760 C   0  0  0  0  0  2  0  0  0  0  0  0
  189.0120  177.3880  140.9790 C   0  0  0  0  0  2  0  0  0  0  0  0
  188.7770  175.2820  136.0690 C   0  0  2  0  0  3  0  0  0  0  0  0
  193.4590  174.3510  137.7290 C   0  0  0  0  0  1  0  0  0  0  0  0
  190.1420  174.8690  135.5020 C   0  0  2  0  0  3  0  0  0  0  0  0
  192.2220  176.2760  135.8450 C   0  0  0  0  0  2  0  0  0  0  0  0
  191.0760  173.6280  136.4890 S   0  0  0  0  0  0  0  0  0  0  0  0
  192.0160  174.7930  137.5640 C   0  0  2  0  0  3  0  0  0  0  0  0
  191.9120  176.1570  137.2070 O   0  0  0  0  0  0  0  0  0  0  0  0
  190.9650  176.0640  135.0180 C   0  0  0  0  0  2  0  0  0  0  0  0
  187.6820  174.2460  136.0310 C   0  0  0  0  0  0  0  0  0  0  0  0
  186.6130  172.4010  134.8620 C   0  0  0  0  0  3  0  0  0  0  0  0
  187.5810  173.4120  134.9120 C   0  0  0  0  0  3  0  0  0  0  0  0
  185.7380  172.2200  135.9350 C   0  0  0  0  0  3  0  0  0  0  0  0
  184.9530  172.8780  138.1160 O   0  0  0  0  0  1  0  0  0  0  0  0
  186.8010  174.0590  137.1050 C   0  0  0  0  0  3  0  0  0  0  0  0
  185.8290  173.0510  137.0560 C   0  0  0  0  0  0  0  0  0  0  0  0
  1 12  1  6  0  0  0
  2  5  1  0  0  0  0
  2  3  1  0  0  0  0
  3 17  1  1  0  0  0
  3  1  1  0  0  0  0
  4  1  1  0  0  0  0
  4  7  1  1  0  0  0
  5  4  1  0  0  0  0
  7  6  2  0  0  0  0
  7  8  1  0  0  0  0
  8  9  1  0  0  0  0
  9 11  1  0  0  0  0
 11 10  1  0  0  0  0
 12 13  1  0  0  0  0
 13 14  1  0  0  0  0
 14 15  1  0  0  0  0
 14 16  1  0  0  0  0
 15 16  1  0  0  0  0
 17 25  1  6  0  0  0
 19 17  1  1  0  0  0
 19 21  1  0  0  0  0
 20 23  1  0  0  0  0
 21 22  1  0  0  0  0
 22 18  1  6  0  0  0
 23 22  1  0  0  0  0
 24 19  1  0  0  0  0
 24 20  1  0  0  0  0
 25 30  1  0  0  0  0
 26 27  1  0  0  0  0
 26 28  2  0  0  0  0
 27 25  2  0  0  0  0
 28 31  1  0  0  0  0
 31 30  2  0  0  0  0
 31 29  1  0  0  0  0
M  END
>  <MODEL>
4

>  <REMARK>
 VINA RESULT:      -6.0      4.018      7.403
  Name = 
  9 active torsions:
  status: ('A' for Active; 'I' for Inactive)
    1  A    between atoms: C_1  and  N_24
    2  A    between atoms: C_3  and  C_15
    3  A    between atoms: C_3  and  N_24
    4  A    between atoms: C_4  and  C_27
    5  A    between atoms: C_5  and  C_27
    6  A    between atoms: C_9  and  C_23
    7  A    between atoms: C_19  and  C_21
    8  A    between atoms: C_20  and  C_27
    9  A    between atoms: N_22  and  C_23
                            x       y       z     vdW  Elec       q    Type
                         _______ _______ _______ _____ _____    ______ ____

>  <TORSDO>
F 9

$$$$
=
 OpenBabel10272400383D

 31 34  0  0  1  0  0  0  0  0999 V2000
  187.6960  178.3660  142.6890 C   0  0  2  0  0  3  0  0  0  0  0  0
  187.7750  176.2090  143.8460 C   0  0  0  0  0  2  0  0  0  0  0  0
  188.6280  177.3880  143.3950 C   0  0  2  0  0  3  0  0  0  0  0  0
  186.3440  177.6860  142.5910 C   0  0  1  0  0  3  0  0  0  0  0  0
  186.3310  176.6340  143.6800 C   0  0  0  0  0  2  0  0  0  0  0  0
  185.0250  179.5410  141.8950 O   0  0  0  0  0  0  0  0  0  0  0  0
  185.2350  178.6710  142.7840 C   0  0  0  0  0  0  0  0  0  0  0  0
  184.4530  178.6480  143.9830 N   0  0  0  0  0  2  0  0  0  0  0  0
  183.3290  179.5450  144.2060 C   0  0  0  0  0  2  0  0  0  0  0  0
  181.2960  179.1640  142.8190 C   0  0  0  0  0  1  0  0  0  0  0  0
  182.0210  178.7810  144.0930 C   0  0  0  0  0  2  0  0  0  0  0  0
  188.2300  178.7440  141.3140 C   0  0  0  0  0  2  0  0  0  0  0  0
  188.6180  177.5340  140.5990 N   0  0  0  0  0  2  0  0  0  0  0  0
  189.0480  177.9140  139.2650 C   0  0  0  0  0  3  0  0  0  0  0  0
  189.9670  176.8370  138.7160 C   0  0  0  0  0  2  0  0  0  0  0  0
  188.5400  176.9170  138.2370 C   0  0  0  0  0  2  0  0  0  0  0  0
  189.3490  178.0880  144.5560 C   0  0  2  0  0  3  0  0  0  0  0  0
  193.0790  177.2670  141.2460 C   0  0  0  0  0  1  0  0  0  0  0  0
  190.8720  177.9030  144.5560 C   0  0  2  0  0  3  0  0  0  0  0  0
  191.9760  175.8350  143.5940 C   0  0  0  0  0  2  0  0  0  0  0  0
  191.7830  178.7590  143.2040 S   0  0  0  0  0  0  0  0  0  0  0  0
  191.7430  177.4020  141.9560 C   0  0  2  0  0  3  0  0  0  0  0  0
  191.2640  176.1610  142.4330 O   0  0  0  0  0  0  0  0  0  0  0  0
  191.2900  176.4530  144.8020 C   0  0  0  0  0  2  0  0  0  0  0  0
  188.6570  178.0390  145.8950 C   0  0  0  0  0  0  0  0  0  0  0  0
  188.8030  177.6510  148.2910 C   0  0  0  0  0  3  0  0  0  0  0  0
  189.3940  177.6570  147.0220 C   0  0  0  0  0  3  0  0  0  0  0  0
  187.4670  178.0290  148.4400 C   0  0  0  0  0  3  0  0  0  0  0  0
  185.3920  178.7710  147.4660 O   0  0  0  0  0  1  0  0  0  0  0  0
  187.3160  178.4160  146.0510 C   0  0  0  0  0  3  0  0  0  0  0  0
  186.7210  178.4080  147.3200 C   0  0  0  0  0  0  0  0  0  0  0  0
  1 12  1  6  0  0  0
  1  3  1  0  0  0  0
  3  2  1  0  0  0  0
  3 17  1  1  0  0  0
  4  1  1  0  0  0  0
  4  7  1  1  0  0  0
  4  5  1  0  0  0  0
  5  2  1  0  0  0  0
  6  7  2  0  0  0  0
  7  8  1  0  0  0  0
  8  9  1  0  0  0  0
 10 11  1  0  0  0  0
 11  9  1  0  0  0  0
 13 12  1  0  0  0  0
 14 13  1  0  0  0  0
 15 14  1  0  0  0  0
 16 15  1  0  0  0  0
 16 14  1  0  0  0  0
 17 25  1  1  0  0  0
 19 17  1  6  0  0  0
 19 24  1  0  0  0  0
 20 24  1  0  0  0  0
 21 19  1  0  0  0  0
 22 18  1  1  0  0  0
 22 23  1  0  0  0  0
 22 21  1  0  0  0  0
 23 20  1  0  0  0  0
 25 30  2  0  0  0  0
 25 27  1  0  0  0  0
 26 28  1  0  0  0  0
 27 26  2  0  0  0  0
 30 31  1  0  0  0  0
 31 29  1  0  0  0  0
 31 28  2  0  0  0  0
M  END
>  <MODEL>
5

>  <REMARK>
 VINA RESULT:      -5.9      2.103      4.499
  Name = 
  9 active torsions:
  status: ('A' for Active; 'I' for Inactive)
    1  A    between atoms: C_1  and  N_24
    2  A    between atoms: C_3  and  C_15
    3  A    between atoms: C_3  and  N_24
    4  A    between atoms: C_4  and  C_27
    5  A    between atoms: C_5  and  C_27
    6  A    between atoms: C_9  and  C_23
    7  A    between atoms: C_19  and  C_21
    8  A    between atoms: C_20  and  C_27
    9  A    between atoms: N_22  and  C_23
                            x       y       z     vdW  Elec       q    Type
                         _______ _______ _______ _____ _____    ______ ____

>  <TORSDO>
F 9

$$$$
=
 OpenBabel10272400383D

 31 34  0  0  1  0  0  0  0  0999 V2000
  189.3890  176.6040  137.9230 C   0  0  2  0  0  3  0  0  0  0  0  0
  189.0870  178.1310  136.0330 C   0  0  0  0  0  2  0  0  0  0  0  0
  189.3360  176.6740  136.4020 C   0  0  2  0  0  3  0  0  0  0  0  0
  189.3320  178.0320  138.4280 C   0  0  1  0  0  3  0  0  0  0  0  0
  188.6970  178.8380  137.3130 C   0  0  0  0  0  2  0  0  0  0  0  0
  187.3220  178.5040  139.6130 O   0  0  0  0  0  0  0  0  0  0  0  0
  188.5230  178.1240  139.6820 C   0  0  0  0  0  0  0  0  0  0  0  0
  189.1220  177.8230  140.9480 N   0  0  0  0  0  2  0  0  0  0  0  0
  188.3740  177.8420  142.1960 C   0  0  0  0  0  2  0  0  0  0  0  0
  189.8910  175.9920  142.8850 C   0  0  0  0  0  1  0  0  0  0  0  0
  188.4600  176.4870  142.8780 C   0  0  0  0  0  2  0  0  0  0  0  0
  190.6510  175.8950  138.4010 C   0  0  0  0  0  2  0  0  0  0  0  0
  191.7540  176.8480  138.4330 N   0  0  0  0  0  2  0  0  0  0  0  0
  192.9930  176.1140  138.2430 C   0  0  0  0  0  3  0  0  0  0  0  0
  192.7520  174.9840  137.2570 C   0  0  0  0  0  2  0  0  0  0  0  0
  193.4670  176.2310  136.8050 C   0  0  0  0  0  2  0  0  0  0  0  0
  188.2550  175.7240  135.8650 C   0  0  2  0  0  3  0  0  0  0  0  0
  189.2690  170.9250  134.6460 C   0  0  0  0  0  1  0  0  0  0  0  0
  188.6820  174.9110  134.6360 C   0  0  2  0  0  3  0  0  0  0  0  0
  190.7730  173.4790  134.6310 C   0  0  0  0  0  2  0  0  0  0  0  0
  187.8310  173.2950  134.4100 S   0  0  0  0  0  0  0  0  0  0  0  0
  189.0060  172.2390  135.3610 C   0  0  2  0  0  3  0  0  0  0  0  0
  190.2000  172.8790  135.7600 O   0  0  0  0  0  0  0  0  0  0  0  0
  190.2000  174.8750  134.4510 C   0  0  0  0  0  2  0  0  0  0  0  0
  186.8420  176.2510  135.8760 C   0  0  0  0  0  0  0  0  0  0  0  0
  184.9690  177.1860  134.6380 C   0  0  0  0  0  3  0  0  0  0  0  0
  186.2950  176.7390  134.6830 C   0  0  0  0  0  3  0  0  0  0  0  0
  184.1810  177.1490  135.7910 C   0  0  0  0  0  3  0  0  0  0  0  0
  183.9410  176.6410  138.1330 O   0  0  0  0  0  1  0  0  0  0  0  0
  186.0470  176.2160  137.0290 C   0  0  0  0  0  3  0  0  0  0  0  0
  184.7200  176.6680  136.9870 C   0  0  0  0  0  0  0  0  0  0  0  0
  1 12  1  6  0  0  0
  1  4  1  0  0  0  0
  2  3  1  0  0  0  0
  2  5  1  0  0  0  0
  3 17  1  1  0  0  0
  3  1  1  0  0  0  0
  4  7  1  1  0  0  0
  5  4  1  0  0  0  0
  6  7  2  0  0  0  0
  7  8  1  0  0  0  0
  8  9  1  0  0  0  0
  9 11  1  0  0  0  0
 11 10  1  0  0  0  0
 12 13  1  0  0  0  0
 14 13  1  0  0  0  0
 15 14  1  0  0  0  0
 16 15  1  0  0  0  0
 16 14  1  0  0  0  0
 17 25  1  6  0  0  0
 19 17  1  1  0  0  0
 20 23  1  0  0  0  0
 21 19  1  0  0  0  0
 21 22  1  0  0  0  0
 22 18  1  6  0  0  0
 22 23  1  0  0  0  0
 24 20  1  0  0  0  0
 24 19  1  0  0  0  0
 25 30  1  0  0  0  0
 26 27  1  0  0  0  0
 26 28  2  0  0  0  0
 27 25  2  0  0  0  0
 28 31  1  0  0  0  0
 31 30  2  0  0  0  0
 31 29  1  0  0  0  0
M  END
>  <MODEL>
6

>  <REMARK>
 VINA RESULT:      -5.7      3.747      7.771
  Name = 
  9 active torsions:
  status: ('A' for Active; 'I' for Inactive)
    1  A    between atoms: C_1  and  N_24
    2  A    between atoms: C_3  and  C_15
    3  A    between atoms: C_3  and  N_24
    4  A    between atoms: C_4  and  C_27
    5  A    between atoms: C_5  and  C_27
    6  A    between atoms: C_9  and  C_23
    7  A    between atoms: C_19  and  C_21
    8  A    between atoms: C_20  and  C_27
    9  A    between atoms: N_22  and  C_23
                            x       y       z     vdW  Elec       q    Type
                         _______ _______ _______ _____ _____    ______ ____

>  <TORSDO>
F 9

$$$$
=
 OpenBabel10272400383D

 31 34  0  0  1  0  0  0  0  0999 V2000
  187.5540  176.2960  137.2910 C   0  0  2  0  0  3  0  0  0  0  0  0
  186.5360  177.8760  135.7210 C   0  0  0  0  0  2  0  0  0  0  0  0
  186.4230  176.4640  136.2840 C   0  0  2  0  0  3  0  0  0  0  0  0
  188.4120  177.5430  137.1970 C   0  0  1  0  0  3  0  0  0  0  0  0
  187.5190  178.6140  136.6060 C   0  0  0  0  0  2  0  0  0  0  0  0
  188.9840  179.1760  138.8300 O   0  0  0  0  0  0  0  0  0  0  0  0
  188.9160  177.9490  138.5440 C   0  0  0  0  0  0  0  0  0  0  0  0
  189.3520  176.9560  139.4790 N   0  0  0  0  0  2  0  0  0  0  0  0
  189.8020  177.2840  140.8240 C   0  0  0  0  0  2  0  0  0  0  0  0
  188.9480  176.5340  143.0390 C   0  0  0  0  0  1  0  0  0  0  0  0
  188.6210  177.3070  141.7790 C   0  0  0  0  0  2  0  0  0  0  0  0
  188.3660  175.0390  137.0070 C   0  0  0  0  0  2  0  0  0  0  0  0
  189.5040  175.3830  136.1620 N   0  0  0  0  0  2  0  0  0  0  0  0
  190.6940  174.7800  136.7380 C   0  0  0  0  0  3  0  0  0  0  0  0
  191.8560  174.9630  135.7770 C   0  0  0  0  0  2  0  0  0  0  0  0
  191.7530  175.8370  137.0010 C   0  0  0  0  0  2  0  0  0  0  0  0
  185.0700  176.1910  136.9560 C   0  0  2  0  0  3  0  0  0  0  0  0
  183.5720  171.3660  136.8030 C   0  0  0  0  0  1  0  0  0  0  0  0
  184.1260  175.3010  136.1370 C   0  0  2  0  0  3  0  0  0  0  0  0
  184.9410  173.2210  134.9400 C   0  0  0  0  0  2  0  0  0  0  0  0
  183.1240  174.0950  137.1010 S   0  0  0  0  0  0  0  0  0  0  0  0
  184.2990  172.6760  137.0580 C   0  0  2  0  0  3  0  0  0  0  0  0
  185.4130  172.8440  136.2040 O   0  0  0  0  0  0  0  0  0  0  0  0
  184.7930  174.7320  134.8830 C   0  0  0  0  0  2  0  0  0  0  0  0
  184.4460  177.3510  137.6900 C   0  0  0  0  0  0  0  0  0  0  0  0
  182.5630  178.8690  137.9490 C   0  0  0  0  0  3  0  0  0  0  0  0
  183.2020  177.8300  137.2610 C   0  0  0  0  0  3  0  0  0  0  0  0
  183.1690  179.4370  139.0720 C   0  0  0  0  0  3  0  0  0  0  0  0
  185.0180  179.5410  140.6130 O   0  0  0  0  0  1  0  0  0  0  0  0
  185.0480  177.9260  138.8170 C   0  0  0  0  0  3  0  0  0  0  0  0
  184.4130  178.9690  139.5050 C   0  0  0  0  0  0  0  0  0  0  0  0
  1 12  1  6  0  0  0
  2  3  1  0  0  0  0
  2  5  1  0  0  0  0
  3 17  1  1  0  0  0
  3  1  1  0  0  0  0
  4  1  1  0  0  0  0
  4  7  1  1  0  0  0
  5  4  1  0  0  0  0
  7  6  2  0  0  0  0
  7  8  1  0  0  0  0
  8  9  1  0  0  0  0
  9 11  1  0  0  0  0
 11 10  1  0  0  0  0
 13 14  1  0  0  0  0
 13 12  1  0  0  0  0
 14 16  1  0  0  0  0
 15 14  1  0  0  0  0
 15 16  1  0  0  0  0
 17 25  1  6  0  0  0
 19 17  1  1  0  0  0
 19 21  1  0  0  0  0
 20 23  1  0  0  0  0
 22 18  1  6  0  0  0
 22 21  1  0  0  0  0
 23 22  1  0  0  0  0
 24 20  1  0  0  0  0
 24 19  1  0  0  0  0
 25 30  1  0  0  0  0
 26 28  2  0  0  0  0
 27 25  2  0  0  0  0
 27 26  1  0  0  0  0
 28 31  1  0  0  0  0
 30 31  2  0  0  0  0
 31 29  1  0  0  0  0
M  END
>  <MODEL>
7

>  <REMARK>
 VINA RESULT:      -5.5      3.905      7.984
  Name = 
  9 active torsions:
  status: ('A' for Active; 'I' for Inactive)
    1  A    between atoms: C_1  and  N_24
    2  A    between atoms: C_3  and  C_15
    3  A    between atoms: C_3  and  N_24
    4  A    between atoms: C_4  and  C_27
    5  A    between atoms: C_5  and  C_27
    6  A    between atoms: C_9  and  C_23
    7  A    between atoms: C_19  and  C_21
    8  A    between atoms: C_20  and  C_27
    9  A    between atoms: N_22  and  C_23
                            x       y       z     vdW  Elec       q    Type
                         _______ _______ _______ _____ _____    ______ ____

>  <TORSDO>
F 9

$$$$
=
 OpenBabel10272400383D

 31 34  0  0  1  0  0  0  0  0999 V2000
  188.6980  177.2930  141.3390 C   0  0  2  0  0  3  0  0  0  0  0  0
  188.4980  179.6430  141.9960 C   0  0  0  0  0  2  0  0  0  0  0  0
  187.8010  178.5200  141.2380 C   0  0  2  0  0  3  0  0  0  0  0  0
  189.9800  177.7430  142.0140 C   0  0  1  0  0  3  0  0  0  0  0  0
  189.6220  179.0000  142.7800 C   0  0  0  0  0  2  0  0  0  0  0  0
  190.4020  175.4740  142.5940 O   0  0  0  0  0  0  0  0  0  0  0  0
  190.5000  176.6850  142.9330 C   0  0  0  0  0  0  0  0  0  0  0  0
  191.0650  177.0450  144.1980 N   0  0  0  0  0  2  0  0  0  0  0  0
  191.6360  176.0670  145.1120 C   0  0  0  0  0  2  0  0  0  0  0  0
  192.3570  175.7200  147.4690 C   0  0  0  0  0  1  0  0  0  0  0  0
  191.4770  176.5380  146.5480 C   0  0  0  0  0  2  0  0  0  0  0  0
  188.9730  176.6930  139.9660 C   0  0  0  0  0  2  0  0  0  0  0  0
  189.8930  177.5600  139.2390 N   0  0  0  0  0  2  0  0  0  0  0  0
  189.5720  177.4760  137.8250 C   0  0  0  0  0  3  0  0  0  0  0  0
  188.0710  177.6280  137.6480 C   0  0  0  0  0  2  0  0  0  0  0  0
  188.9820  178.7870  137.3340 C   0  0  0  0  0  2  0  0  0  0  0  0
  186.4020  178.2010  141.7870 C   0  0  2  0  0  3  0  0  0  0  0  0
  181.8040  177.3970  139.8500 C   0  0  0  0  0  1  0  0  0  0  0  0
  185.2690  179.0020  141.1330 C   0  0  2  0  0  3  0  0  0  0  0  0
  184.3820  178.4410  138.8270 C   0  0  0  0  0  2  0  0  0  0  0  0
  183.5640  178.5580  141.6650 S   0  0  0  0  0  0  0  0  0  0  0  0
  183.2160  177.2680  140.3950 C   0  0  2  0  0  3  0  0  0  0  0  0
  184.1780  177.1640  139.3650 O   0  0  0  0  0  0  0  0  0  0  0  0
  185.4560  179.1640  139.6240 C   0  0  0  0  0  2  0  0  0  0  0  0
  186.3080  177.9770  143.2760 C   0  0  0  0  0  0  0  0  0  0  0  0
  187.1830  176.8920  145.2680 C   0  0  0  0  0  3  0  0  0  0  0  0
  187.2010  177.0860  143.8820 C   0  0  0  0  0  3  0  0  0  0  0  0
  186.2660  177.5910  146.0580 C   0  0  0  0  0  3  0  0  0  0  0  0
  184.4510  179.1640  146.2430 O   0  0  0  0  0  1  0  0  0  0  0  0
  185.3900  178.6750  144.0730 C   0  0  0  0  0  3  0  0  0  0  0  0
  185.3670  178.4790  145.4610 C   0  0  0  0  0  0  0  0  0  0  0  0
  1 12  1  6  0  0  0
  1  4  1  0  0  0  0
  2  5  1  0  0  0  0
  3  1  1  0  0  0  0
  3 17  1  1  0  0  0
  3  2  1  0  0  0  0
  4  5  1  0  0  0  0
  4  7  1  1  0  0  0
  6  7  2  0  0  0  0
  7  8  1  0  0  0  0
  8  9  1  0  0  0  0
  9 11  1  0  0  0  0
 11 10  1  0  0  0  0
 13 12  1  0  0  0  0
 14 13  1  0  0  0  0
 15 14  1  0  0  0  0
 16 15  1  0  0  0  0
 16 14  1  0  0  0  0
 17 25  1  1  0  0  0
 19 21  1  0  0  0  0
 19 17  1  6  0  0  0
 20 23  1  0  0  0  0
 20 24  1  0  0  0  0
 22 18  1  6  0  0  0
 22 21  1  0  0  0  0
 23 22  1  0  0  0  0
 24 19  1  0  0  0  0
 25 27  2  0  0  0  0
 25 30  1  0  0  0  0
 26 28  2  0  0  0  0
 27 26  1  0  0  0  0
 30 31  2  0  0  0  0
 31 28  1  0  0  0  0
 31 29  1  0  0  0  0
M  END
>  <MODEL>
8

>  <REMARK>
 VINA RESULT:      -5.5      2.362      5.404
  Name = 
  9 active torsions:
  status: ('A' for Active; 'I' for Inactive)
    1  A    between atoms: C_1  and  N_24
    2  A    between atoms: C_3  and  C_15
    3  A    between atoms: C_3  and  N_24
    4  A    between atoms: C_4  and  C_27
    5  A    between atoms: C_5  and  C_27
    6  A    between atoms: C_9  and  C_23
    7  A    between atoms: C_19  and  C_21
    8  A    between atoms: C_20  and  C_27
    9  A    between atoms: N_22  and  C_23
                            x       y       z     vdW  Elec       q    Type
                         _______ _______ _______ _____ _____    ______ ____

>  <TORSDO>
F 9

$$$$
=
 OpenBabel10272400383D

 31 34  0  0  1  0  0  0  0  0999 V2000
  183.5420  178.0630  140.0980 C   0  0  2  0  0  3  0  0  0  0  0  0
  183.3520  180.1590  138.8460 C   0  0  0  0  0  2  0  0  0  0  0  0
  184.3330  179.0760  139.2790 C   0  0  2  0  0  3  0  0  0  0  0  0
  182.1490  178.6360  140.2740 C   0  0  1  0  0  3  0  0  0  0  0  0
  181.9660  179.6280  139.1440 C   0  0  0  0  0  2  0  0  0  0  0  0
  180.1060  177.6300  140.9650 O   0  0  0  0  0  0  0  0  0  0  0  0
  181.1160  177.5570  140.2120 C   0  0  0  0  0  0  0  0  0  0  0  0
  181.2950  176.4380  139.3370 N   0  0  0  0  0  2  0  0  0  0  0  0
  180.3010  175.3850  139.1930 C   0  0  0  0  0  2  0  0  0  0  0  0
  180.3920  174.9500  136.7440 C   0  0  0  0  0  1  0  0  0  0  0  0
  180.7310  174.4050  138.1150 C   0  0  0  0  0  2  0  0  0  0  0  0
  184.2080  177.7980  141.4420 C   0  0  0  0  0  2  0  0  0  0  0  0
  183.7200  178.7640  142.4190 N   0  0  0  0  0  2  0  0  0  0  0  0
  184.4630  178.5760  143.6530 C   0  0  0  0  0  3  0  0  0  0  0  0
  184.5090  179.8930  144.4080 C   0  0  0  0  0  2  0  0  0  0  0  0
  183.5660  178.8060  144.8570 C   0  0  0  0  0  2  0  0  0  0  0  0
  185.0210  178.3790  138.0960 C   0  0  2  0  0  3  0  0  0  0  0  0
  185.6970  174.7180  134.6780 C   0  0  0  0  0  1  0  0  0  0  0  0
  184.3190  177.1010  137.6210 C   0  0  2  0  0  3  0  0  0  0  0  0
  183.6220  176.7670  135.2070 C   0  0  0  0  0  2  0  0  0  0  0  0
  185.4180  175.6640  137.2800 S   0  0  0  0  0  0  0  0  0  0  0  0
  185.7470  175.9970  135.4970 C   0  0  2  0  0  3  0  0  0  0  0  0
  184.9690  177.0280  134.9240 O   0  0  0  0  0  0  0  0  0  0  0  0
  183.2580  177.3720  136.5530 C   0  0  0  0  0  2  0  0  0  0  0  0
  186.5290  178.3590  138.1230 C   0  0  0  0  0  0  0  0  0  0  0  0
  188.6290  178.7780  136.9700 C   0  0  0  0  0  3  0  0  0  0  0  0
  187.2290  178.7300  136.9690 C   0  0  0  0  0  3  0  0  0  0  0  0
  189.3370  178.4520  138.1290 C   0  0  0  0  0  3  0  0  0  0  0  0
  189.3500  177.7410  140.4310 O   0  0  0  0  0  1  0  0  0  0  0  0
  187.2450  178.0330  139.2830 C   0  0  0  0  0  3  0  0  0  0  0  0
  188.6460  178.0750  139.2840 C   0  0  0  0  0  0  0  0  0  0  0  0
  1  4  1  0  0  0  0
  1 12  1  1  0  0  0
  2  5  1  0  0  0  0
  2  3  1  0  0  0  0
  3 17  1  6  0  0  0
  3  1  1  0  0  0  0
  4  7  1  6  0  0  0
  5  4  1  0  0  0  0
  7  6  2  0  0  0  0
  8  7  1  0  0  0  0
  9  8  1  0  0  0  0
 10 11  1  0  0  0  0
 11  9  1  0  0  0  0
 12 13  1  0  0  0  0
 13 14  1  0  0  0  0
 14 15  1  0  0  0  0
 14 16  1  0  0  0  0
 15 16  1  0  0  0  0
 17 25  1  1  0  0  0
 19 17  1  6  0  0  0
 20 24  1  0  0  0  0
 21 19  1  0  0  0  0
 22 18  1  6  0  0  0
 22 21  1  0  0  0  0
 23 20  1  0  0  0  0
 23 22  1  0  0  0  0
 24 19  1  0  0  0  0
 25 30  1  0  0  0  0
 26 28  2  0  0  0  0
 27 26  1  0  0  0  0
 27 25  2  0  0  0  0
 28 31  1  0  0  0  0
 30 31  2  0  0  0  0
 31 29  1  0  0  0  0
M  END
>  <MODEL>
9

>  <REMARK>
 VINA RESULT:      -5.5      4.066      7.257
  Name = 
  9 active torsions:
  status: ('A' for Active; 'I' for Inactive)
    1  A    between atoms: C_1  and  N_24
    2  A    between atoms: C_3  and  C_15
    3  A    between atoms: C_3  and  N_24
    4  A    between atoms: C_4  and  C_27
    5  A    between atoms: C_5  and  C_27
    6  A    between atoms: C_9  and  C_23
    7  A    between atoms: C_19  and  C_21
    8  A    between atoms: C_20  and  C_27
    9  A    between atoms: N_22  and  C_23
                            x       y       z     vdW  Elec       q    Type
                         _______ _______ _______ _____ _____    ______ ____

>  <TORSDO>
F 9

$$$$
