=
 OpenBabel10272401453D

 28 30  0  0  1  0  0  0  0  0999 V2000
  187.9270  177.7900  144.0670 C   0  0  0  0  0  0  0  0  0  0  0  0
  183.2600  178.6330  145.0670 F   0  0  0  0  0  0  0  0  0  0  0  0
  185.0640  178.7770  141.8890 C   0  0  0  0  0  0  0  0  0  0  0  0
  185.5740  178.2070  144.5930 C   0  0  0  0  0  0  0  0  0  0  0  0
  186.3550  178.4230  142.3020 C   0  0  0  0  0  3  0  0  0  0  0  0
  187.1180  177.5810  146.3520 C   0  0  0  0  0  3  0  0  0  0  0  0
  184.2800  178.5580  144.1760 C   0  0  0  0  0  0  0  0  0  0  0  0
  185.8310  177.9270  145.9390 C   0  0  0  0  0  3  0  0  0  0  0  0
  184.0330  178.8420  142.8310 C   0  0  0  0  0  3  0  0  0  0  0  0
  188.1580  177.5140  145.4230 C   0  0  0  0  0  3  0  0  0  0  0  0
  186.6260  178.1370  143.6460 C   0  0  0  0  0  0  0  0  0  0  0  0
  189.0610  177.7070  143.0780 C   0  0  2  0  0  3  0  0  0  0  0  0
  189.1990  176.2940  142.4970 C   0  0  0  0  0  2  0  0  0  0  0  0
  191.4820  177.2280  143.9720 C   0  0  1  0  0  3  0  0  0  0  0  0
  189.9370  175.4720  143.3650 O   0  0  0  0  0  0  0  0  0  0  0  0
  190.5120  179.3780  143.9090 O   0  0  0  0  0  0  0  0  0  0  0  0
  190.3640  178.1910  143.6680 C   0  0  0  0  0  0  0  0  0  0  0  0
  191.5820  176.9960  145.4690 C   0  0  0  0  0  1  0  0  0  0  0  0
  191.2700  175.8960  143.2450 C   0  0  0  0  0  2  0  0  0  0  0  0
  185.4420  178.6080  139.4790 C   0  0  0  0  0  0  0  0  0  0  0  0
  184.7590  179.0910  140.4860 C   0  0  0  0  0  3  0  0  0  0  0  0
  186.1100  178.1360  138.4590 C   0  0  0  0  0  3  0  0  0  0  0  0
  187.4930  177.7610  138.5430 N   0  0  0  0  0  0  0  0  0  0  0  0
  187.9440  176.6200  137.7700 C   0  0  0  0  0  1  0  0  0  0  0  0
  188.4460  178.4100  139.4360 C   0  0  0  0  0  2  0  0  0  0  0  0
  189.7660  177.7810  139.3210 C   0  0  0  0  0  0  0  0  0  0  0  0
  192.0990  176.7130  139.1460 O   0  0  0  0  0  1  0  0  0  0  0  0
  190.8590  177.2770  139.2380 C   0  0  0  0  0  0  0  0  0  0  0  0
  1 10  1  0  0  0  0
  3  5  2  0  0  0  0
  3  9  1  0  0  0  0
  4  8  2  0  0  0  0
  5 11  1  0  0  0  0
  7  4  1  0  0  0  0
  7  2  1  0  0  0  0
  8  6  1  0  0  0  0
  9  7  2  0  0  0  0
 10  6  2  0  0  0  0
 11  1  2  0  0  0  0
 11  4  1  0  0  0  0
 12 17  1  0  0  0  0
 12  1  1  1  0  0  0
 13 12  1  0  0  0  0
 13 15  1  0  0  0  0
 14 18  1  1  0  0  0
 17 16  2  0  0  0  0
 17 14  1  0  0  0  0
 19 15  1  0  0  0  0
 19 14  1  0  0  0  0
 20 21  2  0  0  0  0
 21  3  1  0  0  0  0
 22 23  1  0  0  0  0
 22 20  2  0  0  0  0
 23 25  1  0  0  0  0
 24 23  1  0  0  0  0
 26 25  1  0  0  0  0
 27 28  1  0  0  0  0
 28 26  3  0  0  0  0
M  END
>  <MODEL>
1

>  <REMARK>
 VINA RESULT:      -9.3      0.000      0.000
  Name = 
  5 active torsions:
  status: ('A' for Active; 'I' for Inactive)
    1  A    between atoms: C_1  and  C_2
    2  A    between atoms: C_9  and  C_15
    3  A    between atoms: C_10  and  C_13
    4  A    between atoms: N_12  and  C_15
    5  A    between atoms: N_12  and  C_24
                            x       y       z     vdW  Elec       q    Type
                         _______ _______ _______ _____ _____    ______ ____

>  <TORSDO>
F 5

$$$$
=
 OpenBabel10272401453D

 28 30  0  0  1  0  0  0  0  0999 V2000
  188.0040  177.8220  144.1620 C   0  0  0  0  0  0  0  0  0  0  0  0
  183.2980  178.5830  145.0370 F   0  0  0  0  0  0  0  0  0  0  0  0
  185.1790  178.7330  141.9030 C   0  0  0  0  0  0  0  0  0  0  0  0
  185.6320  178.1970  144.6250 C   0  0  0  0  0  0  0  0  0  0  0  0
  186.4660  178.4080  142.3520 C   0  0  0  0  0  3  0  0  0  0  0  0
  187.1420  177.6180  146.4270 C   0  0  0  0  0  3  0  0  0  0  0  0
  184.3420  178.5190  144.1720 C   0  0  0  0  0  0  0  0  0  0  0  0
  185.8600  177.9350  145.9790 C   0  0  0  0  0  3  0  0  0  0  0  0
  184.1240  178.7870  142.8180 C   0  0  0  0  0  3  0  0  0  0  0  0
  188.2070  177.5620  145.5260 C   0  0  0  0  0  3  0  0  0  0  0  0
  186.7080  178.1400  143.7050 C   0  0  0  0  0  0  0  0  0  0  0  0
  189.1650  177.7520  143.2020 C   0  0  2  0  0  3  0  0  0  0  0  0
  189.2870  176.3610  142.5660 C   0  0  0  0  0  2  0  0  0  0  0  0
  191.5470  177.1760  144.1430 C   0  0  1  0  0  3  0  0  0  0  0  0
  189.9790  175.4860  143.4200 O   0  0  0  0  0  0  0  0  0  0  0  0
  190.6290  179.3510  144.1440 O   0  0  0  0  0  0  0  0  0  0  0  0
  190.4610  178.1790  143.8490 C   0  0  0  0  0  0  0  0  0  0  0  0
  191.5980  176.8800  145.6310 C   0  0  0  0  0  1  0  0  0  0  0  0
  191.3240  175.8820  143.3550 C   0  0  0  0  0  2  0  0  0  0  0  0
  183.7680  178.7430  139.9060 C   0  0  0  0  0  0  0  0  0  0  0  0
  184.9040  179.0290  140.4900 C   0  0  0  0  0  3  0  0  0  0  0  0
  182.6410  178.4650  139.3040 C   0  0  0  0  0  3  0  0  0  0  0  0
  181.7910  177.3820  139.7070 N   0  0  0  0  0  0  0  0  0  0  0  0
  182.2840  176.0270  139.5510 C   0  0  0  0  0  1  0  0  0  0  0  0
  180.4240  177.5690  140.1810 C   0  0  0  0  0  2  0  0  0  0  0  0
  180.3630  178.6680  141.1500 C   0  0  0  0  0  0  0  0  0  0  0  0
  180.2090  180.5860  142.8550 O   0  0  0  0  0  1  0  0  0  0  0  0
  180.2950  179.5680  141.9500 C   0  0  0  0  0  0  0  0  0  0  0  0
  1 10  1  0  0  0  0
  3  5  2  0  0  0  0
  3  9  1  0  0  0  0
  4  8  2  0  0  0  0
  5 11  1  0  0  0  0
  7  4  1  0  0  0  0
  7  2  1  0  0  0  0
  8  6  1  0  0  0  0
  9  7  2  0  0  0  0
 10  6  2  0  0  0  0
 11  1  2  0  0  0  0
 11  4  1  0  0  0  0
 12 17  1  0  0  0  0
 12  1  1  1  0  0  0
 13 12  1  0  0  0  0
 13 15  1  0  0  0  0
 14 18  1  1  0  0  0
 17 14  1  0  0  0  0
 17 16  2  0  0  0  0
 19 15  1  0  0  0  0
 19 14  1  0  0  0  0
 20 21  2  0  0  0  0
 21  3  1  0  0  0  0
 22 23  1  0  0  0  0
 22 20  2  0  0  0  0
 23 25  1  0  0  0  0
 24 23  1  0  0  0  0
 25 26  1  0  0  0  0
 26 28  3  0  0  0  0
 28 27  1  0  0  0  0
M  END
>  <MODEL>
2

>  <REMARK>
 VINA RESULT:      -9.1      2.803      4.385
  Name = 
  5 active torsions:
  status: ('A' for Active; 'I' for Inactive)
    1  A    between atoms: C_1  and  C_2
    2  A    between atoms: C_9  and  C_15
    3  A    between atoms: C_10  and  C_13
    4  A    between atoms: N_12  and  C_15
    5  A    between atoms: N_12  and  C_24
                            x       y       z     vdW  Elec       q    Type
                         _______ _______ _______ _____ _____    ______ ____

>  <TORSDO>
F 5

$$$$
=
 OpenBabel10272401453D

 28 30  0  0  1  0  0  0  0  0999 V2000
  187.9900  177.8110  144.0490 C   0  0  0  0  0  0  0  0  0  0  0  0
  183.2570  178.5280  144.8070 F   0  0  0  0  0  0  0  0  0  0  0  0
  185.2170  178.7220  141.7260 C   0  0  0  0  0  0  0  0  0  0  0  0
  185.6040  178.1640  144.4530 C   0  0  0  0  0  0  0  0  0  0  0  0
  186.4950  178.4020  142.2040 C   0  0  0  0  0  3  0  0  0  0  0  0
  187.0720  177.5790  146.2890 C   0  0  0  0  0  3  0  0  0  0  0  0
  184.3230  178.4800  143.9700 C   0  0  0  0  0  0  0  0  0  0  0  0
  185.7990  177.8900  145.8100 C   0  0  0  0  0  3  0  0  0  0  0  0
  184.1390  178.7590  142.6130 C   0  0  0  0  0  3  0  0  0  0  0  0
  188.1590  177.5400  145.4150 C   0  0  0  0  0  3  0  0  0  0  0  0
  186.7040  178.1230  143.5610 C   0  0  0  0  0  0  0  0  0  0  0  0
  189.1760  177.7590  143.1190 C   0  0  2  0  0  3  0  0  0  0  0  0
  189.3340  176.3710  142.4850 C   0  0  0  0  0  2  0  0  0  0  0  0
  191.5410  177.2160  144.1200 C   0  0  1  0  0  3  0  0  0  0  0  0
  190.0170  175.5050  143.3550 O   0  0  0  0  0  0  0  0  0  0  0  0
  190.5930  179.3770  144.0990 O   0  0  0  0  0  0  0  0  0  0  0  0
  190.4490  178.2030  143.7990 C   0  0  0  0  0  0  0  0  0  0  0  0
  191.5580  176.9190  145.6080 C   0  0  0  0  0  1  0  0  0  0  0  0
  191.3570  175.9200  143.3250 C   0  0  0  0  0  2  0  0  0  0  0  0
  185.7030  178.5380  139.3360 C   0  0  0  0  0  0  0  0  0  0  0  0
  184.9770  179.0290  140.3080 C   0  0  0  0  0  3  0  0  0  0  0  0
  186.4160  178.0590  138.3500 C   0  0  0  0  0  3  0  0  0  0  0  0
  187.7930  177.6830  138.4990 N   0  0  0  0  0  0  0  0  0  0  0  0
  188.6150  178.4360  139.4260 C   0  0  0  0  0  1  0  0  0  0  0  0
  188.4300  176.6430  137.7000 C   0  0  0  0  0  2  0  0  0  0  0  0
  187.4560  175.6090  137.3320 C   0  0  0  0  0  0  0  0  0  0  0  0
  185.7850  173.7680  136.6780 O   0  0  0  0  0  1  0  0  0  0  0  0
  186.6690  174.7470  137.0270 C   0  0  0  0  0  0  0  0  0  0  0  0
  1 10  1  0  0  0  0
  3  5  2  0  0  0  0
  3  9  1  0  0  0  0
  4  8  2  0  0  0  0
  5 11  1  0  0  0  0
  7  4  1  0  0  0  0
  7  2  1  0  0  0  0
  8  6  1  0  0  0  0
  9  7  2  0  0  0  0
 10  6  2  0  0  0  0
 11  1  2  0  0  0  0
 11  4  1  0  0  0  0
 12 17  1  0  0  0  0
 12  1  1  1  0  0  0
 13 12  1  0  0  0  0
 13 15  1  0  0  0  0
 14 18  1  1  0  0  0
 17 16  2  0  0  0  0
 17 14  1  0  0  0  0
 19 15  1  0  0  0  0
 19 14  1  0  0  0  0
 20 21  2  0  0  0  0
 21  3  1  0  0  0  0
 22 23  1  0  0  0  0
 22 20  2  0  0  0  0
 23 24  1  0  0  0  0
 25 23  1  0  0  0  0
 26 25  1  0  0  0  0
 27 28  1  0  0  0  0
 28 26  3  0  0  0  0
M  END
>  <MODEL>
3

>  <REMARK>
 VINA RESULT:      -9.0      1.499      1.991
  Name = 
  5 active torsions:
  status: ('A' for Active; 'I' for Inactive)
    1  A    between atoms: C_1  and  C_2
    2  A    between atoms: C_9  and  C_15
    3  A    between atoms: C_10  and  C_13
    4  A    between atoms: N_12  and  C_15
    5  A    between atoms: N_12  and  C_24
                            x       y       z     vdW  Elec       q    Type
                         _______ _______ _______ _____ _____    ______ ____

>  <TORSDO>
F 5

$$$$
=
 OpenBabel10272401453D

 28 30  0  0  1  0  0  0  0  0999 V2000
  188.0430  177.8140  144.0200 C   0  0  0  0  0  0  0  0  0  0  0  0
  183.2810  178.5250  144.5750 F   0  0  0  0  0  0  0  0  0  0  0  0
  185.3600  178.6570  141.5690 C   0  0  0  0  0  0  0  0  0  0  0  0
  185.6410  178.1650  144.3220 C   0  0  0  0  0  0  0  0  0  0  0  0
  186.6190  178.3550  142.1050 C   0  0  0  0  0  3  0  0  0  0  0  0
  187.0370  177.6300  146.2270 C   0  0  0  0  0  3  0  0  0  0  0  0
  184.3790  178.4640  143.7810 C   0  0  0  0  0  0  0  0  0  0  0  0
  185.7830  177.9240  145.6920 C   0  0  0  0  0  3  0  0  0  0  0  0
  184.2470  178.7090  142.4120 C   0  0  0  0  0  3  0  0  0  0  0  0
  188.1590  177.5760  145.3980 C   0  0  0  0  0  3  0  0  0  0  0  0
  186.7760  178.1090  143.4750 C   0  0  0  0  0  0  0  0  0  0  0  0
  189.2640  177.7460  143.1390 C   0  0  2  0  0  3  0  0  0  0  0  0
  189.4530  176.3440  142.5450 C   0  0  0  0  0  2  0  0  0  0  0  0
  191.5910  177.2390  144.2450 C   0  0  1  0  0  3  0  0  0  0  0  0
  190.1050  175.5020  143.4620 O   0  0  0  0  0  0  0  0  0  0  0  0
  190.6350  179.3940  144.1350 O   0  0  0  0  0  0  0  0  0  0  0  0
  190.5070  178.2130  143.8580 C   0  0  0  0  0  0  0  0  0  0  0  0
  191.5500  176.9770  145.7400 C   0  0  0  0  0  1  0  0  0  0  0  0
  191.4440  175.9230  143.4750 C   0  0  0  0  0  2  0  0  0  0  0  0
  184.0360  179.3210  139.6230 C   0  0  0  0  0  0  0  0  0  0  0  0
  185.1750  178.9290  140.1360 C   0  0  0  0  0  3  0  0  0  0  0  0
  182.9080  179.7130  139.0910 C   0  0  0  0  0  3  0  0  0  0  0  0
  181.6290  179.3860  139.6530 N   0  0  0  0  0  0  0  0  0  0  0  0
  181.3180  177.9890  139.8880 C   0  0  0  0  0  1  0  0  0  0  0  0
  180.5920  180.3770  139.9150 C   0  0  0  0  0  2  0  0  0  0  0  0
  180.6450  181.4510  138.9170 C   0  0  0  0  0  0  0  0  0  0  0  0
  180.7720  183.3090  137.1440 O   0  0  0  0  0  1  0  0  0  0  0  0
  180.7010  182.3240  138.0870 C   0  0  0  0  0  0  0  0  0  0  0  0
  1 10  1  0  0  0  0
  3  5  2  0  0  0  0
  3  9  1  0  0  0  0
  4  8  2  0  0  0  0
  5 11  1  0  0  0  0
  7  4  1  0  0  0  0
  7  2  1  0  0  0  0
  8  6  1  0  0  0  0
  9  7  2  0  0  0  0
 10  6  2  0  0  0  0
 11  1  2  0  0  0  0
 11  4  1  0  0  0  0
 12 17  1  0  0  0  0
 12  1  1  1  0  0  0
 13 12  1  0  0  0  0
 13 15  1  0  0  0  0
 14 18  1  1  0  0  0
 15 19  1  0  0  0  0
 17 16  2  0  0  0  0
 17 14  1  0  0  0  0
 19 14  1  0  0  0  0
 20 21  2  0  0  0  0
 21  3  1  0  0  0  0
 22 20  2  0  0  0  0
 22 23  1  0  0  0  0
 23 24  1  0  0  0  0
 23 25  1  0  0  0  0
 26 25  1  0  0  0  0
 27 28  1  0  0  0  0
 28 26  3  0  0  0  0
M  END
>  <MODEL>
4

>  <REMARK>
 VINA RESULT:      -8.7      3.240      4.530
  Name = 
  5 active torsions:
  status: ('A' for Active; 'I' for Inactive)
    1  A    between atoms: C_1  and  C_2
    2  A    between atoms: C_9  and  C_15
    3  A    between atoms: C_10  and  C_13
    4  A    between atoms: N_12  and  C_15
    5  A    between atoms: N_12  and  C_24
                            x       y       z     vdW  Elec       q    Type
                         _______ _______ _______ _____ _____    ______ ____

>  <TORSDO>
F 5

$$$$
=
 OpenBabel10272401453D

 28 30  0  0  1  0  0  0  0  0999 V2000
  187.9980  177.8110  144.1940 C   0  0  0  0  0  0  0  0  0  0  0  0
  183.3060  178.5900  145.1220 F   0  0  0  0  0  0  0  0  0  0  0  0
  185.1500  178.7240  141.9660 C   0  0  0  0  0  0  0  0  0  0  0  0
  185.6330  178.1960  144.6840 C   0  0  0  0  0  0  0  0  0  0  0  0
  186.4410  178.3960  142.4000 C   0  0  0  0  0  3  0  0  0  0  0  0
  187.1630  177.6180  146.4700 C   0  0  0  0  0  3  0  0  0  0  0  0
  184.3390  178.5210  144.2450 C   0  0  0  0  0  0  0  0  0  0  0  0
  185.8760  177.9370  146.0360 C   0  0  0  0  0  3  0  0  0  0  0  0
  184.1060  178.7840  142.8930 C   0  0  0  0  0  3  0  0  0  0  0  0
  188.2160  177.5550  145.5570 C   0  0  0  0  0  3  0  0  0  0  0  0
  186.6990  178.1320  143.7510 C   0  0  0  0  0  0  0  0  0  0  0  0
  189.1470  177.7340  143.2210 C   0  0  2  0  0  3  0  0  0  0  0  0
  189.2550  176.3410  142.5860 C   0  0  0  0  0  2  0  0  0  0  0  0
  191.5380  177.1480  144.1350 C   0  0  1  0  0  3  0  0  0  0  0  0
  189.9530  175.4640  143.4330 O   0  0  0  0  0  0  0  0  0  0  0  0
  190.6300  179.3270  144.1420 O   0  0  0  0  0  0  0  0  0  0  0  0
  190.4530  178.1550  143.8520 C   0  0  0  0  0  0  0  0  0  0  0  0
  191.6050  176.8540  145.6230 C   0  0  0  0  0  1  0  0  0  0  0  0
  191.3000  175.8530  143.3510 C   0  0  0  0  0  2  0  0  0  0  0  0
  183.6520  178.9820  140.0500 C   0  0  0  0  0  0  0  0  0  0  0  0
  184.8590  179.0150  140.5550 C   0  0  0  0  0  3  0  0  0  0  0  0
  182.4530  178.9540  139.5270 C   0  0  0  0  0  3  0  0  0  0  0  0
  181.4020  178.1210  140.0370 N   0  0  0  0  0  0  0  0  0  0  0  0
  180.8810  178.4040  141.3610 C   0  0  0  0  0  1  0  0  0  0  0  0
  180.8950  176.9490  139.3320 C   0  0  0  0  0  2  0  0  0  0  0  0
  182.0030  176.1050  138.8760 C   0  0  0  0  0  0  0  0  0  0  0  0
  183.9200  174.6080  138.0390 O   0  0  0  0  0  1  0  0  0  0  0  0
  182.9050  175.4050  138.4850 C   0  0  0  0  0  0  0  0  0  0  0  0
  1 10  1  0  0  0  0
  3  5  2  0  0  0  0
  3  9  1  0  0  0  0
  4  8  2  0  0  0  0
  5 11  1  0  0  0  0
  7  4  1  0  0  0  0
  7  2  1  0  0  0  0
  8  6  1  0  0  0  0
  9  7  2  0  0  0  0
 10  6  2  0  0  0  0
 11  1  2  0  0  0  0
 11  4  1  0  0  0  0
 12 17  1  0  0  0  0
 12  1  1  1  0  0  0
 13 12  1  0  0  0  0
 13 15  1  0  0  0  0
 14 18  1  1  0  0  0
 17 14  1  0  0  0  0
 17 16  2  0  0  0  0
 19 15  1  0  0  0  0
 19 14  1  0  0  0  0
 20 21  2  0  0  0  0
 21  3  1  0  0  0  0
 22 23  1  0  0  0  0
 22 20  2  0  0  0  0
 23 24  1  0  0  0  0
 25 23  1  0  0  0  0
 26 25  1  0  0  0  0
 27 28  1  0  0  0  0
 28 26  3  0  0  0  0
M  END
>  <MODEL>
5

>  <REMARK>
 VINA RESULT:      -8.7      2.551      3.718
  Name = 
  5 active torsions:
  status: ('A' for Active; 'I' for Inactive)
    1  A    between atoms: C_1  and  C_2
    2  A    between atoms: C_9  and  C_15
    3  A    between atoms: C_10  and  C_13
    4  A    between atoms: N_12  and  C_15
    5  A    between atoms: N_12  and  C_24
                            x       y       z     vdW  Elec       q    Type
                         _______ _______ _______ _____ _____    ______ ____

>  <TORSDO>
F 5

$$$$
=
 OpenBabel10272401453D

 28 30  0  0  1  0  0  0  0  0999 V2000
  188.2500  177.8180  142.5050 C   0  0  0  0  0  0  0  0  0  0  0  0
  183.7570  179.2300  141.3630 F   0  0  0  0  0  0  0  0  0  0  0  0
  185.2450  178.4700  144.6170 C   0  0  0  0  0  0  0  0  0  0  0  0
  185.9890  178.5350  141.9070 C   0  0  0  0  0  0  0  0  0  0  0  0
  186.5520  178.1370  144.2380 C   0  0  0  0  0  3  0  0  0  0  0  0
  187.6600  178.2240  140.1810 C   0  0  0  0  0  3  0  0  0  0  0  0
  184.6810  178.8730  142.2900 C   0  0  0  0  0  0  0  0  0  0  0  0
  186.3610  178.5620  140.5590 C   0  0  0  0  0  3  0  0  0  0  0  0
  184.3170  178.8370  143.6380 C   0  0  0  0  0  3  0  0  0  0  0  0
  188.5980  177.8540  141.1460 C   0  0  0  0  0  3  0  0  0  0  0  0
  186.9390  178.1630  142.8920 C   0  0  0  0  0  0  0  0  0  0  0  0
  189.2780  177.4210  143.5340 C   0  0  2  0  0  3  0  0  0  0  0  0
  189.8530  178.6460  144.2580 C   0  0  0  0  0  2  0  0  0  0  0  0
  191.7700  177.1050  142.7720 C   0  0  1  0  0  3  0  0  0  0  0  0
  190.8820  179.2310  143.5000 O   0  0  0  0  0  0  0  0  0  0  0  0
  190.1220  175.4260  142.5880 O   0  0  0  0  0  0  0  0  0  0  0  0
  190.3730  176.5670  142.9410 C   0  0  0  0  0  0  0  0  0  0  0  0
  192.0400  177.4110  141.3100 C   0  0  0  0  0  1  0  0  0  0  0  0
  191.9790  178.3630  143.6210 C   0  0  0  0  0  2  0  0  0  0  0  0
  185.6530  178.4630  147.0280 C   0  0  0  0  0  0  0  0  0  0  0  0
  184.8160  178.4390  146.0220 C   0  0  0  0  0  3  0  0  0  0  0  0
  186.4720  178.4860  148.0470 C   0  0  0  0  0  3  0  0  0  0  0  0
  187.8120  177.9770  147.9780 N   0  0  0  0  0  0  0  0  0  0  0  0
  188.8290  178.6030  148.7990 C   0  0  0  0  0  1  0  0  0  0  0  0
  188.2210  176.9220  147.0570 C   0  0  0  0  0  2  0  0  0  0  0  0
  189.6740  176.7310  147.1110 C   0  0  0  0  0  0  0  0  0  0  0  0
  192.2200  176.3660  147.1670 O   0  0  0  0  0  1  0  0  0  0  0  0
  190.8690  176.5630  147.1400 C   0  0  0  0  0  0  0  0  0  0  0  0
  1 11  1  0  0  0  0
  2  7  1  0  0  0  0
  3 21  1  0  0  0  0
  4  7  2  0  0  0  0
  4 11  1  0  0  0  0
  5  3  1  0  0  0  0
  6  8  2  0  0  0  0
  6 10  1  0  0  0  0
  7  9  1  0  0  0  0
  8  4  1  0  0  0  0
  9  3  2  0  0  0  0
 10  1  2  0  0  0  0
 11  5  2  0  0  0  0
 12  1  1  6  0  0  0
 12 13  1  0  0  0  0
 14 18  1  6  0  0  0
 14 17  1  0  0  0  0
 14 19  1  0  0  0  0
 15 19  1  0  0  0  0
 15 13  1  0  0  0  0
 16 17  2  0  0  0  0
 17 12  1  0  0  0  0
 20 22  2  0  0  0  0
 21 20  2  0  0  0  0
 23 22  1  0  0  0  0
 23 24  1  0  0  0  0
 25 26  1  0  0  0  0
 25 23  1  0  0  0  0
 26 28  3  0  0  0  0
 28 27  1  0  0  0  0
M  END
>  <MODEL>
6

>  <REMARK>
 VINA RESULT:      -8.6      2.495      5.492
  Name = 
  5 active torsions:
  status: ('A' for Active; 'I' for Inactive)
    1  A    between atoms: C_1  and  C_2
    2  A    between atoms: C_9  and  C_15
    3  A    between atoms: C_10  and  C_13
    4  A    between atoms: N_12  and  C_15
    5  A    between atoms: N_12  and  C_24
                            x       y       z     vdW  Elec       q    Type
                         _______ _______ _______ _____ _____    ______ ____

>  <TORSDO>
F 5

$$$$
=
 OpenBabel10272401453D

 28 30  0  0  1  0  0  0  0  0999 V2000
  183.9720  178.3800  142.0990 C   0  0  0  0  0  0  0  0  0  0  0  0
  186.3930  178.4330  146.2970 F   0  0  0  0  0  0  0  0  0  0  0  0
  187.4630  177.3890  142.9590 C   0  0  0  0  0  0  0  0  0  0  0  0
  185.1760  178.4190  144.2270 C   0  0  0  0  0  0  0  0  0  0  0  0
  186.2980  177.6310  142.2200 C   0  0  0  0  0  3  0  0  0  0  0  0
  182.8740  179.1630  144.1230 C   0  0  0  0  0  3  0  0  0  0  0  0
  186.3470  178.1790  144.9650 C   0  0  0  0  0  0  0  0  0  0  0  0
  184.0360  178.9280  144.8570 C   0  0  0  0  0  3  0  0  0  0  0  0
  187.4790  177.6640  144.3290 C   0  0  0  0  0  3  0  0  0  0  0  0
  182.8410  178.8920  142.7540 C   0  0  0  0  0  3  0  0  0  0  0  0
  185.1500  178.1430  142.8370 C   0  0  0  0  0  0  0  0  0  0  0  0
  183.9200  178.0980  140.6190 C   0  0  2  0  0  3  0  0  0  0  0  0
  184.6980  179.1490  139.8170 C   0  0  0  0  0  2  0  0  0  0  0  0
  181.8880  179.0110  139.2300 C   0  0  1  0  0  3  0  0  0  0  0  0
  183.9060  180.2880  139.5960 O   0  0  0  0  0  0  0  0  0  0  0  0
  181.8420  176.9850  140.4420 O   0  0  0  0  0  0  0  0  0  0  0  0
  182.5020  177.9590  140.1180 C   0  0  0  0  0  0  0  0  0  0  0  0
  180.8920  179.8440  140.0170 C   0  0  0  0  0  1  0  0  0  0  0  0
  182.9670  179.9120  138.6220 C   0  0  0  0  0  2  0  0  0  0  0  0
  189.8130  176.7120  142.9690 C   0  0  0  0  0  0  0  0  0  0  0  0
  188.6760  176.8410  142.3340 C   0  0  0  0  0  3  0  0  0  0  0  0
  190.9580  176.5740  143.5860 C   0  0  0  0  0  3  0  0  0  0  0  0
  191.3580  177.4130  144.6780 N   0  0  0  0  0  0  0  0  0  0  0  0
  191.6160  178.8150  144.4090 C   0  0  0  0  0  1  0  0  0  0  0  0
  191.6070  176.9120  146.0250 C   0  0  0  0  0  2  0  0  0  0  0  0
  190.3680  176.9130  146.8100 C   0  0  0  0  0  0  0  0  0  0  0  0
  188.2210  176.9210  148.2260 O   0  0  0  0  0  1  0  0  0  0  0  0
  189.3590  176.9170  147.4710 C   0  0  0  0  0  0  0  0  0  0  0  0
  1 10  2  0  0  0  0
  1 11  1  0  0  0  0
  3  9  1  0  0  0  0
  4  8  1  0  0  0  0
  4  7  1  0  0  0  0
  5 11  1  0  0  0  0
  5  3  2  0  0  0  0
  6  8  2  0  0  0  0
  7  2  1  0  0  0  0
  9  7  2  0  0  0  0
 10  6  1  0  0  0  0
 11  4  2  0  0  0  0
 12  1  1  1  0  0  0
 13 12  1  0  0  0  0
 14 18  1  1  0  0  0
 14 17  1  0  0  0  0
 15 13  1  0  0  0  0
 17 16  2  0  0  0  0
 17 12  1  0  0  0  0
 19 14  1  0  0  0  0
 19 15  1  0  0  0  0
 20 22  2  0  0  0  0
 21  3  1  0  0  0  0
 21 20  2  0  0  0  0
 22 23  1  0  0  0  0
 23 25  1  0  0  0  0
 24 23  1  0  0  0  0
 25 26  1  0  0  0  0
 26 28  3  0  0  0  0
 28 27  1  0  0  0  0
M  END
>  <MODEL>
7

>  <REMARK>
 VINA RESULT:      -8.5      3.262      6.878
  Name = 
  5 active torsions:
  status: ('A' for Active; 'I' for Inactive)
    1  A    between atoms: C_1  and  C_2
    2  A    between atoms: C_9  and  C_15
    3  A    between atoms: C_10  and  C_13
    4  A    between atoms: N_12  and  C_15
    5  A    between atoms: N_12  and  C_24
                            x       y       z     vdW  Elec       q    Type
                         _______ _______ _______ _____ _____    ______ ____

>  <TORSDO>
F 5

$$$$
=
 OpenBabel10272401453D

 28 30  0  0  1  0  0  0  0  0999 V2000
  184.2930  178.3120  142.4160 C   0  0  0  0  0  0  0  0  0  0  0  0
  185.7880  178.5170  147.0220 F   0  0  0  0  0  0  0  0  0  0  0  0
  187.4430  177.1660  144.0530 C   0  0  0  0  0  0  0  0  0  0  0  0
  185.0300  178.4290  144.7460 C   0  0  0  0  0  0  0  0  0  0  0  0
  186.4790  177.4280  143.0710 C   0  0  0  0  0  3  0  0  0  0  0  0
  182.8640  179.3090  144.1130 C   0  0  0  0  0  3  0  0  0  0  0  0
  186.0000  178.1690  145.7280 C   0  0  0  0  0  0  0  0  0  0  0  0
  183.8270  179.0540  145.0890 C   0  0  0  0  0  3  0  0  0  0  0  0
  187.1960  177.5390  145.3770 C   0  0  0  0  0  3  0  0  0  0  0  0
  183.0950  178.9410  142.7860 C   0  0  0  0  0  3  0  0  0  0  0  0
  185.2710  178.0560  143.4000 C   0  0  0  0  0  0  0  0  0  0  0  0
  184.5280  177.9260  140.9780 C   0  0  2  0  0  3  0  0  0  0  0  0
  185.3290  179.0000  140.2300 C   0  0  0  0  0  2  0  0  0  0  0  0
  182.6910  178.5160  139.1980 C   0  0  1  0  0  3  0  0  0  0  0  0
  184.4820  180.0280  139.7840 O   0  0  0  0  0  0  0  0  0  0  0  0
  182.6290  176.5840  140.5520 O   0  0  0  0  0  0  0  0  0  0  0  0
  183.2390  177.6010  140.2610 C   0  0  0  0  0  0  0  0  0  0  0  0
  181.4980  179.2880  139.7340 C   0  0  0  0  0  1  0  0  0  0  0  0
  183.7670  179.4870  138.7030 C   0  0  0  0  0  2  0  0  0  0  0  0
  189.3930  176.7400  142.6390 C   0  0  0  0  0  0  0  0  0  0  0  0
  188.7130  176.5000  143.7320 C   0  0  0  0  0  3  0  0  0  0  0  0
  190.0870  176.9670  141.5540 C   0  0  0  0  0  3  0  0  0  0  0  0
  189.4870  177.4020  140.3260 N   0  0  0  0  0  0  0  0  0  0  0  0
  188.5870  178.5380  140.3650 C   0  0  0  0  0  1  0  0  0  0  0  0
  189.6650  176.7060  139.0570 C   0  0  0  0  0  2  0  0  0  0  0  0
  191.0880  176.6210  138.7130 C   0  0  0  0  0  0  0  0  0  0  0  0
  193.5930  176.5070  138.1420 O   0  0  0  0  0  1  0  0  0  0  0  0
  192.2620  176.5640  138.4440 C   0  0  0  0  0  0  0  0  0  0  0  0
  1 10  2  0  0  0  0
  1 11  1  0  0  0  0
  3  9  1  0  0  0  0
  4  8  1  0  0  0  0
  4  7  1  0  0  0  0
  5 11  1  0  0  0  0
  5  3  2  0  0  0  0
  6  8  2  0  0  0  0
  7  2  1  0  0  0  0
  9  7  2  0  0  0  0
 10  6  1  0  0  0  0
 11  4  2  0  0  0  0
 12  1  1  1  0  0  0
 13 12  1  0  0  0  0
 14 18  1  1  0  0  0
 14 17  1  0  0  0  0
 15 13  1  0  0  0  0
 17 16  2  0  0  0  0
 17 12  1  0  0  0  0
 19 14  1  0  0  0  0
 19 15  1  0  0  0  0
 20 21  2  0  0  0  0
 21  3  1  0  0  0  0
 22 20  2  0  0  0  0
 23 24  1  0  0  0  0
 23 22  1  0  0  0  0
 25 23  1  0  0  0  0
 26 25  1  0  0  0  0
 27 28  1  0  0  0  0
 28 26  3  0  0  0  0
M  END
>  <MODEL>
8

>  <REMARK>
 VINA RESULT:      -8.5      2.573      5.497
  Name = 
  5 active torsions:
  status: ('A' for Active; 'I' for Inactive)
    1  A    between atoms: C_1  and  C_2
    2  A    between atoms: C_9  and  C_15
    3  A    between atoms: C_10  and  C_13
    4  A    between atoms: N_12  and  C_15
    5  A    between atoms: N_12  and  C_24
                            x       y       z     vdW  Elec       q    Type
                         _______ _______ _______ _____ _____    ______ ____

>  <TORSDO>
F 5

$$$$
=
 OpenBabel10272401453D

 28 30  0  0  1  0  0  0  0  0999 V2000
  189.2320  177.2540  144.9490 C   0  0  0  0  0  0  0  0  0  0  0  0
  188.2320  178.0810  149.6190 F   0  0  0  0  0  0  0  0  0  0  0  0
  186.1170  178.4010  146.6520 C   0  0  0  0  0  0  0  0  0  0  0  0
  188.7470  177.6610  147.3120 C   0  0  0  0  0  0  0  0  0  0  0  0
  187.0110  178.0090  145.6470 C   0  0  0  0  0  3  0  0  0  0  0  0
  190.9500  176.9130  146.6370 C   0  0  0  0  0  3  0  0  0  0  0  0
  187.8470  178.0500  148.3180 C   0  0  0  0  0  0  0  0  0  0  0  0
  190.0570  177.2970  147.6380 C   0  0  0  0  0  3  0  0  0  0  0  0
  186.5430  178.4190  147.9830 C   0  0  0  0  0  3  0  0  0  0  0  0
  190.5410  176.8920  145.3020 C   0  0  0  0  0  3  0  0  0  0  0  0
  188.3260  177.6390  145.9590 C   0  0  0  0  0  0  0  0  0  0  0  0
  188.8060  177.2200  143.5030 C   0  0  2  0  0  3  0  0  0  0  0  0
  188.8350  175.7930  142.9400 C   0  0  0  0  0  2  0  0  0  0  0  0
  190.6120  177.6450  141.6460 C   0  0  1  0  0  3  0  0  0  0  0  0
  190.1350  175.4490  142.5340 O   0  0  0  0  0  0  0  0  0  0  0  0
  189.4720  179.3710  142.7830 O   0  0  0  0  0  0  0  0  0  0  0  0
  189.6180  178.1660  142.6520 C   0  0  0  0  0  0  0  0  0  0  0  0
  192.0270  177.8420  142.1570 C   0  0  0  0  0  1  0  0  0  0  0  0
  190.3610  176.1630  141.3470 C   0  0  0  0  0  2  0  0  0  0  0  0
  184.2120  178.7110  145.1500 C   0  0  0  0  0  0  0  0  0  0  0  0
  184.7370  178.8040  146.3460 C   0  0  0  0  0  3  0  0  0  0  0  0
  183.6690  178.6260  143.9630 C   0  0  0  0  0  3  0  0  0  0  0  0
  184.4340  178.6960  142.7520 N   0  0  0  0  0  0  0  0  0  0  0  0
  185.6150  179.5380  142.7330 C   0  0  0  0  0  1  0  0  0  0  0  0
  184.0370  178.0380  141.5130 C   0  0  0  0  0  2  0  0  0  0  0  0
  182.6730  178.4300  141.1400 C   0  0  0  0  0  0  0  0  0  0  0  0
  180.2680  179.0710  140.4930 O   0  0  0  0  0  1  0  0  0  0  0  0
  181.5460  178.7340  140.8370 C   0  0  0  0  0  0  0  0  0  0  0  0
  1 10  2  0  0  0  0
  1 11  1  0  0  0  0
  3  9  1  0  0  0  0
  4  8  1  0  0  0  0
  4  7  1  0  0  0  0
  5 11  1  0  0  0  0
  5  3  2  0  0  0  0
  6  8  2  0  0  0  0
  7  2  1  0  0  0  0
  9  7  2  0  0  0  0
 10  6  1  0  0  0  0
 11  4  2  0  0  0  0
 12  1  1  1  0  0  0
 13 12  1  0  0  0  0
 14 18  1  1  0  0  0
 14 17  1  0  0  0  0
 15 13  1  0  0  0  0
 17 16  2  0  0  0  0
 17 12  1  0  0  0  0
 19 14  1  0  0  0  0
 19 15  1  0  0  0  0
 20 21  2  0  0  0  0
 21  3  1  0  0  0  0
 22 20  2  0  0  0  0
 23 22  1  0  0  0  0
 24 23  1  0  0  0  0
 25 23  1  0  0  0  0
 26 25  1  0  0  0  0
 27 28  1  0  0  0  0
 28 26  3  0  0  0  0
M  END
>  <MODEL>
9

>  <REMARK>
 VINA RESULT:      -8.4      2.997      5.114
  Name = 
  5 active torsions:
  status: ('A' for Active; 'I' for Inactive)
    1  A    between atoms: C_1  and  C_2
    2  A    between atoms: C_9  and  C_15
    3  A    between atoms: C_10  and  C_13
    4  A    between atoms: N_12  and  C_15
    5  A    between atoms: N_12  and  C_24
                            x       y       z     vdW  Elec       q    Type
                         _______ _______ _______ _____ _____    ______ ____

>  <TORSDO>
F 5

$$$$
