=
 OpenBabel10272400063D

 34 40  0  0  1  0  0  0  0  0999 V2000
  187.2420  178.4280  146.7990 C   0  0  2  0  0  3  0  0  0  0  0  0
  189.4780  177.7260  146.1680 C   0  0  2  0  0  3  0  0  0  0  0  0
  187.5900  177.3170  144.4630 C   0  0  1  0  0  3  0  0  0  0  0  0
  188.1290  179.1820  142.8770 O   0  0  0  0  0  0  0  0  0  0  0  0
  189.0310  178.1880  148.5670 C   0  0  0  0  0  2  0  0  0  0  0  0
  189.8590  177.3370  147.5870 C   0  0  0  0  0  2  0  0  0  0  0  0
  190.0730  177.9420  143.7950 C   0  0  1  0  0  3  0  0  0  0  0  0
  188.0020  177.4080  145.9530 C   0  0  2  0  0  3  0  0  0  0  0  0
  189.3680  175.5850  142.8030 C   0  0  0  0  0  1  0  0  0  0  0  0
  187.5200  178.1190  148.2730 C   0  0  0  0  0  2  0  0  0  0  0  0
  186.1190  177.6550  144.1540 C   0  0  2  0  0  3  0  0  0  0  0  0
  185.7570  178.4280  146.4950 C   0  0  0  0  0  2  0  0  0  0  0  0
  190.3570  177.1450  145.0770 C   0  0  0  0  0  2  0  0  0  0  0  0
  186.9960  178.9260  142.0610 C   0  0  0  0  0  2  0  0  0  0  0  0
  185.9580  177.9390  142.6520 C   0  0  2  0  0  3  0  0  0  0  0  0
  189.4970  177.1000  142.6510 C   0  0  1  0  0  0  0  0  0  0  0  0
  188.5630  177.9820  143.4720 C   0  0  1  0  0  0  0  0  0  0  0  0
  185.5760  178.7870  145.0290 C   0  0  0  0  0  2  0  0  0  0  0  0
  182.2770  178.8240  142.8000 C   0  0  0  0  0  0  0  0  0  0  0  0
  181.9190  178.7920  141.4480 C   0  0  0  0  0  3  0  0  0  0  0  0
  184.5520  178.2190  142.2180 C   0  0  0  0  0  0  0  0  0  0  0  0
  182.8760  178.4770  140.4790 C   0  0  0  0  0  3  0  0  0  0  0  0
  183.5910  178.5410  143.1830 C   0  0  0  0  0  3  0  0  0  0  0  0
  184.1910  178.1950  140.8620 C   0  0  0  0  0  3  0  0  0  0  0  0
  181.3490  179.1300  143.7380 F   0  0  0  0  0  0  0  0  0  0  0  0
  189.5190  176.9250  140.2840 C   0  0  0  0  0  3  0  0  0  0  0  0
  189.7960  177.6080  141.3340 N   0  0  0  0  0  0  0  0  0  0  0  0
  189.8380  177.4730  138.9340 C   0  0  0  0  0  2  0  0  0  0  0  0
  188.7780  178.4790  138.5030 C   0  0  0  0  0  3  0  0  0  0  0  0
  187.3860  177.8470  138.5780 C   0  0  0  0  0  2  0  0  0  0  0  0
  187.2850  177.6630  136.1820 O   0  0  0  0  0  0  0  0  0  0  0  0
  188.6500  177.9710  136.0450 C   0  0  0  0  0  2  0  0  0  0  0  0
  189.0570  179.0120  137.0900 C   0  0  0  0  0  2  0  0  0  0  0  0
  187.1580  176.9290  137.3730 C   0  0  0  0  0  2  0  0  0  0  0  0
  1 12  1  1  0  0  0
  1 10  1  0  0  0  0
  2 13  1  6  0  0  0
  2  6  1  0  0  0  0
  3  8  1  0  0  0  0
  4 17  1  0  0  0  0
  6  5  1  0  0  0  0
  7 13  1  0  0  0  0
  8  2  1  0  0  0  0
  8  1  1  0  0  0  0
 10  5  1  0  0  0  0
 11  3  1  0  0  0  0
 11 18  1  0  0  0  0
 14 15  1  0  0  0  0
 14  4  1  0  0  0  0
 15 11  1  0  0  0  0
 16  9  1  0  0  0  0
 16 17  1  0  0  0  0
 16  7  1  0  0  0  0
 17  7  1  0  0  0  0
 17  3  1  0  0  0  0
 18 12  1  0  0  0  0
 19 23  1  0  0  0  0
 19 25  1  0  0  0  0
 20 19  2  0  0  0  0
 21 15  1  0  0  0  0
 21 23  2  0  0  0  0
 22 24  2  0  0  0  0
 22 20  1  0  0  0  0
 24 21  1  0  0  0  0
 26 27  2  0  0  0  0
 27 16  1  0  0  0  0
 28 26  1  0  0  0  0
 29 30  1  0  0  0  0
 29 28  1  0  0  0  0
 31 34  1  0  0  0  0
 32 31  1  0  0  0  0
 32 33  1  0  0  0  0
 33 29  1  0  0  0  0
 34 30  1  0  0  0  0
M  END
>  <MODEL>
1

>  <REMARK>
 VINA RESULT:     -10.7      0.000      0.000
  Name = 
  4 active torsions:
  status: ('A' for Active; 'I' for Inactive)
    1  A    between atoms: C_3  and  C_13
    2  A    between atoms: C_11  and  C_13
    3  A    between atoms: C_12  and  C_28
    4  A    between atoms: N_17  and  C_29
                            x       y       z     vdW  Elec       q    Type
                         _______ _______ _______ _____ _____    ______ ____

>  <TORSDO>
F 4

$$$$
=
 OpenBabel10272400063D

 34 40  0  0  1  0  0  0  0  0999 V2000
  186.7680  178.5940  146.3520 C   0  0  2  0  0  3  0  0  0  0  0  0
  189.0280  177.7390  146.1190 C   0  0  2  0  0  3  0  0  0  0  0  0
  187.4220  177.3780  144.1380 C   0  0  1  0  0  3  0  0  0  0  0  0
  188.3300  179.1470  142.6110 O   0  0  0  0  0  0  0  0  0  0  0  0
  188.2260  178.3160  148.3970 C   0  0  0  0  0  2  0  0  0  0  0  0
  189.1460  177.3830  147.5920 C   0  0  0  0  0  2  0  0  0  0  0  0
  190.0150  177.8320  143.8720 C   0  0  1  0  0  3  0  0  0  0  0  0
  187.5900  177.5000  145.6710 C   0  0  2  0  0  3  0  0  0  0  0  0
  189.3340  175.4840  142.8420 C   0  0  0  0  0  1  0  0  0  0  0  0
  186.7820  178.3240  147.8600 C   0  0  0  0  0  2  0  0  0  0  0  0
  186.0460  177.7890  143.5800 C   0  0  2  0  0  3  0  0  0  0  0  0
  185.3560  178.6680  145.8070 C   0  0  0  0  0  2  0  0  0  0  0  0
  190.0350  177.0680  145.2050 C   0  0  0  0  0  2  0  0  0  0  0  0
  187.3310  178.9270  141.6270 C   0  0  0  0  0  2  0  0  0  0  0  0
  186.1510  178.0240  142.0650 C   0  0  2  0  0  3  0  0  0  0  0  0
  189.5820  176.9820  142.6720 C   0  0  1  0  0  0  0  0  0  0  0  0
  188.5840  177.9470  143.3030 C   0  0  1  0  0  0  0  0  0  0  0  0
  185.4400  178.9820  144.3220 C   0  0  0  0  0  2  0  0  0  0  0  0
  183.6740  179.5130  139.6140 C   0  0  0  0  0  0  0  0  0  0  0  0
  182.4600  179.0080  140.0900 C   0  0  0  0  0  3  0  0  0  0  0  0
  184.8550  178.3700  141.3970 C   0  0  0  0  0  0  0  0  0  0  0  0
  182.4410  178.1810  141.2170 C   0  0  0  0  0  3  0  0  0  0  0  0
  184.8690  179.1910  140.2640 C   0  0  0  0  0  3  0  0  0  0  0  0
  183.6350  177.8590  141.8680 C   0  0  0  0  0  3  0  0  0  0  0  0
  183.6920  180.3130  138.5210 F   0  0  0  0  0  0  0  0  0  0  0  0
  189.9600  176.7280  140.3430 C   0  0  0  0  0  3  0  0  0  0  0  0
  190.1230  177.4220  141.4090 N   0  0  0  0  0  0  0  0  0  0  0  0
  190.5300  177.2060  139.0500 C   0  0  0  0  0  2  0  0  0  0  0  0
  189.7430  176.6340  137.8770 C   0  0  0  0  0  3  0  0  0  0  0  0
  189.9380  177.5050  136.6330 C   0  0  0  0  0  2  0  0  0  0  0  0
  187.7230  178.4140  136.8610 O   0  0  0  0  0  0  0  0  0  0  0  0
  187.5710  177.8700  138.1480 C   0  0  0  0  0  2  0  0  0  0  0  0
  188.2520  176.5010  138.2180 C   0  0  0  0  0  2  0  0  0  0  0  0
  189.0770  178.7670  136.7330 C   0  0  0  0  0  2  0  0  0  0  0  0
  1 12  1  6  0  0  0
  1 10  1  0  0  0  0
  2 13  1  6  0  0  0
  2  6  1  0  0  0  0
  3  8  1  0  0  0  0
  4 17  1  0  0  0  0
  6  5  1  0  0  0  0
  7 13  1  0  0  0  0
  8  2  1  0  0  0  0
  8  1  1  0  0  0  0
 10  5  1  0  0  0  0
 11  3  1  0  0  0  0
 11 18  1  0  0  0  0
 14 15  1  0  0  0  0
 14  4  1  0  0  0  0
 15 11  1  0  0  0  0
 16  9  1  0  0  0  0
 16 17  1  0  0  0  0
 16  7  1  0  0  0  0
 17  7  1  0  0  0  0
 17  3  1  0  0  0  0
 18 12  1  0  0  0  0
 19 20  2  0  0  0  0
 19 23  1  0  0  0  0
 20 22  1  0  0  0  0
 21 24  1  0  0  0  0
 21 15  1  0  0  0  0
 22 24  2  0  0  0  0
 23 21  2  0  0  0  0
 25 19  1  0  0  0  0
 26 27  2  0  0  0  0
 27 16  1  0  0  0  0
 28 26  1  0  0  0  0
 29 33  1  0  0  0  0
 29 28  1  0  0  0  0
 30 34  1  0  0  0  0
 30 29  1  0  0  0  0
 31 32  1  0  0  0  0
 32 33  1  0  0  0  0
 34 31  1  0  0  0  0
M  END
>  <MODEL>
2

>  <REMARK>
 VINA RESULT:     -10.2      1.280      1.772
  Name = 
  4 active torsions:
  status: ('A' for Active; 'I' for Inactive)
    1  A    between atoms: C_3  and  C_13
    2  A    between atoms: C_11  and  C_13
    3  A    between atoms: C_12  and  C_28
    4  A    between atoms: N_17  and  C_29
                            x       y       z     vdW  Elec       q    Type
                         _______ _______ _______ _____ _____    ______ ____

>  <TORSDO>
F 4

$$$$
=
 OpenBabel10272400063D

 34 40  0  0  1  0  0  0  0  0999 V2000
  188.8250  178.0370  146.8690 C   0  0  2  0  0  3  0  0  0  0  0  0
  190.8610  177.2460  145.8100 C   0  0  2  0  0  3  0  0  0  0  0  0
  188.6700  177.0070  144.4750 C   0  0  1  0  0  3  0  0  0  0  0  0
  189.0160  178.9060  142.8750 O   0  0  0  0  0  0  0  0  0  0  0  0
  190.8920  177.6310  148.2630 C   0  0  0  0  0  2  0  0  0  0  0  0
  191.4730  176.7800  147.1210 C   0  0  0  0  0  2  0  0  0  0  0  0
  191.0200  177.5300  143.3760 C   0  0  1  0  0  3  0  0  0  0  0  0
  189.3540  177.0140  145.8640 C   0  0  2  0  0  3  0  0  0  0  0  0
  190.0080  175.2560  142.4590 C   0  0  0  0  0  1  0  0  0  0  0  0
  189.3510  177.6520  148.2540 C   0  0  0  0  0  2  0  0  0  0  0  0
  187.1900  177.4330  144.4560 C   0  0  2  0  0  3  0  0  0  0  0  0
  187.3110  178.1260  146.8460 C   0  0  0  0  0  2  0  0  0  0  0  0
  191.4880  176.6670  144.5570 C   0  0  0  0  0  2  0  0  0  0  0  0
  187.7390  178.7430  142.2770 C   0  0  0  0  0  2  0  0  0  0  0  0
  186.7720  177.7860  143.0200 C   0  0  2  0  0  3  0  0  0  0  0  0
  190.1950  176.7670  142.3340 C   0  0  1  0  0  0  0  0  0  0  0  0
  189.4810  177.6610  143.3410 C   0  0  1  0  0  0  0  0  0  0  0  0
  186.8850  178.5540  145.4510 C   0  0  0  0  0  2  0  0  0  0  0  0
  183.4240  178.5360  141.4130 C   0  0  0  0  0  0  0  0  0  0  0  0
  182.6240  178.8050  142.5280 C   0  0  0  0  0  3  0  0  0  0  0  0
  185.3290  178.1570  142.8640 C   0  0  0  0  0  0  0  0  0  0  0  0
  183.1730  178.7480  143.8120 C   0  0  0  0  0  3  0  0  0  0  0  0
  184.7720  178.2100  141.5810 C   0  0  0  0  0  3  0  0  0  0  0  0
  184.5210  178.4210  143.9820 C   0  0  0  0  0  3  0  0  0  0  0  0
  182.8910  178.5910  140.1680 F   0  0  0  0  0  0  0  0  0  0  0  0
  190.3610  176.5460  139.9760 C   0  0  0  0  0  3  0  0  0  0  0  0
  190.2750  177.3130  141.0000 N   0  0  0  0  0  0  0  0  0  0  0  0
  190.4430  177.1360  138.6080 C   0  0  0  0  0  2  0  0  0  0  0  0
  189.5500  176.3670  137.6420 C   0  0  0  0  0  3  0  0  0  0  0  0
  189.7140  176.9120  136.2210 C   0  0  0  0  0  2  0  0  0  0  0  0
  187.5760  178.0060  136.3390 O   0  0  0  0  0  0  0  0  0  0  0  0
  187.4760  177.7850  137.7230 C   0  0  0  0  0  2  0  0  0  0  0  0
  188.0790  176.4230  138.0780 C   0  0  0  0  0  2  0  0  0  0  0  0
  188.9370  178.2220  136.0650 C   0  0  0  0  0  2  0  0  0  0  0  0
  1 12  1  1  0  0  0
  1 10  1  0  0  0  0
  2 13  1  6  0  0  0
  2  8  1  0  0  0  0
  2  6  1  0  0  0  0
  3  8  1  0  0  0  0
  4 17  1  0  0  0  0
  6  5  1  0  0  0  0
  7 13  1  0  0  0  0
  8  1  1  0  0  0  0
 10  5  1  0  0  0  0
 11  3  1  0  0  0  0
 11 18  1  0  0  0  0
 14  4  1  0  0  0  0
 14 15  1  0  0  0  0
 15 11  1  0  0  0  0
 16  9  1  0  0  0  0
 16 17  1  0  0  0  0
 16  7  1  0  0  0  0
 17  7  1  0  0  0  0
 17  3  1  0  0  0  0
 18 12  1  0  0  0  0
 19 23  2  0  0  0  0
 19 20  1  0  0  0  0
 20 22  2  0  0  0  0
 21 15  1  0  0  0  0
 21 24  2  0  0  0  0
 22 24  1  0  0  0  0
 23 21  1  0  0  0  0
 25 19  1  0  0  0  0
 26 27  2  0  0  0  0
 27 16  1  0  0  0  0
 28 26  1  0  0  0  0
 29 33  1  0  0  0  0
 29 28  1  0  0  0  0
 30 29  1  0  0  0  0
 31 32  1  0  0  0  0
 32 33  1  0  0  0  0
 34 30  1  0  0  0  0
 34 31  1  0  0  0  0
M  END
>  <MODEL>
3

>  <REMARK>
 VINA RESULT:      -9.2      1.189      1.864
  Name = 
  4 active torsions:
  status: ('A' for Active; 'I' for Inactive)
    1  A    between atoms: C_3  and  C_13
    2  A    between atoms: C_11  and  C_13
    3  A    between atoms: C_12  and  C_28
    4  A    between atoms: N_17  and  C_29
                            x       y       z     vdW  Elec       q    Type
                         _______ _______ _______ _____ _____    ______ ____

>  <TORSDO>
F 4

$$$$
=
 OpenBabel10272400063D

 34 40  0  0  1  0  0  0  0  0999 V2000
  185.6030  177.9930  145.5560 C   0  0  2  0  0  3  0  0  0  0  0  0
  185.1970  178.5360  143.2250 C   0  0  2  0  0  3  0  0  0  0  0  0
  187.6530  178.3320  143.9760 C   0  0  1  0  0  3  0  0  0  0  0  0
  188.1460  176.0840  142.9810 O   0  0  0  0  0  0  0  0  0  0  0  0
  183.3300  178.8300  144.8360 C   0  0  0  0  0  2  0  0  0  0  0  0
  183.9570  179.3600  143.5350 C   0  0  0  0  0  2  0  0  0  0  0  0
  186.7740  177.6110  141.5860 C   0  0  1  0  0  3  0  0  0  0  0  0
  186.2040  178.7230  144.3550 C   0  0  2  0  0  3  0  0  0  0  0  0
  188.6100  179.5180  141.4070 C   0  0  0  0  0  1  0  0  0  0  0  0
  184.3480  178.7550  145.9910 C   0  0  0  0  0  2  0  0  0  0  0  0
  188.5470  177.8660  145.1400 C   0  0  2  0  0  3  0  0  0  0  0  0
  186.5970  177.8500  146.6910 C   0  0  0  0  0  2  0  0  0  0  0  0
  185.8120  178.7770  141.8600 C   0  0  0  0  0  2  0  0  0  0  0  0
  189.4540  176.0360  143.5310 C   0  0  0  0  0  2  0  0  0  0  0  0
  189.7740  177.1240  144.5860 C   0  0  2  0  0  3  0  0  0  0  0  0
  188.2380  178.0360  141.4190 C   0  0  1  0  0  0  0  0  0  0  0  0
  187.7850  177.4240  142.7390 C   0  0  1  0  0  0  0  0  0  0  0  0
  187.7830  177.0470  146.1820 C   0  0  0  0  0  2  0  0  0  0  0  0
  191.7050  176.9470  147.8420 C   0  0  0  0  0  0  0  0  0  0  0  0
  192.5430  175.8490  147.6190 C   0  0  0  0  0  3  0  0  0  0  0  0
  190.7540  176.6770  145.6270 C   0  0  0  0  0  0  0  0  0  0  0  0
  192.4850  175.1620  146.4040 C   0  0  0  0  0  3  0  0  0  0  0  0
  190.8110  177.3580  146.8490 C   0  0  0  0  0  3  0  0  0  0  0  0
  191.5910  175.5710  145.4100 C   0  0  0  0  0  3  0  0  0  0  0  0
  191.7600  177.6130  149.0200 F   0  0  0  0  0  0  0  0  0  0  0  0
  189.8130  177.6180  139.6930 C   0  0  0  0  0  3  0  0  0  0  0  0
  189.0180  177.1530  140.5860 N   0  0  0  0  0  0  0  0  0  0  0  0
  190.6100  176.6830  138.8460 C   0  0  0  0  0  2  0  0  0  0  0  0
  190.3510  176.9520  137.3680 C   0  0  0  0  0  3  0  0  0  0  0  0
  188.8490  177.1050  137.1130 C   0  0  0  0  0  2  0  0  0  0  0  0
  188.7510  174.9310  136.0880 O   0  0  0  0  0  0  0  0  0  0  0  0
  190.0430  174.6020  136.5320 C   0  0  0  0  0  2  0  0  0  0  0  0
  190.9410  175.8410  136.4880 C   0  0  0  0  0  2  0  0  0  0  0  0
  188.1750  175.7310  137.0900 C   0  0  0  0  0  2  0  0  0  0  0  0
  1 10  1  1  0  0  0
  1 12  1  0  0  0  0
  2 13  1  6  0  0  0
  2  6  1  0  0  0  0
  2  8  1  0  0  0  0
  3  8  1  0  0  0  0
  3 11  1  0  0  0  0
  4 14  1  0  0  0  0
  5 10  1  0  0  0  0
  6  5  1  0  0  0  0
  7 13  1  0  0  0  0
  7 17  1  0  0  0  0
  8  1  1  0  0  0  0
  9 16  1  0  0  0  0
 11 18  1  0  0  0  0
 14 15  1  0  0  0  0
 15 11  1  0  0  0  0
 15 21  1  0  0  0  0
 16  7  1  0  0  0  0
 16 17  1  0  0  0  0
 17  4  1  0  0  0  0
 17  3  1  0  0  0  0
 18 12  1  0  0  0  0
 19 25  1  0  0  0  0
 20 19  1  0  0  0  0
 21 23  1  0  0  0  0
 22 20  2  0  0  0  0
 23 19  2  0  0  0  0
 24 21  2  0  0  0  0
 24 22  1  0  0  0  0
 26 27  2  0  0  0  0
 27 16  1  0  0  0  0
 28 26  1  0  0  0  0
 29 28  1  0  0  0  0
 30 29  1  0  0  0  0
 31 32  1  0  0  0  0
 31 34  1  0  0  0  0
 33 32  1  0  0  0  0
 33 29  1  0  0  0  0
 34 30  1  0  0  0  0
M  END
>  <MODEL>
4

>  <REMARK>
 VINA RESULT:      -8.4      2.690      5.699
  Name = 
  4 active torsions:
  status: ('A' for Active; 'I' for Inactive)
    1  A    between atoms: C_3  and  C_13
    2  A    between atoms: C_11  and  C_13
    3  A    between atoms: C_12  and  C_28
    4  A    between atoms: N_17  and  C_29
                            x       y       z     vdW  Elec       q    Type
                         _______ _______ _______ _____ _____    ______ ____

>  <TORSDO>
F 4

$$$$
=
 OpenBabel10272400063D

 34 40  0  0  1  0  0  0  0  0999 V2000
  192.0380  176.5400  137.0020 C   0  0  2  0  0  3  0  0  0  0  0  0
  190.1730  176.7510  135.4640 C   0  0  2  0  0  3  0  0  0  0  0  0
  189.6130  176.4660  137.9630 C   0  0  1  0  0  3  0  0  0  0  0  0
  188.9880  178.8420  138.4640 O   0  0  0  0  0  0  0  0  0  0  0  0
  192.4040  176.1950  134.5260 C   0  0  0  0  0  2  0  0  0  0  0  0
  190.8880  176.0080  134.3470 C   0  0  0  0  0  2  0  0  0  0  0  0
  188.1930  177.9450  136.2900 C   0  0  1  0  0  3  0  0  0  0  0  0
  190.5790  176.1360  136.8000 C   0  0  2  0  0  3  0  0  0  0  0  0
  186.7310  175.9940  137.3350 C   0  0  0  0  0  1  0  0  0  0  0  0
  192.8790  175.8200  135.9440 C   0  0  0  0  0  2  0  0  0  0  0  0
  190.2380  176.4720  139.3700 C   0  0  2  0  0  3  0  0  0  0  0  0
  192.5230  176.2370  138.4070 C   0  0  0  0  0  2  0  0  0  0  0  0
  188.6680  176.8590  135.3140 C   0  0  0  0  0  2  0  0  0  0  0  0
  188.8030  178.5880  139.8480 C   0  0  0  0  0  2  0  0  0  0  0  0
  189.3080  177.2110  140.3460 C   0  0  2  0  0  3  0  0  0  0  0  0
  187.2310  177.4370  137.3700 C   0  0  1  0  0  0  0  0  0  0  0  0
  188.6930  177.6780  137.7270 C   0  0  1  0  0  0  0  0  0  0  0  0
  191.6640  177.0250  139.3820 C   0  0  0  0  0  2  0  0  0  0  0  0
  191.0500  176.1790  143.5490 C   0  0  0  0  0  0  0  0  0  0  0  0
  190.7260  177.2360  144.4060 C   0  0  0  0  0  3  0  0  0  0  0  0
  189.7820  177.2270  141.7680 C   0  0  0  0  0  0  0  0  0  0  0  0
  189.9340  178.2910  143.9450 C   0  0  0  0  0  3  0  0  0  0  0  0
  190.5810  176.1760  142.2320 C   0  0  0  0  0  3  0  0  0  0  0  0
  189.4640  178.2890  142.6280 C   0  0  0  0  0  3  0  0  0  0  0  0
  191.8190  175.1570  143.9960 F   0  0  0  0  0  0  0  0  0  0  0  0
  185.2510  178.1060  138.4960 C   0  0  0  0  0  3  0  0  0  0  0  0
  186.3190  178.4380  137.8690 N   0  0  0  0  0  0  0  0  0  0  0  0
  184.3260  179.1610  139.0030 C   0  0  0  0  0  2  0  0  0  0  0  0
  182.9300  178.9680  138.4240 C   0  0  0  0  0  3  0  0  0  0  0  0
  181.9100  179.7910  139.2150 C   0  0  0  0  0  2  0  0  0  0  0  0
  181.0590  177.8090  140.2790 O   0  0  0  0  0  0  0  0  0  0  0  0
  182.1320  177.0300  139.8120 C   0  0  0  0  0  2  0  0  0  0  0  0
  182.5330  177.4840  138.4070 C   0  0  0  0  0  2  0  0  0  0  0  0
  181.5750  179.0900  140.5350 C   0  0  0  0  0  2  0  0  0  0  0  0
  1 10  1  6  0  0  0
  1 12  1  0  0  0  0
  2  6  1  6  0  0  0
  2  8  1  0  0  0  0
  3 11  1  0  0  0  0
  4 14  1  0  0  0  0
  5 10  1  0  0  0  0
  6  5  1  0  0  0  0
  7 16  1  0  0  0  0
  7 17  1  0  0  0  0
  8  1  1  0  0  0  0
  8  3  1  0  0  0  0
  9 16  1  0  0  0  0
 11 18  1  0  0  0  0
 11 15  1  0  0  0  0
 12 18  1  0  0  0  0
 13  2  1  0  0  0  0
 13  7  1  0  0  0  0
 14 15  1  0  0  0  0
 15 21  1  0  0  0  0
 16 17  1  0  0  0  0
 16 27  1  0  0  0  0
 17  3  1  0  0  0  0
 17  4  1  0  0  0  0
 19 25  1  0  0  0  0
 19 20  1  0  0  0  0
 21 23  1  0  0  0  0
 21 24  2  0  0  0  0
 22 20  2  0  0  0  0
 23 19  2  0  0  0  0
 24 22  1  0  0  0  0
 26 28  1  0  0  0  0
 27 26  2  0  0  0  0
 29 28  1  0  0  0  0
 29 30  1  0  0  0  0
 30 34  1  0  0  0  0
 31 34  1  0  0  0  0
 32 31  1  0  0  0  0
 33 29  1  0  0  0  0
 33 32  1  0  0  0  0
M  END
>  <MODEL>
5

>  <REMARK>
 VINA RESULT:      -8.3      3.422      8.262
  Name = 
  4 active torsions:
  status: ('A' for Active; 'I' for Inactive)
    1  A    between atoms: C_3  and  C_13
    2  A    between atoms: C_11  and  C_13
    3  A    between atoms: C_12  and  C_28
    4  A    between atoms: N_17  and  C_29
                            x       y       z     vdW  Elec       q    Type
                         _______ _______ _______ _____ _____    ______ ____

>  <TORSDO>
F 4

$$$$
=
 OpenBabel10272400063D

 34 40  0  0  1  0  0  0  0  0999 V2000
  185.3890  177.9650  145.4570 C   0  0  2  0  0  3  0  0  0  0  0  0
  184.9410  178.7780  143.2140 C   0  0  2  0  0  3  0  0  0  0  0  0
  187.4090  178.4720  143.8850 C   0  0  1  0  0  3  0  0  0  0  0  0
  187.8640  176.3520  142.6260 O   0  0  0  0  0  0  0  0  0  0  0  0
  183.1090  178.8940  144.8870 C   0  0  0  0  0  2  0  0  0  0  0  0
  183.7150  179.5670  143.6430 C   0  0  0  0  0  2  0  0  0  0  0  0
  186.4770  178.0390  141.4470 C   0  0  1  0  0  3  0  0  0  0  0  0
  185.9720  178.8260  144.3370 C   0  0  2  0  0  3  0  0  0  0  0  0
  188.3260  179.9420  141.4520 C   0  0  0  0  0  1  0  0  0  0  0  0
  184.1490  178.6800  146.0040 C   0  0  0  0  0  2  0  0  0  0  0  0
  188.3230  177.8700  144.9690 C   0  0  2  0  0  3  0  0  0  0  0  0
  186.4040  177.6850  146.5480 C   0  0  0  0  0  2  0  0  0  0  0  0
  185.5310  179.1710  141.8740 C   0  0  0  0  0  2  0  0  0  0  0  0
  189.1820  176.2330  143.1400 C   0  0  0  0  0  2  0  0  0  0  0  0
  189.5310  177.1890  144.3080 C   0  0  2  0  0  3  0  0  0  0  0  0
  187.9410  178.4710  141.2990 C   0  0  1  0  0  0  0  0  0  0  0  0
  187.5090  177.7130  142.5490 C   0  0  1  0  0  0  0  0  0  0  0  0
  187.5720  176.9390  145.9240 C   0  0  0  0  0  2  0  0  0  0  0  0
  192.2910  175.0180  145.7320 C   0  0  0  0  0  0  0  0  0  0  0  0
  192.4350  175.5450  147.0200 C   0  0  0  0  0  3  0  0  0  0  0  0
  190.5290  176.6180  145.2690 C   0  0  0  0  0  0  0  0  0  0  0  0
  191.6300  176.6100  147.4330 C   0  0  0  0  0  3  0  0  0  0  0  0
  191.3420  175.5560  144.8580 C   0  0  0  0  0  3  0  0  0  0  0  0
  190.6800  177.1480  146.5600 C   0  0  0  0  0  3  0  0  0  0  0  0
  193.0730  173.9870  145.3320 F   0  0  0  0  0  0  0  0  0  0  0  0
  189.2490  178.2320  139.3330 C   0  0  0  0  0  3  0  0  0  0  0  0
  188.6970  177.6860  140.3540 N   0  0  0  0  0  0  0  0  0  0  0  0
  190.0260  177.3970  138.3710 C   0  0  0  0  0  2  0  0  0  0  0  0
  190.7970  176.3110  139.1110 C   0  0  0  0  0  3  0  0  0  0  0  0
  191.6690  176.9310  140.2060 C   0  0  0  0  0  2  0  0  0  0  0  0
  193.6550  176.5730  138.8980 O   0  0  0  0  0  0  0  0  0  0  0  0
  192.9100  176.2550  137.7500 C   0  0  0  0  0  2  0  0  0  0  0  0
  191.6510  175.4780  138.1440 C   0  0  0  0  0  2  0  0  0  0  0  0
  192.9250  177.5540  139.5910 C   0  0  0  0  0  2  0  0  0  0  0  0
  1 10  1  1  0  0  0
  1 12  1  0  0  0  0
  2 13  1  6  0  0  0
  2  6  1  0  0  0  0
  2  8  1  0  0  0  0
  3  8  1  0  0  0  0
  3 11  1  0  0  0  0
  4 14  1  0  0  0  0
  5 10  1  0  0  0  0
  6  5  1  0  0  0  0
  7 13  1  0  0  0  0
  7 17  1  0  0  0  0
  8  1  1  0  0  0  0
 11 18  1  0  0  0  0
 14 15  1  0  0  0  0
 15 11  1  0  0  0  0
 15 21  1  0  0  0  0
 16  7  1  0  0  0  0
 16  9  1  0  0  0  0
 16 17  1  0  0  0  0
 17  4  1  0  0  0  0
 17  3  1  0  0  0  0
 18 12  1  0  0  0  0
 19 20  1  0  0  0  0
 20 22  2  0  0  0  0
 21 24  2  0  0  0  0
 23 21  1  0  0  0  0
 23 19  2  0  0  0  0
 24 22  1  0  0  0  0
 25 19  1  0  0  0  0
 26 27  2  0  0  0  0
 27 16  1  0  0  0  0
 28 29  1  0  0  0  0
 28 26  1  0  0  0  0
 29 30  1  0  0  0  0
 31 34  1  0  0  0  0
 32 33  1  0  0  0  0
 32 31  1  0  0  0  0
 33 29  1  0  0  0  0
 34 30  1  0  0  0  0
M  END
>  <MODEL>
6

>  <REMARK>
 VINA RESULT:      -8.2      3.063      6.045
  Name = 
  4 active torsions:
  status: ('A' for Active; 'I' for Inactive)
    1  A    between atoms: C_3  and  C_13
    2  A    between atoms: C_11  and  C_13
    3  A    between atoms: C_12  and  C_28
    4  A    between atoms: N_17  and  C_29
                            x       y       z     vdW  Elec       q    Type
                         _______ _______ _______ _____ _____    ______ ____

>  <TORSDO>
F 4

$$$$
=
 OpenBabel10272400063D

 34 40  0  0  1  0  0  0  0  0999 V2000
  185.2200  178.7210  145.2500 C   0  0  2  0  0  3  0  0  0  0  0  0
  187.5820  178.1620  145.3020 C   0  0  2  0  0  3  0  0  0  0  0  0
  186.2800  177.5750  143.1580 C   0  0  1  0  0  3  0  0  0  0  0  0
  187.1300  179.4300  141.7020 O   0  0  0  0  0  0  0  0  0  0  0  0
  186.4490  178.6560  147.4560 C   0  0  0  0  0  2  0  0  0  0  0  0
  187.5690  177.8400  146.7880 C   0  0  0  0  0  2  0  0  0  0  0  0
  188.8080  178.3570  143.1830 C   0  0  1  0  0  3  0  0  0  0  0  0
  186.2480  177.7350  144.6970 C   0  0  2  0  0  3  0  0  0  0  0  0
  188.5570  175.9300  142.1420 C   0  0  0  0  0  1  0  0  0  0  0  0
  185.0890  178.4710  146.7550 C   0  0  0  0  0  2  0  0  0  0  0  0
  184.9390  177.7990  142.4340 C   0  0  2  0  0  3  0  0  0  0  0  0
  183.8840  178.6060  144.5420 C   0  0  0  0  0  2  0  0  0  0  0  0
  188.7660  177.6170  144.5290 C   0  0  0  0  0  2  0  0  0  0  0  0
  186.2910  179.0720  140.6140 C   0  0  0  0  0  2  0  0  0  0  0  0
  185.1910  178.0290  140.9360 C   0  0  2  0  0  3  0  0  0  0  0  0
  188.6310  177.4450  141.9640 C   0  0  1  0  0  0  0  0  0  0  0  0
  187.4510  178.2800  142.4490 C   0  0  1  0  0  0  0  0  0  0  0  0
  184.1030  178.9120  143.0690 C   0  0  0  0  0  2  0  0  0  0  0  0
  182.5900  179.5820  138.6600 C   0  0  0  0  0  0  0  0  0  0  0  0
  181.6640  178.5420  138.5300 C   0  0  0  0  0  3  0  0  0  0  0  0
  183.9500  178.1970  140.1130 C   0  0  0  0  0  0  0  0  0  0  0  0
  181.8810  177.3280  139.1880 C   0  0  0  0  0  3  0  0  0  0  0  0
  183.7320  179.4090  139.4470 C   0  0  0  0  0  3  0  0  0  0  0  0
  183.0220  177.1530  139.9750 C   0  0  0  0  0  3  0  0  0  0  0  0
  182.3800  180.7580  138.0210 F   0  0  0  0  0  0  0  0  0  0  0  0
  189.4840  177.1590  139.7670 C   0  0  0  0  0  3  0  0  0  0  0  0
  189.2580  177.9380  140.7610 N   0  0  0  0  0  0  0  0  0  0  0  0
  190.1330  177.6940  138.5350 C   0  0  0  0  0  2  0  0  0  0  0  0
  189.6910  176.8990  137.3120 C   0  0  0  0  0  3  0  0  0  0  0  0
  189.2980  177.8480  136.1770 C   0  0  0  0  0  2  0  0  0  0  0  0
  186.9640  177.3930  136.5360 O   0  0  0  0  0  0  0  0  0  0  0  0
  187.2210  176.7360  137.7520 C   0  0  0  0  0  2  0  0  0  0  0  0
  188.5320  175.9510  137.6530 C   0  0  0  0  0  2  0  0  0  0  0  0
  187.9060  178.4310  136.4350 C   0  0  0  0  0  2  0  0  0  0  0  0
  1 12  1  6  0  0  0
  1 10  1  0  0  0  0
  2 13  1  6  0  0  0
  2  6  1  0  0  0  0
  3  8  1  0  0  0  0
  4 17  1  0  0  0  0
  6  5  1  0  0  0  0
  7 13  1  0  0  0  0
  8  1  1  0  0  0  0
  8  2  1  0  0  0  0
 10  5  1  0  0  0  0
 11 18  1  0  0  0  0
 11  3  1  0  0  0  0
 14 15  1  0  0  0  0
 14  4  1  0  0  0  0
 15 11  1  0  0  0  0
 16  9  1  0  0  0  0
 16 17  1  0  0  0  0
 16  7  1  0  0  0  0
 17  3  1  0  0  0  0
 17  7  1  0  0  0  0
 18 12  1  0  0  0  0
 19 23  1  0  0  0  0
 20 19  2  0  0  0  0
 20 22  1  0  0  0  0
 21 15  1  0  0  0  0
 22 24  2  0  0  0  0
 23 21  2  0  0  0  0
 24 21  1  0  0  0  0
 25 19  1  0  0  0  0
 26 27  2  0  0  0  0
 27 16  1  0  0  0  0
 28 26  1  0  0  0  0
 29 33  1  0  0  0  0
 29 28  1  0  0  0  0
 30 34  1  0  0  0  0
 30 29  1  0  0  0  0
 31 32  1  0  0  0  0
 33 32  1  0  0  0  0
 34 31  1  0  0  0  0
M  END
>  <MODEL>
7

>  <REMARK>
 VINA RESULT:      -8.0      1.627      2.449
  Name = 
  4 active torsions:
  status: ('A' for Active; 'I' for Inactive)
    1  A    between atoms: C_3  and  C_13
    2  A    between atoms: C_11  and  C_13
    3  A    between atoms: C_12  and  C_28
    4  A    between atoms: N_17  and  C_29
                            x       y       z     vdW  Elec       q    Type
                         _______ _______ _______ _____ _____    ______ ____

>  <TORSDO>
F 4

$$$$
=
 OpenBabel10272400063D

 34 40  0  0  1  0  0  0  0  0999 V2000
  189.5660  177.3790  146.5470 C   0  0  2  0  0  3  0  0  0  0  0  0
  187.2230  177.9480  146.8340 C   0  0  2  0  0  3  0  0  0  0  0  0
  188.2480  178.3200  144.5000 C   0  0  1  0  0  3  0  0  0  0  0  0
  187.2420  176.3340  143.3460 O   0  0  0  0  0  0  0  0  0  0  0  0
  188.6150  177.6630  148.8710 C   0  0  0  0  0  2  0  0  0  0  0  0
  187.4150  178.4140  148.2690 C   0  0  0  0  0  2  0  0  0  0  0  0
  185.7490  177.5530  144.9110 C   0  0  1  0  0  3  0  0  0  0  0  0
  188.4690  178.3100  146.0320 C   0  0  2  0  0  3  0  0  0  0  0  0
  185.8510  179.8660  143.6160 C   0  0  0  0  0  1  0  0  0  0  0  0
  189.8780  177.7740  147.9940 C   0  0  0  0  0  2  0  0  0  0  0  0
  189.4930  178.0210  143.6430 C   0  0  2  0  0  3  0  0  0  0  0  0
  190.8040  177.4190  145.6740 C   0  0  0  0  0  2  0  0  0  0  0  0
  185.9490  178.4200  146.1620 C   0  0  0  0  0  2  0  0  0  0  0  0
  187.9380  176.5810  142.1350 C   0  0  0  0  0  2  0  0  0  0  0  0
  189.0610  177.6470  142.2160 C   0  0  2  0  0  3  0  0  0  0  0  0
  185.7680  178.3410  143.5960 C   0  0  1  0  0  0  0  0  0  0  0  0
  187.0050  177.5530  144.0120 C   0  0  1  0  0  0  0  0  0  0  0  0
  190.4090  176.9730  144.2750 C   0  0  0  0  0  2  0  0  0  0  0  0
  190.9520  176.6870  139.0760 C   0  0  0  0  0  0  0  0  0  0  0  0
  192.2750  176.9490  139.4470 C   0  0  0  0  0  3  0  0  0  0  0  0
  190.1930  177.3950  141.2680 C   0  0  0  0  0  0  0  0  0  0  0  0
  192.5600  177.4370  140.7250 C   0  0  0  0  0  3  0  0  0  0  0  0
  189.9140  176.9120  139.9840 C   0  0  0  0  0  3  0  0  0  0  0  0
  191.5210  177.6630  141.6340 C   0  0  0  0  0  3  0  0  0  0  0  0
  190.6780  176.2150  137.8370 F   0  0  0  0  0  0  0  0  0  0  0  0
  184.1350  178.4130  141.8750 C   0  0  0  0  0  3  0  0  0  0  0  0
  185.0030  177.7350  142.5330 N   0  0  0  0  0  0  0  0  0  0  0  0
  183.3570  177.7640  140.7800 C   0  0  0  0  0  2  0  0  0  0  0  0
  183.2840  178.6780  139.5640 C   0  0  0  0  0  3  0  0  0  0  0  0
  182.5910  177.9610  138.4020 C   0  0  0  0  0  2  0  0  0  0  0  0
  184.6910  177.6630  137.2670 O   0  0  0  0  0  0  0  0  0  0  0  0
  185.4230  178.0520  138.4020 C   0  0  0  0  0  2  0  0  0  0  0  0
  184.6800  179.1640  139.1460 C   0  0  0  0  0  2  0  0  0  0  0  0
  183.5580  176.9770  137.7380 C   0  0  0  0  0  2  0  0  0  0  0  0
  1 12  1  6  0  0  0
  1 10  1  0  0  0  0
  2 13  1  6  0  0  0
  2  6  1  0  0  0  0
  3  8  1  0  0  0  0
  4 17  1  0  0  0  0
  6  5  1  0  0  0  0
  7 13  1  0  0  0  0
  8  1  1  0  0  0  0
  8  2  1  0  0  0  0
 10  5  1  0  0  0  0
 11 18  1  0  0  0  0
 11  3  1  0  0  0  0
 14 15  1  0  0  0  0
 14  4  1  0  0  0  0
 15 11  1  0  0  0  0
 16  9  1  0  0  0  0
 16 17  1  0  0  0  0
 16  7  1  0  0  0  0
 17  3  1  0  0  0  0
 17  7  1  0  0  0  0
 18 12  1  0  0  0  0
 19 20  2  0  0  0  0
 19 23  1  0  0  0  0
 20 22  1  0  0  0  0
 21 24  1  0  0  0  0
 21 15  1  0  0  0  0
 22 24  2  0  0  0  0
 23 21  2  0  0  0  0
 25 19  1  0  0  0  0
 26 27  2  0  0  0  0
 27 16  1  0  0  0  0
 28 26  1  0  0  0  0
 29 28  1  0  0  0  0
 30 29  1  0  0  0  0
 31 34  1  0  0  0  0
 31 32  1  0  0  0  0
 32 33  1  0  0  0  0
 33 29  1  0  0  0  0
 34 30  1  0  0  0  0
M  END
>  <MODEL>
8

>  <REMARK>
 VINA RESULT:      -8.0      2.693      5.439
  Name = 
  4 active torsions:
  status: ('A' for Active; 'I' for Inactive)
    1  A    between atoms: C_3  and  C_13
    2  A    between atoms: C_11  and  C_13
    3  A    between atoms: C_12  and  C_28
    4  A    between atoms: N_17  and  C_29
                            x       y       z     vdW  Elec       q    Type
                         _______ _______ _______ _____ _____    ______ ____

>  <TORSDO>
F 4

$$$$
=
 OpenBabel10272400063D

 34 40  0  0  1  0  0  0  0  0999 V2000
  191.9030  177.3040  140.6360 C   0  0  2  0  0  3  0  0  0  0  0  0
  191.1800  177.2780  138.3190 C   0  0  2  0  0  3  0  0  0  0  0  0
  189.3780  176.8970  140.1200 C   0  0  1  0  0  3  0  0  0  0  0  0
  188.3080  179.1640  140.0400 O   0  0  0  0  0  0  0  0  0  0  0  0
  193.6070  177.0340  138.7900 C   0  0  0  0  0  2  0  0  0  0  0  0
  192.4730  176.6470  137.8250 C   0  0  0  0  0  2  0  0  0  0  0  0
  188.9490  178.1880  137.8500 C   0  0  1  0  0  3  0  0  0  0  0  0
  190.8550  176.7100  139.6970 C   0  0  2  0  0  3  0  0  0  0  0  0
  187.3940  176.0490  138.0540 C   0  0  0  0  0  1  0  0  0  0  0  0
  193.2640  176.7130  140.2580 C   0  0  0  0  0  2  0  0  0  0  0  0
  189.1200  176.9740  141.6360 C   0  0  2  0  0  3  0  0  0  0  0  0
  191.5680  177.0560  142.0940 C   0  0  0  0  0  2  0  0  0  0  0  0
  190.0050  177.1840  137.3650 C   0  0  0  0  0  2  0  0  0  0  0  0
  187.4240  178.8750  141.1130 C   0  0  0  0  0  2  0  0  0  0  0  0
  187.7290  177.5720  141.8950 C   0  0  2  0  0  3  0  0  0  0  0  0
  187.6190  177.5460  138.2600 C   0  0  1  0  0  0  0  0  0  0  0  0
  188.6050  177.9780  139.3410 C   0  0  1  0  0  0  0  0  0  0  0  0
  190.2290  177.7130  142.3880 C   0  0  0  0  0  2  0  0  0  0  0  0
  185.6630  178.1380  145.0210 C   0  0  0  0  0  0  0  0  0  0  0  0
  186.5490  177.7400  146.0270 C   0  0  0  0  0  3  0  0  0  0  0  0
  187.3380  177.6390  143.3400 C   0  0  0  0  0  0  0  0  0  0  0  0
  187.8290  177.2890  145.6930 C   0  0  0  0  0  3  0  0  0  0  0  0
  186.0560  178.0840  143.6810 C   0  0  0  0  0  3  0  0  0  0  0  0
  188.2230  177.2340  144.3520 C   0  0  0  0  0  3  0  0  0  0  0  0
  184.4220  178.5740  145.3460 F   0  0  0  0  0  0  0  0  0  0  0  0
  185.3070  178.0320  138.4880 C   0  0  0  0  0  3  0  0  0  0  0  0
  186.4740  178.4120  138.1150 N   0  0  0  0  0  0  0  0  0  0  0  0
  184.1400  178.9460  138.3260 C   0  0  0  0  0  2  0  0  0  0  0  0
  183.4420  179.1620  139.6640 C   0  0  0  0  0  3  0  0  0  0  0  0
  183.4670  177.8710  140.4880 C   0  0  0  0  0  2  0  0  0  0  0  0
  181.1340  177.4850  140.0470 O   0  0  0  0  0  0  0  0  0  0  0  0
  181.0970  178.4860  139.0610 C   0  0  0  0  0  2  0  0  0  0  0  0
  182.0010  179.6530  139.4680 C   0  0  0  0  0  2  0  0  0  0  0  0
  182.4070  176.8950  139.9710 C   0  0  0  0  0  2  0  0  0  0  0  0
  1 10  1  6  0  0  0
  1 12  1  0  0  0  0
  2 13  1  6  0  0  0
  2  8  1  0  0  0  0
  3 11  1  0  0  0  0
  4 14  1  0  0  0  0
  5 10  1  0  0  0  0
  6  2  1  0  0  0  0
  6  5  1  0  0  0  0
  7 16  1  0  0  0  0
  7 17  1  0  0  0  0
  8  3  1  0  0  0  0
  8  1  1  0  0  0  0
  9 16  1  0  0  0  0
 11 15  1  0  0  0  0
 11 18  1  0  0  0  0
 12 18  1  0  0  0  0
 13  7  1  0  0  0  0
 14 15  1  0  0  0  0
 15 21  1  0  0  0  0
 16 17  1  0  0  0  0
 17  4  1  0  0  0  0
 17  3  1  0  0  0  0
 19 25  1  0  0  0  0
 19 20  1  0  0  0  0
 21 23  1  0  0  0  0
 21 24  2  0  0  0  0
 22 20  2  0  0  0  0
 23 19  2  0  0  0  0
 24 22  1  0  0  0  0
 27 16  1  0  0  0  0
 27 26  2  0  0  0  0
 28 26  1  0  0  0  0
 28 29  1  0  0  0  0
 29 30  1  0  0  0  0
 32 33  1  0  0  0  0
 32 31  1  0  0  0  0
 33 29  1  0  0  0  0
 34 31  1  0  0  0  0
 34 30  1  0  0  0  0
M  END
>  <MODEL>
9

>  <REMARK>
 VINA RESULT:      -8.0      2.347      6.174
  Name = 
  4 active torsions:
  status: ('A' for Active; 'I' for Inactive)
    1  A    between atoms: C_3  and  C_13
    2  A    between atoms: C_11  and  C_13
    3  A    between atoms: C_12  and  C_28
    4  A    between atoms: N_17  and  C_29
                            x       y       z     vdW  Elec       q    Type
                         _______ _______ _______ _____ _____    ______ ____

>  <TORSDO>
F 4

$$$$
