=
 OpenBabel10272401113D

 27 31  0  0  0  0  0  0  0  0999 V2000
  186.3740  178.7590  140.7820 C   0  0  0  0  0  3  0  0  0  0  0  0
  185.8000  178.4320  143.1790 C   0  0  0  0  0  0  0  0  0  0  0  0
  187.9470  177.2080  142.7960 N   0  0  0  0  0  0  0  0  0  0  0  0
  186.5990  178.4640  147.3120 C   0  0  0  0  0  3  0  0  0  0  0  0
  188.0080  177.8540  149.2080 N   0  0  0  0  0  1  0  0  0  0  0  0
  184.9280  179.0600  144.0850 C   0  0  0  0  0  3  0  0  0  0  0  0
  188.6410  177.2220  146.9370 C   0  0  0  0  0  3  0  0  0  0  0  0
  191.1800  176.4790  139.5140 F   0  0  0  0  0  0  0  0  0  0  0  0
  188.3890  177.2120  145.5640 C   0  0  0  0  0  3  0  0  0  0  0  0
  190.0310  177.0870  139.8940 C   0  0  0  0  0  0  0  0  0  0  0  0
  187.2370  177.8260  145.0460 C   0  0  0  0  0  0  0  0  0  0  0  0
  185.4390  178.3800  141.7940 N   0  0  0  0  0  0  0  0  0  0  0  0
  187.7480  177.8460  147.8110 C   0  0  0  0  0  0  0  0  0  0  0  0
  186.3390  178.4580  145.9380 C   0  0  0  0  0  0  0  0  0  0  0  0
  187.6260  178.3170  140.6680 C   0  0  0  0  0  0  0  0  0  0  0  0
  186.9810  177.8330  143.6560 C   0  0  0  0  0  0  0  0  0  0  0  0
  189.4470  176.7770  141.1210 C   0  0  0  0  0  3  0  0  0  0  0  0
  185.1940  179.0770  145.4510 C   0  0  0  0  0  3  0  0  0  0  0  0
  189.4550  178.0590  139.0810 C   0  0  0  0  0  3  0  0  0  0  0  0
  188.2560  178.6590  139.4640 C   0  0  0  0  0  3  0  0  0  0  0  0
  188.2700  177.4060  141.5500 C   0  0  0  0  0  0  0  0  0  0  0  0
  181.3960  177.7770  140.5950 C   0  0  0  0  0  3  0  0  0  0  0  0
  184.0640  178.1620  141.3990 C   0  0  0  0  0  0  0  0  0  0  0  0
  183.7600  177.3680  140.2810 C   0  0  0  0  0  3  0  0  0  0  0  0
  182.4340  177.1730  139.8830 C   0  0  0  0  0  3  0  0  0  0  0  0
  181.6830  178.5780  141.7030 C   0  0  0  0  0  3  0  0  0  0  0  0
  183.0080  178.7720  142.1010 C   0  0  0  0  0  3  0  0  0  0  0  0
  1 12  1  0  0  0  0
  2 16  2  0  0  0  0
  2  6  1  0  0  0  0
  3 16  1  0  0  0  0
  4 13  1  0  0  0  0
  6 18  2  0  0  0  0
  7 13  2  0  0  0  0
  8 10  1  0  0  0  0
  9  7  1  0  0  0  0
 10 17  2  0  0  0  0
 11  9  2  0  0  0  0
 11 14  1  0  0  0  0
 12  2  1  0  0  0  0
 13  5  1  0  0  0  0
 14  4  2  0  0  0  0
 15  1  2  0  0  0  0
 15 21  1  0  0  0  0
 16 11  1  0  0  0  0
 17 21  1  0  0  0  0
 18 14  1  0  0  0  0
 19 20  2  0  0  0  0
 19 10  1  0  0  0  0
 20 15  1  0  0  0  0
 21  3  2  0  0  0  0
 22 26  1  0  0  0  0
 23 12  1  0  0  0  0
 23 27  1  0  0  0  0
 24 23  2  0  0  0  0
 25 24  1  0  0  0  0
 25 22  2  0  0  0  0
 26 27  2  0  0  0  0
M  END
>  <MODEL>
1

>  <REMARK>
 VINA RESULT:     -10.1      0.000      0.000
  Name = 
  1 active torsions:
  status: ('A' for Active; 'I' for Inactive)
    1  A    between atoms: C_9  and  N_15
                            x       y       z     vdW  Elec       q    Type
                         _______ _______ _______ _____ _____    ______ ____

>  <TORSDO>
F 1

$$$$
=
 OpenBabel10272401113D

 27 31  0  0  0  0  0  0  0  0999 V2000
  187.9500  178.7280  141.0780 C   0  0  0  0  0  3  0  0  0  0  0  0
  188.4040  177.8640  143.3650 C   0  0  0  0  0  0  0  0  0  0  0  0
  189.8180  176.5110  141.8060 N   0  0  0  0  0  0  0  0  0  0  0  0
  190.8860  176.7080  146.5620 C   0  0  0  0  0  3  0  0  0  0  0  0
  192.7850  175.4430  147.4270 N   0  0  0  0  0  1  0  0  0  0  0  0
  188.1840  178.3420  144.6680 C   0  0  0  0  0  3  0  0  0  0  0  0
  192.2080  175.3490  145.0570 C   0  0  0  0  0  3  0  0  0  0  0  0
  191.0460  176.2470  137.3150 F   0  0  0  0  0  0  0  0  0  0  0  0
  191.3950  175.7330  143.9890 C   0  0  0  0  0  3  0  0  0  0  0  0
  190.3530  176.8810  138.2910 C   0  0  0  0  0  0  0  0  0  0  0  0
  190.3140  176.6070  144.1920 C   0  0  0  0  0  0  0  0  0  0  0  0
  187.4800  178.2240  142.3300 N   0  0  0  0  0  0  0  0  0  0  0  0
  191.9550  175.8350  146.3420 C   0  0  0  0  0  0  0  0  0  0  0  0
  190.0670  177.0960  145.4970 C   0  0  0  0  0  0  0  0  0  0  0  0
  188.8850  178.1710  140.3100 C   0  0  0  0  0  0  0  0  0  0  0  0
  189.4950  177.0110  143.1140 C   0  0  0  0  0  0  0  0  0  0  0  0
  190.3000  176.3400  139.5750 C   0  0  0  0  0  3  0  0  0  0  0  0
  189.0080  177.9660  145.7250 C   0  0  0  0  0  3  0  0  0  0  0  0
  189.7330  178.0990  138.0290 C   0  0  0  0  0  3  0  0  0  0  0  0
  188.9970  178.7300  139.0300 C   0  0  0  0  0  3  0  0  0  0  0  0
  189.6090  176.9840  140.6110 C   0  0  0  0  0  0  0  0  0  0  0  0
  183.3060  178.5000  143.1280 C   0  0  0  0  0  3  0  0  0  0  0  0
  186.0620  178.3000  142.6030 C   0  0  0  0  0  0  0  0  0  0  0  0
  185.1360  178.3850  141.5500 C   0  0  0  0  0  3  0  0  0  0  0  0
  183.7650  178.4810  141.8100 C   0  0  0  0  0  3  0  0  0  0  0  0
  184.2140  178.4270  144.1860 C   0  0  0  0  0  3  0  0  0  0  0  0
  185.5840  178.3310  143.9260 C   0  0  0  0  0  3  0  0  0  0  0  0
  1 12  1  0  0  0  0
  2  6  1  0  0  0  0
  3 16  1  0  0  0  0
  6 18  2  0  0  0  0
  7 13  2  0  0  0  0
  8 10  1  0  0  0  0
  9 11  2  0  0  0  0
  9  7  1  0  0  0  0
 10 17  2  0  0  0  0
 11 14  1  0  0  0  0
 12 23  1  0  0  0  0
 12  2  1  0  0  0  0
 13  4  1  0  0  0  0
 13  5  1  0  0  0  0
 14 18  1  0  0  0  0
 14  4  2  0  0  0  0
 15 21  1  0  0  0  0
 15  1  2  0  0  0  0
 16  2  2  0  0  0  0
 16 11  1  0  0  0  0
 17 21  1  0  0  0  0
 19 10  1  0  0  0  0
 19 20  2  0  0  0  0
 20 15  1  0  0  0  0
 21  3  2  0  0  0  0
 22 26  1  0  0  0  0
 23 27  1  0  0  0  0
 24 25  1  0  0  0  0
 24 23  2  0  0  0  0
 25 22  2  0  0  0  0
 27 26  2  0  0  0  0
M  END
>  <MODEL>
2

>  <REMARK>
 VINA RESULT:      -9.5      2.131      3.107
  Name = 
  1 active torsions:
  status: ('A' for Active; 'I' for Inactive)
    1  A    between atoms: C_9  and  N_15
                            x       y       z     vdW  Elec       q    Type
                         _______ _______ _______ _____ _____    ______ ____

>  <TORSDO>
F 1

$$$$
=
 OpenBabel10272401113D

 27 31  0  0  0  0  0  0  0  0999 V2000
  186.9100  178.8980  139.9890 C   0  0  0  0  0  3  0  0  0  0  0  0
  186.0330  178.5990  142.2960 C   0  0  0  0  0  0  0  0  0  0  0  0
  188.1120  177.2160  142.1480 N   0  0  0  0  0  0  0  0  0  0  0  0
  186.3360  178.5400  146.4940 C   0  0  0  0  0  3  0  0  0  0  0  0
  187.4600  177.8100  148.5330 N   0  0  0  0  0  1  0  0  0  0  0  0
  185.1090  179.2860  143.1030 C   0  0  0  0  0  3  0  0  0  0  0  0
  188.3080  177.1470  146.3430 C   0  0  0  0  0  3  0  0  0  0  0  0
  191.6460  176.2630  139.2590 F   0  0  0  0  0  0  0  0  0  0  0  0
  188.2210  177.1670  144.9490 C   0  0  0  0  0  3  0  0  0  0  0  0
  190.5090  176.9550  139.5100 C   0  0  0  0  0  0  0  0  0  0  0  0
  187.1880  177.8710  144.3080 C   0  0  0  0  0  0  0  0  0  0  0  0
  185.8350  178.5850  140.8770 N   0  0  0  0  0  0  0  0  0  0  0  0
  187.3680  177.8320  147.1140 C   0  0  0  0  0  0  0  0  0  0  0  0
  186.2410  178.5640  145.1000 C   0  0  0  0  0  0  0  0  0  0  0  0
  188.1300  178.3620  140.0150 C   0  0  0  0  0  0  0  0  0  0  0  0
  187.1010  177.9070  142.8980 C   0  0  0  0  0  0  0  0  0  0  0  0
  189.7630  176.6820  140.6550 C   0  0  0  0  0  3  0  0  0  0  0  0
  185.2120  179.2730  144.4910 C   0  0  0  0  0  3  0  0  0  0  0  0
  190.1090  177.9750  138.6510 C   0  0  0  0  0  3  0  0  0  0  0  0
  188.9230  178.6630  138.9000 C   0  0  0  0  0  3  0  0  0  0  0  0
  188.5940  177.3970  140.9530 C   0  0  0  0  0  0  0  0  0  0  0  0
  181.9030  178.3080  139.2640 C   0  0  0  0  0  3  0  0  0  0  0  0
  184.5050  178.4760  140.3200 C   0  0  0  0  0  0  0  0  0  0  0  0
  184.1290  179.2550  139.2130 C   0  0  0  0  0  3  0  0  0  0  0  0
  182.8370  179.1690  138.6850 C   0  0  0  0  0  3  0  0  0  0  0  0
  182.2590  177.5340  140.3710 C   0  0  0  0  0  3  0  0  0  0  0  0
  183.5500  177.6200  140.8980 C   0  0  0  0  0  3  0  0  0  0  0  0
  1 15  2  0  0  0  0
  1 12  1  0  0  0  0
  2 16  2  0  0  0  0
  2  6  1  0  0  0  0
  3 16  1  0  0  0  0
  4 13  1  0  0  0  0
  6 18  2  0  0  0  0
  7 13  2  0  0  0  0
  8 10  1  0  0  0  0
  9  7  1  0  0  0  0
 10 17  2  0  0  0  0
 11  9  2  0  0  0  0
 11 14  1  0  0  0  0
 12  2  1  0  0  0  0
 13  5  1  0  0  0  0
 14  4  2  0  0  0  0
 15 21  1  0  0  0  0
 16 11  1  0  0  0  0
 17 21  1  0  0  0  0
 18 14  1  0  0  0  0
 19 20  2  0  0  0  0
 19 10  1  0  0  0  0
 20 15  1  0  0  0  0
 21  3  2  0  0  0  0
 22 26  1  0  0  0  0
 23 12  1  0  0  0  0
 23 27  1  0  0  0  0
 24 23  2  0  0  0  0
 25 24  1  0  0  0  0
 25 22  2  0  0  0  0
 26 27  2  0  0  0  0
M  END
>  <MODEL>
3

>  <REMARK>
 VINA RESULT:      -9.3      0.999      1.125
  Name = 
  1 active torsions:
  status: ('A' for Active; 'I' for Inactive)
    1  A    between atoms: C_9  and  N_15
                            x       y       z     vdW  Elec       q    Type
                         _______ _______ _______ _____ _____    ______ ____

>  <TORSDO>
F 1

$$$$
=
 OpenBabel10272401113D

 27 31  0  0  0  0  0  0  0  0999 V2000
  190.0050  178.0960  142.4000 C   0  0  0  0  0  3  0  0  0  0  0  0
  187.5990  178.1580  141.7720 C   0  0  0  0  0  0  0  0  0  0  0  0
  187.6890  177.3500  144.1370 N   0  0  0  0  0  0  0  0  0  0  0  0
  183.5590  179.2030  142.3210 C   0  0  0  0  0  3  0  0  0  0  0  0
  181.5600  179.3010  143.7180 N   0  0  0  0  0  1  0  0  0  0  0  0
  186.8580  178.7650  140.7440 C   0  0  0  0  0  3  0  0  0  0  0  0
  183.6380  178.3590  144.5870 C   0  0  0  0  0  3  0  0  0  0  0  0
  190.7040  176.6440  147.6250 F   0  0  0  0  0  0  0  0  0  0  0  0
  184.9810  178.0150  144.4170 C   0  0  0  0  0  3  0  0  0  0  0  0
  190.4760  177.0670  146.3590 C   0  0  0  0  0  0  0  0  0  0  0  0
  185.6310  178.2580  143.1960 C   0  0  0  0  0  0  0  0  0  0  0  0
  188.9460  177.7490  141.5040 N   0  0  0  0  0  0  0  0  0  0  0  0
  182.9280  178.9510  143.5410 C   0  0  0  0  0  0  0  0  0  0  0  0
  184.9030  178.8610  142.1430 C   0  0  0  0  0  0  0  0  0  0  0  0
  190.0080  177.9080  143.7190 C   0  0  0  0  0  0  0  0  0  0  0  0
  186.9930  177.9260  143.0210 C   0  0  0  0  0  0  0  0  0  0  0  0
  189.2170  176.9020  145.7820 C   0  0  0  0  0  3  0  0  0  0  0  0
  185.5240  179.1180  140.9260 C   0  0  0  0  0  3  0  0  0  0  0  0
  191.4830  177.7110  145.6460 C   0  0  0  0  0  3  0  0  0  0  0  0
  191.2500  178.1170  144.3330 C   0  0  0  0  0  3  0  0  0  0  0  0
  188.9450  177.3500  144.4820 C   0  0  0  0  0  0  0  0  0  0  0  0
  190.0150  176.1070  137.7220 C   0  0  0  0  0  3  0  0  0  0  0  0
  189.3010  177.1760  140.2250 C   0  0  0  0  0  0  0  0  0  0  0  0
  190.5800  176.6310  140.0160 C   0  0  0  0  0  3  0  0  0  0  0  0
  190.9340  176.0970  138.7730 C   0  0  0  0  0  3  0  0  0  0  0  0
  188.7440  176.6540  137.9110 C   0  0  0  0  0  3  0  0  0  0  0  0
  188.3900  177.1870  139.1520 C   0  0  0  0  0  3  0  0  0  0  0  0
  1 15  2  0  0  0  0
  2 16  1  0  0  0  0
  3 21  2  0  0  0  0
  4 13  2  0  0  0  0
  6 18  1  0  0  0  0
  6  2  2  0  0  0  0
  9  7  2  0  0  0  0
 10  8  1  0  0  0  0
 11  9  1  0  0  0  0
 12  2  1  0  0  0  0
 12  1  1  0  0  0  0
 13  5  1  0  0  0  0
 13  7  1  0  0  0  0
 14  4  1  0  0  0  0
 14 11  1  0  0  0  0
 15 20  1  0  0  0  0
 15 21  1  0  0  0  0
 16 11  2  0  0  0  0
 16  3  1  0  0  0  0
 17 10  2  0  0  0  0
 18 14  2  0  0  0  0
 19 10  1  0  0  0  0
 20 19  2  0  0  0  0
 21 17  1  0  0  0  0
 22 26  2  0  0  0  0
 22 25  1  0  0  0  0
 23 12  1  0  0  0  0
 24 23  1  0  0  0  0
 25 24  2  0  0  0  0
 26 27  1  0  0  0  0
 27 23  2  0  0  0  0
M  END
>  <MODEL>
4

>  <REMARK>
 VINA RESULT:      -9.2      2.584      5.679
  Name = 
  1 active torsions:
  status: ('A' for Active; 'I' for Inactive)
    1  A    between atoms: C_9  and  N_15
                            x       y       z     vdW  Elec       q    Type
                         _______ _______ _______ _____ _____    ______ ____

>  <TORSDO>
F 1

$$$$
=
 OpenBabel10272401113D

 27 31  0  0  0  0  0  0  0  0999 V2000
  187.6160  177.0790  143.2300 C   0  0  0  0  0  3  0  0  0  0  0  0
  185.4160  178.1910  142.9060 C   0  0  0  0  0  0  0  0  0  0  0  0
  186.8120  178.8000  140.9220 N   0  0  0  0  0  0  0  0  0  0  0  0
  181.9540  179.1960  140.7330 C   0  0  0  0  0  3  0  0  0  0  0  0
  180.8880  180.0350  138.7040 N   0  0  0  0  0  1  0  0  0  0  0  0
  184.1350  178.0380  143.4640 C   0  0  0  0  0  3  0  0  0  0  0  0
  183.3170  179.8450  138.8420 C   0  0  0  0  0  3  0  0  0  0  0  0
  190.9510  177.8920  138.9730 F   0  0  0  0  0  0  0  0  0  0  0  0
  184.4720  179.5070  139.5520 C   0  0  0  0  0  3  0  0  0  0  0  0
  190.0640  177.6610  139.9700 C   0  0  0  0  0  0  0  0  0  0  0  0
  184.3830  179.0120  140.8630 C   0  0  0  0  0  0  0  0  0  0  0  0
  186.5630  177.9110  143.7180 N   0  0  0  0  0  0  0  0  0  0  0  0
  182.0610  179.6900  139.4300 C   0  0  0  0  0  0  0  0  0  0  0  0
  183.1050  178.8570  141.4500 C   0  0  0  0  0  0  0  0  0  0  0  0
  188.2410  177.2100  142.0600 C   0  0  0  0  0  0  0  0  0  0  0  0
  185.5450  178.6550  141.5830 C   0  0  0  0  0  0  0  0  0  0  0  0
  188.9000  178.4220  140.0620 C   0  0  0  0  0  3  0  0  0  0  0  0
  182.9890  178.3640  142.7440 C   0  0  0  0  0  3  0  0  0  0  0  0
  190.2890  176.6300  140.8780 C   0  0  0  0  0  3  0  0  0  0  0  0
  189.3870  176.4170  141.9200 C   0  0  0  0  0  3  0  0  0  0  0  0
  187.9530  178.1910  141.0700 C   0  0  0  0  0  0  0  0  0  0  0  0
  186.5850  178.9370  147.8520 C   0  0  0  0  0  3  0  0  0  0  0  0
  186.5800  178.2750  145.1180 C   0  0  0  0  0  0  0  0  0  0  0  0
  187.5330  177.7210  145.9890 C   0  0  0  0  0  3  0  0  0  0  0  0
  187.5390  178.0520  147.3470 C   0  0  0  0  0  3  0  0  0  0  0  0
  185.6240  179.4890  147.0020 C   0  0  0  0  0  3  0  0  0  0  0  0
  185.6190  179.1580  145.6450 C   0  0  0  0  0  3  0  0  0  0  0  0
  1 12  1  0  0  0  0
  2  6  1  0  0  0  0
  2 12  1  0  0  0  0
  3 21  2  0  0  0  0
  3 16  1  0  0  0  0
  4 14  1  0  0  0  0
  5 13  1  0  0  0  0
  7 13  1  0  0  0  0
  7  9  2  0  0  0  0
  8 10  1  0  0  0  0
  9 11  1  0  0  0  0
 10 17  2  0  0  0  0
 10 19  1  0  0  0  0
 11 14  2  0  0  0  0
 11 16  1  0  0  0  0
 12 23  1  0  0  0  0
 13  4  2  0  0  0  0
 14 18  1  0  0  0  0
 15  1  2  0  0  0  0
 16  2  2  0  0  0  0
 17 21  1  0  0  0  0
 18  6  2  0  0  0  0
 19 20  2  0  0  0  0
 20 15  1  0  0  0  0
 21 15  1  0  0  0  0
 23 27  2  0  0  0  0
 23 24  1  0  0  0  0
 24 25  2  0  0  0  0
 25 22  1  0  0  0  0
 26 22  2  0  0  0  0
 27 26  1  0  0  0  0
M  END
>  <MODEL>
5

>  <REMARK>
 VINA RESULT:      -8.7      1.690      5.842
  Name = 
  1 active torsions:
  status: ('A' for Active; 'I' for Inactive)
    1  A    between atoms: C_9  and  N_15
                            x       y       z     vdW  Elec       q    Type
                         _______ _______ _______ _____ _____    ______ ____

>  <TORSDO>
F 1

$$$$
=
 OpenBabel10272401113D

 27 31  0  0  0  0  0  0  0  0999 V2000
  189.6820  176.8070  140.6370 C   0  0  0  0  0  3  0  0  0  0  0  0
  187.7500  177.6950  141.9260 C   0  0  0  0  0  0  0  0  0  0  0  0
  187.4900  178.5470  139.5890 N   0  0  0  0  0  0  0  0  0  0  0  0
  183.6640  178.4350  142.6130 C   0  0  0  0  0  3  0  0  0  0  0  0
  181.4960  179.2570  141.8510 N   0  0  0  0  0  1  0  0  0  0  0  0
  187.1490  177.3790  143.1570 C   0  0  0  0  0  3  0  0  0  0  0  0
  183.4370  179.3200  140.3720 C   0  0  0  0  0  3  0  0  0  0  0  0
  189.4050  178.1830  135.3520 F   0  0  0  0  0  0  0  0  0  0  0  0
  184.7900  179.0710  140.1320 C   0  0  0  0  0  3  0  0  0  0  0  0
  189.3920  177.8090  136.6540 C   0  0  0  0  0  0  0  0  0  0  0  0
  185.6000  178.5040  141.1300 C   0  0  0  0  0  0  0  0  0  0  0  0
  189.1610  177.4970  141.7750 N   0  0  0  0  0  0  0  0  0  0  0  0
  182.8740  179.0030  141.6100 C   0  0  0  0  0  0  0  0  0  0  0  0
  185.0190  178.1840  142.3800 C   0  0  0  0  0  0  0  0  0  0  0  0
  189.3890  177.0620  139.3630 C   0  0  0  0  0  0  0  0  0  0  0  0
  186.9660  178.2360  140.8900 C   0  0  0  0  0  0  0  0  0  0  0  0
  188.5320  178.4360  137.5540 C   0  0  0  0  0  3  0  0  0  0  0  0
  185.7960  177.6170  143.3830 C   0  0  0  0  0  3  0  0  0  0  0  0
  190.2020  176.7630  137.0880 C   0  0  0  0  0  3  0  0  0  0  0  0
  190.2050  176.4030  138.4340 C   0  0  0  0  0  3  0  0  0  0  0  0
  188.4810  178.0560  138.9020 C   0  0  0  0  0  0  0  0  0  0  0  0
  191.8680  178.3590  144.9480 C   0  0  0  0  0  3  0  0  0  0  0  0
  190.0670  177.7890  142.8640 C   0  0  0  0  0  0  0  0  0  0  0  0
  190.4530  179.1130  143.1360 C   0  0  0  0  0  3  0  0  0  0  0  0
  191.3450  179.3970  144.1740 C   0  0  0  0  0  3  0  0  0  0  0  0
  191.5020  177.0380  144.6840 C   0  0  0  0  0  3  0  0  0  0  0  0
  190.6100  176.7540  143.6460 C   0  0  0  0  0  3  0  0  0  0  0  0
  1 12  1  0  0  0  0
  2  6  1  0  0  0  0
  3 16  1  0  0  0  0
  6 18  2  0  0  0  0
  7 13  1  0  0  0  0
  8 10  1  0  0  0  0
  9  7  2  0  0  0  0
  9 11  1  0  0  0  0
 10 19  1  0  0  0  0
 10 17  2  0  0  0  0
 11 14  2  0  0  0  0
 12  2  1  0  0  0  0
 12 23  1  0  0  0  0
 13  5  1  0  0  0  0
 13  4  2  0  0  0  0
 14  4  1  0  0  0  0
 14 18  1  0  0  0  0
 15  1  2  0  0  0  0
 16 11  1  0  0  0  0
 16  2  2  0  0  0  0
 17 21  1  0  0  0  0
 19 20  2  0  0  0  0
 20 15  1  0  0  0  0
 21 15  1  0  0  0  0
 21  3  2  0  0  0  0
 23 24  2  0  0  0  0
 23 27  1  0  0  0  0
 24 25  1  0  0  0  0
 25 22  2  0  0  0  0
 26 22  1  0  0  0  0
 27 26  2  0  0  0  0
M  END
>  <MODEL>
6

>  <REMARK>
 VINA RESULT:      -8.6      2.698      6.074
  Name = 
  1 active torsions:
  status: ('A' for Active; 'I' for Inactive)
    1  A    between atoms: C_9  and  N_15
                            x       y       z     vdW  Elec       q    Type
                         _______ _______ _______ _____ _____    ______ ____

>  <TORSDO>
F 1

$$$$
=
 OpenBabel10272401113D

 27 31  0  0  0  0  0  0  0  0999 V2000
  184.4390  177.7310  141.1520 C   0  0  0  0  0  3  0  0  0  0  0  0
  186.3370  177.8240  142.7560 C   0  0  0  0  0  0  0  0  0  0  0  0
  184.4670  179.1160  143.8010 N   0  0  0  0  0  0  0  0  0  0  0  0
  188.1280  177.4220  146.5440 C   0  0  0  0  0  3  0  0  0  0  0  0
  188.1530  177.8780  148.9410 N   0  0  0  0  0  1  0  0  0  0  0  0
  187.5290  177.0990  142.9250 C   0  0  0  0  0  3  0  0  0  0  0  0
  186.3490  178.7300  147.5350 C   0  0  0  0  0  3  0  0  0  0  0  0
  179.9820  180.2040  143.1320 F   0  0  0  0  0  0  0  0  0  0  0  0
  185.7430  178.8620  146.2830 C   0  0  0  0  0  3  0  0  0  0  0  0
  181.0890  179.5430  142.7150 C   0  0  0  0  0  0  0  0  0  0  0  0
  186.3230  178.2790  145.1450 C   0  0  0  0  0  0  0  0  0  0  0  0
  185.8150  177.9980  141.4330 N   0  0  0  0  0  0  0  0  0  0  0  0
  187.5390  178.0110  147.6660 C   0  0  0  0  0  0  0  0  0  0  0  0
  187.5280  177.5510  145.2880 C   0  0  0  0  0  0  0  0  0  0  0  0
  183.3950  178.2040  141.8310 C   0  0  0  0  0  0  0  0  0  0  0  0
  185.7080  178.3970  143.8780 C   0  0  0  0  0  0  0  0  0  0  0  0
  182.3030  179.7280  143.3740 C   0  0  0  0  0  3  0  0  0  0  0  0
  188.1190  176.9590  144.1780 C   0  0  0  0  0  3  0  0  0  0  0  0
  181.0060  178.6400  141.6590 C   0  0  0  0  0  3  0  0  0  0  0  0
  182.1540  177.9860  141.2170 C   0  0  0  0  0  3  0  0  0  0  0  0
  183.4590  179.0410  142.9800 C   0  0  0  0  0  0  0  0  0  0  0  0
  188.4360  178.6200  138.1340 C   0  0  0  0  0  3  0  0  0  0  0  0
  186.7030  178.2270  140.3150 C   0  0  0  0  0  0  0  0  0  0  0  0
  186.2170  178.1910  138.9970 C   0  0  0  0  0  3  0  0  0  0  0  0
  187.0770  178.3900  137.9130 C   0  0  0  0  0  3  0  0  0  0  0  0
  188.9370  178.6490  139.4380 C   0  0  0  0  0  3  0  0  0  0  0  0
  188.0770  178.4500  140.5210 C   0  0  0  0  0  3  0  0  0  0  0  0
  1 12  1  0  0  0  0
  1 15  2  0  0  0  0
  2  6  2  0  0  0  0
  2 16  1  0  0  0  0
  3 16  1  0  0  0  0
  4 13  2  0  0  0  0
  6 18  1  0  0  0  0
  7 13  1  0  0  0  0
  9  7  2  0  0  0  0
 10  8  1  0  0  0  0
 10 17  2  0  0  0  0
 11 14  1  0  0  0  0
 11  9  1  0  0  0  0
 12  2  1  0  0  0  0
 13  5  1  0  0  0  0
 14  4  1  0  0  0  0
 15 21  1  0  0  0  0
 16 11  2  0  0  0  0
 18 14  2  0  0  0  0
 19 10  1  0  0  0  0
 20 19  2  0  0  0  0
 20 15  1  0  0  0  0
 21 17  1  0  0  0  0
 21  3  2  0  0  0  0
 22 26  1  0  0  0  0
 23 27  1  0  0  0  0
 23 12  1  0  0  0  0
 24 23  2  0  0  0  0
 25 22  2  0  0  0  0
 25 24  1  0  0  0  0
 26 27  2  0  0  0  0
M  END
>  <MODEL>
7

>  <REMARK>
 VINA RESULT:      -8.4      2.622      5.238
  Name = 
  1 active torsions:
  status: ('A' for Active; 'I' for Inactive)
    1  A    between atoms: C_9  and  N_15
                            x       y       z     vdW  Elec       q    Type
                         _______ _______ _______ _____ _____    ______ ____

>  <TORSDO>
F 1

$$$$
=
 OpenBabel10272401113D

 27 31  0  0  0  0  0  0  0  0999 V2000
  187.1580  177.1530  142.1730 C   0  0  0  0  0  3  0  0  0  0  0  0
  189.4260  176.8440  143.1440 C   0  0  0  0  0  0  0  0  0  0  0  0
  188.1150  178.1570  144.8210 N   0  0  0  0  0  0  0  0  0  0  0  0
  192.1450  175.7620  146.1700 C   0  0  0  0  0  3  0  0  0  0  0  0
  192.9060  175.8840  148.4850 N   0  0  0  0  0  1  0  0  0  0  0  0
  190.5110  175.9920  142.8770 C   0  0  0  0  0  3  0  0  0  0  0  0
  190.9070  177.0890  147.7700 C   0  0  0  0  0  3  0  0  0  0  0  0
  183.8080  179.7530  145.6260 F   0  0  0  0  0  0  0  0  0  0  0  0
  189.9950  177.4470  146.7750 C   0  0  0  0  0  3  0  0  0  0  0  0
  184.6540  179.0510  144.8350 C   0  0  0  0  0  0  0  0  0  0  0  0
  190.1470  176.9710  145.4620 C   0  0  0  0  0  0  0  0  0  0  0  0
  188.5790  177.2450  142.0600 N   0  0  0  0  0  0  0  0  0  0  0  0
  191.9800  176.2480  147.4690 C   0  0  0  0  0  0  0  0  0  0  0  0
  191.2370  176.1170  145.1680 C   0  0  0  0  0  0  0  0  0  0  0  0
  186.4190  177.6280  143.1760 C   0  0  0  0  0  0  0  0  0  0  0  0
  189.2210  177.3180  144.4530 C   0  0  0  0  0  0  0  0  0  0  0  0
  186.0190  179.0270  145.1200 C   0  0  0  0  0  3  0  0  0  0  0  0
  191.4070  175.6270  143.8780 C   0  0  0  0  0  3  0  0  0  0  0  0
  184.1580  178.3120  143.7650 C   0  0  0  0  0  3  0  0  0  0  0  0
  185.0390  177.6160  142.9380 C   0  0  0  0  0  3  0  0  0  0  0  0
  186.9160  178.2910  144.3330 C   0  0  0  0  0  0  0  0  0  0  0  0
  190.1910  178.0690  138.2050 C   0  0  0  0  0  3  0  0  0  0  0  0
  189.1380  177.5370  140.7580 C   0  0  0  0  0  0  0  0  0  0  0  0
  188.4940  178.4340  139.8890 C   0  0  0  0  0  3  0  0  0  0  0  0
  189.0190  178.7020  138.6210 C   0  0  0  0  0  3  0  0  0  0  0  0
  190.8380  177.1670  139.0520 C   0  0  0  0  0  3  0  0  0  0  0  0
  190.3130  176.9000  140.3190 C   0  0  0  0  0  3  0  0  0  0  0  0
  1 15  2  0  0  0  0
  2 16  1  0  0  0  0
  4 13  2  0  0  0  0
  6  2  2  0  0  0  0
  6 18  1  0  0  0  0
  9  7  2  0  0  0  0
 10 17  2  0  0  0  0
 10  8  1  0  0  0  0
 11  9  1  0  0  0  0
 12  1  1  0  0  0  0
 12  2  1  0  0  0  0
 13  7  1  0  0  0  0
 13  5  1  0  0  0  0
 14 11  1  0  0  0  0
 14  4  1  0  0  0  0
 15 21  1  0  0  0  0
 16  3  1  0  0  0  0
 16 11  2  0  0  0  0
 18 14  2  0  0  0  0
 19 10  1  0  0  0  0
 20 15  1  0  0  0  0
 20 19  2  0  0  0  0
 21  3  2  0  0  0  0
 21 17  1  0  0  0  0
 22 25  2  0  0  0  0
 22 26  1  0  0  0  0
 23 12  1  0  0  0  0
 24 23  2  0  0  0  0
 25 24  1  0  0  0  0
 26 27  2  0  0  0  0
 27 23  1  0  0  0  0
M  END
>  <MODEL>
8

>  <REMARK>
 VINA RESULT:      -8.4      2.892      5.754
  Name = 
  1 active torsions:
  status: ('A' for Active; 'I' for Inactive)
    1  A    between atoms: C_9  and  N_15
                            x       y       z     vdW  Elec       q    Type
                         _______ _______ _______ _____ _____    ______ ____

>  <TORSDO>
F 1

$$$$
=
 OpenBabel10272401113D

 27 31  0  0  0  0  0  0  0  0999 V2000
  188.6480  176.6650  143.9900 C   0  0  0  0  0  3  0  0  0  0  0  0
  186.4970  177.6890  144.7030 C   0  0  0  0  0  0  0  0  0  0  0  0
  186.9360  178.5150  142.3830 N   0  0  0  0  0  0  0  0  0  0  0  0
  182.4320  178.6840  144.2480 C   0  0  0  0  0  3  0  0  0  0  0  0
  180.6090  179.6200  142.9240 N   0  0  0  0  0  1  0  0  0  0  0  0
  185.5650  177.4310  145.7230 C   0  0  0  0  0  3  0  0  0  0  0  0
  182.8790  179.5420  142.0300 C   0  0  0  0  0  3  0  0  0  0  0  0
  189.9060  177.9650  138.8290 F   0  0  0  0  0  0  0  0  0  0  0  0
  184.2290  179.2080  142.1680 C   0  0  0  0  0  3  0  0  0  0  0  0
  189.5160  177.6150  140.0780 C   0  0  0  0  0  0  0  0  0  0  0  0
  184.6990  178.6110  143.3500 C   0  0  0  0  0  0  0  0  0  0  0  0
  187.8810  177.4050  144.9420 N   0  0  0  0  0  0  0  0  0  0  0  0
  181.9820  179.2800  143.0680 C   0  0  0  0  0  0  0  0  0  0  0  0
  183.7810  178.3480  144.3940 C   0  0  0  0  0  0  0  0  0  0  0  0
  188.7290  176.9160  142.6840 C   0  0  0  0  0  0  0  0  0  0  0  0
  186.0600  178.2580  143.4910 C   0  0  0  0  0  0  0  0  0  0  0  0
  188.4840  178.3080  140.7090 C   0  0  0  0  0  3  0  0  0  0  0  0
  184.2200  177.7530  145.5710 C   0  0  0  0  0  3  0  0  0  0  0  0
  190.1110  176.5300  140.7160 C   0  0  0  0  0  3  0  0  0  0  0  0
  189.7250  176.1930  142.0130 C   0  0  0  0  0  3  0  0  0  0  0  0
  188.0440  177.9540  141.9920 C   0  0  0  0  0  0  0  0  0  0  0  0
  189.6130  178.1080  148.7680 C   0  0  0  0  0  3  0  0  0  0  0  0
  188.4720  177.6610  146.2360 C   0  0  0  0  0  0  0  0  0  0  0  0
  189.8210  177.3540  146.4790 C   0  0  0  0  0  3  0  0  0  0  0  0
  190.3900  177.5790  147.7360 C   0  0  0  0  0  3  0  0  0  0  0  0
  188.2680  178.4100  148.5460 C   0  0  0  0  0  3  0  0  0  0  0  0
  187.7000  178.1850  147.2900 C   0  0  0  0  0  3  0  0  0  0  0  0
  1 12  1  0  0  0  0
  2 12  1  0  0  0  0
  2  6  1  0  0  0  0
  3 16  1  0  0  0  0
  4 14  1  0  0  0  0
  5 13  1  0  0  0  0
  7  9  2  0  0  0  0
  7 13  1  0  0  0  0
  8 10  1  0  0  0  0
  9 11  1  0  0  0  0
 10 17  2  0  0  0  0
 10 19  1  0  0  0  0
 11 16  1  0  0  0  0
 11 14  2  0  0  0  0
 12 23  1  0  0  0  0
 13  4  2  0  0  0  0
 14 18  1  0  0  0  0
 15  1  2  0  0  0  0
 16  2  2  0  0  0  0
 17 21  1  0  0  0  0
 18  6  2  0  0  0  0
 19 20  2  0  0  0  0
 20 15  1  0  0  0  0
 21  3  2  0  0  0  0
 21 15  1  0  0  0  0
 23 24  2  0  0  0  0
 23 27  1  0  0  0  0
 24 25  1  0  0  0  0
 25 22  2  0  0  0  0
 26 22  1  0  0  0  0
 27 26  2  0  0  0  0
M  END
>  <MODEL>
9

>  <REMARK>
 VINA RESULT:      -8.3      1.703      5.781
  Name = 
  1 active torsions:
  status: ('A' for Active; 'I' for Inactive)
    1  A    between atoms: C_9  and  N_15
                            x       y       z     vdW  Elec       q    Type
                         _______ _______ _______ _____ _____    ______ ____

>  <TORSDO>
F 1

$$$$
