=
 OpenBabel10272414553D

 37 43  0  0  1  0  0  0  0  0999 V2000
  188.1050  177.5980  136.3400 C   0  0  0  0  0  0  0  0  0  0  0  0
  192.4850  176.7950  138.4910 C   0  0  0  0  0  2  0  0  0  0  0  0
  190.2370  177.5500  139.4820 C   0  0  1  0  0  3  0  0  0  0  0  0
  189.2070  174.0130  135.9300 C   0  0  0  0  0  1  0  0  0  0  0  0
  191.7010  177.1540  139.7450 C   0  0  0  0  0  2  0  0  0  0  0  0
  188.2600  176.3040  135.8460 C   0  0  0  0  0  3  0  0  0  0  0  0
  189.1030  175.3940  136.4860 C   0  0  0  0  0  0  0  0  0  0  0  0
  192.2640  175.3270  138.1080 C   0  0  1  0  0  3  0  0  0  0  0  0
  189.6340  177.0830  138.1650 C   0  0  0  0  0  0  0  0  0  0  0  0
  190.8130  174.8390  138.2550 C   0  0  0  0  0  2  0  0  0  0  0  0
  189.8210  175.7840  137.6340 C   0  0  0  0  0  0  0  0  0  0  0  0
  188.7850  177.9760  137.5030 C   0  0  0  0  0  3  0  0  0  0  0  0
  190.5640  178.4630  144.9510 C   0  0  1  0  0  3  0  0  0  0  0  0
  189.3850  177.2030  140.7220 C   0  0  1  0  0  0  0  0  0  0  0  0
  189.6330  176.7060  143.3270 C   0  0  1  0  0  3  0  0  0  0  0  0
  190.0720  177.4890  142.0630 C   0  0  1  0  0  0  0  0  0  0  0  0
  191.4250  177.8860  141.9920 O   0  0  0  0  0  0  0  0  0  0  0  0
  191.7420  178.1420  144.2540 O   0  0  0  0  0  0  0  0  0  0  0  0
  189.0970  178.4980  141.4780 C   0  0  2  0  0  3  0  0  0  0  0  0
  191.6570  178.8120  143.0250 C   0  0  0  0  0  2  0  0  0  0  0  0
  187.9830  177.7980  140.7330 C   0  0  0  0  0  2  0  0  0  0  0  0
  189.3350  177.6600  144.4860 C   0  0  1  0  0  3  0  0  0  0  0  0
  190.1000  177.2430  145.7270 C   0  0  0  0  0  2  0  0  0  0  0  0
  188.4720  175.7390  143.1250 C   0  0  0  0  0  2  0  0  0  0  0  0
  187.3230  176.2490  143.7260 O   0  0  0  0  0  1  0  0  0  0  0  0
  194.1530  175.7800  136.4130 C   0  0  2  0  0  3  0  0  0  0  0  0
  193.0530  173.4590  136.6480 C   0  0  0  0  0  3  0  0  0  0  0  0
  194.1840  172.8600  136.2570 C   0  0  0  0  0  3  0  0  0  0  0  0
  195.4320  173.7780  134.4620 O   0  0  0  0  0  1  0  0  0  0  0  0
  195.4720  175.0020  136.5260 C   0  0  2  0  0  3  0  0  0  0  0  0
  195.4060  173.6310  135.8490 C   0  0  1  0  0  3  0  0  0  0  0  0
  192.8930  174.9570  136.7580 C   0  0  1  0  0  3  0  0  0  0  0  0
  195.8410  174.8600  137.8640 O   0  0  0  0  0  1  0  0  0  0  0  0
  194.0180  176.3800  135.0250 C   0  0  0  0  0  1  0  0  0  0  0  0
  187.2590  178.4820  135.6650 O   0  0  0  0  0  0  0  0  0  0  0  0
  185.4250  177.5790  134.4150 C   0  0  0  0  0  1  0  0  0  0  0  0
  186.7860  178.2370  134.3470 C   0  0  0  0  0  2  0  0  0  0  0  0
  1 12  1  0  0  0  0
  2  5  1  0  0  0  0
  3  5  1  1  0  0  0
  3 14  1  0  0  0  0
  4  7  1  0  0  0  0
  6  1  2  0  0  0  0
  6  7  1  0  0  0  0
  7 11  2  0  0  0  0
  8 10  1  6  0  0  0
  8  2  1  0  0  0  0
  9  3  1  0  0  0  0
 11  9  1  0  0  0  0
 11 10  1  0  0  0  0
 12  9  2  0  0  0  0
 13 23  1  1  0  0  0
 14 21  1  6  0  0  0
 14 19  1  0  0  0  0
 14 16  1  0  0  0  0
 15 24  1  6  0  0  0
 15 22  1  0  0  0  0
 16 17  1  6  0  0  0
 16 15  1  0  0  0  0
 17 20  1  0  0  0  0
 18 13  1  0  0  0  0
 19 21  1  1  0  0  0
 19 16  1  0  0  0  0
 20 18  1  0  0  0  0
 22 13  1  0  0  0  0
 22 23  1  1  0  0  0
 24 25  1  0  0  0  0
 26 34  1  6  0  0  0
 26 30  1  0  0  0  0
 26 32  1  0  0  0  0
 28 27  2  0  0  0  0
 30 33  1  1  0  0  0
 31 29  1  6  0  0  0
 31 28  1  0  0  0  0
 31 30  1  0  0  0  0
 32 27  1  1  0  0  0
 32  8  1  0  0  0  0
 35  1  1  0  0  0  0
 37 36  1  0  0  0  0
 37 35  1  0  0  0  0
M  END
>  <MODEL>
1

>  <REMARK>
 VINA RESULT:      -6.8      0.000      0.000
  Name = 
  5 active torsions:
  status: ('A' for Active; 'I' for Inactive)
    1  A    between atoms: C_1  and  O_5
    2  A    between atoms: C_4  and  C_10
    3  A    between atoms: O_5  and  C_23
    4  A    between atoms: C_9  and  C_16
    5  A    between atoms: C_27  and  C_31
                            x       y       z     vdW  Elec       q    Type
                         _______ _______ _______ _____ _____    ______ ____

>  <TORSDO>
F 5

$$$$
=
 OpenBabel10272414553D

 37 43  0  0  1  0  0  0  0  0999 V2000
  189.5100  173.5620  136.5590 C   0  0  0  0  0  0  0  0  0  0  0  0
  191.8470  176.2020  140.0270 C   0  0  0  0  0  2  0  0  0  0  0  0
  192.6060  175.4490  137.6900 C   0  0  1  0  0  3  0  0  0  0  0  0
  187.6760  176.7700  137.3210 C   0  0  0  0  0  1  0  0  0  0  0  0
  192.9360  176.2460  138.9650 C   0  0  0  0  0  2  0  0  0  0  0  0
  188.5030  174.5160  136.7020 C   0  0  0  0  0  3  0  0  0  0  0  0
  188.7880  175.7800  137.2200 C   0  0  0  0  0  0  0  0  0  0  0  0
  190.7770  177.2680  139.7600 C   0  0  1  0  0  3  0  0  0  0  0  0
  191.1350  175.1500  137.4380 C   0  0  0  0  0  0  0  0  0  0  0  0
  190.3810  177.4210  138.2820 C   0  0  0  0  0  2  0  0  0  0  0  0
  190.1000  176.0990  137.6210 C   0  0  0  0  0  0  0  0  0  0  0  0
  190.8220  173.8900  136.9190 C   0  0  0  0  0  3  0  0  0  0  0  0
  197.2460  174.4270  134.8120 C   0  0  1  0  0  3  0  0  0  0  0  0
  193.3340  176.0880  136.4870 C   0  0  1  0  0  0  0  0  0  0  0  0
  195.7820  176.4240  135.4940 C   0  0  1  0  0  3  0  0  0  0  0  0
  194.7460  175.5440  136.2410 C   0  0  1  0  0  0  0  0  0  0  0  0
  195.2460  174.6550  137.2170 O   0  0  0  0  0  0  0  0  0  0  0  0
  197.2760  174.2740  136.2090 O   0  0  0  0  0  0  0  0  0  0  0  0
  193.5720  174.9980  135.4440 C   0  0  2  0  0  3  0  0  0  0  0  0
  196.0450  173.7010  136.5600 C   0  0  0  0  0  2  0  0  0  0  0  0
  192.5530  176.0830  135.1800 C   0  0  0  0  0  2  0  0  0  0  0  0
  196.4320  175.6500  134.3460 C   0  0  1  0  0  3  0  0  0  0  0  0
  197.9440  175.7250  134.4430 C   0  0  0  0  0  2  0  0  0  0  0  0
  195.2600  177.7680  134.9980 C   0  0  0  0  0  2  0  0  0  0  0  0
  196.1690  178.7750  135.3200 O   0  0  0  0  0  1  0  0  0  0  0  0
  189.9510  176.8580  142.1690 C   0  0  2  0  0  3  0  0  0  0  0  0
  188.6430  178.3310  140.5040 C   0  0  0  0  0  3  0  0  0  0  0  0
  188.1470  179.0630  141.5090 C   0  0  0  0  0  3  0  0  0  0  0  0
  187.4150  177.9850  143.4910 O   0  0  0  0  0  1  0  0  0  0  0  0
  189.7860  178.0480  143.1230 C   0  0  2  0  0  3  0  0  0  0  0  0
  188.4420  178.7600  142.9500 C   0  0  1  0  0  3  0  0  0  0  0  0
  189.5700  177.1560  140.7020 C   0  0  1  0  0  3  0  0  0  0  0  0
  190.8340  178.9550  142.9580 O   0  0  0  0  0  1  0  0  0  0  0  0
  189.1620  175.6650  142.6780 C   0  0  0  0  0  1  0  0  0  0  0  0
  189.1830  172.3060  136.0450 O   0  0  0  0  0  0  0  0  0  0  0  0
  187.8180  170.4180  135.4830 C   0  0  0  0  0  1  0  0  0  0  0  0
  187.8410  171.8920  135.8230 C   0  0  0  0  0  2  0  0  0  0  0  0
  1  6  2  0  0  0  0
  1 12  1  0  0  0  0
  3  5  1  1  0  0  0
  5  2  1  0  0  0  0
  6  7  1  0  0  0  0
  7  4  1  0  0  0  0
  7 11  2  0  0  0  0
  8 10  1  6  0  0  0
  8  2  1  0  0  0  0
  8 32  1  0  0  0  0
  9 11  1  0  0  0  0
  9  3  1  0  0  0  0
 11 10  1  0  0  0  0
 12  9  2  0  0  0  0
 13 23  1  1  0  0  0
 13 18  1  0  0  0  0
 14 21  1  6  0  0  0
 14  3  1  0  0  0  0
 15 24  1  6  0  0  0
 15 16  1  0  0  0  0
 16 14  1  0  0  0  0
 16 17  1  1  0  0  0
 18 20  1  0  0  0  0
 19 21  1  6  0  0  0
 19 16  1  0  0  0  0
 19 14  1  0  0  0  0
 20 17  1  0  0  0  0
 22 23  1  1  0  0  0
 22 13  1  0  0  0  0
 22 15  1  0  0  0  0
 24 25  1  0  0  0  0
 26 34  1  1  0  0  0
 26 30  1  0  0  0  0
 27 28  2  0  0  0  0
 28 31  1  0  0  0  0
 30 33  1  6  0  0  0
 31 30  1  0  0  0  0
 31 29  1  6  0  0  0
 32 27  1  1  0  0  0
 32 26  1  0  0  0  0
 35  1  1  0  0  0  0
 36 37  1  0  0  0  0
 37 35  1  0  0  0  0
M  END
>  <MODEL>
2

>  <REMARK>
 VINA RESULT:      -6.0      2.017      7.979
  Name = 
  5 active torsions:
  status: ('A' for Active; 'I' for Inactive)
    1  A    between atoms: C_1  and  O_5
    2  A    between atoms: C_4  and  C_10
    3  A    between atoms: O_5  and  C_23
    4  A    between atoms: C_9  and  C_16
    5  A    between atoms: C_27  and  C_31
                            x       y       z     vdW  Elec       q    Type
                         _______ _______ _______ _____ _____    ______ ____

>  <TORSDO>
F 5

$$$$
=
 OpenBabel10272414553D

 37 43  0  0  1  0  0  0  0  0999 V2000
  186.9030  177.8280  137.1290 C   0  0  0  0  0  0  0  0  0  0  0  0
  189.6590  173.7220  137.0250 C   0  0  0  0  0  2  0  0  0  0  0  0
  187.1270  174.0570  136.7320 C   0  0  1  0  0  3  0  0  0  0  0  0
  189.4490  177.9450  134.3460 C   0  0  0  0  0  1  0  0  0  0  0  0
  188.3130  173.0760  136.7250 C   0  0  0  0  0  2  0  0  0  0  0  0
  187.7930  178.2910  136.1610 C   0  0  0  0  0  3  0  0  0  0  0  0
  188.5340  177.3930  135.3880 C   0  0  0  0  0  0  0  0  0  0  0  0
  190.2760  174.3180  135.7540 C   0  0  1  0  0  3  0  0  0  0  0  0
  187.4630  175.5310  136.5450 C   0  0  0  0  0  0  0  0  0  0  0  0
  189.2780  175.0480  134.8390 C   0  0  0  0  0  2  0  0  0  0  0  0
  188.3980  176.0060  135.5930 C   0  0  0  0  0  0  0  0  0  0  0  0
  186.7360  176.4500  137.3070 C   0  0  0  0  0  3  0  0  0  0  0  0
  181.5770  174.1760  136.5710 C   0  0  1  0  0  3  0  0  0  0  0  0
  186.0300  173.5370  135.7790 C   0  0  1  0  0  0  0  0  0  0  0  0
  183.5110  172.6700  135.8060 C   0  0  1  0  0  3  0  0  0  0  0  0
  184.6070  173.6270  136.3440 C   0  0  1  0  0  0  0  0  0  0  0  0
  184.5010  174.0290  137.6930 O   0  0  0  0  0  0  0  0  0  0  0  0
  182.2070  173.9570  137.8080 O   0  0  0  0  0  0  0  0  0  0  0  0
  185.1240  174.7100  135.4110 C   0  0  2  0  0  3  0  0  0  0  0  0
  183.3300  174.7970  137.8220 C   0  0  0  0  0  2  0  0  0  0  0  0
  186.0570  174.1240  134.3750 C   0  0  0  0  0  2  0  0  0  0  0  0
  182.2580  173.4480  135.3970 C   0  0  1  0  0  3  0  0  0  0  0  0
  181.0270  172.8570  136.0560 C   0  0  0  0  0  2  0  0  0  0  0  0
  183.9510  171.7430  134.6780 C   0  0  0  0  0  2  0  0  0  0  0  0
  184.2850  170.4940  135.1990 O   0  0  0  0  0  1  0  0  0  0  0  0
  192.2790  174.7220  137.3270 C   0  0  2  0  0  3  0  0  0  0  0  0
  192.4150  175.1790  134.7920 C   0  0  0  0  0  3  0  0  0  0  0  0
  193.7280  174.9190  134.7950 C   0  0  0  0  0  3  0  0  0  0  0  0
  195.0780  175.7380  136.5640 O   0  0  0  0  0  1  0  0  0  0  0  0
  193.5820  173.9410  137.1060 C   0  0  2  0  0  3  0  0  0  0  0  0
  194.4820  174.5850  136.0500 C   0  0  1  0  0  3  0  0  0  0  0  0
  191.5490  175.1300  136.0290 C   0  0  1  0  0  3  0  0  0  0  0  0
  193.3050  172.6190  136.7590 O   0  0  0  0  0  1  0  0  0  0  0  0
  192.5430  175.9480  138.1820 C   0  0  0  0  0  1  0  0  0  0  0  0
  186.1880  178.7570  137.8870 O   0  0  0  0  0  0  0  0  0  0  0  0
  185.0230  178.8170  139.9810 C   0  0  0  0  0  1  0  0  0  0  0  0
  184.9510  178.4460  138.5150 C   0  0  0  0  0  2  0  0  0  0  0  0
  1 12  1  0  0  0  0
  1 35  1  0  0  0  0
  3  5  1  6  0  0  0
  4  7  1  0  0  0  0
  5  2  1  0  0  0  0
  6  1  2  0  0  0  0
  7 11  2  0  0  0  0
  7  6  1  0  0  0  0
  8 10  1  1  0  0  0
  8 32  1  0  0  0  0
  8  2  1  0  0  0  0
  9  3  1  0  0  0  0
  9 12  2  0  0  0  0
 10 11  1  0  0  0  0
 11  9  1  0  0  0  0
 13 23  1  1  0  0  0
 13 18  1  0  0  0  0
 14 21  1  6  0  0  0
 14 16  1  0  0  0  0
 14  3  1  0  0  0  0
 15 24  1  6  0  0  0
 15 16  1  0  0  0  0
 16 17  1  1  0  0  0
 17 20  1  0  0  0  0
 18 20  1  0  0  0  0
 19 21  1  6  0  0  0
 19 14  1  0  0  0  0
 19 16  1  0  0  0  0
 22 15  1  0  0  0  0
 22 23  1  1  0  0  0
 22 13  1  0  0  0  0
 24 25  1  0  0  0  0
 26 34  1  6  0  0  0
 27 28  2  0  0  0  0
 28 31  1  0  0  0  0
 30 33  1  6  0  0  0
 30 26  1  0  0  0  0
 31 29  1  1  0  0  0
 31 30  1  0  0  0  0
 32 27  1  6  0  0  0
 32 26  1  0  0  0  0
 35 37  1  0  0  0  0
 37 36  1  0  0  0  0
M  END
>  <MODEL>
3

>  <REMARK>
 VINA RESULT:      -5.9      3.912      6.833
  Name = 
  5 active torsions:
  status: ('A' for Active; 'I' for Inactive)
    1  A    between atoms: C_1  and  O_5
    2  A    between atoms: C_4  and  C_10
    3  A    between atoms: O_5  and  C_23
    4  A    between atoms: C_9  and  C_16
    5  A    between atoms: C_27  and  C_31
                            x       y       z     vdW  Elec       q    Type
                         _______ _______ _______ _____ _____    ______ ____

>  <TORSDO>
F 5

$$$$
=
 OpenBabel10272414553D

 37 43  0  0  1  0  0  0  0  0999 V2000
  196.1210  174.9400  138.7830 C   0  0  0  0  0  0  0  0  0  0  0  0
  193.5190  171.6450  136.1700 C   0  0  0  0  0  2  0  0  0  0  0  0
  192.9060  174.0010  136.9920 C   0  0  1  0  0  3  0  0  0  0  0  0
  197.7980  174.1520  135.4960 C   0  0  0  0  0  1  0  0  0  0  0  0
  192.4830  172.7600  136.1850 C   0  0  0  0  0  2  0  0  0  0  0  0
  197.0850  174.7670  137.7910 C   0  0  0  0  0  3  0  0  0  0  0  0
  196.7290  174.2880  136.5290 C   0  0  0  0  0  0  0  0  0  0  0  0
  194.5620  171.8790  135.0710 C   0  0  1  0  0  3  0  0  0  0  0  0
  194.3980  174.1750  137.2410 C   0  0  0  0  0  0  0  0  0  0  0  0
  195.0260  173.3390  134.9300 C   0  0  0  0  0  2  0  0  0  0  0  0
  195.3870  173.9590  136.2510 C   0  0  0  0  0  0  0  0  0  0  0  0
  194.7810  174.6530  138.4990 C   0  0  0  0  0  3  0  0  0  0  0  0
  189.4910  177.9550  138.8770 C   0  0  1  0  0  3  0  0  0  0  0  0
  192.2170  175.2510  136.4030 C   0  0  1  0  0  0  0  0  0  0  0  0
  190.0160  176.7230  136.6860 C   0  0  1  0  0  3  0  0  0  0  0  0
  191.1520  175.8740  137.3130 C   0  0  1  0  0  0  0  0  0  0  0  0
  190.8390  175.1520  138.4850 O   0  0  0  0  0  0  0  0  0  0  0  0
  189.2780  176.6310  139.2960 O   0  0  0  0  0  0  0  0  0  0  0  0
  192.5600  176.4460  137.2910 C   0  0  2  0  0  3  0  0  0  0  0  0
  190.5530  176.0820  139.5010 C   0  0  0  0  0  2  0  0  0  0  0  0
  193.1610  176.3380  135.9070 C   0  0  0  0  0  2  0  0  0  0  0  0
  189.8870  178.0740  137.3930 C   0  0  1  0  0  3  0  0  0  0  0  0
  188.4540  178.3130  137.8260 C   0  0  0  0  0  2  0  0  0  0  0  0
  190.1070  176.9220  135.1760 C   0  0  0  0  0  2  0  0  0  0  0  0
  188.8530  177.2610  134.6700 O   0  0  0  0  0  1  0  0  0  0  0  0
  196.3510  170.7240  136.5240 C   0  0  2  0  0  3  0  0  0  0  0  0
  195.3290  169.5850  134.4480 C   0  0  0  0  0  3  0  0  0  0  0  0
  195.5210  168.3770  134.9900 C   0  0  0  0  0  3  0  0  0  0  0  0
  197.5470  167.9180  136.1350 O   0  0  0  0  0  1  0  0  0  0  0  0
  196.0130  169.4040  137.2310 C   0  0  2  0  0  3  0  0  0  0  0  0
  196.1900  168.1860  136.3210 C   0  0  1  0  0  3  0  0  0  0  0  0
  195.7230  170.8770  135.1210 C   0  0  1  0  0  3  0  0  0  0  0  0
  194.7130  169.4410  137.7360 O   0  0  0  0  0  1  0  0  0  0  0  0
  197.8560  170.9020  136.4410 C   0  0  0  0  0  1  0  0  0  0  0  0
  196.5180  175.4130  140.0360 O   0  0  0  0  0  0  0  0  0  0  0  0
  197.9310  175.4400  141.9720 C   0  0  0  0  0  1  0  0  0  0  0  0
  197.8760  175.4180  140.4590 C   0  0  0  0  0  2  0  0  0  0  0  0
  1 35  1  0  0  0  0
  2  5  1  0  0  0  0
  3  5  1  6  0  0  0
  3  9  1  0  0  0  0
  4  7  1  0  0  0  0
  6  1  2  0  0  0  0
  7  6  1  0  0  0  0
  8 10  1  1  0  0  0
  8 32  1  0  0  0  0
  8  2  1  0  0  0  0
  9 12  2  0  0  0  0
 10 11  1  0  0  0  0
 11  7  2  0  0  0  0
 11  9  1  0  0  0  0
 12  1  1  0  0  0  0
 13 23  1  6  0  0  0
 13 18  1  0  0  0  0
 14 21  1  6  0  0  0
 14  3  1  0  0  0  0
 14 19  1  0  0  0  0
 14 16  1  0  0  0  0
 15 24  1  6  0  0  0
 15 16  1  0  0  0  0
 15 22  1  0  0  0  0
 16 17  1  1  0  0  0
 17 20  1  0  0  0  0
 18 20  1  0  0  0  0
 19 21  1  6  0  0  0
 19 16  1  0  0  0  0
 22 23  1  6  0  0  0
 22 13  1  0  0  0  0
 25 24  1  0  0  0  0
 26 34  1  6  0  0  0
 26 30  1  0  0  0  0
 27 28  2  0  0  0  0
 28 31  1  0  0  0  0
 30 33  1  6  0  0  0
 31 29  1  6  0  0  0
 31 30  1  0  0  0  0
 32 27  1  1  0  0  0
 32 26  1  0  0  0  0
 35 37  1  0  0  0  0
 37 36  1  0  0  0  0
M  END
>  <MODEL>
4

>  <REMARK>
 VINA RESULT:      -5.7      3.155      7.199
  Name = 
  5 active torsions:
  status: ('A' for Active; 'I' for Inactive)
    1  A    between atoms: C_1  and  O_5
    2  A    between atoms: C_4  and  C_10
    3  A    between atoms: O_5  and  C_23
    4  A    between atoms: C_9  and  C_16
    5  A    between atoms: C_27  and  C_31
                            x       y       z     vdW  Elec       q    Type
                         _______ _______ _______ _____ _____    ______ ____

>  <TORSDO>
F 5

$$$$
=
 OpenBabel10272414553D

 37 43  0  0  1  0  0  0  0  0999 V2000
  190.8270  176.8260  140.8350 C   0  0  0  0  0  0  0  0  0  0  0  0
  191.7580  173.8170  137.0210 C   0  0  0  0  0  2  0  0  0  0  0  0
  189.7500  175.3450  137.5070 C   0  0  1  0  0  3  0  0  0  0  0  0
  193.9510  177.8620  138.9920 C   0  0  0  0  0  1  0  0  0  0  0  0
  190.4300  174.3720  136.5280 C   0  0  0  0  0  2  0  0  0  0  0  0
  192.0740  177.3720  140.5370 C   0  0  0  0  0  3  0  0  0  0  0  0
  192.6270  177.2290  139.2630 C   0  0  0  0  0  0  0  0  0  0  0  0
  192.9070  174.7810  136.7030 C   0  0  1  0  0  3  0  0  0  0  0  0
  190.6460  175.9940  138.5520 C   0  0  0  0  0  0  0  0  0  0  0  0
  192.5800  176.2660  136.9330 C   0  0  0  0  0  2  0  0  0  0  0  0
  191.9330  176.5140  138.2680 C   0  0  0  0  0  0  0  0  0  0  0  0
  190.1160  176.1490  139.8380 C   0  0  0  0  0  3  0  0  0  0  0  0
  184.3570  175.8970  136.2970 C   0  0  1  0  0  3  0  0  0  0  0  0
  188.8830  176.3470  136.7120 C   0  0  1  0  0  0  0  0  0  0  0  0
  186.6450  176.4540  135.2730 C   0  0  1  0  0  3  0  0  0  0  0  0
  187.4400  175.8870  136.4780 C   0  0  1  0  0  0  0  0  0  0  0  0
  187.1360  174.5690  136.8820 O   0  0  0  0  0  0  0  0  0  0  0  0
  184.9210  174.6100  136.2710 O   0  0  0  0  0  0  0  0  0  0  0  0
  187.7600  176.8320  137.6260 C   0  0  2  0  0  3  0  0  0  0  0  0
  185.8110  174.5570  137.3540 C   0  0  0  0  0  2  0  0  0  0  0  0
  188.8830  177.7710  137.2490 C   0  0  0  0  0  2  0  0  0  0  0  0
  185.2810  176.9850  135.7180 C   0  0  1  0  0  3  0  0  0  0  0  0
  184.1750  176.3860  134.8700 C   0  0  0  0  0  2  0  0  0  0  0  0
  187.3780  177.5040  134.4440 C   0  0  0  0  0  2  0  0  0  0  0  0
  186.6010  178.6570  134.3500 O   0  0  0  0  0  1  0  0  0  0  0  0
  194.5690  172.8560  137.1300 C   0  0  2  0  0  3  0  0  0  0  0  0
  195.3380  175.3100  136.9270 C   0  0  0  0  0  3  0  0  0  0  0  0
  196.5290  174.9190  136.4570 C   0  0  0  0  0  3  0  0  0  0  0  0
  197.6210  173.0570  137.4390 O   0  0  0  0  0  1  0  0  0  0  0  0
  195.6810  172.5780  136.1090 C   0  0  2  0  0  3  0  0  0  0  0  0
  196.9060  173.4730  136.3150 C   0  0  1  0  0  3  0  0  0  0  0  0
  194.2420  174.3530  137.3290 C   0  0  1  0  0  3  0  0  0  0  0  0
  195.1960  172.7200  134.8090 O   0  0  0  0  0  1  0  0  0  0  0  0
  194.9130  172.2180  138.4640 C   0  0  0  0  0  1  0  0  0  0  0  0
  190.3110  176.9820  142.1240 O   0  0  0  0  0  0  0  0  0  0  0  0
  188.4260  176.1570  143.3520 C   0  0  0  0  0  1  0  0  0  0  0  0
  189.8450  175.8870  142.9020 C   0  0  0  0  0  2  0  0  0  0  0  0
  1 35  1  0  0  0  0
  3  5  1  6  0  0  0
  3  9  1  0  0  0  0
  4  7  1  0  0  0  0
  5  2  1  0  0  0  0
  6  1  1  0  0  0  0
  7  6  2  0  0  0  0
  8 10  1  1  0  0  0
  8  2  1  0  0  0  0
  8 32  1  0  0  0  0
  9 12  1  0  0  0  0
 10 11  1  0  0  0  0
 11  9  2  0  0  0  0
 11  7  1  0  0  0  0
 12  1  2  0  0  0  0
 13 23  1  6  0  0  0
 14 21  1  6  0  0  0
 14  3  1  0  0  0  0
 14 19  1  0  0  0  0
 15 24  1  1  0  0  0
 15 22  1  0  0  0  0
 15 16  1  0  0  0  0
 16 14  1  0  0  0  0
 16 17  1  1  0  0  0
 16 19  1  0  0  0  0
 17 20  1  0  0  0  0
 18 13  1  0  0  0  0
 18 20  1  0  0  0  0
 19 21  1  6  0  0  0
 22 23  1  6  0  0  0
 22 13  1  0  0  0  0
 25 24  1  0  0  0  0
 26 32  1  0  0  0  0
 26 34  1  1  0  0  0
 28 27  2  0  0  0  0
 30 33  1  6  0  0  0
 30 31  1  0  0  0  0
 30 26  1  0  0  0  0
 31 28  1  0  0  0  0
 31 29  1  1  0  0  0
 32 27  1  6  0  0  0
 35 37  1  0  0  0  0
 37 36  1  0  0  0  0
M  END
>  <MODEL>
5

>  <REMARK>
 VINA RESULT:      -5.5      1.764      6.371
  Name = 
  5 active torsions:
  status: ('A' for Active; 'I' for Inactive)
    1  A    between atoms: C_1  and  O_5
    2  A    between atoms: C_4  and  C_10
    3  A    between atoms: O_5  and  C_23
    4  A    between atoms: C_9  and  C_16
    5  A    between atoms: C_27  and  C_31
                            x       y       z     vdW  Elec       q    Type
                         _______ _______ _______ _____ _____    ______ ____

>  <TORSDO>
F 5

$$$$
=
 OpenBabel10272414553D

 37 43  0  0  1  0  0  0  0  0999 V2000
  184.2050  173.0110  136.8040 C   0  0  0  0  0  0  0  0  0  0  0  0
  185.0420  177.5880  138.4810 C   0  0  0  0  0  2  0  0  0  0  0  0
  186.5490  175.9790  137.1610 C   0  0  1  0  0  3  0  0  0  0  0  0
  181.8150  175.5000  135.2760 C   0  0  0  0  0  1  0  0  0  0  0  0
  186.3800  177.3740  137.7870 C   0  0  0  0  0  2  0  0  0  0  0  0
  183.0820  173.5800  136.2040 C   0  0  0  0  0  3  0  0  0  0  0  0
  183.0300  174.9520  135.9480 C   0  0  0  0  0  0  0  0  0  0  0  0
  183.9660  178.0190  137.4780 C   0  0  1  0  0  3  0  0  0  0  0  0
  185.2710  175.2000  136.8800 C   0  0  0  0  0  0  0  0  0  0  0  0
  184.0050  177.2690  136.1360 C   0  0  0  0  0  2  0  0  0  0  0  0
  184.1100  175.7790  136.3100 C   0  0  0  0  0  0  0  0  0  0  0  0
  185.2970  173.8240  137.1290 C   0  0  0  0  0  3  0  0  0  0  0  0
  191.2170  173.4420  135.5390 C   0  0  1  0  0  3  0  0  0  0  0  0
  187.5060  176.0740  135.9530 C   0  0  1  0  0  0  0  0  0  0  0  0
  190.0690  175.7280  135.3150 C   0  0  1  0  0  3  0  0  0  0  0  0
  188.8170  175.2960  136.1210 C   0  0  1  0  0  0  0  0  0  0  0  0
  189.0390  174.7260  137.3940 O   0  0  0  0  0  0  0  0  0  0  0  0
  191.0660  173.7630  136.8990 O   0  0  0  0  0  0  0  0  0  0  0  0
  187.6580  174.6760  135.3560 C   0  0  2  0  0  3  0  0  0  0  0  0
  189.7210  173.5100  137.2070 C   0  0  0  0  0  2  0  0  0  0  0  0
  186.8840  175.7360  134.6050 C   0  0  0  0  0  2  0  0  0  0  0  0
  190.6910  174.5350  134.5880 C   0  0  1  0  0  3  0  0  0  0  0  0
  192.1720  174.4360  134.9000 C   0  0  0  0  0  2  0  0  0  0  0  0
  189.8530  176.8860  134.3460 C   0  0  0  0  0  2  0  0  0  0  0  0
  189.6430  178.0650  135.0590 O   0  0  0  0  0  1  0  0  0  0  0  0
  182.4390  177.3360  139.4410 C   0  0  2  0  0  3  0  0  0  0  0  0
  182.0570  179.5050  138.0990 C   0  0  0  0  0  3  0  0  0  0  0  0
  181.5120  180.0960  139.1700 C   0  0  0  0  0  3  0  0  0  0  0  0
  180.0170  178.8730  140.5450 O   0  0  0  0  0  1  0  0  0  0  0  0
  182.3320  178.2510  140.6680 C   0  0  2  0  0  3  0  0  0  0  0  0
  181.3150  179.3790  140.4740 C   0  0  1  0  0  3  0  0  0  0  0  0
  182.5610  178.0820  138.0940 C   0  0  1  0  0  3  0  0  0  0  0  0
  183.5810  178.7810  140.9910 O   0  0  0  0  0  1  0  0  0  0  0  0
  181.2620  176.3780  139.3980 C   0  0  0  0  0  1  0  0  0  0  0  0
  184.2150  171.6370  137.0520 O   0  0  0  0  0  0  0  0  0  0  0  0
  185.0970  170.2830  135.2830 C   0  0  0  0  0  1  0  0  0  0  0  0
  183.8630  170.6760  136.0660 C   0  0  0  0  0  2  0  0  0  0  0  0
  1 35  1  0  0  0  0
  1 12  1  0  0  0  0
  3  5  1  6  0  0  0
  4  7  1  0  0  0  0
  5  2  1  0  0  0  0
  6  1  2  0  0  0  0
  7  6  1  0  0  0  0
  7 11  2  0  0  0  0
  8 10  1  6  0  0  0
  8 32  1  0  0  0  0
  8  2  1  0  0  0  0
  9 12  2  0  0  0  0
  9  3  1  0  0  0  0
 10 11  1  0  0  0  0
 11  9  1  0  0  0  0
 13 23  1  6  0  0  0
 13 18  1  0  0  0  0
 14 21  1  6  0  0  0
 14 16  1  0  0  0  0
 14  3  1  0  0  0  0
 15 24  1  6  0  0  0
 15 16  1  0  0  0  0
 16 17  1  1  0  0  0
 18 20  1  0  0  0  0
 19 21  1  6  0  0  0
 19 14  1  0  0  0  0
 19 16  1  0  0  0  0
 20 17  1  0  0  0  0
 22 23  1  1  0  0  0
 22 15  1  0  0  0  0
 22 13  1  0  0  0  0
 24 25  1  0  0  0  0
 26 34  1  6  0  0  0
 26 30  1  0  0  0  0
 27 28  2  0  0  0  0
 28 31  1  0  0  0  0
 30 33  1  6  0  0  0
 31 29  1  6  0  0  0
 31 30  1  0  0  0  0
 32 27  1  1  0  0  0
 32 26  1  0  0  0  0
 36 37  1  0  0  0  0
 37 35  1  0  0  0  0
M  END
>  <MODEL>
6

>  <REMARK>
 VINA RESULT:      -5.5      4.567      9.532
  Name = 
  5 active torsions:
  status: ('A' for Active; 'I' for Inactive)
    1  A    between atoms: C_1  and  O_5
    2  A    between atoms: C_4  and  C_10
    3  A    between atoms: O_5  and  C_23
    4  A    between atoms: C_9  and  C_16
    5  A    between atoms: C_27  and  C_31
                            x       y       z     vdW  Elec       q    Type
                         _______ _______ _______ _____ _____    ______ ____

>  <TORSDO>
F 5

$$$$
=
 OpenBabel10272414553D

 37 43  0  0  1  0  0  0  0  0999 V2000
  188.2640  178.1770  137.8840 C   0  0  0  0  0  0  0  0  0  0  0  0
  187.7530  173.6760  135.9000 C   0  0  0  0  0  2  0  0  0  0  0  0
  185.9950  175.3810  136.6760 C   0  0  1  0  0  3  0  0  0  0  0  0
  189.7580  178.0180  134.4230 C   0  0  0  0  0  1  0  0  0  0  0  0
  186.2750  174.0200  136.0160 C   0  0  0  0  0  2  0  0  0  0  0  0
  189.0520  178.4360  136.7640 C   0  0  0  0  0  3  0  0  0  0  0  0
  188.9090  177.6750  135.6020 C   0  0  0  0  0  0  0  0  0  0  0  0
  188.3640  174.2990  134.6390 C   0  0  1  0  0  3  0  0  0  0  0  0
  187.1390  176.3850  136.6770 C   0  0  0  0  0  0  0  0  0  0  0  0
  187.9000  175.7360  134.3460 C   0  0  0  0  0  2  0  0  0  0  0  0
  187.9730  176.6240  135.5580 C   0  0  0  0  0  0  0  0  0  0  0  0
  187.3050  177.1600  137.8300 C   0  0  0  0  0  3  0  0  0  0  0  0
  181.1430  176.9850  138.8530 C   0  0  1  0  0  3  0  0  0  0  0  0
  184.6630  175.9460  136.1350 C   0  0  1  0  0  0  0  0  0  0  0  0
  182.0560  175.9710  136.6780 C   0  0  1  0  0  3  0  0  0  0  0  0
  183.5290  175.9890  137.1650 C   0  0  1  0  0  0  0  0  0  0  0  0
  183.7990  175.3800  138.4090 O   0  0  0  0  0  0  0  0  0  0  0  0
  181.7630  175.8360  139.3730 O   0  0  0  0  0  0  0  0  0  0  0  0
  184.3530  177.2370  136.8900 C   0  0  2  0  0  3  0  0  0  0  0  0
  183.1360  176.1210  139.4040 C   0  0  0  0  0  2  0  0  0  0  0  0
  184.7680  177.2960  135.4380 C   0  0  0  0  0  2  0  0  0  0  0  0
  181.2530  177.1040  137.3210 C   0  0  1  0  0  3  0  0  0  0  0  0
  179.9890  176.5630  137.9600 C   0  0  0  0  0  2  0  0  0  0  0  0
  181.8690  175.9820  135.1640 C   0  0  0  0  0  2  0  0  0  0  0  0
  181.3090  177.1950  134.7670 O   0  0  0  0  0  1  0  0  0  0  0  0
  190.6540  174.8740  135.6750 C   0  0  2  0  0  3  0  0  0  0  0  0
  190.2420  172.6690  134.4010 C   0  0  0  0  0  3  0  0  0  0  0  0
  191.1690  172.0460  135.1380 C   0  0  0  0  0  3  0  0  0  0  0  0
  193.2030  173.1560  135.6420 O   0  0  0  0  0  1  0  0  0  0  0  0
  191.2410  173.9630  136.7630 C   0  0  2  0  0  3  0  0  0  0  0  0
  191.9810  172.7560  136.1830 C   0  0  1  0  0  3  0  0  0  0  0  0
  189.8870  174.1280  134.5610 C   0  0  1  0  0  3  0  0  0  0  0  0
  190.2390  173.5380  137.6350 O   0  0  0  0  0  1  0  0  0  0  0  0
  191.7480  175.7330  135.0670 C   0  0  0  0  0  1  0  0  0  0  0  0
  188.4440  178.9540  139.0310 O   0  0  0  0  0  0  0  0  0  0  0  0
  189.7000  177.4670  140.4290 C   0  0  0  0  0  1  0  0  0  0  0  0
  188.5070  178.3940  140.3360 C   0  0  0  0  0  2  0  0  0  0  0  0
  1 35  1  0  0  0  0
  2  5  1  0  0  0  0
  3  5  1  6  0  0  0
  3  9  1  0  0  0  0
  4  7  1  0  0  0  0
  6  1  2  0  0  0  0
  7  6  1  0  0  0  0
  8 10  1  1  0  0  0
  8  2  1  0  0  0  0
  9 12  2  0  0  0  0
 10 11  1  0  0  0  0
 11  7  2  0  0  0  0
 11  9  1  0  0  0  0
 12  1  1  0  0  0  0
 13 23  1  6  0  0  0
 13 18  1  0  0  0  0
 14 21  1  6  0  0  0
 14  3  1  0  0  0  0
 14 19  1  0  0  0  0
 14 16  1  0  0  0  0
 15 24  1  6  0  0  0
 15 16  1  0  0  0  0
 15 22  1  0  0  0  0
 16 17  1  1  0  0  0
 17 20  1  0  0  0  0
 18 20  1  0  0  0  0
 19 21  1  6  0  0  0
 19 16  1  0  0  0  0
 22 23  1  6  0  0  0
 22 13  1  0  0  0  0
 25 24  1  0  0  0  0
 26 34  1  6  0  0  0
 26 30  1  0  0  0  0
 27 28  2  0  0  0  0
 28 31  1  0  0  0  0
 30 33  1  1  0  0  0
 31 29  1  6  0  0  0
 31 30  1  0  0  0  0
 32 27  1  1  0  0  0
 32  8  1  0  0  0  0
 32 26  1  0  0  0  0
 35 37  1  0  0  0  0
 37 36  1  0  0  0  0
M  END
>  <MODEL>
7

>  <REMARK>
 VINA RESULT:      -5.1      3.430      6.772
  Name = 
  5 active torsions:
  status: ('A' for Active; 'I' for Inactive)
    1  A    between atoms: C_1  and  O_5
    2  A    between atoms: C_4  and  C_10
    3  A    between atoms: O_5  and  C_23
    4  A    between atoms: C_9  and  C_16
    5  A    between atoms: C_27  and  C_31
                            x       y       z     vdW  Elec       q    Type
                         _______ _______ _______ _____ _____    ______ ____

>  <TORSDO>
F 5

$$$$
=
 OpenBabel10272414553D

 37 43  0  0  1  0  0  0  0  0999 V2000
  183.7660  173.5400  135.3380 C   0  0  0  0  0  0  0  0  0  0  0  0
  186.8610  177.2870  136.2550 C   0  0  0  0  0  2  0  0  0  0  0  0
  184.4490  176.8680  137.0370 C   0  0  1  0  0  3  0  0  0  0  0  0
  186.8690  172.3590  137.1300 C   0  0  0  0  0  1  0  0  0  0  0  0
  185.6940  177.7700  137.1060 C   0  0  0  0  0  2  0  0  0  0  0  0
  184.8080  172.7400  135.8030 C   0  0  0  0  0  3  0  0  0  0  0  0
  185.7940  173.2700  136.6370 C   0  0  0  0  0  0  0  0  0  0  0  0
  187.6970  176.2480  137.0110 C   0  0  1  0  0  3  0  0  0  0  0  0
  184.6720  175.4360  136.5710 C   0  0  0  0  0  0  0  0  0  0  0  0
  186.8750  175.2230  137.8100 C   0  0  0  0  0  2  0  0  0  0  0  0
  185.7520  174.6300  137.0050 C   0  0  0  0  0  0  0  0  0  0  0  0
  183.6980  174.8810  135.7330 C   0  0  0  0  0  3  0  0  0  0  0  0
  179.9830  179.6510  138.8140 C   0  0  1  0  0  3  0  0  0  0  0  0
  183.6620  176.9830  138.3610 C   0  0  1  0  0  0  0  0  0  0  0  0
  182.1860  178.7160  139.7430 C   0  0  1  0  0  3  0  0  0  0  0  0
  182.6250  178.1110  138.3840 C   0  0  1  0  0  0  0  0  0  0  0  0
  182.6260  178.9760  137.2690 O   0  0  0  0  0  0  0  0  0  0  0  0
  180.8920  180.3110  137.9700 O   0  0  0  0  0  0  0  0  0  0  0  0
  182.1930  176.6880  138.0680 C   0  0  2  0  0  3  0  0  0  0  0  0
  181.2960  179.3610  137.0210 C   0  0  0  0  0  2  0  0  0  0  0  0
  183.0200  175.6910  138.8480 C   0  0  0  0  0  2  0  0  0  0  0  0
  180.6610  178.7480  139.8620 C   0  0  1  0  0  3  0  0  0  0  0  0
  180.1870  180.1380  140.2380 C   0  0  0  0  0  2  0  0  0  0  0  0
  182.8010  178.0620  140.9770 C   0  0  0  0  0  2  0  0  0  0  0  0
  183.9320  178.7730  141.3730 O   0  0  0  0  0  1  0  0  0  0  0  0
  189.9770  176.5370  135.8400 C   0  0  2  0  0  3  0  0  0  0  0  0
  189.1530  174.2440  136.6850 C   0  0  0  0  0  3  0  0  0  0  0  0
  190.4140  173.8390  136.8790 C   0  0  0  0  0  3  0  0  0  0  0  0
  192.0710  174.3620  135.2660 O   0  0  0  0  0  1  0  0  0  0  0  0
  191.2650  176.1880  136.5980 C   0  0  2  0  0  3  0  0  0  0  0  0
  191.5980  174.6960  136.5350 C   0  0  1  0  0  3  0  0  0  0  0  0
  188.7840  175.6030  136.1390 C   0  0  1  0  0  3  0  0  0  0  0  0
  191.1770  176.6040  137.9270 O   0  0  0  0  0  1  0  0  0  0  0  0
  190.2430  176.5760  134.3460 C   0  0  0  0  0  1  0  0  0  0  0  0
  182.8040  172.9750  134.4970 O   0  0  0  0  0  0  0  0  0  0  0  0
  180.8100  172.4100  135.7000 C   0  0  0  0  0  1  0  0  0  0  0  0
  181.4170  173.2680  134.6110 C   0  0  0  0  0  2  0  0  0  0  0  0
  1 12  2  0  0  0  0
  1  6  1  0  0  0  0
  2  5  1  0  0  0  0
  3  5  1  1  0  0  0
  3 14  1  0  0  0  0
  6  7  2  0  0  0  0
  7 11  1  0  0  0  0
  7  4  1  0  0  0  0
  8  2  1  6  0  0  0
  8 10  1  0  0  0  0
  9 11  2  0  0  0  0
  9  3  1  0  0  0  0
 11 10  1  0  0  0  0
 12  9  1  0  0  0  0
 13 22  1  0  0  0  0
 13 23  1  1  0  0  0
 14 16  1  0  0  0  0
 14 21  1  1  0  0  0
 15 22  1  0  0  0  0
 15 24  1  1  0  0  0
 16 17  1  6  0  0  0
 16 15  1  0  0  0  0
 18 13  1  0  0  0  0
 19 14  1  0  0  0  0
 19 16  1  0  0  0  0
 19 21  1  1  0  0  0
 20 17  1  0  0  0  0
 20 18  1  0  0  0  0
 22 23  1  1  0  0  0
 24 25  1  0  0  0  0
 26 34  1  6  0  0  0
 26 32  1  0  0  0  0
 26 30  1  0  0  0  0
 27 28  2  0  0  0  0
 30 33  1  1  0  0  0
 31 29  1  6  0  0  0
 31 30  1  0  0  0  0
 31 28  1  0  0  0  0
 32 27  1  1  0  0  0
 32  8  1  0  0  0  0
 35 37  1  0  0  0  0
 35  1  1  0  0  0  0
 37 36  1  0  0  0  0
M  END
>  <MODEL>
8

>  <REMARK>
 VINA RESULT:      -4.9      4.533      6.924
  Name = 
  5 active torsions:
  status: ('A' for Active; 'I' for Inactive)
    1  A    between atoms: C_1  and  O_5
    2  A    between atoms: C_4  and  C_10
    3  A    between atoms: O_5  and  C_23
    4  A    between atoms: C_9  and  C_16
    5  A    between atoms: C_27  and  C_31
                            x       y       z     vdW  Elec       q    Type
                         _______ _______ _______ _____ _____    ______ ____

>  <TORSDO>
F 5

$$$$
=
 OpenBabel10272414553D

 37 43  0  0  1  0  0  0  0  0999 V2000
  187.8220  178.2200  138.1860 C   0  0  0  0  0  0  0  0  0  0  0  0
  184.9860  174.3620  136.9460 C   0  0  0  0  0  2  0  0  0  0  0  0
  184.4020  176.5680  138.1280 C   0  0  1  0  0  3  0  0  0  0  0  0
  187.7870  177.6770  134.4530 C   0  0  0  0  0  1  0  0  0  0  0  0
  183.8940  175.2380  137.5430 C   0  0  0  0  0  2  0  0  0  0  0  0
  188.1860  178.2140  136.8410 C   0  0  0  0  0  3  0  0  0  0  0  0
  187.3600  177.6260  135.8820 C   0  0  0  0  0  0  0  0  0  0  0  0
  185.2840  174.7680  135.4980 C   0  0  1  0  0  3  0  0  0  0  0  0
  185.7550  177.0570  137.6300 C   0  0  0  0  0  0  0  0  0  0  0  0
  185.3190  176.2860  135.2520 C   0  0  0  0  0  2  0  0  0  0  0  0
  186.1510  177.0150  136.2700 C   0  0  0  0  0  0  0  0  0  0  0  0
  186.6030  177.6500  138.5710 C   0  0  0  0  0  3  0  0  0  0  0  0
  181.4250  179.5610  141.7370 C   0  0  1  0  0  3  0  0  0  0  0  0
  183.2800  177.6260  138.0390 C   0  0  1  0  0  0  0  0  0  0  0  0
  181.1750  178.5240  139.4020 C   0  0  1  0  0  3  0  0  0  0  0  0
  182.6200  177.9620  139.3820 C   0  0  1  0  0  0  0  0  0  0  0  0
  183.0150  177.1690  140.4810 O   0  0  0  0  0  0  0  0  0  0  0  0
  181.7010  178.2180  142.0470 O   0  0  0  0  0  0  0  0  0  0  0  0
  183.7220  178.8540  138.8320 C   0  0  2  0  0  3  0  0  0  0  0  0
  183.0180  177.9880  141.6240 C   0  0  0  0  0  2  0  0  0  0  0  0
  183.6580  178.9140  137.3220 C   0  0  0  0  0  2  0  0  0  0  0  0
  181.0930  179.7940  140.2510 C   0  0  1  0  0  3  0  0  0  0  0  0
  179.9820  179.6760  141.2770 C   0  0  0  0  0  2  0  0  0  0  0  0
  180.5480  178.7600  138.0320 C   0  0  0  0  0  2  0  0  0  0  0  0
  180.3180  180.1220  137.8480 O   0  0  0  0  0  1  0  0  0  0  0  0
  187.7200  173.9950  135.8420 C   0  0  2  0  0  3  0  0  0  0  0  0
  186.0690  172.6950  134.3470 C   0  0  0  0  0  3  0  0  0  0  0  0
  186.7060  171.5460  134.6060 C   0  0  0  0  0  3  0  0  0  0  0  0
  189.0770  171.5080  134.6470 O   0  0  0  0  0  1  0  0  0  0  0  0
  187.9940  172.6240  136.4760 C   0  0  2  0  0  3  0  0  0  0  0  0
  187.9410  171.4830  135.4580 C   0  0  1  0  0  3  0  0  0  0  0  0
  186.4930  174.0320  134.9040 C   0  0  1  0  0  3  0  0  0  0  0  0
  187.0990  172.3800  137.5170 O   0  0  0  0  0  1  0  0  0  0  0  0
  188.9520  174.4860  135.1050 C   0  0  0  0  0  1  0  0  0  0  0  0
  188.6800  178.8100  139.1170 O   0  0  0  0  0  0  0  0  0  0  0  0
  188.8230  177.8870  141.3240 C   0  0  0  0  0  1  0  0  0  0  0  0
  189.5100  178.0500  139.9850 C   0  0  0  0  0  2  0  0  0  0  0  0
  1 12  1  0  0  0  0
  1 35  1  0  0  0  0
  2  5  1  0  0  0  0
  3  5  1  6  0  0  0
  4  7  1  0  0  0  0
  6  1  2  0  0  0  0
  7 11  2  0  0  0  0
  7  6  1  0  0  0  0
  8 10  1  1  0  0  0
  8  2  1  0  0  0  0
  9  3  1  0  0  0  0
  9 12  2  0  0  0  0
 10 11  1  0  0  0  0
 11  9  1  0  0  0  0
 13 23  1  1  0  0  0
 13 18  1  0  0  0  0
 14 21  1  6  0  0  0
 14  3  1  0  0  0  0
 14 19  1  0  0  0  0
 14 16  1  0  0  0  0
 15 24  1  6  0  0  0
 15 22  1  0  0  0  0
 16 15  1  0  0  0  0
 16 17  1  1  0  0  0
 17 20  1  0  0  0  0
 19 21  1  6  0  0  0
 19 16  1  0  0  0  0
 20 18  1  0  0  0  0
 22 23  1  1  0  0  0
 22 13  1  0  0  0  0
 25 24  1  0  0  0  0
 26 34  1  6  0  0  0
 26 30  1  0  0  0  0
 27 28  2  0  0  0  0
 28 31  1  0  0  0  0
 30 33  1  1  0  0  0
 31 29  1  6  0  0  0
 31 30  1  0  0  0  0
 32 27  1  1  0  0  0
 32  8  1  0  0  0  0
 32 26  1  0  0  0  0
 35 37  1  0  0  0  0
 37 36  1  0  0  0  0
M  END
>  <MODEL>
9

>  <REMARK>
 VINA RESULT:      -4.9      4.407      7.297
  Name = 
  5 active torsions:
  status: ('A' for Active; 'I' for Inactive)
    1  A    between atoms: C_1  and  O_5
    2  A    between atoms: C_4  and  C_10
    3  A    between atoms: O_5  and  C_23
    4  A    between atoms: C_9  and  C_16
    5  A    between atoms: C_27  and  C_31
                            x       y       z     vdW  Elec       q    Type
                         _______ _______ _______ _____ _____    ______ ____

>  <TORSDO>
F 5

$$$$
