=
 OpenBabel10272400243D

 31 34  0  0  0  0  0  0  0  0999 V2000
  185.1790  178.3850  146.0150 C   0  0  0  0  0  0  0  0  0  0  0  0
  188.3820  177.7440  144.1240 C   0  0  0  0  0  0  0  0  0  0  0  0
  189.3680  177.3890  145.1060 C   0  0  0  0  0  0  0  0  0  0  0  0
  189.9580  176.9970  147.4740 C   0  0  0  0  0  3  0  0  0  0  0  0
  187.0180  178.0670  144.4320 C   0  0  0  0  0  0  0  0  0  0  0  0
  184.3150  178.7090  144.9720 C   0  0  0  0  0  3  0  0  0  0  0  0
  189.0570  177.3250  146.5530 C   0  0  0  0  0  3  0  0  0  0  0  0
  187.8620  178.1190  141.7400 C   0  0  0  0  0  0  0  0  0  0  0  0
  184.7270  178.3770  147.2920 F   0  0  0  0  0  0  0  0  0  0  0  0
  191.0370  177.1270  143.3550 C   0  0  0  0  0  3  0  0  0  0  0  0
  191.3350  176.6730  147.0990 C   0  0  0  0  0  0  0  0  0  0  0  0
  186.5470  178.4200  142.0650 C   0  0  0  0  0  3  0  0  0  0  0  0
  188.7810  177.7770  142.7530 C   0  0  0  0  0  0  0  0  0  0  0  0
  186.5130  178.0690  145.7440 C   0  0  0  0  0  3  0  0  0  0  0  0
  192.1640  176.3670  147.9960 O   0  0  0  0  0  0  0  0  0  0  0  0
  186.1200  178.4010  143.3850 C   0  0  0  0  0  0  0  0  0  0  0  0
  184.7850  178.7160  143.6590 C   0  0  0  0  0  3  0  0  0  0  0  0
  190.0980  177.4680  142.3960 C   0  0  0  0  0  3  0  0  0  0  0  0
  190.6900  177.0820  144.6980 C   0  0  0  0  0  0  0  0  0  0  0  0
  191.7770  176.7000  145.6670 C   0  0  0  0  0  2  0  0  0  0  0  0
  188.2470  178.1370  140.2950 C   0  0  0  0  0  2  0  0  0  0  0  0
  187.0800  178.4310  139.4820 N   0  0  0  0  0  2  0  0  0  0  0  0
  187.3810  177.9700  138.1380 C   0  0  0  0  0  2  0  0  0  0  0  0
  188.8840  177.8180  137.9630 C   0  0  0  0  0  2  0  0  0  0  0  0
  189.2310  176.5550  137.1840 C   0  0  0  0  0  2  0  0  0  0  0  0
  190.2090  174.4550  137.7120 O   0  0  0  0  0  0  0  0  0  0  0  0
  190.1710  175.6910  137.9540 C   0  0  0  0  0  0  0  0  0  0  0  0
  192.2740  176.6560  138.7820 C   0  0  0  0  0  0  0  0  0  0  0  0
  193.0220  176.4810  137.5020 C   0  0  0  0  0  1  0  0  0  0  0  0
  192.9860  177.2710  139.9320 C   0  0  0  0  0  1  0  0  0  0  0  0
  191.0320  176.2960  138.9320 N   0  0  0  0  0  0  0  0  0  0  0  0
  1  9  1  0  0  0  0
  2  5  1  0  0  0  0
  2  3  1  0  0  0  0
  3  7  1  0  0  0  0
  5 14  2  0  0  0  0
  6  1  2  0  0  0  0
  7  4  2  0  0  0  0
  8 12  2  0  0  0  0
  8 13  1  0  0  0  0
 10 19  1  0  0  0  0
 11  4  1  0  0  0  0
 11 15  2  0  0  0  0
 12 16  1  0  0  0  0
 13  2  2  0  0  0  0
 14  1  1  0  0  0  0
 16 17  2  0  0  0  0
 16  5  1  0  0  0  0
 17  6  1  0  0  0  0
 18 13  1  0  0  0  0
 18 10  2  0  0  0  0
 19  3  2  0  0  0  0
 19 20  1  0  0  0  0
 20 11  1  0  0  0  0
 21  8  1  0  0  0  0
 22 21  1  0  0  0  0
 23 22  1  0  0  0  0
 24 23  1  0  0  0  0
 25 27  1  0  0  0  0
 25 24  1  0  0  0  0
 26 27  2  0  0  0  0
 27 31  1  0  0  0  0
 28 31  2  0  0  0  0
 28 30  1  0  0  0  0
 29 28  1  0  0  0  0
M  END
>  <MODEL>
1

>  <REMARK>
 VINA RESULT:     -10.2      0.000      0.000
  Name = 
  7 active torsions:
  status: ('A' for Active; 'I' for Inactive)
    1  A    between atoms: C_3  and  C_19
    2  A    between atoms: C_3  and  C_22
    3  A    between atoms: C_7  and  N_9
    4  A    between atoms: C_7  and  C_22
    5  A    between atoms: N_9  and  C_23
    6  A    between atoms: C_15  and  C_23
    7  A    between atoms: C_19  and  N_24
                            x       y       z     vdW  Elec       q    Type
                         _______ _______ _______ _____ _____    ______ ____

>  <TORSDO>
F 7

$$$$
=
 OpenBabel10272400243D

 31 34  0  0  0  0  0  0  0  0999 V2000
  188.1360  177.5410  147.8520 C   0  0  0  0  0  0  0  0  0  0  0  0
  187.3190  178.0120  144.1980 C   0  0  0  0  0  0  0  0  0  0  0  0
  185.9150  178.3050  144.1310 C   0  0  0  0  0  0  0  0  0  0  0  0
  183.7620  178.6470  145.2950 C   0  0  0  0  0  3  0  0  0  0  0  0
  188.0340  177.7650  145.4170 C   0  0  0  0  0  0  0  0  0  0  0  0
  189.5010  177.2730  147.7870 C   0  0  0  0  0  3  0  0  0  0  0  0
  185.0630  178.3770  145.3400 C   0  0  0  0  0  3  0  0  0  0  0  0
  189.4350  177.6840  142.9700 C   0  0  0  0  0  0  0  0  0  0  0  0
  187.5070  177.5660  149.0510 F   0  0  0  0  0  0  0  0  0  0  0  0
  186.0540  178.4840  141.7080 C   0  0  0  0  0  3  0  0  0  0  0  0
  183.0870  178.8950  144.0200 C   0  0  0  0  0  0  0  0  0  0  0  0
  190.1040  177.4550  144.1650 C   0  0  0  0  0  3  0  0  0  0  0  0
  188.0550  177.9660  142.9740 C   0  0  0  0  0  0  0  0  0  0  0  0
  187.4150  177.7830  146.6800 C   0  0  0  0  0  3  0  0  0  0  0  0
  181.8550  179.1480  144.0130 O   0  0  0  0  0  0  0  0  0  0  0  0
  189.4260  177.4890  145.3750 C   0  0  0  0  0  0  0  0  0  0  0  0
  190.1440  177.2490  146.5500 C   0  0  0  0  0  3  0  0  0  0  0  0
  187.4090  178.2020  141.7560 C   0  0  0  0  0  3  0  0  0  0  0  0
  185.3030  178.5390  142.8750 C   0  0  0  0  0  0  0  0  0  0  0  0
  183.8380  178.8530  142.7240 C   0  0  0  0  0  2  0  0  0  0  0  0
  190.2350  177.6530  141.7060 C   0  0  0  0  0  2  0  0  0  0  0  0
  190.4000  176.2800  141.2640 N   0  0  0  0  0  2  0  0  0  0  0  0
  190.6770  176.3310  139.8390 C   0  0  0  0  0  2  0  0  0  0  0  0
  190.2200  177.6650  139.2670 C   0  0  0  0  0  2  0  0  0  0  0  0
  189.3820  177.4740  138.0080 C   0  0  0  0  0  2  0  0  0  0  0  0
  188.8750  179.6630  137.2370 O   0  0  0  0  0  0  0  0  0  0  0  0
  188.4520  178.6210  137.8050 C   0  0  0  0  0  0  0  0  0  0  0  0
  186.0830  178.0140  137.5640 C   0  0  0  0  0  0  0  0  0  0  0  0
  186.2140  177.4900  136.1720 C   0  0  0  0  0  1  0  0  0  0  0  0
  184.7430  177.9760  138.2040 C   0  0  0  0  0  1  0  0  0  0  0  0
  187.0870  178.4990  138.2360 N   0  0  0  0  0  0  0  0  0  0  0  0
  1  9  1  0  0  0  0
  2  5  1  0  0  0  0
  3  2  1  0  0  0  0
  3  7  1  0  0  0  0
  4  7  2  0  0  0  0
  5 14  1  0  0  0  0
  6  1  1  0  0  0  0
  8 13  1  0  0  0  0
  8 12  2  0  0  0  0
 10 18  2  0  0  0  0
 10 19  1  0  0  0  0
 11  4  1  0  0  0  0
 12 16  1  0  0  0  0
 13  2  2  0  0  0  0
 14  1  2  0  0  0  0
 15 11  2  0  0  0  0
 16  5  2  0  0  0  0
 16 17  1  0  0  0  0
 17  6  2  0  0  0  0
 18 13  1  0  0  0  0
 19  3  2  0  0  0  0
 20 19  1  0  0  0  0
 20 11  1  0  0  0  0
 21  8  1  0  0  0  0
 22 21  1  0  0  0  0
 23 22  1  0  0  0  0
 24 23  1  0  0  0  0
 25 24  1  0  0  0  0
 26 27  2  0  0  0  0
 27 25  1  0  0  0  0
 27 31  1  0  0  0  0
 28 30  1  0  0  0  0
 28 31  2  0  0  0  0
 29 28  1  0  0  0  0
M  END
>  <MODEL>
2

>  <REMARK>
 VINA RESULT:     -10.0      2.701      5.246
  Name = 
  7 active torsions:
  status: ('A' for Active; 'I' for Inactive)
    1  A    between atoms: C_3  and  C_19
    2  A    between atoms: C_3  and  C_22
    3  A    between atoms: C_7  and  N_9
    4  A    between atoms: C_7  and  C_22
    5  A    between atoms: N_9  and  C_23
    6  A    between atoms: C_15  and  C_23
    7  A    between atoms: C_19  and  N_24
                            x       y       z     vdW  Elec       q    Type
                         _______ _______ _______ _____ _____    ______ ____

>  <TORSDO>
F 7

$$$$
=
 OpenBabel10272400243D

 31 34  0  0  0  0  0  0  0  0999 V2000
  185.1130  178.3790  146.2200 C   0  0  0  0  0  0  0  0  0  0  0  0
  188.2410  177.7170  144.2170 C   0  0  0  0  0  0  0  0  0  0  0  0
  189.2640  177.3720  145.1640 C   0  0  0  0  0  0  0  0  0  0  0  0
  189.9440  177.0070  147.5110 C   0  0  0  0  0  3  0  0  0  0  0  0
  186.8900  178.0440  144.5720 C   0  0  0  0  0  0  0  0  0  0  0  0
  184.2100  178.6920  145.2070 C   0  0  0  0  0  3  0  0  0  0  0  0
  189.0090  177.3250  146.6220 C   0  0  0  0  0  3  0  0  0  0  0  0
  187.6320  178.0650  141.8500 C   0  0  0  0  0  0  0  0  0  0  0  0
  184.7090  178.3860  147.5130 F   0  0  0  0  0  0  0  0  0  0  0  0
  190.8650  177.0910  143.3530 C   0  0  0  0  0  3  0  0  0  0  0  0
  191.3060  176.6790  147.0880 C   0  0  0  0  0  0  0  0  0  0  0  0
  186.3290  178.3700  142.2210 C   0  0  0  0  0  3  0  0  0  0  0  0
  188.5880  177.7350  142.8300 C   0  0  0  0  0  0  0  0  0  0  0  0
  186.4350  178.0600  145.9030 C   0  0  0  0  0  3  0  0  0  0  0  0
  192.1680  176.3830  147.9560 O   0  0  0  0  0  0  0  0  0  0  0  0
  185.9530  178.3660  143.5560 C   0  0  0  0  0  0  0  0  0  0  0  0
  184.6290  178.6840  143.8780 C   0  0  0  0  0  3  0  0  0  0  0  0
  189.8910  177.4220  142.4280 C   0  0  0  0  0  3  0  0  0  0  0  0
  190.5690  177.0610  144.7100 C   0  0  0  0  0  0  0  0  0  0  0  0
  191.6930  176.6900  145.6410 C   0  0  0  0  0  2  0  0  0  0  0  0
  187.9610  178.0670  140.3910 C   0  0  0  0  0  2  0  0  0  0  0  0
  186.8950  178.7190  139.6490 N   0  0  0  0  0  2  0  0  0  0  0  0
  186.7300  177.9740  138.4140 C   0  0  0  0  0  2  0  0  0  0  0  0
  185.2620  177.9330  138.0220 C   0  0  0  0  0  2  0  0  0  0  0  0
  184.3960  178.6970  139.0170 C   0  0  0  0  0  2  0  0  0  0  0  0
  183.0840  176.7170  139.0740 O   0  0  0  0  0  0  0  0  0  0  0  0
  183.3810  177.8020  139.6420 C   0  0  0  0  0  0  0  0  0  0  0  0
  181.5750  178.6060  141.1010 C   0  0  0  0  0  0  0  0  0  0  0  0
  180.5700  178.7600  140.0080 C   0  0  0  0  0  1  0  0  0  0  0  0
  181.1610  178.9490  142.4860 C   0  0  0  0  0  1  0  0  0  0  0  0
  182.7890  178.1850  140.8940 N   0  0  0  0  0  0  0  0  0  0  0  0
  1  9  1  0  0  0  0
  2  5  1  0  0  0  0
  2  3  1  0  0  0  0
  3  7  1  0  0  0  0
  5 14  2  0  0  0  0
  6  1  2  0  0  0  0
  7  4  2  0  0  0  0
  8 12  2  0  0  0  0
  8 13  1  0  0  0  0
 10 19  1  0  0  0  0
 11  4  1  0  0  0  0
 11 15  2  0  0  0  0
 12 16  1  0  0  0  0
 13  2  2  0  0  0  0
 14  1  1  0  0  0  0
 16 17  2  0  0  0  0
 16  5  1  0  0  0  0
 17  6  1  0  0  0  0
 18 13  1  0  0  0  0
 18 10  2  0  0  0  0
 19  3  2  0  0  0  0
 19 20  1  0  0  0  0
 20 11  1  0  0  0  0
 21  8  1  0  0  0  0
 22 21  1  0  0  0  0
 23 22  1  0  0  0  0
 24 23  1  0  0  0  0
 24 25  1  0  0  0  0
 25 27  1  0  0  0  0
 26 27  2  0  0  0  0
 27 31  1  0  0  0  0
 28 30  1  0  0  0  0
 29 28  1  0  0  0  0
 31 28  2  0  0  0  0
M  END
>  <MODEL>
3

>  <REMARK>
 VINA RESULT:      -9.9      2.437      4.655
  Name = 
  7 active torsions:
  status: ('A' for Active; 'I' for Inactive)
    1  A    between atoms: C_3  and  C_19
    2  A    between atoms: C_3  and  C_22
    3  A    between atoms: C_7  and  N_9
    4  A    between atoms: C_7  and  C_22
    5  A    between atoms: N_9  and  C_23
    6  A    between atoms: C_15  and  C_23
    7  A    between atoms: C_19  and  N_24
                            x       y       z     vdW  Elec       q    Type
                         _______ _______ _______ _____ _____    ______ ____

>  <TORSDO>
F 7

$$$$
=
 OpenBabel10272400243D

 31 34  0  0  0  0  0  0  0  0999 V2000
  189.9800  177.6290  140.7770 C   0  0  0  0  0  0  0  0  0  0  0  0
  188.3240  177.6420  144.1680 C   0  0  0  0  0  0  0  0  0  0  0  0
  189.3430  177.2910  145.1180 C   0  0  0  0  0  0  0  0  0  0  0  0
  191.6910  176.6750  145.5790 C   0  0  0  0  0  3  0  0  0  0  0  0
  188.5430  177.7500  142.7540 C   0  0  0  0  0  0  0  0  0  0  0  0
  188.9100  177.9840  139.9580 C   0  0  0  0  0  3  0  0  0  0  0  0
  190.7370  177.0010  144.7120 C   0  0  0  0  0  3  0  0  0  0  0  0
  185.9640  178.2530  143.7810 C   0  0  0  0  0  0  0  0  0  0  0  0
  191.1990  177.3940  140.2360 F   0  0  0  0  0  0  0  0  0  0  0  0
  187.7330  177.4780  146.9330 C   0  0  0  0  0  3  0  0  0  0  0  0
  191.4090  176.5850  147.0120 C   0  0  0  0  0  0  0  0  0  0  0  0
  186.2050  178.3570  142.4180 C   0  0  0  0  0  3  0  0  0  0  0  0
  187.0080  177.9040  144.6600 C   0  0  0  0  0  0  0  0  0  0  0  0
  189.7940  177.5150  142.1570 C   0  0  0  0  0  3  0  0  0  0  0  0
  192.3350  176.2740  147.8050 O   0  0  0  0  0  0  0  0  0  0  0  0
  187.4680  178.1090  141.9000 C   0  0  0  0  0  0  0  0  0  0  0  0
  187.6570  178.2240  140.5190 C   0  0  0  0  0  3  0  0  0  0  0  0
  186.7400  177.8170  146.0300 C   0  0  0  0  0  3  0  0  0  0  0  0
  189.0250  177.2160  146.4960 C   0  0  0  0  0  0  0  0  0  0  0  0
  190.0370  176.8560  147.5510 C   0  0  0  0  0  2  0  0  0  0  0  0
  184.5830  178.5570  144.2710 C   0  0  0  0  0  2  0  0  0  0  0  0
  183.8880  179.3790  143.2980 N   0  0  0  0  0  2  0  0  0  0  0  0
  182.5980  178.7520  143.0680 C   0  0  0  0  0  2  0  0  0  0  0  0
  182.2800  178.7440  141.5800 C   0  0  0  0  0  2  0  0  0  0  0  0
  183.3510  178.0070  140.7850 C   0  0  0  0  0  2  0  0  0  0  0  0
  184.4980  179.7780  139.6950 O   0  0  0  0  0  0  0  0  0  0  0  0
  183.7420  178.7780  139.5710 C   0  0  0  0  0  0  0  0  0  0  0  0
  183.9240  177.6550  137.3930 C   0  0  0  0  0  0  0  0  0  0  0  0
  185.3320  177.1970  137.5880 C   0  0  0  0  0  1  0  0  0  0  0  0
  183.2430  177.3050  136.1190 C   0  0  0  0  0  1  0  0  0  0  0  0
  183.2720  178.3430  138.2850 N   0  0  0  0  0  0  0  0  0  0  0  0
  1 14  1  0  0  0  0
  2 13  2  0  0  0  0
  2  3  1  0  0  0  0
  3 19  2  0  0  0  0
  4 11  1  0  0  0  0
  5  2  1  0  0  0  0
  6 17  1  0  0  0  0
  6  1  2  0  0  0  0
  7  3  1  0  0  0  0
  7  4  2  0  0  0  0
  8 21  1  0  0  0  0
  8 13  1  0  0  0  0
  9  1  1  0  0  0  0
 11 20  1  0  0  0  0
 11 15  2  0  0  0  0
 12  8  2  0  0  0  0
 13 18  1  0  0  0  0
 14  5  2  0  0  0  0
 16 12  1  0  0  0  0
 16  5  1  0  0  0  0
 17 16  2  0  0  0  0
 18 10  2  0  0  0  0
 19 10  1  0  0  0  0
 19 20  1  0  0  0  0
 22 21  1  0  0  0  0
 23 22  1  0  0  0  0
 24 23  1  0  0  0  0
 25 24  1  0  0  0  0
 27 26  2  0  0  0  0
 27 25  1  0  0  0  0
 28 29  1  0  0  0  0
 28 31  2  0  0  0  0
 30 28  1  0  0  0  0
 31 27  1  0  0  0  0
M  END
>  <MODEL>
4

>  <REMARK>
 VINA RESULT:      -9.7      3.197      5.583
  Name = 
  7 active torsions:
  status: ('A' for Active; 'I' for Inactive)
    1  A    between atoms: C_3  and  C_19
    2  A    between atoms: C_3  and  C_22
    3  A    between atoms: C_7  and  N_9
    4  A    between atoms: C_7  and  C_22
    5  A    between atoms: N_9  and  C_23
    6  A    between atoms: C_15  and  C_23
    7  A    between atoms: C_19  and  N_24
                            x       y       z     vdW  Elec       q    Type
                         _______ _______ _______ _____ _____    ______ ____

>  <TORSDO>
F 7

$$$$
=
 OpenBabel10272400243D

 31 34  0  0  0  0  0  0  0  0999 V2000
  189.3060  177.7090  140.7830 C   0  0  0  0  0  0  0  0  0  0  0  0
  188.0340  177.7400  144.3350 C   0  0  0  0  0  0  0  0  0  0  0  0
  189.1370  177.3420  145.1640 C   0  0  0  0  0  0  0  0  0  0  0  0
  191.4980  176.6380  145.3590 C   0  0  0  0  0  3  0  0  0  0  0  0
  188.0990  177.8560  142.9070 C   0  0  0  0  0  0  0  0  0  0  0  0
  188.1670  178.1120  140.0890 C   0  0  0  0  0  3  0  0  0  0  0  0
  190.4670  177.0080  144.6050 C   0  0  0  0  0  3  0  0  0  0  0  0
  185.6690  178.4370  144.2160 C   0  0  0  0  0  0  0  0  0  0  0  0
  190.4490  177.4390  140.1090 F   0  0  0  0  0  0  0  0  0  0  0  0
  187.7430  177.5620  147.1480 C   0  0  0  0  0  3  0  0  0  0  0  0
  191.3710  176.5400  146.8140 C   0  0  0  0  0  0  0  0  0  0  0  0
  185.7630  178.5490  142.8350 C   0  0  0  0  0  3  0  0  0  0  0  0
  186.7900  178.0410  144.9710 C   0  0  0  0  0  0  0  0  0  0  0  0
  189.2690  177.5850  142.1740 C   0  0  0  0  0  3  0  0  0  0  0  0
  192.3670  176.1870  147.4980 O   0  0  0  0  0  0  0  0  0  0  0  0
  186.9510  178.2640  142.1790 C   0  0  0  0  0  0  0  0  0  0  0  0
  186.9920  178.3890  140.7870 C   0  0  0  0  0  3  0  0  0  0  0  0
  186.6700  177.9460  146.3620 C   0  0  0  0  0  3  0  0  0  0  0  0
  188.9700  177.2610  146.5690 C   0  0  0  0  0  0  0  0  0  0  0  0
  190.0780  176.8520  147.5030 C   0  0  0  0  0  2  0  0  0  0  0  0
  184.3620  178.7830  144.8570 C   0  0  0  0  0  2  0  0  0  0  0  0
  183.4720  179.3690  143.8710 N   0  0  0  0  0  2  0  0  0  0  0  0
  182.1600  178.7880  144.0960 C   0  0  0  0  0  2  0  0  0  0  0  0
  181.1350  179.4490  143.1880 C   0  0  0  0  0  2  0  0  0  0  0  0
  180.3030  178.4150  142.4390 C   0  0  0  0  0  2  0  0  0  0  0  0
  180.3140  179.6490  140.4090 O   0  0  0  0  0  0  0  0  0  0  0  0
  180.4990  178.5350  140.9660 C   0  0  0  0  0  0  0  0  0  0  0  0
  182.1440  177.0150  139.9530 C   0  0  0  0  0  0  0  0  0  0  0  0
  183.3410  177.7860  140.4020 C   0  0  0  0  0  1  0  0  0  0  0  0
  182.3640  175.7750  139.1650 C   0  0  0  0  0  1  0  0  0  0  0  0
  180.9240  177.3810  140.2220 N   0  0  0  0  0  0  0  0  0  0  0  0
  1 14  1  0  0  0  0
  2 13  2  0  0  0  0
  2  3  1  0  0  0  0
  3 19  2  0  0  0  0
  4 11  1  0  0  0  0
  5  2  1  0  0  0  0
  6  1  2  0  0  0  0
  6 17  1  0  0  0  0
  7  3  1  0  0  0  0
  7  4  2  0  0  0  0
  8 21  1  0  0  0  0
  8 13  1  0  0  0  0
  9  1  1  0  0  0  0
 11 15  2  0  0  0  0
 11 20  1  0  0  0  0
 12  8  2  0  0  0  0
 13 18  1  0  0  0  0
 14  5  2  0  0  0  0
 16 12  1  0  0  0  0
 16  5  1  0  0  0  0
 17 16  2  0  0  0  0
 18 10  2  0  0  0  0
 19 10  1  0  0  0  0
 19 20  1  0  0  0  0
 22 23  1  0  0  0  0
 22 21  1  0  0  0  0
 24 23  1  0  0  0  0
 25 24  1  0  0  0  0
 26 27  2  0  0  0  0
 27 25  1  0  0  0  0
 28 31  2  0  0  0  0
 28 29  1  0  0  0  0
 30 28  1  0  0  0  0
 31 27  1  0  0  0  0
M  END
>  <MODEL>
5

>  <REMARK>
 VINA RESULT:      -9.6      3.744      6.512
  Name = 
  7 active torsions:
  status: ('A' for Active; 'I' for Inactive)
    1  A    between atoms: C_3  and  C_19
    2  A    between atoms: C_3  and  C_22
    3  A    between atoms: C_7  and  N_9
    4  A    between atoms: C_7  and  C_22
    5  A    between atoms: N_9  and  C_23
    6  A    between atoms: C_15  and  C_23
    7  A    between atoms: C_19  and  N_24
                            x       y       z     vdW  Elec       q    Type
                         _______ _______ _______ _____ _____    ______ ____

>  <TORSDO>
F 7

$$$$
=
 OpenBabel10272400243D

 31 34  0  0  0  0  0  0  0  0999 V2000
  187.4470  178.2570  140.0320 C   0  0  0  0  0  0  0  0  0  0  0  0
  184.7820  178.5440  142.6870 C   0  0  0  0  0  0  0  0  0  0  0  0
  183.5460  178.7850  141.9970 C   0  0  0  0  0  0  0  0  0  0  0  0
  182.3340  179.1050  139.8670 C   0  0  0  0  0  3  0  0  0  0  0  0
  186.0490  178.3730  142.0370 C   0  0  0  0  0  0  0  0  0  0  0  0
  188.5760  178.0220  140.8130 C   0  0  0  0  0  3  0  0  0  0  0  0
  183.4700  178.8820  140.5210 C   0  0  0  0  0  3  0  0  0  0  0  0
  185.9280  178.2330  144.8520 C   0  0  0  0  0  0  0  0  0  0  0  0
  187.5570  178.3190  138.6830 F   0  0  0  0  0  0  0  0  0  0  0  0
  182.3580  178.8550  144.1200 C   0  0  0  0  0  3  0  0  0  0  0  0
  181.0700  179.2670  140.5860 C   0  0  0  0  0  0  0  0  0  0  0  0
  187.1390  178.0640  144.1960 C   0  0  0  0  0  3  0  0  0  0  0  0
  184.7510  178.4670  144.1140 C   0  0  0  0  0  0  0  0  0  0  0  0
  186.2020  178.4300  140.6390 C   0  0  0  0  0  3  0  0  0  0  0  0
  180.0120  179.4770  139.9370 O   0  0  0  0  0  0  0  0  0  0  0  0
  187.2130  178.1340  142.8120 C   0  0  0  0  0  0  0  0  0  0  0  0
  188.4580  177.9600  142.2000 C   0  0  0  0  0  3  0  0  0  0  0  0
  183.5410  178.6240  144.8000 C   0  0  0  0  0  3  0  0  0  0  0  0
  182.3450  178.9360  142.7330 C   0  0  0  0  0  0  0  0  0  0  0  0
  181.0120  179.1900  142.0810 C   0  0  0  0  0  2  0  0  0  0  0  0
  185.9200  178.1230  146.3430 C   0  0  0  0  0  2  0  0  0  0  0  0
  187.0970  177.3990  146.7870 N   0  0  0  0  0  2  0  0  0  0  0  0
  187.6670  178.1610  147.8840 C   0  0  0  0  0  2  0  0  0  0  0  0
  189.1720  177.9460  147.9420 C   0  0  0  0  0  2  0  0  0  0  0  0
  189.5900  176.7080  147.1580 C   0  0  0  0  0  2  0  0  0  0  0  0
  191.8910  177.0000  147.6700 O   0  0  0  0  0  0  0  0  0  0  0  0
  191.0290  176.7740  146.7790 C   0  0  0  0  0  0  0  0  0  0  0  0
  191.3770  177.4040  144.4290 C   0  0  0  0  0  0  0  0  0  0  0  0
  190.9300  178.8190  144.5950 C   0  0  0  0  0  1  0  0  0  0  0  0
  191.8110  176.9600  143.0790 C   0  0  0  0  0  1  0  0  0  0  0  0
  191.4020  176.5480  145.4090 N   0  0  0  0  0  0  0  0  0  0  0  0
  1 14  2  0  0  0  0
  1  6  1  0  0  0  0
  2 13  1  0  0  0  0
  3  2  2  0  0  0  0
  3 19  1  0  0  0  0
  4  7  2  0  0  0  0
  4 11  1  0  0  0  0
  5  2  1  0  0  0  0
  5 16  2  0  0  0  0
  6 17  2  0  0  0  0
  7  3  1  0  0  0  0
  8 21  1  0  0  0  0
  9  1  1  0  0  0  0
 10 18  1  0  0  0  0
 11 20  1  0  0  0  0
 12  8  2  0  0  0  0
 13 18  2  0  0  0  0
 13  8  1  0  0  0  0
 14  5  1  0  0  0  0
 15 11  2  0  0  0  0
 16 12  1  0  0  0  0
 17 16  1  0  0  0  0
 19 10  2  0  0  0  0
 20 19  1  0  0  0  0
 21 22  1  0  0  0  0
 22 23  1  0  0  0  0
 23 24  1  0  0  0  0
 25 24  1  0  0  0  0
 27 25  1  0  0  0  0
 27 26  2  0  0  0  0
 28 29  1  0  0  0  0
 28 31  2  0  0  0  0
 30 28  1  0  0  0  0
 31 27  1  0  0  0  0
M  END
>  <MODEL>
6

>  <REMARK>
 VINA RESULT:      -9.4      3.689      7.915
  Name = 
  7 active torsions:
  status: ('A' for Active; 'I' for Inactive)
    1  A    between atoms: C_3  and  C_19
    2  A    between atoms: C_3  and  C_22
    3  A    between atoms: C_7  and  N_9
    4  A    between atoms: C_7  and  C_22
    5  A    between atoms: N_9  and  C_23
    6  A    between atoms: C_15  and  C_23
    7  A    between atoms: C_19  and  N_24
                            x       y       z     vdW  Elec       q    Type
                         _______ _______ _______ _____ _____    ______ ____

>  <TORSDO>
F 7

$$$$
=
 OpenBabel10272400243D

 31 34  0  0  0  0  0  0  0  0999 V2000
  185.0700  178.4120  145.8990 C   0  0  0  0  0  0  0  0  0  0  0  0
  188.2850  177.6720  144.0690 C   0  0  0  0  0  0  0  0  0  0  0  0
  189.2450  177.2990  145.0700 C   0  0  0  0  0  0  0  0  0  0  0  0
  189.7850  176.9120  147.4500 C   0  0  0  0  0  3  0  0  0  0  0  0
  186.9260  178.0330  144.3500 C   0  0  0  0  0  0  0  0  0  0  0  0
  184.2320  178.7500  144.8390 C   0  0  0  0  0  3  0  0  0  0  0  0
  188.9080  177.2560  146.5120 C   0  0  0  0  0  3  0  0  0  0  0  0
  187.8160  178.0400  141.6730 C   0  0  0  0  0  0  0  0  0  0  0  0
  184.5960  178.4270  147.1680 F   0  0  0  0  0  0  0  0  0  0  0  0
  190.9360  176.9780  143.3490 C   0  0  0  0  0  3  0  0  0  0  0  0
  191.1590  176.5490  147.1020 C   0  0  0  0  0  0  0  0  0  0  0  0
  186.5040  178.3780  141.9730 C   0  0  0  0  0  3  0  0  0  0  0  0
  188.7080  177.6830  142.7040 C   0  0  0  0  0  0  0  0  0  0  0  0
  186.3980  178.0590  145.6540 C   0  0  0  0  0  3  0  0  0  0  0  0
  191.9640  176.2290  148.0150 O   0  0  0  0  0  0  0  0  0  0  0  0
  186.0540  178.3820  143.2850 C   0  0  0  0  0  0  0  0  0  0  0  0
  184.7240  178.7330  143.5340 C   0  0  0  0  0  3  0  0  0  0  0  0
  190.0220  177.3370  142.3720 C   0  0  0  0  0  3  0  0  0  0  0  0
  190.5650  176.9550  144.6870 C   0  0  0  0  0  0  0  0  0  0  0  0
  191.6250  176.5530  145.6780 C   0  0  0  0  0  2  0  0  0  0  0  0
  188.2250  178.0360  140.2340 C   0  0  0  0  0  2  0  0  0  0  0  0
  187.0970  178.4190  139.4040 N   0  0  0  0  0  2  0  0  0  0  0  0
  187.4280  178.0260  138.0450 C   0  0  0  0  0  2  0  0  0  0  0  0
  186.1740  177.5670  137.3160 C   0  0  0  0  0  2  0  0  0  0  0  0
  184.9160  178.1550  137.9430 C   0  0  0  0  0  2  0  0  0  0  0  0
  182.6890  178.2510  137.1230 O   0  0  0  0  0  0  0  0  0  0  0  0
  183.6900  177.5280  137.3730 C   0  0  0  0  0  0  0  0  0  0  0  0
  183.1890  175.1650  137.8250 C   0  0  0  0  0  0  0  0  0  0  0  0
  182.5040  175.4140  139.1280 C   0  0  0  0  0  1  0  0  0  0  0  0
  183.2970  173.7630  137.3460 C   0  0  0  0  0  1  0  0  0  0  0  0
  183.6910  176.1180  137.0950 N   0  0  0  0  0  0  0  0  0  0  0  0
  1  9  1  0  0  0  0
  2  5  1  0  0  0  0
  2  3  1  0  0  0  0
  3  7  1  0  0  0  0
  5 14  2  0  0  0  0
  6  1  2  0  0  0  0
  7  4  2  0  0  0  0
  8 12  2  0  0  0  0
  8 13  1  0  0  0  0
 10 19  1  0  0  0  0
 11  4  1  0  0  0  0
 11 15  2  0  0  0  0
 12 16  1  0  0  0  0
 13  2  2  0  0  0  0
 14  1  1  0  0  0  0
 16 17  2  0  0  0  0
 16  5  1  0  0  0  0
 17  6  1  0  0  0  0
 18 13  1  0  0  0  0
 18 10  2  0  0  0  0
 19  3  2  0  0  0  0
 19 20  1  0  0  0  0
 20 11  1  0  0  0  0
 21  8  1  0  0  0  0
 22 21  1  0  0  0  0
 23 22  1  0  0  0  0
 24 25  1  0  0  0  0
 24 23  1  0  0  0  0
 26 27  2  0  0  0  0
 27 25  1  0  0  0  0
 28 29  1  0  0  0  0
 30 28  1  0  0  0  0
 31 27  1  0  0  0  0
 31 28  2  0  0  0  0
M  END
>  <MODEL>
7

>  <REMARK>
 VINA RESULT:      -9.3      2.597      4.086
  Name = 
  7 active torsions:
  status: ('A' for Active; 'I' for Inactive)
    1  A    between atoms: C_3  and  C_19
    2  A    between atoms: C_3  and  C_22
    3  A    between atoms: C_7  and  N_9
    4  A    between atoms: C_7  and  C_22
    5  A    between atoms: N_9  and  C_23
    6  A    between atoms: C_15  and  C_23
    7  A    between atoms: C_19  and  N_24
                            x       y       z     vdW  Elec       q    Type
                         _______ _______ _______ _____ _____    ______ ____

>  <TORSDO>
F 7

$$$$
=
 OpenBabel10272400243D

 31 34  0  0  0  0  0  0  0  0999 V2000
  181.9970  179.0060  142.1480 C   0  0  0  0  0  0  0  0  0  0  0  0
  185.7130  178.3550  142.0620 C   0  0  0  0  0  0  0  0  0  0  0  0
  186.0870  178.3230  140.6760 C   0  0  0  0  0  0  0  0  0  0  0  0
  185.4340  178.4930  138.2980 C   0  0  0  0  0  3  0  0  0  0  0  0
  184.3760  178.5790  142.5310 C   0  0  0  0  0  0  0  0  0  0  0  0
  181.7620  179.0210  143.5210 C   0  0  0  0  0  3  0  0  0  0  0  0
  185.1030  178.5200  139.5860 C   0  0  0  0  0  3  0  0  0  0  0  0
  186.4370  178.1730  144.4150 C   0  0  0  0  0  0  0  0  0  0  0  0
  180.9740  179.2030  141.2830 F   0  0  0  0  0  0  0  0  0  0  0  0
  188.4030  177.9060  141.2960 C   0  0  0  0  0  3  0  0  0  0  0  0
  186.8170  178.2640  137.8800 C   0  0  0  0  0  0  0  0  0  0  0  0
  185.1350  178.3990  144.8420 C   0  0  0  0  0  3  0  0  0  0  0  0
  186.7360  178.1540  143.0390 C   0  0  0  0  0  0  0  0  0  0  0  0
  183.2890  178.7880  141.6640 C   0  0  0  0  0  3  0  0  0  0  0  0
  187.0950  178.2450  136.6520 O   0  0  0  0  0  0  0  0  0  0  0  0
  184.1120  178.5970  143.9260 C   0  0  0  0  0  0  0  0  0  0  0  0
  182.8180  178.8180  144.4070 C   0  0  0  0  0  3  0  0  0  0  0  0
  188.0580  177.9340  142.6360 C   0  0  0  0  0  3  0  0  0  0  0  0
  187.4380  178.0980  140.3150 C   0  0  0  0  0  0  0  0  0  0  0  0
  187.9070  178.0510  138.8850 C   0  0  0  0  0  2  0  0  0  0  0  0
  187.4920  177.9900  145.4590 C   0  0  0  0  0  2  0  0  0  0  0  0
  186.8710  177.8420  146.7630 N   0  0  0  0  0  2  0  0  0  0  0  0
  187.9270  177.4760  147.6900 C   0  0  0  0  0  2  0  0  0  0  0  0
  189.2850  177.6350  147.0220 C   0  0  0  0  0  2  0  0  0  0  0  0
  190.2590  176.5530  147.4720 C   0  0  0  0  0  2  0  0  0  0  0  0
  192.3610  175.6640  146.8150 O   0  0  0  0  0  0  0  0  0  0  0  0
  191.4760  176.5380  146.6130 C   0  0  0  0  0  0  0  0  0  0  0  0
  191.4370  177.3030  144.2780 C   0  0  0  0  0  0  0  0  0  0  0  0
  191.0900  175.9710  143.6990 C   0  0  0  0  0  1  0  0  0  0  0  0
  191.6050  178.4490  143.3470 C   0  0  0  0  0  1  0  0  0  0  0  0
  191.5960  177.5020  145.5540 N   0  0  0  0  0  0  0  0  0  0  0  0
  1  6  1  0  0  0  0
  2  5  2  0  0  0  0
  2 13  1  0  0  0  0
  3  2  1  0  0  0  0
  4  7  2  0  0  0  0
  5 16  1  0  0  0  0
  6 17  2  0  0  0  0
  7  3  1  0  0  0  0
  8 12  1  0  0  0  0
  8 21  1  0  0  0  0
  9  1  1  0  0  0  0
 10 18  2  0  0  0  0
 11  4  1  0  0  0  0
 11 20  1  0  0  0  0
 13  8  2  0  0  0  0
 14  1  2  0  0  0  0
 14  5  1  0  0  0  0
 15 11  2  0  0  0  0
 16 17  1  0  0  0  0
 16 12  2  0  0  0  0
 18 13  1  0  0  0  0
 19  3  2  0  0  0  0
 19 10  1  0  0  0  0
 20 19  1  0  0  0  0
 21 22  1  0  0  0  0
 22 23  1  0  0  0  0
 24 25  1  0  0  0  0
 24 23  1  0  0  0  0
 27 26  2  0  0  0  0
 27 25  1  0  0  0  0
 28 31  2  0  0  0  0
 29 28  1  0  0  0  0
 30 28  1  0  0  0  0
 31 27  1  0  0  0  0
M  END
>  <MODEL>
8

>  <REMARK>
 VINA RESULT:      -9.2      3.034      6.742
  Name = 
  7 active torsions:
  status: ('A' for Active; 'I' for Inactive)
    1  A    between atoms: C_3  and  C_19
    2  A    between atoms: C_3  and  C_22
    3  A    between atoms: C_7  and  N_9
    4  A    between atoms: C_7  and  C_22
    5  A    between atoms: N_9  and  C_23
    6  A    between atoms: C_15  and  C_23
    7  A    between atoms: C_19  and  N_24
                            x       y       z     vdW  Elec       q    Type
                         _______ _______ _______ _____ _____    ______ ____

>  <TORSDO>
F 7

$$$$
=
 OpenBabel10272400243D

 31 34  0  0  0  0  0  0  0  0999 V2000
  190.1330  176.9980  146.9790 C   0  0  0  0  0  0  0  0  0  0  0  0
  188.4780  177.6760  143.6560 C   0  0  0  0  0  0  0  0  0  0  0  0
  189.5070  177.5660  142.6610 C   0  0  0  0  0  0  0  0  0  0  0  0
  191.8750  177.1390  142.0970 C   0  0  0  0  0  3  0  0  0  0  0  0
  188.6920  177.4890  145.0620 C   0  0  0  0  0  0  0  0  0  0  0  0
  189.0500  177.1260  147.8460 C   0  0  0  0  0  3  0  0  0  0  0  0
  190.9110  177.2450  143.0060 C   0  0  0  0  0  3  0  0  0  0  0  0
  186.0980  178.1120  144.1460 C   0  0  0  0  0  0  0  0  0  0  0  0
  191.3600  176.7000  147.4680 F   0  0  0  0  0  0  0  0  0  0  0  0
  187.8900  178.0700  140.9130 C   0  0  0  0  0  3  0  0  0  0  0  0
  191.5940  177.3370  140.6740 C   0  0  0  0  0  0  0  0  0  0  0  0
  186.3330  177.9190  145.5010 C   0  0  0  0  0  3  0  0  0  0  0  0
  187.1530  177.9900  143.2210 C   0  0  0  0  0  0  0  0  0  0  0  0
  189.9520  177.1780  145.6060 C   0  0  0  0  0  3  0  0  0  0  0  0
  192.5300  177.2300  139.8390 O   0  0  0  0  0  0  0  0  0  0  0  0
  187.6040  177.6150  145.9640 C   0  0  0  0  0  0  0  0  0  0  0  0
  187.7880  177.4330  147.3390 C   0  0  0  0  0  3  0  0  0  0  0  0
  186.8870  178.1800  141.8610 C   0  0  0  0  0  3  0  0  0  0  0  0
  189.1900  177.7660  141.2940 C   0  0  0  0  0  0  0  0  0  0  0  0
  190.2140  177.6660  140.1940 C   0  0  0  0  0  2  0  0  0  0  0  0
  184.6980  178.4160  143.7170 C   0  0  0  0  0  2  0  0  0  0  0  0
  183.9260  178.8810  144.8550 N   0  0  0  0  0  2  0  0  0  0  0  0
  182.5270  178.7810  144.4790 C   0  0  0  0  0  2  0  0  0  0  0  0
  182.3460  179.1890  143.0250 C   0  0  0  0  0  2  0  0  0  0  0  0
  180.9780  178.7790  142.4950 C   0  0  0  0  0  2  0  0  0  0  0  0
  180.7050  179.7900  140.3630 O   0  0  0  0  0  0  0  0  0  0  0  0
  180.9700  178.7390  141.0060 C   0  0  0  0  0  0  0  0  0  0  0  0
  182.4570  177.1310  139.8910 C   0  0  0  0  0  0  0  0  0  0  0  0
  183.6860  177.9700  140.0120 C   0  0  0  0  0  1  0  0  0  0  0  0
  182.5750  175.8060  139.2290 C   0  0  0  0  0  1  0  0  0  0  0  0
  181.2950  177.5080  140.3380 N   0  0  0  0  0  0  0  0  0  0  0  0
  1  9  1  0  0  0  0
  1  6  1  0  0  0  0
  2  5  1  0  0  0  0
  3  7  1  0  0  0  0
  3  2  1  0  0  0  0
  4  7  2  0  0  0  0
  5 14  1  0  0  0  0
  5 16  2  0  0  0  0
  8 12  2  0  0  0  0
 10 19  1  0  0  0  0
 10 18  2  0  0  0  0
 11  4  1  0  0  0  0
 12 16  1  0  0  0  0
 13  2  2  0  0  0  0
 13  8  1  0  0  0  0
 14  1  2  0  0  0  0
 15 11  2  0  0  0  0
 16 17  1  0  0  0  0
 17  6  2  0  0  0  0
 18 13  1  0  0  0  0
 19  3  2  0  0  0  0
 20 11  1  0  0  0  0
 20 19  1  0  0  0  0
 21  8  1  0  0  0  0
 21 22  1  0  0  0  0
 23 22  1  0  0  0  0
 24 23  1  0  0  0  0
 25 24  1  0  0  0  0
 26 27  2  0  0  0  0
 27 25  1  0  0  0  0
 28 29  1  0  0  0  0
 28 31  2  0  0  0  0
 30 28  1  0  0  0  0
 31 27  1  0  0  0  0
M  END
>  <MODEL>
9

>  <REMARK>
 VINA RESULT:      -9.1      3.575      6.604
  Name = 
  7 active torsions:
  status: ('A' for Active; 'I' for Inactive)
    1  A    between atoms: C_3  and  C_19
    2  A    between atoms: C_3  and  C_22
    3  A    between atoms: C_7  and  N_9
    4  A    between atoms: C_7  and  C_22
    5  A    between atoms: N_9  and  C_23
    6  A    between atoms: C_15  and  C_23
    7  A    between atoms: C_19  and  N_24
                            x       y       z     vdW  Elec       q    Type
                         _______ _______ _______ _____ _____    ______ ____

>  <TORSDO>
F 7

$$$$
