=
 OpenBabel10272400303D

 31 35  0  0  1  0  0  0  0  0999 V2000
  189.9160  177.4190  147.0850 C   0  0  0  0  0  0  0  0  0  0  0  0
  188.4130  177.5010  143.7280 C   0  0  0  0  0  0  0  0  0  0  0  0
  187.0250  178.0870  143.9890 C   0  0  2  0  0  3  0  0  0  0  0  0
  185.2720  178.0040  145.7750 C   0  0  0  0  0  3  0  0  0  0  0  0
  189.3430  177.2930  144.7740 C   0  0  0  0  0  0  0  0  0  0  0  0
  191.1710  176.8630  146.8330 C   0  0  0  0  0  3  0  0  0  0  0  0
  186.3490  177.4680  145.1790 C   0  0  0  0  0  3  0  0  0  0  0  0
  190.0850  176.6940  142.1240 C   0  0  0  0  0  0  0  0  0  0  0  0
  189.5500  177.7720  148.4130 N   0  0  0  0  0  1  0  0  0  0  0  0
  186.7790  178.4160  141.5060 C   0  0  0  0  0  2  0  0  0  0  0  0
  184.5960  179.3070  145.3990 C   0  0  0  0  0  2  0  0  0  0  0  0
  190.9670  176.4390  143.1780 C   0  0  0  0  0  3  0  0  0  0  0  0
  188.8280  177.2590  142.3940 C   0  0  0  0  0  0  0  0  0  0  0  0
  189.0410  177.6200  146.0630 N   0  0  0  0  0  0  0  0  0  0  0  0
  184.7980  179.8050  143.9610 C   0  0  0  0  0  2  0  0  0  0  0  0
  190.6120  176.7440  144.4870 C   0  0  0  0  0  0  0  0  0  0  0  0
  191.5190  176.5260  145.5260 C   0  0  0  0  0  3  0  0  0  0  0  0
  187.9660  177.6030  141.3010 N   0  0  0  0  0  2  0  0  0  0  0  0
  186.0820  177.9550  142.7710 C   0  0  2  0  0  3  0  0  0  0  0  0
  184.7370  178.6780  142.9350 C   0  0  0  0  0  2  0  0  0  0  0  0
  192.2300  177.9220  140.5240 O   0  0  0  0  0  0  0  0  0  0  0  0
  191.5000  177.0360  140.0010 C   0  0  0  0  0  0  0  0  0  0  0  0
  190.4510  176.4170  140.7620 N   0  0  0  0  0  2  0  0  0  0  0  0
  192.2240  175.8350  135.9450 C   0  0  0  0  0  0  0  0  0  0  0  0
  193.0270  176.3350  138.1700 C   0  0  0  0  0  3  0  0  0  0  0  0
  189.3810  176.7790  138.0290 F   0  0  0  0  0  0  0  0  0  0  0  0
  192.4900  175.4190  134.5430 C   0  0  0  0  0  1  0  0  0  0  0  0
  193.2790  175.9440  136.8530 C   0  0  0  0  0  3  0  0  0  0  0  0
  190.6620  176.5120  137.6710 C   0  0  0  0  0  0  0  0  0  0  0  0
  191.7220  176.6240  138.5960 C   0  0  0  0  0  0  0  0  0  0  0  0
  190.9200  176.1190  136.3530 C   0  0  0  0  0  3  0  0  0  0  0  0
  1  9  1  0  0  0  0
  2  3  1  0  0  0  0
  2  5  1  0  0  0  0
  3  7  1  1  0  0  0
  5 14  1  0  0  0  0
  6  1  1  0  0  0  0
  7  4  2  0  0  0  0
  8 13  1  0  0  0  0
  8 12  2  0  0  0  0
 11  4  1  0  0  0  0
 12 16  1  0  0  0  0
 13  2  2  0  0  0  0
 14  1  2  0  0  0  0
 15 11  1  0  0  0  0
 16  5  2  0  0  0  0
 16 17  1  0  0  0  0
 17  6  2  0  0  0  0
 18 10  1  0  0  0  0
 18 13  1  0  0  0  0
 19 10  1  6  0  0  0
 19 20  1  0  0  0  0
 19  3  1  0  0  0  0
 20 15  1  0  0  0  0
 22 21  2  0  0  0  0
 22 23  1  0  0  0  0
 23  8  1  0  0  0  0
 24 31  2  0  0  0  0
 24 28  1  0  0  0  0
 25 30  1  0  0  0  0
 27 24  1  0  0  0  0
 28 25  2  0  0  0  0
 29 26  1  0  0  0  0
 29 30  2  0  0  0  0
 30 22  1  0  0  0  0
 31 29  1  0  0  0  0
M  END
>  <MODEL>
1

>  <REMARK>
 VINA RESULT:     -10.8      0.000      0.000
  Name = 
  2 active torsions:
  status: ('A' for Active; 'I' for Inactive)
    1  A    between atoms: C_9  and  C_22
    2  A    between atoms: C_15  and  N_23
                            x       y       z     vdW  Elec       q    Type
                         _______ _______ _______ _____ _____    ______ ____

>  <TORSDO>
F 2

$$$$
=
 OpenBabel10272400303D

 31 35  0  0  1  0  0  0  0  0999 V2000
  190.4960  177.2710  142.6700 C   0  0  0  0  0  0  0  0  0  0  0  0
  186.9760  178.3070  142.9420 C   0  0  0  0  0  0  0  0  0  0  0  0
  186.7350  178.3070  144.4510 C   0  0  2  0  0  3  0  0  0  0  0  0
  187.4590  176.9920  146.4550 C   0  0  0  0  0  3  0  0  0  0  0  0
  188.2310  177.9590  142.3870 C   0  0  0  0  0  0  0  0  0  0  0  0
  190.6930  177.2540  141.2890 C   0  0  0  0  0  3  0  0  0  0  0  0
  187.2880  177.0840  145.1270 C   0  0  0  0  0  3  0  0  0  0  0  0
  186.1360  178.7560  140.6800 C   0  0  0  0  0  0  0  0  0  0  0  0
  191.5610  176.9190  143.5430 N   0  0  0  0  0  1  0  0  0  0  0  0
  184.5890  179.5540  144.0340 C   0  0  0  0  0  2  0  0  0  0  0  0
  187.1800  178.0800  147.4720 C   0  0  0  0  0  2  0  0  0  0  0  0
  187.3640  178.3500  140.1480 C   0  0  0  0  0  3  0  0  0  0  0  0
  185.9560  178.7720  142.0730 C   0  0  0  0  0  0  0  0  0  0  0  0
  189.2850  177.6190  143.1830 N   0  0  0  0  0  0  0  0  0  0  0  0
  186.1720  179.1650  147.0710 C   0  0  0  0  0  2  0  0  0  0  0  0
  188.4060  177.9670  140.9860 C   0  0  0  0  0  0  0  0  0  0  0  0
  189.6410  177.6060  140.4440 C   0  0  0  0  0  3  0  0  0  0  0  0
  184.7290  179.2760  142.6140 N   0  0  0  0  0  2  0  0  0  0  0  0
  185.2380  178.4300  144.8190 C   0  0  2  0  0  3  0  0  0  0  0  0
  184.9690  178.6010  146.3200 C   0  0  0  0  0  2  0  0  0  0  0  0
  183.6880  177.2940  139.9520 O   0  0  0  0  0  0  0  0  0  0  0  0
  183.8780  178.4500  139.4850 C   0  0  0  0  0  0  0  0  0  0  0  0
  185.0610  179.1880  139.8300 N   0  0  0  0  0  2  0  0  0  0  0  0
  180.9840  180.2870  136.9020 C   0  0  0  0  0  0  0  0  0  0  0  0
  182.4400  180.3680  138.8310 C   0  0  0  0  0  3  0  0  0  0  0  0
  182.7420  177.1010  137.1750 F   0  0  0  0  0  0  0  0  0  0  0  0
  179.9820  180.9350  136.0170 C   0  0  0  0  0  1  0  0  0  0  0  0
  181.4980  180.9790  138.0000 C   0  0  0  0  0  3  0  0  0  0  0  0
  182.3530  178.3670  137.4660 C   0  0  0  0  0  0  0  0  0  0  0  0
  182.8790  179.0600  138.5780 C   0  0  0  0  0  0  0  0  0  0  0  0
  181.4100  178.9850  136.6380 C   0  0  0  0  0  3  0  0  0  0  0  0
  1 14  1  0  0  0  0
  1  9  1  0  0  0  0
  2  3  1  0  0  0  0
  3 19  1  0  0  0  0
  3  7  1  6  0  0  0
  4 11  1  0  0  0  0
  5  2  1  0  0  0  0
  5 14  2  0  0  0  0
  6  1  2  0  0  0  0
  7  4  2  0  0  0  0
  8 13  1  0  0  0  0
 12  8  2  0  0  0  0
 12 16  1  0  0  0  0
 13 18  1  0  0  0  0
 13  2  2  0  0  0  0
 15 11  1  0  0  0  0
 16  5  1  0  0  0  0
 17 16  2  0  0  0  0
 17  6  1  0  0  0  0
 18 10  1  0  0  0  0
 19 10  1  6  0  0  0
 19 20  1  0  0  0  0
 20 15  1  0  0  0  0
 22 23  1  0  0  0  0
 22 21  2  0  0  0  0
 23  8  1  0  0  0  0
 24 28  1  0  0  0  0
 26 29  1  0  0  0  0
 27 24  1  0  0  0  0
 28 25  2  0  0  0  0
 29 30  2  0  0  0  0
 30 25  1  0  0  0  0
 30 22  1  0  0  0  0
 31 24  2  0  0  0  0
 31 29  1  0  0  0  0
M  END
>  <MODEL>
2

>  <REMARK>
 VINA RESULT:      -9.9      4.049      6.683
  Name = 
  2 active torsions:
  status: ('A' for Active; 'I' for Inactive)
    1  A    between atoms: C_9  and  C_22
    2  A    between atoms: C_15  and  N_23
                            x       y       z     vdW  Elec       q    Type
                         _______ _______ _______ _____ _____    ______ ____

>  <TORSDO>
F 2

$$$$
=
 OpenBabel10272400303D

 31 35  0  0  1  0  0  0  0  0999 V2000
  185.2080  178.5500  145.0800 C   0  0  0  0  0  0  0  0  0  0  0  0
  188.4830  177.4390  143.8240 C   0  0  0  0  0  0  0  0  0  0  0  0
  189.2870  177.2290  145.1070 C   0  0  2  0  0  3  0  0  0  0  0  0
  189.4810  178.2660  147.3780 C   0  0  0  0  0  3  0  0  0  0  0  0
  187.1370  177.8770  143.8520 C   0  0  0  0  0  0  0  0  0  0  0  0
  184.4940  178.7590  143.8990 C   0  0  0  0  0  3  0  0  0  0  0  0
  189.1200  178.3540  146.0880 C   0  0  0  0  0  3  0  0  0  0  0  0
  188.3530  177.2950  141.3780 C   0  0  0  0  0  0  0  0  0  0  0  0
  184.5870  178.7920  146.3360 N   0  0  0  0  0  1  0  0  0  0  0  0
  191.0190  176.0230  143.7350 C   0  0  0  0  0  2  0  0  0  0  0  0
  190.0590  177.0440  148.0640 C   0  0  0  0  0  2  0  0  0  0  0  0
  187.0450  177.7870  141.4230 C   0  0  0  0  0  3  0  0  0  0  0  0
  189.0550  177.0850  142.5760 C   0  0  0  0  0  0  0  0  0  0  0  0
  186.4960  178.1180  145.0310 N   0  0  0  0  0  0  0  0  0  0  0  0
  190.7600  176.0110  147.1720 C   0  0  0  0  0  2  0  0  0  0  0  0
  186.4340  178.0640  142.6410 C   0  0  0  0  0  0  0  0  0  0  0  0
  185.1130  178.5120  142.6740 C   0  0  0  0  0  3  0  0  0  0  0  0
  190.3600  176.4950  142.5280 N   0  0  0  0  0  2  0  0  0  0  0  0
  190.7980  177.0370  144.8410 C   0  0  2  0  0  3  0  0  0  0  0  0
  191.6140  176.6580  146.0850 C   0  0  0  0  0  2  0  0  0  0  0  0
  188.9660  179.0870  139.1250 O   0  0  0  0  0  0  0  0  0  0  0  0
  189.2680  177.8650  139.0410 C   0  0  0  0  0  0  0  0  0  0  0  0
  188.9850  176.9700  140.1290 N   0  0  0  0  0  2  0  0  0  0  0  0
  191.2220  176.3200  135.5470 C   0  0  0  0  0  0  0  0  0  0  0  0
  191.1510  176.6770  137.9380 C   0  0  0  0  0  3  0  0  0  0  0  0
  188.1580  178.1220  136.3680 F   0  0  0  0  0  0  0  0  0  0  0  0
  191.9110  175.7800  134.3460 C   0  0  0  0  0  1  0  0  0  0  0  0
  191.8000  176.1690  136.8090 C   0  0  0  0  0  3  0  0  0  0  0  0
  189.3450  177.4890  136.5390 C   0  0  0  0  0  0  0  0  0  0  0  0
  189.9210  177.3420  137.8200 C   0  0  0  0  0  0  0  0  0  0  0  0
  190.0000  176.9780  135.4140 C   0  0  0  0  0  3  0  0  0  0  0  0
  1  9  1  0  0  0  0
  2  5  1  0  0  0  0
  2  3  1  0  0  0  0
  3  7  1  1  0  0  0
  4 11  1  0  0  0  0
  5 14  2  0  0  0  0
  6  1  2  0  0  0  0
  7  4  2  0  0  0  0
  8 12  2  0  0  0  0
  8 13  1  0  0  0  0
 12 16  1  0  0  0  0
 13  2  2  0  0  0  0
 14  1  1  0  0  0  0
 15 11  1  0  0  0  0
 16 17  2  0  0  0  0
 16  5  1  0  0  0  0
 17  6  1  0  0  0  0
 18 13  1  0  0  0  0
 18 10  1  0  0  0  0
 19 10  1  6  0  0  0
 19  3  1  0  0  0  0
 19 20  1  0  0  0  0
 20 15  1  0  0  0  0
 22 21  2  0  0  0  0
 22 23  1  0  0  0  0
 23  8  1  0  0  0  0
 24 28  1  0  0  0  0
 26 29  1  0  0  0  0
 27 24  1  0  0  0  0
 28 25  2  0  0  0  0
 29 30  2  0  0  0  0
 30 25  1  0  0  0  0
 30 22  1  0  0  0  0
 31 24  2  0  0  0  0
 31 29  1  0  0  0  0
M  END
>  <MODEL>
3

>  <REMARK>
 VINA RESULT:      -9.6      1.626      4.178
  Name = 
  2 active torsions:
  status: ('A' for Active; 'I' for Inactive)
    1  A    between atoms: C_9  and  C_22
    2  A    between atoms: C_15  and  N_23
                            x       y       z     vdW  Elec       q    Type
                         _______ _______ _______ _____ _____    ______ ____

>  <TORSDO>
F 2

$$$$
=
 OpenBabel10272400303D

 31 35  0  0  1  0  0  0  0  0999 V2000
  186.6860  177.8120  145.8570 C   0  0  0  0  0  0  0  0  0  0  0  0
  186.9910  178.3560  142.2310 C   0  0  0  0  0  0  0  0  0  0  0  0
  188.4300  177.9280  141.9410 C   0  0  2  0  0  3  0  0  0  0  0  0
  190.6630  178.0090  143.0700 C   0  0  0  0  0  3  0  0  0  0  0  0
  186.4470  178.3060  143.5370 C   0  0  0  0  0  0  0  0  0  0  0  0
  185.3790  178.2280  146.1090 C   0  0  0  0  0  3  0  0  0  0  0  0
  189.4100  178.4730  142.9410 C   0  0  0  0  0  3  0  0  0  0  0  0
  184.8220  179.1370  141.3920 C   0  0  0  0  0  0  0  0  0  0  0  0
  187.5000  177.3430  146.9250 N   0  0  0  0  0  1  0  0  0  0  0  0
  187.8640  177.9530  139.4890 C   0  0  0  0  0  2  0  0  0  0  0  0
  191.2790  176.8640  142.2920 C   0  0  0  0  0  2  0  0  0  0  0  0
  184.3220  179.1390  142.6980 C   0  0  0  0  0  3  0  0  0  0  0  0
  186.1390  178.7110  141.1550 C   0  0  0  0  0  0  0  0  0  0  0  0
  187.1860  177.8590  144.5930 N   0  0  0  0  0  0  0  0  0  0  0  0
  190.6530  176.5320  140.9300 C   0  0  0  0  0  2  0  0  0  0  0  0
  185.1150  178.7170  143.7600 C   0  0  0  0  0  0  0  0  0  0  0  0
  184.5900  178.6810  145.0520 C   0  0  0  0  0  3  0  0  0  0  0  0
  186.6140  178.6250  139.8060 N   0  0  0  0  0  2  0  0  0  0  0  0
  188.9020  178.3360  140.5260 C   0  0  2  0  0  3  0  0  0  0  0  0
  190.2790  177.7800  140.1360 C   0  0  0  0  0  2  0  0  0  0  0  0
  182.3530  177.8790  140.3990 O   0  0  0  0  0  0  0  0  0  0  0  0
  182.8040  178.9000  139.8120 C   0  0  0  0  0  0  0  0  0  0  0  0
  184.0040  179.5360  140.2800 N   0  0  0  0  0  2  0  0  0  0  0  0
  180.7490  180.5780  136.4380 C   0  0  0  0  0  0  0  0  0  0  0  0
  181.6460  180.7820  138.6750 C   0  0  0  0  0  3  0  0  0  0  0  0
  182.2790  177.4010  137.3780 F   0  0  0  0  0  0  0  0  0  0  0  0
  180.0360  181.1720  135.2780 C   0  0  0  0  0  1  0  0  0  0  0  0
  180.9760  181.3420  137.5850 C   0  0  0  0  0  3  0  0  0  0  0  0
  181.8640  178.6890  137.4710 C   0  0  0  0  0  0  0  0  0  0  0  0
  182.0980  179.4530  138.6340 C   0  0  0  0  0  0  0  0  0  0  0  0
  181.1920  179.2560  136.3830 C   0  0  0  0  0  3  0  0  0  0  0  0
  1  6  1  0  0  0  0
  1  9  1  0  0  0  0
  2  5  1  0  0  0  0
  3  2  1  0  0  0  0
  3  7  1  1  0  0  0
  5 16  2  0  0  0  0
  5 14  1  0  0  0  0
  7  4  2  0  0  0  0
  8 12  2  0  0  0  0
 10 18  1  0  0  0  0
 11  4  1  0  0  0  0
 12 16  1  0  0  0  0
 13  8  1  0  0  0  0
 13  2  2  0  0  0  0
 14  1  2  0  0  0  0
 15 11  1  0  0  0  0
 16 17  1  0  0  0  0
 17  6  2  0  0  0  0
 18 13  1  0  0  0  0
 19 10  1  6  0  0  0
 19  3  1  0  0  0  0
 20 19  1  0  0  0  0
 20 15  1  0  0  0  0
 22 23  1  0  0  0  0
 22 21  2  0  0  0  0
 23  8  1  0  0  0  0
 24 28  1  0  0  0  0
 26 29  1  0  0  0  0
 27 24  1  0  0  0  0
 28 25  2  0  0  0  0
 29 30  2  0  0  0  0
 30 25  1  0  0  0  0
 30 22  1  0  0  0  0
 31 24  2  0  0  0  0
 31 29  1  0  0  0  0
M  END
>  <MODEL>
4

>  <REMARK>
 VINA RESULT:      -9.5      4.307      7.484
  Name = 
  2 active torsions:
  status: ('A' for Active; 'I' for Inactive)
    1  A    between atoms: C_9  and  C_22
    2  A    between atoms: C_15  and  N_23
                            x       y       z     vdW  Elec       q    Type
                         _______ _______ _______ _____ _____    ______ ____

>  <TORSDO>
F 2

$$$$
=
 OpenBabel10272400303D

 31 35  0  0  1  0  0  0  0  0999 V2000
  184.1450  178.8240  144.2740 C   0  0  0  0  0  0  0  0  0  0  0  0
  187.6460  177.7040  144.1180 C   0  0  0  0  0  0  0  0  0  0  0  0
  188.0240  177.5550  145.5920 C   0  0  2  0  0  3  0  0  0  0  0  0
  187.5200  178.6840  147.7690 C   0  0  0  0  0  3  0  0  0  0  0  0
  186.3560  178.1260  143.7180 C   0  0  0  0  0  0  0  0  0  0  0  0
  183.8240  178.9770  142.9250 C   0  0  0  0  0  3  0  0  0  0  0  0
  187.5670  178.7170  146.4280 C   0  0  0  0  0  3  0  0  0  0  0  0
  188.2650  177.4600  141.7560 C   0  0  0  0  0  0  0  0  0  0  0  0
  183.1730  179.1090  145.2710 N   0  0  0  0  0  1  0  0  0  0  0  0
  190.0890  176.3160  144.8610 C   0  0  0  0  0  2  0  0  0  0  0  0
  187.8620  177.4980  148.6490 C   0  0  0  0  0  2  0  0  0  0  0  0
  187.0050  177.9370  141.3810 C   0  0  0  0  0  3  0  0  0  0  0  0
  188.5700  177.3070  143.1180 C   0  0  0  0  0  0  0  0  0  0  0  0
  185.3880  178.4060  144.6360 N   0  0  0  0  0  0  0  0  0  0  0  0
  188.8000  176.4390  148.0550 C   0  0  0  0  0  2  0  0  0  0  0  0
  186.0540  178.2560  142.3440 C   0  0  0  0  0  0  0  0  0  0  0  0
  184.7850  178.6890  141.9560 C   0  0  0  0  0  3  0  0  0  0  0  0
  189.8280  176.7320  143.4920 N   0  0  0  0  0  2  0  0  0  0  0  0
  189.5440  177.3710  145.8050 C   0  0  2  0  0  3  0  0  0  0  0  0
  189.9440  177.0520  147.2520 C   0  0  0  0  0  2  0  0  0  0  0  0
  188.9040  178.8170  139.2240 O   0  0  0  0  0  0  0  0  0  0  0  0
  189.5350  177.7720  139.5390 C   0  0  0  0  0  0  0  0  0  0  0  0
  189.2460  177.0930  140.7720 N   0  0  0  0  0  2  0  0  0  0  0  0
  192.6250  176.2190  136.9970 C   0  0  0  0  0  0  0  0  0  0  0  0
  191.8780  177.0460  139.1440 C   0  0  0  0  0  3  0  0  0  0  0  0
  189.0830  177.0660  136.7560 F   0  0  0  0  0  0  0  0  0  0  0  0
  193.7050  175.6830  136.1290 C   0  0  0  0  0  1  0  0  0  0  0  0
  192.8950  176.5420  138.3290 C   0  0  0  0  0  3  0  0  0  0  0  0
  190.3180  176.9050  137.2930 C   0  0  0  0  0  0  0  0  0  0  0  0
  190.5820  177.2340  138.6410 C   0  0  0  0  0  0  0  0  0  0  0  0
  191.3400  176.4000  136.4830 C   0  0  0  0  0  3  0  0  0  0  0  0
  1 14  1  0  0  0  0
  1  9  1  0  0  0  0
  2  3  1  0  0  0  0
  3 19  1  0  0  0  0
  3  7  1  1  0  0  0
  4 11  1  0  0  0  0
  5  2  1  0  0  0  0
  5 14  2  0  0  0  0
  6  1  2  0  0  0  0
  7  4  2  0  0  0  0
  8 13  1  0  0  0  0
 12  8  2  0  0  0  0
 12 16  1  0  0  0  0
 13 18  1  0  0  0  0
 13  2  2  0  0  0  0
 15 11  1  0  0  0  0
 16  5  1  0  0  0  0
 17 16  2  0  0  0  0
 17  6  1  0  0  0  0
 18 10  1  0  0  0  0
 19 10  1  6  0  0  0
 19 20  1  0  0  0  0
 20 15  1  0  0  0  0
 21 22  2  0  0  0  0
 22 23  1  0  0  0  0
 23  8  1  0  0  0  0
 24 28  1  0  0  0  0
 26 29  1  0  0  0  0
 27 24  1  0  0  0  0
 28 25  2  0  0  0  0
 29 30  2  0  0  0  0
 30 25  1  0  0  0  0
 30 22  1  0  0  0  0
 31 24  2  0  0  0  0
 31 29  1  0  0  0  0
M  END
>  <MODEL>
5

>  <REMARK>
 VINA RESULT:      -9.4      1.967      4.175
  Name = 
  2 active torsions:
  status: ('A' for Active; 'I' for Inactive)
    1  A    between atoms: C_9  and  C_22
    2  A    between atoms: C_15  and  N_23
                            x       y       z     vdW  Elec       q    Type
                         _______ _______ _______ _____ _____    ______ ____

>  <TORSDO>
F 2

$$$$
=
 OpenBabel10272400303D

 31 35  0  0  1  0  0  0  0  0999 V2000
  185.5490  178.4450  143.7110 C   0  0  0  0  0  0  0  0  0  0  0  0
  189.0750  177.5070  143.2370 C   0  0  0  0  0  0  0  0  0  0  0  0
  189.5410  177.2000  144.6600 C   0  0  2  0  0  3  0  0  0  0  0  0
  189.1220  178.0380  146.9820 C   0  0  0  0  0  3  0  0  0  0  0  0
  187.7490  177.9170  142.9590 C   0  0  0  0  0  0  0  0  0  0  0  0
  185.1460  178.7440  142.4090 C   0  0  0  0  0  3  0  0  0  0  0  0
  189.0900  178.2330  145.6540 C   0  0  0  0  0  3  0  0  0  0  0  0
  189.5660  177.5740  140.8340 C   0  0  0  0  0  0  0  0  0  0  0  0
  184.6260  178.5660  144.7850 N   0  0  0  0  0  1  0  0  0  0  0  0
  191.6070  176.1500  143.6770 C   0  0  0  0  0  2  0  0  0  0  0  0
  189.5570  176.7720  147.6920 C   0  0  0  0  0  2  0  0  0  0  0  0
  188.2700  178.0370  140.5860 C   0  0  0  0  0  3  0  0  0  0  0  0
  189.9550  177.2740  142.1490 C   0  0  0  0  0  0  0  0  0  0  0  0
  186.8250  178.0430  143.9540 N   0  0  0  0  0  0  0  0  0  0  0  0
  190.4990  175.8340  146.9260 C   0  0  0  0  0  2  0  0  0  0  0  0
  187.3640  178.1960  141.6290 C   0  0  0  0  0  0  0  0  0  0  0  0
  186.0600  178.6160  141.3640 C   0  0  0  0  0  3  0  0  0  0  0  0
  191.2530  176.7140  142.3850 N   0  0  0  0  0  2  0  0  0  0  0  0
  191.0770  177.0590  144.7700 C   0  0  2  0  0  3  0  0  0  0  0  0
  191.5710  176.5880  146.1440 C   0  0  0  0  0  2  0  0  0  0  0  0
  189.5210  175.5080  138.7390 O   0  0  0  0  0  0  0  0  0  0  0  0
  190.4600  176.3490  138.7550 C   0  0  0  0  0  0  0  0  0  0  0  0
  190.5030  177.3710  139.7630 N   0  0  0  0  0  2  0  0  0  0  0  0
  193.4990  176.1630  135.7300 C   0  0  0  0  0  0  0  0  0  0  0  0
  191.1840  175.9820  136.4060 C   0  0  0  0  0  3  0  0  0  0  0  0
  193.2710  176.8430  139.3080 F   0  0  0  0  0  0  0  0  0  0  0  0
  194.5400  176.0950  134.6720 C   0  0  0  0  0  1  0  0  0  0  0  0
  192.1620  175.9170  135.4110 C   0  0  0  0  0  3  0  0  0  0  0  0
  192.8830  176.5380  138.0440 C   0  0  0  0  0  0  0  0  0  0  0  0
  191.5280  176.2910  137.7310 C   0  0  0  0  0  0  0  0  0  0  0  0
  193.8570  176.4720  137.0430 C   0  0  0  0  0  3  0  0  0  0  0  0
  1 14  1  0  0  0  0
  1  9  1  0  0  0  0
  2  3  1  0  0  0  0
  3 19  1  0  0  0  0
  3  7  1  1  0  0  0
  4 11  1  0  0  0  0
  5  2  1  0  0  0  0
  5 14  2  0  0  0  0
  6  1  2  0  0  0  0
  7  4  2  0  0  0  0
  8 13  1  0  0  0  0
 12  8  2  0  0  0  0
 12 16  1  0  0  0  0
 13 18  1  0  0  0  0
 13  2  2  0  0  0  0
 15 11  1  0  0  0  0
 16  5  1  0  0  0  0
 17 16  2  0  0  0  0
 17  6  1  0  0  0  0
 18 10  1  0  0  0  0
 19 10  1  6  0  0  0
 19 20  1  0  0  0  0
 20 15  1  0  0  0  0
 21 22  2  0  0  0  0
 22 23  1  0  0  0  0
 23  8  1  0  0  0  0
 24 31  1  0  0  0  0
 25 30  2  0  0  0  0
 27 24  1  0  0  0  0
 28 24  2  0  0  0  0
 28 25  1  0  0  0  0
 29 26  1  0  0  0  0
 30 29  1  0  0  0  0
 30 22  1  0  0  0  0
 31 29  2  0  0  0  0
M  END
>  <MODEL>
6

>  <REMARK>
 VINA RESULT:      -9.4      1.898      4.290
  Name = 
  2 active torsions:
  status: ('A' for Active; 'I' for Inactive)
    1  A    between atoms: C_9  and  C_22
    2  A    between atoms: C_15  and  N_23
                            x       y       z     vdW  Elec       q    Type
                         _______ _______ _______ _____ _____    ______ ____

>  <TORSDO>
F 2

$$$$
=
 OpenBabel10272400303D

 31 35  0  0  1  0  0  0  0  0999 V2000
  182.5450  179.0020  139.6120 C   0  0  0  0  0  0  0  0  0  0  0  0
  186.1310  178.3020  140.0390 C   0  0  0  0  0  0  0  0  0  0  0  0
  186.6460  178.2690  138.6000 C   0  0  2  0  0  3  0  0  0  0  0  0
  185.8350  177.5450  136.3450 C   0  0  0  0  0  3  0  0  0  0  0  0
  184.7690  178.5460  140.3370 C   0  0  0  0  0  0  0  0  0  0  0  0
  182.0860  179.0060  140.9300 C   0  0  0  0  0  3  0  0  0  0  0  0
  185.7570  177.4780  137.6830 C   0  0  0  0  0  3  0  0  0  0  0  0
  186.6060  178.1920  142.4430 C   0  0  0  0  0  0  0  0  0  0  0  0
  181.6350  179.2290  138.5430 N   0  0  0  0  0  1  0  0  0  0  0  0
  188.9890  178.3550  139.5150 C   0  0  0  0  0  2  0  0  0  0  0  0
  186.7680  178.4310  135.5440 C   0  0  0  0  0  2  0  0  0  0  0  0
  185.2470  178.3730  142.7160 C   0  0  0  0  0  3  0  0  0  0  0  0
  187.0520  178.1950  141.1120 C   0  0  0  0  0  0  0  0  0  0  0  0
  183.8590  178.7750  139.3480 N   0  0  0  0  0  0  0  0  0  0  0  0
  188.0490  178.9030  136.2450 C   0  0  0  0  0  2  0  0  0  0  0  0
  184.3370  178.5620  141.6810 C   0  0  0  0  0  0  0  0  0  0  0  0
  182.9890  178.7860  141.9690 C   0  0  0  0  0  3  0  0  0  0  0  0
  188.4570  178.1000  140.8440 N   0  0  0  0  0  2  0  0  0  0  0  0
  188.0810  177.7030  138.4910 C   0  0  2  0  0  3  0  0  0  0  0  0
  188.6960  177.8070  137.0880 C   0  0  0  0  0  2  0  0  0  0  0  0
  188.0270  175.7470  143.2620 O   0  0  0  0  0  0  0  0  0  0  0  0
  188.2400  176.8220  143.8860 C   0  0  0  0  0  0  0  0  0  0  0  0
  187.5640  178.0310  143.5020 N   0  0  0  0  0  2  0  0  0  0  0  0
  191.0630  176.8890  147.1170 C   0  0  0  0  0  0  0  0  0  0  0  0
  190.5630  176.6970  144.7590 C   0  0  0  0  0  3  0  0  0  0  0  0
  187.4540  177.1740  146.6620 F   0  0  0  0  0  0  0  0  0  0  0  0
  192.0530  176.9090  148.2260 C   0  0  0  0  0  1  0  0  0  0  0  0
  191.4940  176.7160  145.8000 C   0  0  0  0  0  3  0  0  0  0  0  0
  188.7660  177.0220  146.3540 C   0  0  0  0  0  0  0  0  0  0  0  0
  189.1920  176.8490  145.0190 C   0  0  0  0  0  0  0  0  0  0  0  0
  189.7040  177.0410  147.3920 C   0  0  0  0  0  3  0  0  0  0  0  0
  1  6  1  0  0  0  0
  2  5  2  0  0  0  0
  2 13  1  0  0  0  0
  3  7  1  6  0  0  0
  3  2  1  0  0  0  0
  4  7  2  0  0  0  0
  5 16  1  0  0  0  0
  6 17  2  0  0  0  0
  8 12  1  0  0  0  0
  8 23  1  0  0  0  0
  9  1  1  0  0  0  0
 10 18  1  0  0  0  0
 11 15  1  0  0  0  0
 11  4  1  0  0  0  0
 13  8  2  0  0  0  0
 14  1  2  0  0  0  0
 14  5  1  0  0  0  0
 15 20  1  0  0  0  0
 16 17  1  0  0  0  0
 16 12  2  0  0  0  0
 18 13  1  0  0  0  0
 19 20  1  6  0  0  0
 19  3  1  0  0  0  0
 19 10  1  0  0  0  0
 21 22  2  0  0  0  0
 22 30  1  0  0  0  0
 23 22  1  0  0  0  0
 24 31  1  0  0  0  0
 24 27  1  0  0  0  0
 25 30  2  0  0  0  0
 25 28  1  0  0  0  0
 28 24  2  0  0  0  0
 29 26  1  0  0  0  0
 29 31  2  0  0  0  0
 30 29  1  0  0  0  0
M  END
>  <MODEL>
7

>  <REMARK>
 VINA RESULT:      -9.0      3.343      8.062
  Name = 
  2 active torsions:
  status: ('A' for Active; 'I' for Inactive)
    1  A    between atoms: C_9  and  C_22
    2  A    between atoms: C_15  and  N_23
                            x       y       z     vdW  Elec       q    Type
                         _______ _______ _______ _____ _____    ______ ____

>  <TORSDO>
F 2

$$$$
=
 OpenBabel10272400303D

 31 35  0  0  1  0  0  0  0  0999 V2000
  192.4540  176.1570  136.3510 C   0  0  0  0  0  0  0  0  0  0  0  0
  189.6200  177.2480  138.4270 C   0  0  0  0  0  0  0  0  0  0  0  0
  188.4910  177.4060  137.4080 C   0  0  2  0  0  3  0  0  0  0  0  0
  188.2150  178.1330  135.0280 C   0  0  0  0  0  3  0  0  0  0  0  0
  190.9170  176.8340  138.0430 C   0  0  0  0  0  0  0  0  0  0  0  0
  193.4800  176.0400  137.2900 C   0  0  0  0  0  3  0  0  0  0  0  0
  188.9280  178.1290  136.1650 C   0  0  0  0  0  3  0  0  0  0  0  0
  190.3620  177.3030  140.7640 C   0  0  0  0  0  0  0  0  0  0  0  0
  192.7110  175.8740  134.9810 N   0  0  0  0  0  1  0  0  0  0  0  0
  186.8750  177.5500  139.3320 C   0  0  0  0  0  2  0  0  0  0  0  0
  186.9130  177.3980  134.7840 C   0  0  0  0  0  2  0  0  0  0  0  0
  191.6530  176.9530  140.3580 C   0  0  0  0  0  3  0  0  0  0  0  0
  189.3400  177.4120  139.8070 C   0  0  0  0  0  0  0  0  0  0  0  0
  191.2120  176.5460  136.7430 N   0  0  0  0  0  0  0  0  0  0  0  0
  186.0710  177.0460  136.0180 C   0  0  0  0  0  2  0  0  0  0  0  0
  191.9310  176.7080  139.0180 C   0  0  0  0  0  0  0  0  0  0  0  0
  193.2140  176.3160  138.6310 C   0  0  0  0  0  3  0  0  0  0  0  0
  188.0010  177.6810  140.2410 N   0  0  0  0  0  2  0  0  0  0  0  0
  187.2590  178.1390  137.9880 C   0  0  2  0  0  3  0  0  0  0  0  0
  186.0440  178.1700  137.0500 C   0  0  0  0  0  2  0  0  0  0  0  0
  190.0440  175.3080  142.9050 O   0  0  0  0  0  0  0  0  0  0  0  0
  189.8950  176.5310  143.1750 C   0  0  0  0  0  0  0  0  0  0  0  0
  190.0510  177.5250  142.1500 N   0  0  0  0  0  2  0  0  0  0  0  0
  188.8470  177.7700  147.1480 C   0  0  0  0  0  0  0  0  0  0  0  0
  188.2440  177.3430  144.8450 C   0  0  0  0  0  3  0  0  0  0  0  0
  191.8100  176.6120  145.3600 F   0  0  0  0  0  0  0  0  0  0  0  0
  188.4690  178.2020  148.5190 C   0  0  0  0  0  1  0  0  0  0  0  0
  187.8880  177.7500  146.1340 C   0  0  0  0  0  3  0  0  0  0  0  0
  190.5240  176.9790  145.5860 C   0  0  0  0  0  0  0  0  0  0  0  0
  189.5610  176.9540  144.5540 C   0  0  0  0  0  0  0  0  0  0  0  0
  190.1600  177.3860  146.8740 C   0  0  0  0  0  3  0  0  0  0  0  0
  1 14  2  0  0  0  0
  1  6  1  0  0  0  0
  2 13  1  0  0  0  0
  3  7  1  6  0  0  0
  3 19  1  0  0  0  0
  3  2  1  0  0  0  0
  4  7  2  0  0  0  0
  5  2  2  0  0  0  0
  5 16  1  0  0  0  0
  6 17  2  0  0  0  0
  8 23  1  0  0  0  0
  9  1  1  0  0  0  0
 10 18  1  0  0  0  0
 11  4  1  0  0  0  0
 11 15  1  0  0  0  0
 12  8  1  0  0  0  0
 13 18  1  0  0  0  0
 13  8  2  0  0  0  0
 14  5  1  0  0  0  0
 15 20  1  0  0  0  0
 16 12  2  0  0  0  0
 17 16  1  0  0  0  0
 19 20  1  6  0  0  0
 19 10  1  0  0  0  0
 21 22  2  0  0  0  0
 22 30  1  0  0  0  0
 23 22  1  0  0  0  0
 24 27  1  0  0  0  0
 25 28  1  0  0  0  0
 26 29  1  0  0  0  0
 28 24  2  0  0  0  0
 29 31  2  0  0  0  0
 30 25  2  0  0  0  0
 30 29  1  0  0  0  0
 31 24  1  0  0  0  0
M  END
>  <MODEL>
8

>  <REMARK>
 VINA RESULT:      -9.0      2.952      8.153
  Name = 
  2 active torsions:
  status: ('A' for Active; 'I' for Inactive)
    1  A    between atoms: C_9  and  C_22
    2  A    between atoms: C_15  and  N_23
                            x       y       z     vdW  Elec       q    Type
                         _______ _______ _______ _____ _____    ______ ____

>  <TORSDO>
F 2

$$$$
=
 OpenBabel10272400303D

 31 35  0  0  1  0  0  0  0  0999 V2000
  187.2050  178.0340  147.7090 C   0  0  0  0  0  0  0  0  0  0  0  0
  187.7010  177.8500  144.0680 C   0  0  0  0  0  0  0  0  0  0  0  0
  189.1490  177.3750  143.9430 C   0  0  2  0  0  3  0  0  0  0  0  0
  191.3220  177.6810  145.1480 C   0  0  0  0  0  3  0  0  0  0  0  0
  187.0900  178.0580  145.3270 C   0  0  0  0  0  0  0  0  0  0  0  0
  185.8900  178.4890  147.8050 C   0  0  0  0  0  3  0  0  0  0  0  0
  190.0810  178.1080  144.8660 C   0  0  0  0  0  3  0  0  0  0  0  0
  185.5850  178.4460  142.9790 C   0  0  0  0  0  0  0  0  0  0  0  0
  187.9590  177.7860  148.8890 N   0  0  0  0  0  1  0  0  0  0  0  0
  188.7100  176.9130  141.5080 C   0  0  0  0  0  2  0  0  0  0  0  0
  191.9670  176.4060  144.6460 C   0  0  0  0  0  2  0  0  0  0  0  0
  185.0180  178.7050  144.2300 C   0  0  0  0  0  3  0  0  0  0  0  0
  186.9080  177.9830  142.9000 C   0  0  0  0  0  0  0  0  0  0  0  0
  187.7690  177.8300  146.4880 N   0  0  0  0  0  0  0  0  0  0  0  0
  191.4090  175.8100  143.3460 C   0  0  0  0  0  2  0  0  0  0  0  0
  185.7520  178.5030  145.3950 C   0  0  0  0  0  0  0  0  0  0  0  0
  185.1610  178.7230  146.6400 C   0  0  0  0  0  3  0  0  0  0  0  0
  187.4510  177.6320  141.6210 N   0  0  0  0  0  2  0  0  0  0  0  0
  189.6960  177.4950  142.5020 C   0  0  2  0  0  3  0  0  0  0  0  0
  191.0860  176.8750  142.3020 C   0  0  0  0  0  2  0  0  0  0  0  0
  182.6620  178.4130  142.6350 O   0  0  0  0  0  0  0  0  0  0  0  0
  183.3990  178.5900  141.6270 C   0  0  0  0  0  0  0  0  0  0  0  0
  184.8280  178.6160  141.7690 N   0  0  0  0  0  2  0  0  0  0  0  0
  181.7180  179.0850  137.7100 C   0  0  0  0  0  0  0  0  0  0  0  0
  183.4720  178.2740  139.1640 C   0  0  0  0  0  3  0  0  0  0  0  0
  180.8690  179.9400  141.1540 F   0  0  0  0  0  0  0  0  0  0  0  0
  181.1480  179.2490  136.3470 C   0  0  0  0  0  1  0  0  0  0  0  0
  182.9380  178.4270  137.8820 C   0  0  0  0  0  3  0  0  0  0  0  0
  181.5640  179.4380  140.1030 C   0  0  0  0  0  0  0  0  0  0  0  0
  182.7960  178.7740  140.2870 C   0  0  0  0  0  0  0  0  0  0  0  0
  181.0350  179.5880  138.8170 C   0  0  0  0  0  3  0  0  0  0  0  0
  1  6  1  0  0  0  0
  1  9  1  0  0  0  0
  2  5  1  0  0  0  0
  3  2  1  0  0  0  0
  3  7  1  1  0  0  0
  5 16  2  0  0  0  0
  5 14  1  0  0  0  0
  7  4  2  0  0  0  0
  8 12  2  0  0  0  0
 10 18  1  0  0  0  0
 11  4  1  0  0  0  0
 12 16  1  0  0  0  0
 13  8  1  0  0  0  0
 13  2  2  0  0  0  0
 14  1  2  0  0  0  0
 15 11  1  0  0  0  0
 16 17  1  0  0  0  0
 17  6  2  0  0  0  0
 18 13  1  0  0  0  0
 19 10  1  6  0  0  0
 19  3  1  0  0  0  0
 20 19  1  0  0  0  0
 20 15  1  0  0  0  0
 22 23  1  0  0  0  0
 22 21  2  0  0  0  0
 23  8  1  0  0  0  0
 24 28  2  0  0  0  0
 24 31  1  0  0  0  0
 25 30  2  0  0  0  0
 27 24  1  0  0  0  0
 28 25  1  0  0  0  0
 29 30  1  0  0  0  0
 29 26  1  0  0  0  0
 30 22  1  0  0  0  0
 31 29  2  0  0  0  0
M  END
>  <MODEL>
9

>  <REMARK>
 VINA RESULT:      -8.9      3.864      6.994
  Name = 
  2 active torsions:
  status: ('A' for Active; 'I' for Inactive)
    1  A    between atoms: C_9  and  C_22
    2  A    between atoms: C_15  and  N_23
                            x       y       z     vdW  Elec       q    Type
                         _______ _______ _______ _____ _____    ______ ____

>  <TORSDO>
F 2

$$$$
