=
 OpenBabel10272400293D

 31 34  0  0  1  0  0  0  0  0999 V2000
  189.2480  177.3830  143.4980 N   0  0  0  0  0  0  0  0  0  0  0  0
  188.4990  177.0040  144.7030 C   0  0  2  0  0  3  0  0  0  0  0  0
  187.3600  177.9900  145.0190 C   0  0  1  0  0  3  0  0  0  0  0  0
  184.8390  178.2360  144.5680 C   0  0  0  0  0  2  0  0  0  0  0  0
  186.2020  177.7780  144.0340 C   0  0  0  0  0  2  0  0  0  0  0  0
  189.4180  177.8230  146.9220 C   0  0  0  0  0  2  0  0  0  0  0  0
  184.9920  179.3590  145.5850 C   0  0  0  0  0  2  0  0  0  0  0  0
  189.4410  176.7100  145.8810 C   0  0  0  0  0  2  0  0  0  0  0  0
  185.7720  178.8780  146.8120 C   0  0  0  0  0  2  0  0  0  0  0  0
  187.8140  177.0960  148.5460 O   0  0  0  0  0  1  0  0  0  0  0  0
  186.8840  177.8710  146.4800 C   0  0  2  0  0  3  0  0  0  0  0  0
  188.0160  178.0070  147.5090 C   0  0  2  0  0  3  0  0  0  0  0  0
  190.5880  177.9310  143.5280 C   0  0  0  0  0  0  0  0  0  0  0  0
  190.8270  179.1590  143.9800 C   0  0  0  0  0  2  0  0  0  0  0  0
  191.7560  177.1240  143.0520 C   0  0  0  0  0  2  0  0  0  0  0  0
  191.7460  175.7450  143.6860 C   0  0  0  0  0  1  0  0  0  0  0  0
  188.6070  177.1150  142.2130 C   0  0  0  0  0  2  0  0  0  0  0  0
  188.5360  178.3760  141.3670 C   0  0  0  0  0  2  0  0  0  0  0  0
  189.2580  178.1610  140.0530 C   0  0  0  0  0  2  0  0  0  0  0  0
  188.3510  177.4360  139.0780 C   0  0  0  0  0  2  0  0  0  0  0  0
  187.4720  178.3900  138.4180 N   0  0  0  0  0  2  0  0  0  0  0  0
  182.6320  178.4780  140.3800 C   0  0  0  0  0  0  0  0  0  0  0  0
  185.0590  178.8090  140.3910 C   0  0  0  0  0  3  0  0  0  0  0  0
  184.2010  177.5150  137.2270 O   0  0  0  0  0  0  0  0  0  0  0  0
  185.5070  177.6170  137.0290 C   0  0  0  0  0  3  0  0  0  0  0  0
  181.4430  178.5540  141.0250 F   0  0  0  0  0  0  0  0  0  0  0  0
  186.0840  178.1280  138.1890 C   0  0  0  0  0  0  0  0  0  0  0  0
  183.8140  178.8830  141.0410 C   0  0  0  0  0  3  0  0  0  0  0  0
  183.9270  177.9320  138.4420 C   0  0  0  0  0  0  0  0  0  0  0  0
  185.0680  178.3260  139.0850 C   0  0  0  0  0  0  0  0  0  0  0  0
  182.6810  177.9930  139.0600 C   0  0  0  0  0  3  0  0  0  0  0  0
  1 13  1  0  0  0  0
  2  1  1  6  0  0  0
  2  3  1  0  0  0  0
  2  8  1  0  0  0  0
  3  5  1  6  0  0  0
  3 11  1  0  0  0  0
  4  7  1  0  0  0  0
  5  4  1  0  0  0  0
  6 12  1  0  0  0  0
  7  9  1  0  0  0  0
  8  6  1  0  0  0  0
 11  9  1  1  0  0  0
 11 12  1  0  0  0  0
 12 10  1  1  0  0  0
 13 14  2  0  0  0  0
 15 13  1  0  0  0  0
 15 16  1  0  0  0  0
 17  1  1  0  0  0  0
 18 17  1  0  0  0  0
 19 18  1  0  0  0  0
 20 19  1  0  0  0  0
 21 20  1  0  0  0  0
 22 26  1  0  0  0  0
 22 28  1  0  0  0  0
 23 28  2  0  0  0  0
 24 29  1  0  0  0  0
 25 24  1  0  0  0  0
 25 27  2  0  0  0  0
 27 21  1  0  0  0  0
 27 30  1  0  0  0  0
 29 31  1  0  0  0  0
 29 30  2  0  0  0  0
 30 23  1  0  0  0  0
 31 22  2  0  0  0  0
M  END
>  <MODEL>
1

>  <REMARK>
 VINA RESULT:      -8.1      0.000      0.000
  Name = 
  9 active torsions:
  status: ('A' for Active; 'I' for Inactive)
    1  A    between atoms: C_2  and  N_12
    2  A    between atoms: C_2  and  C_13
    3  A    between atoms: C_4  and  N_12
    4  A    between atoms: C_9  and  N_23
    5  A    between atoms: N_12  and  C_25
    6  A    between atoms: C_15  and  C_20
    7  A    between atoms: C_15  and  N_23
    8  A    between atoms: C_20  and  C_27
    9  A    between atoms: C_25  and  C_27
                            x       y       z     vdW  Elec       q    Type
                         _______ _______ _______ _____ _____    ______ ____

>  <TORSDO>
F 9

$$$$
=
 OpenBabel10272400293D

 31 34  0  0  1  0  0  0  0  0999 V2000
  189.3460  177.1540  143.8860 N   0  0  0  0  0  0  0  0  0  0  0  0
  188.5650  176.9160  145.1060 C   0  0  2  0  0  3  0  0  0  0  0  0
  187.4450  177.9540  145.2970 C   0  0  1  0  0  3  0  0  0  0  0  0
  184.9400  178.2110  144.7700 C   0  0  0  0  0  2  0  0  0  0  0  0
  186.3010  177.6700  144.3140 C   0  0  0  0  0  2  0  0  0  0  0  0
  189.4620  177.9340  147.2510 C   0  0  0  0  0  2  0  0  0  0  0  0
  185.1010  179.4270  145.6720 C   0  0  0  0  0  2  0  0  0  0  0  0
  189.4780  176.7210  146.3270 C   0  0  0  0  0  2  0  0  0  0  0  0
  185.8470  179.0550  146.9580 C   0  0  0  0  0  2  0  0  0  0  0  0
  187.8110  177.4120  148.9050 O   0  0  0  0  0  1  0  0  0  0  0  0
  186.9390  177.9940  146.7520 C   0  0  2  0  0  3  0  0  0  0  0  0
  188.0540  178.2080  147.7860 C   0  0  2  0  0  3  0  0  0  0  0  0
  190.6190  177.8440  143.8710 C   0  0  0  0  0  0  0  0  0  0  0  0
  190.7090  179.1420  144.1460 C   0  0  0  0  0  2  0  0  0  0  0  0
  191.8840  177.1100  143.5500 C   0  0  0  0  0  2  0  0  0  0  0  0
  191.7790  175.6560  143.9710 C   0  0  0  0  0  1  0  0  0  0  0  0
  188.8170  176.5910  142.6450 C   0  0  0  0  0  2  0  0  0  0  0  0
  189.1310  177.4910  141.4610 C   0  0  0  0  0  2  0  0  0  0  0  0
  187.9380  178.3690  141.1450 C   0  0  0  0  0  2  0  0  0  0  0  0
  187.6440  178.3260  139.6580 C   0  0  0  0  0  2  0  0  0  0  0  0
  188.8340  178.7020  138.9080 N   0  0  0  0  0  2  0  0  0  0  0  0
  191.9780  175.2500  136.5670 C   0  0  0  0  0  0  0  0  0  0  0  0
  191.0600  176.5310  138.4420 C   0  0  0  0  0  3  0  0  0  0  0  0
  189.2840  177.4990  135.5570 O   0  0  0  0  0  0  0  0  0  0  0  0
  188.6560  178.2790  136.4230 C   0  0  0  0  0  3  0  0  0  0  0  0
  192.8610  174.3340  136.1020 F   0  0  0  0  0  0  0  0  0  0  0  0
  189.2060  178.0630  137.6840 C   0  0  0  0  0  0  0  0  0  0  0  0
  191.9670  175.5790  137.9410 C   0  0  0  0  0  3  0  0  0  0  0  0
  190.1950  176.8070  136.2010 C   0  0  0  0  0  0  0  0  0  0  0  0
  190.1880  177.1210  137.5320 C   0  0  0  0  0  0  0  0  0  0  0  0
  191.0810  175.8700  135.6760 C   0  0  0  0  0  3  0  0  0  0  0  0
  2  1  1  6  0  0  0
  2  3  1  0  0  0  0
  2  8  1  0  0  0  0
  3  5  1  6  0  0  0
  3 11  1  0  0  0  0
  4  7  1  0  0  0  0
  5  4  1  0  0  0  0
  6 12  1  0  0  0  0
  7  9  1  0  0  0  0
  8  6  1  0  0  0  0
 11  9  1  6  0  0  0
 11 12  1  0  0  0  0
 12 10  1  1  0  0  0
 13  1  1  0  0  0  0
 13 14  2  0  0  0  0
 15 13  1  0  0  0  0
 15 16  1  0  0  0  0
 17  1  1  0  0  0  0
 18 17  1  0  0  0  0
 19 18  1  0  0  0  0
 20 19  1  0  0  0  0
 21 20  1  0  0  0  0
 22 28  1  0  0  0  0
 24 29  1  0  0  0  0
 24 25  1  0  0  0  0
 25 27  2  0  0  0  0
 26 22  1  0  0  0  0
 27 21  1  0  0  0  0
 28 23  2  0  0  0  0
 29 30  2  0  0  0  0
 30 27  1  0  0  0  0
 30 23  1  0  0  0  0
 31 29  1  0  0  0  0
 31 22  2  0  0  0  0
M  END
>  <MODEL>
2

>  <REMARK>
 VINA RESULT:      -7.9      3.217      4.539
  Name = 
  9 active torsions:
  status: ('A' for Active; 'I' for Inactive)
    1  A    between atoms: C_2  and  N_12
    2  A    between atoms: C_2  and  C_13
    3  A    between atoms: C_4  and  N_12
    4  A    between atoms: C_9  and  N_23
    5  A    between atoms: N_12  and  C_25
    6  A    between atoms: C_15  and  C_20
    7  A    between atoms: C_15  and  N_23
    8  A    between atoms: C_20  and  C_27
    9  A    between atoms: C_25  and  C_27
                            x       y       z     vdW  Elec       q    Type
                         _______ _______ _______ _____ _____    ______ ____

>  <TORSDO>
F 9

$$$$
=
 OpenBabel10272400293D

 31 34  0  0  1  0  0  0  0  0999 V2000
  189.3100  177.2620  143.6730 N   0  0  0  0  0  0  0  0  0  0  0  0
  188.5380  176.9590  144.8850 C   0  0  2  0  0  3  0  0  0  0  0  0
  187.4100  177.9780  145.1300 C   0  0  1  0  0  3  0  0  0  0  0  0
  184.9000  178.2380  144.6280 C   0  0  0  0  0  2  0  0  0  0  0  0
  186.2630  177.7310  144.1410 C   0  0  0  0  0  2  0  0  0  0  0  0
  189.4380  177.8830  147.0700 C   0  0  0  0  0  2  0  0  0  0  0  0
  185.0570  179.4120  145.5850 C   0  0  0  0  0  2  0  0  0  0  0  0
  189.4590  176.7140  146.0900 C   0  0  0  0  0  2  0  0  0  0  0  0
  185.8120  178.9860  146.8490 C   0  0  0  0  0  2  0  0  0  0  0  0
  187.8000  177.2690  148.7060 O   0  0  0  0  0  1  0  0  0  0  0  0
  186.9120  177.9450  146.5880 C   0  0  2  0  0  3  0  0  0  0  0  0
  188.0310  178.1190  147.6250 C   0  0  2  0  0  3  0  0  0  0  0  0
  190.5740  177.9690  143.6840 C   0  0  0  0  0  0  0  0  0  0  0  0
  190.6430  179.2630  143.9800 C   0  0  0  0  0  2  0  0  0  0  0  0
  191.8520  177.2570  143.3650 C   0  0  0  0  0  2  0  0  0  0  0  0
  191.7550  175.7900  143.7430 C   0  0  0  0  0  1  0  0  0  0  0  0
  188.7830  176.7460  142.4110 C   0  0  0  0  0  2  0  0  0  0  0  0
  188.6740  177.8530  141.3740 C   0  0  0  0  0  2  0  0  0  0  0  0
  188.8700  177.2830  139.9840 C   0  0  0  0  0  2  0  0  0  0  0  0
  189.6130  178.2800  139.1170 C   0  0  0  0  0  2  0  0  0  0  0  0
  188.6700  179.0030  138.2760 N   0  0  0  0  0  2  0  0  0  0  0  0
  183.9590  177.2540  136.8520 C   0  0  0  0  0  0  0  0  0  0  0  0
  185.6010  178.3220  138.3230 C   0  0  0  0  0  3  0  0  0  0  0  0
  187.3060  177.3510  135.3960 O   0  0  0  0  0  0  0  0  0  0  0  0
  188.3360  177.8870  136.0330 C   0  0  0  0  0  3  0  0  0  0  0  0
  182.6860  176.8490  136.6270 F   0  0  0  0  0  0  0  0  0  0  0  0
  187.8890  178.3600  137.2650 C   0  0  0  0  0  0  0  0  0  0  0  0
  184.2840  177.8970  138.0680 C   0  0  0  0  0  3  0  0  0  0  0  0
  186.2410  177.4600  136.1570 C   0  0  0  0  0  0  0  0  0  0  0  0
  186.5500  178.0830  137.3340 C   0  0  0  0  0  0  0  0  0  0  0  0
  184.9470  177.0280  135.8760 C   0  0  0  0  0  3  0  0  0  0  0  0
  1 13  1  0  0  0  0
  2  1  1  6  0  0  0
  2  3  1  0  0  0  0
  2  8  1  0  0  0  0
  3  5  1  6  0  0  0
  3 11  1  0  0  0  0
  4  7  1  0  0  0  0
  5  4  1  0  0  0  0
  6 12  1  0  0  0  0
  7  9  1  0  0  0  0
  8  6  1  0  0  0  0
 11  9  1  6  0  0  0
 11 12  1  0  0  0  0
 12 10  1  1  0  0  0
 13 14  2  0  0  0  0
 15 13  1  0  0  0  0
 15 16  1  0  0  0  0
 17  1  1  0  0  0  0
 18 17  1  0  0  0  0
 19 18  1  0  0  0  0
 20 19  1  0  0  0  0
 21 20  1  0  0  0  0
 22 28  1  0  0  0  0
 24 25  1  0  0  0  0
 24 29  1  0  0  0  0
 25 27  2  0  0  0  0
 26 22  1  0  0  0  0
 27 30  1  0  0  0  0
 27 21  1  0  0  0  0
 28 23  2  0  0  0  0
 29 30  2  0  0  0  0
 30 23  1  0  0  0  0
 31 29  1  0  0  0  0
 31 22  2  0  0  0  0
M  END
>  <MODEL>
3

>  <REMARK>
 VINA RESULT:      -7.8      1.516      1.959
  Name = 
  9 active torsions:
  status: ('A' for Active; 'I' for Inactive)
    1  A    between atoms: C_2  and  N_12
    2  A    between atoms: C_2  and  C_13
    3  A    between atoms: C_4  and  N_12
    4  A    between atoms: C_9  and  N_23
    5  A    between atoms: N_12  and  C_25
    6  A    between atoms: C_15  and  C_20
    7  A    between atoms: C_15  and  N_23
    8  A    between atoms: C_20  and  C_27
    9  A    between atoms: C_25  and  C_27
                            x       y       z     vdW  Elec       q    Type
                         _______ _______ _______ _____ _____    ______ ____

>  <TORSDO>
F 9

$$$$
=
 OpenBabel10272400293D

 31 34  0  0  1  0  0  0  0  0999 V2000
  189.4370  176.8170  144.1300 N   0  0  0  0  0  0  0  0  0  0  0  0
  188.6090  176.7380  145.3410 C   0  0  2  0  0  3  0  0  0  0  0  0
  187.5420  177.8460  145.3930 C   0  0  1  0  0  3  0  0  0  0  0  0
  185.0700  178.1770  144.7590 C   0  0  0  0  0  2  0  0  0  0  0  0
  186.4120  177.5260  144.4040 C   0  0  0  0  0  2  0  0  0  0  0  0
  189.4970  177.9130  147.4070 C   0  0  0  0  0  2  0  0  0  0  0  0
  185.2710  179.4660  145.5450 C   0  0  0  0  0  2  0  0  0  0  0  0
  189.4740  176.6170  146.6050 C   0  0  0  0  0  2  0  0  0  0  0  0
  185.9580  179.1830  146.8850 C   0  0  0  0  0  2  0  0  0  0  0  0
  187.7740  177.6400  149.0470 O   0  0  0  0  0  1  0  0  0  0  0  0
  186.9970  178.0530  146.8190 C   0  0  2  0  0  3  0  0  0  0  0  0
  188.0920  178.3090  147.8650 C   0  0  2  0  0  3  0  0  0  0  0  0
  190.8810  176.9160  144.1520 C   0  0  0  0  0  0  0  0  0  0  0  0
  191.6520  175.9230  143.7180 C   0  0  0  0  0  2  0  0  0  0  0  0
  191.5560  178.1510  144.6620 C   0  0  0  0  0  2  0  0  0  0  0  0
  190.9540  179.3910  144.0260 C   0  0  0  0  0  1  0  0  0  0  0  0
  188.7400  176.7150  142.8490 C   0  0  0  0  0  2  0  0  0  0  0  0
  189.3640  177.6390  141.8150 C   0  0  0  0  0  2  0  0  0  0  0  0
  188.3990  178.7530  141.4650 C   0  0  0  0  0  2  0  0  0  0  0  0
  187.4540  178.2920  140.3730 C   0  0  0  0  0  2  0  0  0  0  0  0
  188.1290  178.3360  139.0840 N   0  0  0  0  0  2  0  0  0  0  0  0
  191.6590  174.8360  137.4830 C   0  0  0  0  0  0  0  0  0  0  0  0
  190.8450  176.8000  138.6990 C   0  0  0  0  0  3  0  0  0  0  0  0
  188.0940  175.4370  136.9680 O   0  0  0  0  0  0  0  0  0  0  0  0
  187.4610  176.4510  137.5390 C   0  0  0  0  0  3  0  0  0  0  0  0
  192.6820  174.0120  137.1500 F   0  0  0  0  0  0  0  0  0  0  0  0
  188.3800  177.1630  138.3050 C   0  0  0  0  0  0  0  0  0  0  0  0
  191.8930  175.9310  138.3440 C   0  0  0  0  0  3  0  0  0  0  0  0
  189.3550  175.4720  137.3330 C   0  0  0  0  0  0  0  0  0  0  0  0
  189.5870  176.5300  138.1680 C   0  0  0  0  0  0  0  0  0  0  0  0
  190.3730  174.5960  136.9640 C   0  0  0  0  0  3  0  0  0  0  0  0
  1 13  1  0  0  0  0
  2  1  1  6  0  0  0
  2  3  1  0  0  0  0
  2  8  1  0  0  0  0
  3  5  1  6  0  0  0
  3 11  1  0  0  0  0
  4  7  1  0  0  0  0
  5  4  1  0  0  0  0
  6 12  1  0  0  0  0
  7  9  1  0  0  0  0
  8  6  1  0  0  0  0
 11  9  1  6  0  0  0
 11 12  1  0  0  0  0
 12 10  1  1  0  0  0
 13 15  1  0  0  0  0
 14 13  2  0  0  0  0
 16 15  1  0  0  0  0
 17  1  1  0  0  0  0
 18 17  1  0  0  0  0
 19 18  1  0  0  0  0
 20 19  1  0  0  0  0
 21 20  1  0  0  0  0
 22 28  1  0  0  0  0
 24 29  1  0  0  0  0
 24 25  1  0  0  0  0
 25 27  2  0  0  0  0
 26 22  1  0  0  0  0
 27 21  1  0  0  0  0
 28 23  2  0  0  0  0
 29 30  2  0  0  0  0
 30 27  1  0  0  0  0
 30 23  1  0  0  0  0
 31 29  1  0  0  0  0
 31 22  2  0  0  0  0
M  END
>  <MODEL>
4

>  <REMARK>
 VINA RESULT:      -7.6      3.087      4.391
  Name = 
  9 active torsions:
  status: ('A' for Active; 'I' for Inactive)
    1  A    between atoms: C_2  and  N_12
    2  A    between atoms: C_2  and  C_13
    3  A    between atoms: C_4  and  N_12
    4  A    between atoms: C_9  and  N_23
    5  A    between atoms: N_12  and  C_25
    6  A    between atoms: C_15  and  C_20
    7  A    between atoms: C_15  and  N_23
    8  A    between atoms: C_20  and  C_27
    9  A    between atoms: C_25  and  C_27
                            x       y       z     vdW  Elec       q    Type
                         _______ _______ _______ _____ _____    ______ ____

>  <TORSDO>
F 9

$$$$
=
 OpenBabel10272400293D

 31 34  0  0  1  0  0  0  0  0999 V2000
  188.7530  177.7760  140.5760 N   0  0  0  0  0  0  0  0  0  0  0  0
  189.6270  177.8960  139.4020 C   0  0  2  0  0  3  0  0  0  0  0  0
  188.9270  177.4500  138.1040 C   0  0  1  0  0  3  0  0  0  0  0  0
  187.6070  178.5040  136.1630 C   0  0  0  0  0  2  0  0  0  0  0  0
  187.9180  178.5210  137.6650 C   0  0  0  0  0  2  0  0  0  0  0  0
  191.1440  175.9240  138.9040 C   0  0  0  0  0  2  0  0  0  0  0  0
  187.7900  177.1110  135.5750 C   0  0  0  0  0  2  0  0  0  0  0  0
  190.9950  177.2440  139.6520 C   0  0  0  0  0  2  0  0  0  0  0  0
  189.2490  176.6580  135.6970 C   0  0  0  0  0  2  0  0  0  0  0  0
  192.2450  176.5080  136.8590 O   0  0  0  0  0  1  0  0  0  0  0  0
  189.9380  177.1380  136.9840 C   0  0  2  0  0  3  0  0  0  0  0  0
  191.0150  176.1220  137.3920 C   0  0  2  0  0  3  0  0  0  0  0  0
  189.2350  177.4630  141.9050 C   0  0  0  0  0  0  0  0  0  0  0  0
  188.9750  176.2930  142.4800 C   0  0  0  0  0  2  0  0  0  0  0  0
  190.0520  178.4530  142.6750 C   0  0  0  0  0  2  0  0  0  0  0  0
  191.1880  177.7570  143.4030 C   0  0  0  0  0  1  0  0  0  0  0  0
  187.3350  178.0650  140.3730 C   0  0  0  0  0  2  0  0  0  0  0  0
  186.7660  178.8500  141.5440 C   0  0  0  0  0  2  0  0  0  0  0  0
  185.2540  178.8890  141.4580 C   0  0  0  0  0  2  0  0  0  0  0  0
  184.6510  178.5100  142.7970 C   0  0  0  0  0  2  0  0  0  0  0  0
  185.6840  177.9720  143.6700 N   0  0  0  0  0  2  0  0  0  0  0  0
  188.6130  178.1020  147.9930 C   0  0  0  0  0  0  0  0  0  0  0  0
  188.1410  177.7330  145.6180 C   0  0  0  0  0  3  0  0  0  0  0  0
  185.1470  178.8390  147.1110 O   0  0  0  0  0  0  0  0  0  0  0  0
  184.6900  178.7030  145.8750 C   0  0  0  0  0  3  0  0  0  0  0  0
  189.4910  178.0790  149.0240 F   0  0  0  0  0  0  0  0  0  0  0  0
  185.7360  178.2590  145.0700 C   0  0  0  0  0  0  0  0  0  0  0  0
  189.0390  177.7190  146.7010 C   0  0  0  0  0  3  0  0  0  0  0  0
  186.4170  178.5060  147.1270 C   0  0  0  0  0  0  0  0  0  0  0  0
  186.8340  178.1360  145.8780 C   0  0  0  0  0  0  0  0  0  0  0  0
  187.2820  178.5020  148.2180 C   0  0  0  0  0  3  0  0  0  0  0  0
  1 13  1  0  0  0  0
  2  8  1  0  0  0  0
  2  1  1  1  0  0  0
  3  5  1  6  0  0  0
  3  2  1  0  0  0  0
  4  5  1  0  0  0  0
  6  8  1  0  0  0  0
  7  9  1  0  0  0  0
  7  4  1  0  0  0  0
 11  9  1  6  0  0  0
 11 12  1  0  0  0  0
 11  3  1  0  0  0  0
 12 10  1  1  0  0  0
 12  6  1  0  0  0  0
 13 14  2  0  0  0  0
 13 15  1  0  0  0  0
 15 16  1  0  0  0  0
 17  1  1  0  0  0  0
 17 18  1  0  0  0  0
 19 18  1  0  0  0  0
 19 20  1  0  0  0  0
 20 21  1  0  0  0  0
 21 27  1  0  0  0  0
 22 31  1  0  0  0  0
 22 26  1  0  0  0  0
 23 30  2  0  0  0  0
 23 28  1  0  0  0  0
 24 29  1  0  0  0  0
 25 24  1  0  0  0  0
 27 25  2  0  0  0  0
 27 30  1  0  0  0  0
 28 22  2  0  0  0  0
 29 31  2  0  0  0  0
 30 29  1  0  0  0  0
M  END
>  <MODEL>
5

>  <REMARK>
 VINA RESULT:      -7.5      3.164      7.727
  Name = 
  9 active torsions:
  status: ('A' for Active; 'I' for Inactive)
    1  A    between atoms: C_2  and  N_12
    2  A    between atoms: C_2  and  C_13
    3  A    between atoms: C_4  and  N_12
    4  A    between atoms: C_9  and  N_23
    5  A    between atoms: N_12  and  C_25
    6  A    between atoms: C_15  and  C_20
    7  A    between atoms: C_15  and  N_23
    8  A    between atoms: C_20  and  C_27
    9  A    between atoms: C_25  and  C_27
                            x       y       z     vdW  Elec       q    Type
                         _______ _______ _______ _____ _____    ______ ____

>  <TORSDO>
F 9

$$$$
=
 OpenBabel10272400293D

 31 34  0  0  1  0  0  0  0  0999 V2000
  187.4060  177.9920  139.6270 N   0  0  0  0  0  0  0  0  0  0  0  0
  186.1240  178.7090  139.6380 C   0  0  2  0  0  3  0  0  0  0  0  0
  185.3290  178.4660  140.9350 C   0  0  1  0  0  3  0  0  0  0  0  0
  184.9960  179.5780  143.2310 C   0  0  0  0  0  2  0  0  0  0  0  0
  185.9660  179.2540  142.0880 C   0  0  0  0  0  2  0  0  0  0  0  0
  184.1490  177.5310  138.5640 C   0  0  0  0  0  2  0  0  0  0  0  0
  183.8830  178.5420  143.3230 C   0  0  0  0  0  2  0  0  0  0  0  0
  185.3330  178.4660  138.3430 C   0  0  0  0  0  2  0  0  0  0  0  0
  183.0330  178.5440  142.0490 C   0  0  0  0  0  2  0  0  0  0  0  0
  182.2910  178.9920  138.9510 O   0  0  0  0  0  1  0  0  0  0  0  0
  183.8380  178.8180  140.7700 C   0  0  2  0  0  3  0  0  0  0  0  0
  183.1660  178.1100  139.5850 C   0  0  2  0  0  3  0  0  0  0  0  0
  188.1390  177.6820  138.4170 C   0  0  0  0  0  0  0  0  0  0  0  0
  188.2920  176.4290  138.0000 C   0  0  0  0  0  2  0  0  0  0  0  0
  188.7480  178.7710  137.5910 C   0  0  0  0  0  2  0  0  0  0  0  0
  189.0790  178.2640  136.1990 C   0  0  0  0  0  1  0  0  0  0  0  0
  187.9800  177.6490  140.9260 C   0  0  0  0  0  2  0  0  0  0  0  0
  189.4170  178.1350  141.0310 C   0  0  0  0  0  2  0  0  0  0  0  0
  190.3280  176.9820  141.3990 C   0  0  0  0  0  2  0  0  0  0  0  0
  191.2400  177.3890  142.5400 C   0  0  0  0  0  2  0  0  0  0  0  0
  191.1820  176.3910  143.5990 N   0  0  0  0  0  2  0  0  0  0  0  0
  187.2610  177.8760  146.7140 C   0  0  0  0  0  0  0  0  0  0  0  0
  188.3300  177.2600  144.5980 C   0  0  0  0  0  3  0  0  0  0  0  0
  190.7980  177.0570  147.1050 O   0  0  0  0  0  0  0  0  0  0  0  0
  191.5560  176.6990  146.0790 C   0  0  0  0  0  3  0  0  0  0  0  0
  186.1550  178.2680  147.3900 F   0  0  0  0  0  0  0  0  0  0  0  0
  190.7680  176.7050  144.9310 C   0  0  0  0  0  0  0  0  0  0  0  0
  187.1910  177.6640  145.3190 C   0  0  0  0  0  3  0  0  0  0  0  0
  189.5820  177.2870  146.6660 C   0  0  0  0  0  0  0  0  0  0  0  0
  189.5090  177.0820  145.3170 C   0  0  0  0  0  0  0  0  0  0  0  0
  188.4730  177.6880  147.4060 C   0  0  0  0  0  3  0  0  0  0  0  0
  1 17  1  0  0  0  0
  2  1  1  1  0  0  0
  2  3  1  0  0  0  0
  3  5  1  1  0  0  0
  4  7  1  0  0  0  0
  5  4  1  0  0  0  0
  6 12  1  0  0  0  0
  8  6  1  0  0  0  0
  8  2  1  0  0  0  0
  9  7  1  0  0  0  0
 11  3  1  0  0  0  0
 11  9  1  1  0  0  0
 12 10  1  6  0  0  0
 12 11  1  0  0  0  0
 13  1  1  0  0  0  0
 14 13  2  0  0  0  0
 15 13  1  0  0  0  0
 16 15  1  0  0  0  0
 17 18  1  0  0  0  0
 18 19  1  0  0  0  0
 19 20  1  0  0  0  0
 20 21  1  0  0  0  0
 21 27  1  0  0  0  0
 22 26  1  0  0  0  0
 22 31  1  0  0  0  0
 23 30  2  0  0  0  0
 23 28  1  0  0  0  0
 25 24  1  0  0  0  0
 27 30  1  0  0  0  0
 27 25  2  0  0  0  0
 28 22  2  0  0  0  0
 29 24  1  0  0  0  0
 29 31  2  0  0  0  0
 30 29  1  0  0  0  0
M  END
>  <MODEL>
6

>  <REMARK>
 VINA RESULT:      -7.4      2.092      7.176
  Name = 
  9 active torsions:
  status: ('A' for Active; 'I' for Inactive)
    1  A    between atoms: C_2  and  N_12
    2  A    between atoms: C_2  and  C_13
    3  A    between atoms: C_4  and  N_12
    4  A    between atoms: C_9  and  N_23
    5  A    between atoms: N_12  and  C_25
    6  A    between atoms: C_15  and  C_20
    7  A    between atoms: C_15  and  N_23
    8  A    between atoms: C_20  and  C_27
    9  A    between atoms: C_25  and  C_27
                            x       y       z     vdW  Elec       q    Type
                         _______ _______ _______ _____ _____    ______ ____

>  <TORSDO>
F 9

$$$$
=
 OpenBabel10272400293D

 31 34  0  0  1  0  0  0  0  0999 V2000
  185.8440  178.4680  143.3130 N   0  0  0  0  0  0  0  0  0  0  0  0
  186.8470  177.5250  143.8250 C   0  0  2  0  0  3  0  0  0  0  0  0
  187.4670  177.9960  145.1540 C   0  0  1  0  0  3  0  0  0  0  0  0
  187.1050  177.6570  147.6790 C   0  0  0  0  0  2  0  0  0  0  0  0
  186.4590  177.7970  146.2960 C   0  0  0  0  0  2  0  0  0  0  0  0
  189.2190  177.8070  142.9680 C   0  0  0  0  0  2  0  0  0  0  0  0
  188.4410  178.3870  147.7430 C   0  0  0  0  0  2  0  0  0  0  0  0
  187.8650  177.1430  142.7400 C   0  0  0  0  0  2  0  0  0  0  0  0
  189.4420  177.7740  146.7580 C   0  0  0  0  0  2  0  0  0  0  0  0
  190.4940  176.1760  144.1720 O   0  0  0  0  0  1  0  0  0  0  0  0
  188.8000  177.2820  145.4520 C   0  0  2  0  0  3  0  0  0  0  0  0
  189.8230  177.3900  144.3120 C   0  0  2  0  0  3  0  0  0  0  0  0
  184.8730  179.1380  144.1520 C   0  0  0  0  0  0  0  0  0  0  0  0
  184.9870  180.4290  144.4500 C   0  0  0  0  0  2  0  0  0  0  0  0
  183.7000  178.3950  144.7090 C   0  0  0  0  0  2  0  0  0  0  0  0
  182.4080  178.8850  144.0790 C   0  0  0  0  0  1  0  0  0  0  0  0
  185.9020  178.7790  141.8860 C   0  0  0  0  0  2  0  0  0  0  0  0
  184.6670  178.2610  141.1660 C   0  0  0  0  0  2  0  0  0  0  0  0
  184.2780  179.2120  140.0530 C   0  0  0  0  0  2  0  0  0  0  0  0
  184.5020  178.5510  138.7070 C   0  0  0  0  0  2  0  0  0  0  0  0
  185.8680  178.7870  138.2620 N   0  0  0  0  0  2  0  0  0  0  0  0
  190.5610  176.5280  138.6450 C   0  0  0  0  0  0  0  0  0  0  0  0
  188.8160  178.1680  139.1610 C   0  0  0  0  0  3  0  0  0  0  0  0
  187.4950  175.9720  136.7420 O   0  0  0  0  0  0  0  0  0  0  0  0
  186.4320  176.7510  136.8750 C   0  0  0  0  0  3  0  0  0  0  0  0
  191.8150  176.0570  138.8480 F   0  0  0  0  0  0  0  0  0  0  0  0
  186.7260  177.7330  137.8180 C   0  0  0  0  0  0  0  0  0  0  0  0
  190.1140  177.6620  139.3600 C   0  0  0  0  0  3  0  0  0  0  0  0
  188.4370  176.4090  137.5450 C   0  0  0  0  0  0  0  0  0  0  0  0
  188.0090  177.5060  138.2400 C   0  0  0  0  0  0  0  0  0  0  0  0
  189.7160  175.8860  137.7210 C   0  0  0  0  0  3  0  0  0  0  0  0
  1 13  1  0  0  0  0
  2  1  1  6  0  0  0
  2  3  1  0  0  0  0
  3 11  1  0  0  0  0
  3  5  1  1  0  0  0
  4  7  1  0  0  0  0
  5  4  1  0  0  0  0
  6 12  1  0  0  0  0
  8  6  1  0  0  0  0
  8  2  1  0  0  0  0
  9  7  1  0  0  0  0
 11  9  1  1  0  0  0
 12 10  1  6  0  0  0
 12 11  1  0  0  0  0
 13 14  2  0  0  0  0
 13 15  1  0  0  0  0
 16 15  1  0  0  0  0
 17  1  1  0  0  0  0
 18 17  1  0  0  0  0
 19 18  1  0  0  0  0
 20 19  1  0  0  0  0
 21 20  1  0  0  0  0
 22 26  1  0  0  0  0
 22 28  1  0  0  0  0
 23 28  2  0  0  0  0
 24 25  1  0  0  0  0
 24 29  1  0  0  0  0
 25 27  2  0  0  0  0
 27 30  1  0  0  0  0
 27 21  1  0  0  0  0
 29 31  1  0  0  0  0
 29 30  2  0  0  0  0
 30 23  1  0  0  0  0
 31 22  2  0  0  0  0
M  END
>  <MODEL>
7

>  <REMARK>
 VINA RESULT:      -7.4      2.659      5.092
  Name = 
  9 active torsions:
  status: ('A' for Active; 'I' for Inactive)
    1  A    between atoms: C_2  and  N_12
    2  A    between atoms: C_2  and  C_13
    3  A    between atoms: C_4  and  N_12
    4  A    between atoms: C_9  and  N_23
    5  A    between atoms: N_12  and  C_25
    6  A    between atoms: C_15  and  C_20
    7  A    between atoms: C_15  and  N_23
    8  A    between atoms: C_20  and  C_27
    9  A    between atoms: C_25  and  C_27
                            x       y       z     vdW  Elec       q    Type
                         _______ _______ _______ _____ _____    ______ ____

>  <TORSDO>
F 9

$$$$
=
 OpenBabel10272400293D

 31 34  0  0  1  0  0  0  0  0999 V2000
  189.1920  177.3290  143.5180 N   0  0  0  0  0  0  0  0  0  0  0  0
  188.5300  176.9950  144.7860 C   0  0  2  0  0  3  0  0  0  0  0  0
  187.4720  178.0400  145.1860 C   0  0  1  0  0  3  0  0  0  0  0  0
  184.9370  178.4090  144.9460 C   0  0  0  0  0  2  0  0  0  0  0  0
  186.2250  177.8790  144.3050 C   0  0  0  0  0  2  0  0  0  0  0  0
  189.6730  177.7830  146.9100 C   0  0  0  0  0  2  0  0  0  0  0  0
  185.2310  179.5300  145.9340 C   0  0  0  0  0  2  0  0  0  0  0  0
  189.5530  176.6620  145.8820 C   0  0  0  0  0  2  0  0  0  0  0  0
  186.0880  179.0180  147.0960 C   0  0  0  0  0  2  0  0  0  0  0  0
  188.1800  177.1490  148.6710 O   0  0  0  0  0  1  0  0  0  0  0  0
  187.1170  177.9550  146.6830 C   0  0  2  0  0  3  0  0  0  0  0  0
  188.3370  178.0410  147.6100 C   0  0  2  0  0  3  0  0  0  0  0  0
  190.5240  177.8910  143.4330 C   0  0  0  0  0  0  0  0  0  0  0  0
  190.7640  179.1590  143.7530 C   0  0  0  0  0  2  0  0  0  0  0  0
  191.6800  177.0540  142.9840 C   0  0  0  0  0  2  0  0  0  0  0  0
  191.9710  177.2900  141.5120 C   0  0  0  0  0  1  0  0  0  0  0  0
  188.4700  176.9970  142.2910 C   0  0  0  0  0  2  0  0  0  0  0  0
  188.4960  178.1600  141.3130 C   0  0  0  0  0  2  0  0  0  0  0  0
  188.6380  177.6440  139.8960 C   0  0  0  0  0  2  0  0  0  0  0  0
  188.9820  178.7870  138.9620 C   0  0  0  0  0  2  0  0  0  0  0  0
  189.5150  178.2620  137.7130 N   0  0  0  0  0  2  0  0  0  0  0  0
  188.5440  173.2470  136.6230 C   0  0  0  0  0  0  0  0  0  0  0  0
  188.0110  175.6200  136.9080 C   0  0  0  0  0  3  0  0  0  0  0  0
  191.4390  175.2340  137.6240 O   0  0  0  0  0  0  0  0  0  0  0  0
  191.3610  176.5400  137.8310 C   0  0  0  0  0  3  0  0  0  0  0  0
  188.1410  171.9900  136.3190 F   0  0  0  0  0  0  0  0  0  0  0  0
  190.0470  176.9390  137.5980 C   0  0  0  0  0  0  0  0  0  0  0  0
  187.6120  174.3080  136.5920 C   0  0  0  0  0  3  0  0  0  0  0  0
  190.2530  174.7930  137.2770 C   0  0  0  0  0  0  0  0  0  0  0  0
  189.3470  175.8170  137.2450 C   0  0  0  0  0  0  0  0  0  0  0  0
  189.8880  173.4840  136.9700 C   0  0  0  0  0  3  0  0  0  0  0  0
  2  1  1  6  0  0  0
  2  3  1  0  0  0  0
  2  8  1  0  0  0  0
  3  5  1  6  0  0  0
  3 11  1  0  0  0  0
  4  7  1  0  0  0  0
  5  4  1  0  0  0  0
  6 12  1  0  0  0  0
  7  9  1  0  0  0  0
  8  6  1  0  0  0  0
 11  9  1  1  0  0  0
 11 12  1  0  0  0  0
 12 10  1  1  0  0  0
 13  1  1  0  0  0  0
 13 14  2  0  0  0  0
 15 13  1  0  0  0  0
 16 15  1  0  0  0  0
 17  1  1  0  0  0  0
 18 17  1  0  0  0  0
 19 18  1  0  0  0  0
 20 19  1  0  0  0  0
 21 20  1  0  0  0  0
 22 31  1  0  0  0  0
 23 30  2  0  0  0  0
 24 25  1  0  0  0  0
 26 22  1  0  0  0  0
 27 21  1  0  0  0  0
 27 25  2  0  0  0  0
 28 22  2  0  0  0  0
 28 23  1  0  0  0  0
 29 24  1  0  0  0  0
 30 29  1  0  0  0  0
 30 27  1  0  0  0  0
 31 29  2  0  0  0  0
M  END
>  <MODEL>
8

>  <REMARK>
 VINA RESULT:      -7.3      3.252      4.235
  Name = 
  9 active torsions:
  status: ('A' for Active; 'I' for Inactive)
    1  A    between atoms: C_2  and  N_12
    2  A    between atoms: C_2  and  C_13
    3  A    between atoms: C_4  and  N_12
    4  A    between atoms: C_9  and  N_23
    5  A    between atoms: N_12  and  C_25
    6  A    between atoms: C_15  and  C_20
    7  A    between atoms: C_15  and  N_23
    8  A    between atoms: C_20  and  C_27
    9  A    between atoms: C_25  and  C_27
                            x       y       z     vdW  Elec       q    Type
                         _______ _______ _______ _____ _____    ______ ____

>  <TORSDO>
F 9

$$$$
=
 OpenBabel10272400293D

 31 34  0  0  1  0  0  0  0  0999 V2000
  189.1380  177.4290  143.6350 N   0  0  0  0  0  0  0  0  0  0  0  0
  188.4450  177.0490  144.8730 C   0  0  2  0  0  3  0  0  0  0  0  0
  187.2580  177.9780  145.1880 C   0  0  1  0  0  3  0  0  0  0  0  0
  184.7150  178.0600  144.8000 C   0  0  0  0  0  2  0  0  0  0  0  0
  186.0880  177.6640  144.2440 C   0  0  0  0  0  2  0  0  0  0  0  0
  189.3710  177.9980  147.0360 C   0  0  0  0  0  2  0  0  0  0  0  0
  184.8280  179.2260  145.7740 C   0  0  0  0  0  2  0  0  0  0  0  0
  189.4330  176.8520  146.0320 C   0  0  0  0  0  2  0  0  0  0  0  0
  185.6680  178.8340  146.9940 C   0  0  0  0  0  2  0  0  0  0  0  0
  187.8570  177.2370  148.7280 O   0  0  0  0  0  1  0  0  0  0  0  0
  186.8290  177.8830  146.6640 C   0  0  2  0  0  3  0  0  0  0  0  0
  187.9770  178.1200  147.6550 C   0  0  2  0  0  3  0  0  0  0  0  0
  190.5050  177.9030  143.5960 C   0  0  0  0  0  0  0  0  0  0  0  0
  190.8250  179.1330  143.9890 C   0  0  0  0  0  2  0  0  0  0  0  0
  191.6100  177.0170  143.1130 C   0  0  0  0  0  2  0  0  0  0  0  0
  191.9810  177.3560  141.6810 C   0  0  0  0  0  1  0  0  0  0  0  0
  188.4040  177.2390  142.3850 C   0  0  0  0  0  2  0  0  0  0  0  0
  188.3760  178.5220  141.5700 C   0  0  0  0  0  2  0  0  0  0  0  0
  187.3360  178.4170  140.4730 C   0  0  0  0  0  2  0  0  0  0  0  0
  185.9720  178.7900  141.0180 C   0  0  0  0  0  2  0  0  0  0  0  0
  185.2270  179.5380  140.0160 N   0  0  0  0  0  2  0  0  0  0  0  0
  184.0150  176.5720  135.8910 C   0  0  0  0  0  0  0  0  0  0  0  0
  185.4990  177.7210  137.4650 C   0  0  0  0  0  3  0  0  0  0  0  0
  182.1920  178.3810  138.4880 O   0  0  0  0  0  0  0  0  0  0  0  0
  182.8120  179.0680  139.4360 C   0  0  0  0  0  3  0  0  0  0  0  0
  183.8570  175.7940  134.7940 F   0  0  0  0  0  0  0  0  0  0  0  0
  184.1850  178.9490  139.2330 C   0  0  0  0  0  0  0  0  0  0  0  0
  185.3150  176.9110  136.3300 C   0  0  0  0  0  3  0  0  0  0  0  0
  183.0960  177.8400  137.7030 C   0  0  0  0  0  0  0  0  0  0  0  0
  184.3560  178.1640  138.1240 C   0  0  0  0  0  0  0  0  0  0  0  0
  182.8820  177.0410  136.5830 C   0  0  0  0  0  3  0  0  0  0  0  0
  2  1  1  6  0  0  0
  2  3  1  0  0  0  0
  2  8  1  0  0  0  0
  3  5  1  6  0  0  0
  3 11  1  0  0  0  0
  4  7  1  0  0  0  0
  5  4  1  0  0  0  0
  6 12  1  0  0  0  0
  7  9  1  0  0  0  0
  8  6  1  0  0  0  0
 11  9  1  1  0  0  0
 11 12  1  0  0  0  0
 12 10  1  1  0  0  0
 13  1  1  0  0  0  0
 13 14  2  0  0  0  0
 15 13  1  0  0  0  0
 16 15  1  0  0  0  0
 17  1  1  0  0  0  0
 18 17  1  0  0  0  0
 19 20  1  0  0  0  0
 19 18  1  0  0  0  0
 21 20  1  0  0  0  0
 22 28  2  0  0  0  0
 22 31  1  0  0  0  0
 23 30  2  0  0  0  0
 24 25  1  0  0  0  0
 26 22  1  0  0  0  0
 27 25  2  0  0  0  0
 27 21  1  0  0  0  0
 28 23  1  0  0  0  0
 29 30  1  0  0  0  0
 29 24  1  0  0  0  0
 30 27  1  0  0  0  0
 31 29  2  0  0  0  0
M  END
>  <MODEL>
9

>  <REMARK>
 VINA RESULT:      -7.3      1.695      2.440
  Name = 
  9 active torsions:
  status: ('A' for Active; 'I' for Inactive)
    1  A    between atoms: C_2  and  N_12
    2  A    between atoms: C_2  and  C_13
    3  A    between atoms: C_4  and  N_12
    4  A    between atoms: C_9  and  N_23
    5  A    between atoms: N_12  and  C_25
    6  A    between atoms: C_15  and  C_20
    7  A    between atoms: C_15  and  N_23
    8  A    between atoms: C_20  and  C_27
    9  A    between atoms: C_25  and  C_27
                            x       y       z     vdW  Elec       q    Type
                         _______ _______ _______ _____ _____    ______ ____

>  <TORSDO>
F 9

$$$$
