=
 OpenBabel10272400383D

 31 34  0  0  1  0  0  0  0  0999 V2000
  188.1200  177.3910  144.2110 C   0  0  0  0  0  0  0  0  0  0  0  0
  187.1950  177.8320  145.2040 C   0  0  0  0  0  0  0  0  0  0  0  0
  186.5870  178.2550  147.5310 C   0  0  0  0  0  3  0  0  0  0  0  0
  189.4260  176.9110  144.5040 C   0  0  0  0  0  0  0  0  0  0  0  0
  191.5640  176.7120  145.6220 C   0  0  2  0  0  3  0  0  0  0  0  0
  187.5050  177.8200  146.5750 C   0  0  0  0  0  3  0  0  0  0  0  0
  188.6050  177.0100  141.8200 C   0  0  0  0  0  0  0  0  0  0  0  0
  185.5570  178.3270  143.4650 C   0  0  0  0  0  3  0  0  0  0  0  0
  185.3330  178.7110  147.1350 C   0  0  0  0  0  3  0  0  0  0  0  0
  189.8760  176.5340  142.1600 C   0  0  0  0  0  3  0  0  0  0  0  0
  187.7250  177.4330  142.8390 C   0  0  0  0  0  0  0  0  0  0  0  0
  190.0600  176.8140  145.8480 C   0  0  0  0  0  2  0  0  0  0  0  0
  183.7300  179.1970  145.4130 O   0  0  0  0  0  1  0  0  0  0  0  0
  190.2610  176.4770  143.4930 C   0  0  0  0  0  0  0  0  0  0  0  0
  191.8590  175.8990  144.0110 S   0  0  0  0  0  0  0  0  0  0  0  0
  186.4520  177.9000  142.4930 C   0  0  0  0  0  3  0  0  0  0  0  0
  185.9100  178.3000  144.8130 C   0  0  0  0  0  0  0  0  0  0  0  0
  184.9890  178.7370  145.7820 C   0  0  0  0  0  0  0  0  0  0  0  0
  189.1910  179.0980  139.8090 O   0  0  0  0  0  0  0  0  0  0  0  0
  188.4870  178.1030  139.4920 C   0  0  0  0  0  0  0  0  0  0  0  0
  188.1860  177.0740  140.4460 N   0  0  0  0  0  2  0  0  0  0  0  0
  188.7260  178.9300  137.1600 C   0  0  0  0  0  1  0  0  0  0  0  0
  187.9690  177.9990  138.0930 C   0  0  2  0  0  3  0  0  0  0  0  0
  185.7690  177.7800  136.8070 C   0  0  0  0  0  1  0  0  0  0  0  0
  186.4930  178.2430  138.0290 C   0  0  0  0  0  0  0  0  0  0  0  0
  185.8890  178.8290  139.0260 N   0  0  0  0  0  0  0  0  0  0  0  0
  184.4910  179.1360  139.1470 C   0  0  0  0  0  0  0  0  0  0  0  0
  184.0530  180.3040  138.9740 O   0  0  0  0  0  0  0  0  0  0  0  0
  183.5400  178.0470  139.4850 C   0  0  0  0  0  1  0  0  0  0  0  0
  192.2000  175.9200  146.7500 C   0  0  0  0  0  2  0  0  0  0  0  0
  191.9710  176.6170  148.0770 C   0  0  0  0  0  1  0  0  0  0  0  0
  1  4  1  0  0  0  0
  1  2  2  0  0  0  0
  2  6  1  0  0  0  0
  4 12  1  0  0  0  0
  5 12  1  0  0  0  0
  5 30  1  1  0  0  0
  6  3  2  0  0  0  0
  7 10  2  0  0  0  0
  7 11  1  0  0  0  0
  8 17  2  0  0  0  0
  9  3  1  0  0  0  0
 10 14  1  0  0  0  0
 11  1  1  0  0  0  0
 13 18  1  0  0  0  0
 14 15  1  0  0  0  0
 14  4  2  0  0  0  0
 15  5  1  0  0  0  0
 16 11  2  0  0  0  0
 16  8  1  0  0  0  0
 17  2  1  0  0  0  0
 17 18  1  0  0  0  0
 18  9  2  0  0  0  0
 20 19  2  0  0  0  0
 20 21  1  0  0  0  0
 21  7  1  0  0  0  0
 23 22  1  6  0  0  0
 23 20  1  0  0  0  0
 24 25  1  0  0  0  0
 25 23  1  0  0  0  0
 25 26  2  0  0  0  0
 26 27  1  0  0  0  0
 27 29  1  0  0  0  0
 28 27  2  0  0  0  0
 30 31  1  0  0  0  0
M  END
>  <MODEL>
1

>  <REMARK>
 VINA RESULT:     -10.3      0.000      0.000
  Name = 
  5 active torsions:
  status: ('A' for Active; 'I' for Inactive)
    1  A    between atoms: C_1  and  N_24
    2  A    between atoms: C_2  and  C_13
    3  A    between atoms: C_9  and  C_22
    4  A    between atoms: C_15  and  N_23
    5  A    between atoms: C_19  and  C_22
                            x       y       z     vdW  Elec       q    Type
                         _______ _______ _______ _____ _____    ______ ____

>  <TORSDO>
F 5

$$$$
=
 OpenBabel10272400383D

 31 34  0  0  1  0  0  0  0  0999 V2000
  187.7360  177.8100  143.8190 C   0  0  0  0  0  0  0  0  0  0  0  0
  186.5230  178.1170  144.5040 C   0  0  0  0  0  0  0  0  0  0  0  0
  185.2090  178.3140  146.5540 C   0  0  0  0  0  3  0  0  0  0  0  0
  188.9260  177.3810  144.4690 C   0  0  0  0  0  0  0  0  0  0  0  0
  190.6350  177.2100  146.1760 C   0  0  2  0  0  3  0  0  0  0  0  0
  186.4040  178.0110  145.9010 C   0  0  0  0  0  3  0  0  0  0  0  0
  188.9500  177.6520  141.6740 C   0  0  0  0  0  0  0  0  0  0  0  0
  185.4550  178.6590  142.3800 C   0  0  0  0  0  3  0  0  0  0  0  0
  184.1020  178.7310  145.8200 C   0  0  0  0  0  3  0  0  0  0  0  0
  190.0910  177.2210  142.3590 C   0  0  0  0  0  3  0  0  0  0  0  0
  187.7730  177.9410  142.3980 C   0  0  0  0  0  0  0  0  0  0  0  0
  189.1290  177.2100  145.9350 C   0  0  0  0  0  2  0  0  0  0  0  0
  183.0620  179.2650  143.7210 O   0  0  0  0  0  1  0  0  0  0  0  0
  190.0590  177.0780  143.7390 C   0  0  0  0  0  0  0  0  0  0  0  0
  191.4650  176.5490  144.6870 S   0  0  0  0  0  0  0  0  0  0  0  0
  186.6320  178.3640  141.7050 C   0  0  0  0  0  3  0  0  0  0  0  0
  185.3840  178.5430  143.7670 C   0  0  0  0  0  0  0  0  0  0  0  0
  184.1820  178.8470  144.4310 C   0  0  0  0  0  0  0  0  0  0  0  0
  190.4790  176.1060  139.6710 O   0  0  0  0  0  0  0  0  0  0  0  0
  189.7180  177.0350  139.2950 C   0  0  0  0  0  0  0  0  0  0  0  0
  188.9620  177.8030  140.2440 N   0  0  0  0  0  2  0  0  0  0  0  0
  189.0630  178.7320  137.6020 C   0  0  0  0  0  1  0  0  0  0  0  0
  189.5990  177.3290  137.8340 C   0  0  2  0  0  3  0  0  0  0  0  0
  189.4570  175.4200  136.1380 C   0  0  0  0  0  1  0  0  0  0  0  0
  188.7680  176.3030  137.1280 C   0  0  0  0  0  0  0  0  0  0  0  0
  187.4970  176.2010  137.3980 N   0  0  0  0  0  0  0  0  0  0  0  0
  186.5510  175.2790  136.8330 C   0  0  0  0  0  0  0  0  0  0  0  0
  186.3820  174.1270  137.3130 O   0  0  0  0  0  0  0  0  0  0  0  0
  185.7530  175.6980  135.6530 C   0  0  0  0  0  1  0  0  0  0  0  0
  190.9590  176.3660  147.3950 C   0  0  0  0  0  2  0  0  0  0  0  0
  192.2920  175.6670  147.2120 C   0  0  0  0  0  1  0  0  0  0  0  0
  1  4  1  0  0  0  0
  1  2  1  0  0  0  0
  2  6  2  0  0  0  0
  4 12  1  0  0  0  0
  5 30  1  1  0  0  0
  6  3  1  0  0  0  0
  7 10  2  0  0  0  0
  7 11  1  0  0  0  0
  8 17  1  0  0  0  0
  9  3  2  0  0  0  0
 10 14  1  0  0  0  0
 11  1  2  0  0  0  0
 12  5  1  0  0  0  0
 13 18  1  0  0  0  0
 14  4  2  0  0  0  0
 14 15  1  0  0  0  0
 15  5  1  0  0  0  0
 16  8  2  0  0  0  0
 16 11  1  0  0  0  0
 17 18  2  0  0  0  0
 17  2  1  0  0  0  0
 18  9  1  0  0  0  0
 20 19  2  0  0  0  0
 20 21  1  0  0  0  0
 21  7  1  0  0  0  0
 23 22  1  1  0  0  0
 23 20  1  0  0  0  0
 24 25  1  0  0  0  0
 25 26  2  0  0  0  0
 25 23  1  0  0  0  0
 27 28  2  0  0  0  0
 27 26  1  0  0  0  0
 29 27  1  0  0  0  0
 31 30  1  0  0  0  0
M  END
>  <MODEL>
2

>  <REMARK>
 VINA RESULT:     -10.1      1.931      2.437
  Name = 
  5 active torsions:
  status: ('A' for Active; 'I' for Inactive)
    1  A    between atoms: C_1  and  N_24
    2  A    between atoms: C_2  and  C_13
    3  A    between atoms: C_9  and  C_22
    4  A    between atoms: C_15  and  N_23
    5  A    between atoms: C_19  and  C_22
                            x       y       z     vdW  Elec       q    Type
                         _______ _______ _______ _____ _____    ______ ____

>  <TORSDO>
F 5

$$$$
=
 OpenBabel10272400383D

 31 34  0  0  1  0  0  0  0  0999 V2000
  187.6010  177.7860  143.8830 C   0  0  0  0  0  0  0  0  0  0  0  0
  186.4160  178.1100  144.6100 C   0  0  0  0  0  0  0  0  0  0  0  0
  185.1860  178.3540  146.7040 C   0  0  0  0  0  3  0  0  0  0  0  0
  188.8160  177.3700  144.4950 C   0  0  0  0  0  0  0  0  0  0  0  0
  190.5910  177.2340  146.1360 C   0  0  2  0  0  3  0  0  0  0  0  0
  186.3540  178.0350  146.0120 C   0  0  0  0  0  3  0  0  0  0  0  0
  188.7290  177.5790  141.6960 C   0  0  0  0  0  0  0  0  0  0  0  0
  185.2650  178.6070  142.5170 C   0  0  0  0  0  3  0  0  0  0  0  0
  184.0500  178.7570  146.0060 C   0  0  0  0  0  3  0  0  0  0  0  0
  189.8960  177.1610  142.3440 C   0  0  0  0  0  3  0  0  0  0  0  0
  187.5820  177.8860  142.4590 C   0  0  0  0  0  0  0  0  0  0  0  0
  189.0770  177.2310  145.9550 C   0  0  0  0  0  2  0  0  0  0  0  0
  182.9280  179.2460  143.9390 O   0  0  0  0  0  1  0  0  0  0  0  0
  189.9180  177.0490  143.7280 C   0  0  0  0  0  0  0  0  0  0  0  0
  191.3610  176.5390  144.6310 S   0  0  0  0  0  0  0  0  0  0  0  0
  186.4140  178.2950  141.8040 C   0  0  0  0  0  3  0  0  0  0  0  0
  185.2500  178.5210  143.9090 C   0  0  0  0  0  0  0  0  0  0  0  0
  184.0750  178.8420  144.6130 C   0  0  0  0  0  0  0  0  0  0  0  0
  190.9830  177.7020  139.7860 O   0  0  0  0  0  0  0  0  0  0  0  0
  189.8000  177.7560  139.3610 C   0  0  0  0  0  0  0  0  0  0  0  0
  188.6840  177.6990  140.2630 N   0  0  0  0  0  2  0  0  0  0  0  0
  188.1380  178.3150  137.6000 C   0  0  0  0  0  1  0  0  0  0  0  0
  189.5630  177.8740  137.8890 C   0  0  2  0  0  3  0  0  0  0  0  0
  189.9010  176.6360  135.6770 C   0  0  0  0  0  1  0  0  0  0  0  0
  189.8980  176.6040  137.1710 C   0  0  0  0  0  0  0  0  0  0  0  0
  190.1850  175.5300  137.8530 N   0  0  0  0  0  0  0  0  0  0  0  0
  190.5370  174.2340  137.3420 C   0  0  0  0  0  0  0  0  0  0  0  0
  189.6900  173.3060  137.2510 O   0  0  0  0  0  0  0  0  0  0  0  0
  191.9360  173.9850  136.9110 C   0  0  0  0  0  1  0  0  0  0  0  0
  190.9630  176.4160  147.3590 C   0  0  0  0  0  2  0  0  0  0  0  0
  192.2460  175.6480  147.1090 C   0  0  0  0  0  1  0  0  0  0  0  0
  1  4  1  0  0  0  0
  1  2  1  0  0  0  0
  2  6  2  0  0  0  0
  4 12  1  0  0  0  0
  5 30  1  1  0  0  0
  6  3  1  0  0  0  0
  7 10  2  0  0  0  0
  7 11  1  0  0  0  0
  8 17  1  0  0  0  0
  9  3  2  0  0  0  0
 10 14  1  0  0  0  0
 11  1  2  0  0  0  0
 12  5  1  0  0  0  0
 13 18  1  0  0  0  0
 14  4  2  0  0  0  0
 14 15  1  0  0  0  0
 15  5  1  0  0  0  0
 16 11  1  0  0  0  0
 16  8  2  0  0  0  0
 17  2  1  0  0  0  0
 17 18  2  0  0  0  0
 18  9  1  0  0  0  0
 20 19  2  0  0  0  0
 20 21  1  0  0  0  0
 21  7  1  0  0  0  0
 23 22  1  1  0  0  0
 23 20  1  0  0  0  0
 24 25  1  0  0  0  0
 25 26  2  0  0  0  0
 25 23  1  0  0  0  0
 27 26  1  0  0  0  0
 28 27  2  0  0  0  0
 29 27  1  0  0  0  0
 31 30  1  0  0  0  0
M  END
>  <MODEL>
3

>  <REMARK>
 VINA RESULT:      -9.9      2.208      3.334
  Name = 
  5 active torsions:
  status: ('A' for Active; 'I' for Inactive)
    1  A    between atoms: C_1  and  N_24
    2  A    between atoms: C_2  and  C_13
    3  A    between atoms: C_9  and  C_22
    4  A    between atoms: C_15  and  N_23
    5  A    between atoms: C_19  and  C_22
                            x       y       z     vdW  Elec       q    Type
                         _______ _______ _______ _____ _____    ______ ____

>  <TORSDO>
F 5

$$$$
=
 OpenBabel10272400383D

 31 34  0  0  1  0  0  0  0  0999 V2000
  188.3780  177.8120  142.9190 C   0  0  0  0  0  0  0  0  0  0  0  0
  188.8260  177.5340  144.2450 C   0  0  0  0  0  0  0  0  0  0  0  0
  188.4140  177.2880  146.6400 C   0  0  0  0  0  3  0  0  0  0  0  0
  187.0320  178.1320  142.5890 C   0  0  0  0  0  0  0  0  0  0  0  0
  184.6130  178.1010  142.6780 C   0  0  2  0  0  3  0  0  0  0  0  0
  187.9570  177.5620  145.3500 C   0  0  0  0  0  3  0  0  0  0  0  0
  188.9320  178.0290  140.5220 C   0  0  0  0  0  0  0  0  0  0  0  0
  191.0910  177.1830  143.4120 C   0  0  0  0  0  3  0  0  0  0  0  0
  189.7550  176.9810  146.8530 C   0  0  0  0  0  3  0  0  0  0  0  0
  187.5980  178.3530  140.2500 C   0  0  0  0  0  3  0  0  0  0  0  0
  189.3260  177.7650  141.8520 C   0  0  0  0  0  0  0  0  0  0  0  0
  185.8770  178.2020  143.5260 C   0  0  0  0  0  2  0  0  0  0  0  0
  191.9820  176.6350  146.0190 O   0  0  0  0  0  1  0  0  0  0  0  0
  186.6740  178.4130  141.2850 C   0  0  0  0  0  0  0  0  0  0  0  0
  184.9600  178.8020  141.0260 S   0  0  0  0  0  0  0  0  0  0  0  0
  190.6630  177.4510  142.1180 C   0  0  0  0  0  3  0  0  0  0  0  0
  190.1930  177.2190  144.4770 C   0  0  0  0  0  0  0  0  0  0  0  0
  190.6470  176.9440  145.7800 C   0  0  0  0  0  0  0  0  0  0  0  0
  189.9270  175.6490  139.0780 O   0  0  0  0  0  0  0  0  0  0  0  0
  190.3680  176.7900  138.7820 C   0  0  0  0  0  0  0  0  0  0  0  0
  189.9040  177.9650  139.4650 N   0  0  0  0  0  2  0  0  0  0  0  0
  190.8910  176.2710  136.4080 C   0  0  0  0  0  1  0  0  0  0  0  0
  191.3860  176.9130  137.6930 C   0  0  2  0  0  3  0  0  0  0  0  0
  193.2820  176.8220  139.4070 C   0  0  0  0  0  1  0  0  0  0  0  0
  192.7120  176.3540  138.1080 C   0  0  0  0  0  0  0  0  0  0  0  0
  193.3140  175.4840  137.3470 N   0  0  0  0  0  0  0  0  0  0  0  0
  194.5750  174.8370  137.5820 C   0  0  0  0  0  0  0  0  0  0  0  0
  195.6700  175.4130  137.3450 O   0  0  0  0  0  0  0  0  0  0  0  0
  194.5860  173.4520  138.1180 C   0  0  0  0  0  1  0  0  0  0  0  0
  183.4800  178.8500  143.3560 C   0  0  0  0  0  2  0  0  0  0  0  0
  183.7400  178.9650  144.8450 C   0  0  0  0  0  1  0  0  0  0  0  0
  1  2  2  0  0  0  0
  2 17  1  0  0  0  0
  2  6  1  0  0  0  0
  3  9  1  0  0  0  0
  4  1  1  0  0  0  0
  4 12  1  0  0  0  0
  5 30  1  1  0  0  0
  5 12  1  0  0  0  0
  6  3  2  0  0  0  0
  7 11  1  0  0  0  0
  8 17  2  0  0  0  0
 10  7  2  0  0  0  0
 10 14  1  0  0  0  0
 11 16  2  0  0  0  0
 11  1  1  0  0  0  0
 14  4  2  0  0  0  0
 15 14  1  0  0  0  0
 15  5  1  0  0  0  0
 16  8  1  0  0  0  0
 17 18  1  0  0  0  0
 18 13  1  0  0  0  0
 18  9  2  0  0  0  0
 20 19  2  0  0  0  0
 20 21  1  0  0  0  0
 21  7  1  0  0  0  0
 23 22  1  6  0  0  0
 23 25  1  0  0  0  0
 23 20  1  0  0  0  0
 25 24  1  0  0  0  0
 26 27  1  0  0  0  0
 26 25  2  0  0  0  0
 27 29  1  0  0  0  0
 28 27  2  0  0  0  0
 30 31  1  0  0  0  0
M  END
>  <MODEL>
4

>  <REMARK>
 VINA RESULT:      -9.7      3.694      6.345
  Name = 
  5 active torsions:
  status: ('A' for Active; 'I' for Inactive)
    1  A    between atoms: C_1  and  N_24
    2  A    between atoms: C_2  and  C_13
    3  A    between atoms: C_9  and  C_22
    4  A    between atoms: C_15  and  N_23
    5  A    between atoms: C_19  and  C_22
                            x       y       z     vdW  Elec       q    Type
                         _______ _______ _______ _____ _____    ______ ____

>  <TORSDO>
F 5

$$$$
=
 OpenBabel10272400383D

 31 34  0  0  1  0  0  0  0  0999 V2000
  188.0310  177.8350  143.7510 C   0  0  0  0  0  0  0  0  0  0  0  0
  188.6360  177.5400  145.0090 C   0  0  0  0  0  0  0  0  0  0  0  0
  188.5180  177.2640  147.4320 C   0  0  0  0  0  3  0  0  0  0  0  0
  186.6560  178.1630  143.5910 C   0  0  0  0  0  0  0  0  0  0  0  0
  184.2660  178.1350  143.9750 C   0  0  2  0  0  3  0  0  0  0  0  0
  187.9090  177.5550  146.2120 C   0  0  0  0  0  3  0  0  0  0  0  0
  188.2880  178.0830  141.3070 C   0  0  0  0  0  0  0  0  0  0  0  0
  190.7810  177.1950  143.9000 C   0  0  0  0  0  3  0  0  0  0  0  0
  189.8750  176.9510  147.4760 C   0  0  0  0  0  3  0  0  0  0  0  0
  186.9320  178.4120  141.2040 C   0  0  0  0  0  3  0  0  0  0  0  0
  188.8400  177.8000  142.5750 C   0  0  0  0  0  0  0  0  0  0  0  0
  185.6240  178.2220  144.6630 C   0  0  0  0  0  2  0  0  0  0  0  0
  191.9810  176.6110  146.3720 O   0  0  0  0  0  1  0  0  0  0  0  0
  186.1420  178.4610  142.3440 C   0  0  0  0  0  0  0  0  0  0  0  0
  184.4110  178.8570  142.3020 S   0  0  0  0  0  0  0  0  0  0  0  0
  190.2000  177.4800  142.6720 C   0  0  0  0  0  3  0  0  0  0  0  0
  190.0200  177.2190  145.0680 C   0  0  0  0  0  0  0  0  0  0  0  0
  190.6280  176.9260  146.3020 C   0  0  0  0  0  0  0  0  0  0  0  0
  187.5070  178.3640  138.4690 O   0  0  0  0  0  0  0  0  0  0  0  0
  188.7140  178.1690  138.7690 C   0  0  0  0  0  0  0  0  0  0  0  0
  189.1240  178.0290  140.1380 N   0  0  0  0  0  2  0  0  0  0  0  0
  189.1220  178.4830  136.3380 C   0  0  0  0  0  1  0  0  0  0  0  0
  189.7300  178.0940  137.6750 C   0  0  2  0  0  3  0  0  0  0  0  0
  191.5580  176.5000  138.4880 C   0  0  0  0  0  1  0  0  0  0  0  0
  190.3750  176.7430  137.6090 C   0  0  0  0  0  0  0  0  0  0  0  0
  189.8890  175.8320  136.8130 N   0  0  0  0  0  0  0  0  0  0  0  0
  190.3630  174.4890  136.6240 C   0  0  0  0  0  0  0  0  0  0  0  0
  189.9660  173.5390  137.3490 O   0  0  0  0  0  0  0  0  0  0  0  0
  191.3460  174.2170  135.5440 C   0  0  0  0  0  1  0  0  0  0  0  0
  183.2270  178.8780  144.7950 C   0  0  0  0  0  2  0  0  0  0  0  0
  181.8680  178.7920  144.1270 C   0  0  0  0  0  1  0  0  0  0  0  0
  1  2  2  0  0  0  0
  2 17  1  0  0  0  0
  2  6  1  0  0  0  0
  3  9  1  0  0  0  0
  4  1  1  0  0  0  0
  4 12  1  0  0  0  0
  5 12  1  0  0  0  0
  5 30  1  1  0  0  0
  6  3  2  0  0  0  0
  7 11  1  0  0  0  0
  8 17  2  0  0  0  0
 10  7  2  0  0  0  0
 10 14  1  0  0  0  0
 11 16  2  0  0  0  0
 11  1  1  0  0  0  0
 14  4  2  0  0  0  0
 15 14  1  0  0  0  0
 15  5  1  0  0  0  0
 16  8  1  0  0  0  0
 17 18  1  0  0  0  0
 18 13  1  0  0  0  0
 18  9  2  0  0  0  0
 19 20  2  0  0  0  0
 20 21  1  0  0  0  0
 21  7  1  0  0  0  0
 23 22  1  6  0  0  0
 23 20  1  0  0  0  0
 25 23  1  0  0  0  0
 25 24  1  0  0  0  0
 26 25  2  0  0  0  0
 27 26  1  0  0  0  0
 27 28  2  0  0  0  0
 29 27  1  0  0  0  0
 31 30  1  0  0  0  0
M  END
>  <MODEL>
5

>  <REMARK>
 VINA RESULT:      -9.5      3.099      5.536
  Name = 
  5 active torsions:
  status: ('A' for Active; 'I' for Inactive)
    1  A    between atoms: C_1  and  N_24
    2  A    between atoms: C_2  and  C_13
    3  A    between atoms: C_9  and  C_22
    4  A    between atoms: C_15  and  N_23
    5  A    between atoms: C_19  and  C_22
                            x       y       z     vdW  Elec       q    Type
                         _______ _______ _______ _____ _____    ______ ____

>  <TORSDO>
F 5

$$$$
=
 OpenBabel10272400383D

 31 34  0  0  1  0  0  0  0  0999 V2000
  187.7180  177.9650  143.4150 C   0  0  0  0  0  0  0  0  0  0  0  0
  186.6380  178.1480  144.3290 C   0  0  0  0  0  0  0  0  0  0  0  0
  185.7180  178.1340  146.5910 C   0  0  0  0  0  3  0  0  0  0  0  0
  189.0300  177.5790  143.8070 C   0  0  0  0  0  0  0  0  0  0  0  0
  191.0320  177.4220  145.1590 C   0  0  2  0  0  3  0  0  0  0  0  0
  186.7860  177.9510  145.7130 C   0  0  0  0  0  3  0  0  0  0  0  0
  188.5200  178.0180  141.0800 C   0  0  0  0  0  0  0  0  0  0  0  0
  185.1660  178.7440  142.4770 C   0  0  0  0  0  3  0  0  0  0  0  0
  184.4720  178.5190  146.1010 C   0  0  0  0  0  3  0  0  0  0  0  0
  189.7910  177.6240  141.5140 C   0  0  0  0  0  3  0  0  0  0  0  0
  187.4840  178.1840  142.0230 C   0  0  0  0  0  0  0  0  0  0  0  0
  189.5100  177.3350  145.1950 C   0  0  0  0  0  2  0  0  0  0  0  0
  183.0330  179.1060  144.2690 O   0  0  0  0  0  1  0  0  0  0  0  0
  190.0220  177.3970  142.8640 C   0  0  0  0  0  0  0  0  0  0  0  0
  191.6070  176.9090  143.5010 S   0  0  0  0  0  0  0  0  0  0  0  0
  186.2130  178.5690  141.5810 C   0  0  0  0  0  3  0  0  0  0  0  0
  185.3600  178.5400  143.8420 C   0  0  0  0  0  0  0  0  0  0  0  0
  184.2870  178.7230  144.7330 C   0  0  0  0  0  0  0  0  0  0  0  0
  188.8680  176.1680  138.7990 O   0  0  0  0  0  0  0  0  0  0  0  0
  188.4390  177.3340  138.5990 C   0  0  0  0  0  0  0  0  0  0  0  0
  188.2590  178.2550  139.6860 N   0  0  0  0  0  2  0  0  0  0  0  0
  188.5950  179.1650  136.9260 C   0  0  0  0  0  1  0  0  0  0  0  0
  188.1050  177.7540  137.2030 C   0  0  2  0  0  3  0  0  0  0  0  0
  186.2210  177.5390  135.4870 C   0  0  0  0  0  1  0  0  0  0  0  0
  186.6410  177.6180  136.9180 C   0  0  0  0  0  0  0  0  0  0  0  0
  185.7920  177.5600  137.9060 N   0  0  0  0  0  0  0  0  0  0  0  0
  184.3640  177.4220  137.8280 C   0  0  0  0  0  0  0  0  0  0  0  0
  183.5970  178.4150  137.9320 O   0  0  0  0  0  0  0  0  0  0  0  0
  183.7800  176.0720  137.6210 C   0  0  0  0  0  1  0  0  0  0  0  0
  191.6220  176.5300  146.2350 C   0  0  0  0  0  2  0  0  0  0  0  0
  190.7430  176.5420  147.4710 C   0  0  0  0  0  1  0  0  0  0  0  0
  1  4  1  0  0  0  0
  1  2  2  0  0  0  0
  2  6  1  0  0  0  0
  4 12  1  0  0  0  0
  5 12  1  0  0  0  0
  5 30  1  1  0  0  0
  6  3  2  0  0  0  0
  7 10  2  0  0  0  0
  7 11  1  0  0  0  0
  8 17  2  0  0  0  0
  9  3  1  0  0  0  0
 10 14  1  0  0  0  0
 11  1  1  0  0  0  0
 13 18  1  0  0  0  0
 14 15  1  0  0  0  0
 14  4  2  0  0  0  0
 15  5  1  0  0  0  0
 16 11  2  0  0  0  0
 16  8  1  0  0  0  0
 17  2  1  0  0  0  0
 17 18  1  0  0  0  0
 18  9  2  0  0  0  0
 20 19  2  0  0  0  0
 20 21  1  0  0  0  0
 21  7  1  0  0  0  0
 23 22  1  1  0  0  0
 23 20  1  0  0  0  0
 24 25  1  0  0  0  0
 25 23  1  0  0  0  0
 25 26  2  0  0  0  0
 27 26  1  0  0  0  0
 27 28  2  0  0  0  0
 29 27  1  0  0  0  0
 30 31  1  0  0  0  0
M  END
>  <MODEL>
6

>  <REMARK>
 VINA RESULT:      -9.4      1.345      1.449
  Name = 
  5 active torsions:
  status: ('A' for Active; 'I' for Inactive)
    1  A    between atoms: C_1  and  N_24
    2  A    between atoms: C_2  and  C_13
    3  A    between atoms: C_9  and  C_22
    4  A    between atoms: C_15  and  N_23
    5  A    between atoms: C_19  and  C_22
                            x       y       z     vdW  Elec       q    Type
                         _______ _______ _______ _____ _____    ______ ____

>  <TORSDO>
F 5

$$$$
=
 OpenBabel10272400383D

 31 34  0  0  1  0  0  0  0  0999 V2000
  188.6040  177.5990  143.6040 C   0  0  0  0  0  0  0  0  0  0  0  0
  189.5250  177.5720  142.5150 C   0  0  0  0  0  0  0  0  0  0  0  0
  191.7880  177.3380  141.6270 C   0  0  0  0  0  3  0  0  0  0  0  0
  188.9790  177.4110  144.9640 C   0  0  0  0  0  0  0  0  0  0  0  0
  190.1810  176.5470  146.8790 C   0  0  2  0  0  3  0  0  0  0  0  0
  190.9020  177.3610  142.7040 C   0  0  0  0  0  3  0  0  0  0  0  0
  186.2700  177.8540  144.3700 C   0  0  0  0  0  0  0  0  0  0  0  0
  187.6970  177.9810  140.9530 C   0  0  0  0  0  3  0  0  0  0  0  0
  191.3130  177.5290  140.3310 C   0  0  0  0  0  3  0  0  0  0  0  0
  186.6910  177.6780  145.6920 C   0  0  0  0  0  3  0  0  0  0  0  0
  187.2210  177.8210  143.3270 C   0  0  0  0  0  0  0  0  0  0  0  0
  190.3470  177.1300  145.4800 C   0  0  0  0  0  2  0  0  0  0  0  0
  189.5040  177.9300  138.8020 O   0  0  0  0  0  1  0  0  0  0  0  0
  188.0360  177.4740  145.9700 C   0  0  0  0  0  0  0  0  0  0  0  0
  188.6540  177.2280  147.6180 S   0  0  0  0  0  0  0  0  0  0  0  0
  186.7940  178.0080  142.0070 C   0  0  0  0  0  3  0  0  0  0  0  0
  189.0540  177.7650  141.1880 C   0  0  0  0  0  0  0  0  0  0  0  0
  189.9520  177.7420  140.1060 C   0  0  0  0  0  0  0  0  0  0  0  0
  184.8720  180.4090  143.8550 O   0  0  0  0  0  0  0  0  0  0  0  0
  184.2310  179.3260  143.8160 C   0  0  0  0  0  0  0  0  0  0  0  0
  184.8820  178.0700  144.0610 N   0  0  0  0  0  2  0  0  0  0  0  0
  181.9810  178.5020  144.4760 C   0  0  0  0  0  1  0  0  0  0  0  0
  182.7700  179.3590  143.5000 C   0  0  2  0  0  3  0  0  0  0  0  0
  181.0740  178.8850  141.6450 C   0  0  0  0  0  1  0  0  0  0  0  0
  182.5010  178.9610  142.0810 C   0  0  0  0  0  0  0  0  0  0  0  0
  183.4970  178.7080  141.2790 N   0  0  0  0  0  0  0  0  0  0  0  0
  183.4350  178.3230  139.8970 C   0  0  0  0  0  0  0  0  0  0  0  0
  183.5760  179.1640  138.9690 O   0  0  0  0  0  0  0  0  0  0  0  0
  183.1980  176.8980  139.5540 C   0  0  0  0  0  1  0  0  0  0  0  0
  191.3910  176.8950  147.7260 C   0  0  0  0  0  2  0  0  0  0  0  0
  192.3930  175.7570  147.7060 C   0  0  0  0  0  1  0  0  0  0  0  0
  1  4  1  0  0  0  0
  2  6  2  0  0  0  0
  2  1  1  0  0  0  0
  3  6  1  0  0  0  0
  4 12  1  0  0  0  0
  4 14  2  0  0  0  0
  5 15  1  0  0  0  0
  5 30  1  1  0  0  0
  7 10  2  0  0  0  0
  8 17  1  0  0  0  0
  8 16  2  0  0  0  0
  9  3  2  0  0  0  0
 10 14  1  0  0  0  0
 11  1  2  0  0  0  0
 11  7  1  0  0  0  0
 12  5  1  0  0  0  0
 13 18  1  0  0  0  0
 14 15  1  0  0  0  0
 16 11  1  0  0  0  0
 17  2  1  0  0  0  0
 18  9  1  0  0  0  0
 18 17  2  0  0  0  0
 20 19  2  0  0  0  0
 20 21  1  0  0  0  0
 21  7  1  0  0  0  0
 23 20  1  0  0  0  0
 23 22  1  1  0  0  0
 24 25  1  0  0  0  0
 25 23  1  0  0  0  0
 26 25  2  0  0  0  0
 27 26  1  0  0  0  0
 28 27  2  0  0  0  0
 29 27  1  0  0  0  0
 31 30  1  0  0  0  0
M  END
>  <MODEL>
7

>  <REMARK>
 VINA RESULT:      -9.0      2.172      5.058
  Name = 
  5 active torsions:
  status: ('A' for Active; 'I' for Inactive)
    1  A    between atoms: C_1  and  N_24
    2  A    between atoms: C_2  and  C_13
    3  A    between atoms: C_9  and  C_22
    4  A    between atoms: C_15  and  N_23
    5  A    between atoms: C_19  and  C_22
                            x       y       z     vdW  Elec       q    Type
                         _______ _______ _______ _____ _____    ______ ____

>  <TORSDO>
F 5

$$$$
=
 OpenBabel10272400383D

 31 34  0  0  1  0  0  0  0  0999 V2000
  187.5060  178.0000  143.4910 C   0  0  0  0  0  0  0  0  0  0  0  0
  186.5070  178.1590  144.4980 C   0  0  0  0  0  0  0  0  0  0  0  0
  185.7860  178.0990  146.8300 C   0  0  0  0  0  3  0  0  0  0  0  0
  188.8490  177.6170  143.7610 C   0  0  0  0  0  0  0  0  0  0  0  0
  190.9610  177.4530  144.9330 C   0  0  2  0  0  3  0  0  0  0  0  0
  186.7750  177.9400  145.8600 C   0  0  0  0  0  3  0  0  0  0  0  0
  188.1030  178.0990  141.0970 C   0  0  0  0  0  0  0  0  0  0  0  0
  184.8780  178.7750  142.7900 C   0  0  0  0  0  3  0  0  0  0  0  0
  184.5000  178.4830  146.4560 C   0  0  0  0  0  3  0  0  0  0  0  0
  189.4090  177.7080  141.4130 C   0  0  0  0  0  3  0  0  0  0  0  0
  187.1510  178.2410  142.1290 C   0  0  0  0  0  0  0  0  0  0  0  0
  189.4480  177.3540  145.0990 C   0  0  0  0  0  2  0  0  0  0  0  0
  182.9050  179.0910  144.7650 O   0  0  0  0  0  1  0  0  0  0  0  0
  189.7570  177.4590  142.7330 C   0  0  0  0  0  0  0  0  0  0  0  0
  191.3940  176.9720  143.2230 S   0  0  0  0  0  0  0  0  0  0  0  0
  185.8440  178.6240  141.8050 C   0  0  0  0  0  3  0  0  0  0  0  0
  185.1900  178.5500  144.1300 C   0  0  0  0  0  0  0  0  0  0  0  0
  184.1970  178.7090  145.1130 C   0  0  0  0  0  0  0  0  0  0  0  0
  188.3580  176.3270  138.7430 O   0  0  0  0  0  0  0  0  0  0  0  0
  187.8590  177.4750  138.6110 C   0  0  0  0  0  0  0  0  0  0  0  0
  187.7210  178.3580  139.7350 N   0  0  0  0  0  2  0  0  0  0  0  0
  185.8940  177.7330  137.1110 C   0  0  0  0  0  1  0  0  0  0  0  0
  187.3960  177.9130  137.2580 C   0  0  2  0  0  3  0  0  0  0  0  0
  187.3520  176.7410  134.9850 C   0  0  0  0  0  1  0  0  0  0  0  0
  188.1400  177.2110  136.1640 C   0  0  0  0  0  0  0  0  0  0  0  0
  189.4290  177.0440  136.2610 N   0  0  0  0  0  0  0  0  0  0  0  0
  190.3060  176.4090  135.3170 C   0  0  0  0  0  0  0  0  0  0  0  0
  190.8130  177.0440  134.3540 O   0  0  0  0  0  0  0  0  0  0  0  0
  190.6210  174.9670  135.4820 C   0  0  0  0  0  1  0  0  0  0  0  0
  191.6470  176.5470  145.9390 C   0  0  0  0  0  2  0  0  0  0  0  0
  191.0070  176.6960  147.3050 C   0  0  0  0  0  1  0  0  0  0  0  0
  1  4  1  0  0  0  0
  1  2  2  0  0  0  0
  2  6  1  0  0  0  0
  4 12  1  0  0  0  0
  5 12  1  0  0  0  0
  5 30  1  1  0  0  0
  6  3  2  0  0  0  0
  7 10  2  0  0  0  0
  7 11  1  0  0  0  0
  8 17  2  0  0  0  0
  9  3  1  0  0  0  0
 10 14  1  0  0  0  0
 11  1  1  0  0  0  0
 13 18  1  0  0  0  0
 14 15  1  0  0  0  0
 14  4  2  0  0  0  0
 15  5  1  0  0  0  0
 16 11  2  0  0  0  0
 16  8  1  0  0  0  0
 17  2  1  0  0  0  0
 17 18  1  0  0  0  0
 18  9  2  0  0  0  0
 20 19  2  0  0  0  0
 20 21  1  0  0  0  0
 21  7  1  0  0  0  0
 23 22  1  6  0  0  0
 23 20  1  0  0  0  0
 24 25  1  0  0  0  0
 25 26  2  0  0  0  0
 25 23  1  0  0  0  0
 27 29  1  0  0  0  0
 27 26  1  0  0  0  0
 28 27  2  0  0  0  0
 30 31  1  0  0  0  0
M  END
>  <MODEL>
8

>  <REMARK>
 VINA RESULT:      -9.0      2.087      3.103
  Name = 
  5 active torsions:
  status: ('A' for Active; 'I' for Inactive)
    1  A    between atoms: C_1  and  N_24
    2  A    between atoms: C_2  and  C_13
    3  A    between atoms: C_9  and  C_22
    4  A    between atoms: C_15  and  N_23
    5  A    between atoms: C_19  and  C_22
                            x       y       z     vdW  Elec       q    Type
                         _______ _______ _______ _____ _____    ______ ____

>  <TORSDO>
F 5

$$$$
=
 OpenBabel10272400383D

 31 34  0  0  1  0  0  0  0  0999 V2000
  188.5550  177.7950  142.4690 C   0  0  0  0  0  0  0  0  0  0  0  0
  187.1860  178.1970  142.4950 C   0  0  0  0  0  0  0  0  0  0  0  0
  185.1030  178.6370  143.6910 C   0  0  0  0  0  3  0  0  0  0  0  0
  189.2910  177.4150  143.6260 C   0  0  0  0  0  0  0  0  0  0  0  0
  190.0250  177.3940  145.9330 C   0  0  2  0  0  3  0  0  0  0  0  0
  186.4410  178.2430  143.6860 C   0  0  0  0  0  3  0  0  0  0  0  0
  190.5960  177.3870  141.1390 C   0  0  0  0  0  0  0  0  0  0  0  0
  187.2350  178.5310  140.0790 C   0  0  0  0  0  3  0  0  0  0  0  0
  184.4790  178.9950  142.4990 C   0  0  0  0  0  3  0  0  0  0  0  0
  191.2720  177.0090  142.3050 C   0  0  0  0  0  3  0  0  0  0  0  0
  189.2400  177.7740  141.2170 C   0  0  0  0  0  0  0  0  0  0  0  0
  188.7960  177.3980  145.0310 C   0  0  0  0  0  2  0  0  0  0  0  0
  184.5400  179.3230  140.1200 O   0  0  0  0  0  1  0  0  0  0  0  0
  190.6080  177.0140  143.5240 C   0  0  0  0  0  0  0  0  0  0  0  0
  191.3940  176.5620  145.0510 S   0  0  0  0  0  0  0  0  0  0  0  0
  188.5670  178.1430  140.0460 C   0  0  0  0  0  3  0  0  0  0  0  0
  186.5360  178.5650  141.2850 C   0  0  0  0  0  0  0  0  0  0  0  0
  185.1870  178.9610  141.2970 C   0  0  0  0  0  0  0  0  0  0  0  0
  190.4230  175.3840  138.9710 O   0  0  0  0  0  0  0  0  0  0  0  0
  191.1600  176.3950  138.8310 C   0  0  0  0  0  0  0  0  0  0  0  0
  191.2640  177.3850  139.8660 N   0  0  0  0  0  2  0  0  0  0  0  0
  190.9950  176.6010  136.3600 C   0  0  0  0  0  1  0  0  0  0  0  0
  191.9280  176.5620  137.5590 C   0  0  2  0  0  3  0  0  0  0  0  0
  192.6400  174.3190  136.5590 C   0  0  0  0  0  1  0  0  0  0  0  0
  192.9770  175.5050  137.4020 C   0  0  0  0  0  0  0  0  0  0  0  0
  194.1350  175.6500  137.9820 N   0  0  0  0  0  0  0  0  0  0  0  0
  195.2570  174.7540  137.9390 C   0  0  0  0  0  0  0  0  0  0  0  0
  195.8130  174.4420  136.8520 O   0  0  0  0  0  0  0  0  0  0  0  0
  195.7740  174.1830  139.2090 C   0  0  0  0  0  1  0  0  0  0  0  0
  189.7060  176.6780  147.2320 C   0  0  0  0  0  2  0  0  0  0  0  0
  188.4290  177.2270  147.8370 C   0  0  0  0  0  1  0  0  0  0  0  0
  1  2  1  0  0  0  0
  1  4  1  0  0  0  0
  2  6  2  0  0  0  0
  4 12  1  0  0  0  0
  5 30  1  1  0  0  0
  6  3  1  0  0  0  0
  7 11  1  0  0  0  0
  7 10  2  0  0  0  0
  8 17  1  0  0  0  0
  9  3  2  0  0  0  0
 10 14  1  0  0  0  0
 11  1  2  0  0  0  0
 12  5  1  0  0  0  0
 13 18  1  0  0  0  0
 14  4  2  0  0  0  0
 14 15  1  0  0  0  0
 15  5  1  0  0  0  0
 16  8  2  0  0  0  0
 16 11  1  0  0  0  0
 17 18  2  0  0  0  0
 17  2  1  0  0  0  0
 18  9  1  0  0  0  0
 20 19  2  0  0  0  0
 20 21  1  0  0  0  0
 21  7  1  0  0  0  0
 23 22  1  6  0  0  0
 23 20  1  0  0  0  0
 24 25  1  0  0  0  0
 25 23  1  0  0  0  0
 25 26  2  0  0  0  0
 27 26  1  0  0  0  0
 27 29  1  0  0  0  0
 28 27  2  0  0  0  0
 30 31  1  0  0  0  0
M  END
>  <MODEL>
9

>  <REMARK>
 VINA RESULT:      -8.9      3.495      5.446
  Name = 
  5 active torsions:
  status: ('A' for Active; 'I' for Inactive)
    1  A    between atoms: C_1  and  N_24
    2  A    between atoms: C_2  and  C_13
    3  A    between atoms: C_9  and  C_22
    4  A    between atoms: C_15  and  N_23
    5  A    between atoms: C_19  and  C_22
                            x       y       z     vdW  Elec       q    Type
                         _______ _______ _______ _____ _____    ______ ____

>  <TORSDO>
F 5

$$$$
