=
 OpenBabel10272401323D

 55 60  0  0  1  0  0  0  0  0999 V2000
  189.6690  177.1680  137.3770 C   0  0  1  0  0  3  0  0  0  0  0  0
  192.4280  173.9000  136.8710 C   0  0  0  0  0  3  0  0  0  0  0  0
  190.6470  176.0440  137.1810 C   0  0  0  0  0  0  0  0  0  0  0  0
  190.1620  174.7430  137.0100 C   0  0  0  0  0  3  0  0  0  0  0  0
  192.9200  175.1950  137.0500 C   0  0  0  0  0  3  0  0  0  0  0  0
  191.0480  173.6730  136.8530 C   0  0  0  0  0  3  0  0  0  0  0  0
  192.0330  176.2650  137.2080 C   0  0  0  0  0  3  0  0  0  0  0  0
  188.8810  177.4680  136.1350 C   0  0  0  0  0  0  0  0  0  0  0  0
  189.4890  177.7170  135.1040 O   0  0  0  0  0  0  0  0  0  0  0  0
  186.9200  178.4900  135.2510 O   0  0  0  0  0  1  0  0  0  0  0  0
  187.3750  177.5490  136.1740 C   0  0  1  0  0  3  0  0  0  0  0  0
  187.3210  175.3830  135.2050 O   0  0  0  0  0  0  0  0  0  0  0  0
  183.4700  174.3570  136.4610 C   0  0  2  0  0  3  0  0  0  0  0  0
  183.0290  172.9160  136.3870 C   0  0  0  0  0  3  0  0  0  0  0  0
  185.6730  173.5160  137.3290 C   0  0  0  0  0  2  0  0  0  0  0  0
  185.3220  172.0790  136.9530 C   0  0  0  0  0  2  0  0  0  0  0  0
  186.7190  176.2180  135.9330 C   0  0  0  0  0  0  0  0  0  0  0  0
  183.8540  171.8900  136.6560 C   0  0  0  0  0  3  0  0  0  0  0  0
  184.9950  174.4760  136.3490 C   0  0  2  0  0  3  0  0  0  0  0  0
  185.0490  177.9570  137.5150 O   0  0  0  0  0  0  0  0  0  0  0  0
  183.4330  176.3280  137.9370 N   0  0  0  0  0  0  0  0  0  0  0  0
  183.0000  174.9420  137.7870 C   0  0  0  0  0  2  0  0  0  0  0  0
  185.4630  175.8530  136.5490 N   0  0  0  0  0  0  0  0  0  0  0  0
  184.6790  176.7640  137.3550 C   0  0  0  0  0  0  0  0  0  0  0  0
  181.0800  177.8470  137.0240 C   0  0  0  0  0  1  0  0  0  0  0  0
  183.1290  177.2760  140.1860 C   0  0  0  0  0  3  0  0  0  0  0  0
  182.4270  178.0700  141.0940 C   0  0  0  0  0  3  0  0  0  0  0  0
  181.5580  177.8820  138.4360 C   0  0  0  0  0  0  0  0  0  0  0  0
  180.8600  178.6760  139.3510 C   0  0  0  0  0  3  0  0  0  0  0  0
  181.2900  178.7720  140.6790 C   0  0  0  0  0  0  0  0  0  0  0  0
  182.7060  177.1710  138.8500 C   0  0  0  0  0  0  0  0  0  0  0  0
  180.5210  179.6080  141.6480 C   0  0  0  0  0  3  0  0  0  0  0  0
  180.2330  180.8450  141.0980 F   0  0  0  0  0  0  0  0  0  0  0  0
  181.2510  179.7740  142.8120 F   0  0  0  0  0  0  0  0  0  0  0  0
  188.7430  176.9720  138.5780 C   0  0  0  0  0  2  0  0  0  0  0  0
  189.0180  177.9980  139.6650 C   0  0  2  0  0  3  0  0  0  0  0  0
  189.0840  179.2540  139.0890 F   0  0  0  0  0  0  0  0  0  0  0  0
  190.2300  177.7020  140.2990 O   0  0  0  0  0  0  0  0  0  0  0  0
  188.9370  177.8510  143.8370 C   0  0  2  0  0  3  0  0  0  0  0  0
  189.8860  177.1670  141.5440 C   0  0  1  0  0  3  0  0  0  0  0  0
  191.9450  178.0070  142.7210 C   0  0  0  0  0  2  0  0  0  0  0  0
  191.1430  176.7590  142.3390 C   0  0  1  0  0  3  0  0  0  0  0  0
  190.6820  176.1650  143.5910 N   0  0  0  0  0  0  0  0  0  0  0  0
  191.7970  175.4020  144.1570 C   0  0  0  0  0  1  0  0  0  0  0  0
  189.0400  178.1920  142.3270 C   0  0  0  0  0  2  0  0  0  0  0  0
  191.3740  178.4200  144.0700 C   0  0  0  0  0  2  0  0  0  0  0  0
  190.3170  177.3560  144.3830 C   0  0  1  0  0  0  0  0  0  0  0  0
  187.7970  175.7970  143.1720 O   0  0  0  0  0  1  0  0  0  0  0  0
  187.7910  176.8440  144.1040 C   0  0  2  0  0  3  0  0  0  0  0  0
  186.4480  177.5400  144.0210 C   0  0  0  0  0  1  0  0  0  0  0  0
  190.2080  177.0900  145.9040 C   0  0  0  0  0  2  0  0  0  0  0  0
  189.3650  178.1030  146.6690 C   0  0  0  0  0  2  0  0  0  0  0  0
  189.3910  177.7650  148.1450 C   0  0  0  0  0  2  0  0  0  0  0  0
  187.0340  178.2630  147.6050 C   0  0  0  0  0  1  0  0  0  0  0  0
  187.9960  177.9000  148.7160 C   0  0  0  0  0  2  0  0  0  0  0  0
  1 35  1  1  0  0  0
  2  5  1  0  0  0  0
  3  7  1  0  0  0  0
  3  1  1  0  0  0  0
  4  3  2  0  0  0  0
  5  7  2  0  0  0  0
  6  2  2  0  0  0  0
  6  4  1  0  0  0  0
  8 11  1  0  0  0  0
  8  1  1  0  0  0  0
  9  8  2  0  0  0  0
 11 10  1  6  0  0  0
 12 17  2  0  0  0  0
 13 14  1  1  0  0  0
 13 22  1  0  0  0  0
 14 18  2  0  0  0  0
 16 15  1  0  0  0  0
 17 11  1  0  0  0  0
 17 23  1  0  0  0  0
 18 16  1  0  0  0  0
 19 13  1  0  0  0  0
 19 23  1  0  0  0  0
 19 15  1  1  0  0  0
 21 31  1  0  0  0  0
 22 21  1  0  0  0  0
 23 24  1  0  0  0  0
 24 20  2  0  0  0  0
 24 21  1  0  0  0  0
 25 28  1  0  0  0  0
 26 27  1  0  0  0  0
 28 31  1  0  0  0  0
 28 29  2  0  0  0  0
 29 30  1  0  0  0  0
 30 27  2  0  0  0  0
 30 32  1  0  0  0  0
 31 26  2  0  0  0  0
 32 34  1  0  0  0  0
 33 32  1  0  0  0  0
 35 36  1  0  0  0  0
 36 37  1  6  0  0  0
 36 38  1  0  0  0  0
 39 49  1  6  0  0  0
 39 47  1  0  0  0  0
 40 38  1  6  0  0  0
 40 45  1  0  0  0  0
 40 42  1  0  0  0  0
 41 46  1  0  0  0  0
 42 41  1  1  0  0  0
 42 43  1  0  0  0  0
 43 44  1  0  0  0  0
 43 47  1  0  0  0  0
 45 39  1  0  0  0  0
 46 47  1  0  0  0  0
 47 51  1  1  0  0  0
 48 49  1  0  0  0  0
 49 50  1  6  0  0  0
 51 52  1  0  0  0  0
 52 53  1  0  0  0  0
 53 55  1  0  0  0  0
 54 55  1  0  0  0  0
M  END
>  <MODEL>
1

>  <REMARK>
 VINA RESULT:      -8.8      0.000      0.000
  Name = 
  15 active torsions:
  status: ('A' for Active; 'I' for Inactive)
    1  A    between atoms: C_1  and  C_21
    2  A    between atoms: C_3  and  C_25
    3  A    between atoms: C_3  and  C_38
    4  A    between atoms: C_6  and  O_22
    5  A    between atoms: C_8  and  O_22
    6  A    between atoms: C_8  and  C_54
    7  A    between atoms: C_10  and  C_48
    8  A    between atoms: C_19  and  C_37
    9  A    between atoms: C_27  and  C_51
   10  A    between atoms: C_29  and  C_38
   11  A    between atoms: C_29  and  C_53
   12  A    between atoms: N_33  and  C_52
   13  A    between atoms: C_35  and  C_37
   14  A    between atoms: C_35  and  C_51
   15  A    between atoms: C_51  and  C_54
                            x       y       z     vdW  Elec       q    Type
                         _______ _______ _______ _____ _____    ______ ____

>  <TORSDO>
F 15

$$$$
=
 OpenBabel10272401323D

 55 60  0  0  1  0  0  0  0  0999 V2000
  189.7120  177.3000  137.6370 C   0  0  1  0  0  3  0  0  0  0  0  0
  190.8780  173.3080  136.5140 C   0  0  0  0  0  3  0  0  0  0  0  0
  190.1350  175.9180  137.2220 C   0  0  0  0  0  0  0  0  0  0  0  0
  189.1780  174.8980  137.1830 C   0  0  0  0  0  3  0  0  0  0  0  0
  191.8400  174.3200  136.5600 C   0  0  0  0  0  3  0  0  0  0  0  0
  189.5460  173.5970  136.8270 C   0  0  0  0  0  3  0  0  0  0  0  0
  191.4730  175.6210  136.9160 C   0  0  0  0  0  3  0  0  0  0  0  0
  188.8060  177.9500  136.6330 C   0  0  0  0  0  0  0  0  0  0  0  0
  189.1640  177.9910  135.4640 O   0  0  0  0  0  0  0  0  0  0  0  0
  187.4630  179.9140  136.5590 O   0  0  0  0  0  1  0  0  0  0  0  0
  187.5240  178.6170  137.0650 C   0  0  1  0  0  3  0  0  0  0  0  0
  186.2540  177.3810  135.4840 O   0  0  0  0  0  0  0  0  0  0  0  0
  182.8290  176.9170  137.8330 C   0  0  2  0  0  3  0  0  0  0  0  0
  181.7860  175.9040  137.4270 C   0  0  0  0  0  3  0  0  0  0  0  0
  184.5620  175.1970  137.2400 C   0  0  0  0  0  2  0  0  0  0  0  0
  183.5200  174.3220  136.5480 C   0  0  0  0  0  2  0  0  0  0  0  0
  186.3040  177.8380  136.6590 C   0  0  0  0  0  0  0  0  0  0  0  0
  182.1030  174.7130  136.8910 C   0  0  0  0  0  3  0  0  0  0  0  0
  184.1570  176.6670  137.1080 C   0  0  2  0  0  3  0  0  0  0  0  0
  186.0680  178.8650  139.3430 O   0  0  0  0  0  0  0  0  0  0  0  0
  184.0670  177.7530  139.7920 N   0  0  0  0  0  0  0  0  0  0  0  0
  183.0360  176.8230  139.3400 C   0  0  0  0  0  2  0  0  0  0  0  0
  185.2260  177.5540  137.5810 N   0  0  0  0  0  0  0  0  0  0  0  0
  185.1750  178.0790  138.9290 C   0  0  0  0  0  0  0  0  0  0  0  0
  181.6390  178.8920  141.0120 C   0  0  0  0  0  1  0  0  0  0  0  0
  185.2260  178.0060  141.9460 C   0  0  0  0  0  3  0  0  0  0  0  0
  185.2380  178.3670  143.2940 C   0  0  0  0  0  3  0  0  0  0  0  0
  182.8960  178.6730  141.7830 C   0  0  0  0  0  0  0  0  0  0  0  0
  182.9160  179.0320  143.1350 C   0  0  0  0  0  3  0  0  0  0  0  0
  184.0820  178.8810  143.8920 C   0  0  0  0  0  0  0  0  0  0  0  0
  184.0610  178.1530  141.1750 C   0  0  0  0  0  0  0  0  0  0  0  0
  184.0790  179.2500  145.3390 C   0  0  0  0  0  3  0  0  0  0  0  0
  185.2790  179.8480  145.6880 F   0  0  0  0  0  0  0  0  0  0  0  0
  183.8790  178.1220  146.1140 F   0  0  0  0  0  0  0  0  0  0  0  0
  189.1070  177.3600  139.0400 C   0  0  0  0  0  2  0  0  0  0  0  0
  190.1870  177.4040  140.1090 C   0  0  2  0  0  3  0  0  0  0  0  0
  191.4150  177.5820  139.4990 F   0  0  0  0  0  0  0  0  0  0  0  0
  190.1840  176.2060  140.8330 O   0  0  0  0  0  0  0  0  0  0  0  0
  190.5610  175.9120  144.5720 C   0  0  2  0  0  3  0  0  0  0  0  0
  190.7460  176.5130  142.0760 C   0  0  1  0  0  3  0  0  0  0  0  0
  188.8420  177.9820  142.8190 C   0  0  0  0  0  2  0  0  0  0  0  0
  190.3450  177.9320  142.5300 C   0  0  1  0  0  3  0  0  0  0  0  0
  191.0190  178.1790  143.8020 N   0  0  0  0  0  0  0  0  0  0  0  0
  191.0060  179.6260  144.0370 C   0  0  0  0  0  1  0  0  0  0  0  0
  190.3110  175.4550  143.1100 C   0  0  0  0  0  2  0  0  0  0  0  0
  188.7310  177.6120  144.2910 C   0  0  0  0  0  2  0  0  0  0  0  0
  190.1810  177.4190  144.7490 C   0  0  1  0  0  0  0  0  0  0  0  0
  192.5030  174.4410  144.4010 O   0  0  0  0  0  1  0  0  0  0  0  0
  192.0150  175.6050  145.0100 C   0  0  2  0  0  3  0  0  0  0  0  0
  192.0830  175.4150  146.5120 C   0  0  0  0  0  1  0  0  0  0  0  0
  190.3710  177.8320  146.2290 C   0  0  0  0  0  2  0  0  0  0  0  0
  189.4030  177.1730  147.2040 C   0  0  0  0  0  2  0  0  0  0  0  0
  189.1520  178.1070  148.3700 C   0  0  0  0  0  2  0  0  0  0  0  0
  186.9290  177.7010  147.3750 C   0  0  0  0  0  1  0  0  0  0  0  0
  187.7080  178.5590  148.3480 C   0  0  0  0  0  2  0  0  0  0  0  0
  1 35  1  1  0  0  0
  2  5  2  0  0  0  0
  2  6  1  0  0  0  0
  3  1  1  0  0  0  0
  4  3  1  0  0  0  0
  5  7  1  0  0  0  0
  6  4  2  0  0  0  0
  7  3  2  0  0  0  0
  8 11  1  0  0  0  0
  8  1  1  0  0  0  0
  9  8  2  0  0  0  0
 11 10  1  6  0  0  0
 12 17  2  0  0  0  0
 13 14  1  6  0  0  0
 13 22  1  0  0  0  0
 16 18  1  0  0  0  0
 16 15  1  0  0  0  0
 17 11  1  0  0  0  0
 17 23  1  0  0  0  0
 18 14  2  0  0  0  0
 19 15  1  1  0  0  0
 19 23  1  0  0  0  0
 19 13  1  0  0  0  0
 21 31  1  0  0  0  0
 22 21  1  0  0  0  0
 23 24  1  0  0  0  0
 24 20  2  0  0  0  0
 24 21  1  0  0  0  0
 25 28  1  0  0  0  0
 26 27  1  0  0  0  0
 27 30  2  0  0  0  0
 28 29  2  0  0  0  0
 29 30  1  0  0  0  0
 30 32  1  0  0  0  0
 31 28  1  0  0  0  0
 31 26  2  0  0  0  0
 32 33  1  0  0  0  0
 32 34  1  0  0  0  0
 35 36  1  0  0  0  0
 36 37  1  6  0  0  0
 36 38  1  0  0  0  0
 39 47  1  0  0  0  0
 39 49  1  6  0  0  0
 40 38  1  6  0  0  0
 40 42  1  0  0  0  0
 40 45  1  0  0  0  0
 41 46  1  0  0  0  0
 42 41  1  1  0  0  0
 42 43  1  0  0  0  0
 43 44  1  0  0  0  0
 43 47  1  0  0  0  0
 45 39  1  0  0  0  0
 46 47  1  0  0  0  0
 47 51  1  1  0  0  0
 48 49  1  0  0  0  0
 49 50  1  1  0  0  0
 51 52  1  0  0  0  0
 52 53  1  0  0  0  0
 54 55  1  0  0  0  0
 55 53  1  0  0  0  0
M  END
>  <MODEL>
2

>  <REMARK>
 VINA RESULT:      -8.7      1.832      2.881
  Name = 
  15 active torsions:
  status: ('A' for Active; 'I' for Inactive)
    1  A    between atoms: C_1  and  C_21
    2  A    between atoms: C_3  and  C_25
    3  A    between atoms: C_3  and  C_38
    4  A    between atoms: C_6  and  O_22
    5  A    between atoms: C_8  and  O_22
    6  A    between atoms: C_8  and  C_54
    7  A    between atoms: C_10  and  C_48
    8  A    between atoms: C_19  and  C_37
    9  A    between atoms: C_27  and  C_51
   10  A    between atoms: C_29  and  C_38
   11  A    between atoms: C_29  and  C_53
   12  A    between atoms: N_33  and  C_52
   13  A    between atoms: C_35  and  C_37
   14  A    between atoms: C_35  and  C_51
   15  A    between atoms: C_51  and  C_54
                            x       y       z     vdW  Elec       q    Type
                         _______ _______ _______ _____ _____    ______ ____

>  <TORSDO>
F 15

$$$$
=
 OpenBabel10272401323D

 55 60  0  0  1  0  0  0  0  0999 V2000
  189.8600  176.4200  138.4700 C   0  0  1  0  0  3  0  0  0  0  0  0
  191.7090  177.3550  142.2460 C   0  0  0  0  0  3  0  0  0  0  0  0
  190.4790  176.7570  139.7970 C   0  0  0  0  0  0  0  0  0  0  0  0
  191.7380  177.3670  139.8240 C   0  0  0  0  0  3  0  0  0  0  0  0
  190.4540  176.7380  142.2260 C   0  0  0  0  0  3  0  0  0  0  0  0
  192.3510  177.6670  141.0440 C   0  0  0  0  0  3  0  0  0  0  0  0
  189.8410  176.4360  141.0060 C   0  0  0  0  0  3  0  0  0  0  0  0
  188.4360  176.8830  138.3650 C   0  0  0  0  0  0  0  0  0  0  0  0
  187.6420  176.1910  137.7420 O   0  0  0  0  0  0  0  0  0  0  0  0
  188.6330  179.2530  138.2470 O   0  0  0  0  0  1  0  0  0  0  0  0
  188.0100  178.2130  138.9340 C   0  0  1  0  0  3  0  0  0  0  0  0
  185.9410  178.4750  137.7990 O   0  0  0  0  0  0  0  0  0  0  0  0
  183.5770  179.1100  141.1870 C   0  0  2  0  0  3  0  0  0  0  0  0
  182.0750  179.0170  141.0670 C   0  0  0  0  0  3  0  0  0  0  0  0
  183.7020  177.0670  139.7290 C   0  0  0  0  0  2  0  0  0  0  0  0
  182.2220  177.1790  139.3700 C   0  0  0  0  0  2  0  0  0  0  0  0
  186.5170  178.3950  138.9190 C   0  0  0  0  0  0  0  0  0  0  0  0
  181.4650  178.1130  140.2830 C   0  0  0  0  0  3  0  0  0  0  0  0
  184.2700  178.4660  139.9790 C   0  0  2  0  0  3  0  0  0  0  0  0
  187.5600  178.3840  141.6070 O   0  0  0  0  0  0  0  0  0  0  0  0
  185.4590  178.4250  142.6200 N   0  0  0  0  0  0  0  0  0  0  0  0
  184.0070  178.4050  142.4680 C   0  0  0  0  0  2  0  0  0  0  0  0
  185.7290  178.4240  140.1310 N   0  0  0  0  0  0  0  0  0  0  0  0
  186.3090  178.3910  141.4560 C   0  0  0  0  0  0  0  0  0  0  0  0
  183.9020  179.2120  144.9940 C   0  0  0  0  0  1  0  0  0  0  0  0
  187.2940  177.7230  144.1000 C   0  0  0  0  0  3  0  0  0  0  0  0
  187.8350  177.5330  145.3730 C   0  0  0  0  0  3  0  0  0  0  0  0
  185.2590  178.6030  145.0920 C   0  0  0  0  0  0  0  0  0  0  0  0
  185.8080  178.4090  146.3640 C   0  0  0  0  0  3  0  0  0  0  0  0
  187.0930  177.8750  146.5080 C   0  0  0  0  0  0  0  0  0  0  0  0
  186.0040  178.2580  143.9420 C   0  0  0  0  0  0  0  0  0  0  0  0
  187.6550  177.6560  147.8740 C   0  0  0  0  0  3  0  0  0  0  0  0
  188.5900  178.6320  148.1740 F   0  0  0  0  0  0  0  0  0  0  0  0
  188.2450  176.4070  147.9460 F   0  0  0  0  0  0  0  0  0  0  0  0
  190.6800  176.9000  137.2720 C   0  0  0  0  0  2  0  0  0  0  0  0
  190.9480  175.7680  136.2930 C   0  0  2  0  0  3  0  0  0  0  0  0
  189.7750  175.4630  135.6290 F   0  0  0  0  0  0  0  0  0  0  0  0
  191.4090  174.6430  136.9860 O   0  0  0  0  0  0  0  0  0  0  0  0
  194.4090  172.4370  136.3980 C   0  0  2  0  0  3  0  0  0  0  0  0
  192.5650  174.2320  136.3170 C   0  0  1  0  0  3  0  0  0  0  0  0
  194.1540  175.2040  138.0090 C   0  0  0  0  0  2  0  0  0  0  0  0
  193.7190  175.2310  136.5410 C   0  0  1  0  0  3  0  0  0  0  0  0
  194.8580  174.7480  135.7640 N   0  0  0  0  0  0  0  0  0  0  0  0
  195.7980  175.8630  135.6140 C   0  0  0  0  0  1  0  0  0  0  0  0
  192.9550  172.8170  136.7880 C   0  0  0  0  0  2  0  0  0  0  0  0
  195.2340  174.1320  138.0610 C   0  0  0  0  0  2  0  0  0  0  0  0
  195.3690  173.6540  136.6110 C   0  0  1  0  0  0  0  0  0  0  0  0
  193.1990  171.8280  134.3660 O   0  0  0  0  0  1  0  0  0  0  0  0
  194.4690  171.8710  134.9580 C   0  0  2  0  0  3  0  0  0  0  0  0
  195.0320  170.4650  134.9670 C   0  0  0  0  0  1  0  0  0  0  0  0
  196.8220  173.2310  136.2830 C   0  0  0  0  0  2  0  0  0  0  0  0
  197.4630  172.3060  137.3110 C   0  0  0  0  0  2  0  0  0  0  0  0
  198.7790  171.7880  136.7680 C   0  0  0  0  0  2  0  0  0  0  0  0
  197.6200  169.7400  137.5140 C   0  0  0  0  0  1  0  0  0  0  0  0
  198.6980  170.2860  136.6020 C   0  0  0  0  0  2  0  0  0  0  0  0
  1 35  1  6  0  0  0
  1  3  1  0  0  0  0
  3  4  2  0  0  0  0
  3  7  1  0  0  0  0
  4  6  1  0  0  0  0
  5  2  1  0  0  0  0
  6  2  2  0  0  0  0
  7  5  2  0  0  0  0
  8  1  1  0  0  0  0
  8 11  1  0  0  0  0
  9  8  2  0  0  0  0
 11 10  1  6  0  0  0
 12 17  2  0  0  0  0
 13 14  1  6  0  0  0
 13 22  1  0  0  0  0
 16 15  1  0  0  0  0
 16 18  1  0  0  0  0
 17 11  1  0  0  0  0
 17 23  1  0  0  0  0
 18 14  2  0  0  0  0
 19 15  1  1  0  0  0
 19 23  1  0  0  0  0
 19 13  1  0  0  0  0
 21 31  1  0  0  0  0
 22 21  1  0  0  0  0
 23 24  1  0  0  0  0
 24 20  2  0  0  0  0
 24 21  1  0  0  0  0
 25 28  1  0  0  0  0
 26 27  1  0  0  0  0
 27 30  2  0  0  0  0
 28 29  2  0  0  0  0
 29 30  1  0  0  0  0
 30 32  1  0  0  0  0
 31 26  2  0  0  0  0
 31 28  1  0  0  0  0
 32 34  1  0  0  0  0
 32 33  1  0  0  0  0
 36 37  1  1  0  0  0
 36 38  1  0  0  0  0
 36 35  1  0  0  0  0
 39 49  1  6  0  0  0
 39 47  1  0  0  0  0
 39 45  1  0  0  0  0
 40 42  1  0  0  0  0
 40 45  1  0  0  0  0
 40 38  1  1  0  0  0
 41 46  1  0  0  0  0
 42 41  1  1  0  0  0
 43 42  1  0  0  0  0
 43 47  1  0  0  0  0
 44 43  1  0  0  0  0
 47 51  1  6  0  0  0
 47 46  1  0  0  0  0
 48 49  1  0  0  0  0
 49 50  1  1  0  0  0
 51 52  1  0  0  0  0
 53 52  1  0  0  0  0
 55 53  1  0  0  0  0
 55 54  1  0  0  0  0
M  END
>  <MODEL>
3

>  <REMARK>
 VINA RESULT:      -7.3      3.681      8.217
  Name = 
  15 active torsions:
  status: ('A' for Active; 'I' for Inactive)
    1  A    between atoms: C_1  and  C_21
    2  A    between atoms: C_3  and  C_25
    3  A    between atoms: C_3  and  C_38
    4  A    between atoms: C_6  and  O_22
    5  A    between atoms: C_8  and  O_22
    6  A    between atoms: C_8  and  C_54
    7  A    between atoms: C_10  and  C_48
    8  A    between atoms: C_19  and  C_37
    9  A    between atoms: C_27  and  C_51
   10  A    between atoms: C_29  and  C_38
   11  A    between atoms: C_29  and  C_53
   12  A    between atoms: N_33  and  C_52
   13  A    between atoms: C_35  and  C_37
   14  A    between atoms: C_35  and  C_51
   15  A    between atoms: C_51  and  C_54
                            x       y       z     vdW  Elec       q    Type
                         _______ _______ _______ _____ _____    ______ ____

>  <TORSDO>
F 15

$$$$
=
 OpenBabel10272401323D

 55 60  0  0  1  0  0  0  0  0999 V2000
  189.1760  177.2130  137.3160 C   0  0  1  0  0  3  0  0  0  0  0  0
  191.8290  173.8330  137.0170 C   0  0  0  0  0  3  0  0  0  0  0  0
  190.1200  176.0490  137.1930 C   0  0  0  0  0  0  0  0  0  0  0  0
  189.5940  174.7660  137.0030 C   0  0  0  0  0  3  0  0  0  0  0  0
  192.3600  175.1110  137.2150 C   0  0  0  0  0  3  0  0  0  0  0  0
  190.4460  173.6610  136.9120 C   0  0  0  0  0  3  0  0  0  0  0  0
  191.5090  176.2160  137.3070 C   0  0  0  0  0  3  0  0  0  0  0  0
  188.4920  177.5380  136.0200 C   0  0  0  0  0  0  0  0  0  0  0  0
  189.1830  177.7690  135.0380 O   0  0  0  0  0  0  0  0  0  0  0  0
  186.6320  178.5340  134.9170 O   0  0  0  0  0  1  0  0  0  0  0  0
  186.9910  177.6670  135.9480 C   0  0  1  0  0  3  0  0  0  0  0  0
  186.7770  175.5320  134.9320 O   0  0  0  0  0  0  0  0  0  0  0  0
  183.1970  174.4390  136.7890 C   0  0  2  0  0  3  0  0  0  0  0  0
  182.7520  172.9980  136.7450 C   0  0  0  0  0  3  0  0  0  0  0  0
  185.5170  173.5870  137.2440 C   0  0  0  0  0  2  0  0  0  0  0  0
  185.1100  172.1600  136.8860 C   0  0  0  0  0  2  0  0  0  0  0  0
  186.3060  176.3390  135.7790 C   0  0  0  0  0  0  0  0  0  0  0  0
  183.6130  171.9700  136.8370 C   0  0  0  0  0  3  0  0  0  0  0  0
  184.6810  174.5730  136.4240 C   0  0  2  0  0  3  0  0  0  0  0  0
  184.9260  178.0160  137.6760 O   0  0  0  0  0  0  0  0  0  0  0  0
  183.4080  176.3630  138.3130 N   0  0  0  0  0  0  0  0  0  0  0  0
  182.9580  174.9780  138.1950 C   0  0  0  0  0  2  0  0  0  0  0  0
  185.1730  175.9460  136.5860 N   0  0  0  0  0  0  0  0  0  0  0  0
  184.5360  176.8250  137.5430 C   0  0  0  0  0  0  0  0  0  0  0  0
  180.7920  177.6710  137.9580 C   0  0  0  0  0  1  0  0  0  0  0  0
  183.5540  177.3440  140.5640 C   0  0  0  0  0  3  0  0  0  0  0  0
  183.0180  178.1060  141.6030 C   0  0  0  0  0  3  0  0  0  0  0  0
  181.5780  177.7800  139.2200 C   0  0  0  0  0  0  0  0  0  0  0  0
  181.0480  178.5430  140.2660 C   0  0  0  0  0  3  0  0  0  0  0  0
  181.7630  178.7070  141.4570 C   0  0  0  0  0  0  0  0  0  0  0  0
  182.8450  177.1710  139.3630 C   0  0  0  0  0  0  0  0  0  0  0  0
  181.1730  179.5070  142.5710 C   0  0  0  0  0  3  0  0  0  0  0  0
  182.1150  179.7210  143.5640 F   0  0  0  0  0  0  0  0  0  0  0  0
  180.0800  178.8440  143.1010 F   0  0  0  0  0  0  0  0  0  0  0  0
  188.1590  177.0600  138.4480 C   0  0  0  0  0  2  0  0  0  0  0  0
  188.5300  177.9170  139.6470 C   0  0  2  0  0  3  0  0  0  0  0  0
  189.1910  179.0480  139.2030 F   0  0  0  0  0  0  0  0  0  0  0  0
  189.3600  177.1900  140.5090 O   0  0  0  0  0  0  0  0  0  0  0  0
  190.4430  177.9160  144.0460 C   0  0  2  0  0  3  0  0  0  0  0  0
  189.3060  177.8560  141.7370 C   0  0  1  0  0  3  0  0  0  0  0  0
  188.1170  175.9950  142.9440 C   0  0  0  0  0  2  0  0  0  0  0  0
  188.0380  177.4660  142.5240 C   0  0  1  0  0  3  0  0  0  0  0  0
  188.0440  178.2480  143.7580 N   0  0  0  0  0  0  0  0  0  0  0  0
  186.6860  178.2240  144.3060 C   0  0  0  0  0  1  0  0  0  0  0  0
  190.5810  177.5430  142.5460 C   0  0  0  0  0  2  0  0  0  0  0  0
  188.8020  176.0290  144.3020 C   0  0  0  0  0  2  0  0  0  0  0  0
  189.0270  177.5190  144.5820 C   0  0  1  0  0  0  0  0  0  0  0  0
  190.3830  180.2030  143.1940 O   0  0  0  0  0  1  0  0  0  0  0  0
  190.7740  179.4100  144.2820 C   0  0  2  0  0  3  0  0  0  0  0  0
  192.2640  179.5940  144.4860 C   0  0  0  0  0  1  0  0  0  0  0  0
  188.9380  177.8350  146.0950 C   0  0  0  0  0  2  0  0  0  0  0  0
  189.5300  176.7650  147.0050 C   0  0  0  0  0  2  0  0  0  0  0  0
  190.9190  177.1870  147.4370 C   0  0  0  0  0  2  0  0  0  0  0  0
  192.2060  175.1180  147.8380 C   0  0  0  0  0  1  0  0  0  0  0  0
  191.9380  176.2340  146.8510 C   0  0  0  0  0  2  0  0  0  0  0  0
  1 35  1  1  0  0  0
  2  5  1  0  0  0  0
  3  7  1  0  0  0  0
  3  1  1  0  0  0  0
  4  3  2  0  0  0  0
  5  7  2  0  0  0  0
  6  4  1  0  0  0  0
  6  2  2  0  0  0  0
  8  1  1  0  0  0  0
  9  8  2  0  0  0  0
 11 10  1  6  0  0  0
 11  8  1  0  0  0  0
 12 17  2  0  0  0  0
 13 14  1  1  0  0  0
 13 22  1  0  0  0  0
 14 18  2  0  0  0  0
 16 15  1  0  0  0  0
 17 11  1  0  0  0  0
 17 23  1  0  0  0  0
 18 16  1  0  0  0  0
 19 23  1  0  0  0  0
 19 13  1  0  0  0  0
 19 15  1  1  0  0  0
 21 31  1  0  0  0  0
 22 21  1  0  0  0  0
 23 24  1  0  0  0  0
 24 20  2  0  0  0  0
 24 21  1  0  0  0  0
 25 28  1  0  0  0  0
 26 27  1  0  0  0  0
 28 31  1  0  0  0  0
 28 29  2  0  0  0  0
 29 30  1  0  0  0  0
 30 27  2  0  0  0  0
 30 32  1  0  0  0  0
 31 26  2  0  0  0  0
 32 34  1  0  0  0  0
 32 33  1  0  0  0  0
 35 36  1  0  0  0  0
 36 37  1  6  0  0  0
 36 38  1  0  0  0  0
 39 49  1  6  0  0  0
 39 47  1  0  0  0  0
 40 38  1  6  0  0  0
 40 42  1  0  0  0  0
 40 45  1  0  0  0  0
 41 46  1  0  0  0  0
 42 41  1  1  0  0  0
 42 43  1  0  0  0  0
 43 44  1  0  0  0  0
 43 47  1  0  0  0  0
 45 39  1  0  0  0  0
 46 47  1  0  0  0  0
 47 51  1  1  0  0  0
 48 49  1  0  0  0  0
 49 50  1  6  0  0  0
 51 52  1  0  0  0  0
 52 53  1  0  0  0  0
 55 53  1  0  0  0  0
 55 54  1  0  0  0  0
M  END
>  <MODEL>
4

>  <REMARK>
 VINA RESULT:      -6.8      1.193      2.198
  Name = 
  15 active torsions:
  status: ('A' for Active; 'I' for Inactive)
    1  A    between atoms: C_1  and  C_21
    2  A    between atoms: C_3  and  C_25
    3  A    between atoms: C_3  and  C_38
    4  A    between atoms: C_6  and  O_22
    5  A    between atoms: C_8  and  O_22
    6  A    between atoms: C_8  and  C_54
    7  A    between atoms: C_10  and  C_48
    8  A    between atoms: C_19  and  C_37
    9  A    between atoms: C_27  and  C_51
   10  A    between atoms: C_29  and  C_38
   11  A    between atoms: C_29  and  C_53
   12  A    between atoms: N_33  and  C_52
   13  A    between atoms: C_35  and  C_37
   14  A    between atoms: C_35  and  C_51
   15  A    between atoms: C_51  and  C_54
                            x       y       z     vdW  Elec       q    Type
                         _______ _______ _______ _____ _____    ______ ____

>  <TORSDO>
F 15

$$$$
=
 OpenBabel10272401323D

 55 60  0  0  1  0  0  0  0  0999 V2000
  188.3340  176.4110  136.6430 C   0  0  1  0  0  3  0  0  0  0  0  0
  184.6430  174.2180  136.3040 C   0  0  0  0  0  3  0  0  0  0  0  0
  187.0610  175.6190  136.5240 C   0  0  0  0  0  0  0  0  0  0  0  0
  186.0810  176.0420  135.6200 C   0  0  0  0  0  3  0  0  0  0  0  0
  185.6140  173.7950  137.2150 C   0  0  0  0  0  3  0  0  0  0  0  0
  184.8760  175.3420  135.5070 C   0  0  0  0  0  3  0  0  0  0  0  0
  186.8200  174.4950  137.3290 C   0  0  0  0  0  3  0  0  0  0  0  0
  188.0960  177.8160  137.1110 C   0  0  0  0  0  0  0  0  0  0  0  0
  188.2260  178.7290  136.3070 O   0  0  0  0  0  0  0  0  0  0  0  0
  188.5620  179.1840  139.0030 O   0  0  0  0  0  1  0  0  0  0  0  0
  187.7930  178.1100  138.5590 C   0  0  1  0  0  3  0  0  0  0  0  0
  185.5840  178.5320  137.7970 O   0  0  0  0  0  0  0  0  0  0  0  0
  183.8610  179.1640  141.5510 C   0  0  2  0  0  3  0  0  0  0  0  0
  182.3580  179.1600  141.6830 C   0  0  0  0  0  3  0  0  0  0  0  0
  183.6150  177.1760  140.0330 C   0  0  0  0  0  2  0  0  0  0  0  0
  182.1060  177.3860  139.9310 C   0  0  0  0  0  2  0  0  0  0  0  0
  186.3330  178.3760  138.8000 C   0  0  0  0  0  0  0  0  0  0  0  0
  181.5710  178.3230  140.9860 C   0  0  0  0  0  3  0  0  0  0  0  0
  184.3020  178.5300  140.2250 C   0  0  2  0  0  3  0  0  0  0  0  0
  187.8060  178.2000  141.2730 O   0  0  0  0  0  0  0  0  0  0  0  0
  185.9100  178.3190  142.6260 N   0  0  0  0  0  0  0  0  0  0  0  0
  184.4540  178.3860  142.7200 C   0  0  0  0  0  2  0  0  0  0  0  0
  185.7610  178.4010  140.1280 N   0  0  0  0  0  0  0  0  0  0  0  0
  186.5500  178.2830  141.3350 C   0  0  0  0  0  0  0  0  0  0  0  0
  184.7650  178.9760  145.2600 C   0  0  0  0  0  1  0  0  0  0  0  0
  187.9450  177.5160  143.7500 C   0  0  0  0  0  3  0  0  0  0  0  0
  188.6780  177.2460  144.9060 C   0  0  0  0  0  3  0  0  0  0  0  0
  186.1090  178.3510  145.1040 C   0  0  0  0  0  0  0  0  0  0  0  0
  186.8500  178.0780  146.2580 C   0  0  0  0  0  3  0  0  0  0  0  0
  188.1320  177.5260  146.1640 C   0  0  0  0  0  0  0  0  0  0  0  0
  186.6550  178.0690  143.8320 C   0  0  0  0  0  0  0  0  0  0  0  0
  188.9010  177.2210  147.4070 C   0  0  0  0  0  3  0  0  0  0  0  0
  188.2300  176.2840  148.1730 F   0  0  0  0  0  0  0  0  0  0  0  0
  189.0870  178.3780  148.1420 F   0  0  0  0  0  0  0  0  0  0  0  0
  189.4050  175.7250  137.4920 C   0  0  0  0  0  2  0  0  0  0  0  0
  190.6530  175.4250  136.6780 C   0  0  2  0  0  3  0  0  0  0  0  0
  190.2790  175.1150  135.3830 F   0  0  0  0  0  0  0  0  0  0  0  0
  191.3380  174.3440  137.2460 O   0  0  0  0  0  0  0  0  0  0  0  0
  194.5490  172.6510  136.2290 C   0  0  2  0  0  3  0  0  0  0  0  0
  192.4560  174.1350  136.4320 C   0  0  1  0  0  3  0  0  0  0  0  0
  194.0680  175.3080  137.9690 C   0  0  0  0  0  2  0  0  0  0  0  0
  193.4610  175.2980  136.5620 C   0  0  1  0  0  3  0  0  0  0  0  0
  194.5590  175.0170  135.6410 N   0  0  0  0  0  0  0  0  0  0  0  0
  195.2920  176.2690  135.4300 C   0  0  0  0  0  1  0  0  0  0  0  0
  193.1120  172.7890  136.7980 C   0  0  0  0  0  2  0  0  0  0  0  0
  195.2970  174.4180  137.8530 C   0  0  0  0  0  2  0  0  0  0  0  0
  195.3300  173.9990  136.3790 C   0  0  1  0  0  0  0  0  0  0  0  0
  193.2200  171.8330  134.3520 O   0  0  0  0  0  1  0  0  0  0  0  0
  194.5230  172.1330  134.7700 C   0  0  2  0  0  3  0  0  0  0  0  0
  195.3600  170.8770  134.6410 C   0  0  0  0  0  1  0  0  0  0  0  0
  196.7810  173.8170  135.8710 C   0  0  0  0  0  2  0  0  0  0  0  0
  197.8580  174.0280  136.9280 C   0  0  0  0  0  2  0  0  0  0  0  0
  198.4610  172.6910  137.3040 C   0  0  0  0  0  2  0  0  0  0  0  0
  200.0030  170.9700  136.4330 C   0  0  0  0  0  1  0  0  0  0  0  0
  199.7090  172.4540  136.4810 C   0  0  0  0  0  2  0  0  0  0  0  0
  1  8  1  0  0  0  0
  1 35  1  1  0  0  0
  2  5  1  0  0  0  0
  3  1  1  0  0  0  0
  3  7  1  0  0  0  0
  4  3  2  0  0  0  0
  5  7  2  0  0  0  0
  6  4  1  0  0  0  0
  6  2  2  0  0  0  0
  8 11  1  0  0  0  0
  9  8  2  0  0  0  0
 11 17  1  0  0  0  0
 11 10  1  6  0  0  0
 12 17  2  0  0  0  0
 13 14  1  1  0  0  0
 13 22  1  0  0  0  0
 16 15  1  0  0  0  0
 16 18  1  0  0  0  0
 17 23  1  0  0  0  0
 18 14  2  0  0  0  0
 19 15  1  1  0  0  0
 19 13  1  0  0  0  0
 20 24  2  0  0  0  0
 21 22  1  0  0  0  0
 21 31  1  0  0  0  0
 23 19  1  0  0  0  0
 23 24  1  0  0  0  0
 24 21  1  0  0  0  0
 26 31  2  0  0  0  0
 26 27  1  0  0  0  0
 27 30  2  0  0  0  0
 28 25  1  0  0  0  0
 28 29  2  0  0  0  0
 30 29  1  0  0  0  0
 30 32  1  0  0  0  0
 31 28  1  0  0  0  0
 32 34  1  0  0  0  0
 32 33  1  0  0  0  0
 36 37  1  6  0  0  0
 36 38  1  0  0  0  0
 36 35  1  0  0  0  0
 39 49  1  6  0  0  0
 39 47  1  0  0  0  0
 39 45  1  0  0  0  0
 40 42  1  0  0  0  0
 40 45  1  0  0  0  0
 40 38  1  1  0  0  0
 42 41  1  1  0  0  0
 43 47  1  0  0  0  0
 43 42  1  0  0  0  0
 44 43  1  0  0  0  0
 46 41  1  0  0  0  0
 47 51  1  6  0  0  0
 47 46  1  0  0  0  0
 48 49  1  0  0  0  0
 49 50  1  1  0  0  0
 51 52  1  0  0  0  0
 52 53  1  0  0  0  0
 54 55  1  0  0  0  0
 55 53  1  0  0  0  0
M  END
>  <MODEL>
5

>  <REMARK>
 VINA RESULT:      -6.0      3.674      8.448
  Name = 
  15 active torsions:
  status: ('A' for Active; 'I' for Inactive)
    1  A    between atoms: C_1  and  C_21
    2  A    between atoms: C_3  and  C_25
    3  A    between atoms: C_3  and  C_38
    4  A    between atoms: C_6  and  O_22
    5  A    between atoms: C_8  and  O_22
    6  A    between atoms: C_8  and  C_54
    7  A    between atoms: C_10  and  C_48
    8  A    between atoms: C_19  and  C_37
    9  A    between atoms: C_27  and  C_51
   10  A    between atoms: C_29  and  C_38
   11  A    between atoms: C_29  and  C_53
   12  A    between atoms: N_33  and  C_52
   13  A    between atoms: C_35  and  C_37
   14  A    between atoms: C_35  and  C_51
   15  A    between atoms: C_51  and  C_54
                            x       y       z     vdW  Elec       q    Type
                         _______ _______ _______ _____ _____    ______ ____

>  <TORSDO>
F 15

$$$$
=
 OpenBabel10272401323D

 55 61  0  0  1  0  0  0  0  0999 V2000
  187.4910  177.8930  143.4980 C   0  0  1  0  0  3  0  0  0  0  0  0
  188.9240  177.4350  147.5340 C   0  0  0  0  0  3  0  0  0  0  0  0
  187.9740  177.7570  144.9150 C   0  0  0  0  0  0  0  0  0  0  0  0
  189.3350  177.5290  145.1490 C   0  0  0  0  0  3  0  0  0  0  0  0
  187.5630  177.6530  147.3070 C   0  0  0  0  0  3  0  0  0  0  0  0
  189.8100  177.3710  146.4550 C   0  0  0  0  0  3  0  0  0  0  0  0
  187.0870  177.8100  146.0010 C   0  0  0  0  0  3  0  0  0  0  0  0
  188.3130  177.0940  142.5300 C   0  0  0  0  0  0  0  0  0  0  0  0
  188.3700  175.8810  142.6750 O   0  0  0  0  0  0  0  0  0  0  0  0
  190.3640  177.1510  141.3220 O   0  0  0  0  0  0  0  0  0  0  0  0
  189.1250  177.7760  141.4570 C   0  0  1  0  0  3  0  0  0  0  0  0
  187.3050  178.4200  140.0760 O   0  0  0  0  0  0  0  0  0  0  0  0
  188.5260  176.3840  136.6380 C   0  0  2  0  0  3  0  0  0  0  0  0
  187.8790  176.7140  135.3150 C   0  0  0  0  0  3  0  0  0  0  0  0
  188.5820  178.8540  137.0940 C   0  0  0  0  0  2  0  0  0  0  0  0
  187.6560  179.1370  135.9130 C   0  0  0  0  0  2  0  0  0  0  0  0
  188.4120  177.8190  140.1340 C   0  0  0  0  0  0  0  0  0  0  0  0
  187.5300  177.9650  134.9710 C   0  0  0  0  0  3  0  0  0  0  0  0
  188.2530  177.4780  137.6770 C   0  0  2  0  0  3  0  0  0  0  0  0
  190.8380  176.2670  139.9860 O   0  0  0  0  0  0  0  0  0  0  0  0
  190.7180  175.9580  137.6770 N   0  0  0  0  0  0  0  0  0  0  0  0
  190.0270  176.2380  136.4210 C   0  0  0  0  0  2  0  0  0  0  0  0
  188.9780  177.2490  138.9320 N   0  0  0  0  0  0  0  0  0  0  0  0
  190.2160  176.4990  138.9150 C   0  0  1  0  0  3  0  0  0  0  0  0
  191.0070  173.2460  136.5630 C   0  0  0  0  0  1  0  0  0  0  0  0
  193.1420  176.0060  138.0950 C   0  0  0  0  0  3  0  0  0  0  0  0
  194.4070  175.4220  138.0250 C   0  0  0  0  0  3  0  0  0  0  0  0
  192.1700  174.0380  137.0550 C   0  0  0  0  0  0  0  0  0  0  0  0
  193.4420  173.4590  136.9880 C   0  0  0  0  0  3  0  0  0  0  0  0
  194.5600  174.1470  137.4700 C   0  0  0  0  0  0  0  0  0  0  0  0
  192.0100  175.3260  137.6130 C   0  0  0  0  0  0  0  0  0  0  0  0
  195.9130  173.5220  137.3720 C   0  0  0  0  0  3  0  0  0  0  0  0
  196.2040  172.8140  138.5260 F   0  0  0  0  0  0  0  0  0  0  0  0
  196.8710  174.5000  137.1710 F   0  0  0  0  0  0  0  0  0  0  0  0
  186.0010  177.5920  143.3280 C   0  0  0  0  0  2  0  0  0  0  0  0
  185.3430  178.5670  142.3660 C   0  0  2  0  0  3  0  0  0  0  0  0
  185.8610  179.8310  142.5850 F   0  0  0  0  0  0  0  0  0  0  0  0
  183.9590  178.5790  142.5780 O   0  0  0  0  0  0  0  0  0  0  0  0
  182.9760  178.6790  138.9400 C   0  0  2  0  0  3  0  0  0  0  0  0
  183.3930  178.0690  141.4060 C   0  0  1  0  0  3  0  0  0  0  0  0
  181.2880  179.4400  141.5640 C   0  0  0  0  0  2  0  0  0  0  0  0
  181.8550  178.0180  141.5100 C   0  0  1  0  0  3  0  0  0  0  0  0
  181.3630  177.4250  140.2700 N   0  0  0  0  0  0  0  0  0  0  0  0
  179.9870  176.9790  140.5060 C   0  0  0  0  0  1  0  0  0  0  0  0
  183.8410  178.9260  140.2040 C   0  0  0  0  0  2  0  0  0  0  0  0
  181.0560  179.8070  140.1060 C   0  0  0  0  0  2  0  0  0  0  0  0
  181.4650  178.5530  139.3250 C   0  0  1  0  0  0  0  0  0  0  0  0
  183.8050  176.3830  138.9840 O   0  0  0  0  0  1  0  0  0  0  0  0
  183.4940  177.4580  138.1400 C   0  0  2  0  0  3  0  0  0  0  0  0
  184.7440  177.8260  137.3670 C   0  0  0  0  0  1  0  0  0  0  0  0
  180.6160  178.3790  138.0420 C   0  0  0  0  0  2  0  0  0  0  0  0
  180.9000  179.3980  136.9460 C   0  0  0  0  0  2  0  0  0  0  0  0
  180.7190  178.7440  135.5920 C   0  0  0  0  0  2  0  0  0  0  0  0
  180.6360  181.1040  134.8720 C   0  0  0  0  0  1  0  0  0  0  0  0
  181.1210  179.7180  134.5060 C   0  0  0  0  0  2  0  0  0  0  0  0
  1 35  1  1  0  0  0
  1  3  1  0  0  0  0
  3  4  2  0  0  0  0
  3  7  1  0  0  0  0
  4  6  1  0  0  0  0
  5  2  1  0  0  0  0
  6  2  2  0  0  0  0
  7  5  2  0  0  0  0
  8  9  2  0  0  0  0
  8  1  1  0  0  0  0
 10 11  1  0  0  0  0
 11  8  1  1  0  0  0
 12 17  2  0  0  0  0
 13 14  1  6  0  0  0
 13 19  1  0  0  0  0
 16 15  1  0  0  0  0
 17 11  1  0  0  0  0
 18 14  2  0  0  0  0
 18 16  1  0  0  0  0
 19 15  1  6  0  0  0
 19 23  1  0  0  0  0
 20 10  1  0  0  0  0
 21 24  1  0  0  0  0
 22 13  1  0  0  0  0
 22 21  1  0  0  0  0
 23 17  1  0  0  0  0
 24 23  1  0  0  0  0
 24 20  1  1  0  0  0
 25 28  1  0  0  0  0
 27 26  1  0  0  0  0
 28 31  1  0  0  0  0
 29 28  2  0  0  0  0
 29 30  1  0  0  0  0
 30 27  2  0  0  0  0
 31 21  1  0  0  0  0
 31 26  2  0  0  0  0
 32 30  1  0  0  0  0
 32 33  1  0  0  0  0
 34 32  1  0  0  0  0
 36 38  1  0  0  0  0
 36 37  1  1  0  0  0
 36 35  1  0  0  0  0
 39 49  1  1  0  0  0
 39 47  1  0  0  0  0
 39 45  1  0  0  0  0
 40 42  1  0  0  0  0
 40 38  1  1  0  0  0
 42 41  1  6  0  0  0
 43 44  1  0  0  0  0
 43 42  1  0  0  0  0
 45 40  1  0  0  0  0
 46 41  1  0  0  0  0
 47 51  1  6  0  0  0
 47 46  1  0  0  0  0
 47 43  1  0  0  0  0
 49 50  1  1  0  0  0
 49 48  1  0  0  0  0
 52 51  1  0  0  0  0
 53 52  1  0  0  0  0
 55 54  1  0  0  0  0
 55 53  1  0  0  0  0
M  END
>  <MODEL>
6

>  <REMARK>
 VINA RESULT:      -5.9      2.791      9.896
  Name = 
  15 active torsions:
  status: ('A' for Active; 'I' for Inactive)
    1  A    between atoms: C_1  and  C_21
    2  A    between atoms: C_3  and  C_25
    3  A    between atoms: C_3  and  C_38
    4  A    between atoms: C_6  and  O_22
    5  A    between atoms: C_8  and  O_22
    6  A    between atoms: C_8  and  C_54
    7  A    between atoms: C_10  and  C_48
    8  A    between atoms: C_19  and  C_37
    9  A    between atoms: C_27  and  C_51
   10  A    between atoms: C_29  and  C_38
   11  A    between atoms: C_29  and  C_53
   12  A    between atoms: N_33  and  C_52
   13  A    between atoms: C_35  and  C_37
   14  A    between atoms: C_35  and  C_51
   15  A    between atoms: C_51  and  C_54
                            x       y       z     vdW  Elec       q    Type
                         _______ _______ _______ _____ _____    ______ ____

>  <TORSDO>
F 15

$$$$
