=
 OpenBabel10272413233D

 32 37  0  0  1  0  0  0  0  0999 V2000
  185.4300  177.2020  137.9620 C   0  0  0  0  0  2  0  0  0  0  0  0
  188.8780  178.5580  141.7520 C   0  0  2  0  0  3  0  0  0  0  0  0
  185.7070  177.9560  145.4950 C   0  0  0  0  0  3  0  0  0  0  0  0
  186.7670  177.9530  146.4000 C   0  0  0  0  0  3  0  0  0  0  0  0
  190.5800  176.7120  142.4090 C   0  0  0  0  0  0  0  0  0  0  0  0
  191.0680  176.1910  143.6550 C   0  0  0  0  0  0  0  0  0  0  0  0
  187.9790  178.6970  139.4690 N   0  0  2  0  0  0  0  0  0  0  0  0
  186.3920  178.4790  141.3130 C   0  0  0  0  0  2  0  0  0  0  0  0
  191.8020  175.6970  146.2760 C   0  0  0  0  0  0  0  0  0  0  0  0
  185.5700  178.3280  138.9750 C   0  0  0  0  0  2  0  0  0  0  0  0
  185.9610  178.0390  144.1240 C   0  0  0  0  0  3  0  0  0  0  0  0
  187.5210  178.2440  142.2190 N   0  0  0  0  0  0  0  0  0  0  0  0
  187.2770  178.1120  143.6380 C   0  0  0  0  0  0  0  0  0  0  0  0
  189.7910  178.1550  144.0880 C   0  0  2  0  0  3  0  0  0  0  0  0
  192.2350  174.8370  145.2490 C   0  0  0  0  0  3  0  0  0  0  0  0
  187.9010  177.1220  137.4920 C   0  0  0  0  0  2  0  0  0  0  0  0
  186.7400  178.0270  139.9020 C   0  0  1  0  0  3  0  0  0  0  0  0
  191.8710  175.0830  143.9140 C   0  0  0  0  0  3  0  0  0  0  0  0
  188.3410  178.4740  138.0590 C   0  0  0  0  0  2  0  0  0  0  0  0
  186.5080  177.2590  136.8770 C   0  0  1  0  0  3  0  0  0  0  0  0
  188.0820  178.0160  145.9340 C   0  0  0  0  0  3  0  0  0  0  0  0
  188.3550  178.0700  144.5600 C   0  0  0  0  0  0  0  0  0  0  0  0
  190.9970  176.8090  145.9810 C   0  0  0  0  0  3  0  0  0  0  0  0
  189.0720  178.1740  140.2820 C   0  0  0  0  0  2  0  0  0  0  0  0
  190.7590  176.1800  141.2810 O   0  0  0  0  0  0  0  0  0  0  0  0
  192.2720  175.3800  147.9320 Cl  0  0  0  0  0  0  0  0  0  0  0  0
  189.8590  177.9290  142.6370 N   0  0  0  0  0  0  0  0  0  0  0  0
  190.6290  177.0330  144.6510 C   0  0  0  0  0  0  0  0  0  0  0  0
  187.4960  175.6360  135.4120 O   0  0  0  0  0  1  0  0  0  0  0  0
  186.2730  176.1580  135.8430 C   0  0  1  0  0  3  0  0  0  0  0  0
  185.4360  175.0350  136.4380 C   0  0  0  0  0  2  0  0  0  0  0  0
  186.3100  173.8330  136.7430 C   0  0  0  0  0  1  0  0  0  0  0  0
  1 10  1  0  0  0  0
  2 24  1  6  0  0  0
  2 12  1  0  0  0  0
  2 27  1  0  0  0  0
  3  4  1  0  0  0  0
  5 27  1  0  0  0  0
  5  6  1  0  0  0  0
  6 18  2  0  0  0  0
  6 28  1  0  0  0  0
  7 19  1  6  0  0  0
  7 17  1  0  0  0  0
  7 24  1  0  0  0  0
  8 12  1  0  0  0  0
  9 26  1  0  0  0  0
 11  3  2  0  0  0  0
 12 13  1  0  0  0  0
 13 11  1  0  0  0  0
 13 22  2  0  0  0  0
 14 22  1  1  0  0  0
 14 28  1  0  0  0  0
 15  9  2  0  0  0  0
 16 19  1  0  0  0  0
 17 10  1  6  0  0  0
 17  8  1  0  0  0  0
 18 15  1  0  0  0  0
 20 30  1  6  0  0  0
 20 16  1  0  0  0  0
 20  1  1  0  0  0  0
 21  4  2  0  0  0  0
 22 21  1  0  0  0  0
 23  9  1  0  0  0  0
 25  5  2  0  0  0  0
 27 14  1  0  0  0  0
 28 23  2  0  0  0  0
 30 29  1  1  0  0  0
 30 31  1  0  0  0  0
 31 32  1  0  0  0  0
M  END
>  <MODEL>
1

>  <REMARK>
 VINA RESULT:      -9.1      0.000      0.000
  Name = 
  2 active torsions:
  status: ('A' for Active; 'I' for Inactive)
    1  A    between atoms: C_1  and  C_20
    2  A    between atoms: C_20  and  C_24
                            x       y       z     vdW  Elec       q    Type
                         _______ _______ _______ _____ _____    ______ ____

>  <TORSDO>
F 2

$$$$
=
 OpenBabel10272413233D

 32 37  0  0  1  0  0  0  0  0999 V2000
  192.0740  173.7530  135.6480 C   0  0  0  0  0  2  0  0  0  0  0  0
  190.1510  177.6010  138.7450 C   0  0  2  0  0  3  0  0  0  0  0  0
  185.5360  177.3340  137.0000 C   0  0  0  0  0  3  0  0  0  0  0  0
  185.0740  178.0610  138.0950 C   0  0  0  0  0  3  0  0  0  0  0  0
  189.6610  176.9030  141.1970 C   0  0  0  0  0  0  0  0  0  0  0  0
  188.5640  177.1100  142.1010 C   0  0  0  0  0  0  0  0  0  0  0  0
  191.9510  176.5280  137.4600 N   0  0  2  0  0  0  0  0  0  0  0  0
  189.6890  176.4550  136.5430 C   0  0  0  0  0  2  0  0  0  0  0  0
  186.3110  177.9460  143.4710 C   0  0  0  0  0  0  0  0  0  0  0  0
  191.4910  175.1440  135.4470 C   0  0  0  0  0  2  0  0  0  0  0  0
  186.8840  176.9810  136.9160 C   0  0  0  0  0  3  0  0  0  0  0  0
  189.1900  177.0100  137.8040 N   0  0  0  0  0  0  0  0  0  0  0  0
  187.7880  177.3430  137.9280 C   0  0  0  0  0  0  0  0  0  0  0  0
  188.2410  178.4740  140.1740 C   0  0  2  0  0  3  0  0  0  0  0  0
  187.1690  176.9870  144.0440 C   0  0  0  0  0  3  0  0  0  0  0  0
  193.3140  174.4160  137.7350 C   0  0  0  0  0  2  0  0  0  0  0  0
  190.9700  175.6670  136.7790 C   0  0  1  0  0  3  0  0  0  0  0  0
  188.3170  176.5590  143.3560 C   0  0  0  0  0  3  0  0  0  0  0  0
  193.2940  175.9410  137.6040 C   0  0  0  0  0  2  0  0  0  0  0  0
  193.4350  173.7890  136.3450 C   0  0  1  0  0  3  0  0  0  0  0  0
  185.9550  178.4230  139.1140 C   0  0  0  0  0  3  0  0  0  0  0  0
  187.3070  178.0510  139.0600 C   0  0  0  0  0  0  0  0  0  0  0  0
  186.5900  178.4850  142.2050 C   0  0  0  0  0  3  0  0  0  0  0  0
  191.4510  176.7910  138.8060 C   0  0  0  0  0  2  0  0  0  0  0  0
  190.6070  176.0920  141.3780 O   0  0  0  0  0  0  0  0  0  0  0  0
  184.8890  178.4730  144.3450 Cl  0  0  0  0  0  0  0  0  0  0  0  0
  189.5210  177.7600  140.0560 N   0  0  0  0  0  0  0  0  0  0  0  0
  187.7280  178.0390  141.5260 C   0  0  0  0  0  0  0  0  0  0  0  0
  194.5710  171.9950  135.2250 O   0  0  0  0  0  1  0  0  0  0  0  0
  194.0120  172.3770  136.4490 C   0  0  1  0  0  3  0  0  0  0  0  0
  195.0860  172.3150  137.5260 C   0  0  0  0  0  2  0  0  0  0  0  0
  195.3470  170.8750  137.9250 C   0  0  0  0  0  1  0  0  0  0  0  0
  1 20  1  0  0  0  0
  2 24  1  1  0  0  0
  2 27  1  0  0  0  0
  3  4  1  0  0  0  0
  4 21  2  0  0  0  0
  5 25  2  0  0  0  0
  5  6  1  0  0  0  0
  6 18  1  0  0  0  0
  7 19  1  1  0  0  0
  7 24  1  0  0  0  0
  8 17  1  0  0  0  0
  8 12  1  0  0  0  0
  9 15  1  0  0  0  0
  9 26  1  0  0  0  0
 10  1  1  0  0  0  0
 11  3  2  0  0  0  0
 11 13  1  0  0  0  0
 12 13  1  0  0  0  0
 12  2  1  0  0  0  0
 13 22  2  0  0  0  0
 14 22  1  6  0  0  0
 14 28  1  0  0  0  0
 17 10  1  6  0  0  0
 17  7  1  0  0  0  0
 18 15  2  0  0  0  0
 19 16  1  0  0  0  0
 20 30  1  1  0  0  0
 20 16  1  0  0  0  0
 22 21  1  0  0  0  0
 23  9  2  0  0  0  0
 27 14  1  0  0  0  0
 27  5  1  0  0  0  0
 28  6  2  0  0  0  0
 28 23  1  0  0  0  0
 30 29  1  6  0  0  0
 30 31  1  0  0  0  0
 31 32  1  0  0  0  0
M  END
>  <MODEL>
2

>  <REMARK>
 VINA RESULT:      -8.4      4.217      6.356
  Name = 
  2 active torsions:
  status: ('A' for Active; 'I' for Inactive)
    1  A    between atoms: C_1  and  C_20
    2  A    between atoms: C_20  and  C_24
                            x       y       z     vdW  Elec       q    Type
                         _______ _______ _______ _____ _____    ______ ____

>  <TORSDO>
F 2

$$$$
=
 OpenBabel10272413233D

 32 37  0  0  1  0  0  0  0  0999 V2000
  189.9100  174.7200  135.8340 C   0  0  0  0  0  2  0  0  0  0  0  0
  188.5600  178.3140  139.4890 C   0  0  2  0  0  3  0  0  0  0  0  0
  183.7360  178.2670  138.4200 C   0  0  0  0  0  3  0  0  0  0  0  0
  183.4560  178.9040  139.6280 C   0  0  0  0  0  3  0  0  0  0  0  0
  188.4090  177.4150  141.9190 C   0  0  0  0  0  0  0  0  0  0  0  0
  187.4610  177.5590  142.9870 C   0  0  0  0  0  0  0  0  0  0  0  0
  190.1260  177.3300  137.8700 N   0  0  2  0  0  0  0  0  0  0  0  0
  187.7540  177.3700  137.2900 C   0  0  0  0  0  2  0  0  0  0  0  0
  185.4530  178.3070  144.7370 C   0  0  0  0  0  0  0  0  0  0  0  0
  189.3420  176.1320  135.8370 C   0  0  0  0  0  2  0  0  0  0  0  0
  185.0470  177.9030  138.1110 C   0  0  0  0  0  3  0  0  0  0  0  0
  187.4570  177.8220  138.6530 N   0  0  0  0  0  0  0  0  0  0  0  0
  186.0980  178.1630  139.0070 C   0  0  0  0  0  0  0  0  0  0  0  0
  186.9000  179.0890  141.2490 C   0  0  2  0  0  3  0  0  0  0  0  0
  186.3580  177.2890  145.0960 C   0  0  0  0  0  3  0  0  0  0  0  0
  191.4560  175.1830  137.7650 C   0  0  0  0  0  2  0  0  0  0  0  0
  189.0330  176.5460  137.2700 C   0  0  1  0  0  3  0  0  0  0  0  0
  187.3830  176.9060  144.2150 C   0  0  0  0  0  3  0  0  0  0  0  0
  191.4590  176.7130  137.7660 C   0  0  0  0  0  2  0  0  0  0  0  0
  191.3590  174.6760  136.3250 C   0  0  1  0  0  3  0  0  0  0  0  0
  184.4850  179.1630  140.5340 C   0  0  0  0  0  3  0  0  0  0  0  0
  185.8040  178.7780  140.2520 C   0  0  0  0  0  0  0  0  0  0  0  0
  185.5610  178.9490  143.4930 C   0  0  0  0  0  3  0  0  0  0  0  0
  189.8320  177.4840  139.2910 C   0  0  0  0  0  2  0  0  0  0  0  0
  189.3500  176.5770  141.8910 O   0  0  0  0  0  0  0  0  0  0  0  0
  184.1870  178.7770  145.8510 Cl  0  0  0  0  0  0  0  0  0  0  0  0
  188.1300  178.3690  140.8860 N   0  0  0  0  0  0  0  0  0  0  0  0
  186.5760  178.5470  142.6210 C   0  0  0  0  0  0  0  0  0  0  0  0
  191.4820  172.6580  135.0330 O   0  0  0  0  0  1  0  0  0  0  0  0
  191.9050  173.2520  136.2250 C   0  0  1  0  0  3  0  0  0  0  0  0
  193.4270  173.2590  136.2630 C   0  0  0  0  0  2  0  0  0  0  0  0
  193.9750  174.2010  135.2080 C   0  0  0  0  0  1  0  0  0  0  0  0
  1 10  1  0  0  0  0
  1 20  1  0  0  0  0
  2 24  1  1  0  0  0
  2 27  1  0  0  0  0
  3  4  1  0  0  0  0
  4 21  2  0  0  0  0
  5  6  1  0  0  0  0
  6 18  1  0  0  0  0
  7 19  1  1  0  0  0
  7 24  1  0  0  0  0
  8 12  1  0  0  0  0
  9 15  1  0  0  0  0
  9 26  1  0  0  0  0
 11  3  2  0  0  0  0
 11 13  1  0  0  0  0
 12 13  1  0  0  0  0
 12  2  1  0  0  0  0
 13 22  2  0  0  0  0
 14 22  1  6  0  0  0
 14 28  1  0  0  0  0
 16 19  1  0  0  0  0
 17 10  1  6  0  0  0
 17  8  1  0  0  0  0
 17  7  1  0  0  0  0
 18 15  2  0  0  0  0
 20 30  1  1  0  0  0
 20 16  1  0  0  0  0
 22 21  1  0  0  0  0
 23  9  2  0  0  0  0
 25  5  2  0  0  0  0
 27 14  1  0  0  0  0
 27  5  1  0  0  0  0
 28  6  2  0  0  0  0
 28 23  1  0  0  0  0
 30 29  1  6  0  0  0
 30 31  1  0  0  0  0
 32 31  1  0  0  0  0
M  END
>  <MODEL>
3

>  <REMARK>
 VINA RESULT:      -8.4      3.298      5.366
  Name = 
  2 active torsions:
  status: ('A' for Active; 'I' for Inactive)
    1  A    between atoms: C_1  and  C_20
    2  A    between atoms: C_20  and  C_24
                            x       y       z     vdW  Elec       q    Type
                         _______ _______ _______ _____ _____    ______ ____

>  <TORSDO>
F 2

$$$$
=
 OpenBabel10272413233D

 32 37  0  0  1  0  0  0  0  0999 V2000
  183.1160  178.0970  141.6280 C   0  0  0  0  0  2  0  0  0  0  0  0
  187.7320  178.3830  139.0370 C   0  0  2  0  0  3  0  0  0  0  0  0
  190.5470  177.6340  143.0280 C   0  0  0  0  0  3  0  0  0  0  0  0
  191.6400  177.3510  142.2100 C   0  0  0  0  0  3  0  0  0  0  0  0
  188.3890  176.2500  137.7130 C   0  0  0  0  0  0  0  0  0  0  0  0
  189.5960  175.4830  137.5770 C   0  0  0  0  0  0  0  0  0  0  0  0
  185.3730  178.9910  139.3670 N   0  0  2  0  0  0  0  0  0  0  0  0
  186.7700  178.7020  141.3500 C   0  0  0  0  0  2  0  0  0  0  0  0
  192.1800  174.4970  137.5180 C   0  0  0  0  0  0  0  0  0  0  0  0
  184.3220  179.0250  141.6210 C   0  0  0  0  0  2  0  0  0  0  0  0
  189.3000  177.8930  142.4580 C   0  0  0  0  0  3  0  0  0  0  0  0
  187.8360  178.1830  140.4880 N   0  0  0  0  0  0  0  0  0  0  0  0
  189.1240  177.8660  141.0640 C   0  0  0  0  0  0  0  0  0  0  0  0
  190.0960  177.5070  138.7290 C   0  0  2  0  0  3  0  0  0  0  0  0
  191.1290  173.7560  136.9420 C   0  0  0  0  0  3  0  0  0  0  0  0
  183.1740  177.7660  139.1340 C   0  0  0  0  0  2  0  0  0  0  0  0
  185.4060  178.4320  140.7300 C   0  0  1  0  0  3  0  0  0  0  0  0
  189.8150  174.2520  136.9640 C   0  0  0  0  0  3  0  0  0  0  0  0
  184.0550  178.9430  138.7110 C   0  0  0  0  0  2  0  0  0  0  0  0
  182.3130  178.1790  140.3280 C   0  0  1  0  0  3  0  0  0  0  0  0
  191.4830  177.3110  140.8240 C   0  0  0  0  0  3  0  0  0  0  0  0
  190.2300  177.5410  140.2370 C   0  0  0  0  0  0  0  0  0  0  0  0
  191.9270  175.7380  138.1250 C   0  0  0  0  0  3  0  0  0  0  0  0
  186.2910  178.2090  138.5450 C   0  0  0  0  0  2  0  0  0  0  0  0
  187.2480  175.8800  137.3300 O   0  0  0  0  0  0  0  0  0  0  0  0
  193.8130  173.8680  137.4740 Cl  0  0  0  0  0  0  0  0  0  0  0  0
  188.6750  177.5020  138.3490 N   0  0  0  0  0  0  0  0  0  0  0  0
  190.6120  176.2110  138.1530 C   0  0  0  0  0  0  0  0  0  0  0  0
  179.9820  177.9250  139.8150 O   0  0  0  0  0  1  0  0  0  0  0  0
  181.0710  177.2920  140.4200 C   0  0  1  0  0  3  0  0  0  0  0  0
  181.3150  175.9570  139.7300 C   0  0  0  0  0  2  0  0  0  0  0  0
  180.1960  174.9860  140.0530 C   0  0  0  0  0  1  0  0  0  0  0  0
  2 24  1  6  0  0  0
  2 12  1  0  0  0  0
  4  3  2  0  0  0  0
  5 27  1  0  0  0  0
  6  5  1  0  0  0  0
  6 28  1  0  0  0  0
  7 24  1  6  0  0  0
  7 17  1  0  0  0  0
  9 23  1  0  0  0  0
 10  1  1  0  0  0  0
 11  3  1  0  0  0  0
 12 13  1  0  0  0  0
 12  8  1  0  0  0  0
 13 11  2  0  0  0  0
 14 28  1  1  0  0  0
 14 22  1  0  0  0  0
 15 18  1  0  0  0  0
 15  9  2  0  0  0  0
 16 20  1  0  0  0  0
 17  8  1  1  0  0  0
 17 10  1  0  0  0  0
 18  6  2  0  0  0  0
 19 16  1  0  0  0  0
 19  7  1  0  0  0  0
 20 30  1  1  0  0  0
 20  1  1  0  0  0  0
 21  4  1  0  0  0  0
 22 21  2  0  0  0  0
 22 13  1  0  0  0  0
 23 28  2  0  0  0  0
 25  5  2  0  0  0  0
 26  9  1  0  0  0  0
 27 14  1  0  0  0  0
 27  2  1  0  0  0  0
 30 29  1  6  0  0  0
 31 32  1  0  0  0  0
 31 30  1  0  0  0  0
M  END
>  <MODEL>
4

>  <REMARK>
 VINA RESULT:      -8.2      3.707      5.777
  Name = 
  2 active torsions:
  status: ('A' for Active; 'I' for Inactive)
    1  A    between atoms: C_1  and  C_20
    2  A    between atoms: C_20  and  C_24
                            x       y       z     vdW  Elec       q    Type
                         _______ _______ _______ _____ _____    ______ ____

>  <TORSDO>
F 2

$$$$
=
 OpenBabel10272413233D

 32 37  0  0  1  0  0  0  0  0999 V2000
  183.5660  177.1320  138.8130 C   0  0  0  0  0  2  0  0  0  0  0  0
  187.6080  178.7230  141.8490 C   0  0  2  0  0  3  0  0  0  0  0  0
  185.2920  177.9460  146.1440 C   0  0  0  0  0  3  0  0  0  0  0  0
  186.5090  178.0140  146.8200 C   0  0  0  0  0  3  0  0  0  0  0  0
  189.5190  176.9920  142.1400 C   0  0  0  0  0  0  0  0  0  0  0  0
  190.2780  176.5100  143.2610 C   0  0  0  0  0  0  0  0  0  0  0  0
  186.2650  178.7920  139.7920 N   0  0  2  0  0  0  0  0  0  0  0  0
  185.0950  178.4860  141.9140 C   0  0  0  0  0  2  0  0  0  0  0  0
  191.5490  176.0780  145.6800 C   0  0  0  0  0  0  0  0  0  0  0  0
  183.8340  178.2710  139.7860 C   0  0  0  0  0  2  0  0  0  0  0  0
  185.2610  178.0360  144.7520 C   0  0  0  0  0  3  0  0  0  0  0  0
  186.3940  178.3270  142.5740 N   0  0  0  0  0  0  0  0  0  0  0  0
  186.4460  178.1890  144.0130 C   0  0  0  0  0  0  0  0  0  0  0  0
  188.9920  178.3920  143.9540 C   0  0  2  0  0  3  0  0  0  0  0  0
  191.8220  175.2410  144.5800 C   0  0  0  0  0  3  0  0  0  0  0  0
  185.8930  177.2050  137.8590 C   0  0  0  0  0  2  0  0  0  0  0  0
  185.1820  178.0490  140.4580 C   0  0  1  0  0  3  0  0  0  0  0  0
  191.1840  175.4560  143.3470 C   0  0  0  0  0  3  0  0  0  0  0  0
  186.3520  178.5850  138.3370 C   0  0  0  0  0  2  0  0  0  0  0  0
  184.4000  177.2510  137.5350 C   0  0  1  0  0  3  0  0  0  0  0  0
  187.6970  178.1570  146.1020 C   0  0  0  0  0  3  0  0  0  0  0  0
  187.6870  178.2200  144.7010 C   0  0  0  0  0  0  0  0  0  0  0  0
  190.6330  177.1360  145.5580 C   0  0  0  0  0  3  0  0  0  0  0  0
  187.5290  178.3440  140.3670 C   0  0  0  0  0  2  0  0  0  0  0  0
  189.5020  176.4660  140.9960 O   0  0  0  0  0  0  0  0  0  0  0  0
  192.3590  175.8010  147.2060 Cl  0  0  0  0  0  0  0  0  0  0  0  0
  188.7840  178.1630  142.5160 N   0  0  0  0  0  0  0  0  0  0  0  0
  189.9950  177.3280  144.3300 C   0  0  0  0  0  0  0  0  0  0  0  0
  184.2610  176.5450  135.2450 O   0  0  0  0  0  1  0  0  0  0  0  0
  184.0330  176.1310  136.5610 C   0  0  1  0  0  3  0  0  0  0  0  0
  184.8640  174.8860  136.8400 C   0  0  0  0  0  2  0  0  0  0  0  0
  183.9710  173.7530  137.3100 C   0  0  0  0  0  1  0  0  0  0  0  0
  1 10  1  0  0  0  0
  2 24  1  6  0  0  0
  2 27  1  0  0  0  0
  2 12  1  0  0  0  0
  3  4  1  0  0  0  0
  5 27  1  0  0  0  0
  5  6  1  0  0  0  0
  6 18  2  0  0  0  0
  6 28  1  0  0  0  0
  7 19  1  6  0  0  0
  7 24  1  0  0  0  0
  7 17  1  0  0  0  0
  8 12  1  0  0  0  0
  9 26  1  0  0  0  0
 11  3  2  0  0  0  0
 12 13  1  0  0  0  0
 13 22  2  0  0  0  0
 13 11  1  0  0  0  0
 14 28  1  1  0  0  0
 14 22  1  0  0  0  0
 15  9  2  0  0  0  0
 16 19  1  0  0  0  0
 17 10  1  6  0  0  0
 17  8  1  0  0  0  0
 18 15  1  0  0  0  0
 20 30  1  6  0  0  0
 20 16  1  0  0  0  0
 20  1  1  0  0  0  0
 21  4  2  0  0  0  0
 22 21  1  0  0  0  0
 23  9  1  0  0  0  0
 25  5  2  0  0  0  0
 27 14  1  0  0  0  0
 28 23  2  0  0  0  0
 30 29  1  6  0  0  0
 30 31  1  0  0  0  0
 31 32  1  0  0  0  0
M  END
>  <MODEL>
5

>  <REMARK>
 VINA RESULT:      -8.2      1.290      1.485
  Name = 
  2 active torsions:
  status: ('A' for Active; 'I' for Inactive)
    1  A    between atoms: C_1  and  C_20
    2  A    between atoms: C_20  and  C_24
                            x       y       z     vdW  Elec       q    Type
                         _______ _______ _______ _____ _____    ______ ____

>  <TORSDO>
F 2

$$$$
=
 OpenBabel10272413233D

 32 37  0  0  1  0  0  0  0  0999 V2000
  187.3140  175.4910  135.4550 C   0  0  0  0  0  2  0  0  0  0  0  0
  186.6550  178.7500  139.5830 C   0  0  2  0  0  3  0  0  0  0  0  0
  181.8700  177.7050  140.2340 C   0  0  0  0  0  3  0  0  0  0  0  0
  181.9120  178.2780  141.5040 C   0  0  0  0  0  3  0  0  0  0  0  0
  187.5420  177.8530  141.8500 C   0  0  0  0  0  0  0  0  0  0  0  0
  187.0190  177.8050  143.1870 C   0  0  0  0  0  0  0  0  0  0  0  0
  187.7160  178.1010  137.4620 N   0  0  2  0  0  0  0  0  0  0  0  0
  185.3310  177.6480  137.7360 C   0  0  0  0  0  2  0  0  0  0  0  0
  185.6450  178.1330  145.5660 C   0  0  0  0  0  0  0  0  0  0  0  0
  186.5200  176.7550  135.7470 C   0  0  0  0  0  2  0  0  0  0  0  0
  183.0340  177.6170  139.4700 C   0  0  0  0  0  3  0  0  0  0  0  0
  185.4480  178.0370  139.1450 N   0  0  0  0  0  0  0  0  0  0  0  0
  184.2600  178.0930  139.9670 C   0  0  0  0  0  0  0  0  0  0  0  0
  185.5990  179.1760  141.8530 C   0  0  2  0  0  3  0  0  0  0  0  0
  186.7980  177.3250  145.5230 C   0  0  0  0  0  3  0  0  0  0  0  0
  189.3160  176.2720  136.7640 C   0  0  0  0  0  2  0  0  0  0  0  0
  186.6570  177.1040  137.2230 C   0  0  1  0  0  3  0  0  0  0  0  0
  187.5040  177.1560  144.3200 C   0  0  0  0  0  3  0  0  0  0  0  0
  189.0210  177.7710  136.8660 C   0  0  0  0  0  2  0  0  0  0  0  0
  188.8220  175.7480  135.4150 C   0  0  1  0  0  3  0  0  0  0  0  0
  183.1210  178.7490  142.0180 C   0  0  0  0  0  3  0  0  0  0  0  0
  184.3060  178.6410  141.2750 C   0  0  0  0  0  0  0  0  0  0  0  0
  185.1840  178.7770  144.4060 C   0  0  0  0  0  3  0  0  0  0  0  0
  187.9140  178.1980  138.9050 C   0  0  0  0  0  2  0  0  0  0  0  0
  188.5580  177.2270  141.4460 O   0  0  0  0  0  0  0  0  0  0  0  0
  184.7830  178.3390  147.0750 Cl  0  0  0  0  0  0  0  0  0  0  0  0
  186.7400  178.7230  141.0430 N   0  0  0  0  0  0  0  0  0  0  0  0
  185.8870  178.5870  143.2130 C   0  0  0  0  0  0  0  0  0  0  0  0
  190.7870  174.7800  134.4340 O   0  0  0  0  0  1  0  0  0  0  0  0
  189.5650  174.4670  135.0380 C   0  0  1  0  0  3  0  0  0  0  0  0
  189.8270  173.6170  136.2740 C   0  0  0  0  0  2  0  0  0  0  0  0
  191.2950  173.2440  136.3540 C   0  0  0  0  0  1  0  0  0  0  0  0
  1 10  1  0  0  0  0
  2 24  1  6  0  0  0
  2 27  1  0  0  0  0
  3  4  1  0  0  0  0
  4 21  2  0  0  0  0
  5  6  1  0  0  0  0
  6 28  2  0  0  0  0
  6 18  1  0  0  0  0
  7 19  1  6  0  0  0
  7 24  1  0  0  0  0
  8 12  1  0  0  0  0
  9 26  1  0  0  0  0
 11 13  1  0  0  0  0
 11  3  2  0  0  0  0
 12  2  1  0  0  0  0
 12 13  1  0  0  0  0
 13 22  2  0  0  0  0
 14 22  1  6  0  0  0
 14 28  1  0  0  0  0
 15  9  1  0  0  0  0
 16 19  1  0  0  0  0
 17 10  1  6  0  0  0
 17  7  1  0  0  0  0
 17  8  1  0  0  0  0
 18 15  2  0  0  0  0
 20 30  1  1  0  0  0
 20  1  1  0  0  0  0
 20 16  1  0  0  0  0
 22 21  1  0  0  0  0
 23  9  2  0  0  0  0
 25  5  2  0  0  0  0
 27  5  1  0  0  0  0
 27 14  1  0  0  0  0
 28 23  1  0  0  0  0
 30 29  1  1  0  0  0
 30 31  1  0  0  0  0
 31 32  1  0  0  0  0
M  END
>  <MODEL>
6

>  <REMARK>
 VINA RESULT:      -8.1      2.880      4.641
  Name = 
  2 active torsions:
  status: ('A' for Active; 'I' for Inactive)
    1  A    between atoms: C_1  and  C_20
    2  A    between atoms: C_20  and  C_24
                            x       y       z     vdW  Elec       q    Type
                         _______ _______ _______ _____ _____    ______ ____

>  <TORSDO>
F 2

$$$$
=
 OpenBabel10272413233D

 32 37  0  0  1  0  0  0  0  0999 V2000
  189.2100  175.2350  136.8800 C   0  0  0  0  0  2  0  0  0  0  0  0
  185.2330  178.3800  138.4260 C   0  0  2  0  0  3  0  0  0  0  0  0
  181.7250  174.9240  138.0100 C   0  0  0  0  0  3  0  0  0  0  0  0
  180.8580  175.7040  138.7730 C   0  0  0  0  0  3  0  0  0  0  0  0
  185.0660  178.7700  140.9860 C   0  0  0  0  0  0  0  0  0  0  0  0
  183.9900  178.7560  141.9380 C   0  0  0  0  0  0  0  0  0  0  0  0
  187.4040  177.9780  137.3460 N   0  0  2  0  0  0  0  0  0  0  0  0
  185.6560  176.2960  137.0630 C   0  0  0  0  0  2  0  0  0  0  0  0
  181.5770  178.7900  143.2910 C   0  0  0  0  0  0  0  0  0  0  0  0
  187.9520  175.8150  136.2490 C   0  0  0  0  0  2  0  0  0  0  0  0
  183.0350  175.3520  137.7880 C   0  0  0  0  0  3  0  0  0  0  0  0
  184.8460  177.0120  138.0530 N   0  0  0  0  0  0  0  0  0  0  0  0
  183.5010  176.5610  138.3310 C   0  0  0  0  0  0  0  0  0  0  0  0
  183.0760  178.6490  139.7400 C   0  0  2  0  0  3  0  0  0  0  0  0
  182.7890  178.8340  144.0080 C   0  0  0  0  0  3  0  0  0  0  0  0
  189.7060  177.3370  138.1700 C   0  0  0  0  0  2  0  0  0  0  0  0
  187.1380  176.5290  137.3200 C   0  0  1  0  0  3  0  0  0  0  0  0
  184.0180  178.8220  143.3290 C   0  0  0  0  0  3  0  0  0  0  0  0
  188.8280  178.3440  137.4230 C   0  0  0  0  0  2  0  0  0  0  0  0
  190.2570  176.3100  137.1810 C   0  0  1  0  0  3  0  0  0  0  0  0
  181.3050  176.9040  139.3280 C   0  0  0  0  0  3  0  0  0  0  0  0
  182.6270  177.3340  139.1390 C   0  0  0  0  0  0  0  0  0  0  0  0
  181.5830  178.7280  141.8880 C   0  0  0  0  0  3  0  0  0  0  0  0
  186.7540  178.5260  138.5320 C   0  0  0  0  0  2  0  0  0  0  0  0
  186.2910  178.7840  141.2770 O   0  0  0  0  0  0  0  0  0  0  0  0
  180.0550  178.8150  144.1530 Cl  0  0  0  0  0  0  0  0  0  0  0  0
  184.5390  178.7690  139.6540 N   0  0  0  0  0  0  0  0  0  0  0  0
  182.8140  178.7000  141.2260 C   0  0  0  0  0  0  0  0  0  0  0  0
  191.3910  174.2750  137.7560 O   0  0  0  0  0  1  0  0  0  0  0  0
  191.5270  175.6660  137.7350 C   0  0  1  0  0  3  0  0  0  0  0  0
  192.7310  176.0340  136.8780 C   0  0  0  0  0  2  0  0  0  0  0  0
  193.9820  175.3620  137.4130 C   0  0  0  0  0  1  0  0  0  0  0  0
  1 20  1  0  0  0  0
  2 24  1  1  0  0  0
  2 27  1  0  0  0  0
  3  4  1  0  0  0  0
  4 21  2  0  0  0  0
  5 25  2  0  0  0  0
  5  6  1  0  0  0  0
  6 18  1  0  0  0  0
  7 19  1  1  0  0  0
  7 24  1  0  0  0  0
  8 17  1  0  0  0  0
  8 12  1  0  0  0  0
  9 15  1  0  0  0  0
  9 26  1  0  0  0  0
 10  1  1  0  0  0  0
 11  3  2  0  0  0  0
 11 13  1  0  0  0  0
 12 13  1  0  0  0  0
 12  2  1  0  0  0  0
 13 22  2  0  0  0  0
 14 22  1  1  0  0  0
 14 28  1  0  0  0  0
 17 10  1  6  0  0  0
 17  7  1  0  0  0  0
 18 15  2  0  0  0  0
 19 16  1  0  0  0  0
 20 30  1  1  0  0  0
 20 16  1  0  0  0  0
 22 21  1  0  0  0  0
 23  9  2  0  0  0  0
 27 14  1  0  0  0  0
 27  5  1  0  0  0  0
 28 23  1  0  0  0  0
 28  6  2  0  0  0  0
 30 29  1  6  0  0  0
 31 32  1  0  0  0  0
 31 30  1  0  0  0  0
M  END
>  <MODEL>
7

>  <REMARK>
 VINA RESULT:      -7.8      4.851      7.180
  Name = 
  2 active torsions:
  status: ('A' for Active; 'I' for Inactive)
    1  A    between atoms: C_1  and  C_20
    2  A    between atoms: C_20  and  C_24
                            x       y       z     vdW  Elec       q    Type
                         _______ _______ _______ _____ _____    ______ ____

>  <TORSDO>
F 2

$$$$
=
 OpenBabel10272413233D

 32 37  0  0  1  0  0  0  0  0999 V2000
  184.8180  175.8950  135.9950 C   0  0  0  0  0  2  0  0  0  0  0  0
  185.5010  179.0720  140.1820 C   0  0  2  0  0  3  0  0  0  0  0  0
  181.0060  178.2980  142.0850 C   0  0  0  0  0  3  0  0  0  0  0  0
  181.4240  178.8320  143.3030 C   0  0  0  0  0  3  0  0  0  0  0  0
  186.9020  178.0600  142.1190 C   0  0  0  0  0  0  0  0  0  0  0  0
  186.7530  178.0060  143.5460 C   0  0  0  0  0  0  0  0  0  0  0  0
  185.9110  178.4190  137.8480 N   0  0  2  0  0  0  0  0  0  0  0  0
  183.6620  178.1030  138.7480 C   0  0  0  0  0  2  0  0  0  0  0  0
  186.0900  178.3510  146.2100 C   0  0  0  0  0  0  0  0  0  0  0  0
  184.2150  177.1960  136.5030 C   0  0  0  0  0  2  0  0  0  0  0  0
  181.9160  178.1620  141.0350 C   0  0  0  0  0  3  0  0  0  0  0  0
  184.1770  178.4450  140.0770 N   0  0  0  0  0  0  0  0  0  0  0  0
  183.2580  178.5490  141.1890 C   0  0  0  0  0  0  0  0  0  0  0  0
  185.1210  179.4970  142.6580 C   0  0  2  0  0  3  0  0  0  0  0  0
  187.1340  177.4770  145.8510 C   0  0  0  0  0  3  0  0  0  0  0  0
  187.1440  176.5180  136.7260 C   0  0  0  0  0  2  0  0  0  0  0  0
  184.7640  177.4950  137.8910 C   0  0  1  0  0  3  0  0  0  0  0  0
  187.4800  177.2990  144.5010 C   0  0  0  0  0  3  0  0  0  0  0  0
  186.9850  178.0280  136.9200 C   0  0  0  0  0  2  0  0  0  0  0  0
  186.2740  176.0620  135.5540 C   0  0  1  0  0  3  0  0  0  0  0  0
  182.7550  179.2150  143.4770 C   0  0  0  0  0  3  0  0  0  0  0  0
  183.6880  179.0570  142.4420 C   0  0  0  0  0  0  0  0  0  0  0  0
  185.3780  179.0530  145.2240 C   0  0  0  0  0  3  0  0  0  0  0  0
  186.4930  178.4640  139.1860 C   0  0  0  0  0  2  0  0  0  0  0  0
  187.7290  177.3860  141.4500 O   0  0  0  0  0  0  0  0  0  0  0  0
  185.6780  178.5660  147.8970 Cl  0  0  0  0  0  0  0  0  0  0  0  0
  185.9710  178.9990  141.5660 N   0  0  0  0  0  0  0  0  0  0  0  0
  185.7230  178.8550  143.8840 C   0  0  0  0  0  0  0  0  0  0  0  0
  188.1590  174.6000  135.2900 O   0  0  0  0  0  1  0  0  0  0  0  0
  186.8040  174.7490  134.9780 C   0  0  1  0  0  3  0  0  0  0  0  0
  186.0320  173.5660  135.5440 C   0  0  0  0  0  2  0  0  0  0  0  0
  186.6600  173.1010  136.8440 C   0  0  0  0  0  1  0  0  0  0  0  0
  1 10  1  0  0  0  0
  2 24  1  6  0  0  0
  2 27  1  0  0  0  0
  3  4  1  0  0  0  0
  4 21  2  0  0  0  0
  5  6  1  0  0  0  0
  6 28  2  0  0  0  0
  6 18  1  0  0  0  0
  7 19  1  6  0  0  0
  7 17  1  0  0  0  0
  7 24  1  0  0  0  0
  8 12  1  0  0  0  0
  9 26  1  0  0  0  0
 11 13  1  0  0  0  0
 11  3  2  0  0  0  0
 12  2  1  0  0  0  0
 12 13  1  0  0  0  0
 13 22  2  0  0  0  0
 14 22  1  6  0  0  0
 14 28  1  0  0  0  0
 15  9  1  0  0  0  0
 16 19  1  0  0  0  0
 17 10  1  6  0  0  0
 17  8  1  0  0  0  0
 18 15  2  0  0  0  0
 20 30  1  1  0  0  0
 20  1  1  0  0  0  0
 20 16  1  0  0  0  0
 22 21  1  0  0  0  0
 23  9  2  0  0  0  0
 25  5  2  0  0  0  0
 27  5  1  0  0  0  0
 27 14  1  0  0  0  0
 28 23  1  0  0  0  0
 30 29  1  1  0  0  0
 30 31  1  0  0  0  0
 31 32  1  0  0  0  0
M  END
>  <MODEL>
8

>  <REMARK>
 VINA RESULT:      -7.7      2.852      4.296
  Name = 
  2 active torsions:
  status: ('A' for Active; 'I' for Inactive)
    1  A    between atoms: C_1  and  C_20
    2  A    between atoms: C_20  and  C_24
                            x       y       z     vdW  Elec       q    Type
                         _______ _______ _______ _____ _____    ______ ____

>  <TORSDO>
F 2

$$$$
=
 OpenBabel10272413233D

 32 37  0  0  1  0  0  0  0  0999 V2000
  191.6320  175.8980  143.7220 C   0  0  0  0  0  2  0  0  0  0  0  0
  188.1090  178.7730  140.9980 C   0  0  2  0  0  3  0  0  0  0  0  0
  188.4000  176.0690  136.8720 C   0  0  0  0  0  3  0  0  0  0  0  0
  187.2180  176.6430  136.4070 C   0  0  0  0  0  3  0  0  0  0  0  0
  185.6220  178.3050  141.5730 C   0  0  0  0  0  0  0  0  0  0  0  0
  184.4320  178.0950  140.7960 C   0  0  0  0  0  0  0  0  0  0  0  0
  189.8700  178.5130  142.6930 N   0  0  2  0  0  0  0  0  0  0  0  0
  190.0720  177.2280  140.6260 C   0  0  0  0  0  2  0  0  0  0  0  0
  182.4540  177.9470  138.8680 C   0  0  0  0  0  0  0  0  0  0  0  0
  191.6530  176.7910  142.4900 C   0  0  0  0  0  2  0  0  0  0  0  0
  188.8810  176.3970  138.1410 C   0  0  0  0  0  3  0  0  0  0  0  0
  188.7200  177.6600  140.2590 N   0  0  0  0  0  0  0  0  0  0  0  0
  188.1840  177.2960  138.9660 C   0  0  0  0  0  0  0  0  0  0  0  0
  186.1770  178.8290  139.3500 C   0  0  2  0  0  3  0  0  0  0  0  0
  182.1620  177.6140  140.2050 C   0  0  0  0  0  3  0  0  0  0  0  0
  190.0110  177.3800  144.9490 C   0  0  0  0  0  2  0  0  0  0  0  0
  190.2270  177.1950  142.1400 C   0  0  1  0  0  3  0  0  0  0  0  0
  183.1590  177.6910  141.1920 C   0  0  0  0  0  3  0  0  0  0  0  0
  190.1330  178.6700  144.1340 C   0  0  0  0  0  2  0  0  0  0  0  0
  191.3730  176.6860  145.0070 C   0  0  1  0  0  3  0  0  0  0  0  0
  186.5080  177.5320  137.2150 C   0  0  0  0  0  3  0  0  0  0  0  0
  186.9620  177.8490  138.5040 C   0  0  0  0  0  0  0  0  0  0  0  0
  183.7470  178.3560  138.5030 C   0  0  0  0  0  3  0  0  0  0  0  0
  188.4380  178.7040  142.4930 C   0  0  0  0  0  2  0  0  0  0  0  0
  185.7300  178.0840  142.8090 O   0  0  0  0  0  0  0  0  0  0  0  0
  181.1970  177.8550  137.6540 Cl  0  0  0  0  0  0  0  0  0  0  0  0
  186.6700  178.8070  140.7350 N   0  0  0  0  0  0  0  0  0  0  0  0
  184.7330  178.4120  139.4920 C   0  0  0  0  0  0  0  0  0  0  0  0
  192.4580  174.8120  146.0400 O   0  0  0  0  0  1  0  0  0  0  0  0
  191.4430  175.7560  146.2180 C   0  0  1  0  0  3  0  0  0  0  0  0
  191.7220  176.5500  147.4870 C   0  0  0  0  0  2  0  0  0  0  0  0
  192.7540  175.8360  148.3380 C   0  0  0  0  0  1  0  0  0  0  0  0
  1 20  1  0  0  0  0
  2 24  1  1  0  0  0
  3 11  1  0  0  0  0
  4  3  2  0  0  0  0
  4 21  1  0  0  0  0
  5 25  2  0  0  0  0
  6 18  1  0  0  0  0
  6  5  1  0  0  0  0
  7 24  1  1  0  0  0
  7 19  1  0  0  0  0
  9 15  1  0  0  0  0
 10  1  1  0  0  0  0
 11 13  2  0  0  0  0
 12  8  1  0  0  0  0
 12  2  1  0  0  0  0
 13 12  1  0  0  0  0
 14 22  1  6  0  0  0
 14 28  1  0  0  0  0
 14 27  1  0  0  0  0
 15 18  2  0  0  0  0
 16 20  1  0  0  0  0
 17  8  1  6  0  0  0
 17 10  1  0  0  0  0
 17  7  1  0  0  0  0
 19 16  1  0  0  0  0
 20 30  1  1  0  0  0
 21 22  2  0  0  0  0
 22 13  1  0  0  0  0
 23  9  2  0  0  0  0
 23 28  1  0  0  0  0
 26  9  1  0  0  0  0
 27  2  1  0  0  0  0
 27  5  1  0  0  0  0
 28  6  2  0  0  0  0
 30 29  1  6  0  0  0
 30 31  1  0  0  0  0
 31 32  1  0  0  0  0
M  END
>  <MODEL>
9

>  <REMARK>
 VINA RESULT:      -7.6      3.587      8.501
  Name = 
  2 active torsions:
  status: ('A' for Active; 'I' for Inactive)
    1  A    between atoms: C_1  and  C_20
    2  A    between atoms: C_20  and  C_24
                            x       y       z     vdW  Elec       q    Type
                         _______ _______ _______ _____ _____    ______ ____

>  <TORSDO>
F 2

$$$$
