=
 OpenBabel10272413513D

 30 31  0  0  1  0  0  0  0  0999 V2000
  186.9800  178.4300  140.4890 N   0  0  0  0  0  0  0  0  0  0  0  0
  185.9190  179.0780  141.2360 C   0  0  1  0  0  3  0  0  0  0  0  0
  189.3300  177.7250  140.1330 N   0  0  0  0  0  2  0  0  0  0  0  0
  184.7890  179.2700  140.2380 C   0  0  0  0  0  2  0  0  0  0  0  0
  186.5840  178.0400  139.1510 C   0  0  0  0  0  2  0  0  0  0  0  0
  185.1080  178.3750  139.0480 C   0  0  0  0  0  2  0  0  0  0  0  0
  188.6310  178.7450  142.1130 O   0  0  0  0  0  0  0  0  0  0  0  0
  188.3280  178.3160  140.9640 C   0  0  0  0  0  0  0  0  0  0  0  0
  190.7100  177.5460  140.5680 C   0  0  1  0  0  3  0  0  0  0  0  0
  190.0990  175.8070  142.0860 O   0  0  0  0  0  0  0  0  0  0  0  0
  190.7710  176.8560  141.8980 C   0  0  0  0  0  0  0  0  0  0  0  0
  191.5580  177.3920  142.9600 N   0  0  0  0  0  1  0  0  0  0  0  0
  192.9990  177.2750  139.5190 C   0  0  0  0  0  1  0  0  0  0  0  0
  191.5500  176.8120  139.5180 C   0  0  2  0  0  3  0  0  0  0  0  0
  190.5820  174.5530  137.8940 O   0  0  0  0  0  0  0  0  0  0  0  0
  190.9630  176.8500  138.1760 N   0  0  0  0  0  2  0  0  0  0  0  0
  190.0210  175.9100  136.1000 N   0  0  0  0  0  1  0  0  0  0  0  0
  190.5320  175.7160  137.4130 C   0  0  0  0  0  0  0  0  0  0  0  0
  185.4630  178.1720  142.3760 C   0  0  0  0  0  2  0  0  0  0  0  0
  185.6630  178.8360  143.6550 N   0  0  0  0  0  0  0  0  0  0  0  0
  184.5470  179.7470  143.8270 C   0  0  0  0  0  1  0  0  0  0  0  0
  185.5410  177.8240  144.6960 C   0  0  0  0  0  2  0  0  0  0  0  0
  189.4540  177.1060  146.9550 C   0  0  0  0  0  0  0  0  0  0  0  0
  188.3560  176.9880  147.9620 C   0  0  0  0  0  2  0  0  0  0  0  0
  190.7690  177.1000  147.4000 O   0  0  0  0  0  1  0  0  0  0  0  0
  186.7740  177.7980  145.5360 C   0  0  0  0  0  0  0  0  0  0  0  0
  187.4440  178.1700  147.9170 C   0  0  0  0  0  3  0  0  0  0  0  0
  189.2130  177.1640  145.6420 C   0  0  0  0  0  3  0  0  0  0  0  0
  186.7230  178.4930  146.8410 C   0  0  0  0  0  3  0  0  0  0  0  0
  187.8800  177.2500  145.0100 C   0  0  0  0  0  3  0  0  0  0  0  0
  1  8  1  0  0  0  0
  1  2  1  0  0  0  0
  2 19  1  1  0  0  0
  3  8  1  0  0  0  0
  4  2  1  0  0  0  0
  5  1  1  0  0  0  0
  6  5  1  0  0  0  0
  6  4  1  0  0  0  0
  8  7  2  0  0  0  0
  9  3  1  6  0  0  0
  9 11  1  0  0  0  0
 11 10  2  0  0  0  0
 11 12  1  0  0  0  0
 14 13  1  6  0  0  0
 14  9  1  0  0  0  0
 16 14  1  0  0  0  0
 17 18  1  0  0  0  0
 18 15  2  0  0  0  0
 18 16  1  0  0  0  0
 19 20  1  0  0  0  0
 20 21  1  0  0  0  0
 20 22  1  0  0  0  0
 22 26  1  0  0  0  0
 23 25  1  0  0  0  0
 23 24  1  0  0  0  0
 26 29  1  0  0  0  0
 27 24  1  0  0  0  0
 28 23  2  0  0  0  0
 29 27  2  0  0  0  0
 30 26  2  0  0  0  0
 30 28  1  0  0  0  0
M  END
>  <MODEL>
1

>  <REMARK>
 VINA RESULT:      -7.8      0.000      0.000
  Name = 
  8 active torsions:
  status: ('A' for Active; 'I' for Inactive)
    1  A    between atoms: C_3  and  N_11
    2  A    between atoms: C_3  and  C_19
    3  A    between atoms: C_4  and  C_8
    4  A    between atoms: C_8  and  C_12
    5  A    between atoms: C_8  and  N_13
    6  A    between atoms: N_9  and  C_12
    7  A    between atoms: C_10  and  C_25
    8  A    between atoms: N_11  and  C_25
                            x       y       z     vdW  Elec       q    Type
                         _______ _______ _______ _____ _____    ______ ____

>  <TORSDO>
F 8

$$$$
=
 OpenBabel10272413513D

 30 31  0  0  1  0  0  0  0  0999 V2000
  190.3030  177.4980  143.1680 N   0  0  0  0  0  0  0  0  0  0  0  0
  189.9110  177.1910  144.5300 C   0  0  1  0  0  3  0  0  0  0  0  0
  190.0070  177.4340  140.7080 N   0  0  0  0  0  2  0  0  0  0  0  0
  191.1630  177.4080  145.3640 C   0  0  0  0  0  2  0  0  0  0  0  0
  191.6400  178.0470  143.0660 C   0  0  0  0  0  2  0  0  0  0  0  0
  192.1280  178.2020  144.4940 C   0  0  0  0  0  2  0  0  0  0  0  0
  188.3850  176.6110  142.1700 O   0  0  0  0  0  0  0  0  0  0  0  0
  189.5120  177.1590  142.0210 C   0  0  0  0  0  0  0  0  0  0  0  0
  189.2390  177.1480  139.5010 C   0  0  1  0  0  3  0  0  0  0  0  0
  187.2960  178.5340  139.5620 O   0  0  0  0  0  0  0  0  0  0  0  0
  188.4420  178.3430  139.0740 C   0  0  0  0  0  0  0  0  0  0  0  0
  188.9540  179.2490  138.0980 N   0  0  0  0  0  1  0  0  0  0  0  0
  189.5310  175.4200  137.6730 C   0  0  0  0  0  1  0  0  0  0  0  0
  190.1300  176.6340  138.3650 C   0  0  2  0  0  3  0  0  0  0  0  0
  192.5240  176.4520  136.6570 O   0  0  0  0  0  0  0  0  0  0  0  0
  191.5180  176.4040  138.7750 N   0  0  0  0  0  2  0  0  0  0  0  0
  193.9320  176.0230  138.4480 N   0  0  0  0  0  1  0  0  0  0  0  0
  192.6470  176.2940  137.9010 C   0  0  0  0  0  0  0  0  0  0  0  0
  188.8110  178.1480  144.9780 C   0  0  0  0  0  2  0  0  0  0  0  0
  187.7770  177.4220  145.7000 N   0  0  0  0  0  0  0  0  0  0  0  0
  188.3840  176.9500  146.9300 C   0  0  0  0  0  1  0  0  0  0  0  0
  186.7530  178.3850  146.0820 C   0  0  0  0  0  2  0  0  0  0  0  0
  183.7780  178.6380  142.6150 C   0  0  0  0  0  0  0  0  0  0  0  0
  183.2920  179.5890  143.6600 C   0  0  0  0  0  2  0  0  0  0  0  0
  182.9680  178.3850  141.5160 O   0  0  0  0  0  1  0  0  0  0  0  0
  185.6300  178.3620  145.0980 C   0  0  0  0  0  0  0  0  0  0  0  0
  183.1970  178.9300  144.9980 C   0  0  0  0  0  3  0  0  0  0  0  0
  184.9840  178.0660  142.6780 C   0  0  0  0  0  3  0  0  0  0  0  0
  184.2540  178.4230  145.6360 C   0  0  0  0  0  3  0  0  0  0  0  0
  185.9330  178.1720  143.8060 C   0  0  0  0  0  3  0  0  0  0  0  0
  1  2  1  0  0  0  0
  2 19  1  1  0  0  0
  2  4  1  0  0  0  0
  3  8  1  0  0  0  0
  5  1  1  0  0  0  0
  5  6  1  0  0  0  0
  6  4  1  0  0  0  0
  8  7  2  0  0  0  0
  8  1  1  0  0  0  0
  9 11  1  6  0  0  0
  9  3  1  0  0  0  0
 11 10  2  0  0  0  0
 12 11  1  0  0  0  0
 14 13  1  1  0  0  0
 14 16  1  0  0  0  0
 14  9  1  0  0  0  0
 15 18  2  0  0  0  0
 18 17  1  0  0  0  0
 18 16  1  0  0  0  0
 19 20  1  0  0  0  0
 20 22  1  0  0  0  0
 20 21  1  0  0  0  0
 23 28  2  0  0  0  0
 23 24  1  0  0  0  0
 24 27  1  0  0  0  0
 25 23  1  0  0  0  0
 26 29  1  0  0  0  0
 26 22  1  0  0  0  0
 27 29  2  0  0  0  0
 28 30  1  0  0  0  0
 30 26  2  0  0  0  0
M  END
>  <MODEL>
2

>  <REMARK>
 VINA RESULT:      -7.8      2.156      4.891
  Name = 
  8 active torsions:
  status: ('A' for Active; 'I' for Inactive)
    1  A    between atoms: C_3  and  N_11
    2  A    between atoms: C_3  and  C_19
    3  A    between atoms: C_4  and  C_8
    4  A    between atoms: C_8  and  C_12
    5  A    between atoms: C_8  and  N_13
    6  A    between atoms: N_9  and  C_12
    7  A    between atoms: C_10  and  C_25
    8  A    between atoms: N_11  and  C_25
                            x       y       z     vdW  Elec       q    Type
                         _______ _______ _______ _____ _____    ______ ____

>  <TORSDO>
F 8

$$$$
=
 OpenBabel10272413513D

 30 31  0  0  1  0  0  0  0  0999 V2000
  185.8060  178.5970  141.1410 N   0  0  0  0  0  0  0  0  0  0  0  0
  185.0870  179.0220  142.3260 C   0  0  1  0  0  3  0  0  0  0  0  0
  187.8620  178.2660  139.7950 N   0  0  0  0  0  2  0  0  0  0  0  0
  183.6350  179.1360  141.8910 C   0  0  0  0  0  2  0  0  0  0  0  0
  184.9380  178.2700  140.0280 C   0  0  0  0  0  2  0  0  0  0  0  0
  183.5240  178.4000  140.5620 C   0  0  0  0  0  2  0  0  0  0  0  0
  187.9380  179.0040  142.0080 O   0  0  0  0  0  0  0  0  0  0  0  0
  187.2350  178.6360  141.0260 C   0  0  0  0  0  0  0  0  0  0  0  0
  189.3100  178.2480  139.6220 C   0  0  1  0  0  3  0  0  0  0  0  0
  189.2910  176.4350  141.1750 O   0  0  0  0  0  0  0  0  0  0  0  0
  189.9620  177.3520  140.6310 C   0  0  0  0  0  0  0  0  0  0  0  0
  191.3260  177.5450  141.0020 N   0  0  0  0  0  1  0  0  0  0  0  0
  189.0380  178.7540  137.1560 C   0  0  0  0  0  1  0  0  0  0  0  0
  189.7100  177.8670  138.1920 C   0  0  2  0  0  3  0  0  0  0  0  0
  191.7720  175.7720  137.9990 O   0  0  0  0  0  0  0  0  0  0  0  0
  189.5270  176.4430  137.8990 N   0  0  0  0  0  2  0  0  0  0  0  0
  190.2370  174.1240  137.4500 N   0  0  0  0  0  1  0  0  0  0  0  0
  190.5690  175.4660  137.7870 C   0  0  0  0  0  0  0  0  0  0  0  0
  185.2240  177.9680  143.4190 C   0  0  0  0  0  2  0  0  0  0  0  0
  185.7090  178.5780  144.6480 N   0  0  0  0  0  0  0  0  0  0  0  0
  184.5840  179.2840  145.2310 C   0  0  0  0  0  1  0  0  0  0  0  0
  186.0500  177.5010  145.5660 C   0  0  0  0  0  2  0  0  0  0  0  0
  190.5780  177.0690  146.0610 C   0  0  0  0  0  0  0  0  0  0  0  0
  189.9650  176.5860  147.3350 C   0  0  0  0  0  2  0  0  0  0  0  0
  191.9580  177.2090  145.9960 O   0  0  0  0  0  1  0  0  0  0  0  0
  187.5080  177.5350  145.8850 C   0  0  0  0  0  0  0  0  0  0  0  0
  189.0010  177.5840  147.8900 C   0  0  0  0  0  3  0  0  0  0  0  0
  189.8480  177.3190  144.9690 C   0  0  0  0  0  3  0  0  0  0  0  0
  187.8960  177.9660  147.2450 C   0  0  0  0  0  3  0  0  0  0  0  0
  188.3730  177.2890  144.8900 C   0  0  0  0  0  3  0  0  0  0  0  0
  1  2  1  0  0  0  0
  2 19  1  1  0  0  0
  3  8  1  0  0  0  0
  4  2  1  0  0  0  0
  5  6  1  0  0  0  0
  5  1  1  0  0  0  0
  6  4  1  0  0  0  0
  8  1  1  0  0  0  0
  8  7  2  0  0  0  0
  9  3  1  6  0  0  0
  9 11  1  0  0  0  0
 11 12  1  0  0  0  0
 11 10  2  0  0  0  0
 14 13  1  6  0  0  0
 14  9  1  0  0  0  0
 16 14  1  0  0  0  0
 17 18  1  0  0  0  0
 18 16  1  0  0  0  0
 18 15  2  0  0  0  0
 19 20  1  0  0  0  0
 20 21  1  0  0  0  0
 20 22  1  0  0  0  0
 22 26  1  0  0  0  0
 23 24  1  0  0  0  0
 24 27  1  0  0  0  0
 25 23  1  0  0  0  0
 26 29  1  0  0  0  0
 28 23  2  0  0  0  0
 29 27  2  0  0  0  0
 30 28  1  0  0  0  0
 30 26  2  0  0  0  0
M  END
>  <MODEL>
3

>  <REMARK>
 VINA RESULT:      -7.5      1.460      1.761
  Name = 
  8 active torsions:
  status: ('A' for Active; 'I' for Inactive)
    1  A    between atoms: C_3  and  N_11
    2  A    between atoms: C_3  and  C_19
    3  A    between atoms: C_4  and  C_8
    4  A    between atoms: C_8  and  C_12
    5  A    between atoms: C_8  and  N_13
    6  A    between atoms: N_9  and  C_12
    7  A    between atoms: C_10  and  C_25
    8  A    between atoms: N_11  and  C_25
                            x       y       z     vdW  Elec       q    Type
                         _______ _______ _______ _____ _____    ______ ____

>  <TORSDO>
F 8

$$$$
=
 OpenBabel10272413513D

 30 31  0  0  1  0  0  0  0  0999 V2000
  189.7510  177.4010  139.7850 N   0  0  0  0  0  0  0  0  0  0  0  0
  189.3200  177.8200  138.4650 C   0  0  1  0  0  3  0  0  0  0  0  0
  189.7500  177.5240  142.2610 N   0  0  0  0  0  2  0  0  0  0  0  0
  190.3620  177.2620  137.5100 C   0  0  0  0  0  2  0  0  0  0  0  0
  190.8790  176.4920  139.7580 C   0  0  0  0  0  2  0  0  0  0  0  0
  191.1480  176.2170  138.2910 C   0  0  0  0  0  2  0  0  0  0  0  0
  188.2840  178.7900  140.9590 O   0  0  0  0  0  0  0  0  0  0  0  0
  189.2180  177.9420  141.0010 C   0  0  0  0  0  0  0  0  0  0  0  0
  189.2290  178.0060  143.5360 C   0  0  1  0  0  3  0  0  0  0  0  0
  187.9470  175.9930  143.4790 O   0  0  0  0  0  0  0  0  0  0  0  0
  188.2600  177.0270  144.1260 C   0  0  0  0  0  0  0  0  0  0  0  0
  187.6670  177.2700  145.4010 N   0  0  0  0  0  1  0  0  0  0  0  0
  191.2100  179.5030  144.0310 C   0  0  0  0  0  1  0  0  0  0  0  0
  190.3530  178.3460  144.5200 C   0  0  2  0  0  3  0  0  0  0  0  0
  190.7120  177.1810  147.2020 O   0  0  0  0  0  0  0  0  0  0  0  0
  191.1620  177.1850  144.9000 N   0  0  0  0  0  2  0  0  0  0  0  0
  192.1870  175.5600  146.4460 N   0  0  0  0  0  1  0  0  0  0  0  0
  191.3280  176.6730  146.2280 C   0  0  0  0  0  0  0  0  0  0  0  0
  187.9520  177.2220  138.1560 C   0  0  0  0  0  2  0  0  0  0  0  0
  187.0220  178.2710  137.7640 N   0  0  0  0  0  0  0  0  0  0  0  0
  187.6550  179.0010  136.6820 C   0  0  0  0  0  1  0  0  0  0  0  0
  185.8460  177.6230  137.2000 C   0  0  0  0  0  2  0  0  0  0  0  0
  182.7100  178.3850  140.4450 C   0  0  0  0  0  0  0  0  0  0  0  0
  182.6080  176.9380  140.0880 C   0  0  0  0  0  2  0  0  0  0  0  0
  181.7550  178.9330  141.2900 O   0  0  0  0  0  1  0  0  0  0  0  0
  184.6640  177.8370  138.0880 C   0  0  0  0  0  0  0  0  0  0  0  0
  182.4760  176.7450  138.6130 C   0  0  0  0  0  3  0  0  0  0  0  0
  183.7180  179.1540  140.0190 C   0  0  0  0  0  3  0  0  0  0  0  0
  183.4170  177.1210  137.7430 C   0  0  0  0  0  3  0  0  0  0  0  0
  184.7710  178.7490  139.0650 C   0  0  0  0  0  3  0  0  0  0  0  0
  1  8  1  0  0  0  0
  2 19  1  6  0  0  0
  2  1  1  0  0  0  0
  4  6  1  0  0  0  0
  4  2  1  0  0  0  0
  5  1  1  0  0  0  0
  6  5  1  0  0  0  0
  7  8  2  0  0  0  0
  8  3  1  0  0  0  0
  9  3  1  6  0  0  0
  9 11  1  0  0  0  0
  9 14  1  0  0  0  0
 10 11  2  0  0  0  0
 11 12  1  0  0  0  0
 14 13  1  6  0  0  0
 14 16  1  0  0  0  0
 16 18  1  0  0  0  0
 18 17  1  0  0  0  0
 18 15  2  0  0  0  0
 20 19  1  0  0  0  0
 21 20  1  0  0  0  0
 22 20  1  0  0  0  0
 22 26  1  0  0  0  0
 23 25  1  0  0  0  0
 24 23  1  0  0  0  0
 26 30  2  0  0  0  0
 27 24  1  0  0  0  0
 28 23  2  0  0  0  0
 29 26  1  0  0  0  0
 29 27  2  0  0  0  0
 30 28  1  0  0  0  0
M  END
>  <MODEL>
4

>  <REMARK>
 VINA RESULT:      -7.2      2.546      6.947
  Name = 
  8 active torsions:
  status: ('A' for Active; 'I' for Inactive)
    1  A    between atoms: C_3  and  N_11
    2  A    between atoms: C_3  and  C_19
    3  A    between atoms: C_4  and  C_8
    4  A    between atoms: C_8  and  C_12
    5  A    between atoms: C_8  and  N_13
    6  A    between atoms: N_9  and  C_12
    7  A    between atoms: C_10  and  C_25
    8  A    between atoms: N_11  and  C_25
                            x       y       z     vdW  Elec       q    Type
                         _______ _______ _______ _____ _____    ______ ____

>  <TORSDO>
F 8

$$$$
=
 OpenBabel10272413513D

 30 31  0  0  1  0  0  0  0  0999 V2000
  188.5280  177.3500  144.6700 N   0  0  0  0  0  0  0  0  0  0  0  0
  187.4710  177.3390  145.6630 C   0  0  1  0  0  3  0  0  0  0  0  0
  189.4050  177.1220  142.3620 N   0  0  0  0  0  2  0  0  0  0  0  0
  188.1820  177.2170  147.0010 C   0  0  0  0  0  2  0  0  0  0  0  0
  189.8560  177.4090  145.2460 C   0  0  0  0  0  2  0  0  0  0  0  0
  189.6460  177.5470  146.7420 C   0  0  0  0  0  2  0  0  0  0  0  0
  187.1200  177.0460  142.8300 O   0  0  0  0  0  0  0  0  0  0  0  0
  188.2980  177.1700  143.2660 C   0  0  0  0  0  0  0  0  0  0  0  0
  189.2400  176.9790  140.9200 C   0  0  1  0  0  3  0  0  0  0  0  0
  188.6760  179.2970  140.8300 O   0  0  0  0  0  0  0  0  0  0  0  0
  188.5000  178.1480  140.3440 C   0  0  0  0  0  0  0  0  0  0  0  0
  187.5780  177.9680  139.2700 N   0  0  0  0  0  1  0  0  0  0  0  0
  191.7010  177.5690  140.8420 C   0  0  0  0  0  1  0  0  0  0  0  0
  190.5800  176.7580  140.2100 C   0  0  2  0  0  3  0  0  0  0  0  0
  190.7280  174.7200  138.0880 O   0  0  0  0  0  0  0  0  0  0  0  0
  190.5080  176.9560  138.7600 N   0  0  0  0  0  2  0  0  0  0  0  0
  190.5700  176.2880  136.3870 N   0  0  0  0  0  1  0  0  0  0  0  0
  190.6140  175.9320  137.7640 C   0  0  0  0  0  0  0  0  0  0  0  0
  186.6930  178.6490  145.6010 C   0  0  0  0  0  2  0  0  0  0  0  0
  185.2730  178.3820  145.4270 N   0  0  0  0  0  0  0  0  0  0  0  0
  184.6800  178.4130  146.7510 C   0  0  0  0  0  1  0  0  0  0  0  0
  184.7050  179.5010  144.6880 C   0  0  0  0  0  2  0  0  0  0  0  0
  182.1300  178.3430  141.0880 C   0  0  0  0  0  0  0  0  0  0  0  0
  181.3120  179.2870  141.9080 C   0  0  0  0  0  2  0  0  0  0  0  0
  181.5280  177.6970  140.0160 O   0  0  0  0  0  1  0  0  0  0  0  0
  183.7320  179.0070  143.6700 C   0  0  0  0  0  0  0  0  0  0  0  0
  181.2570  178.8630  143.3390 C   0  0  0  0  0  3  0  0  0  0  0  0
  183.4300  178.1420  141.3200 C   0  0  0  0  0  3  0  0  0  0  0  0
  182.3400  178.7780  144.1150 C   0  0  0  0  0  3  0  0  0  0  0  0
  184.2020  178.6920  142.4540 C   0  0  0  0  0  3  0  0  0  0  0  0
  1  5  1  0  0  0  0
  1  2  1  0  0  0  0
  2 19  1  1  0  0  0
  2  4  1  0  0  0  0
  3  8  1  0  0  0  0
  5  6  1  0  0  0  0
  6  4  1  0  0  0  0
  7  8  2  0  0  0  0
  8  1  1  0  0  0  0
  9 11  1  6  0  0  0
  9  3  1  0  0  0  0
 11 10  2  0  0  0  0
 12 11  1  0  0  0  0
 14 13  1  1  0  0  0
 14  9  1  0  0  0  0
 16 14  1  0  0  0  0
 17 18  1  0  0  0  0
 18 15  2  0  0  0  0
 18 16  1  0  0  0  0
 20 19  1  0  0  0  0
 20 21  1  0  0  0  0
 22 20  1  0  0  0  0
 23 28  2  0  0  0  0
 23 24  1  0  0  0  0
 24 27  1  0  0  0  0
 25 23  1  0  0  0  0
 26 29  1  0  0  0  0
 26 22  1  0  0  0  0
 27 29  2  0  0  0  0
 28 30  1  0  0  0  0
 30 26  2  0  0  0  0
M  END
>  <MODEL>
5

>  <REMARK>
 VINA RESULT:      -7.2      2.247      5.305
  Name = 
  8 active torsions:
  status: ('A' for Active; 'I' for Inactive)
    1  A    between atoms: C_3  and  N_11
    2  A    between atoms: C_3  and  C_19
    3  A    between atoms: C_4  and  C_8
    4  A    between atoms: C_8  and  C_12
    5  A    between atoms: C_8  and  N_13
    6  A    between atoms: N_9  and  C_12
    7  A    between atoms: C_10  and  C_25
    8  A    between atoms: N_11  and  C_25
                            x       y       z     vdW  Elec       q    Type
                         _______ _______ _______ _____ _____    ______ ____

>  <TORSDO>
F 8

$$$$
=
 OpenBabel10272413513D

 30 31  0  0  1  0  0  0  0  0999 V2000
  185.7960  178.1250  144.4310 N   0  0  0  0  0  0  0  0  0  0  0  0
  185.0320  178.1340  143.1990 C   0  0  1  0  0  3  0  0  0  0  0  0
  187.7410  177.4860  145.8300 N   0  0  0  0  0  2  0  0  0  0  0  0
  183.6310  178.5650  143.6020 C   0  0  0  0  0  2  0  0  0  0  0  0
  185.0680  178.6640  145.5620 C   0  0  0  0  0  2  0  0  0  0  0  0
  183.7480  179.1560  145.0010 C   0  0  0  0  0  2  0  0  0  0  0  0
  187.6390  176.9890  143.5510 O   0  0  0  0  0  0  0  0  0  0  0  0
  187.0860  177.5120  144.5580 C   0  0  0  0  0  0  0  0  0  0  0  0
  189.0680  176.9110  146.0210 C   0  0  1  0  0  3  0  0  0  0  0  0
  190.1540  178.7840  145.0140 O   0  0  0  0  0  0  0  0  0  0  0  0
  190.0620  177.5290  145.0850 C   0  0  0  0  0  0  0  0  0  0  0  0
  190.8850  176.7110  144.2540 N   0  0  0  0  0  1  0  0  0  0  0  0
  188.9180  178.2110  148.1890 C   0  0  0  0  0  1  0  0  0  0  0  0
  189.5310  177.0140  147.4780 C   0  0  2  0  0  3  0  0  0  0  0  0
  191.2920  174.6530  147.4650 O   0  0  0  0  0  0  0  0  0  0  0  0
  190.9870  176.9730  147.6290 N   0  0  0  0  0  2  0  0  0  0  0  0
  193.2020  175.9100  147.8450 N   0  0  0  0  0  1  0  0  0  0  0  0
  191.7990  175.7920  147.6440 C   0  0  0  0  0  0  0  0  0  0  0  0
  185.6320  179.1440  142.2270 C   0  0  0  0  0  2  0  0  0  0  0  0
  186.1280  178.4660  141.0390 N   0  0  0  0  0  0  0  0  0  0  0  0
  185.2040  178.7820  139.9660 C   0  0  0  0  0  1  0  0  0  0  0  0
  187.4020  179.0770  140.6870 C   0  0  0  0  0  2  0  0  0  0  0  0
  190.5730  176.3610  138.8160 C   0  0  0  0  0  0  0  0  0  0  0  0
  190.1250  177.2930  137.7390 C   0  0  0  0  0  2  0  0  0  0  0  0
  191.4160  175.3090  138.4800 O   0  0  0  0  0  1  0  0  0  0  0  0
  188.2580  178.0980  139.9530 C   0  0  0  0  0  0  0  0  0  0  0  0
  188.6370  177.3070  137.6110 C   0  0  0  0  0  3  0  0  0  0  0  0
  190.2330  176.5350  140.0970 C   0  0  0  0  0  3  0  0  0  0  0  0
  187.8260  177.7020  138.5950 C   0  0  0  0  0  3  0  0  0  0  0  0
  189.2930  177.5540  140.6100 C   0  0  0  0  0  3  0  0  0  0  0  0
  1  8  1  0  0  0  0
  1  5  1  0  0  0  0
  2 19  1  6  0  0  0
  2  4  1  0  0  0  0
  2  1  1  0  0  0  0
  3  9  1  0  0  0  0
  4  6  1  0  0  0  0
  6  5  1  0  0  0  0
  7  8  2  0  0  0  0
  8  3  1  0  0  0  0
  9 11  1  6  0  0  0
  9 14  1  0  0  0  0
 10 11  2  0  0  0  0
 12 11  1  0  0  0  0
 14 16  1  0  0  0  0
 14 13  1  6  0  0  0
 15 18  2  0  0  0  0
 16 18  1  0  0  0  0
 18 17  1  0  0  0  0
 20 19  1  0  0  0  0
 21 20  1  0  0  0  0
 22 20  1  0  0  0  0
 23 28  2  0  0  0  0
 24 23  1  0  0  0  0
 25 23  1  0  0  0  0
 26 30  2  0  0  0  0
 26 22  1  0  0  0  0
 27 24  1  0  0  0  0
 27 29  2  0  0  0  0
 28 30  1  0  0  0  0
 29 26  1  0  0  0  0
M  END
>  <MODEL>
6

>  <REMARK>
 VINA RESULT:      -7.2      2.294      6.840
  Name = 
  8 active torsions:
  status: ('A' for Active; 'I' for Inactive)
    1  A    between atoms: C_3  and  N_11
    2  A    between atoms: C_3  and  C_19
    3  A    between atoms: C_4  and  C_8
    4  A    between atoms: C_8  and  C_12
    5  A    between atoms: C_8  and  N_13
    6  A    between atoms: N_9  and  C_12
    7  A    between atoms: C_10  and  C_25
    8  A    between atoms: N_11  and  C_25
                            x       y       z     vdW  Elec       q    Type
                         _______ _______ _______ _____ _____    ______ ____

>  <TORSDO>
F 8

$$$$
=
 OpenBabel10272413513D

 30 31  0  0  1  0  0  0  0  0999 V2000
  185.5620  178.6770  141.8570 N   0  0  0  0  0  0  0  0  0  0  0  0
  185.1260  179.0840  143.1780 C   0  0  1  0  0  3  0  0  0  0  0  0
  187.2560  178.3950  140.0690 N   0  0  0  0  0  2  0  0  0  0  0  0
  183.6110  179.1630  143.0920 C   0  0  0  0  0  2  0  0  0  0  0  0
  184.4670  178.3290  140.9740 C   0  0  0  0  0  2  0  0  0  0  0  0
  183.2120  178.4250  141.8210 C   0  0  0  0  0  2  0  0  0  0  0  0
  187.8260  179.1350  142.2080 O   0  0  0  0  0  0  0  0  0  0  0  0
  186.9230  178.7500  141.4140 C   0  0  0  0  0  0  0  0  0  0  0  0
  188.6250  178.4120  139.5650 C   0  0  1  0  0  3  0  0  0  0  0  0
  188.9430  176.5860  141.0710 O   0  0  0  0  0  0  0  0  0  0  0  0
  189.4800  177.4210  140.2950 C   0  0  0  0  0  0  0  0  0  0  0  0
  190.8990  177.4330  140.1440 N   0  0  0  0  0  1  0  0  0  0  0  0
  188.9840  179.4740  137.2950 C   0  0  0  0  0  1  0  0  0  0  0  0
  188.6790  178.1890  138.0500 C   0  0  2  0  0  3  0  0  0  0  0  0
  188.4700  175.4350  137.0280 O   0  0  0  0  0  0  0  0  0  0  0  0
  187.4940  177.5090  137.5210 N   0  0  0  0  0  2  0  0  0  0  0  0
  186.2280  175.6640  136.4840 N   0  0  0  0  0  1  0  0  0  0  0  0
  187.4500  176.1720  137.0070 C   0  0  0  0  0  0  0  0  0  0  0  0
  185.5380  178.0340  144.2040 C   0  0  0  0  0  2  0  0  0  0  0  0
  186.2440  178.6620  145.3110 N   0  0  0  0  0  0  0  0  0  0  0  0
  185.2920  179.5440  145.9610 C   0  0  0  0  0  1  0  0  0  0  0  0
  186.5690  177.6170  146.2720 C   0  0  0  0  0  2  0  0  0  0  0  0
  191.0830  176.9120  146.5060 C   0  0  0  0  0  0  0  0  0  0  0  0
  190.8420  177.7030  145.2620 C   0  0  0  0  0  2  0  0  0  0  0  0
  192.3560  176.4090  146.7400 O   0  0  0  0  0  1  0  0  0  0  0  0
  188.0110  177.2450  146.1620 C   0  0  0  0  0  0  0  0  0  0  0  0
  189.7880  177.0760  144.4100 C   0  0  0  0  0  3  0  0  0  0  0  0
  190.1300  176.7180  147.4230 C   0  0  0  0  0  3  0  0  0  0  0  0
  188.5260  176.9130  144.8160 C   0  0  0  0  0  3  0  0  0  0  0  0
  188.7140  177.1220  147.2970 C   0  0  0  0  0  3  0  0  0  0  0  0
  1  2  1  0  0  0  0
  2 19  1  1  0  0  0
  3  8  1  0  0  0  0
  4  2  1  0  0  0  0
  5  6  1  0  0  0  0
  5  1  1  0  0  0  0
  6  4  1  0  0  0  0
  8  1  1  0  0  0  0
  8  7  2  0  0  0  0
  9  3  1  1  0  0  0
  9 11  1  0  0  0  0
 11 10  2  0  0  0  0
 12 11  1  0  0  0  0
 14 13  1  6  0  0  0
 14  9  1  0  0  0  0
 16 14  1  0  0  0  0
 17 18  1  0  0  0  0
 18 15  2  0  0  0  0
 18 16  1  0  0  0  0
 19 20  1  0  0  0  0
 20 21  1  0  0  0  0
 20 22  1  0  0  0  0
 23 25  1  0  0  0  0
 23 28  2  0  0  0  0
 24 23  1  0  0  0  0
 26 22  1  0  0  0  0
 26 30  2  0  0  0  0
 27 29  2  0  0  0  0
 27 24  1  0  0  0  0
 29 26  1  0  0  0  0
 30 28  1  0  0  0  0
M  END
>  <MODEL>
7

>  <REMARK>
 VINA RESULT:      -7.0      1.856      2.740
  Name = 
  8 active torsions:
  status: ('A' for Active; 'I' for Inactive)
    1  A    between atoms: C_3  and  N_11
    2  A    between atoms: C_3  and  C_19
    3  A    between atoms: C_4  and  C_8
    4  A    between atoms: C_8  and  C_12
    5  A    between atoms: C_8  and  N_13
    6  A    between atoms: N_9  and  C_12
    7  A    between atoms: C_10  and  C_25
    8  A    between atoms: N_11  and  C_25
                            x       y       z     vdW  Elec       q    Type
                         _______ _______ _______ _____ _____    ______ ____

>  <TORSDO>
F 8

$$$$
=
 OpenBabel10272413513D

 30 31  0  0  1  0  0  0  0  0999 V2000
  190.9960  175.1090  137.5180 N   0  0  0  0  0  0  0  0  0  0  0  0
  189.9480  176.0750  137.7870 C   0  0  1  0  0  3  0  0  0  0  0  0
  193.3640  174.4160  137.2810 N   0  0  0  0  0  2  0  0  0  0  0  0
  188.6810  175.4590  137.2150 C   0  0  0  0  0  2  0  0  0  0  0  0
  190.5000  173.8620  136.9730 C   0  0  0  0  0  2  0  0  0  0  0  0
  188.9880  173.9860  136.9760 C   0  0  0  0  0  2  0  0  0  0  0  0
  192.7680  176.5390  138.0450 O   0  0  0  0  0  0  0  0  0  0  0  0
  192.3940  175.4050  137.6360 C   0  0  0  0  0  0  0  0  0  0  0  0
  194.8000  174.6380  137.4120 C   0  0  1  0  0  3  0  0  0  0  0  0
  195.1810  172.8280  138.9220 O   0  0  0  0  0  0  0  0  0  0  0  0
  195.3200  174.0590  138.6930 C   0  0  0  0  0  0  0  0  0  0  0  0
  195.9440  174.8940  139.6680 N   0  0  0  0  0  1  0  0  0  0  0  0
  194.9820  172.8070  135.6730 C   0  0  0  0  0  1  0  0  0  0  0  0
  195.5730  174.1040  136.2010 C   0  0  2  0  0  3  0  0  0  0  0  0
  197.5990  176.2390  136.0850 O   0  0  0  0  0  0  0  0  0  0  0  0
  197.0150  173.9950  136.4360 N   0  0  0  0  0  2  0  0  0  0  0  0
  199.3470  174.7900  136.5530 N   0  0  0  0  0  1  0  0  0  0  0  0
  197.9670  175.0620  136.3390 C   0  0  0  0  0  0  0  0  0  0  0  0
  189.8010  176.2700  139.2930 C   0  0  0  0  0  2  0  0  0  0  0  0
  189.8200  177.6880  139.6200 N   0  0  0  0  0  0  0  0  0  0  0  0
  189.5580  178.4010  138.3840 C   0  0  0  0  0  1  0  0  0  0  0  0
  188.6910  177.9480  140.5010 C   0  0  0  0  0  2  0  0  0  0  0  0
  189.1840  177.3410  145.0090 C   0  0  0  0  0  0  0  0  0  0  0  0
  190.1020  178.4580  144.6290 C   0  0  0  0  0  2  0  0  0  0  0  0
  189.2550  176.8300  146.2980 O   0  0  0  0  0  1  0  0  0  0  0  0
  189.0670  177.6690  141.9190 C   0  0  0  0  0  0  0  0  0  0  0  0
  190.9780  178.0790  143.4800 C   0  0  0  0  0  3  0  0  0  0  0  0
  188.2660  176.8560  144.1680 C   0  0  0  0  0  3  0  0  0  0  0  0
  190.5000  177.7660  142.2730 C   0  0  0  0  0  3  0  0  0  0  0  0
  188.1060  177.2370  142.7490 C   0  0  0  0  0  3  0  0  0  0  0  0
  1  8  1  0  0  0  0
  1  2  1  0  0  0  0
  2 19  1  1  0  0  0
  3  8  1  0  0  0  0
  4  2  1  0  0  0  0
  5  6  1  0  0  0  0
  5  1  1  0  0  0  0
  6  4  1  0  0  0  0
  8  7  2  0  0  0  0
  9  3  1  6  0  0  0
  9 11  1  0  0  0  0
 11 10  2  0  0  0  0
 11 12  1  0  0  0  0
 14 13  1  1  0  0  0
 14 16  1  0  0  0  0
 14  9  1  0  0  0  0
 15 18  2  0  0  0  0
 18 16  1  0  0  0  0
 18 17  1  0  0  0  0
 19 20  1  0  0  0  0
 20 22  1  0  0  0  0
 21 20  1  0  0  0  0
 22 26  1  0  0  0  0
 23 25  1  0  0  0  0
 24 23  1  0  0  0  0
 26 29  1  0  0  0  0
 26 30  2  0  0  0  0
 27 24  1  0  0  0  0
 28 23  2  0  0  0  0
 29 27  2  0  0  0  0
 30 28  1  0  0  0  0
M  END
>  <MODEL>
8

>  <REMARK>
 VINA RESULT:      -7.0      3.825      5.899
  Name = 
  8 active torsions:
  status: ('A' for Active; 'I' for Inactive)
    1  A    between atoms: C_3  and  N_11
    2  A    between atoms: C_3  and  C_19
    3  A    between atoms: C_4  and  C_8
    4  A    between atoms: C_8  and  C_12
    5  A    between atoms: C_8  and  N_13
    6  A    between atoms: N_9  and  C_12
    7  A    between atoms: C_10  and  C_25
    8  A    between atoms: N_11  and  C_25
                            x       y       z     vdW  Elec       q    Type
                         _______ _______ _______ _____ _____    ______ ____

>  <TORSDO>
F 8

$$$$
=
 OpenBabel10272413513D

 30 31  0  0  1  0  0  0  0  0999 V2000
  186.3610  178.1970  143.1120 N   0  0  0  0  0  0  0  0  0  0  0  0
  185.5110  178.0380  141.9480 C   0  0  1  0  0  3  0  0  0  0  0  0
  188.4430  177.8230  144.4050 N   0  0  0  0  0  2  0  0  0  0  0  0
  184.1150  178.4130  142.4190 C   0  0  0  0  0  2  0  0  0  0  0  0
  185.6790  178.7920  144.2430 C   0  0  0  0  0  2  0  0  0  0  0  0
  184.2900  179.1410  143.7450 C   0  0  0  0  0  2  0  0  0  0  0  0
  188.2130  177.1050  142.1960 O   0  0  0  0  0  0  0  0  0  0  0  0
  187.6980  177.6840  143.1920 C   0  0  0  0  0  0  0  0  0  0  0  0
  189.8180  177.3570  144.5430 C   0  0  1  0  0  3  0  0  0  0  0  0
  191.3450  177.6950  142.7390 O   0  0  0  0  0  0  0  0  0  0  0  0
  190.7560  178.1990  143.7310 C   0  0  0  0  0  0  0  0  0  0  0  0
  191.0090  179.5570  144.0900 N   0  0  0  0  0  1  0  0  0  0  0  0
  191.4160  176.3280  146.2170 C   0  0  0  0  0  1  0  0  0  0  0  0
  190.2540  177.2880  146.0100 C   0  0  2  0  0  3  0  0  0  0  0  0
  189.6240  178.6550  148.5420 O   0  0  0  0  0  0  0  0  0  0  0  0
  189.1480  177.0180  146.9320 N   0  0  0  0  0  2  0  0  0  0  0  0
  187.8050  177.2870  148.9830 N   0  0  0  0  0  1  0  0  0  0  0  0
  188.9000  177.6950  148.1700 C   0  0  0  0  0  0  0  0  0  0  0  0
  185.9650  178.9890  140.8450 C   0  0  0  0  0  2  0  0  0  0  0  0
  185.9560  178.3070  139.5590 N   0  0  0  0  0  0  0  0  0  0  0  0
  184.7870  178.7850  138.8450 C   0  0  0  0  0  1  0  0  0  0  0  0
  187.1190  178.7670  138.8130 C   0  0  0  0  0  2  0  0  0  0  0  0
  190.4650  175.7510  138.0100 C   0  0  0  0  0  0  0  0  0  0  0  0
  189.7220  175.9120  136.7240 C   0  0  0  0  0  2  0  0  0  0  0  0
  191.4340  174.7610  138.1010 O   0  0  0  0  0  1  0  0  0  0  0  0
  188.0370  177.6240  138.5320 C   0  0  0  0  0  0  0  0  0  0  0  0
  188.2520  175.7280  136.9140 C   0  0  0  0  0  3  0  0  0  0  0  0
  190.2640  176.5600  139.0540 C   0  0  0  0  0  3  0  0  0  0  0  0
  187.5150  176.5220  137.6950 C   0  0  0  0  0  3  0  0  0  0  0  0
  189.2290  177.6110  139.1480 C   0  0  0  0  0  3  0  0  0  0  0  0
  1  8  1  0  0  0  0
  1  5  1  0  0  0  0
  2 19  1  6  0  0  0
  2  4  1  0  0  0  0
  2  1  1  0  0  0  0
  3  9  1  0  0  0  0
  4  6  1  0  0  0  0
  6  5  1  0  0  0  0
  7  8  2  0  0  0  0
  8  3  1  0  0  0  0
  9 11  1  6  0  0  0
  9 14  1  0  0  0  0
 10 11  2  0  0  0  0
 11 12  1  0  0  0  0
 14 13  1  6  0  0  0
 14 16  1  0  0  0  0
 16 18  1  0  0  0  0
 18 15  2  0  0  0  0
 18 17  1  0  0  0  0
 20 19  1  0  0  0  0
 21 20  1  0  0  0  0
 22 20  1  0  0  0  0
 23 25  1  0  0  0  0
 23 28  2  0  0  0  0
 24 27  1  0  0  0  0
 24 23  1  0  0  0  0
 26 22  1  0  0  0  0
 26 30  2  0  0  0  0
 27 29  2  0  0  0  0
 28 30  1  0  0  0  0
 29 26  1  0  0  0  0
M  END
>  <MODEL>
9

>  <REMARK>
 VINA RESULT:      -6.8      2.222      6.981
  Name = 
  8 active torsions:
  status: ('A' for Active; 'I' for Inactive)
    1  A    between atoms: C_3  and  N_11
    2  A    between atoms: C_3  and  C_19
    3  A    between atoms: C_4  and  C_8
    4  A    between atoms: C_8  and  C_12
    5  A    between atoms: C_8  and  N_13
    6  A    between atoms: N_9  and  C_12
    7  A    between atoms: C_10  and  C_25
    8  A    between atoms: N_11  and  C_25
                            x       y       z     vdW  Elec       q    Type
                         _______ _______ _______ _____ _____    ______ ____

>  <TORSDO>
F 8

$$$$
