=
 OpenBabel10272414183D

 43 49  0  0  1  0  0  0  0  0999 V2000
  187.9050  177.4680  147.1470 C   0  0  0  0  0  0  0  0  0  0  0  0
  186.8320  178.3530  142.3000 C   0  0  0  0  0  0  0  0  0  0  0  0
  189.0870  177.6140  140.7860 C   0  0  0  0  0  0  0  0  0  0  0  0
  186.8240  178.0890  145.0720 C   0  0  0  0  0  0  0  0  0  0  0  0
  189.0500  177.0890  146.4410 C   0  0  0  0  0  3  0  0  0  0  0  0
  187.8690  177.3410  148.6280 C   0  0  0  0  0  1  0  0  0  0  0  0
  187.9770  177.7080  144.3480 C   0  0  0  0  0  0  0  0  0  0  0  0
  186.7920  177.9670  146.4630 C   0  0  0  0  0  3  0  0  0  0  0  0
  189.0880  177.2070  145.0490 C   0  0  0  0  0  3  0  0  0  0  0  0
  189.0980  177.4740  142.1780 C   0  0  0  0  0  3  0  0  0  0  0  0
  187.9840  177.8390  142.9460 C   0  0  0  0  0  0  0  0  0  0  0  0
  185.7450  178.7110  143.0360 N   0  0  0  0  0  0  0  0  0  0  0  0
  186.8090  178.4920  140.9030 C   0  0  0  0  0  0  0  0  0  0  0  0
  187.9410  178.1240  140.1620 C   0  0  0  0  0  3  0  0  0  0  0  0
  185.7180  178.5910  144.3890 C   0  0  0  0  0  3  0  0  0  0  0  0
  190.2330  177.2370  140.0060 N   0  0  0  0  0  0  0  0  0  0  0  0
  190.1450  176.5160  138.7520 C   0  0  0  0  0  2  0  0  0  0  0  0
  191.5990  177.5240  140.4000 C   0  0  0  0  0  2  0  0  0  0  0  0
  191.5640  176.4280  138.2260 C   0  0  1  0  0  3  0  0  0  0  0  0
  192.4770  176.8230  139.3820 C   0  0  0  0  0  2  0  0  0  0  0  0
  191.8560  175.0070  137.7760 C   0  0  0  0  0  2  0  0  0  0  0  0
  192.1630  174.9540  136.2790 C   0  0  2  0  0  3  0  0  0  0  0  0
  193.7360  174.4530  134.5150 C   0  0  0  0  0  2  0  0  0  0  0  0
  191.3640  173.5270  135.4790 S   0  0  0  0  0  0  0  0  0  0  0  0
  193.6530  174.9340  135.9510 C   0  0  1  0  0  0  0  0  0  0  0  0
  194.2070  176.3450  136.0430 C   0  0  0  0  0  1  0  0  0  0  0  0
  192.7710  173.2940  134.3460 C   0  0  0  0  0  2  0  0  0  0  0  0
  194.4350  173.9870  136.8780 C   0  0  0  0  0  2  0  0  0  0  0  0
  195.4570  174.7000  137.6310 N   0  0  0  0  0  0  0  0  0  0  0  0
  197.8640  174.7090  138.0420 C   0  0  0  0  0  3  0  0  0  0  0  0
  196.3300  175.0550  139.8760 C   0  0  0  0  0  2  0  0  0  0  0  0
  197.6510  175.0430  139.2700 N   0  0  0  0  0  0  0  0  0  0  0  0
  195.3100  174.2970  139.0260 C   0  0  0  0  0  2  0  0  0  0  0  0
  196.7480  174.2010  137.1650 C   0  0  0  0  0  2  0  0  0  0  0  0
  185.6550  179.0210  140.2950 O   0  0  0  0  0  0  0  0  0  0  0  0
  183.5350  177.4690  137.6410 C   0  0  0  0  0  3  0  0  0  0  0  0
  182.5850  176.8190  138.4330 C   0  0  0  0  0  0  0  0  0  0  0  0
  183.6790  177.6550  140.4250 C   0  0  0  0  0  3  0  0  0  0  0  0
  184.5580  178.2070  138.2410 C   0  0  0  0  0  3  0  0  0  0  0  0
  184.6370  178.3090  139.6410 C   0  0  0  0  0  0  0  0  0  0  0  0
  182.6540  176.9170  139.8250 C   0  0  0  0  0  3  0  0  0  0  0  0
  181.2780  174.8560  138.4850 O   0  0  0  0  0  1  0  0  0  0  0  0
  181.4820  176.0500  137.7950 C   0  0  0  0  0  2  0  0  0  0  0  0
  1  6  1  0  0  0  0
  2 11  1  0  0  0  0
  2 12  1  0  0  0  0
  3 10  1  0  0  0  0
  4  8  2  0  0  0  0
  5  1  2  0  0  0  0
  7  9  2  0  0  0  0
  7  4  1  0  0  0  0
  8  1  1  0  0  0  0
  9  5  1  0  0  0  0
 10 11  2  0  0  0  0
 11  7  1  0  0  0  0
 12 15  2  0  0  0  0
 13  2  2  0  0  0  0
 14  3  2  0  0  0  0
 14 13  1  0  0  0  0
 15  4  1  0  0  0  0
 16 18  1  0  0  0  0
 16  3  1  0  0  0  0
 17 16  1  0  0  0  0
 19 21  1  1  0  0  0
 19 17  1  0  0  0  0
 19 20  1  0  0  0  0
 20 18  1  0  0  0  0
 22 21  1  1  0  0  0
 23 25  1  0  0  0  0
 24 22  1  0  0  0  0
 25 26  1  1  0  0  0
 25 22  1  0  0  0  0
 25 28  1  0  0  0  0
 27 23  1  0  0  0  0
 27 24  1  0  0  0  0
 28 29  1  0  0  0  0
 29 33  1  0  0  0  0
 30 32  2  0  0  0  0
 32 31  1  0  0  0  0
 33 31  1  0  0  0  0
 34 29  1  0  0  0  0
 34 30  1  0  0  0  0
 35 13  1  0  0  0  0
 36 39  2  0  0  0  0
 36 37  1  0  0  0  0
 37 41  2  0  0  0  0
 39 40  1  0  0  0  0
 40 35  1  0  0  0  0
 40 38  2  0  0  0  0
 41 38  1  0  0  0  0
 43 37  1  0  0  0  0
 43 42  1  0  0  0  0
M  END
>  <MODEL>
1

>  <REMARK>
 VINA RESULT:      -9.5      0.000      0.000
  Name = 
  8 active torsions:
  status: ('A' for Active; 'I' for Inactive)
    1  A    between atoms: O_1  and  C_34
    2  A    between atoms: O_1  and  C_35
    3  A    between atoms: N_2  and  C_13
    4  A    between atoms: C_3  and  C_4
    5  A    between atoms: C_3  and  C_12
    6  A    between atoms: N_11  and  C_14
    7  A    between atoms: C_14  and  C_22
    8  A    between atoms: C_19  and  C_37
                            x       y       z     vdW  Elec       q    Type
                         _______ _______ _______ _____ _____    ______ ____

>  <TORSDO>
F 8

$$$$
=
 OpenBabel10272414183D

 43 49  0  0  1  0  0  0  0  0999 V2000
  191.5850  176.2330  147.1490 C   0  0  0  0  0  0  0  0  0  0  0  0
  187.4820  177.6940  144.6060 C   0  0  0  0  0  0  0  0  0  0  0  0
  188.1860  177.8520  141.8850 C   0  0  0  0  0  0  0  0  0  0  0  0
  189.3520  176.9280  146.5220 C   0  0  0  0  0  0  0  0  0  0  0  0
  191.9840  176.2990  145.8110 C   0  0  0  0  0  3  0  0  0  0  0  0
  192.5590  175.8290  148.1970 C   0  0  0  0  0  1  0  0  0  0  0  0
  189.7460  176.9970  145.1660 C   0  0  0  0  0  0  0  0  0  0  0  0
  190.2690  176.5470  147.5040 C   0  0  0  0  0  3  0  0  0  0  0  0
  191.0710  176.6780  144.8240 C   0  0  0  0  0  3  0  0  0  0  0  0
  189.1360  177.4650  142.8360 C   0  0  0  0  0  3  0  0  0  0  0  0
  188.8020  177.3820  144.1940 C   0  0  0  0  0  0  0  0  0  0  0  0
  187.1480  177.6170  145.9230 N   0  0  0  0  0  0  0  0  0  0  0  0
  186.5190  178.0780  143.6600 C   0  0  0  0  0  0  0  0  0  0  0  0
  186.8860  178.1570  142.3080 C   0  0  0  0  0  3  0  0  0  0  0  0
  188.0420  177.2460  146.8750 C   0  0  0  0  0  3  0  0  0  0  0  0
  188.5370  177.9330  140.4940 N   0  0  0  0  0  0  0  0  0  0  0  0
  187.6030  178.3180  139.4550 C   0  0  0  0  0  2  0  0  0  0  0  0
  189.8570  177.6220  139.9830 C   0  0  0  0  0  2  0  0  0  0  0  0
  188.4120  178.3770  138.1750 C   0  0  1  0  0  3  0  0  0  0  0  0
  189.7410  177.6910  138.4720 C   0  0  0  0  0  2  0  0  0  0  0  0
  187.6700  177.6500  137.0670 C   0  0  0  0  0  2  0  0  0  0  0  0
  188.4810  176.4630  136.5470 C   0  0  2  0  0  3  0  0  0  0  0  0
  188.5130  174.3170  135.4350 C   0  0  0  0  0  2  0  0  0  0  0  0
  189.3530  176.8710  135.0010 S   0  0  0  0  0  0  0  0  0  0  0  0
  187.6590  175.1950  136.3300 C   0  0  1  0  0  0  0  0  0  0  0  0
  187.4460  174.5010  137.6630 C   0  0  0  0  0  1  0  0  0  0  0  0
  189.1100  175.1890  134.3460 C   0  0  0  0  0  2  0  0  0  0  0  0
  186.3070  175.4920  135.6560 C   0  0  0  0  0  2  0  0  0  0  0  0
  185.1910  175.0610  136.4840 N   0  0  0  0  0  0  0  0  0  0  0  0
  183.0700  173.8590  136.3490 C   0  0  0  0  0  3  0  0  0  0  0  0
  183.2320  175.8660  137.6850 C   0  0  0  0  0  2  0  0  0  0  0  0
  182.5620  174.6610  137.2230 N   0  0  0  0  0  0  0  0  0  0  0  0
  184.3970  176.2510  136.7730 C   0  0  0  0  0  2  0  0  0  0  0  0
  184.3710  174.1770  135.6590 C   0  0  0  0  0  2  0  0  0  0  0  0
  185.2230  178.3960  144.1040 O   0  0  0  0  0  0  0  0  0  0  0  0
  182.8570  178.3920  141.2140 C   0  0  0  0  0  3  0  0  0  0  0  0
  181.6840  178.7990  141.8550 C   0  0  0  0  0  0  0  0  0  0  0  0
  182.8850  178.9440  143.9520 C   0  0  0  0  0  3  0  0  0  0  0  0
  184.0400  178.2560  141.9430 C   0  0  0  0  0  3  0  0  0  0  0  0
  184.0660  178.5350  143.3210 C   0  0  0  0  0  0  0  0  0  0  0  0
  181.7000  179.0810  143.2240 C   0  0  0  0  0  3  0  0  0  0  0  0
  180.3030  180.2890  140.6570 O   0  0  0  0  0  1  0  0  0  0  0  0
  180.4270  178.9650  141.0750 C   0  0  0  0  0  2  0  0  0  0  0  0
  1  8  1  0  0  0  0
  1  6  1  0  0  0  0
  2 12  1  0  0  0  0
  3 14  2  0  0  0  0
  3 10  1  0  0  0  0
  4 15  1  0  0  0  0
  4  8  2  0  0  0  0
  5  1  2  0  0  0  0
  7  4  1  0  0  0  0
  9  7  2  0  0  0  0
  9  5  1  0  0  0  0
 10 11  2  0  0  0  0
 11  2  1  0  0  0  0
 11  7  1  0  0  0  0
 12 15  2  0  0  0  0
 13 35  1  0  0  0  0
 13  2  2  0  0  0  0
 14 13  1  0  0  0  0
 16  3  1  0  0  0  0
 17 16  1  0  0  0  0
 18 16  1  0  0  0  0
 19 21  1  6  0  0  0
 19 20  1  0  0  0  0
 19 17  1  0  0  0  0
 20 18  1  0  0  0  0
 22 21  1  6  0  0  0
 23 25  1  0  0  0  0
 24 22  1  0  0  0  0
 25 22  1  0  0  0  0
 25 26  1  1  0  0  0
 27 24  1  0  0  0  0
 27 23  1  0  0  0  0
 28 25  1  0  0  0  0
 28 29  1  0  0  0  0
 29 33  1  0  0  0  0
 30 32  2  0  0  0  0
 32 31  1  0  0  0  0
 33 31  1  0  0  0  0
 34 30  1  0  0  0  0
 34 29  1  0  0  0  0
 36 37  2  0  0  0  0
 36 39  1  0  0  0  0
 37 41  1  0  0  0  0
 39 40  2  0  0  0  0
 40 38  1  0  0  0  0
 40 35  1  0  0  0  0
 41 38  2  0  0  0  0
 42 43  1  0  0  0  0
 43 37  1  0  0  0  0
M  END
>  <MODEL>
2

>  <REMARK>
 VINA RESULT:      -9.4      3.969      6.127
  Name = 
  8 active torsions:
  status: ('A' for Active; 'I' for Inactive)
    1  A    between atoms: O_1  and  C_34
    2  A    between atoms: O_1  and  C_35
    3  A    between atoms: N_2  and  C_13
    4  A    between atoms: C_3  and  C_4
    5  A    between atoms: C_3  and  C_12
    6  A    between atoms: N_11  and  C_14
    7  A    between atoms: C_14  and  C_22
    8  A    between atoms: C_19  and  C_37
                            x       y       z     vdW  Elec       q    Type
                         _______ _______ _______ _____ _____    ______ ____

>  <TORSDO>
F 8

$$$$
=
 OpenBabel10272414183D

 43 49  0  0  1  0  0  0  0  0999 V2000
  191.6080  176.1800  147.1430 C   0  0  0  0  0  0  0  0  0  0  0  0
  187.6290  177.7050  144.4470 C   0  0  0  0  0  0  0  0  0  0  0  0
  188.3420  177.5560  141.7280 C   0  0  0  0  0  0  0  0  0  0  0  0
  189.4350  176.9820  146.4400 C   0  0  0  0  0  0  0  0  0  0  0  0
  192.0110  176.0910  145.8080 C   0  0  0  0  0  3  0  0  0  0  0  0
  192.5490  175.8030  148.2310 C   0  0  0  0  0  1  0  0  0  0  0  0
  189.8330  176.8940  145.0850 C   0  0  0  0  0  0  0  0  0  0  0  0
  190.3210  176.6250  147.4590 C   0  0  0  0  0  3  0  0  0  0  0  0
  191.1300  176.4440  144.7830 C   0  0  0  0  0  3  0  0  0  0  0  0
  189.2600  177.1880  142.7180 C   0  0  0  0  0  3  0  0  0  0  0  0
  188.9210  177.2580  144.0760 C   0  0  0  0  0  0  0  0  0  0  0  0
  187.2900  177.7780  145.7640 N   0  0  0  0  0  0  0  0  0  0  0  0
  186.6980  178.0720  143.4630 C   0  0  0  0  0  0  0  0  0  0  0  0
  187.0690  177.9970  142.1120 C   0  0  0  0  0  3  0  0  0  0  0  0
  188.1540  177.4300  146.7520 C   0  0  0  0  0  3  0  0  0  0  0  0
  188.6980  177.4800  140.3390 N   0  0  0  0  0  0  0  0  0  0  0  0
  189.6680  176.5400  139.8120 C   0  0  0  0  0  2  0  0  0  0  0  0
  188.1360  178.3450  139.3200 C   0  0  0  0  0  2  0  0  0  0  0  0
  189.6510  176.7300  138.3090 C   0  0  1  0  0  3  0  0  0  0  0  0
  188.8930  178.0270  138.0460 C   0  0  0  0  0  2  0  0  0  0  0  0
  191.0750  176.8270  137.7890 C   0  0  0  0  0  2  0  0  0  0  0  0
  191.2270  176.0970  136.4550 C   0  0  2  0  0  3  0  0  0  0  0  0
  192.3690  174.4220  135.1410 C   0  0  0  0  0  2  0  0  0  0  0  0
  189.9030  174.8720  136.2040 S   0  0  0  0  0  0  0  0  0  0  0  0
  192.5770  175.4100  136.2720 C   0  0  1  0  0  0  0  0  0  0  0  0
  193.6130  176.4400  135.8580 C   0  0  0  0  0  1  0  0  0  0  0  0
  191.0380  173.7270  135.3560 C   0  0  0  0  0  2  0  0  0  0  0  0
  193.0280  174.6760  137.5480 C   0  0  0  0  0  2  0  0  0  0  0  0
  194.4190  174.2570  137.4600 N   0  0  0  0  0  0  0  0  0  0  0  0
  195.8150  172.2550  137.5140 C   0  0  0  0  0  3  0  0  0  0  0  0
  196.5310  174.2510  138.6730 C   0  0  0  0  0  2  0  0  0  0  0  0
  196.7310  172.9130  138.1410 N   0  0  0  0  0  0  0  0  0  0  0  0
  195.0490  174.6230  138.7250 C   0  0  0  0  0  2  0  0  0  0  0  0
  194.4160  172.7990  137.3780 C   0  0  0  0  0  2  0  0  0  0  0  0
  185.4300  178.5280  143.8670 O   0  0  0  0  0  0  0  0  0  0  0  0
  183.0290  178.2620  141.0190 C   0  0  0  0  0  3  0  0  0  0  0  0
  181.8520  178.6770  141.6490 C   0  0  0  0  0  0  0  0  0  0  0  0
  183.0750  178.9960  143.7140 C   0  0  0  0  0  3  0  0  0  0  0  0
  184.2250  178.2100  141.7380 C   0  0  0  0  0  3  0  0  0  0  0  0
  184.2590  178.5810  143.0930 C   0  0  0  0  0  0  0  0  0  0  0  0
  181.8770  179.0490  142.9960 C   0  0  0  0  0  3  0  0  0  0  0  0
  180.0010  180.0100  141.0480 O   0  0  0  0  0  1  0  0  0  0  0  0
  180.5810  178.7540  140.8780 C   0  0  0  0  0  2  0  0  0  0  0  0
  1  8  1  0  0  0  0
  1  6  1  0  0  0  0
  2 12  1  0  0  0  0
  3 14  2  0  0  0  0
  3 10  1  0  0  0  0
  4 15  1  0  0  0  0
  4  8  2  0  0  0  0
  5  1  2  0  0  0  0
  7  4  1  0  0  0  0
  9  7  2  0  0  0  0
  9  5  1  0  0  0  0
 10 11  2  0  0  0  0
 11  2  1  0  0  0  0
 11  7  1  0  0  0  0
 12 15  2  0  0  0  0
 13 35  1  0  0  0  0
 13  2  2  0  0  0  0
 14 13  1  0  0  0  0
 16  3  1  0  0  0  0
 17 16  1  0  0  0  0
 18 16  1  0  0  0  0
 19 21  1  1  0  0  0
 19 17  1  0  0  0  0
 20 19  1  0  0  0  0
 20 18  1  0  0  0  0
 22 21  1  1  0  0  0
 23 27  1  0  0  0  0
 23 25  1  0  0  0  0
 24 22  1  0  0  0  0
 25 26  1  6  0  0  0
 25 22  1  0  0  0  0
 25 28  1  0  0  0  0
 27 24  1  0  0  0  0
 29 28  1  0  0  0  0
 29 33  1  0  0  0  0
 30 32  2  0  0  0  0
 31 33  1  0  0  0  0
 32 31  1  0  0  0  0
 34 29  1  0  0  0  0
 34 30  1  0  0  0  0
 36 37  2  0  0  0  0
 36 39  1  0  0  0  0
 37 41  1  0  0  0  0
 39 40  2  0  0  0  0
 40 38  1  0  0  0  0
 40 35  1  0  0  0  0
 41 38  2  0  0  0  0
 43 42  1  0  0  0  0
 43 37  1  0  0  0  0
M  END
>  <MODEL>
3

>  <REMARK>
 VINA RESULT:      -9.3      2.077      2.901
  Name = 
  8 active torsions:
  status: ('A' for Active; 'I' for Inactive)
    1  A    between atoms: O_1  and  C_34
    2  A    between atoms: O_1  and  C_35
    3  A    between atoms: N_2  and  C_13
    4  A    between atoms: C_3  and  C_4
    5  A    between atoms: C_3  and  C_12
    6  A    between atoms: N_11  and  C_14
    7  A    between atoms: C_14  and  C_22
    8  A    between atoms: C_19  and  C_37
                            x       y       z     vdW  Elec       q    Type
                         _______ _______ _______ _____ _____    ______ ____

>  <TORSDO>
F 8

$$$$
=
 OpenBabel10272414183D

 43 49  0  0  1  0  0  0  0  0999 V2000
  190.6020  176.9260  146.4410 C   0  0  0  0  0  0  0  0  0  0  0  0
  188.7220  178.1340  141.9200 C   0  0  0  0  0  0  0  0  0  0  0  0
  185.9280  178.3360  142.1910 C   0  0  0  0  0  0  0  0  0  0  0  0
  190.3270  177.4870  144.1020 C   0  0  0  0  0  0  0  0  0  0  0  0
  189.2190  177.0110  146.6270 C   0  0  0  0  0  3  0  0  0  0  0  0
  191.4860  176.5810  147.5850 C   0  0  0  0  0  1  0  0  0  0  0  0
  188.9270  177.5770  144.2800 C   0  0  0  0  0  0  0  0  0  0  0  0
  191.1560  177.1650  145.1790 C   0  0  0  0  0  3  0  0  0  0  0  0
  188.3850  177.3350  145.5540 C   0  0  0  0  0  3  0  0  0  0  0  0
  186.7210  178.0110  143.2980 C   0  0  0  0  0  3  0  0  0  0  0  0
  188.1130  177.9050  143.1780 C   0  0  0  0  0  0  0  0  0  0  0  0
  190.0740  178.0340  141.7930 N   0  0  0  0  0  0  0  0  0  0  0  0
  187.9370  178.4660  140.8050 C   0  0  0  0  0  0  0  0  0  0  0  0
  186.5460  178.5580  140.9540 C   0  0  0  0  0  3  0  0  0  0  0  0
  190.8770  177.7200  142.8430 C   0  0  0  0  0  3  0  0  0  0  0  0
  184.5020  178.4420  142.3230 N   0  0  0  0  0  0  0  0  0  0  0  0
  183.5660  177.6830  141.5180 C   0  0  0  0  0  2  0  0  0  0  0  0
  183.8490  179.3310  143.2640 C   0  0  0  0  0  2  0  0  0  0  0  0
  182.1900  178.0180  142.0580 C   0  0  1  0  0  3  0  0  0  0  0  0
  182.3660  179.2350  142.9610 C   0  0  0  0  0  2  0  0  0  0  0  0
  181.2510  178.3370  140.9070 C   0  0  0  0  0  2  0  0  0  0  0  0
  181.4970  179.7470  140.3690 C   0  0  2  0  0  3  0  0  0  0  0  0
  181.8330  181.1960  138.4650 C   0  0  0  0  0  2  0  0  0  0  0  0
  179.9820  180.7570  140.4140 S   0  0  0  0  0  0  0  0  0  0  0  0
  182.0720  179.7820  138.9560 C   0  0  1  0  0  0  0  0  0  0  0  0
  183.5660  179.5150  139.0160 C   0  0  0  0  0  1  0  0  0  0  0  0
  180.4270  181.6060  138.8650 C   0  0  0  0  0  2  0  0  0  0  0  0
  181.3800  178.7690  138.0270 C   0  0  0  0  0  2  0  0  0  0  0  0
  182.3380  177.8460  137.4350 N   0  0  0  0  0  0  0  0  0  0  0  0
  183.0320  176.9440  135.2750 C   0  0  0  0  0  3  0  0  0  0  0  0
  182.8720  175.4830  137.1920 C   0  0  0  0  0  2  0  0  0  0  0  0
  183.2580  175.8000  135.8270 N   0  0  0  0  0  0  0  0  0  0  0  0
  181.8740  176.4980  137.7490 C   0  0  0  0  0  2  0  0  0  0  0  0
  182.2460  178.0150  135.9870 C   0  0  0  0  0  2  0  0  0  0  0  0
  188.5730  178.6720  139.5660 O   0  0  0  0  0  0  0  0  0  0  0  0
  188.9310  175.9920  136.9890 C   0  0  0  0  0  3  0  0  0  0  0  0
  188.0040  176.4360  136.0420 C   0  0  0  0  0  0  0  0  0  0  0  0
  187.4950  178.3460  137.4400 C   0  0  0  0  0  3  0  0  0  0  0  0
  189.1350  176.7230  138.1620 C   0  0  0  0  0  3  0  0  0  0  0  0
  188.4200  177.9100  138.3960 C   0  0  0  0  0  0  0  0  0  0  0  0
  187.2900  177.6160  136.2660 C   0  0  0  0  0  3  0  0  0  0  0  0
  186.5690  175.0180  134.8200 O   0  0  0  0  0  1  0  0  0  0  0  0
  187.8010  175.6700  134.7820 C   0  0  0  0  0  2  0  0  0  0  0  0
  1  5  1  0  0  0  0
  1  6  1  0  0  0  0
  2 11  1  0  0  0  0
  3 16  1  0  0  0  0
  3 10  1  0  0  0  0
  4  7  2  0  0  0  0
  4  8  1  0  0  0  0
  7  9  1  0  0  0  0
  8  1  2  0  0  0  0
  9  5  2  0  0  0  0
 11 10  2  0  0  0  0
 11  7  1  0  0  0  0
 12  2  1  0  0  0  0
 12 15  2  0  0  0  0
 13 14  1  0  0  0  0
 13  2  2  0  0  0  0
 14  3  2  0  0  0  0
 15  4  1  0  0  0  0
 16 18  1  0  0  0  0
 17 19  1  0  0  0  0
 17 16  1  0  0  0  0
 19 21  1  6  0  0  0
 19 20  1  0  0  0  0
 20 18  1  0  0  0  0
 22 24  1  0  0  0  0
 22 21  1  6  0  0  0
 23 27  1  0  0  0  0
 23 25  1  0  0  0  0
 25 26  1  1  0  0  0
 25 22  1  0  0  0  0
 27 24  1  0  0  0  0
 28 25  1  0  0  0  0
 29 33  1  0  0  0  0
 29 28  1  0  0  0  0
 30 32  2  0  0  0  0
 30 34  1  0  0  0  0
 31 33  1  0  0  0  0
 32 31  1  0  0  0  0
 34 29  1  0  0  0  0
 35 13  1  0  0  0  0
 36 39  1  0  0  0  0
 37 41  1  0  0  0  0
 37 36  2  0  0  0  0
 38 40  1  0  0  0  0
 39 40  2  0  0  0  0
 40 35  1  0  0  0  0
 41 38  2  0  0  0  0
 43 42  1  0  0  0  0
 43 37  1  0  0  0  0
M  END
>  <MODEL>
4

>  <REMARK>
 VINA RESULT:      -8.9      4.485      8.968
  Name = 
  8 active torsions:
  status: ('A' for Active; 'I' for Inactive)
    1  A    between atoms: O_1  and  C_34
    2  A    between atoms: O_1  and  C_35
    3  A    between atoms: N_2  and  C_13
    4  A    between atoms: C_3  and  C_4
    5  A    between atoms: C_3  and  C_12
    6  A    between atoms: N_11  and  C_14
    7  A    between atoms: C_14  and  C_22
    8  A    between atoms: C_19  and  C_37
                            x       y       z     vdW  Elec       q    Type
                         _______ _______ _______ _____ _____    ______ ____

>  <TORSDO>
F 8

$$$$
=
 OpenBabel10272414183D

 43 49  0  0  1  0  0  0  0  0999 V2000
  188.1450  177.6500  147.0110 C   0  0  0  0  0  0  0  0  0  0  0  0
  185.6750  178.5570  142.7080 C   0  0  0  0  0  0  0  0  0  0  0  0
  187.5000  178.2020  140.5950 C   0  0  0  0  0  0  0  0  0  0  0  0
  186.4640  178.1900  145.3530 C   0  0  0  0  0  0  0  0  0  0  0  0
  189.0890  177.4640  145.9970 C   0  0  0  0  0  3  0  0  0  0  0  0
  188.5340  177.4630  148.4330 C   0  0  0  0  0  1  0  0  0  0  0  0
  187.4120  178.0030  144.3210 C   0  0  0  0  0  0  0  0  0  0  0  0
  186.8330  178.0110  146.6890 C   0  0  0  0  0  3  0  0  0  0  0  0
  188.7270  177.6390  144.6590 C   0  0  0  0  0  3  0  0  0  0  0  0
  187.9110  178.0130  141.9190 C   0  0  0  0  0  3  0  0  0  0  0  0
  187.0150  178.1870  142.9820 C   0  0  0  0  0  0  0  0  0  0  0  0
  184.7970  178.7290  143.7340 N   0  0  0  0  0  0  0  0  0  0  0  0
  185.2500  178.7440  141.3840 C   0  0  0  0  0  0  0  0  0  0  0  0
  186.1720  178.5690  140.3410 C   0  0  0  0  0  3  0  0  0  0  0  0
  185.1590  178.5550  145.0310 C   0  0  0  0  0  3  0  0  0  0  0  0
  188.4250  178.0210  139.5110 N   0  0  0  0  0  0  0  0  0  0  0  0
  188.1790  178.4930  138.1620 C   0  0  0  0  0  2  0  0  0  0  0  0
  189.6940  177.3340  139.6480 C   0  0  0  0  0  2  0  0  0  0  0  0
  189.4430  178.1910  137.3830 C   0  0  1  0  0  3  0  0  0  0  0  0
  190.2660  177.2410  138.2470 C   0  0  0  0  0  2  0  0  0  0  0  0
  189.0850  177.5370  136.0600 C   0  0  0  0  0  2  0  0  0  0  0  0
  189.5390  176.0770  136.0250 C   0  0  2  0  0  3  0  0  0  0  0  0
  189.0840  173.7920  135.3840 C   0  0  0  0  0  2  0  0  0  0  0  0
  190.8130  175.7990  134.7530 S   0  0  0  0  0  0  0  0  0  0  0  0
  188.4050  175.0780  135.8140 C   0  0  1  0  0  0  0  0  0  0  0  0
  187.6850  174.8510  137.1320 C   0  0  0  0  0  1  0  0  0  0  0  0
  190.1630  174.1400  134.3760 C   0  0  0  0  0  2  0  0  0  0  0  0
  187.4150  175.5480  134.7340 C   0  0  0  0  0  2  0  0  0  0  0  0
  186.0420  175.5160  135.2160 N   0  0  0  0  0  0  0  0  0  0  0  0
  183.8320  174.6680  134.6200 C   0  0  0  0  0  3  0  0  0  0  0  0
  184.0590  176.8910  135.5400 C   0  0  0  0  0  2  0  0  0  0  0  0
  183.2920  175.7310  135.1160 N   0  0  0  0  0  0  0  0  0  0  0  0
  185.4900  176.8500  135.0040 C   0  0  0  0  0  2  0  0  0  0  0  0
  185.3120  174.5970  134.3470 C   0  0  0  0  0  2  0  0  0  0  0  0
  183.9170  179.1260  141.1480 O   0  0  0  0  0  0  0  0  0  0  0  0
  181.0350  178.4090  138.8830 C   0  0  0  0  0  3  0  0  0  0  0  0
  181.1420  177.0190  138.7820 C   0  0  0  0  0  0  0  0  0  0  0  0
  183.0610  177.0620  140.2570 C   0  0  0  0  0  3  0  0  0  0  0  0
  181.9450  179.1230  139.6660 C   0  0  0  0  0  3  0  0  0  0  0  0
  182.9650  178.4540  140.3640 C   0  0  0  0  0  0  0  0  0  0  0  0
  182.1520  176.3450  139.4740 C   0  0  0  0  0  3  0  0  0  0  0  0
  180.7690  175.1130  137.4430 O   0  0  0  0  0  1  0  0  0  0  0  0
  180.1600  176.2540  137.9650 C   0  0  0  0  0  2  0  0  0  0  0  0
  1  6  1  0  0  0  0
  2 11  1  0  0  0  0
  2 12  1  0  0  0  0
  3 10  1  0  0  0  0
  4  8  2  0  0  0  0
  5  1  2  0  0  0  0
  7  9  2  0  0  0  0
  7  4  1  0  0  0  0
  8  1  1  0  0  0  0
  9  5  1  0  0  0  0
 10 11  2  0  0  0  0
 11  7  1  0  0  0  0
 12 15  2  0  0  0  0
 13  2  2  0  0  0  0
 14  3  2  0  0  0  0
 14 13  1  0  0  0  0
 15  4  1  0  0  0  0
 16 18  1  0  0  0  0
 16  3  1  0  0  0  0
 17 16  1  0  0  0  0
 19 21  1  6  0  0  0
 19 17  1  0  0  0  0
 19 20  1  0  0  0  0
 20 18  1  0  0  0  0
 22 21  1  6  0  0  0
 23 25  1  0  0  0  0
 24 22  1  0  0  0  0
 25 22  1  0  0  0  0
 25 26  1  1  0  0  0
 27 24  1  0  0  0  0
 27 23  1  0  0  0  0
 28 29  1  0  0  0  0
 28 25  1  0  0  0  0
 30 32  2  0  0  0  0
 32 31  1  0  0  0  0
 33 29  1  0  0  0  0
 33 31  1  0  0  0  0
 34 30  1  0  0  0  0
 34 29  1  0  0  0  0
 35 13  1  0  0  0  0
 36 39  1  0  0  0  0
 37 36  2  0  0  0  0
 37 41  1  0  0  0  0
 38 40  1  0  0  0  0
 39 40  2  0  0  0  0
 40 35  1  0  0  0  0
 41 38  2  0  0  0  0
 42 43  1  0  0  0  0
 43 37  1  0  0  0  0
M  END
>  <MODEL>
5

>  <REMARK>
 VINA RESULT:      -8.8      3.439      5.350
  Name = 
  8 active torsions:
  status: ('A' for Active; 'I' for Inactive)
    1  A    between atoms: O_1  and  C_34
    2  A    between atoms: O_1  and  C_35
    3  A    between atoms: N_2  and  C_13
    4  A    between atoms: C_3  and  C_4
    5  A    between atoms: C_3  and  C_12
    6  A    between atoms: N_11  and  C_14
    7  A    between atoms: C_14  and  C_22
    8  A    between atoms: C_19  and  C_37
                            x       y       z     vdW  Elec       q    Type
                         _______ _______ _______ _____ _____    ______ ____

>  <TORSDO>
F 8

$$$$
=
 OpenBabel10272414183D

 43 49  0  0  1  0  0  0  0  0999 V2000
  187.8260  177.5570  146.7650 C   0  0  0  0  0  0  0  0  0  0  0  0
  188.4160  178.0800  141.7840 C   0  0  0  0  0  0  0  0  0  0  0  0
  185.8580  178.4130  140.6590 C   0  0  0  0  0  0  0  0  0  0  0  0
  188.7370  177.7410  144.5300 C   0  0  0  0  0  0  0  0  0  0  0  0
  186.5340  177.7160  146.2550 C   0  0  0  0  0  3  0  0  0  0  0  0
  188.0310  177.3730  148.2260 C   0  0  0  0  0  1  0  0  0  0  0  0
  187.4340  177.9040  144.0040 C   0  0  0  0  0  0  0  0  0  0  0  0
  188.9270  177.5710  145.9030 C   0  0  0  0  0  3  0  0  0  0  0  0
  186.3380  177.8890  144.8830 C   0  0  0  0  0  3  0  0  0  0  0  0
  186.0030  178.2450  142.0410 C   0  0  0  0  0  3  0  0  0  0  0  0
  187.2690  178.0770  142.6160 C   0  0  0  0  0  0  0  0  0  0  0  0
  189.6520  177.9170  142.3330 N   0  0  0  0  0  0  0  0  0  0  0  0
  188.2830  178.2530  140.3980 C   0  0  0  0  0  0  0  0  0  0  0  0
  187.0020  178.4130  139.8510 C   0  0  0  0  0  3  0  0  0  0  0  0
  189.8320  177.7500  143.6680 C   0  0  0  0  0  3  0  0  0  0  0  0
  184.5560  178.5860  140.0790 N   0  0  0  0  0  0  0  0  0  0  0  0
  183.5560  177.5360  140.0300 C   0  0  0  0  0  2  0  0  0  0  0  0
  184.1100  179.8220  139.4660 C   0  0  0  0  0  2  0  0  0  0  0  0
  182.3150  178.1770  139.4420 C   0  0  1  0  0  3  0  0  0  0  0  0
  182.7550  179.5150  138.8580 C   0  0  0  0  0  2  0  0  0  0  0  0
  181.7430  177.2810  138.3560 C   0  0  0  0  0  2  0  0  0  0  0  0
  182.0360  177.8440  136.9660 C   0  0  2  0  0  3  0  0  0  0  0  0
  182.8220  177.4640  134.7130 C   0  0  0  0  0  2  0  0  0  0  0  0
  180.5090  178.0930  136.0050 S   0  0  0  0  0  0  0  0  0  0  0  0
  183.0040  176.9970  136.1440 C   0  0  1  0  0  0  0  0  0  0  0  0
  184.4260  177.2850  136.5910 C   0  0  0  0  0  1  0  0  0  0  0  0
  181.3350  177.6240  134.4510 C   0  0  0  0  0  2  0  0  0  0  0  0
  182.6970  175.4940  136.2600 C   0  0  0  0  0  2  0  0  0  0  0  0
  183.9160  174.7070  136.3810 N   0  0  0  0  0  0  0  0  0  0  0  0
  185.1120  172.8690  135.3090 C   0  0  0  0  0  3  0  0  0  0  0  0
  184.9970  172.9850  137.7200 C   0  0  0  0  0  2  0  0  0  0  0  0
  185.5040  172.4510  136.4660 N   0  0  0  0  0  0  0  0  0  0  0  0
  183.7240  173.8050  137.5130 C   0  0  0  0  0  2  0  0  0  0  0  0
  184.0080  173.8860  135.1770 C   0  0  0  0  0  2  0  0  0  0  0  0
  189.4410  178.2350  139.5990 O   0  0  0  0  0  0  0  0  0  0  0  0
  189.5090  176.5910  136.2460 C   0  0  0  0  0  3  0  0  0  0  0  0
  190.4260  175.5650  136.4930 C   0  0  0  0  0  0  0  0  0  0  0  0
  190.6500  176.3210  138.7820 C   0  0  0  0  0  3  0  0  0  0  0  0
  189.1690  177.4830  137.2650 C   0  0  0  0  0  3  0  0  0  0  0  0
  189.7340  177.3530  138.5450 C   0  0  0  0  0  0  0  0  0  0  0  0
  190.9920  175.4270  137.7630 C   0  0  0  0  0  3  0  0  0  0  0  0
  189.6190  173.9690  134.9550 O   0  0  0  0  0  1  0  0  0  0  0  0
  190.7740  174.6000  135.4140 C   0  0  0  0  0  2  0  0  0  0  0  0
  1  6  1  0  0  0  0
  2 12  1  0  0  0  0
  2 11  1  0  0  0  0
  3 10  1  0  0  0  0
  4  8  1  0  0  0  0
  5  1  1  0  0  0  0
  7  4  2  0  0  0  0
  7  9  1  0  0  0  0
  8  1  2  0  0  0  0
  9  5  2  0  0  0  0
 10 11  2  0  0  0  0
 11  7  1  0  0  0  0
 12 15  2  0  0  0  0
 13  2  2  0  0  0  0
 14 13  1  0  0  0  0
 14  3  2  0  0  0  0
 15  4  1  0  0  0  0
 16  3  1  0  0  0  0
 17 16  1  0  0  0  0
 18 16  1  0  0  0  0
 19 21  1  6  0  0  0
 19 17  1  0  0  0  0
 20 19  1  0  0  0  0
 20 18  1  0  0  0  0
 22 21  1  1  0  0  0
 23 25  1  0  0  0  0
 24 22  1  0  0  0  0
 25 28  1  0  0  0  0
 25 26  1  1  0  0  0
 25 22  1  0  0  0  0
 27 23  1  0  0  0  0
 27 24  1  0  0  0  0
 28 29  1  0  0  0  0
 29 33  1  0  0  0  0
 30 32  2  0  0  0  0
 32 31  1  0  0  0  0
 33 31  1  0  0  0  0
 34 30  1  0  0  0  0
 34 29  1  0  0  0  0
 35 13  1  0  0  0  0
 36 37  2  0  0  0  0
 36 39  1  0  0  0  0
 37 41  1  0  0  0  0
 39 40  2  0  0  0  0
 40 38  1  0  0  0  0
 40 35  1  0  0  0  0
 41 38  2  0  0  0  0
 42 43  1  0  0  0  0
 43 37  1  0  0  0  0
M  END
>  <MODEL>
6

>  <REMARK>
 VINA RESULT:      -8.7      3.807      8.071
  Name = 
  8 active torsions:
  status: ('A' for Active; 'I' for Inactive)
    1  A    between atoms: O_1  and  C_34
    2  A    between atoms: O_1  and  C_35
    3  A    between atoms: N_2  and  C_13
    4  A    between atoms: C_3  and  C_4
    5  A    between atoms: C_3  and  C_12
    6  A    between atoms: N_11  and  C_14
    7  A    between atoms: C_14  and  C_22
    8  A    between atoms: C_19  and  C_37
                            x       y       z     vdW  Elec       q    Type
                         _______ _______ _______ _____ _____    ______ ____

>  <TORSDO>
F 8

$$$$
=
 OpenBabel10272414183D

 43 49  0  0  1  0  0  0  0  0999 V2000
  191.2300  176.5320  146.9150 C   0  0  0  0  0  0  0  0  0  0  0  0
  189.4010  177.7420  142.3740 C   0  0  0  0  0  0  0  0  0  0  0  0
  186.6310  178.1510  142.6590 C   0  0  0  0  0  0  0  0  0  0  0  0
  190.9750  177.0440  144.5620 C   0  0  0  0  0  0  0  0  0  0  0  0
  189.8590  176.7210  147.1080 C   0  0  0  0  0  3  0  0  0  0  0  0
  192.0980  176.1570  148.0620 C   0  0  0  0  0  1  0  0  0  0  0  0
  189.5870  177.2390  144.7480 C   0  0  0  0  0  0  0  0  0  0  0  0
  191.7880  176.6940  145.6430 C   0  0  0  0  0  3  0  0  0  0  0  0
  189.0400  177.0740  146.0320 C   0  0  0  0  0  3  0  0  0  0  0  0
  187.4090  177.8020  143.7690 C   0  0  0  0  0  3  0  0  0  0  0  0
  188.7890  177.5930  143.6430 C   0  0  0  0  0  0  0  0  0  0  0  0
  190.7410  177.5420  142.2410 N   0  0  0  0  0  0  0  0  0  0  0  0
  188.6320  178.0980  141.2550 C   0  0  0  0  0  0  0  0  0  0  0  0
  187.2520  178.2930  141.4110 C   0  0  0  0  0  3  0  0  0  0  0  0
  191.5290  177.2010  143.2940 C   0  0  0  0  0  3  0  0  0  0  0  0
  185.2170  178.3630  142.7970 N   0  0  0  0  0  0  0  0  0  0  0  0
  184.2760  178.2140  141.7050 C   0  0  0  0  0  2  0  0  0  0  0  0
  184.5860  178.7640  144.0390 C   0  0  0  0  0  2  0  0  0  0  0  0
  182.9030  178.4210  142.3130 C   0  0  1  0  0  3  0  0  0  0  0  0
  183.1300  179.0180  143.6980 C   0  0  0  0  0  2  0  0  0  0  0  0
  182.0970  179.3730  141.4460 C   0  0  0  0  0  2  0  0  0  0  0  0
  180.9650  178.6400  140.7260 C   0  0  2  0  0  3  0  0  0  0  0  0
  180.2850  177.0610  139.0280 C   0  0  0  0  0  2  0  0  0  0  0  0
  180.2860  177.2900  141.7420 S   0  0  0  0  0  0  0  0  0  0  0  0
  181.3560  178.0820  139.3610 C   0  0  1  0  0  0  0  0  0  0  0  0
  181.3220  179.1990  138.3330 C   0  0  0  0  0  1  0  0  0  0  0  0
  180.0040  176.2450  140.2770 C   0  0  0  0  0  2  0  0  0  0  0  0
  182.7420  177.4140  139.3850 C   0  0  0  0  0  2  0  0  0  0  0  0
  183.1590  176.9980  138.0540 N   0  0  0  0  0  0  0  0  0  0  0  0
  184.0040  175.0550  136.8410 C   0  0  0  0  0  3  0  0  0  0  0  0
  184.9310  177.2430  136.4020 C   0  0  0  0  0  2  0  0  0  0  0  0
  184.7450  175.8290  136.1210 N   0  0  0  0  0  0  0  0  0  0  0  0
  184.4640  177.6060  137.8120 C   0  0  0  0  0  2  0  0  0  0  0  0
  183.3530  175.5510  138.1060 C   0  0  0  0  0  2  0  0  0  0  0  0
  189.2690  178.2210  140.0070 O   0  0  0  0  0  0  0  0  0  0  0  0
  188.4210  175.9730  137.1480 C   0  0  0  0  0  3  0  0  0  0  0  0
  189.6480  175.3260  136.9710 C   0  0  0  0  0  0  0  0  0  0  0  0
  190.5780  176.5960  138.8100 C   0  0  0  0  0  3  0  0  0  0  0  0
  188.2770  176.9320  138.1520 C   0  0  0  0  0  3  0  0  0  0  0  0
  189.3550  177.2500  138.9960 C   0  0  0  0  0  0  0  0  0  0  0  0
  190.7240  175.6340  137.8060 C   0  0  0  0  0  3  0  0  0  0  0  0
  190.4150  173.1570  136.4500 O   0  0  0  0  0  1  0  0  0  0  0  0
  189.7970  174.2870  135.9160 C   0  0  0  0  0  2  0  0  0  0  0  0
  1  5  1  0  0  0  0
  1  6  1  0  0  0  0
  2 11  1  0  0  0  0
  3 16  1  0  0  0  0
  3 10  1  0  0  0  0
  4  7  2  0  0  0  0
  4  8  1  0  0  0  0
  7  9  1  0  0  0  0
  8  1  2  0  0  0  0
  9  5  2  0  0  0  0
 11 10  2  0  0  0  0
 11  7  1  0  0  0  0
 12  2  1  0  0  0  0
 12 15  2  0  0  0  0
 13 14  1  0  0  0  0
 13  2  2  0  0  0  0
 14  3  2  0  0  0  0
 15  4  1  0  0  0  0
 16 18  1  0  0  0  0
 17 19  1  0  0  0  0
 17 16  1  0  0  0  0
 19 21  1  6  0  0  0
 19 20  1  0  0  0  0
 20 18  1  0  0  0  0
 22 21  1  1  0  0  0
 22 24  1  0  0  0  0
 23 25  1  0  0  0  0
 23 27  1  0  0  0  0
 25 26  1  6  0  0  0
 25 28  1  0  0  0  0
 25 22  1  0  0  0  0
 27 24  1  0  0  0  0
 29 34  1  0  0  0  0
 29 28  1  0  0  0  0
 30 34  1  0  0  0  0
 31 33  1  0  0  0  0
 32 31  1  0  0  0  0
 32 30  2  0  0  0  0
 33 29  1  0  0  0  0
 35 13  1  0  0  0  0
 36 39  1  0  0  0  0
 37 36  2  0  0  0  0
 37 41  1  0  0  0  0
 38 40  1  0  0  0  0
 39 40  2  0  0  0  0
 40 35  1  0  0  0  0
 41 38  2  0  0  0  0
 43 42  1  0  0  0  0
 43 37  1  0  0  0  0
M  END
>  <MODEL>
7

>  <REMARK>
 VINA RESULT:      -8.7      3.941      8.786
  Name = 
  8 active torsions:
  status: ('A' for Active; 'I' for Inactive)
    1  A    between atoms: O_1  and  C_34
    2  A    between atoms: O_1  and  C_35
    3  A    between atoms: N_2  and  C_13
    4  A    between atoms: C_3  and  C_4
    5  A    between atoms: C_3  and  C_12
    6  A    between atoms: N_11  and  C_14
    7  A    between atoms: C_14  and  C_22
    8  A    between atoms: C_19  and  C_37
                            x       y       z     vdW  Elec       q    Type
                         _______ _______ _______ _____ _____    ______ ____

>  <TORSDO>
F 8

$$$$
=
 OpenBabel10272414183D

 43 49  0  0  1  0  0  0  0  0999 V2000
  189.0550  177.4340  146.5070 C   0  0  0  0  0  0  0  0  0  0  0  0
  190.5670  177.3880  141.6960 C   0  0  0  0  0  0  0  0  0  0  0  0
  188.3040  177.8700  140.0940 C   0  0  0  0  0  0  0  0  0  0  0  0
  190.3590  177.2960  144.4720 C   0  0  0  0  0  0  0  0  0  0  0  0
  187.9010  177.6740  145.7550 C   0  0  0  0  0  3  0  0  0  0  0  0
  188.9780  177.3780  147.9900 C   0  0  0  0  0  1  0  0  0  0  0  0
  189.1970  177.5400  143.7020 C   0  0  0  0  0  0  0  0  0  0  0  0
  190.2830  177.2460  145.8660 C   0  0  0  0  0  3  0  0  0  0  0  0
  187.9700  177.7280  144.3610 C   0  0  0  0  0  3  0  0  0  0  0  0
  188.1830  177.8280  141.4880 C   0  0  0  0  0  3  0  0  0  0  0  0
  189.3000  177.5880  142.2990 C   0  0  0  0  0  0  0  0  0  0  0  0
  191.6580  177.1530  142.4750 N   0  0  0  0  0  0  0  0  0  0  0  0
  190.7000  177.4330  140.3000 C   0  0  0  0  0  0  0  0  0  0  0  0
  189.5630  177.6690  139.5140 C   0  0  0  0  0  3  0  0  0  0  0  0
  191.5810  177.1040  143.8310 C   0  0  0  0  0  3  0  0  0  0  0  0
  187.1530  178.1180  139.2700 N   0  0  0  0  0  0  0  0  0  0  0  0
  185.8540  178.4810  139.7990 C   0  0  0  0  0  2  0  0  0  0  0  0
  187.1680  178.0150  137.8240 C   0  0  0  0  0  2  0  0  0  0  0  0
  184.9780  178.7520  138.5920 C   0  0  1  0  0  3  0  0  0  0  0  0
  185.7290  178.2050  137.3830 C   0  0  0  0  0  2  0  0  0  0  0  0
  183.6440  178.0440  138.7590 C   0  0  0  0  0  2  0  0  0  0  0  0
  182.5680  178.6800  137.8790 C   0  0  2  0  0  3  0  0  0  0  0  0
  180.6000  178.4020  136.5050 C   0  0  0  0  0  2  0  0  0  0  0  0
  181.3090  179.5420  138.8740 S   0  0  0  0  0  0  0  0  0  0  0  0
  181.8700  177.6980  136.9430 C   0  0  1  0  0  0  0  0  0  0  0  0
  182.7500  177.4470  135.7310 C   0  0  0  0  0  1  0  0  0  0  0  0
  179.9820  179.0660  137.7220 C   0  0  0  0  0  2  0  0  0  0  0  0
  181.5310  176.3720  137.6460 C   0  0  0  0  0  2  0  0  0  0  0  0
  182.0710  175.2300  136.9220 N   0  0  0  0  0  0  0  0  0  0  0  0
  181.5170  172.9380  136.2910 C   0  0  0  0  0  3  0  0  0  0  0  0
  183.7530  173.4730  137.0320 C   0  0  0  0  0  2  0  0  0  0  0  0
  182.7530  172.5990  136.4410 N   0  0  0  0  0  0  0  0  0  0  0  0
  183.1130  174.6520  137.7650 C   0  0  0  0  0  2  0  0  0  0  0  0
  180.9940  174.2480  136.8220 C   0  0  0  0  0  2  0  0  0  0  0  0
  191.9690  177.2140  139.7340 O   0  0  0  0  0  0  0  0  0  0  0  0
  193.7080  175.8430  136.7260 C   0  0  0  0  0  3  0  0  0  0  0  0
  192.8050  174.8430  136.3540 C   0  0  0  0  0  0  0  0  0  0  0  0
  191.3740  175.4500  138.2100 C   0  0  0  0  0  3  0  0  0  0  0  0
  193.4450  176.6400  137.8410 C   0  0  0  0  0  3  0  0  0  0  0  0
  192.2720  176.4530  138.5920 C   0  0  0  0  0  0  0  0  0  0  0  0
  191.6350  174.6510  137.0930 C   0  0  0  0  0  3  0  0  0  0  0  0
  194.4090  173.6080  135.1430 O   0  0  0  0  0  1  0  0  0  0  0  0
  193.0730  174.0060  135.1530 C   0  0  0  0  0  2  0  0  0  0  0  0
  1  6  1  0  0  0  0
  2 11  1  0  0  0  0
  2 12  1  0  0  0  0
  3 10  1  0  0  0  0
  4  8  2  0  0  0  0
  5  1  2  0  0  0  0
  7  9  2  0  0  0  0
  7  4  1  0  0  0  0
  8  1  1  0  0  0  0
  9  5  1  0  0  0  0
 10 11  2  0  0  0  0
 11  7  1  0  0  0  0
 12 15  2  0  0  0  0
 13  2  2  0  0  0  0
 14  3  2  0  0  0  0
 14 13  1  0  0  0  0
 15  4  1  0  0  0  0
 16 17  1  0  0  0  0
 16  3  1  0  0  0  0
 18 16  1  0  0  0  0
 19 21  1  1  0  0  0
 19 17  1  0  0  0  0
 20 18  1  0  0  0  0
 20 19  1  0  0  0  0
 22 21  1  1  0  0  0
 22 24  1  0  0  0  0
 23 25  1  0  0  0  0
 23 27  1  0  0  0  0
 25 26  1  6  0  0  0
 25 28  1  0  0  0  0
 25 22  1  0  0  0  0
 27 24  1  0  0  0  0
 29 28  1  0  0  0  0
 29 33  1  0  0  0  0
 30 32  2  0  0  0  0
 30 34  1  0  0  0  0
 31 33  1  0  0  0  0
 32 31  1  0  0  0  0
 34 29  1  0  0  0  0
 35 13  1  0  0  0  0
 36 39  1  0  0  0  0
 37 36  2  0  0  0  0
 37 41  1  0  0  0  0
 38 40  1  0  0  0  0
 39 40  2  0  0  0  0
 40 35  1  0  0  0  0
 41 38  2  0  0  0  0
 42 43  1  0  0  0  0
 43 37  1  0  0  0  0
M  END
>  <MODEL>
8

>  <REMARK>
 VINA RESULT:      -8.2      3.742      9.222
  Name = 
  8 active torsions:
  status: ('A' for Active; 'I' for Inactive)
    1  A    between atoms: O_1  and  C_34
    2  A    between atoms: O_1  and  C_35
    3  A    between atoms: N_2  and  C_13
    4  A    between atoms: C_3  and  C_4
    5  A    between atoms: C_3  and  C_12
    6  A    between atoms: N_11  and  C_14
    7  A    between atoms: C_14  and  C_22
    8  A    between atoms: C_19  and  C_37
                            x       y       z     vdW  Elec       q    Type
                         _______ _______ _______ _____ _____    ______ ____

>  <TORSDO>
F 8

$$$$
=
 OpenBabel10272414183D

 43 49  0  0  1  0  0  0  0  0999 V2000
  187.7000  177.6390  147.3070 C   0  0  0  0  0  0  0  0  0  0  0  0
  186.2940  178.6450  142.5690 C   0  0  0  0  0  0  0  0  0  0  0  0
  188.3670  177.7840  140.8710 C   0  0  0  0  0  0  0  0  0  0  0  0
  186.4940  178.3500  145.3310 C   0  0  0  0  0  0  0  0  0  0  0  0
  188.7570  177.1980  146.5060 C   0  0  0  0  0  3  0  0  0  0  0  0
  187.7770  177.4980  148.7840 C   0  0  0  0  0  1  0  0  0  0  0  0
  187.5590  177.9060  144.5130 C   0  0  0  0  0  0  0  0  0  0  0  0
  186.5690  178.2140  146.7200 C   0  0  0  0  0  3  0  0  0  0  0  0
  188.6890  177.3290  145.1170 C   0  0  0  0  0  3  0  0  0  0  0  0
  188.4820  177.6280  142.2570 C   0  0  0  0  0  3  0  0  0  0  0  0
  187.4590  178.0530  143.1160 C   0  0  0  0  0  0  0  0  0  0  0  0
  185.2950  179.0610  143.3950 N   0  0  0  0  0  0  0  0  0  0  0  0
  186.1650  178.8010  141.1800 C   0  0  0  0  0  0  0  0  0  0  0  0
  187.2090  178.3720  140.3470 C   0  0  0  0  0  3  0  0  0  0  0  0
  185.3710  178.9280  144.7450 C   0  0  0  0  0  3  0  0  0  0  0  0
  189.4200  177.3450  139.9980 N   0  0  0  0  0  0  0  0  0  0  0  0
  189.1950  176.5230  138.8250 C   0  0  0  0  0  2  0  0  0  0  0  0
  190.8180  177.6640  140.2070 C   0  0  0  0  0  2  0  0  0  0  0  0
  190.5450  176.3940  138.1480 C   0  0  1  0  0  3  0  0  0  0  0  0
  191.5810  176.8830  139.1540 C   0  0  0  0  0  2  0  0  0  0  0  0
  190.7970  174.9400  137.7840 C   0  0  0  0  0  2  0  0  0  0  0  0
  190.1910  174.5990  136.4230 C   0  0  2  0  0  3  0  0  0  0  0  0
  190.3490  173.3740  134.3460 C   0  0  0  0  0  2  0  0  0  0  0  0
  188.7950  173.4410  136.5800 S   0  0  0  0  0  0  0  0  0  0  0  0
  191.1930  174.0310  135.4220 C   0  0  1  0  0  0  0  0  0  0  0  0
  191.9920  175.1690  134.8110 C   0  0  0  0  0  1  0  0  0  0  0  0
  189.2330  172.6020  135.0240 C   0  0  0  0  0  2  0  0  0  0  0  0
  192.1340  172.9980  136.0680 C   0  0  0  0  0  2  0  0  0  0  0  0
  193.3350  172.7970  135.2720 N   0  0  0  0  0  0  0  0  0  0  0  0
  194.8120  171.0300  134.4630 C   0  0  0  0  0  3  0  0  0  0  0  0
  195.7510  173.1000  135.2800 C   0  0  0  0  0  2  0  0  0  0  0  0
  195.8270  171.8130  134.6090 N   0  0  0  0  0  0  0  0  0  0  0  0
  194.4600  173.2430  136.0870 C   0  0  0  0  0  2  0  0  0  0  0  0
  193.4760  171.3560  135.0800 C   0  0  0  0  0  2  0  0  0  0  0  0
  185.0020  179.4070  140.6720 O   0  0  0  0  0  0  0  0  0  0  0  0
  182.2700  178.8000  138.1980 C   0  0  0  0  0  3  0  0  0  0  0  0
  181.9790  177.4620  138.4770 C   0  0  0  0  0  0  0  0  0  0  0  0
  183.6760  177.4550  140.2040 C   0  0  0  0  0  3  0  0  0  0  0  0
  183.2670  179.4620  138.9190 C   0  0  0  0  0  3  0  0  0  0  0  0
  183.9770  178.7950  139.9320 C   0  0  0  0  0  0  0  0  0  0  0  0
  182.6790  176.7910  139.4840 C   0  0  0  0  0  3  0  0  0  0  0  0
  180.7570  175.4620  138.2090 O   0  0  0  0  0  1  0  0  0  0  0  0
  180.9030  176.7610  137.7250 C   0  0  0  0  0  2  0  0  0  0  0  0
  1  6  1  0  0  0  0
  2 11  1  0  0  0  0
  2 12  1  0  0  0  0
  3 10  1  0  0  0  0
  4  8  2  0  0  0  0
  5  1  2  0  0  0  0
  7  9  2  0  0  0  0
  7  4  1  0  0  0  0
  8  1  1  0  0  0  0
  9  5  1  0  0  0  0
 10 11  2  0  0  0  0
 11  7  1  0  0  0  0
 12 15  2  0  0  0  0
 13  2  2  0  0  0  0
 14  3  2  0  0  0  0
 14 13  1  0  0  0  0
 15  4  1  0  0  0  0
 16 18  1  0  0  0  0
 16  3  1  0  0  0  0
 17 16  1  0  0  0  0
 19 21  1  1  0  0  0
 19 17  1  0  0  0  0
 19 20  1  0  0  0  0
 20 18  1  0  0  0  0
 22 24  1  0  0  0  0
 22 21  1  1  0  0  0
 23 27  1  0  0  0  0
 23 25  1  0  0  0  0
 25 26  1  6  0  0  0
 25 28  1  0  0  0  0
 25 22  1  0  0  0  0
 27 24  1  0  0  0  0
 29 28  1  0  0  0  0
 29 33  1  0  0  0  0
 30 32  2  0  0  0  0
 30 34  1  0  0  0  0
 31 33  1  0  0  0  0
 32 31  1  0  0  0  0
 34 29  1  0  0  0  0
 35 13  1  0  0  0  0
 36 37  2  0  0  0  0
 36 39  1  0  0  0  0
 37 41  1  0  0  0  0
 39 40  2  0  0  0  0
 40 38  1  0  0  0  0
 40 35  1  0  0  0  0
 41 38  2  0  0  0  0
 43 42  1  0  0  0  0
 43 37  1  0  0  0  0
M  END
>  <MODEL>
9

>  <REMARK>
 VINA RESULT:      -8.2      1.876      2.288
  Name = 
  8 active torsions:
  status: ('A' for Active; 'I' for Inactive)
    1  A    between atoms: O_1  and  C_34
    2  A    between atoms: O_1  and  C_35
    3  A    between atoms: N_2  and  C_13
    4  A    between atoms: C_3  and  C_4
    5  A    between atoms: C_3  and  C_12
    6  A    between atoms: N_11  and  C_14
    7  A    between atoms: C_14  and  C_22
    8  A    between atoms: C_19  and  C_37
                            x       y       z     vdW  Elec       q    Type
                         _______ _______ _______ _____ _____    ______ ____

>  <TORSDO>
F 8

$$$$
