=
 OpenBabel10272413483D

 30 33  0  0  1  0  0  0  0  0999 V2000
  190.9560  177.3330  144.4550 C   0  0  2  0  0  3  0  0  0  0  0  0
  191.5510  177.2660  145.8590 C   0  0  0  0  0  2  0  0  0  0  0  0
  191.6880  178.4120  143.6750 C   0  0  0  0  0  1  0  0  0  0  0  0
  188.7300  177.2760  145.5740 C   0  0  0  0  0  0  0  0  0  0  0  0
  190.7150  176.3260  146.7070 C   0  0  0  0  0  2  0  0  0  0  0  0
  189.4580  177.5770  144.4700 C   0  0  0  0  0  0  0  0  0  0  0  0
  189.3630  176.7730  146.7180 O   0  0  0  0  0  0  0  0  0  0  0  0
  185.3720  178.9940  146.3770 C   0  0  0  0  0  3  0  0  0  0  0  0
  184.7230  178.7350  145.2380 C   0  0  0  0  0  3  0  0  0  0  0  0
  186.8360  178.6880  146.5190 C   0  0  1  0  0  3  0  0  0  0  0  0
  186.5990  177.5010  144.2950 C   0  0  0  0  0  3  0  0  0  0  0  0
  187.2200  178.4020  148.2340 Cl  0  0  0  0  0  0  0  0  0  0  0  0
  185.4030  178.0670  144.1050 C   0  0  0  0  0  0  0  0  0  0  0  0
  187.2380  177.4750  145.6600 C   0  0  1  0  0  3  0  0  0  0  0  0
  185.9460  179.7380  141.7500 O   0  0  0  0  0  0  0  0  0  0  0  0
  185.0550  178.8510  141.6950 C   0  0  0  0  0  0  0  0  0  0  0  0
  184.8010  177.9840  142.8070 N   0  0  0  0  0  2  0  0  0  0  0  0
  184.2900  178.7030  140.5060 N   0  0  0  0  0  1  0  0  0  0  0  0
  188.7860  178.0030  143.1960 C   0  0  0  0  0  2  0  0  0  0  0  0
  189.0380  176.9830  142.1030 C   0  0  0  0  0  2  0  0  0  0  0  0
  188.1670  177.2190  141.0400 O   0  0  0  0  0  0  0  0  0  0  0  0
  188.8660  178.0760  140.1890 C   0  0  2  0  0  3  0  0  0  0  0  0
  187.9720  178.7130  139.3280 O   0  0  0  0  0  1  0  0  0  0  0  0
  191.8600  176.5100  138.6880 C   0  0  0  0  0  2  0  0  0  0  0  0
  189.8710  177.3100  139.3950 C   0  0  0  0  0  0  0  0  0  0  0  0
  190.7200  175.9000  137.9060 C   0  0  2  0  0  0  0  0  0  0  0  0
  189.5110  176.4350  138.3830 O   0  0  0  0  0  0  0  0  0  0  0  0
  191.1460  177.3880  139.6100 N   0  0  0  0  0  0  0  0  0  0  0  0
  190.7200  174.5010  138.0590 O   0  0  0  0  0  0  0  0  0  0  0  0
  190.7810  174.9950  136.7420 C   0  0  0  0  0  2  0  0  0  0  0  0
  1  3  1  6  0  0  0
  1  6  1  0  0  0  0
  1  2  1  0  0  0  0
  2  5  1  0  0  0  0
  4  7  1  0  0  0  0
  5  7  1  0  0  0  0
  6  4  2  0  0  0  0
  8 10  1  0  0  0  0
  9  8  2  0  0  0  0
 10 12  1  1  0  0  0
 11 14  1  0  0  0  0
 13 11  2  0  0  0  0
 13  9  1  0  0  0  0
 14  4  1  6  0  0  0
 14 10  1  0  0  0  0
 16 15  2  0  0  0  0
 16 17  1  0  0  0  0
 17 13  1  0  0  0  0
 18 16  1  0  0  0  0
 19  6  1  0  0  0  0
 20 19  1  0  0  0  0
 21 20  1  0  0  0  0
 22 23  1  6  0  0  0
 22 21  1  0  0  0  0
 24 28  1  0  0  0  0
 25 28  2  0  0  0  0
 25 22  1  0  0  0  0
 26 30  1  6  0  0  0
 26 29  1  0  0  0  0
 26 27  1  0  0  0  0
 26 24  1  0  0  0  0
 27 25  1  0  0  0  0
 30 29  1  0  0  0  0
M  END
>  <MODEL>
1

>  <REMARK>
 VINA RESULT:      -8.8      0.000      0.000
  Name = 
  7 active torsions:
  status: ('A' for Active; 'I' for Inactive)
    1  A    between atoms: C_1  and  O_4
    2  A    between atoms: C_1  and  C_5
    3  A    between atoms: O_4  and  C_27
    4  A    between atoms: C_5  and  C_22
    5  A    between atoms: C_8  and  C_27
    6  A    between atoms: N_16  and  C_25
    7  A    between atoms: C_19  and  C_29
                            x       y       z     vdW  Elec       q    Type
                         _______ _______ _______ _____ _____    ______ ____

>  <TORSDO>
F 7

$$$$
=
 OpenBabel10272413483D

 30 33  0  0  1  0  0  0  0  0999 V2000
  189.6960  177.9040  145.2720 C   0  0  2  0  0  3  0  0  0  0  0  0
  191.2110  178.0490  145.1590 C   0  0  0  0  0  2  0  0  0  0  0  0
  189.3900  176.9310  146.3990 C   0  0  0  0  0  1  0  0  0  0  0  0
  189.6990  177.6670  142.7920 C   0  0  0  0  0  0  0  0  0  0  0  0
  191.5400  178.8710  143.9270 C   0  0  0  0  0  2  0  0  0  0  0  0
  189.0560  177.4640  143.9690 C   0  0  0  0  0  0  0  0  0  0  0  0
  190.9730  178.2490  142.7780 O   0  0  0  0  0  0  0  0  0  0  0  0
  188.1690  178.0710  139.2750 C   0  0  0  0  0  3  0  0  0  0  0  0
  188.8870  177.1510  138.6240 C   0  0  0  0  0  3  0  0  0  0  0  0
  188.5050  178.4550  140.6890 C   0  0  1  0  0  3  0  0  0  0  0  0
  190.1170  176.5040  140.6240 C   0  0  0  0  0  3  0  0  0  0  0  0
  187.0380  179.0440  141.5080 Cl  0  0  0  0  0  0  0  0  0  0  0  0
  189.9870  176.4220  139.2960 C   0  0  0  0  0  0  0  0  0  0  0  0
  189.1220  177.2720  141.4560 C   0  0  1  0  0  3  0  0  0  0  0  0
  192.8100  176.9740  138.6930 O   0  0  0  0  0  0  0  0  0  0  0  0
  192.2670  175.9300  138.2450 C   0  0  0  0  0  0  0  0  0  0  0  0
  190.9080  175.6050  138.5640 N   0  0  0  0  0  2  0  0  0  0  0  0
  193.0170  175.0570  137.4120 N   0  0  0  0  0  1  0  0  0  0  0  0
  187.6440  176.9530  143.9970 C   0  0  0  0  0  2  0  0  0  0  0  0
  186.7260  177.9820  144.6280 C   0  0  0  0  0  2  0  0  0  0  0  0
  185.3990  177.6480  144.3540 O   0  0  0  0  0  0  0  0  0  0  0  0
  184.6820  178.8220  144.5880 C   0  0  2  0  0  3  0  0  0  0  0  0
  184.2450  178.8480  145.9130 O   0  0  0  0  0  1  0  0  0  0  0  0
  182.2640  178.7520  141.7920 C   0  0  0  0  0  2  0  0  0  0  0  0
  183.5080  178.9010  143.6700 C   0  0  0  0  0  0  0  0  0  0  0  0
  181.4260  179.2090  142.9640 C   0  0  2  0  0  0  0  0  0  0  0  0
  182.2500  179.2880  144.1000 O   0  0  0  0  0  0  0  0  0  0  0  0
  183.5740  178.5910  142.4130 N   0  0  0  0  0  0  0  0  0  0  0  0
  180.3760  178.3020  143.1940 O   0  0  0  0  0  0  0  0  0  0  0  0
  180.0170  179.6460  142.9760 C   0  0  0  0  0  2  0  0  0  0  0  0
  1  3  1  1  0  0  0
  2  1  1  0  0  0  0
  4  6  2  0  0  0  0
  5  2  1  0  0  0  0
  6 19  1  0  0  0  0
  6  1  1  0  0  0  0
  7  4  1  0  0  0  0
  7  5  1  0  0  0  0
  8 10  1  0  0  0  0
  9  8  2  0  0  0  0
  9 13  1  0  0  0  0
 10 14  1  0  0  0  0
 10 12  1  1  0  0  0
 11 14  1  0  0  0  0
 13 11  2  0  0  0  0
 14  4  1  1  0  0  0
 16 17  1  0  0  0  0
 16 15  2  0  0  0  0
 17 13  1  0  0  0  0
 18 16  1  0  0  0  0
 19 20  1  0  0  0  0
 21 22  1  0  0  0  0
 21 20  1  0  0  0  0
 22 23  1  1  0  0  0
 24 28  1  0  0  0  0
 25 27  1  0  0  0  0
 25 22  1  0  0  0  0
 26 24  1  6  0  0  0
 26 30  1  0  0  0  0
 26 29  1  0  0  0  0
 26 27  1  0  0  0  0
 28 25  2  0  0  0  0
 30 29  1  0  0  0  0
M  END
>  <MODEL>
2

>  <REMARK>
 VINA RESULT:      -8.8      2.857      7.221
  Name = 
  7 active torsions:
  status: ('A' for Active; 'I' for Inactive)
    1  A    between atoms: C_1  and  O_4
    2  A    between atoms: C_1  and  C_5
    3  A    between atoms: O_4  and  C_27
    4  A    between atoms: C_5  and  C_22
    5  A    between atoms: C_8  and  C_27
    6  A    between atoms: N_16  and  C_25
    7  A    between atoms: C_19  and  C_29
                            x       y       z     vdW  Elec       q    Type
                         _______ _______ _______ _____ _____    ______ ____

>  <TORSDO>
F 7

$$$$
=
 OpenBabel10272413483D

 30 33  0  0  1  0  0  0  0  0999 V2000
  189.8450  176.8450  145.1300 C   0  0  2  0  0  3  0  0  0  0  0  0
  190.0600  177.7320  146.3530 C   0  0  0  0  0  2  0  0  0  0  0  0
  190.9950  177.0750  144.1630 C   0  0  0  0  0  1  0  0  0  0  0  0
  187.4850  177.6450  145.1680 C   0  0  0  0  0  0  0  0  0  0  0  0
  188.8340  177.6530  147.2440 C   0  0  0  0  0  2  0  0  0  0  0  0
  188.5020  177.0870  144.4650 C   0  0  0  0  0  0  0  0  0  0  0  0
  187.6810  178.0350  146.5000 O   0  0  0  0  0  0  0  0  0  0  0  0
  183.9970  179.2330  144.7420 C   0  0  0  0  0  3  0  0  0  0  0  0
  183.9950  179.3880  143.4140 C   0  0  0  0  0  3  0  0  0  0  0  0
  185.2410  178.8050  145.4680 C   0  0  1  0  0  3  0  0  0  0  0  0
  186.2060  178.3980  143.1620 C   0  0  0  0  0  3  0  0  0  0  0  0
  184.7920  177.9700  146.9740 Cl  0  0  0  0  0  0  0  0  0  0  0  0
  185.1930  179.0690  142.6050 C   0  0  0  0  0  0  0  0  0  0  0  0
  186.1200  177.9020  144.5840 C   0  0  1  0  0  3  0  0  0  0  0  0
  183.8070  177.8660  140.3100 O   0  0  0  0  0  0  0  0  0  0  0  0
  184.6370  178.7940  140.1230 C   0  0  0  0  0  0  0  0  0  0  0  0
  185.2910  179.4380  141.2230 N   0  0  0  0  0  2  0  0  0  0  0  0
  184.9280  179.2130  138.7960 N   0  0  0  0  0  1  0  0  0  0  0  0
  188.2790  176.5530  143.0790 C   0  0  0  0  0  2  0  0  0  0  0  0
  188.9110  177.4730  142.0540 C   0  0  0  0  0  2  0  0  0  0  0  0
  188.3760  177.2010  140.7950 O   0  0  0  0  0  0  0  0  0  0  0  0
  189.1490  177.9510  139.9090 C   0  0  2  0  0  3  0  0  0  0  0  0
  188.3160  178.7130  139.0890 O   0  0  0  0  0  1  0  0  0  0  0  0
  191.8130  175.9750  138.2750 C   0  0  0  0  0  2  0  0  0  0  0  0
  189.9950  177.0510  139.0710 C   0  0  0  0  0  0  0  0  0  0  0  0
  190.5620  175.5410  137.5460 C   0  0  2  0  0  0  0  0  0  0  0  0
  189.4670  176.2440  138.0770 O   0  0  0  0  0  0  0  0  0  0  0  0
  191.2770  176.9420  139.2270 N   0  0  0  0  0  0  0  0  0  0  0  0
  190.3650  174.1570  137.7000 O   0  0  0  0  0  0  0  0  0  0  0  0
  190.4380  174.6440  136.3810 C   0  0  0  0  0  2  0  0  0  0  0  0
  1  3  1  6  0  0  0
  1  2  1  0  0  0  0
  2  5  1  0  0  0  0
  4  7  1  0  0  0  0
  6  1  1  0  0  0  0
  6  4  2  0  0  0  0
  7  5  1  0  0  0  0
  8 10  1  0  0  0  0
  9  8  2  0  0  0  0
 10 12  1  1  0  0  0
 11 14  1  0  0  0  0
 13 11  2  0  0  0  0
 13  9  1  0  0  0  0
 14  4  1  1  0  0  0
 14 10  1  0  0  0  0
 16 15  2  0  0  0  0
 16 17  1  0  0  0  0
 17 13  1  0  0  0  0
 18 16  1  0  0  0  0
 19  6  1  0  0  0  0
 20 19  1  0  0  0  0
 21 20  1  0  0  0  0
 22 23  1  6  0  0  0
 22 21  1  0  0  0  0
 24 28  1  0  0  0  0
 25 28  2  0  0  0  0
 25 22  1  0  0  0  0
 26 30  1  6  0  0  0
 26 29  1  0  0  0  0
 26 27  1  0  0  0  0
 26 24  1  0  0  0  0
 27 25  1  0  0  0  0
 30 29  1  0  0  0  0
M  END
>  <MODEL>
3

>  <REMARK>
 VINA RESULT:      -8.7      1.316      1.582
  Name = 
  7 active torsions:
  status: ('A' for Active; 'I' for Inactive)
    1  A    between atoms: C_1  and  O_4
    2  A    between atoms: C_1  and  C_5
    3  A    between atoms: O_4  and  C_27
    4  A    between atoms: C_5  and  C_22
    5  A    between atoms: C_8  and  C_27
    6  A    between atoms: N_16  and  C_25
    7  A    between atoms: C_19  and  C_29
                            x       y       z     vdW  Elec       q    Type
                         _______ _______ _______ _____ _____    ______ ____

>  <TORSDO>
F 7

$$$$
=
 OpenBabel10272413483D

 30 33  0  0  1  0  0  0  0  0999 V2000
  189.3060  177.8180  139.2640 C   0  0  2  0  0  3  0  0  0  0  0  0
  188.5330  177.1940  138.1050 C   0  0  0  0  0  2  0  0  0  0  0  0
  190.3810  176.8390  139.7070 C   0  0  0  0  0  1  0  0  0  0  0  0
  187.0800  178.4220  140.2070 C   0  0  0  0  0  0  0  0  0  0  0  0
  187.3440  178.0750  137.7700 C   0  0  0  0  0  2  0  0  0  0  0  0
  188.4040  178.2130  140.4180 C   0  0  0  0  0  0  0  0  0  0  0  0
  186.5330  178.2380  138.9300 O   0  0  0  0  0  0  0  0  0  0  0  0
  183.7700  178.7110  142.1650 C   0  0  0  0  0  3  0  0  0  0  0  0
  184.2360  178.5060  143.4010 C   0  0  0  0  0  3  0  0  0  0  0  0
  184.6530  178.5180  140.9650 C   0  0  1  0  0  3  0  0  0  0  0  0
  186.5390  178.2810  142.6390 C   0  0  0  0  0  3  0  0  0  0  0  0
  184.0750  179.5460  139.6310 Cl  0  0  0  0  0  0  0  0  0  0  0  0
  185.6560  178.1580  143.6350 C   0  0  0  0  0  0  0  0  0  0  0  0
  186.1240  178.8310  141.2970 C   0  0  1  0  0  3  0  0  0  0  0  0
  185.4770  179.5630  146.2100 O   0  0  0  0  0  0  0  0  0  0  0  0
  186.0640  178.4510  146.1440 C   0  0  0  0  0  0  0  0  0  0  0  0
  186.1230  177.7150  144.9160 N   0  0  0  0  0  2  0  0  0  0  0  0
  186.6750  177.9150  147.3090 N   0  0  0  0  0  1  0  0  0  0  0  0
  189.0290  178.5210  141.7480 C   0  0  0  0  0  2  0  0  0  0  0  0
  189.5090  177.2450  142.4110 C   0  0  0  0  0  2  0  0  0  0  0  0
  190.7800  177.4510  142.9470 O   0  0  0  0  0  0  0  0  0  0  0  0
  190.5810  178.3420  144.0020 C   0  0  2  0  0  3  0  0  0  0  0  0
  191.5440  179.3510  143.9500 O   0  0  0  0  0  1  0  0  0  0  0  0
  190.0480  176.6520  147.2470 C   0  0  0  0  0  2  0  0  0  0  0  0
  190.6720  177.6260  145.3080 C   0  0  0  0  0  0  0  0  0  0  0  0
  191.5370  176.5220  147.0280 C   0  0  2  0  0  0  0  0  0  0  0  0
  191.8690  177.1480  145.8140 O   0  0  0  0  0  0  0  0  0  0  0  0
  189.6380  177.3800  146.0490 N   0  0  0  0  0  0  0  0  0  0  0  0
  191.9060  175.1650  146.9860 O   0  0  0  0  0  0  0  0  0  0  0  0
  192.5580  175.9700  147.9390 C   0  0  0  0  0  2  0  0  0  0  0  0
  1  3  1  1  0  0  0
  1  6  1  0  0  0  0
  2  1  1  0  0  0  0
  4  6  2  0  0  0  0
  5  2  1  0  0  0  0
  5  7  1  0  0  0  0
  6 19  1  0  0  0  0
  7  4  1  0  0  0  0
  8  9  2  0  0  0  0
  9 13  1  0  0  0  0
 10 12  1  6  0  0  0
 10 14  1  0  0  0  0
 10  8  1  0  0  0  0
 11 13  2  0  0  0  0
 13 17  1  0  0  0  0
 14  4  1  6  0  0  0
 14 11  1  0  0  0  0
 16 15  2  0  0  0  0
 16 18  1  0  0  0  0
 17 16  1  0  0  0  0
 19 20  1  0  0  0  0
 20 21  1  0  0  0  0
 21 22  1  0  0  0  0
 22 23  1  1  0  0  0
 22 25  1  0  0  0  0
 25 27  1  0  0  0  0
 25 28  2  0  0  0  0
 26 24  1  1  0  0  0
 26 30  1  0  0  0  0
 27 26  1  0  0  0  0
 28 24  1  0  0  0  0
 29 26  1  0  0  0  0
 29 30  1  0  0  0  0
M  END
>  <MODEL>
4

>  <REMARK>
 VINA RESULT:      -8.0      3.024      6.281
  Name = 
  7 active torsions:
  status: ('A' for Active; 'I' for Inactive)
    1  A    between atoms: C_1  and  O_4
    2  A    between atoms: C_1  and  C_5
    3  A    between atoms: O_4  and  C_27
    4  A    between atoms: C_5  and  C_22
    5  A    between atoms: C_8  and  C_27
    6  A    between atoms: N_16  and  C_25
    7  A    between atoms: C_19  and  C_29
                            x       y       z     vdW  Elec       q    Type
                         _______ _______ _______ _____ _____    ______ ____

>  <TORSDO>
F 7

$$$$
=
 OpenBabel10272413483D

 30 33  0  0  1  0  0  0  0  0999 V2000
  183.7590  176.6460  137.7690 C   0  0  2  0  0  3  0  0  0  0  0  0
  183.0630  175.3470  138.1680 C   0  0  0  0  0  2  0  0  0  0  0  0
  185.1100  176.3010  137.1660 C   0  0  0  0  0  1  0  0  0  0  0  0
  183.0770  177.5060  140.0060 C   0  0  0  0  0  0  0  0  0  0  0  0
  181.7960  175.6780  138.9340 C   0  0  0  0  0  2  0  0  0  0  0  0
  183.8970  177.6120  138.9310 C   0  0  0  0  0  0  0  0  0  0  0  0
  182.1220  176.4820  140.0640 O   0  0  0  0  0  0  0  0  0  0  0  0
  181.9550  179.3260  143.2160 C   0  0  0  0  0  3  0  0  0  0  0  0
  183.0850  179.2260  143.9220 C   0  0  0  0  0  3  0  0  0  0  0  0
  181.7920  178.5970  141.9120 C   0  0  1  0  0  3  0  0  0  0  0  0
  184.2570  178.0600  142.1330 C   0  0  0  0  0  3  0  0  0  0  0  0
  180.6280  179.4690  140.8860 Cl  0  0  0  0  0  0  0  0  0  0  0  0
  184.2430  178.4590  143.4100 C   0  0  0  0  0  0  0  0  0  0  0  0
  183.1430  178.4360  141.1900 C   0  0  1  0  0  3  0  0  0  0  0  0
  184.5230  178.8640  146.3070 O   0  0  0  0  0  0  0  0  0  0  0  0
  185.4910  178.4090  145.6420 C   0  0  0  0  0  0  0  0  0  0  0  0
  185.3710  178.1500  144.2380 N   0  0  0  0  0  2  0  0  0  0  0  0
  186.7230  178.1440  146.2980 N   0  0  0  0  0  1  0  0  0  0  0  0
  184.8430  178.7710  138.7940 C   0  0  0  0  0  2  0  0  0  0  0  0
  186.2780  178.2860  138.8370 C   0  0  0  0  0  2  0  0  0  0  0  0
  186.8620  178.6720  140.0430 O   0  0  0  0  0  0  0  0  0  0  0  0
  188.2050  178.3140  139.9200 C   0  0  2  0  0  3  0  0  0  0  0  0
  188.3420  177.3440  138.9260 O   0  0  0  0  0  1  0  0  0  0  0  0
  188.7880  177.1890  143.3940 C   0  0  0  0  0  2  0  0  0  0  0  0
  188.7190  177.7820  141.2160 C   0  0  0  0  0  0  0  0  0  0  0  0
  190.0710  176.8170  142.6880 C   0  0  2  0  0  0  0  0  0  0  0  0
  189.9750  177.2120  141.3430 O   0  0  0  0  0  0  0  0  0  0  0  0
  188.0210  177.7930  142.3080 N   0  0  0  0  0  0  0  0  0  0  0  0
  190.2850  175.4290  142.7670 O   0  0  0  0  0  0  0  0  0  0  0  0
  191.3100  176.2560  143.2620 C   0  0  0  0  0  2  0  0  0  0  0  0
  1  3  1  1  0  0  0
  1  2  1  0  0  0  0
  1  6  1  0  0  0  0
  2  5  1  0  0  0  0
  4  7  1  0  0  0  0
  5  7  1  0  0  0  0
  6  4  2  0  0  0  0
  8  9  2  0  0  0  0
 10 12  1  6  0  0  0
 10  8  1  0  0  0  0
 11 13  2  0  0  0  0
 13  9  1  0  0  0  0
 13 17  1  0  0  0  0
 14  4  1  6  0  0  0
 14 10  1  0  0  0  0
 14 11  1  0  0  0  0
 16 18  1  0  0  0  0
 16 15  2  0  0  0  0
 17 16  1  0  0  0  0
 19 20  1  0  0  0  0
 19  6  1  0  0  0  0
 20 21  1  0  0  0  0
 22 23  1  6  0  0  0
 22 21  1  0  0  0  0
 22 25  1  0  0  0  0
 25 27  1  0  0  0  0
 25 28  2  0  0  0  0
 26 29  1  0  0  0  0
 26 30  1  1  0  0  0
 26 24  1  0  0  0  0
 27 26  1  0  0  0  0
 28 24  1  0  0  0  0
 29 30  1  0  0  0  0
M  END
>  <MODEL>
5

>  <REMARK>
 VINA RESULT:      -7.9      3.564      6.340
  Name = 
  7 active torsions:
  status: ('A' for Active; 'I' for Inactive)
    1  A    between atoms: C_1  and  O_4
    2  A    between atoms: C_1  and  C_5
    3  A    between atoms: O_4  and  C_27
    4  A    between atoms: C_5  and  C_22
    5  A    between atoms: C_8  and  C_27
    6  A    between atoms: N_16  and  C_25
    7  A    between atoms: C_19  and  C_29
                            x       y       z     vdW  Elec       q    Type
                         _______ _______ _______ _____ _____    ______ ____

>  <TORSDO>
F 7

$$$$
=
 OpenBabel10272413483D

 30 33  0  0  1  0  0  0  0  0999 V2000
  189.0320  177.2250  137.3650 C   0  0  2  0  0  3  0  0  0  0  0  0
  190.0830  176.3480  136.6900 C   0  0  0  0  0  2  0  0  0  0  0  0
  188.9540  178.5440  136.6150 C   0  0  0  0  0  1  0  0  0  0  0  0
  190.1030  176.5670  139.5170 C   0  0  0  0  0  0  0  0  0  0  0  0
  190.3040  175.1040  137.5300 C   0  0  0  0  0  2  0  0  0  0  0  0
  189.3150  177.4400  138.8410 C   0  0  0  0  0  0  0  0  0  0  0  0
  190.6890  175.4840  138.8480 O   0  0  0  0  0  0  0  0  0  0  0  0
  191.6230  178.0250  142.7480 C   0  0  0  0  0  3  0  0  0  0  0  0
  190.5520  177.9400  143.5430 C   0  0  0  0  0  3  0  0  0  0  0  0
  191.5160  177.7440  141.2750 C   0  0  1  0  0  3  0  0  0  0  0  0
  189.1740  176.9380  141.8030 C   0  0  0  0  0  3  0  0  0  0  0  0
  193.0910  177.1870  140.6610 Cl  0  0  0  0  0  0  0  0  0  0  0  0
  189.2420  177.4910  143.0180 C   0  0  0  0  0  0  0  0  0  0  0  0
  190.4180  176.7040  140.9840 C   0  0  1  0  0  3  0  0  0  0  0  0
  188.8660  176.9240  145.8770 O   0  0  0  0  0  0  0  0  0  0  0  0
  187.8820  177.2730  145.1730 C   0  0  0  0  0  0  0  0  0  0  0  0
  188.0400  177.6080  143.7890 N   0  0  0  0  0  2  0  0  0  0  0  0
  186.5910  177.3400  145.7640 N   0  0  0  0  0  1  0  0  0  0  0  0
  188.5830  178.5350  139.5620 C   0  0  0  0  0  2  0  0  0  0  0  0
  187.0940  178.2520  139.5750 C   0  0  0  0  0  2  0  0  0  0  0  0
  186.5040  178.9220  140.6460 O   0  0  0  0  0  0  0  0  0  0  0  0
  185.1320  178.8280  140.4130 C   0  0  2  0  0  3  0  0  0  0  0  0
  184.7240  179.8760  139.5870 O   0  0  0  0  0  1  0  0  0  0  0  0
  183.9620  179.1310  143.9080 C   0  0  0  0  0  2  0  0  0  0  0  0
  184.3840  178.8830  141.7030 C   0  0  0  0  0  0  0  0  0  0  0  0
  182.6910  178.8560  143.1380 C   0  0  2  0  0  0  0  0  0  0  0  0
  183.0130  178.7050  141.7780 O   0  0  0  0  0  0  0  0  0  0  0  0
  184.9580  179.1240  142.8400 N   0  0  0  0  0  0  0  0  0  0  0  0
  181.7830  179.9180  143.3040 O   0  0  0  0  0  0  0  0  0  0  0  0
  181.3280  178.6340  143.6590 C   0  0  0  0  0  2  0  0  0  0  0  0
  1  3  1  6  0  0  0
  1  6  1  0  0  0  0
  2  1  1  0  0  0  0
  2  5  1  0  0  0  0
  5  7  1  0  0  0  0
  6  4  2  0  0  0  0
  6 19  1  0  0  0  0
  7  4  1  0  0  0  0
  8  9  2  0  0  0  0
 10 12  1  1  0  0  0
 10  8  1  0  0  0  0
 11 13  2  0  0  0  0
 13  9  1  0  0  0  0
 13 17  1  0  0  0  0
 14  4  1  6  0  0  0
 14 10  1  0  0  0  0
 14 11  1  0  0  0  0
 16 18  1  0  0  0  0
 16 15  2  0  0  0  0
 17 16  1  0  0  0  0
 19 20  1  0  0  0  0
 20 21  1  0  0  0  0
 22 23  1  6  0  0  0
 22 21  1  0  0  0  0
 22 25  1  0  0  0  0
 25 27  1  0  0  0  0
 25 28  2  0  0  0  0
 26 29  1  0  0  0  0
 26 30  1  1  0  0  0
 26 24  1  0  0  0  0
 27 26  1  0  0  0  0
 28 24  1  0  0  0  0
 29 30  1  0  0  0  0
M  END
>  <MODEL>
6

>  <REMARK>
 VINA RESULT:      -7.8      2.719      7.094
  Name = 
  7 active torsions:
  status: ('A' for Active; 'I' for Inactive)
    1  A    between atoms: C_1  and  O_4
    2  A    between atoms: C_1  and  C_5
    3  A    between atoms: O_4  and  C_27
    4  A    between atoms: C_5  and  C_22
    5  A    between atoms: C_8  and  C_27
    6  A    between atoms: N_16  and  C_25
    7  A    between atoms: C_19  and  C_29
                            x       y       z     vdW  Elec       q    Type
                         _______ _______ _______ _____ _____    ______ ____

>  <TORSDO>
F 7

$$$$
=
 OpenBabel10272413483D

 30 33  0  0  1  0  0  0  0  0999 V2000
  187.5950  177.5090  146.4230 C   0  0  2  0  0  3  0  0  0  0  0  0
  187.2090  178.7850  147.1670 C   0  0  0  0  0  2  0  0  0  0  0  0
  189.1100  177.4460  146.3310 C   0  0  0  0  0  1  0  0  0  0  0  0
  185.8270  178.1300  144.7800 C   0  0  0  0  0  0  0  0  0  0  0  0
  185.7030  178.9570  147.1100 C   0  0  0  0  0  2  0  0  0  0  0  0
  186.9500  177.4180  145.0530 C   0  0  0  0  0  0  0  0  0  0  0  0
  185.2800  178.9800  145.7500 O   0  0  0  0  0  0  0  0  0  0  0  0
  183.3810  179.1220  141.9680 C   0  0  0  0  0  3  0  0  0  0  0  0
  184.2030  179.0070  140.9210 C   0  0  0  0  0  3  0  0  0  0  0  0
  183.9020  179.0170  143.3740 C   0  0  1  0  0  3  0  0  0  0  0  0
  186.0770  178.2880  142.3020 C   0  0  0  0  0  3  0  0  0  0  0  0
  182.6010  178.4480  144.4480 Cl  0  0  0  0  0  0  0  0  0  0  0  0
  185.6390  178.6940  141.1060 C   0  0  0  0  0  0  0  0  0  0  0  0
  185.1210  178.0800  143.4490 C   0  0  1  0  0  3  0  0  0  0  0  0
  185.2010  178.0610  138.2690 O   0  0  0  0  0  0  0  0  0  0  0  0
  186.3420  178.4210  138.6610 C   0  0  0  0  0  0  0  0  0  0  0  0
  186.5770  178.7890  140.0260 N   0  0  0  0  0  2  0  0  0  0  0  0
  187.4160  178.4700  137.7310 N   0  0  0  0  0  1  0  0  0  0  0  0
  187.4820  176.4130  144.0720 C   0  0  0  0  0  2  0  0  0  0  0  0
  188.9810  176.5770  143.9130 C   0  0  0  0  0  2  0  0  0  0  0  0
  189.2410  177.5450  142.9420 O   0  0  0  0  0  0  0  0  0  0  0  0
  190.6320  177.5860  142.8440 C   0  0  2  0  0  3  0  0  0  0  0  0
  191.0960  178.8260  143.2870 O   0  0  0  0  0  1  0  0  0  0  0  0
  192.3770  177.2310  139.6040 C   0  0  0  0  0  2  0  0  0  0  0  0
  191.0570  177.3650  141.4310 C   0  0  0  0  0  0  0  0  0  0  0  0
  190.9590  176.8170  139.2820 C   0  0  2  0  0  0  0  0  0  0  0  0
  190.1840  176.9250  140.4500 O   0  0  0  0  0  0  0  0  0  0  0  0
  192.2740  177.5470  141.0250 N   0  0  0  0  0  0  0  0  0  0  0  0
  190.9350  175.4920  138.8090 O   0  0  0  0  0  0  0  0  0  0  0  0
  190.3740  176.4740  137.9720 C   0  0  0  0  0  2  0  0  0  0  0  0
  1  3  1  6  0  0  0
  1  2  1  0  0  0  0
  4  6  2  0  0  0  0
  4  7  1  0  0  0  0
  5  2  1  0  0  0  0
  6  1  1  0  0  0  0
  7  5  1  0  0  0  0
  8 10  1  0  0  0  0
  9 13  1  0  0  0  0
  9  8  2  0  0  0  0
 10 14  1  0  0  0  0
 10 12  1  1  0  0  0
 11 14  1  0  0  0  0
 13 11  2  0  0  0  0
 14  4  1  1  0  0  0
 15 16  2  0  0  0  0
 16 17  1  0  0  0  0
 17 13  1  0  0  0  0
 18 16  1  0  0  0  0
 19  6  1  0  0  0  0
 20 19  1  0  0  0  0
 21 20  1  0  0  0  0
 22 21  1  0  0  0  0
 22 23  1  6  0  0  0
 24 28  1  0  0  0  0
 25 22  1  0  0  0  0
 26 30  1  6  0  0  0
 26 24  1  0  0  0  0
 26 27  1  0  0  0  0
 27 25  1  0  0  0  0
 28 25  2  0  0  0  0
 29 26  1  0  0  0  0
 30 29  1  0  0  0  0
M  END
>  <MODEL>
7

>  <REMARK>
 VINA RESULT:      -7.6      2.258      3.526
  Name = 
  7 active torsions:
  status: ('A' for Active; 'I' for Inactive)
    1  A    between atoms: C_1  and  O_4
    2  A    between atoms: C_1  and  C_5
    3  A    between atoms: O_4  and  C_27
    4  A    between atoms: C_5  and  C_22
    5  A    between atoms: C_8  and  C_27
    6  A    between atoms: N_16  and  C_25
    7  A    between atoms: C_19  and  C_29
                            x       y       z     vdW  Elec       q    Type
                         _______ _______ _______ _____ _____    ______ ____

>  <TORSDO>
F 7

$$$$
=
 OpenBabel10272413483D

 30 33  0  0  1  0  0  0  0  0999 V2000
  185.2020  178.8290  145.1220 C   0  0  2  0  0  3  0  0  0  0  0  0
  185.3080  178.7040  146.6400 C   0  0  0  0  0  2  0  0  0  0  0  0
  183.8870  178.2090  144.6810 C   0  0  0  0  0  1  0  0  0  0  0  0
  187.5580  178.0190  145.0560 C   0  0  0  0  0  0  0  0  0  0  0  0
  186.6900  179.1520  147.0790 C   0  0  0  0  0  2  0  0  0  0  0  0
  186.3820  178.2020  144.4040 C   0  0  0  0  0  0  0  0  0  0  0  0
  187.6760  178.3750  146.4060 O   0  0  0  0  0  0  0  0  0  0  0  0
  190.8730  177.8530  143.0930 C   0  0  0  0  0  3  0  0  0  0  0  0
  191.5420  177.0020  143.8770 C   0  0  0  0  0  3  0  0  0  0  0  0
  189.5450  178.4130  143.5170 C   0  0  1  0  0  3  0  0  0  0  0  0
  189.6720  176.7430  145.4160 C   0  0  0  0  0  3  0  0  0  0  0  0
  188.5910  178.8360  142.0740 Cl  0  0  0  0  0  0  0  0  0  0  0  0
  190.9640  176.5210  145.1520 C   0  0  0  0  0  0  0  0  0  0  0  0
  188.7780  177.4180  144.4070 C   0  0  1  0  0  3  0  0  0  0  0  0
  191.6060  177.2870  147.9160 O   0  0  0  0  0  0  0  0  0  0  0  0
  192.0810  176.2250  147.4340 C   0  0  0  0  0  0  0  0  0  0  0  0
  191.7450  175.7950  146.1100 N   0  0  0  0  0  2  0  0  0  0  0  0
  192.9620  175.4350  148.2220 N   0  0  0  0  0  1  0  0  0  0  0  0
  186.2710  177.9410  142.9290 C   0  0  0  0  0  2  0  0  0  0  0  0
  184.9920  178.5450  142.3840 C   0  0  0  0  0  2  0  0  0  0  0  0
  185.3060  179.4890  141.4060 O   0  0  0  0  0  0  0  0  0  0  0  0
  184.4910  179.1630  140.3220 C   0  0  2  0  0  3  0  0  0  0  0  0
  183.5250  178.2400  140.7230 O   0  0  0  0  0  1  0  0  0  0  0  0
  185.8400  177.5640  137.2730 C   0  0  0  0  0  2  0  0  0  0  0  0
  185.3090  178.5870  139.2150 C   0  0  0  0  0  0  0  0  0  0  0  0
  187.0800  178.0390  137.9950 C   0  0  2  0  0  0  0  0  0  0  0  0
  186.6920  178.6610  139.1930 O   0  0  0  0  0  0  0  0  0  0  0  0
  184.7860  178.0000  138.1850 N   0  0  0  0  0  0  0  0  0  0  0  0
  187.7920  178.9460  137.1900 O   0  0  0  0  0  0  0  0  0  0  0  0
  188.4950  177.8130  137.6420 C   0  0  0  0  0  2  0  0  0  0  0  0
  1  3  1  6  0  0  0
  1  2  1  0  0  0  0
  2  5  1  0  0  0  0
  4  7  1  0  0  0  0
  6  4  2  0  0  0  0
  6  1  1  0  0  0  0
  7  5  1  0  0  0  0
  8 10  1  0  0  0  0
  8  9  2  0  0  0  0
  9 13  1  0  0  0  0
 10 12  1  6  0  0  0
 10 14  1  0  0  0  0
 13 11  2  0  0  0  0
 13 17  1  0  0  0  0
 14  4  1  1  0  0  0
 14 11  1  0  0  0  0
 16 15  2  0  0  0  0
 16 18  1  0  0  0  0
 17 16  1  0  0  0  0
 19  6  1  0  0  0  0
 20 19  1  0  0  0  0
 21 20  1  0  0  0  0
 22 23  1  1  0  0  0
 22 21  1  0  0  0  0
 24 28  1  0  0  0  0
 25 22  1  0  0  0  0
 26 24  1  6  0  0  0
 26 27  1  0  0  0  0
 27 25  1  0  0  0  0
 28 25  2  0  0  0  0
 29 30  1  0  0  0  0
 29 26  1  0  0  0  0
 30 26  1  0  0  0  0
M  END
>  <MODEL>
8

>  <REMARK>
 VINA RESULT:      -7.6      2.916      5.819
  Name = 
  7 active torsions:
  status: ('A' for Active; 'I' for Inactive)
    1  A    between atoms: C_1  and  O_4
    2  A    between atoms: C_1  and  C_5
    3  A    between atoms: O_4  and  C_27
    4  A    between atoms: C_5  and  C_22
    5  A    between atoms: C_8  and  C_27
    6  A    between atoms: N_16  and  C_25
    7  A    between atoms: C_19  and  C_29
                            x       y       z     vdW  Elec       q    Type
                         _______ _______ _______ _____ _____    ______ ____

>  <TORSDO>
F 7

$$$$
=
 OpenBabel10272413483D

 30 33  0  0  1  0  0  0  0  0999 V2000
  189.3410  177.8870  144.6880 C   0  0  2  0  0  3  0  0  0  0  0  0
  190.8460  177.9830  144.9270 C   0  0  0  0  0  2  0  0  0  0  0  0
  188.7510  176.9390  145.7190 C   0  0  0  0  0  1  0  0  0  0  0  0
  189.9080  177.6190  142.2760 C   0  0  0  0  0  0  0  0  0  0  0  0
  191.4780  178.7780  143.8000 C   0  0  0  0  0  2  0  0  0  0  0  0
  189.0040  177.4510  143.2740 C   0  0  0  0  0  0  0  0  0  0  0  0
  191.1700  178.1600  142.5540 O   0  0  0  0  0  0  0  0  0  0  0  0
  189.0510  178.0180  138.5380 C   0  0  0  0  0  3  0  0  0  0  0  0
  189.9690  177.1970  138.0200 C   0  0  0  0  0  3  0  0  0  0  0  0
  189.0680  178.3750  139.9970 C   0  0  1  0  0  3  0  0  0  0  0  0
  190.8500  176.5890  140.2080 C   0  0  0  0  0  3  0  0  0  0  0  0
  187.4200  178.7890  140.5270 Cl  0  0  0  0  0  0  0  0  0  0  0  0
  190.9870  176.5500  138.8780 C   0  0  0  0  0  0  0  0  0  0  0  0
  189.6420  177.2260  140.8460 C   0  0  1  0  0  3  0  0  0  0  0  0
  191.0090  173.9360  137.5360 O   0  0  0  0  0  0  0  0  0  0  0  0
  192.0900  174.5530  137.7200 C   0  0  0  0  0  0  0  0  0  0  0  0
  192.1100  175.8530  138.3230 N   0  0  0  0  0  2  0  0  0  0  0  0
  193.3140  173.9520  137.3180 N   0  0  0  0  0  1  0  0  0  0  0  0
  187.6070  176.9860  142.9780 C   0  0  0  0  0  2  0  0  0  0  0  0
  186.6020  178.0390  143.4010 C   0  0  0  0  0  2  0  0  0  0  0  0
  185.3130  177.5900  143.1160 O   0  0  0  0  0  0  0  0  0  0  0  0
  184.6010  178.7420  142.7790 C   0  0  2  0  0  3  0  0  0  0  0  0
  183.5320  178.9070  143.6610 O   0  0  0  0  0  1  0  0  0  0  0  0
  183.7140  179.1490  139.2130 C   0  0  0  0  0  2  0  0  0  0  0  0
  184.0890  178.6420  141.3810 C   0  0  0  0  0  0  0  0  0  0  0  0
  183.0750  177.8290  139.5820 C   0  0  2  0  0  0  0  0  0  0  0  0
  183.3350  177.5690  140.9380 O   0  0  0  0  0  0  0  0  0  0  0  0
  184.3310  179.5380  140.4770 N   0  0  0  0  0  0  0  0  0  0  0  0
  183.5980  176.7960  138.7840 O   0  0  0  0  0  0  0  0  0  0  0  0
  182.2010  176.9670  138.7630 C   0  0  0  0  0  2  0  0  0  0  0  0
  1  2  1  0  0  0  0
  1  3  1  1  0  0  0
  4  7  1  0  0  0  0
  4  6  2  0  0  0  0
  5  2  1  0  0  0  0
  6  1  1  0  0  0  0
  7  5  1  0  0  0  0
  8 10  1  0  0  0  0
  9  8  2  0  0  0  0
  9 13  1  0  0  0  0
 10 12  1  1  0  0  0
 10 14  1  0  0  0  0
 11 14  1  0  0  0  0
 13 11  2  0  0  0  0
 14  4  1  1  0  0  0
 15 16  2  0  0  0  0
 16 17  1  0  0  0  0
 17 13  1  0  0  0  0
 18 16  1  0  0  0  0
 19  6  1  0  0  0  0
 19 20  1  0  0  0  0
 21 20  1  0  0  0  0
 22 21  1  0  0  0  0
 22 23  1  1  0  0  0
 24 26  1  0  0  0  0
 24 28  1  0  0  0  0
 25 22  1  0  0  0  0
 26 30  1  6  0  0  0
 26 27  1  0  0  0  0
 27 25  1  0  0  0  0
 28 25  2  0  0  0  0
 29 26  1  0  0  0  0
 30 29  1  0  0  0  0
M  END
>  <MODEL>
9

>  <REMARK>
 VINA RESULT:      -7.6      2.646      6.624
  Name = 
  7 active torsions:
  status: ('A' for Active; 'I' for Inactive)
    1  A    between atoms: C_1  and  O_4
    2  A    between atoms: C_1  and  C_5
    3  A    between atoms: O_4  and  C_27
    4  A    between atoms: C_5  and  C_22
    5  A    between atoms: C_8  and  C_27
    6  A    between atoms: N_16  and  C_25
    7  A    between atoms: C_19  and  C_29
                            x       y       z     vdW  Elec       q    Type
                         _______ _______ _______ _____ _____    ______ ____

>  <TORSDO>
F 7

$$$$
