=
 OpenBabel10272402013D

 28 29  0  0  1  0  0  0  0  0999 V2000
  188.2670  177.2610  144.3400 C   0  0  0  0  0  2  0  0  0  0  0  0
  189.8490  177.8690  142.4300 C   0  0  2  0  0  0  0  0  0  0  0  0
  191.3550  178.1460  144.4530 C   0  0  0  0  0  0  0  0  0  0  0  0
  190.7250  179.2680  143.2160 S   0  0  0  0  0  0  0  0  0  0  0  0
  192.2980  178.4530  145.1640 O   0  0  0  0  0  0  0  0  0  0  0  0
  190.6920  176.8150  144.5580 C   0  0  2  0  0  3  0  0  0  0  0  0
  189.2260  175.4370  142.9510 C   0  0  0  0  0  1  0  0  0  0  0  0
  191.7080  175.6930  144.3570 C   0  0  0  0  0  1  0  0  0  0  0  0
  188.5840  178.4200  141.7820 C   0  0  0  0  0  1  0  0  0  0  0  0
  189.5170  176.8200  143.5510 C   0  0  1  0  0  0  0  0  0  0  0  0
  190.6840  177.3040  141.2610 C   0  0  0  0  0  2  0  0  0  0  0  0
  189.9490  177.1810  139.9320 C   0  0  0  0  0  2  0  0  0  0  0  0
  190.5190  176.1060  139.1380 N   0  0  0  0  0  2  0  0  0  0  0  0
  191.6980  176.2960  138.4040 C   0  0  0  0  0  0  0  0  0  0  0  0
  192.7120  176.4580  137.7740 C   0  0  0  0  0  3  0  0  0  0  0  0
  188.5580  177.6040  145.8040 C   0  0  0  0  0  2  0  0  0  0  0  0
  187.3220  177.4520  146.6930 C   0  0  1  0  0  3  0  0  0  0  0  0
  187.3560  178.4180  147.8690 C   0  0  0  0  0  2  0  0  0  0  0  0
  188.0470  177.8440  148.9370 O   0  0  0  0  0  1  0  0  0  0  0  0
  186.0290  177.6330  145.9080 C   0  0  0  0  0  2  0  0  0  0  0  0
  185.5690  179.0860  145.9030 C   0  0  0  0  0  2  0  0  0  0  0  0
  182.5050  179.1610  143.5640 C   0  0  0  0  0  2  0  0  0  0  0  0
  184.7420  179.3980  144.6660 C   0  0  2  0  0  3  0  0  0  0  0  0
  184.5830  179.0050  142.2220 C   0  0  0  0  0  0  0  0  0  0  0  0
  183.3390  178.7990  144.7920 C   0  0  0  0  0  2  0  0  0  0  0  0
  185.4510  178.8390  143.4320 C   0  0  0  0  0  2  0  0  0  0  0  0
  185.0590  179.4030  141.1730 O   0  0  0  0  0  0  0  0  0  0  0  0
  183.1420  178.6000  142.2940 C   0  0  0  0  0  2  0  0  0  0  0  0
  1 16  1  0  0  0  0
  2  9  1  6  0  0  0
  2  4  1  0  0  0  0
  2 10  1  0  0  0  0
  3  6  1  0  0  0  0
  3  5  2  0  0  0  0
  4  3  1  0  0  0  0
  6  8  1  6  0  0  0
 10  7  1  6  0  0  0
 10  1  1  0  0  0  0
 10  6  1  0  0  0  0
 11  2  1  0  0  0  0
 12 11  1  0  0  0  0
 13 12  1  0  0  0  0
 14 13  1  0  0  0  0
 15 14  3  0  0  0  0
 17 16  1  6  0  0  0
 17 18  1  0  0  0  0
 18 19  1  0  0  0  0
 20 17  1  0  0  0  0
 21 20  1  0  0  0  0
 22 25  1  0  0  0  0
 23 25  1  0  0  0  0
 23 21  1  1  0  0  0
 24 28  1  0  0  0  0
 24 26  1  0  0  0  0
 26 23  1  0  0  0  0
 27 24  2  0  0  0  0
 28 22  1  0  0  0  0
M  END
>  <MODEL>
1

>  <REMARK>
 VINA RESULT:      -7.2      0.000      0.000
  Name = 
  11 active torsions:
  status: ('A' for Active; 'I' for Inactive)
    1  A    between atoms: C_1  and  C_11
    2  A    between atoms: C_5  and  C_25
    3  A    between atoms: N_6  and  C_8
    4  A    between atoms: N_6  and  C_22
    5  A    between atoms: C_8  and  C_11
    6  A    between atoms: C_9  and  C_18
    7  A    between atoms: C_10  and  C_17
    8  A    between atoms: C_10  and  C_25
    9  A    between atoms: C_14  and  C_18
   10  A    between atoms: C_14  and  C_25
   11  A    between atoms: C_17  and  C_27
                            x       y       z     vdW  Elec       q    Type
                         _______ _______ _______ _____ _____    ______ ____

>  <TORSDO>
F 11

$$$$
=
 OpenBabel10272402013D

 28 29  0  0  1  0  0  0  0  0999 V2000
  183.5590  177.8530  140.9530 C   0  0  0  0  0  2  0  0  0  0  0  0
  182.4390  178.9830  138.9550 C   0  0  2  0  0  0  0  0  0  0  0  0
  181.8690  176.5440  138.5530 C   0  0  0  0  0  0  0  0  0  0  0  0
  182.8390  177.7510  137.6660 S   0  0  0  0  0  0  0  0  0  0  0  0
  181.4980  175.5120  138.0160 O   0  0  0  0  0  0  0  0  0  0  0  0
  181.5150  176.8660  139.9650 C   0  0  2  0  0  3  0  0  0  0  0  0
  181.4170  179.0630  141.3050 C   0  0  0  0  0  1  0  0  0  0  0  0
  180.0000  176.8560  140.1530 C   0  0  0  0  0  1  0  0  0  0  0  0
  183.6160  179.9470  139.0550 C   0  0  0  0  0  1  0  0  0  0  0  0
  182.2060  178.2090  140.3030 C   0  0  1  0  0  0  0  0  0  0  0  0
  181.2440  179.8540  138.5100 C   0  0  0  0  0  2  0  0  0  0  0  0
  181.5210  181.3500  138.4290 C   0  0  0  0  0  2  0  0  0  0  0  0
  180.9190  181.9090  137.2310 N   0  0  0  0  0  2  0  0  0  0  0  0
  181.0570  183.2690  136.9190 C   0  0  0  0  0  0  0  0  0  0  0  0
  181.1770  184.4370  136.6510 C   0  0  0  0  0  3  0  0  0  0  0  0
  183.7200  178.4100  142.3700 C   0  0  0  0  0  2  0  0  0  0  0  0
  185.1670  178.3340  142.8640 C   0  0  1  0  0  3  0  0  0  0  0  0
  186.1050  179.1410  141.9770 C   0  0  0  0  0  2  0  0  0  0  0  0
  187.1620  178.3400  141.5460 O   0  0  0  0  0  1  0  0  0  0  0  0
  185.3000  178.7880  144.3120 C   0  0  0  0  0  2  0  0  0  0  0  0
  185.8530  177.6820  145.2030 C   0  0  0  0  0  2  0  0  0  0  0  0
  189.7030  177.4950  145.1390 C   0  0  0  0  0  2  0  0  0  0  0  0
  187.2890  177.9700  145.6110 C   0  0  2  0  0  3  0  0  0  0  0  0
  188.9140  177.7600  147.4730 C   0  0  0  0  0  0  0  0  0  0  0  0
  188.2640  177.1610  144.7500 C   0  0  0  0  0  2  0  0  0  0  0  0
  187.4710  177.6250  147.0890 C   0  0  0  0  0  2  0  0  0  0  0  0
  189.2240  178.3090  148.5170 O   0  0  0  0  0  0  0  0  0  0  0  0
  189.9640  177.1410  146.6020 C   0  0  0  0  0  2  0  0  0  0  0  0
  1 16  1  0  0  0  0
  2  9  1  1  0  0  0
  2 10  1  0  0  0  0
  3  6  1  0  0  0  0
  4  3  1  0  0  0  0
  4  2  1  0  0  0  0
  5  3  2  0  0  0  0
  6  8  1  6  0  0  0
  6 10  1  0  0  0  0
 10  1  1  0  0  0  0
 10  7  1  1  0  0  0
 11  2  1  0  0  0  0
 12 11  1  0  0  0  0
 13 12  1  0  0  0  0
 14 13  1  0  0  0  0
 15 14  3  0  0  0  0
 16 17  1  0  0  0  0
 17 18  1  6  0  0  0
 17 20  1  0  0  0  0
 19 18  1  0  0  0  0
 20 21  1  0  0  0  0
 22 28  1  0  0  0  0
 23 21  1  6  0  0  0
 23 26  1  0  0  0  0
 24 27  2  0  0  0  0
 25 22  1  0  0  0  0
 25 23  1  0  0  0  0
 26 24  1  0  0  0  0
 28 24  1  0  0  0  0
M  END
>  <MODEL>
2

>  <REMARK>
 VINA RESULT:      -6.7      4.381      8.620
  Name = 
  11 active torsions:
  status: ('A' for Active; 'I' for Inactive)
    1  A    between atoms: C_1  and  C_11
    2  A    between atoms: C_5  and  C_25
    3  A    between atoms: N_6  and  C_8
    4  A    between atoms: N_6  and  C_22
    5  A    between atoms: C_8  and  C_11
    6  A    between atoms: C_9  and  C_18
    7  A    between atoms: C_10  and  C_17
    8  A    between atoms: C_10  and  C_25
    9  A    between atoms: C_14  and  C_18
   10  A    between atoms: C_14  and  C_25
   11  A    between atoms: C_17  and  C_27
                            x       y       z     vdW  Elec       q    Type
                         _______ _______ _______ _____ _____    ______ ____

>  <TORSDO>
F 11

$$$$
=
 OpenBabel10272402013D

 28 29  0  0  1  0  0  0  0  0999 V2000
  187.8380  178.0230  144.5930 C   0  0  0  0  0  2  0  0  0  0  0  0
  189.3260  178.0610  142.5180 C   0  0  2  0  0  0  0  0  0  0  0  0
  191.0420  178.1560  144.3850 C   0  0  0  0  0  0  0  0  0  0  0  0
  190.5700  179.2780  143.0790 S   0  0  0  0  0  0  0  0  0  0  0  0
  192.0950  178.2940  144.9870 O   0  0  0  0  0  0  0  0  0  0  0  0
  190.1060  177.0350  144.6850 C   0  0  2  0  0  3  0  0  0  0  0  0
  188.2160  175.9050  143.3500 C   0  0  0  0  0  1  0  0  0  0  0  0
  190.8140  175.6910  144.5370 C   0  0  0  0  0  1  0  0  0  0  0  0
  188.1650  178.8360  141.9060 C   0  0  0  0  0  1  0  0  0  0  0  0
  188.8720  177.2280  143.7710 C   0  0  1  0  0  0  0  0  0  0  0  0
  189.8940  177.2100  141.3630 C   0  0  0  0  0  2  0  0  0  0  0  0
  189.1040  177.2660  140.0610 C   0  0  0  0  0  2  0  0  0  0  0  0
  189.9000  177.8840  139.0150 N   0  0  0  0  0  2  0  0  0  0  0  0
  189.2950  178.4410  137.8790 C   0  0  0  0  0  0  0  0  0  0  0  0
  188.7770  178.9180  136.9020 C   0  0  0  0  0  3  0  0  0  0  0  0
  186.8490  177.1350  145.3530 C   0  0  0  0  0  2  0  0  0  0  0  0
  185.7590  177.9470  146.0560 C   0  0  1  0  0  3  0  0  0  0  0  0
  186.2370  178.4850  147.3970 C   0  0  0  0  0  2  0  0  0  0  0  0
  185.8810  179.8280  147.5260 O   0  0  0  0  0  1  0  0  0  0  0  0
  185.2510  179.0910  145.1860 C   0  0  0  0  0  2  0  0  0  0  0  0
  183.7340  179.0670  145.0480 C   0  0  0  0  0  2  0  0  0  0  0  0
  183.9720  178.1270  141.3170 C   0  0  0  0  0  2  0  0  0  0  0  0
  183.3120  178.4910  143.7050 C   0  0  2  0  0  3  0  0  0  0  0  0
  181.6270  178.6810  141.8950 C   0  0  0  0  0  0  0  0  0  0  0  0
  184.3890  178.7510  142.6480 C   0  0  0  0  0  2  0  0  0  0  0  0
  181.9860  179.1220  143.2820 C   0  0  0  0  0  2  0  0  0  0  0  0
  180.4860  178.3400  141.6330 O   0  0  0  0  0  0  0  0  0  0  0  0
  182.6660  178.7400  140.8170 C   0  0  0  0  0  2  0  0  0  0  0  0
  1 16  1  0  0  0  0
  2  9  1  6  0  0  0
  2  4  1  0  0  0  0
  2 10  1  0  0  0  0
  3  6  1  0  0  0  0
  3  5  2  0  0  0  0
  4  3  1  0  0  0  0
  6  8  1  6  0  0  0
 10  7  1  6  0  0  0
 10  1  1  0  0  0  0
 10  6  1  0  0  0  0
 11  2  1  0  0  0  0
 12 11  1  0  0  0  0
 13 12  1  0  0  0  0
 14 13  1  0  0  0  0
 15 14  3  0  0  0  0
 16 17  1  0  0  0  0
 17 20  1  6  0  0  0
 17 18  1  0  0  0  0
 18 19  1  0  0  0  0
 21 20  1  0  0  0  0
 22 25  1  0  0  0  0
 23 21  1  1  0  0  0
 24 26  1  0  0  0  0
 25 23  1  0  0  0  0
 26 23  1  0  0  0  0
 27 24  2  0  0  0  0
 28 22  1  0  0  0  0
 28 24  1  0  0  0  0
M  END
>  <MODEL>
3

>  <REMARK>
 VINA RESULT:      -6.6      1.694      2.174
  Name = 
  11 active torsions:
  status: ('A' for Active; 'I' for Inactive)
    1  A    between atoms: C_1  and  C_11
    2  A    between atoms: C_5  and  C_25
    3  A    between atoms: N_6  and  C_8
    4  A    between atoms: N_6  and  C_22
    5  A    between atoms: C_8  and  C_11
    6  A    between atoms: C_9  and  C_18
    7  A    between atoms: C_10  and  C_17
    8  A    between atoms: C_10  and  C_25
    9  A    between atoms: C_14  and  C_18
   10  A    between atoms: C_14  and  C_25
   11  A    between atoms: C_17  and  C_27
                            x       y       z     vdW  Elec       q    Type
                         _______ _______ _______ _____ _____    ______ ____

>  <TORSDO>
F 11

$$$$
=
 OpenBabel10272402013D

 28 29  0  0  1  0  0  0  0  0999 V2000
  183.9570  178.0790  140.9070 C   0  0  0  0  0  2  0  0  0  0  0  0
  182.8050  178.6460  138.7000 C   0  0  2  0  0  0  0  0  0  0  0  0
  183.3080  176.1790  138.3980 C   0  0  0  0  0  0  0  0  0  0  0  0
  183.8500  177.6630  137.5680 S   0  0  0  0  0  0  0  0  0  0  0  0
  183.4600  175.0790  137.8900 O   0  0  0  0  0  0  0  0  0  0  0  0
  182.6440  176.3480  139.7220 C   0  0  2  0  0  3  0  0  0  0  0  0
  181.4870  178.3370  140.8770 C   0  0  0  0  0  1  0  0  0  0  0  0
  181.2450  175.7360  139.7010 C   0  0  0  0  0  1  0  0  0  0  0  0
  183.4780  180.0010  138.8920 C   0  0  0  0  0  1  0  0  0  0  0  0
  182.6910  177.8580  140.0550 C   0  0  1  0  0  0  0  0  0  0  0  0
  181.4480  178.9630  138.0360 C   0  0  0  0  0  2  0  0  0  0  0  0
  181.4480  178.9510  136.5130 C   0  0  0  0  0  2  0  0  0  0  0  0
  180.6110  180.0210  135.9990 N   0  0  0  0  0  2  0  0  0  0  0  0
  180.6760  181.3130  136.5390 C   0  0  0  0  0  0  0  0  0  0  0  0
  180.7320  182.4240  137.0030 C   0  0  0  0  0  3  0  0  0  0  0  0
  183.6600  178.3390  142.3870 C   0  0  0  0  0  2  0  0  0  0  0  0
  184.8650  178.9220  143.1280 C   0  0  1  0  0  3  0  0  0  0  0  0
  184.4820  179.4260  144.5120 C   0  0  0  0  0  2  0  0  0  0  0  0
  183.1670  179.0650  144.8040 O   0  0  0  0  0  1  0  0  0  0  0  0
  186.0070  177.9190  143.2370 C   0  0  0  0  0  2  0  0  0  0  0  0
  186.4770  177.7500  144.6770 C   0  0  0  0  0  2  0  0  0  0  0  0
  190.1450  177.1450  145.6980 C   0  0  0  0  0  2  0  0  0  0  0  0
  187.8320  177.0640  144.7380 C   0  0  2  0  0  3  0  0  0  0  0  0
  189.7830  176.3750  143.3700 C   0  0  0  0  0  0  0  0  0  0  0  0
  188.8030  177.8700  145.6060 C   0  0  0  0  0  2  0  0  0  0  0  0
  188.3840  176.9130  143.3210 C   0  0  0  0  0  2  0  0  0  0  0  0
  190.1290  175.4910  142.6050 O   0  0  0  0  0  0  0  0  0  0  0  0
  190.7710  176.9910  144.3130 C   0  0  0  0  0  2  0  0  0  0  0  0
  1 16  1  0  0  0  0
  2  9  1  1  0  0  0
  2 10  1  0  0  0  0
  3  6  1  0  0  0  0
  4  3  1  0  0  0  0
  4  2  1  0  0  0  0
  5  3  2  0  0  0  0
  6  8  1  6  0  0  0
  6 10  1  0  0  0  0
 10  7  1  1  0  0  0
 10  1  1  0  0  0  0
 11  2  1  0  0  0  0
 12 11  1  0  0  0  0
 13 12  1  0  0  0  0
 13 14  1  0  0  0  0
 14 15  3  0  0  0  0
 17 16  1  1  0  0  0
 17 20  1  0  0  0  0
 17 18  1  0  0  0  0
 18 19  1  0  0  0  0
 20 21  1  0  0  0  0
 23 21  1  6  0  0  0
 23 25  1  0  0  0  0
 24 28  1  0  0  0  0
 25 22  1  0  0  0  0
 26 24  1  0  0  0  0
 26 23  1  0  0  0  0
 27 24  2  0  0  0  0
 28 22  1  0  0  0  0
M  END
>  <MODEL>
4

>  <REMARK>
 VINA RESULT:      -6.5      4.332      8.134
  Name = 
  11 active torsions:
  status: ('A' for Active; 'I' for Inactive)
    1  A    between atoms: C_1  and  C_11
    2  A    between atoms: C_5  and  C_25
    3  A    between atoms: N_6  and  C_8
    4  A    between atoms: N_6  and  C_22
    5  A    between atoms: C_8  and  C_11
    6  A    between atoms: C_9  and  C_18
    7  A    between atoms: C_10  and  C_17
    8  A    between atoms: C_10  and  C_25
    9  A    between atoms: C_14  and  C_18
   10  A    between atoms: C_14  and  C_25
   11  A    between atoms: C_17  and  C_27
                            x       y       z     vdW  Elec       q    Type
                         _______ _______ _______ _____ _____    ______ ____

>  <TORSDO>
F 11

$$$$
=
 OpenBabel10272402013D

 28 29  0  0  1  0  0  0  0  0999 V2000
  189.5290  176.6090  145.0840 C   0  0  0  0  0  2  0  0  0  0  0  0
  190.8870  176.4900  142.9250 C   0  0  2  0  0  0  0  0  0  0  0  0
  189.0890  178.1700  142.3100 C   0  0  0  0  0  0  0  0  0  0  0  0
  189.5140  176.5410  141.7180 S   0  0  0  0  0  0  0  0  0  0  0  0
  188.3620  178.9080  141.6630 O   0  0  0  0  0  0  0  0  0  0  0  0
  189.6790  178.5930  143.6120 C   0  0  2  0  0  3  0  0  0  0  0  0
  191.7110  177.7900  144.9740 C   0  0  0  0  0  1  0  0  0  0  0  0
  190.4870  179.8770  143.4420 C   0  0  0  0  0  1  0  0  0  0  0  0
  191.0910  175.0350  143.3320 C   0  0  0  0  0  1  0  0  0  0  0  0
  190.4810  177.3840  144.1510 C   0  0  1  0  0  0  0  0  0  0  0  0
  192.2100  176.9050  142.2480 C   0  0  0  0  0  2  0  0  0  0  0  0
  192.0660  177.5690  140.8840 C   0  0  0  0  0  2  0  0  0  0  0  0
  193.2310  177.2910  140.0620 N   0  0  0  0  0  2  0  0  0  0  0  0
  193.1100  176.6070  138.8440 C   0  0  0  0  0  0  0  0  0  0  0  0
  193.0080  176.0190  137.7970 C   0  0  0  0  0  3  0  0  0  0  0  0
  189.4560  177.1860  146.5000 C   0  0  0  0  0  2  0  0  0  0  0  0
  188.0150  177.3820  146.9750 C   0  0  1  0  0  3  0  0  0  0  0  0
  187.9250  178.4260  148.0790 C   0  0  0  0  0  2  0  0  0  0  0  0
  187.7910  177.7990  149.3190 O   0  0  0  0  0  1  0  0  0  0  0  0
  187.0820  177.7550  145.8290 C   0  0  0  0  0  2  0  0  0  0  0  0
  185.8490  178.5020  146.3230 C   0  0  0  0  0  2  0  0  0  0  0  0
  182.7840  179.2200  144.0970 C   0  0  0  0  0  2  0  0  0  0  0  0
  185.0470  179.0690  145.1630 C   0  0  2  0  0  3  0  0  0  0  0  0
  184.8200  179.0440  142.6930 C   0  0  0  0  0  0  0  0  0  0  0  0
  183.5890  178.6050  145.2410 C   0  0  0  0  0  2  0  0  0  0  0  0
  185.6790  178.6210  143.8460 C   0  0  0  0  0  2  0  0  0  0  0  0
  185.3240  179.5360  141.6980 O   0  0  0  0  0  0  0  0  0  0  0  0
  183.3450  178.7820  142.7450 C   0  0  0  0  0  2  0  0  0  0  0  0
  1 16  1  0  0  0  0
  2  9  1  1  0  0  0
  2 10  1  0  0  0  0
  3  6  1  0  0  0  0
  4  3  1  0  0  0  0
  4  2  1  0  0  0  0
  5  3  2  0  0  0  0
  6  8  1  6  0  0  0
  6 10  1  0  0  0  0
 10  7  1  1  0  0  0
 10  1  1  0  0  0  0
 11  2  1  0  0  0  0
 12 11  1  0  0  0  0
 13 12  1  0  0  0  0
 14 13  1  0  0  0  0
 15 14  3  0  0  0  0
 16 17  1  0  0  0  0
 17 20  1  6  0  0  0
 17 18  1  0  0  0  0
 18 19  1  0  0  0  0
 20 21  1  0  0  0  0
 22 25  1  0  0  0  0
 23 25  1  0  0  0  0
 23 21  1  1  0  0  0
 24 28  1  0  0  0  0
 24 26  1  0  0  0  0
 26 23  1  0  0  0  0
 27 24  2  0  0  0  0
 28 22  1  0  0  0  0
M  END
>  <MODEL>
5

>  <REMARK>
 VINA RESULT:      -6.5      1.663      2.275
  Name = 
  11 active torsions:
  status: ('A' for Active; 'I' for Inactive)
    1  A    between atoms: C_1  and  C_11
    2  A    between atoms: C_5  and  C_25
    3  A    between atoms: N_6  and  C_8
    4  A    between atoms: N_6  and  C_22
    5  A    between atoms: C_8  and  C_11
    6  A    between atoms: C_9  and  C_18
    7  A    between atoms: C_10  and  C_17
    8  A    between atoms: C_10  and  C_25
    9  A    between atoms: C_14  and  C_18
   10  A    between atoms: C_14  and  C_25
   11  A    between atoms: C_17  and  C_27
                            x       y       z     vdW  Elec       q    Type
                         _______ _______ _______ _____ _____    ______ ____

>  <TORSDO>
F 11

$$$$
=
 OpenBabel10272402013D

 28 29  0  0  1  0  0  0  0  0999 V2000
  188.5960  176.9470  139.8500 C   0  0  0  0  0  2  0  0  0  0  0  0
  189.5750  176.4150  137.5520 C   0  0  2  0  0  0  0  0  0  0  0  0
  187.0970  176.0470  137.1540 C   0  0  0  0  0  0  0  0  0  0  0  0
  188.5280  174.9810  137.1190 S   0  0  0  0  0  0  0  0  0  0  0  0
  186.0410  175.7060  136.6440 O   0  0  0  0  0  0  0  0  0  0  0  0
  187.2580  177.3750  137.8120 C   0  0  2  0  0  3  0  0  0  0  0  0
  189.3070  178.8250  138.3870 C   0  0  0  0  0  1  0  0  0  0  0  0
  186.9200  178.5000  136.8370 C   0  0  0  0  0  1  0  0  0  0  0  0
  190.7570  175.8970  138.3630 C   0  0  0  0  0  1  0  0  0  0  0  0
  188.6950  177.4170  138.3840 C   0  0  1  0  0  0  0  0  0  0  0  0
  190.1990  177.0270  136.2800 C   0  0  0  0  0  2  0  0  0  0  0  0
  190.1880  176.1270  135.0500 C   0  0  0  0  0  2  0  0  0  0  0  0
  191.4980  176.1160  134.4220 N   0  0  0  0  0  2  0  0  0  0  0  0
  192.6610  175.9130  135.1780 C   0  0  0  0  0  0  0  0  0  0  0  0
  193.6610  175.7380  135.8260 C   0  0  0  0  0  3  0  0  0  0  0  0
  189.1230  177.9740  140.8570 C   0  0  0  0  0  2  0  0  0  0  0  0
  189.6230  177.3190  142.1470 C   0  0  1  0  0  3  0  0  0  0  0  0
  190.1970  178.3470  143.1110 C   0  0  0  0  0  2  0  0  0  0  0  0
  191.5550  178.1000  143.3190 O   0  0  0  0  0  1  0  0  0  0  0  0
  188.5300  176.5110  142.8370 C   0  0  0  0  0  2  0  0  0  0  0  0
  188.2790  176.9970  144.2590 C   0  0  0  0  0  2  0  0  0  0  0  0
  184.7390  178.3210  143.4980 C   0  0  0  0  0  2  0  0  0  0  0  0
  186.8080  177.3090  144.4840 C   0  0  2  0  0  3  0  0  0  0  0  0
  185.2370  178.5910  145.9110 C   0  0  0  0  0  0  0  0  0  0  0  0
  186.2280  178.0560  143.2790 C   0  0  0  0  0  2  0  0  0  0  0  0
  186.6600  178.1480  145.7520 C   0  0  0  0  0  2  0  0  0  0  0  0
  184.6900  178.5280  146.9990 O   0  0  0  0  0  0  0  0  0  0  0  0
  184.5210  179.1870  144.7370 C   0  0  0  0  0  2  0  0  0  0  0  0
  1 16  1  0  0  0  0
  2  9  1  1  0  0  0
  2 10  1  0  0  0  0
  3  6  1  0  0  0  0
  4  3  1  0  0  0  0
  4  2  1  0  0  0  0
  5  3  2  0  0  0  0
  6  8  1  6  0  0  0
  6 10  1  0  0  0  0
 10  7  1  6  0  0  0
 10  1  1  0  0  0  0
 11  2  1  0  0  0  0
 12 11  1  0  0  0  0
 13 12  1  0  0  0  0
 13 14  1  0  0  0  0
 14 15  3  0  0  0  0
 17 16  1  6  0  0  0
 17 20  1  0  0  0  0
 17 18  1  0  0  0  0
 18 19  1  0  0  0  0
 20 21  1  0  0  0  0
 22 28  1  0  0  0  0
 23 21  1  6  0  0  0
 23 26  1  0  0  0  0
 24 27  2  0  0  0  0
 25 22  1  0  0  0  0
 25 23  1  0  0  0  0
 26 24  1  0  0  0  0
 28 24  1  0  0  0  0
M  END
>  <MODEL>
6

>  <REMARK>
 VINA RESULT:      -6.4      2.977      5.564
  Name = 
  11 active torsions:
  status: ('A' for Active; 'I' for Inactive)
    1  A    between atoms: C_1  and  C_11
    2  A    between atoms: C_5  and  C_25
    3  A    between atoms: N_6  and  C_8
    4  A    between atoms: N_6  and  C_22
    5  A    between atoms: C_8  and  C_11
    6  A    between atoms: C_9  and  C_18
    7  A    between atoms: C_10  and  C_17
    8  A    between atoms: C_10  and  C_25
    9  A    between atoms: C_14  and  C_18
   10  A    between atoms: C_14  and  C_25
   11  A    between atoms: C_17  and  C_27
                            x       y       z     vdW  Elec       q    Type
                         _______ _______ _______ _____ _____    ______ ____

>  <TORSDO>
F 11

$$$$
=
 OpenBabel10272402013D

 28 29  0  0  1  0  0  0  0  0999 V2000
  188.5040  177.2560  139.3770 C   0  0  0  0  0  2  0  0  0  0  0  0
  189.5040  176.2650  137.2470 C   0  0  2  0  0  0  0  0  0  0  0  0
  187.0190  175.9490  136.8450 C   0  0  0  0  0  0  0  0  0  0  0  0
  188.3920  174.8270  137.0490 S   0  0  0  0  0  0  0  0  0  0  0  0
  185.9590  175.5710  136.3720 O   0  0  0  0  0  0  0  0  0  0  0  0
  187.2370  177.3660  137.2540 C   0  0  2  0  0  3  0  0  0  0  0  0
  189.3460  178.7960  137.6190 C   0  0  0  0  0  1  0  0  0  0  0  0
  186.9800  178.3080  136.0810 C   0  0  0  0  0  1  0  0  0  0  0  0
  190.6390  175.8470  138.1750 C   0  0  0  0  0  1  0  0  0  0  0  0
  188.6610  177.4430  137.8550 C   0  0  1  0  0  0  0  0  0  0  0  0
  190.1870  176.6010  135.9050 C   0  0  0  0  0  2  0  0  0  0  0  0
  190.9410  175.4510  135.2490 C   0  0  0  0  0  2  0  0  0  0  0  0
  192.2780  175.8750  134.8690 N   0  0  0  0  0  2  0  0  0  0  0  0
  193.3740  175.6580  135.7150 C   0  0  0  0  0  0  0  0  0  0  0  0
  194.3170  175.4730  136.4420 C   0  0  0  0  0  3  0  0  0  0  0  0
  188.5850  178.5670  140.1650 C   0  0  0  0  0  2  0  0  0  0  0  0
  187.9460  178.4520  141.5520 C   0  0  1  0  0  3  0  0  0  0  0  0
  186.4340  178.3110  141.4620 C   0  0  0  0  0  2  0  0  0  0  0  0
  185.8240  179.5390  141.7160 O   0  0  0  0  0  1  0  0  0  0  0  0
  188.5320  177.2970  142.3540 C   0  0  0  0  0  2  0  0  0  0  0  0
  187.5680  176.8100  143.4300 C   0  0  0  0  0  2  0  0  0  0  0  0
  188.9010  177.9730  146.8560 C   0  0  0  0  0  2  0  0  0  0  0  0
  187.6800  177.6510  144.6920 C   0  0  2  0  0  3  0  0  0  0  0  0
  186.4570  178.3660  146.7280 C   0  0  0  0  0  0  0  0  0  0  0  0
  188.7670  177.0910  145.6150 C   0  0  0  0  0  2  0  0  0  0  0  0
  186.3300  177.6670  145.4070 C   0  0  0  0  0  2  0  0  0  0  0  0
  185.6120  179.1690  147.0830 O   0  0  0  0  0  0  0  0  0  0  0  0
  187.5900  178.0050  147.6400 C   0  0  0  0  0  2  0  0  0  0  0  0
  1 16  1  0  0  0  0
  2 10  1  0  0  0  0
  2  9  1  1  0  0  0
  3  4  1  0  0  0  0
  3  6  1  0  0  0  0
  4  2  1  0  0  0  0
  5  3  2  0  0  0  0
  6  8  1  6  0  0  0
  6 10  1  0  0  0  0
 10  7  1  6  0  0  0
 10  1  1  0  0  0  0
 11  2  1  0  0  0  0
 12 11  1  0  0  0  0
 13 12  1  0  0  0  0
 13 14  1  0  0  0  0
 14 15  3  0  0  0  0
 17 16  1  6  0  0  0
 17 20  1  0  0  0  0
 18 17  1  0  0  0  0
 18 19  1  0  0  0  0
 20 21  1  0  0  0  0
 22 28  1  0  0  0  0
 23 21  1  6  0  0  0
 23 26  1  0  0  0  0
 23 25  1  0  0  0  0
 24 27  2  0  0  0  0
 24 28  1  0  0  0  0
 25 22  1  0  0  0  0
 26 24  1  0  0  0  0
M  END
>  <MODEL>
7

>  <REMARK>
 VINA RESULT:      -6.3      3.067      6.229
  Name = 
  11 active torsions:
  status: ('A' for Active; 'I' for Inactive)
    1  A    between atoms: C_1  and  C_11
    2  A    between atoms: C_5  and  C_25
    3  A    between atoms: N_6  and  C_8
    4  A    between atoms: N_6  and  C_22
    5  A    between atoms: C_8  and  C_11
    6  A    between atoms: C_9  and  C_18
    7  A    between atoms: C_10  and  C_17
    8  A    between atoms: C_10  and  C_25
    9  A    between atoms: C_14  and  C_18
   10  A    between atoms: C_14  and  C_25
   11  A    between atoms: C_17  and  C_27
                            x       y       z     vdW  Elec       q    Type
                         _______ _______ _______ _____ _____    ______ ____

>  <TORSDO>
F 11

$$$$
=
 OpenBabel10272402013D

 28 29  0  0  1  0  0  0  0  0999 V2000
  188.7470  177.6770  139.3180 C   0  0  0  0  0  2  0  0  0  0  0  0
  189.8130  176.6990  137.2140 C   0  0  2  0  0  0  0  0  0  0  0  0
  187.4960  175.6660  137.1470 C   0  0  0  0  0  0  0  0  0  0  0  0
  189.1440  175.0010  137.3170 S   0  0  0  0  0  0  0  0  0  0  0  0
  186.5530  174.9510  136.8490 O   0  0  0  0  0  0  0  0  0  0  0  0
  187.3340  177.1330  137.3610 C   0  0  2  0  0  3  0  0  0  0  0  0
  188.9710  179.1190  137.3070 C   0  0  0  0  0  1  0  0  0  0  0  0
  186.7260  177.7910  136.1250 C   0  0  0  0  0  1  0  0  0  0  0  0
  191.0910  176.7430  138.0440 C   0  0  0  0  0  1  0  0  0  0  0  0
  188.7210  177.6790  137.7770 C   0  0  1  0  0  0  0  0  0  0  0  0
  190.2610  177.0110  135.7710 C   0  0  0  0  0  2  0  0  0  0  0  0
  190.8330  175.8310  134.9950 C   0  0  0  0  0  2  0  0  0  0  0  0
  192.1680  176.1440  134.5130 N   0  0  0  0  0  2  0  0  0  0  0  0
  193.3040  175.8190  135.2680 C   0  0  0  0  0  0  0  0  0  0  0  0
  194.2800  175.5410  135.9160 C   0  0  0  0  0  3  0  0  0  0  0  0
  187.3920  178.0030  139.9530 C   0  0  0  0  0  2  0  0  0  0  0  0
  187.5350  178.7800  141.2640 C   0  0  1  0  0  3  0  0  0  0  0  0
  186.1790  179.1610  141.8410 C   0  0  0  0  0  2  0  0  0  0  0  0
  185.3120  179.5340  140.8140 O   0  0  0  0  0  1  0  0  0  0  0  0
  188.3440  178.0070  142.2990 C   0  0  0  0  0  2  0  0  0  0  0  0
  187.4730  177.0340  143.0850 C   0  0  0  0  0  2  0  0  0  0  0  0
  187.5360  177.5480  146.9050 C   0  0  0  0  0  2  0  0  0  0  0  0
  187.9530  176.9010  144.5210 C   0  0  2  0  0  3  0  0  0  0  0  0
  189.8530  177.3780  146.0410 C   0  0  0  0  0  0  0  0  0  0  0  0
  187.0720  177.7290  145.4600 C   0  0  0  0  0  2  0  0  0  0  0  0
  189.4080  177.3610  144.6100 C   0  0  0  0  0  2  0  0  0  0  0  0
  190.9450  176.9310  146.3520 O   0  0  0  0  0  0  0  0  0  0  0  0
  188.9780  178.0240  147.0730 C   0  0  0  0  0  2  0  0  0  0  0  0
  1 16  1  0  0  0  0
  2  4  1  0  0  0  0
  2 10  1  0  0  0  0
  2  9  1  1  0  0  0
  3  4  1  0  0  0  0
  3  6  1  0  0  0  0
  5  3  2  0  0  0  0
  6  8  1  6  0  0  0
  6 10  1  0  0  0  0
 10  7  1  6  0  0  0
 10  1  1  0  0  0  0
 11  2  1  0  0  0  0
 12 11  1  0  0  0  0
 13 12  1  0  0  0  0
 13 14  1  0  0  0  0
 14 15  3  0  0  0  0
 17 16  1  6  0  0  0
 17 18  1  0  0  0  0
 17 20  1  0  0  0  0
 19 18  1  0  0  0  0
 20 21  1  0  0  0  0
 22 28  1  0  0  0  0
 23 21  1  6  0  0  0
 23 26  1  0  0  0  0
 23 25  1  0  0  0  0
 24 27  2  0  0  0  0
 24 28  1  0  0  0  0
 25 22  1  0  0  0  0
 26 24  1  0  0  0  0
M  END
>  <MODEL>
8

>  <REMARK>
 VINA RESULT:      -6.2      3.050      6.378
  Name = 
  11 active torsions:
  status: ('A' for Active; 'I' for Inactive)
    1  A    between atoms: C_1  and  C_11
    2  A    between atoms: C_5  and  C_25
    3  A    between atoms: N_6  and  C_8
    4  A    between atoms: N_6  and  C_22
    5  A    between atoms: C_8  and  C_11
    6  A    between atoms: C_9  and  C_18
    7  A    between atoms: C_10  and  C_17
    8  A    between atoms: C_10  and  C_25
    9  A    between atoms: C_14  and  C_18
   10  A    between atoms: C_14  and  C_25
   11  A    between atoms: C_17  and  C_27
                            x       y       z     vdW  Elec       q    Type
                         _______ _______ _______ _____ _____    ______ ____

>  <TORSDO>
F 11

$$$$
=
 OpenBabel10272402013D

 28 29  0  0  1  0  0  0  0  0999 V2000
  188.3470  177.0630  139.5150 C   0  0  0  0  0  2  0  0  0  0  0  0
  189.2880  176.3520  137.2510 C   0  0  2  0  0  0  0  0  0  0  0  0
  186.7920  176.3420  136.7970 C   0  0  0  0  0  0  0  0  0  0  0  0
  188.0520  175.0780  136.8130 S   0  0  0  0  0  0  0  0  0  0  0  0
  185.7090  176.1490  136.2660 O   0  0  0  0  0  0  0  0  0  0  0  0
  187.1310  177.6440  137.4390 C   0  0  2  0  0  3  0  0  0  0  0  0
  189.3570  178.7900  138.0420 C   0  0  0  0  0  1  0  0  0  0  0  0
  186.9830  178.7880  136.4400 C   0  0  0  0  0  1  0  0  0  0  0  0
  190.3630  175.6820  138.0980 C   0  0  0  0  0  1  0  0  0  0  0  0
  188.5460  177.4860  138.0460 C   0  0  1  0  0  0  0  0  0  0  0  0
  190.0220  176.8430  135.9850 C   0  0  0  0  0  2  0  0  0  0  0  0
  191.3200  176.1150  135.6590 C   0  0  0  0  0  2  0  0  0  0  0  0
  191.1040  175.1480  134.5960 N   0  0  0  0  0  2  0  0  0  0  0  0
  191.0920  173.7720  134.8600 C   0  0  0  0  0  0  0  0  0  0  0  0
  191.0820  172.5890  135.0880 C   0  0  0  0  0  3  0  0  0  0  0  0
  188.9080  178.0710  140.5230 C   0  0  0  0  0  2  0  0  0  0  0  0
  189.6340  177.3890  141.6850 C   0  0  1  0  0  3  0  0  0  0  0  0
  191.1300  177.2850  141.4270 C   0  0  0  0  0  2  0  0  0  0  0  0
  191.8240  177.2900  142.6370 O   0  0  0  0  0  1  0  0  0  0  0  0
  189.3820  178.1000  143.0090 C   0  0  0  0  0  2  0  0  0  0  0  0
  188.8770  177.1390  144.0790 C   0  0  0  0  0  2  0  0  0  0  0  0
  188.9780  178.0360  147.8270 C   0  0  0  0  0  2  0  0  0  0  0  0
  188.5390  177.8740  145.3660 C   0  0  2  0  0  3  0  0  0  0  0  0
  186.6930  178.3980  146.9380 C   0  0  0  0  0  0  0  0  0  0  0  0
  189.2910  177.2580  146.5500 C   0  0  0  0  0  2  0  0  0  0  0  0
  187.0300  177.8090  145.6010 C   0  0  0  0  0  2  0  0  0  0  0  0
  185.7450  179.1550  147.0550 O   0  0  0  0  0  0  0  0  0  0  0  0
  187.4840  177.9820  148.1410 C   0  0  0  0  0  2  0  0  0  0  0  0
  1 16  1  0  0  0  0
  2 10  1  0  0  0  0
  2  9  1  1  0  0  0
  3  4  1  0  0  0  0
  3  6  1  0  0  0  0
  4  2  1  0  0  0  0
  5  3  2  0  0  0  0
  6  8  1  6  0  0  0
  6 10  1  0  0  0  0
 10  7  1  6  0  0  0
 10  1  1  0  0  0  0
 11  2  1  0  0  0  0
 12 11  1  0  0  0  0
 13 14  1  0  0  0  0
 13 12  1  0  0  0  0
 14 15  3  0  0  0  0
 17 16  1  6  0  0  0
 17 20  1  0  0  0  0
 18 17  1  0  0  0  0
 18 19  1  0  0  0  0
 20 21  1  0  0  0  0
 22 28  1  0  0  0  0
 23 21  1  6  0  0  0
 23 26  1  0  0  0  0
 23 25  1  0  0  0  0
 24 27  2  0  0  0  0
 24 28  1  0  0  0  0
 25 22  1  0  0  0  0
 26 24  1  0  0  0  0
M  END
>  <MODEL>
9

>  <REMARK>
 VINA RESULT:      -6.0      3.237      6.397
  Name = 
  11 active torsions:
  status: ('A' for Active; 'I' for Inactive)
    1  A    between atoms: C_1  and  C_11
    2  A    between atoms: C_5  and  C_25
    3  A    between atoms: N_6  and  C_8
    4  A    between atoms: N_6  and  C_22
    5  A    between atoms: C_8  and  C_11
    6  A    between atoms: C_9  and  C_18
    7  A    between atoms: C_10  and  C_17
    8  A    between atoms: C_10  and  C_25
    9  A    between atoms: C_14  and  C_18
   10  A    between atoms: C_14  and  C_25
   11  A    between atoms: C_17  and  C_27
                            x       y       z     vdW  Elec       q    Type
                         _______ _______ _______ _____ _____    ______ ____

>  <TORSDO>
F 11

$$$$
