=
 OpenBabel10272401133D

 27 30  0  0  1  0  0  0  0  0999 V2000
  188.7590  177.9650  142.2320 C   0  0  2  0  0  3  0  0  0  0  0  0
  188.4840  177.7240  140.7380 C   0  0  1  0  0  3  0  0  0  0  0  0
  187.7050  177.5630  136.3400 S   0  0  0  0  0  0  0  0  0  0  0  0
  188.5600  174.9680  136.4580 C   0  0  0  0  0  1  0  0  0  0  0  0
  187.1970  178.4090  140.2980 C   0  0  0  0  0  2  0  0  0  0  0  0
  189.3990  176.4890  138.0920 O   0  0  0  0  0  0  0  0  0  0  0  0
  189.3480  177.8590  138.3630 C   0  0  1  0  0  3  0  0  0  0  0  0
  189.0340  176.3780  136.7410 C   0  0  2  0  0  3  0  0  0  0  0  0
  187.9980  178.3950  137.9090 C   0  0  2  0  0  3  0  0  0  0  0  0
  189.6450  178.1490  139.8340 C   0  0  0  0  0  2  0  0  0  0  0  0
  186.8720  178.0020  138.8690 C   0  0  0  0  0  2  0  0  0  0  0  0
  190.3800  178.4880  144.0300 N   0  0  0  0  0  0  0  0  0  0  0  0
  191.6410  176.4750  143.6370 C   0  0  1  0  0  3  0  0  0  0  0  0
  191.3930  179.5380  144.1150 C   0  0  0  0  0  1  0  0  0  0  0  0
  191.4420  175.1080  143.8220 O   0  0  0  0  0  1  0  0  0  0  0  0
  190.2410  178.1700  142.6080 C   0  0  1  0  0  3  0  0  0  0  0  0
  191.6080  177.4880  145.8140 O   0  0  0  0  0  1  0  0  0  0  0  0
  192.0760  177.1970  141.4220 O   0  0  0  0  0  1  0  0  0  0  0  0
  191.0500  176.9050  142.3190 C   0  0  1  0  0  3  0  0  0  0  0  0
  190.8510  177.2500  144.6610 C   0  0  1  0  0  3  0  0  0  0  0  0
  188.0520  176.9250  143.1130 C   0  0  0  0  0  2  0  0  0  0  0  0
  185.0500  178.6160  145.6790 C   0  0  0  0  0  3  0  0  0  0  0  0
  186.9980  177.5050  144.0020 C   0  0  0  0  0  0  0  0  0  0  0  0
  187.1740  177.4880  145.3910 C   0  0  0  0  0  3  0  0  0  0  0  0
  186.2010  178.0430  146.2270 C   0  0  0  0  0  3  0  0  0  0  0  0
  184.8720  178.6340  144.2920 C   0  0  0  0  0  3  0  0  0  0  0  0
  185.8440  178.0800  143.4540 C   0  0  0  0  0  3  0  0  0  0  0  0
  1 21  1  1  0  0  0
  2  1  1  1  0  0  0
  3  8  1  0  0  0  0
  3  9  1  0  0  0  0
  5  2  1  0  0  0  0
  6  7  1  0  0  0  0
  7 10  1  1  0  0  0
  8  4  1  1  0  0  0
  8  6  1  0  0  0  0
  9  7  1  0  0  0  0
  9 11  1  1  0  0  0
 10  2  1  0  0  0  0
 11  5  1  0  0  0  0
 12 14  1  0  0  0  0
 12 20  1  0  0  0  0
 13 15  1  1  0  0  0
 13 20  1  0  0  0  0
 16  1  1  1  0  0  0
 16 12  1  0  0  0  0
 19 18  1  6  0  0  0
 19 16  1  0  0  0  0
 19 13  1  0  0  0  0
 20 17  1  1  0  0  0
 21 23  1  0  0  0  0
 22 25  1  0  0  0  0
 23 24  1  0  0  0  0
 24 25  2  0  0  0  0
 26 22  2  0  0  0  0
 27 23  2  0  0  0  0
 27 26  1  0  0  0  0
M  END
>  <MODEL>
1

>  <REMARK>
 VINA RESULT:      -8.6      0.000      0.000
  Name = 
  4 active torsions:
  status: ('A' for Active; 'I' for Inactive)
    1  A    between atoms: C_1  and  C_2
    2  A    between atoms: C_1  and  C_15
    3  A    between atoms: C_1  and  C_18
    4  A    between atoms: C_9  and  C_15
                            x       y       z     vdW  Elec       q    Type
                         _______ _______ _______ _____ _____    ______ ____

>  <TORSDO>
F 4

$$$$
=
 OpenBabel10272401133D

 27 30  0  0  1  0  0  0  0  0999 V2000
  188.2910  177.7590  140.9760 C   0  0  2  0  0  3  0  0  0  0  0  0
  189.0400  177.3950  142.2690 C   0  0  1  0  0  3  0  0  0  0  0  0
  191.6690  176.4870  145.7680 S   0  0  0  0  0  0  0  0  0  0  0  0
  189.4110  176.6860  147.2970 C   0  0  0  0  0  1  0  0  0  0  0  0
  190.0720  176.3030  142.0180 C   0  0  0  0  0  2  0  0  0  0  0  0
  189.4790  177.9120  145.2530 O   0  0  0  0  0  0  0  0  0  0  0  0
  190.4000  178.2040  144.2440 C   0  0  1  0  0  3  0  0  0  0  0  0
  190.2610  177.4970  146.3410 C   0  0  2  0  0  3  0  0  0  0  0  0
  191.3360  177.0150  144.0790 C   0  0  2  0  0  3  0  0  0  0  0  0
  189.6990  178.6010  142.9440 C   0  0  0  0  0  2  0  0  0  0  0  0
  190.6610  175.8520  143.3470 C   0  0  0  0  0  2  0  0  0  0  0  0
  189.3670  176.3840  139.2190 N   0  0  0  0  0  0  0  0  0  0  0  0
  188.2430  177.5630  137.4460 C   0  0  1  0  0  3  0  0  0  0  0  0
  190.7610  176.3220  138.7860 C   0  0  0  0  0  1  0  0  0  0  0  0
  186.9370  177.6620  136.9690 O   0  0  0  0  0  1  0  0  0  0  0  0
  189.1450  177.7510  139.6910 C   0  0  1  0  0  3  0  0  0  0  0  0
  188.9240  175.2790  137.1510 O   0  0  0  0  0  1  0  0  0  0  0  0
  189.2750  179.5760  138.1520 O   0  0  0  0  0  1  0  0  0  0  0  0
  188.4520  178.5360  138.5780 C   0  0  1  0  0  3  0  0  0  0  0  0
  188.4550  176.2130  138.0820 C   0  0  1  0  0  3  0  0  0  0  0  0
  187.4660  179.0440  141.1420 C   0  0  0  0  0  2  0  0  0  0  0  0
  183.4100  178.3750  142.3890 C   0  0  0  0  0  3  0  0  0  0  0  0
  186.0530  178.8010  141.5690 C   0  0  0  0  0  0  0  0  0  0  0  0
  185.7660  178.5650  142.9190 C   0  0  0  0  0  3  0  0  0  0  0  0
  184.4470  178.3530  143.3280 C   0  0  0  0  0  3  0  0  0  0  0  0
  183.6950  178.6090  141.0400 C   0  0  0  0  0  3  0  0  0  0  0  0
  185.0140  178.8220  140.6300 C   0  0  0  0  0  3  0  0  0  0  0  0
  1 21  1  1  0  0  0
  2  1  1  6  0  0  0
  2 10  1  0  0  0  0
  3  8  1  0  0  0  0
  5  2  1  0  0  0  0
  5 11  1  0  0  0  0
  6  8  1  0  0  0  0
  7 10  1  6  0  0  0
  7  6  1  0  0  0  0
  8  4  1  1  0  0  0
  9 11  1  6  0  0  0
  9  7  1  0  0  0  0
  9  3  1  0  0  0  0
 12 16  1  0  0  0  0
 13 15  1  1  0  0  0
 13 20  1  0  0  0  0
 13 19  1  0  0  0  0
 14 12  1  0  0  0  0
 16  1  1  1  0  0  0
 19 18  1  6  0  0  0
 19 16  1  0  0  0  0
 20 17  1  6  0  0  0
 20 12  1  0  0  0  0
 21 23  1  0  0  0  0
 22 25  1  0  0  0  0
 23 24  1  0  0  0  0
 24 25  2  0  0  0  0
 26 22  2  0  0  0  0
 27 26  1  0  0  0  0
 27 23  2  0  0  0  0
M  END
>  <MODEL>
2

>  <REMARK>
 VINA RESULT:      -7.8      2.925      6.059
  Name = 
  4 active torsions:
  status: ('A' for Active; 'I' for Inactive)
    1  A    between atoms: C_1  and  C_2
    2  A    between atoms: C_1  and  C_15
    3  A    between atoms: C_1  and  C_18
    4  A    between atoms: C_9  and  C_15
                            x       y       z     vdW  Elec       q    Type
                         _______ _______ _______ _____ _____    ______ ____

>  <TORSDO>
F 4

$$$$
=
 OpenBabel10272401133D

 27 30  0  0  1  0  0  0  0  0999 V2000
  187.5290  177.6270  143.2680 C   0  0  2  0  0  3  0  0  0  0  0  0
  186.4110  177.8220  142.2290 C   0  0  1  0  0  3  0  0  0  0  0  0
  183.0830  178.8750  139.4390 S   0  0  0  0  0  0  0  0  0  0  0  0
  184.1150  176.9760  137.7650 C   0  0  0  0  0  1  0  0  0  0  0  0
  185.0640  178.0360  142.9050 C   0  0  0  0  0  2  0  0  0  0  0  0
  185.6080  178.0460  139.2850 O   0  0  0  0  0  0  0  0  0  0  0  0
  185.5810  179.0960  140.2060 C   0  0  1  0  0  3  0  0  0  0  0  0
  184.4960  178.2670  138.4580 C   0  0  2  0  0  3  0  0  0  0  0  0
  184.1920  179.1640  140.8260 C   0  0  2  0  0  3  0  0  0  0  0  0
  186.6960  178.9590  141.2430 C   0  0  0  0  0  2  0  0  0  0  0  0
  183.9670  178.0480  141.8500 C   0  0  0  0  0  2  0  0  0  0  0  0
  189.7930  178.3030  142.5280 N   0  0  0  0  0  0  0  0  0  0  0  0
  190.8710  176.7750  144.0430 C   0  0  1  0  0  3  0  0  0  0  0  0
  190.4760  178.0900  141.2530 C   0  0  0  0  0  1  0  0  0  0  0  0
  191.0420  176.6730  145.4230 O   0  0  0  0  0  1  0  0  0  0  0  0
  188.8880  177.1670  142.7010 C   0  0  1  0  0  3  0  0  0  0  0  0
  191.9820  178.7870  143.3470 O   0  0  0  0  0  1  0  0  0  0  0  0
  189.7800  174.9650  142.9710 O   0  0  0  0  0  1  0  0  0  0  0  0
  189.5530  176.1630  143.6430 C   0  0  1  0  0  3  0  0  0  0  0  0
  190.7360  178.2230  143.6490 C   0  0  1  0  0  3  0  0  0  0  0  0
  187.0540  176.7780  144.4570 C   0  0  0  0  0  2  0  0  0  0  0  0
  187.1040  178.8470  148.2210 C   0  0  0  0  0  3  0  0  0  0  0  0
  187.0820  177.5050  145.7640 C   0  0  0  0  0  0  0  0  0  0  0  0
  186.0140  178.3370  146.1190 C   0  0  0  0  0  3  0  0  0  0  0  0
  186.0250  179.0070  147.3460 C   0  0  0  0  0  3  0  0  0  0  0  0
  188.1720  178.0170  147.8680 C   0  0  0  0  0  3  0  0  0  0  0  0
  188.1610  177.3460  146.6420 C   0  0  0  0  0  3  0  0  0  0  0  0
  1 21  1  1  0  0  0
  2  5  1  0  0  0  0
  2  1  1  1  0  0  0
  3  9  1  0  0  0  0
  6  7  1  0  0  0  0
  7  9  1  0  0  0  0
  7 10  1  1  0  0  0
  8  4  1  1  0  0  0
  8  6  1  0  0  0  0
  8  3  1  0  0  0  0
  9 11  1  1  0  0  0
 10  2  1  0  0  0  0
 11  5  1  0  0  0  0
 12 16  1  0  0  0  0
 12 20  1  0  0  0  0
 13 15  1  1  0  0  0
 14 12  1  0  0  0  0
 16  1  1  1  0  0  0
 16 19  1  0  0  0  0
 19 18  1  6  0  0  0
 19 13  1  0  0  0  0
 20 17  1  6  0  0  0
 20 13  1  0  0  0  0
 21 23  1  0  0  0  0
 23 24  2  0  0  0  0
 23 27  1  0  0  0  0
 24 25  1  0  0  0  0
 25 22  2  0  0  0  0
 26 22  1  0  0  0  0
 27 26  2  0  0  0  0
M  END
>  <MODEL>
3

>  <REMARK>
 VINA RESULT:      -7.8      2.471      3.372
  Name = 
  4 active torsions:
  status: ('A' for Active; 'I' for Inactive)
    1  A    between atoms: C_1  and  C_2
    2  A    between atoms: C_1  and  C_15
    3  A    between atoms: C_1  and  C_18
    4  A    between atoms: C_9  and  C_15
                            x       y       z     vdW  Elec       q    Type
                         _______ _______ _______ _____ _____    ______ ____

>  <TORSDO>
F 4

$$$$
=
 OpenBabel10272401133D

 27 30  0  0  1  0  0  0  0  0999 V2000
  188.9870  177.8500  141.6800 C   0  0  2  0  0  3  0  0  0  0  0  0
  187.7980  178.1740  142.6010 C   0  0  1  0  0  3  0  0  0  0  0  0
  184.0450  178.8040  144.9440 S   0  0  0  0  0  0  0  0  0  0  0  0
  185.6680  179.5000  147.0310 C   0  0  0  0  0  1  0  0  0  0  0  0
  186.6820  178.8700  141.8320 C   0  0  0  0  0  2  0  0  0  0  0  0
  186.5480  178.0120  145.3890 O   0  0  0  0  0  0  0  0  0  0  0  0
  186.0960  177.3160  144.2650 C   0  0  1  0  0  3  0  0  0  0  0  0
  185.3830  178.3430  146.0970 C   0  0  2  0  0  3  0  0  0  0  0  0
  185.0180  178.1450  143.5800 C   0  0  2  0  0  3  0  0  0  0  0  0
  187.2500  176.9460  143.3330 C   0  0  0  0  0  2  0  0  0  0  0  0
  185.6080  179.3280  142.8080 C   0  0  0  0  0  2  0  0  0  0  0  0
  190.2850  178.4150  143.7130 N   0  0  0  0  0  0  0  0  0  0  0  0
  191.6640  176.4510  143.5190 C   0  0  1  0  0  3  0  0  0  0  0  0
  191.2330  179.5000  143.9590 C   0  0  0  0  0  1  0  0  0  0  0  0
  191.4890  175.0760  143.6660 O   0  0  0  0  0  1  0  0  0  0  0  0
  190.3830  178.1040  142.2860 C   0  0  1  0  0  3  0  0  0  0  0  0
  191.2520  177.4450  145.6660 O   0  0  0  0  0  1  0  0  0  0  0  0
  192.4150  177.2060  141.4010 O   0  0  0  0  0  1  0  0  0  0  0  0
  191.2720  176.8710  142.1240 C   0  0  1  0  0  3  0  0  0  0  0  0
  190.6950  177.1900  144.4070 C   0  0  1  0  0  3  0  0  0  0  0  0
  188.8120  178.4760  140.2880 C   0  0  0  0  0  2  0  0  0  0  0  0
  188.7620  175.6290  137.0720 C   0  0  0  0  0  3  0  0  0  0  0  0
  188.7960  177.4750  139.1760 C   0  0  0  0  0  0  0  0  0  0  0  0
  187.6460  177.3240  138.3930 C   0  0  0  0  0  3  0  0  0  0  0  0
  187.6290  176.4030  137.3430 C   0  0  0  0  0  3  0  0  0  0  0  0
  189.9120  175.7770  137.8530 C   0  0  0  0  0  3  0  0  0  0  0  0
  189.9300  176.6990  138.9040 C   0  0  0  0  0  3  0  0  0  0  0  0
  1 21  1  6  0  0  0
  2  1  1  6  0  0  0
  2 10  1  0  0  0  0
  3  8  1  0  0  0  0
  5  2  1  0  0  0  0
  5 11  1  0  0  0  0
  6  8  1  0  0  0  0
  7 10  1  6  0  0  0
  7  6  1  0  0  0  0
  8  4  1  1  0  0  0
  9 11  1  1  0  0  0
  9  7  1  0  0  0  0
  9  3  1  0  0  0  0
 12 14  1  0  0  0  0
 12 20  1  0  0  0  0
 13 15  1  6  0  0  0
 13 20  1  0  0  0  0
 16  1  1  1  0  0  0
 16 12  1  0  0  0  0
 19 18  1  6  0  0  0
 19 16  1  0  0  0  0
 19 13  1  0  0  0  0
 20 17  1  1  0  0  0
 22 25  2  0  0  0  0
 22 26  1  0  0  0  0
 23 21  1  0  0  0  0
 24 23  2  0  0  0  0
 25 24  1  0  0  0  0
 26 27  2  0  0  0  0
 27 23  1  0  0  0  0
M  END
>  <MODEL>
4

>  <REMARK>
 VINA RESULT:      -7.8      2.265      5.814
  Name = 
  4 active torsions:
  status: ('A' for Active; 'I' for Inactive)
    1  A    between atoms: C_1  and  C_2
    2  A    between atoms: C_1  and  C_15
    3  A    between atoms: C_1  and  C_18
    4  A    between atoms: C_9  and  C_15
                            x       y       z     vdW  Elec       q    Type
                         _______ _______ _______ _____ _____    ______ ____

>  <TORSDO>
F 4

$$$$
=
 OpenBabel10272401133D

 27 30  0  0  1  0  0  0  0  0999 V2000
  190.0410  176.6900  138.6160 C   0  0  2  0  0  3  0  0  0  0  0  0
  191.2440  175.8320  138.1870 C   0  0  1  0  0  3  0  0  0  0  0  0
  194.5890  173.4460  136.4290 S   0  0  0  0  0  0  0  0  0  0  0  0
  195.8360  173.7340  138.8460 C   0  0  0  0  0  1  0  0  0  0  0  0
  190.7980  174.6430  137.3460 C   0  0  0  0  0  2  0  0  0  0  0  0
  194.2750  175.4150  138.1940 O   0  0  0  0  0  0  0  0  0  0  0  0
  193.5140  175.7510  137.0720 C   0  0  1  0  0  3  0  0  0  0  0  0
  195.2720  174.5570  137.7060 C   0  0  2  0  0  3  0  0  0  0  0  0
  193.1100  174.4690  136.3570 C   0  0  2  0  0  3  0  0  0  0  0  0
  192.3210  176.6300  137.4470 C   0  0  0  0  0  2  0  0  0  0  0  0
  191.9890  173.7300  137.0940 C   0  0  0  0  0  2  0  0  0  0  0  0
  188.3330  176.5090  136.8320 N   0  0  0  0  0  0  0  0  0  0  0  0
  187.0870  178.3890  137.6750 C   0  0  1  0  0  3  0  0  0  0  0  0
  188.4340  176.7570  135.3950 C   0  0  0  0  0  1  0  0  0  0  0  0
  186.3010  178.6590  138.7950 O   0  0  0  0  0  1  0  0  0  0  0  0
  189.2960  177.4060  137.4710 C   0  0  1  0  0  3  0  0  0  0  0  0
  185.9810  176.6450  136.4490 O   0  0  0  0  0  1  0  0  0  0  0  0
  188.9820  179.7740  137.3460 O   0  0  0  0  0  1  0  0  0  0  0  0
  188.5400  178.6250  137.9990 C   0  0  1  0  0  3  0  0  0  0  0  0
  187.0210  176.9190  137.3460 C   0  0  1  0  0  3  0  0  0  0  0  0
  190.4000  177.6270  139.7790 C   0  0  0  0  0  2  0  0  0  0  0  0
  188.6120  176.5370  143.5300 C   0  0  0  0  0  3  0  0  0  0  0  0
  189.7690  177.2410  141.0800 C   0  0  0  0  0  0  0  0  0  0  0  0
  190.4840  176.4620  141.9960 C   0  0  0  0  0  3  0  0  0  0  0  0
  189.9070  176.1110  143.2190 C   0  0  0  0  0  3  0  0  0  0  0  0
  187.8950  177.3150  142.6160 C   0  0  0  0  0  3  0  0  0  0  0  0
  188.4710  177.6670  141.3920 C   0  0  0  0  0  3  0  0  0  0  0  0
  1 21  1  1  0  0  0
  2  1  1  6  0  0  0
  3  8  1  0  0  0  0
  5  2  1  0  0  0  0
  7 10  1  1  0  0  0
  7  6  1  0  0  0  0
  8  6  1  0  0  0  0
  8  4  1  1  0  0  0
  9  3  1  0  0  0  0
  9  7  1  0  0  0  0
  9 11  1  1  0  0  0
 10  2  1  0  0  0  0
 11  5  1  0  0  0  0
 12 20  1  0  0  0  0
 12 16  1  0  0  0  0
 13 19  1  0  0  0  0
 13 15  1  1  0  0  0
 14 12  1  0  0  0  0
 16 19  1  0  0  0  0
 16  1  1  1  0  0  0
 19 18  1  6  0  0  0
 20 17  1  6  0  0  0
 20 13  1  0  0  0  0
 21 23  1  0  0  0  0
 23 27  2  0  0  0  0
 23 24  1  0  0  0  0
 24 25  2  0  0  0  0
 25 22  1  0  0  0  0
 26 22  2  0  0  0  0
 27 26  1  0  0  0  0
M  END
>  <MODEL>
5

>  <REMARK>
 VINA RESULT:      -7.6      3.693      6.314
  Name = 
  4 active torsions:
  status: ('A' for Active; 'I' for Inactive)
    1  A    between atoms: C_1  and  C_2
    2  A    between atoms: C_1  and  C_15
    3  A    between atoms: C_1  and  C_18
    4  A    between atoms: C_9  and  C_15
                            x       y       z     vdW  Elec       q    Type
                         _______ _______ _______ _____ _____    ______ ____

>  <TORSDO>
F 4

$$$$
=
 OpenBabel10272401133D

 27 30  0  0  1  0  0  0  0  0999 V2000
  188.2290  177.6580  142.1660 C   0  0  2  0  0  3  0  0  0  0  0  0
  186.7520  177.9300  142.4970 C   0  0  1  0  0  3  0  0  0  0  0  0
  182.6340  179.1630  143.7220 S   0  0  0  0  0  0  0  0  0  0  0  0
  181.7400  177.5900  141.6730 C   0  0  0  0  0  1  0  0  0  0  0  0
  186.5230  177.9620  144.0030 C   0  0  0  0  0  2  0  0  0  0  0  0
  183.9260  178.5220  141.4840 O   0  0  0  0  0  0  0  0  0  0  0  0
  184.7370  179.4260  142.1750 C   0  0  1  0  0  3  0  0  0  0  0  0
  182.6250  178.7890  141.9360 C   0  0  2  0  0  3  0  0  0  0  0  0
  184.4270  179.3180  143.6620 C   0  0  2  0  0  3  0  0  0  0  0  0
  186.2150  179.2110  141.8540 C   0  0  0  0  0  2  0  0  0  0  0  0
  185.0310  178.0560  144.2840 C   0  0  0  0  0  2  0  0  0  0  0  0
  189.5570  176.4390  143.8640 N   0  0  0  0  0  0  0  0  0  0  0  0
  191.6110  177.4950  143.1850 C   0  0  1  0  0  3  0  0  0  0  0  0
  189.5600  176.5470  145.3220 C   0  0  0  0  0  1  0  0  0  0  0  0
  192.4530  177.4440  142.0750 O   0  0  0  0  0  1  0  0  0  0  0  0
  189.2050  177.7650  143.3560 C   0  0  1  0  0  3  0  0  0  0  0  0
  191.6360  175.3100  144.1820 O   0  0  0  0  0  1  0  0  0  0  0  0
  190.6840  179.6090  143.7210 O   0  0  0  0  0  1  0  0  0  0  0  0
  190.4920  178.4740  142.9360 C   0  0  1  0  0  3  0  0  0  0  0  0
  190.9070  176.1730  143.3540 C   0  0  1  0  0  3  0  0  0  0  0  0
  188.6900  178.4560  140.9370 C   0  0  0  0  0  2  0  0  0  0  0  0
  189.3810  176.0560  137.4420 C   0  0  0  0  0  3  0  0  0  0  0  0
  188.9310  177.6100  139.7270 C   0  0  0  0  0  0  0  0  0  0  0  0
  187.9510  177.5250  138.7310 C   0  0  0  0  0  3  0  0  0  0  0  0
  188.1760  176.7490  137.5910 C   0  0  0  0  0  3  0  0  0  0  0  0
  190.3610  176.1380  138.4350 C   0  0  0  0  0  3  0  0  0  0  0  0
  190.1370  176.9140  139.5760 C   0  0  0  0  0  3  0  0  0  0  0  0
  1 21  1  6  0  0  0
  2  1  1  1  0  0  0
  2  5  1  0  0  0  0
  5 11  1  0  0  0  0
  6  8  1  0  0  0  0
  6  7  1  0  0  0  0
  7 10  1  1  0  0  0
  7  9  1  0  0  0  0
  8  4  1  1  0  0  0
  8  3  1  0  0  0  0
  9  3  1  0  0  0  0
  9 11  1  6  0  0  0
 10  2  1  0  0  0  0
 12 14  1  0  0  0  0
 13 15  1  6  0  0  0
 13 20  1  0  0  0  0
 16  1  1  6  0  0  0
 16 12  1  0  0  0  0
 19 13  1  0  0  0  0
 19 16  1  0  0  0  0
 19 18  1  1  0  0  0
 20 12  1  0  0  0  0
 20 17  1  1  0  0  0
 22 25  2  0  0  0  0
 22 26  1  0  0  0  0
 23 21  1  0  0  0  0
 24 23  2  0  0  0  0
 25 24  1  0  0  0  0
 26 27  2  0  0  0  0
 27 23  1  0  0  0  0
M  END
>  <MODEL>
6

>  <REMARK>
 VINA RESULT:      -7.2      2.736      5.609
  Name = 
  4 active torsions:
  status: ('A' for Active; 'I' for Inactive)
    1  A    between atoms: C_1  and  C_2
    2  A    between atoms: C_1  and  C_15
    3  A    between atoms: C_1  and  C_18
    4  A    between atoms: C_9  and  C_15
                            x       y       z     vdW  Elec       q    Type
                         _______ _______ _______ _____ _____    ______ ____

>  <TORSDO>
F 4

$$$$
=
 OpenBabel10272401133D

 27 30  0  0  1  0  0  0  0  0999 V2000
  188.9320  177.6850  141.9970 C   0  0  2  0  0  3  0  0  0  0  0  0
  187.4060  177.8410  141.8810 C   0  0  1  0  0  3  0  0  0  0  0  0
  183.0220  178.7110  141.8900 S   0  0  0  0  0  0  0  0  0  0  0  0
  182.9230  177.3570  139.5170 C   0  0  0  0  0  1  0  0  0  0  0  0
  186.7320  177.6780  143.2370 C   0  0  0  0  0  2  0  0  0  0  0  0
  184.9780  178.4120  140.1080 O   0  0  0  0  0  0  0  0  0  0  0  0
  185.4630  179.2640  141.1040 C   0  0  1  0  0  3  0  0  0  0  0  0
  183.5840  178.5580  140.1610 C   0  0  2  0  0  3  0  0  0  0  0  0
  184.7290  178.9610  142.4030 C   0  0  2  0  0  3  0  0  0  0  0  0
  186.9830  179.1630  141.2350 C   0  0  0  0  0  2  0  0  0  0  0  0
  185.2220  177.6630  143.0500 C   0  0  0  0  0  2  0  0  0  0  0  0
  190.6190  176.8060  140.4110 N   0  0  0  0  0  0  0  0  0  0  0  0
  189.1260  177.0060  138.5330 C   0  0  1  0  0  3  0  0  0  0  0  0
  191.8720  177.3920  139.9410 C   0  0  0  0  0  1  0  0  0  0  0  0
  187.9650  176.3710  138.0940 O   0  0  0  0  0  1  0  0  0  0  0  0
  189.7240  177.9280  140.6960 C   0  0  1  0  0  3  0  0  0  0  0  0
  190.8690  175.3550  138.5340 O   0  0  0  0  0  1  0  0  0  0  0  0
  188.9820  179.3410  138.9150 O   0  0  0  0  0  1  0  0  0  0  0  0
  188.7740  178.0980  139.5110 C   0  0  1  0  0  3  0  0  0  0  0  0
  189.9600  176.0460  139.3430 C   0  0  1  0  0  3  0  0  0  0  0  0
  189.3140  176.3730  142.6980 C   0  0  0  0  0  2  0  0  0  0  0  0
  191.0870  176.9140  146.5740 C   0  0  0  0  0  3  0  0  0  0  0  0
  189.9400  176.5700  144.0430 C   0  0  0  0  0  0  0  0  0  0  0  0
  189.1740  177.0770  145.0990 C   0  0  0  0  0  3  0  0  0  0  0  0
  189.7460  177.2490  146.3620 C   0  0  0  0  0  3  0  0  0  0  0  0
  191.8550  176.4070  145.5210 C   0  0  0  0  0  3  0  0  0  0  0  0
  191.2830  176.2350  144.2570 C   0  0  0  0  0  3  0  0  0  0  0  0
  1 21  1  6  0  0  0
  2  1  1  1  0  0  0
  2  5  1  0  0  0  0
  3  9  1  0  0  0  0
  6  8  1  0  0  0  0
  6  7  1  0  0  0  0
  7 10  1  1  0  0  0
  7  9  1  0  0  0  0
  8  4  1  1  0  0  0
  8  3  1  0  0  0  0
  9 11  1  6  0  0  0
 10  2  1  0  0  0  0
 11  5  1  0  0  0  0
 12 16  1  0  0  0  0
 13 15  1  1  0  0  0
 13 20  1  0  0  0  0
 13 19  1  0  0  0  0
 14 12  1  0  0  0  0
 16  1  1  1  0  0  0
 19 18  1  6  0  0  0
 19 16  1  0  0  0  0
 20 17  1  6  0  0  0
 20 12  1  0  0  0  0
 21 23  1  0  0  0  0
 23 27  2  0  0  0  0
 23 24  1  0  0  0  0
 24 25  2  0  0  0  0
 25 22  1  0  0  0  0
 26 22  2  0  0  0  0
 27 26  1  0  0  0  0
M  END
>  <MODEL>
7

>  <REMARK>
 VINA RESULT:      -7.1      2.996      5.002
  Name = 
  4 active torsions:
  status: ('A' for Active; 'I' for Inactive)
    1  A    between atoms: C_1  and  C_2
    2  A    between atoms: C_1  and  C_15
    3  A    between atoms: C_1  and  C_18
    4  A    between atoms: C_9  and  C_15
                            x       y       z     vdW  Elec       q    Type
                         _______ _______ _______ _____ _____    ______ ____

>  <TORSDO>
F 4

$$$$
=
 OpenBabel10272401133D

 27 30  0  0  1  0  0  0  0  0999 V2000
  185.9830  177.4570  144.2620 C   0  0  2  0  0  3  0  0  0  0  0  0
  187.4850  177.1300  144.2240 C   0  0  1  0  0  3  0  0  0  0  0  0
  191.8550  176.4140  143.6210 S   0  0  0  0  0  0  0  0  0  0  0  0
  192.0140  176.1640  146.3390 C   0  0  0  0  0  1  0  0  0  0  0  0
  187.8210  176.2290  143.0430 C   0  0  0  0  0  2  0  0  0  0  0  0
  190.2620  177.5150  145.4490 O   0  0  0  0  0  0  0  0  0  0  0  0
  189.8580  178.0100  144.2070 C   0  0  1  0  0  3  0  0  0  0  0  0
  191.6070  177.1560  145.2700 C   0  0  2  0  0  3  0  0  0  0  0  0
  190.2210  176.9920  143.1350 C   0  0  2  0  0  3  0  0  0  0  0  0
  188.3740  178.3770  144.2070 C   0  0  0  0  0  2  0  0  0  0  0  0
  189.2750  175.7880  143.1420 C   0  0  0  0  0  2  0  0  0  0  0  0
  185.1980  178.1630  142.0220 N   0  0  0  0  0  0  0  0  0  0  0  0
  183.2230  179.2110  142.9160 C   0  0  1  0  0  3  0  0  0  0  0  0
  185.7440  179.1530  141.0950 C   0  0  0  0  0  1  0  0  0  0  0  0
  182.0370  178.7860  143.5120 O   0  0  0  0  0  1  0  0  0  0  0  0
  185.5370  178.6310  143.3660 C   0  0  1  0  0  3  0  0  0  0  0  0
  183.2340  178.3400  140.6780 O   0  0  0  0  0  1  0  0  0  0  0  0
  184.5920  180.6670  144.1900 O   0  0  0  0  0  1  0  0  0  0  0  0
  184.3090  179.3230  143.9570 C   0  0  1  0  0  3  0  0  0  0  0  0
  183.7310  178.1510  141.9730 C   0  0  1  0  0  3  0  0  0  0  0  0
  185.4640  177.5700  145.7040 C   0  0  0  0  0  2  0  0  0  0  0  0
  188.6010  178.0600  148.5980 C   0  0  0  0  0  3  0  0  0  0  0  0
  186.5480  177.7430  146.7210 C   0  0  0  0  0  0  0  0  0  0  0  0
  187.3830  176.6650  147.0370 C   0  0  0  0  0  3  0  0  0  0  0  0
  188.4080  176.8230  147.9740 C   0  0  0  0  0  3  0  0  0  0  0  0
  187.7670  179.1370  148.2850 C   0  0  0  0  0  3  0  0  0  0  0  0
  186.7420  178.9800  147.3480 C   0  0  0  0  0  3  0  0  0  0  0  0
  1 21  1  1  0  0  0
  2  1  1  6  0  0  0
  3  8  1  0  0  0  0
  5 11  1  0  0  0  0
  5  2  1  0  0  0  0
  7 10  1  1  0  0  0
  7  6  1  0  0  0  0
  8  6  1  0  0  0  0
  8  4  1  1  0  0  0
  9 11  1  1  0  0  0
  9  3  1  0  0  0  0
  9  7  1  0  0  0  0
 10  2  1  0  0  0  0
 12 16  1  0  0  0  0
 13 15  1  1  0  0  0
 13 19  1  0  0  0  0
 14 12  1  0  0  0  0
 16 19  1  0  0  0  0
 16  1  1  1  0  0  0
 19 18  1  6  0  0  0
 20 17  1  6  0  0  0
 20 12  1  0  0  0  0
 20 13  1  0  0  0  0
 21 23  1  0  0  0  0
 23 24  2  0  0  0  0
 23 27  1  0  0  0  0
 24 25  1  0  0  0  0
 25 22  2  0  0  0  0
 26 22  1  0  0  0  0
 27 26  2  0  0  0  0
M  END
>  <MODEL>
8

>  <REMARK>
 VINA RESULT:      -6.9      3.711      6.480
  Name = 
  4 active torsions:
  status: ('A' for Active; 'I' for Inactive)
    1  A    between atoms: C_1  and  C_2
    2  A    between atoms: C_1  and  C_15
    3  A    between atoms: C_1  and  C_18
    4  A    between atoms: C_9  and  C_15
                            x       y       z     vdW  Elec       q    Type
                         _______ _______ _______ _____ _____    ______ ____

>  <TORSDO>
F 4

$$$$
=
 OpenBabel10272401133D

 27 30  0  0  1  0  0  0  0  0999 V2000
  189.5750  177.7130  140.7770 C   0  0  2  0  0  3  0  0  0  0  0  0
  188.1140  177.8070  141.2490 C   0  0  1  0  0  3  0  0  0  0  0  0
  184.0500  178.4140  143.0060 S   0  0  0  0  0  0  0  0  0  0  0  0
  183.0710  177.5810  140.5930 C   0  0  0  0  0  1  0  0  0  0  0  0
  187.9690  177.3270  142.6870 C   0  0  0  0  0  2  0  0  0  0  0  0
  185.2260  178.6010  140.6240 O   0  0  0  0  0  0  0  0  0  0  0  0
  186.0570  179.2510  141.5400 C   0  0  1  0  0  3  0  0  0  0  0  0
  183.9480  178.6560  141.2000 C   0  0  2  0  0  3  0  0  0  0  0  0
  185.8330  178.6440  142.9180 C   0  0  2  0  0  3  0  0  0  0  0  0
  187.5200  179.2090  141.0960 C   0  0  0  0  0  2  0  0  0  0  0  0
  186.4930  177.2690  143.0530 C   0  0  0  0  0  2  0  0  0  0  0  0
  189.9690  176.4310  138.6950 N   0  0  0  0  0  0  0  0  0  0  0  0
  188.0390  177.3770  137.6110 C   0  0  1  0  0  3  0  0  0  0  0  0
  191.0340  176.5440  137.7010 C   0  0  0  0  0  1  0  0  0  0  0  0
  186.6550  177.2800  137.7480 O   0  0  0  0  0  1  0  0  0  0  0  0
  189.7840  177.7720  139.2500 C   0  0  1  0  0  3  0  0  0  0  0  0
  188.8370  175.1980  136.9950 O   0  0  0  0  0  1  0  0  0  0  0  0
  188.9820  179.5380  137.8510 O   0  0  0  0  0  1  0  0  0  0  0  0
  188.5770  178.4130  138.5660 C   0  0  1  0  0  3  0  0  0  0  0  0
  188.6900  176.0940  138.0600 C   0  0  1  0  0  3  0  0  0  0  0  0
  190.3100  176.5380  141.4400 C   0  0  0  0  0  2  0  0  0  0  0  0
  191.8170  177.4650  145.3550 C   0  0  0  0  0  3  0  0  0  0  0  0
  190.8450  176.8540  142.8010 C   0  0  0  0  0  0  0  0  0  0  0  0
  191.1210  178.1810  143.1490 C   0  0  0  0  0  3  0  0  0  0  0  0
  191.6060  178.4860  144.4240 C   0  0  0  0  0  3  0  0  0  0  0  0
  191.5430  176.1380  145.0100 C   0  0  0  0  0  3  0  0  0  0  0  0
  191.0580  175.8320  143.7350 C   0  0  0  0  0  3  0  0  0  0  0  0
  1 21  1  6  0  0  0
  2  1  1  1  0  0  0
  2  5  1  0  0  0  0
  5 11  1  0  0  0  0
  6  8  1  0  0  0  0
  6  7  1  0  0  0  0
  7 10  1  6  0  0  0
  7  9  1  0  0  0  0
  8  4  1  6  0  0  0
  8  3  1  0  0  0  0
  9  3  1  0  0  0  0
  9 11  1  6  0  0  0
 10  2  1  0  0  0  0
 12 16  1  0  0  0  0
 13 15  1  1  0  0  0
 13 20  1  0  0  0  0
 13 19  1  0  0  0  0
 14 12  1  0  0  0  0
 16  1  1  1  0  0  0
 19 18  1  6  0  0  0
 19 16  1  0  0  0  0
 20 17  1  6  0  0  0
 20 12  1  0  0  0  0
 21 23  1  0  0  0  0
 23 24  2  0  0  0  0
 23 27  1  0  0  0  0
 24 25  1  0  0  0  0
 25 22  2  0  0  0  0
 26 22  1  0  0  0  0
 27 26  2  0  0  0  0
M  END
>  <MODEL>
9

>  <REMARK>
 VINA RESULT:      -6.8      3.298      5.741
  Name = 
  4 active torsions:
  status: ('A' for Active; 'I' for Inactive)
    1  A    between atoms: C_1  and  C_2
    2  A    between atoms: C_1  and  C_15
    3  A    between atoms: C_1  and  C_18
    4  A    between atoms: C_9  and  C_15
                            x       y       z     vdW  Elec       q    Type
                         _______ _______ _______ _____ _____    ______ ____

>  <TORSDO>
F 4

$$$$
