=
 OpenBabel10272414593D

 37 45  0  0  1  0  0  0  0  0999 V2000
  190.0370  177.6960  140.7200 O   0  0  0  0  0  0  0  0  0  0  0  0
  191.7050  177.5160  145.1010 C   0  0  0  0  0  2  0  0  0  0  0  0
  187.4620  177.5040  144.4270 C   0  0  0  0  0  0  0  0  0  0  0  0
  190.1130  177.1200  139.4350 C   0  0  0  0  0  0  0  0  0  0  0  0
  185.7160  178.2790  141.0650 C   0  0  0  0  0  2  0  0  0  0  0  0
  189.3070  177.6910  146.0900 C   0  0  1  0  0  3  0  0  0  0  0  0
  187.1620  177.6510  142.9720 C   0  0  1  0  0  3  0  0  0  0  0  0
  190.2380  175.6180  139.3210 C   0  0  0  0  0  2  0  0  0  0  0  0
  188.7580  177.6520  144.6780 C   0  0  0  0  0  0  0  0  0  0  0  0
  185.9260  178.4790  142.5740 C   0  0  2  0  0  3  0  0  0  0  0  0
  188.4060  176.9720  147.0600 C   0  0  0  0  0  3  0  0  0  0  0  0
  189.5740  177.8430  138.3410 O   0  0  0  0  0  0  0  0  0  0  0  0
  189.5250  178.0050  143.4450 C   0  0  2  0  0  3  0  0  0  0  0  0
  191.7920  179.0210  143.1360 C   0  0  0  0  0  2  0  0  0  0  0  0
  185.5030  178.2460  145.7200 C   0  0  0  0  0  3  0  0  0  0  0  0
  191.4600  176.5120  139.1370 C   0  0  0  0  0  2  0  0  0  0  0  0
  187.1150  176.7230  146.7900 C   0  0  0  0  0  3  0  0  0  0  0  0
  190.3990  179.2370  143.6940 C   0  0  2  0  0  3  0  0  0  0  0  0
  188.2120  178.1570  138.5940 C   0  0  2  0  0  3  0  0  0  0  0  0
  186.5800  179.2470  140.2620 C   0  0  0  0  0  2  0  0  0  0  0  0
  186.4590  177.1220  145.4890 C   0  0  2  0  0  3  0  0  0  0  0  0
  188.4240  178.3230  142.4350 C   0  0  1  0  0  3  0  0  0  0  0  0
  190.7430  177.1660  146.2420 C   0  0  0  0  0  2  0  0  0  0  0  0
  184.6550  178.0990  143.3730 C   0  0  1  0  0  3  0  0  0  0  0  0
  191.5850  178.9700  144.6370 C   0  0  1  0  0  3  0  0  0  0  0  0
  188.0180  178.7630  139.9890 C   0  0  1  0  0  3  0  0  0  0  0  0
  188.6690  177.8270  141.0150 C   0  0  1  0  0  3  0  0  0  0  0  0
  184.6850  178.6850  144.7600 C   0  0  0  0  0  3  0  0  0  0  0  0
  183.1870  178.3570  141.3210 C   0  0  0  0  0  3  0  0  0  0  0  0
  183.3780  178.5250  142.7020 C   0  0  0  0  0  0  0  0  0  0  0  0
  182.3610  179.0970  143.4750 C   0  0  0  0  0  3  0  0  0  0  0  0
  180.1820  180.0510  143.6290 F   0  0  0  0  0  0  0  0  0  0  0  0
  180.9770  179.3280  141.5010 C   0  0  0  0  0  3  0  0  0  0  0  0
  181.1630  179.4980  142.8760 C   0  0  0  0  0  0  0  0  0  0  0  0
  181.9890  178.7580  140.7240 C   0  0  0  0  0  3  0  0  0  0  0  0
  187.3030  176.9540  138.3370 C   0  0  0  0  0  2  0  0  0  0  0  0
  186.4450  177.1980  137.1110 C   0  0  0  0  0  1  0  0  0  0  0  0
  1 27  1  0  0  0  0
  2 23  1  0  0  0  0
  3  9  2  0  0  0  0
  3 21  1  0  0  0  0
  4  1  1  0  0  0  0
  6 23  1  6  0  0  0
  6 11  1  0  0  0  0
  7  3  1  1  0  0  0
  8  4  1  0  0  0  0
  9  6  1  0  0  0  0
 10  5  1  6  0  0  0
 10  7  1  0  0  0  0
 10 24  1  0  0  0  0
 12 19  1  0  0  0  0
 12  4  1  0  0  0  0
 13 18  1  0  0  0  0
 13  9  1  1  0  0  0
 14 25  1  0  0  0  0
 16  8  1  0  0  0  0
 16  4  1  0  0  0  0
 17 11  2  0  0  0  0
 18 14  1  6  0  0  0
 18 25  1  0  0  0  0
 19 36  1  1  0  0  0
 19 26  1  0  0  0  0
 20  5  1  0  0  0  0
 21 15  1  1  0  0  0
 21 17  1  0  0  0  0
 22  7  1  0  0  0  0
 22 13  1  0  0  0  0
 24 28  1  0  0  0  0
 25  2  1  0  0  0  0
 26 20  1  0  0  0  0
 26 27  1  0  0  0  0
 27 22  1  0  0  0  0
 28 15  2  0  0  0  0
 29 30  1  0  0  0  0
 30 24  1  0  0  0  0
 30 31  2  0  0  0  0
 33 34  2  0  0  0  0
 34 31  1  0  0  0  0
 34 32  1  0  0  0  0
 35 29  2  0  0  0  0
 35 33  1  0  0  0  0
 37 36  1  0  0  0  0
M  END
>  <MODEL>
1

>  <REMARK>
 VINA RESULT:      -8.8      0.000      0.000
  Name = 
  2 active torsions:
  status: ('A' for Active; 'I' for Inactive)
    1  A    between atoms: C_6  and  C_31
    2  A    between atoms: C_11  and  C_26
                            x       y       z     vdW  Elec       q    Type
                         _______ _______ _______ _____ _____    ______ ____

>  <TORSDO>
F 2

$$$$
=
 OpenBabel10272414593D

 37 45  0  0  1  0  0  0  0  0999 V2000
  190.5720  177.3400  140.1260 O   0  0  0  0  0  0  0  0  0  0  0  0
  191.5100  177.2770  144.7230 C   0  0  0  0  0  2  0  0  0  0  0  0
  187.4410  177.5790  143.3750 C   0  0  0  0  0  0  0  0  0  0  0  0
  190.7950  176.6870  138.8970 C   0  0  0  0  0  0  0  0  0  0  0  0
  186.3210  178.3000  139.7450 C   0  0  0  0  0  2  0  0  0  0  0  0
  189.0130  177.7090  145.3040 C   0  0  1  0  0  3  0  0  0  0  0  0
  187.3880  177.6660  141.8860 C   0  0  1  0  0  3  0  0  0  0  0  0
  190.7990  175.1750  138.8710 C   0  0  0  0  0  2  0  0  0  0  0  0
  188.6910  177.6330  143.8250 C   0  0  0  0  0  0  0  0  0  0  0  0
  186.3100  178.5690  141.2580 C   0  0  2  0  0  3  0  0  0  0  0  0
  187.9090  177.1250  146.1470 C   0  0  0  0  0  3  0  0  0  0  0  0
  190.5030  177.3870  137.7000 O   0  0  0  0  0  0  0  0  0  0  0  0
  189.6700  177.8480  142.7170 C   0  0  2  0  0  3  0  0  0  0  0  0
  192.0410  178.6530  142.7330 C   0  0  0  0  0  2  0  0  0  0  0  0
  185.3800  178.5550  144.3020 C   0  0  0  0  0  3  0  0  0  0  0  0
  192.1120  175.9520  138.8470 C   0  0  0  0  0  2  0  0  0  0  0  0
  186.6590  176.9680  145.6840 C   0  0  0  0  0  3  0  0  0  0  0  0
  190.6030  179.0160  143.0490 C   0  0  2  0  0  3  0  0  0  0  0  0
  189.1520  177.8280  137.7150 C   0  0  2  0  0  3  0  0  0  0  0  0
  187.3860  179.1450  139.0490 C   0  0  0  0  0  2  0  0  0  0  0  0
  186.2550  177.3450  144.2780 C   0  0  2  0  0  3  0  0  0  0  0  0
  188.7750  178.1980  141.5300 C   0  0  1  0  0  3  0  0  0  0  0  0
  190.3530  177.0750  145.7070 C   0  0  0  0  0  2  0  0  0  0  0  0
  184.9000  178.3430  141.8570 C   0  0  1  0  0  3  0  0  0  0  0  0
  191.5970  178.7060  144.1810 C   0  0  1  0  0  3  0  0  0  0  0  0
  188.7990  178.5280  139.0330 C   0  0  1  0  0  3  0  0  0  0  0  0
  189.1920  177.6010  140.1910 C   0  0  1  0  0  3  0  0  0  0  0  0
  184.7660  179.0050  143.2040 C   0  0  0  0  0  3  0  0  0  0  0  0
  184.0570  179.4810  139.7540 C   0  0  0  0  0  3  0  0  0  0  0  0
  183.7890  178.8350  140.9710 C   0  0  0  0  0  0  0  0  0  0  0  0
  182.4620  178.6370  141.3710 C   0  0  0  0  0  3  0  0  0  0  0  0
  180.1290  178.8860  140.9550 F   0  0  0  0  0  0  0  0  0  0  0  0
  181.6820  179.7240  139.3520 C   0  0  0  0  0  3  0  0  0  0  0  0
  181.4110  179.0800  140.5630 C   0  0  0  0  0  0  0  0  0  0  0  0
  183.0050  179.9240  138.9480 C   0  0  0  0  0  3  0  0  0  0  0  0
  188.1880  176.6920  137.3690 C   0  0  0  0  0  2  0  0  0  0  0  0
  187.5650  176.9300  136.0070 C   0  0  0  0  0  1  0  0  0  0  0  0
  1 27  1  0  0  0  0
  2 23  1  0  0  0  0
  3  9  2  0  0  0  0
  3 21  1  0  0  0  0
  4  1  1  0  0  0  0
  6 23  1  6  0  0  0
  6 11  1  0  0  0  0
  7  3  1  1  0  0  0
  8  4  1  0  0  0  0
  9  6  1  0  0  0  0
 10  5  1  6  0  0  0
 10 24  1  0  0  0  0
 10  7  1  0  0  0  0
 12 19  1  0  0  0  0
 12  4  1  0  0  0  0
 13 18  1  0  0  0  0
 13  9  1  1  0  0  0
 14 25  1  0  0  0  0
 16  8  1  0  0  0  0
 16  4  1  0  0  0  0
 17 11  2  0  0  0  0
 18 14  1  6  0  0  0
 18 25  1  0  0  0  0
 19 36  1  1  0  0  0
 19 26  1  0  0  0  0
 20  5  1  0  0  0  0
 21 15  1  1  0  0  0
 21 17  1  0  0  0  0
 22  7  1  0  0  0  0
 22 13  1  0  0  0  0
 24 28  1  0  0  0  0
 25  2  1  0  0  0  0
 26 20  1  0  0  0  0
 26 27  1  0  0  0  0
 27 22  1  0  0  0  0
 28 15  2  0  0  0  0
 29 30  1  0  0  0  0
 30 31  2  0  0  0  0
 30 24  1  0  0  0  0
 33 34  2  0  0  0  0
 34 32  1  0  0  0  0
 34 31  1  0  0  0  0
 35 33  1  0  0  0  0
 35 29  2  0  0  0  0
 37 36  1  0  0  0  0
M  END
>  <MODEL>
2

>  <REMARK>
 VINA RESULT:      -8.1      1.157      1.426
  Name = 
  2 active torsions:
  status: ('A' for Active; 'I' for Inactive)
    1  A    between atoms: C_6  and  C_31
    2  A    between atoms: C_11  and  C_26
                            x       y       z     vdW  Elec       q    Type
                         _______ _______ _______ _____ _____    ______ ____

>  <TORSDO>
F 2

$$$$
=
 OpenBabel10272414593D

 37 45  0  0  1  0  0  0  0  0999 V2000
  185.2360  178.0860  138.1720 O   0  0  0  0  0  0  0  0  0  0  0  0
  189.6700  177.5710  136.7280 C   0  0  0  0  0  2  0  0  0  0  0  0
  188.7310  177.2420  140.9080 C   0  0  0  0  0  0  0  0  0  0  0  0
  183.9040  177.6680  137.9720 C   0  0  0  0  0  0  0  0  0  0  0  0
  185.3670  178.2240  142.5420 C   0  0  0  0  0  2  0  0  0  0  0  0
  190.5180  177.4110  139.1800 C   0  0  1  0  0  3  0  0  0  0  0  0
  187.2840  177.5230  141.1430 C   0  0  1  0  0  3  0  0  0  0  0  0
  183.6390  176.2060  137.6930 C   0  0  0  0  0  2  0  0  0  0  0  0
  189.0780  177.4800  139.6470 C   0  0  0  0  0  0  0  0  0  0  0  0
  186.8990  178.2720  142.4330 C   0  0  2  0  0  3  0  0  0  0  0  0
  191.3470  176.5080  140.0560 C   0  0  0  0  0  3  0  0  0  0  0  0
  182.8620  178.4570  138.5210 O   0  0  0  0  0  0  0  0  0  0  0  0
  187.9400  178.0380  138.8550 C   0  0  2  0  0  3  0  0  0  0  0  0
  187.8860  179.2890  136.6870 C   0  0  0  0  0  2  0  0  0  0  0  0
  189.9690  177.6490  142.9960 C   0  0  0  0  0  3  0  0  0  0  0  0
  183.6290  177.2250  136.5570 C   0  0  0  0  0  2  0  0  0  0  0  0
  190.9710  176.1720  141.3000 C   0  0  0  0  0  3  0  0  0  0  0  0
  188.3740  179.3110  138.1220 C   0  0  2  0  0  3  0  0  0  0  0  0
  183.0600  178.6130  139.9190 C   0  0  2  0  0  3  0  0  0  0  0  0
  184.7280  179.3530  141.7360 C   0  0  0  0  0  2  0  0  0  0  0  0
  189.6810  176.6520  141.9220 C   0  0  2  0  0  3  0  0  0  0  0  0
  186.9030  178.3650  139.9280 C   0  0  1  0  0  3  0  0  0  0  0  0
  190.7030  177.0070  137.7100 C   0  0  0  0  0  2  0  0  0  0  0  0
  187.5710  177.6890  143.7010 C   0  0  1  0  0  3  0  0  0  0  0  0
  189.3570  179.0500  136.9670 C   0  0  1  0  0  3  0  0  0  0  0  0
  184.4970  179.0380  140.2450 C   0  0  1  0  0  3  0  0  0  0  0  0
  185.4560  178.0560  139.5600 C   0  0  1  0  0  3  0  0  0  0  0  0
  189.0110  178.1160  143.8020 C   0  0  0  0  0  3  0  0  0  0  0  0
  185.5170  178.4450  144.9810 C   0  0  0  0  0  3  0  0  0  0  0  0
  186.8700  178.0680  144.9760 C   0  0  0  0  0  0  0  0  0  0  0  0
  187.5830  178.0380  146.1790 C   0  0  0  0  0  3  0  0  0  0  0  0
  187.6480  178.3510  148.5420 F   0  0  0  0  0  0  0  0  0  0  0  0
  185.6070  178.7570  147.3800 C   0  0  0  0  0  3  0  0  0  0  0  0
  186.9530  178.3810  147.3790 C   0  0  0  0  0  0  0  0  0  0  0  0
  184.8890  178.7880  146.1810 C   0  0  0  0  0  3  0  0  0  0  0  0
  182.6190  177.3670  140.6900 C   0  0  0  0  0  2  0  0  0  0  0  0
  181.1770  177.0320  140.3630 C   0  0  0  0  0  1  0  0  0  0  0  0
  1 27  1  0  0  0  0
  2 25  1  0  0  0  0
  2 23  1  0  0  0  0
  3 21  1  0  0  0  0
  4  1  1  0  0  0  0
  4 12  1  0  0  0  0
  6 23  1  6  0  0  0
  6  9  1  0  0  0  0
  6 11  1  0  0  0  0
  7  3  1  1  0  0  0
  7 10  1  0  0  0  0
  8  4  1  0  0  0  0
  9  3  2  0  0  0  0
 10  5  1  1  0  0  0
 10 24  1  0  0  0  0
 11 17  2  0  0  0  0
 12 19  1  0  0  0  0
 13  9  1  1  0  0  0
 13 22  1  0  0  0  0
 14 25  1  0  0  0  0
 15 28  2  0  0  0  0
 16  8  1  0  0  0  0
 16  4  1  0  0  0  0
 18 14  1  6  0  0  0
 18 13  1  0  0  0  0
 19 26  1  0  0  0  0
 19 36  1  1  0  0  0
 20  5  1  0  0  0  0
 21 17  1  6  0  0  0
 21 15  1  0  0  0  0
 22  7  1  0  0  0  0
 24 28  1  0  0  0  0
 24 30  1  0  0  0  0
 25 18  1  0  0  0  0
 26 20  1  0  0  0  0
 27 22  1  0  0  0  0
 27 26  1  0  0  0  0
 29 35  1  0  0  0  0
 30 29  2  0  0  0  0
 30 31  1  0  0  0  0
 31 34  2  0  0  0  0
 34 33  1  0  0  0  0
 34 32  1  0  0  0  0
 35 33  2  0  0  0  0
 37 36  1  0  0  0  0
M  END
>  <MODEL>
3

>  <REMARK>
 VINA RESULT:      -7.9      2.518      5.869
  Name = 
  2 active torsions:
  status: ('A' for Active; 'I' for Inactive)
    1  A    between atoms: C_6  and  C_31
    2  A    between atoms: C_11  and  C_26
                            x       y       z     vdW  Elec       q    Type
                         _______ _______ _______ _____ _____    ______ ____

>  <TORSDO>
F 2

$$$$
=
 OpenBabel10272414593D

 37 45  0  0  1  0  0  0  0  0999 V2000
  184.9360  177.9990  138.0450 O   0  0  0  0  0  0  0  0  0  0  0  0
  187.4710  176.6170  134.3470 C   0  0  0  0  0  2  0  0  0  0  0  0
  189.1710  176.4440  138.2900 C   0  0  0  0  0  0  0  0  0  0  0  0
  183.7010  177.8580  138.7110 C   0  0  0  0  0  0  0  0  0  0  0  0
  187.6670  178.0650  141.4610 C   0  0  0  0  0  2  0  0  0  0  0  0
  189.5730  176.2670  135.8380 C   0  0  1  0  0  3  0  0  0  0  0  0
  188.2220  177.0070  139.2950 C   0  0  1  0  0  3  0  0  0  0  0  0
  183.0820  176.4820  138.8070 C   0  0  0  0  0  2  0  0  0  0  0  0
  188.7310  176.6190  137.0480 C   0  0  0  0  0  0  0  0  0  0  0  0
  188.8130  177.8060  140.4710 C   0  0  2  0  0  3  0  0  0  0  0  0
  190.5950  175.2070  136.1570 C   0  0  0  0  0  3  0  0  0  0  0  0
  183.3410  178.8350  139.6740 O   0  0  0  0  0  0  0  0  0  0  0  0
  187.4590  177.4020  137.0150 C   0  0  2  0  0  3  0  0  0  0  0  0
  186.3330  178.6580  135.1660 C   0  0  0  0  0  2  0  0  0  0  0  0
  191.4560  176.5740  139.1960 C   0  0  0  0  0  3  0  0  0  0  0  0
  182.5670  177.4920  137.7860 C   0  0  0  0  0  2  0  0  0  0  0  0
  190.9850  174.9420  137.4140 C   0  0  0  0  0  3  0  0  0  0  0  0
  187.5750  178.5680  136.0300 C   0  0  2  0  0  3  0  0  0  0  0  0
  184.3560  178.9350  140.6630 C   0  0  2  0  0  3  0  0  0  0  0  0
  186.8730  179.3070  141.0620 C   0  0  0  0  0  2  0  0  0  0  0  0
  190.4230  175.6650  138.6140 C   0  0  2  0  0  3  0  0  0  0  0  0
  187.3380  177.9200  138.4470 C   0  0  1  0  0  3  0  0  0  0  0  0
  188.7740  175.8480  134.5940 C   0  0  0  0  0  2  0  0  0  0  0  0
  189.9990  177.0880  141.1610 C   0  0  1  0  0  3  0  0  0  0  0  0
  187.6150  178.1260  134.5570 C   0  0  1  0  0  3  0  0  0  0  0  0
  185.7500  179.0590  140.0360 C   0  0  1  0  0  3  0  0  0  0  0  0
  185.9310  177.9120  139.0340 C   0  0  1  0  0  3  0  0  0  0  0  0
  191.2620  177.2160  140.3510 C   0  0  0  0  0  3  0  0  0  0  0  0
  191.0900  178.7060  142.7800 C   0  0  0  0  0  3  0  0  0  0  0  0
  190.2710  177.5880  142.5530 C   0  0  0  0  0  0  0  0  0  0  0  0
  189.6920  176.9240  143.6400 C   0  0  0  0  0  3  0  0  0  0  0  0
  189.3630  176.7250  145.9930 F   0  0  0  0  0  0  0  0  0  0  0  0
  190.7420  178.4840  145.1660 C   0  0  0  0  0  3  0  0  0  0  0  0
  189.9260  177.3710  144.9440 C   0  0  0  0  0  0  0  0  0  0  0  0
  191.3230  179.1520  144.0840 C   0  0  0  0  0  3  0  0  0  0  0  0
  184.2610  177.7960  141.6800 C   0  0  0  0  0  2  0  0  0  0  0  0
  184.0580  178.3540  143.0740 C   0  0  0  0  0  1  0  0  0  0  0  0
  1  4  1  0  0  0  0
  1 27  1  0  0  0  0
  2 25  1  0  0  0  0
  2 23  1  0  0  0  0
  3 21  1  0  0  0  0
  4  8  1  0  0  0  0
  4 12  1  0  0  0  0
  6 23  1  6  0  0  0
  6 11  1  0  0  0  0
  6  9  1  0  0  0  0
  7  3  1  6  0  0  0
  7 10  1  0  0  0  0
  9  3  2  0  0  0  0
 10 24  1  0  0  0  0
 10  5  1  1  0  0  0
 11 17  2  0  0  0  0
 12 19  1  0  0  0  0
 13  9  1  1  0  0  0
 13 22  1  0  0  0  0
 15 28  2  0  0  0  0
 16  4  1  0  0  0  0
 16  8  1  0  0  0  0
 18 14  1  6  0  0  0
 18 13  1  0  0  0  0
 19 36  1  1  0  0  0
 20  5  1  0  0  0  0
 21 17  1  6  0  0  0
 21 15  1  0  0  0  0
 22 27  1  0  0  0  0
 22  7  1  0  0  0  0
 24 30  1  0  0  0  0
 25 14  1  0  0  0  0
 25 18  1  0  0  0  0
 26 19  1  0  0  0  0
 26 20  1  0  0  0  0
 27 26  1  0  0  0  0
 28 24  1  0  0  0  0
 29 35  1  0  0  0  0
 30 29  2  0  0  0  0
 30 31  1  0  0  0  0
 31 34  2  0  0  0  0
 34 33  1  0  0  0  0
 34 32  1  0  0  0  0
 35 33  2  0  0  0  0
 36 37  1  0  0  0  0
M  END
>  <MODEL>
4

>  <REMARK>
 VINA RESULT:      -7.9      2.812      7.806
  Name = 
  2 active torsions:
  status: ('A' for Active; 'I' for Inactive)
    1  A    between atoms: C_6  and  C_31
    2  A    between atoms: C_11  and  C_26
                            x       y       z     vdW  Elec       q    Type
                         _______ _______ _______ _____ _____    ______ ____

>  <TORSDO>
F 2

$$$$
=
 OpenBabel10272414593D

 37 45  0  0  1  0  0  0  0  0999 V2000
  188.6050  177.3980  140.6870 O   0  0  0  0  0  0  0  0  0  0  0  0
  185.4290  176.5270  137.3460 C   0  0  0  0  0  2  0  0  0  0  0  0
  189.3940  174.9070  137.0000 C   0  0  0  0  0  0  0  0  0  0  0  0
  188.8530  177.3690  142.0750 C   0  0  0  0  0  0  0  0  0  0  0  0
  192.4300  175.9090  139.1750 C   0  0  0  0  0  2  0  0  0  0  0  0
  187.2040  175.3150  135.8840 C   0  0  1  0  0  3  0  0  0  0  0  0
  190.2520  175.3800  138.1270 C   0  0  1  0  0  3  0  0  0  0  0  0
  188.3350  176.1980  142.8790 C   0  0  0  0  0  2  0  0  0  0  0  0
  188.2090  175.5090  137.0020 C   0  0  0  0  0  0  0  0  0  0  0  0
  191.7340  175.6720  137.8260 C   0  0  2  0  0  3  0  0  0  0  0  0
  187.4080  174.0030  135.1710 C   0  0  0  0  0  3  0  0  0  0  0  0
  189.9570  178.1030  142.5760 O   0  0  0  0  0  0  0  0  0  0  0  0
  188.1120  176.5410  138.0780 C   0  0  2  0  0  3  0  0  0  0  0  0
  186.5520  178.4740  138.3850 C   0  0  0  0  0  2  0  0  0  0  0  0
  190.8400  174.2610  135.1170 C   0  0  0  0  0  3  0  0  0  0  0  0
  187.6040  177.5370  142.9040 C   0  0  0  0  0  2  0  0  0  0  0  0
  188.5660  173.3250  135.2330 C   0  0  0  0  0  3  0  0  0  0  0  0
  187.6240  177.8720  137.4990 C   0  0  2  0  0  3  0  0  0  0  0  0
  191.1480  177.6960  141.9170 C   0  0  2  0  0  3  0  0  0  0  0  0
  192.2700  177.3600  139.6230 C   0  0  0  0  0  2  0  0  0  0  0  0
  189.7530  173.8050  136.0340 C   0  0  2  0  0  3  0  0  0  0  0  0
  189.5540  176.6650  138.5660 C   0  0  1  0  0  3  0  0  0  0  0  0
  185.7330  175.4430  136.3050 C   0  0  0  0  0  2  0  0  0  0  0  0
  192.4290  174.5420  137.0270 C   0  0  1  0  0  3  0  0  0  0  0  0
  186.1480  177.8490  137.0650 C   0  0  1  0  0  3  0  0  0  0  0  0
  190.9700  177.6630  140.3940 C   0  0  1  0  0  3  0  0  0  0  0  0
  189.7300  176.8200  140.0720 C   0  0  1  0  0  3  0  0  0  0  0  0
  192.0530  174.5920  135.5690 C   0  0  0  0  0  3  0  0  0  0  0  0
  194.6060  173.8040  138.0960 C   0  0  0  0  0  3  0  0  0  0  0  0
  193.9280  174.5700  137.1340 C   0  0  0  0  0  0  0  0  0  0  0  0
  194.6590  175.3740  136.2510 C   0  0  0  0  0  3  0  0  0  0  0  0
  196.7570  176.1940  135.4710 F   0  0  0  0  0  0  0  0  0  0  0  0
  196.7250  174.6500  137.2870 C   0  0  0  0  0  3  0  0  0  0  0  0
  196.0550  175.4140  136.3270 C   0  0  0  0  0  0  0  0  0  0  0  0
  196.0010  173.8450  138.1710 C   0  0  0  0  0  3  0  0  0  0  0  0
  191.6790  176.3770  142.4820 C   0  0  0  0  0  2  0  0  0  0  0  0
  191.6070  176.3890  143.9960 C   0  0  0  0  0  1  0  0  0  0  0  0
  1  4  1  0  0  0  0
  3  9  2  0  0  0  0
  4 12  1  0  0  0  0
  4  8  1  0  0  0  0
  4 16  1  0  0  0  0
  5 20  1  0  0  0  0
  6 11  1  1  0  0  0
  6 23  1  0  0  0  0
  6  9  1  0  0  0  0
  7  3  1  6  0  0  0
  7 22  1  0  0  0  0
  8 16  1  0  0  0  0
 10  7  1  0  0  0  0
 10  5  1  1  0  0  0
 11 17  2  0  0  0  0
 13  9  1  6  0  0  0
 13 22  1  0  0  0  0
 15 28  2  0  0  0  0
 17 21  1  0  0  0  0
 18 13  1  0  0  0  0
 18 14  1  1  0  0  0
 19 36  1  1  0  0  0
 19 12  1  0  0  0  0
 20 26  1  0  0  0  0
 21 15  1  6  0  0  0
 21  3  1  0  0  0  0
 22 27  1  0  0  0  0
 23  2  1  0  0  0  0
 24 30  1  0  0  0  0
 24 10  1  0  0  0  0
 25  2  1  0  0  0  0
 25 18  1  0  0  0  0
 25 14  1  0  0  0  0
 26 19  1  0  0  0  0
 27 26  1  0  0  0  0
 27  1  1  0  0  0  0
 28 24  1  0  0  0  0
 29 35  1  0  0  0  0
 30 29  2  0  0  0  0
 31 34  2  0  0  0  0
 31 30  1  0  0  0  0
 32 34  1  0  0  0  0
 33 35  2  0  0  0  0
 34 33  1  0  0  0  0
 36 37  1  0  0  0  0
M  END
>  <MODEL>
5

>  <REMARK>
 VINA RESULT:      -7.7      4.353      9.928
  Name = 
  2 active torsions:
  status: ('A' for Active; 'I' for Inactive)
    1  A    between atoms: C_6  and  C_31
    2  A    between atoms: C_11  and  C_26
                            x       y       z     vdW  Elec       q    Type
                         _______ _______ _______ _____ _____    ______ ____

>  <TORSDO>
F 2

$$$$
=
 OpenBabel10272414593D

 37 45  0  0  1  0  0  0  0  0999 V2000
  183.6940  177.5920  138.0880 O   0  0  0  0  0  0  0  0  0  0  0  0
  180.1520  174.7040  137.0320 C   0  0  0  0  0  2  0  0  0  0  0  0
  184.2030  173.2910  136.8000 C   0  0  0  0  0  0  0  0  0  0  0  0
  184.1990  178.4910  139.0500 C   0  0  0  0  0  0  0  0  0  0  0  0
  187.3700  175.5040  136.9620 C   0  0  0  0  0  2  0  0  0  0  0  0
  181.8060  172.8410  136.2900 C   0  0  1  0  0  3  0  0  0  0  0  0
  185.1610  174.3970  137.0960 C   0  0  1  0  0  3  0  0  0  0  0  0
  184.0530  178.1420  140.5140 C   0  0  0  0  0  2  0  0  0  0  0  0
  182.9520  173.7340  136.7210 C   0  0  0  0  0  0  0  0  0  0  0  0
  186.4860  174.4280  136.3120 C   0  0  2  0  0  3  0  0  0  0  0  0
  182.0990  171.3880  136.5580 C   0  0  0  0  0  3  0  0  0  0  0  0
  185.2320  179.3810  138.6630 O   0  0  0  0  0  0  0  0  0  0  0  0
  182.8800  175.2200  136.8680 C   0  0  2  0  0  3  0  0  0  0  0  0
  181.0910  176.8600  136.2550 C   0  0  0  0  0  2  0  0  0  0  0  0
  185.3610  171.5700  135.4750 C   0  0  0  0  0  3  0  0  0  0  0  0
  183.1180  179.1560  139.8640 C   0  0  0  0  0  2  0  0  0  0  0  0
  183.3480  170.9290  136.7390 C   0  0  0  0  0  3  0  0  0  0  0  0
  182.0670  175.8300  135.7220 C   0  0  2  0  0  3  0  0  0  0  0  0
  186.3300  178.6490  138.1390 C   0  0  2  0  0  3  0  0  0  0  0  0
  187.0450  176.8870  136.4020 C   0  0  0  0  0  2  0  0  0  0  0  0
  184.5620  171.8280  136.7100 C   0  0  2  0  0  3  0  0  0  0  0  0
  184.3440  175.6460  136.7730 C   0  0  1  0  0  3  0  0  0  0  0  0
  180.4400  173.2050  136.8910 C   0  0  0  0  0  2  0  0  0  0  0  0
  187.2050  173.0580  136.2750 C   0  0  1  0  0  3  0  0  0  0  0  0
  180.5630  175.5140  135.8000 C   0  0  1  0  0  3  0  0  0  0  0  0
  185.8790  177.6150  137.1000 C   0  0  1  0  0  3  0  0  0  0  0  0
  184.7680  176.7610  137.7220 C   0  0  1  0  0  3  0  0  0  0  0  0
  186.5600  172.1270  135.2820 C   0  0  0  0  0  3  0  0  0  0  0  0
  189.1480  172.9370  134.6500 C   0  0  0  0  0  3  0  0  0  0  0  0
  188.6700  173.1600  135.9510 C   0  0  0  0  0  0  0  0  0  0  0  0
  189.5710  173.4890  136.9710 C   0  0  0  0  0  3  0  0  0  0  0  0
  191.8050  173.9140  137.6850 F   0  0  0  0  0  0  0  0  0  0  0  0
  191.4090  173.3730  135.3980 C   0  0  0  0  0  3  0  0  0  0  0  0
  190.9370  173.5960  136.6940 C   0  0  0  0  0  0  0  0  0  0  0  0
  190.5140  173.0440  134.3760 C   0  0  0  0  0  3  0  0  0  0  0  0
  187.1800  178.0380  139.2550 C   0  0  0  0  0  2  0  0  0  0  0  0
  188.6340  178.4300  139.0800 C   0  0  0  0  0  1  0  0  0  0  0  0
  1  4  1  0  0  0  0
  4 16  1  0  0  0  0
  4  8  1  0  0  0  0
  6 11  1  1  0  0  0
  6  9  1  0  0  0  0
  6 23  1  0  0  0  0
  7  3  1  6  0  0  0
  9  3  2  0  0  0  0
 10  5  1  1  0  0  0
 10  7  1  0  0  0  0
 11 17  2  0  0  0  0
 12  4  1  0  0  0  0
 13  9  1  6  0  0  0
 16  8  1  0  0  0  0
 18 25  1  0  0  0  0
 18 14  1  1  0  0  0
 18 13  1  0  0  0  0
 19 12  1  0  0  0  0
 19 36  1  1  0  0  0
 20  5  1  0  0  0  0
 20 26  1  0  0  0  0
 21 15  1  6  0  0  0
 21 17  1  0  0  0  0
 21  3  1  0  0  0  0
 22 13  1  0  0  0  0
 22  7  1  0  0  0  0
 22 27  1  0  0  0  0
 23  2  1  0  0  0  0
 24 10  1  0  0  0  0
 25 14  1  0  0  0  0
 25  2  1  0  0  0  0
 26 27  1  0  0  0  0
 26 19  1  0  0  0  0
 27  1  1  0  0  0  0
 28 15  2  0  0  0  0
 28 24  1  0  0  0  0
 29 30  1  0  0  0  0
 30 24  1  0  0  0  0
 30 31  2  0  0  0  0
 33 34  2  0  0  0  0
 34 31  1  0  0  0  0
 34 32  1  0  0  0  0
 35 29  2  0  0  0  0
 35 33  1  0  0  0  0
 37 36  1  0  0  0  0
M  END
>  <MODEL>
6

>  <REMARK>
 VINA RESULT:      -6.7      4.995     10.070
  Name = 
  2 active torsions:
  status: ('A' for Active; 'I' for Inactive)
    1  A    between atoms: C_6  and  C_31
    2  A    between atoms: C_11  and  C_26
                            x       y       z     vdW  Elec       q    Type
                         _______ _______ _______ _____ _____    ______ ____

>  <TORSDO>
F 2

$$$$
=
 OpenBabel10272414593D

 37 45  0  0  1  0  0  0  0  0999 V2000
  184.5470  177.1550  136.3920 O   0  0  0  0  0  0  0  0  0  0  0  0
  189.0070  176.9700  134.9470 C   0  0  0  0  0  2  0  0  0  0  0  0
  188.1290  177.2460  139.1440 C   0  0  0  0  0  0  0  0  0  0  0  0
  183.2810  176.5430  136.2990 C   0  0  0  0  0  0  0  0  0  0  0  0
  184.6700  178.0570  140.6710 C   0  0  0  0  0  2  0  0  0  0  0  0
  189.8750  177.3430  137.3690 C   0  0  1  0  0  3  0  0  0  0  0  0
  186.6580  177.3770  139.3640 C   0  0  1  0  0  3  0  0  0  0  0  0
  183.2070  175.0320  136.2790 C   0  0  0  0  0  2  0  0  0  0  0  0
  188.4390  177.3070  137.8530 C   0  0  0  0  0  0  0  0  0  0  0  0
  186.1820  178.2800  140.5170 C   0  0  2  0  0  3  0  0  0  0  0  0
  190.8160  176.7170  138.3650 C   0  0  0  0  0  3  0  0  0  0  0  0
  182.1460  177.2740  136.7320 O   0  0  0  0  0  0  0  0  0  0  0  0
  187.2360  177.5710  137.0060 C   0  0  2  0  0  3  0  0  0  0  0  0
  187.0150  178.4130  134.6590 C   0  0  0  0  0  2  0  0  0  0  0  0
  189.3090  178.1610  141.1010 C   0  0  0  0  0  3  0  0  0  0  0  0
  183.0610  175.8310  134.9870 C   0  0  0  0  0  2  0  0  0  0  0  0
  190.4900  176.5540  139.6570 C   0  0  0  0  0  3  0  0  0  0  0  0
  187.4990  178.7440  136.0570 C   0  0  2  0  0  3  0  0  0  0  0  0
  182.3250  177.6920  138.0780 C   0  0  2  0  0  3  0  0  0  0  0  0
  183.8870  178.9390  139.7010 C   0  0  0  0  0  2  0  0  0  0  0  0
  189.1500  176.9660  140.2200 C   0  0  2  0  0  3  0  0  0  0  0  0
  186.1670  177.9420  138.0330 C   0  0  1  0  0  3  0  0  0  0  0  0
  190.1070  176.7200  135.9850 C   0  0  0  0  0  2  0  0  0  0  0  0
  186.9270  178.0140  141.8480 C   0  0  1  0  0  3  0  0  0  0  0  0
  188.5040  178.4160  134.9390 C   0  0  1  0  0  3  0  0  0  0  0  0
  183.6950  178.3460  138.2910 C   0  0  1  0  0  3  0  0  0  0  0  0
  184.7720  177.3920  137.7590 C   0  0  1  0  0  3  0  0  0  0  0  0
  188.3000  178.6320  141.8400 C   0  0  0  0  0  3  0  0  0  0  0  0
  185.2290  179.5360  142.9570 C   0  0  0  0  0  3  0  0  0  0  0  0
  186.1860  178.5140  143.0570 C   0  0  0  0  0  0  0  0  0  0  0  0
  186.4570  177.9420  144.3060 C   0  0  0  0  0  3  0  0  0  0  0  0
  186.0440  177.8280  146.6510 F   0  0  0  0  0  0  0  0  0  0  0  0
  184.8260  179.4030  145.3400 C   0  0  0  0  0  3  0  0  0  0  0  0
  185.7780  178.3850  145.4450 C   0  0  0  0  0  0  0  0  0  0  0  0
  184.5520  179.9780  144.0960 C   0  0  0  0  0  3  0  0  0  0  0  0
  182.0520  176.5510  139.0600 C   0  0  0  0  0  2  0  0  0  0  0  0
  180.8030  176.8430  139.8670 C   0  0  0  0  0  1  0  0  0  0  0  0
  1 27  1  0  0  0  0
  2 23  1  0  0  0  0
  3 21  1  0  0  0  0
  4  1  1  0  0  0  0
  4 12  1  0  0  0  0
  6 23  1  6  0  0  0
  6  9  1  0  0  0  0
  6 11  1  0  0  0  0
  7  3  1  6  0  0  0
  7 10  1  0  0  0  0
  8  4  1  0  0  0  0
  9  3  2  0  0  0  0
 10  5  1  1  0  0  0
 10 24  1  0  0  0  0
 11 17  2  0  0  0  0
 12 19  1  0  0  0  0
 13  9  1  1  0  0  0
 13 22  1  0  0  0  0
 14 25  1  0  0  0  0
 15 28  2  0  0  0  0
 16  8  1  0  0  0  0
 16  4  1  0  0  0  0
 18 14  1  6  0  0  0
 18 13  1  0  0  0  0
 19 26  1  0  0  0  0
 19 36  1  1  0  0  0
 20  5  1  0  0  0  0
 21 17  1  6  0  0  0
 21 15  1  0  0  0  0
 22  7  1  0  0  0  0
 24 30  1  0  0  0  0
 25  2  1  0  0  0  0
 25 18  1  0  0  0  0
 26 20  1  0  0  0  0
 27 22  1  0  0  0  0
 27 26  1  0  0  0  0
 28 24  1  0  0  0  0
 29 30  2  0  0  0  0
 29 35  1  0  0  0  0
 30 31  1  0  0  0  0
 31 34  2  0  0  0  0
 33 34  1  0  0  0  0
 34 32  1  0  0  0  0
 35 33  2  0  0  0  0
 36 37  1  0  0  0  0
M  END
>  <MODEL>
7

>  <REMARK>
 VINA RESULT:      -6.6      2.890      6.575
  Name = 
  2 active torsions:
  status: ('A' for Active; 'I' for Inactive)
    1  A    between atoms: C_6  and  C_31
    2  A    between atoms: C_11  and  C_26
                            x       y       z     vdW  Elec       q    Type
                         _______ _______ _______ _____ _____    ______ ____

>  <TORSDO>
F 2

$$$$
=
 OpenBabel10272414593D

 37 45  0  0  1  0  0  0  0  0999 V2000
  187.8300  177.4200  139.2000 O   0  0  0  0  0  0  0  0  0  0  0  0
  183.9310  175.5230  137.4100 C   0  0  0  0  0  2  0  0  0  0  0  0
  187.7470  173.7120  136.6200 C   0  0  0  0  0  0  0  0  0  0  0  0
  188.4440  177.8940  140.3780 C   0  0  0  0  0  0  0  0  0  0  0  0
  191.1910  175.3060  137.3630 C   0  0  0  0  0  2  0  0  0  0  0  0
  185.3180  173.7770  136.0720 C   0  0  1  0  0  3  0  0  0  0  0  0
  188.8470  174.5270  137.2160 C   0  0  1  0  0  3  0  0  0  0  0  0
  188.2320  177.1280  141.6640 C   0  0  0  0  0  2  0  0  0  0  0  0
  186.5720  174.3250  136.7230 C   0  0  0  0  0  0  0  0  0  0  0  0
  190.1730  174.6200  136.4380 C   0  0  2  0  0  3  0  0  0  0  0  0
  185.4010  172.2870  135.8640 C   0  0  0  0  0  3  0  0  0  0  0  0
  189.5960  178.7110  140.2550 O   0  0  0  0  0  0  0  0  0  0  0  0
  186.7070  175.6840  137.3280 C   0  0  2  0  0  3  0  0  0  0  0  0
  185.1730  177.6630  137.3150 C   0  0  0  0  0  2  0  0  0  0  0  0
  188.6700  172.3500  134.7890 C   0  0  0  0  0  3  0  0  0  0  0  0
  187.4560  178.4130  141.3930 C   0  0  0  0  0  2  0  0  0  0  0  0
  186.5700  171.6280  135.8530 C   0  0  0  0  0  3  0  0  0  0  0  0
  186.0020  176.7280  136.4560 C   0  0  2  0  0  3  0  0  0  0  0  0
  190.5880  178.0360  139.4940 C   0  0  2  0  0  3  0  0  0  0  0  0
  191.0700  176.8260  137.2720 C   0  0  0  0  0  2  0  0  0  0  0  0
  187.8980  172.3160  136.0670 C   0  0  2  0  0  3  0  0  0  0  0  0
  188.2170  175.9140  137.3240 C   0  0  1  0  0  3  0  0  0  0  0  0
  184.0090  174.1190  136.8000 C   0  0  0  0  0  2  0  0  0  0  0  0
  190.6930  173.2450  135.9530 C   0  0  1  0  0  3  0  0  0  0  0  0
  184.4680  176.6130  136.4790 C   0  0  1  0  0  3  0  0  0  0  0  0
  190.0090  177.4510  138.1990 C   0  0  1  0  0  3  0  0  0  0  0  0
  188.7810  176.6060  138.5590 C   0  0  1  0  0  3  0  0  0  0  0  0
  189.9370  172.7700  134.7410 C   0  0  0  0  0  3  0  0  0  0  0  0
  192.6900  174.0630  134.6220 C   0  0  0  0  0  3  0  0  0  0  0  0
  192.1620  173.2420  135.6310 C   0  0  0  0  0  0  0  0  0  0  0  0
  193.0170  172.4040  136.3580 C   0  0  0  0  0  3  0  0  0  0  0  0
  195.2090  171.5740  136.7870 F   0  0  0  0  0  0  0  0  0  0  0  0
  194.9080  173.2060  135.0750 C   0  0  0  0  0  3  0  0  0  0  0  0
  194.3870  172.3870  136.0810 C   0  0  0  0  0  0  0  0  0  0  0  0
  194.0600  174.0440  134.3460 C   0  0  0  0  0  3  0  0  0  0  0  0
  191.3290  176.9960  140.3360 C   0  0  0  0  0  2  0  0  0  0  0  0
  191.8660  177.6340  141.6020 C   0  0  0  0  0  1  0  0  0  0  0  0
  1  4  1  0  0  0  0
  3  9  2  0  0  0  0
  4 16  1  0  0  0  0
  4  8  1  0  0  0  0
  6 11  1  1  0  0  0
  6  9  1  0  0  0  0
  6 23  1  0  0  0  0
  7  3  1  6  0  0  0
  7 22  1  0  0  0  0
 10  7  1  0  0  0  0
 10  5  1  1  0  0  0
 12  4  1  0  0  0  0
 13  9  1  6  0  0  0
 16  8  1  0  0  0  0
 17 11  2  0  0  0  0
 17 21  1  0  0  0  0
 18 25  1  0  0  0  0
 18 14  1  1  0  0  0
 18 13  1  0  0  0  0
 19 12  1  0  0  0  0
 19 36  1  1  0  0  0
 20  5  1  0  0  0  0
 20 26  1  0  0  0  0
 21 15  1  6  0  0  0
 21  3  1  0  0  0  0
 22 13  1  0  0  0  0
 22 27  1  0  0  0  0
 23  2  1  0  0  0  0
 24 10  1  0  0  0  0
 25 14  1  0  0  0  0
 25  2  1  0  0  0  0
 26 27  1  0  0  0  0
 26 19  1  0  0  0  0
 27  1  1  0  0  0  0
 28 15  2  0  0  0  0
 28 24  1  0  0  0  0
 29 30  1  0  0  0  0
 30 24  1  0  0  0  0
 30 31  2  0  0  0  0
 33 34  2  0  0  0  0
 34 31  1  0  0  0  0
 34 32  1  0  0  0  0
 35 29  2  0  0  0  0
 35 33  1  0  0  0  0
 36 37  1  0  0  0  0
M  END
>  <MODEL>
8

>  <REMARK>
 VINA RESULT:      -6.5      4.700     10.053
  Name = 
  2 active torsions:
  status: ('A' for Active; 'I' for Inactive)
    1  A    between atoms: C_6  and  C_31
    2  A    between atoms: C_11  and  C_26
                            x       y       z     vdW  Elec       q    Type
                         _______ _______ _______ _____ _____    ______ ____

>  <TORSDO>
F 2

$$$$
=
 OpenBabel10272414593D

 37 45  0  0  1  0  0  0  0  0999 V2000
  187.0380  178.2010  140.8200 O   0  0  0  0  0  0  0  0  0  0  0  0
  182.9020  177.7270  138.6560 C   0  0  0  0  0  2  0  0  0  0  0  0
  186.4170  175.9210  136.9680 C   0  0  0  0  0  0  0  0  0  0  0  0
  187.7160  178.0670  142.0480 C   0  0  0  0  0  0  0  0  0  0  0  0
  190.0550  176.6100  138.0810 C   0  0  0  0  0  2  0  0  0  0  0  0
  184.0200  176.5200  136.6430 C   0  0  1  0  0  3  0  0  0  0  0  0
  187.6240  176.2700  137.7750 C   0  0  1  0  0  3  0  0  0  0  0  0
  187.4000  176.8750  142.9240 C   0  0  0  0  0  2  0  0  0  0  0  0
  185.3420  176.5850  137.3820 C   0  0  0  0  0  0  0  0  0  0  0  0
  188.9470  176.5010  137.0220 C   0  0  2  0  0  3  0  0  0  0  0  0
  183.8880  175.2490  135.8440 C   0  0  0  0  0  3  0  0  0  0  0  0
  188.9730  178.7050  142.1960 O   0  0  0  0  0  0  0  0  0  0  0  0
  185.6720  177.5470  138.4770 C   0  0  2  0  0  3  0  0  0  0  0  0
  184.4380  179.5380  139.3600 C   0  0  0  0  0  2  0  0  0  0  0  0
  187.1300  175.3220  134.6900 C   0  0  0  0  0  3  0  0  0  0  0  0
  186.8160  178.2480  143.2450 C   0  0  0  0  0  2  0  0  0  0  0  0
  184.9510  174.5060  135.4960 C   0  0  0  0  0  3  0  0  0  0  0  0
  185.1220  178.9380  138.1480 C   0  0  2  0  0  3  0  0  0  0  0  0
  189.8560  178.2790  141.1680 C   0  0  2  0  0  3  0  0  0  0  0  0
  190.1540  178.0340  138.6220 C   0  0  0  0  0  2  0  0  0  0  0  0
  186.3650  174.8670  135.8890 C   0  0  2  0  0  3  0  0  0  0  0  0
  187.2000  177.5600  138.4740 C   0  0  1  0  0  3  0  0  0  0  0  0
  182.7760  176.7000  137.5260 C   0  0  0  0  0  2  0  0  0  0  0  0
  189.2640  175.3900  135.9900 C   0  0  1  0  0  3  0  0  0  0  0  0
  183.5870  179.0240  138.2160 C   0  0  1  0  0  3  0  0  0  0  0  0
  189.1960  178.3570  139.7850 C   0  0  1  0  0  3  0  0  0  0  0  0
  187.8600  177.6050  139.8470 C   0  0  1  0  0  3  0  0  0  0  0  0
  188.4440  175.5570  134.7380 C   0  0  0  0  0  3  0  0  0  0  0  0
  191.2670  176.2360  134.6860 C   0  0  0  0  0  3  0  0  0  0  0  0
  190.7160  175.3290  135.6050 C   0  0  0  0  0  0  0  0  0  0  0  0
  191.5320  174.3480  136.1810 C   0  0  0  0  0  3  0  0  0  0  0  0
  193.6720  173.3220  136.4040 F   0  0  0  0  0  0  0  0  0  0  0  0
  193.4310  175.1780  134.9280 C   0  0  0  0  0  3  0  0  0  0  0  0
  192.8870  174.2730  135.8440 C   0  0  0  0  0  0  0  0  0  0  0  0
  192.6210  176.1600  134.3490 C   0  0  0  0  0  3  0  0  0  0  0  0
  190.4420  176.8990  141.4700 C   0  0  0  0  0  2  0  0  0  0  0  0
  191.4560  176.9940  142.5930 C   0  0  0  0  0  1  0  0  0  0  0  0
  1  4  1  0  0  0  0
  3  9  2  0  0  0  0
  4 12  1  0  0  0  0
  4  8  1  0  0  0  0
  4 16  1  0  0  0  0
  5 20  1  0  0  0  0
  6 11  1  1  0  0  0
  6  9  1  0  0  0  0
  6 23  1  0  0  0  0
  7  3  1  6  0  0  0
  7 22  1  0  0  0  0
  8 16  1  0  0  0  0
 10  7  1  0  0  0  0
 10  5  1  1  0  0  0
 13  9  1  6  0  0  0
 15 28  2  0  0  0  0
 17 11  2  0  0  0  0
 17 21  1  0  0  0  0
 18 25  1  0  0  0  0
 18 13  1  0  0  0  0
 18 14  1  1  0  0  0
 19 36  1  1  0  0  0
 19 12  1  0  0  0  0
 20 26  1  0  0  0  0
 21 15  1  6  0  0  0
 21  3  1  0  0  0  0
 22 13  1  0  0  0  0
 22 27  1  0  0  0  0
 23  2  1  0  0  0  0
 24 10  1  0  0  0  0
 25  2  1  0  0  0  0
 25 14  1  0  0  0  0
 26 27  1  0  0  0  0
 26 19  1  0  0  0  0
 27  1  1  0  0  0  0
 28 24  1  0  0  0  0
 29 30  1  0  0  0  0
 30 24  1  0  0  0  0
 30 31  2  0  0  0  0
 33 34  2  0  0  0  0
 34 31  1  0  0  0  0
 34 32  1  0  0  0  0
 35 29  2  0  0  0  0
 35 33  1  0  0  0  0
 36 37  1  0  0  0  0
M  END
>  <MODEL>
9

>  <REMARK>
 VINA RESULT:      -6.3      3.850      9.132
  Name = 
  2 active torsions:
  status: ('A' for Active; 'I' for Inactive)
    1  A    between atoms: C_6  and  C_31
    2  A    between atoms: C_11  and  C_26
                            x       y       z     vdW  Elec       q    Type
                         _______ _______ _______ _____ _____    ______ ____

>  <TORSDO>
F 2

$$$$
