=
 OpenBabel10272401513D

 28 33  0  0  1  0  0  0  0  0999 V2000
  187.3470  177.2200  145.1350 C   0  0  1  0  0  3  0  0  0  0  0  0
  188.6210  177.0130  144.2840 C   0  0  1  0  0  3  0  0  0  0  0  0
  186.9720  177.6930  142.4320 C   0  0  2  0  0  3  0  0  0  0  0  0
  183.3000  177.7450  141.2630 C   0  0  0  0  0  3  0  0  0  0  0  0
  185.8610  179.9300  148.1630 N   0  0  0  0  0  1  0  0  0  0  0  0
  190.4490  178.4920  143.5570 C   0  0  1  0  0  3  0  0  0  0  0  0
  188.4320  177.3890  142.7990 C   0  0  1  0  0  3  0  0  0  0  0  0
  190.6650  177.1200  145.5550 O   0  0  0  0  0  1  0  0  0  0  0  0
  185.1460  178.7920  139.1940 C   0  0  0  0  0  2  0  0  0  0  0  0
  184.7800  178.4680  143.1330 C   0  0  1  0  0  3  0  0  0  0  0  0
  189.7790  177.8750  144.7820 C   0  0  2  0  0  3  0  0  0  0  0  0
  182.6720  179.0860  139.2790 C   0  0  0  0  0  0  0  0  0  0  0  0
  184.3510  178.7320  141.6800 C   0  0  1  0  0  3  0  0  0  0  0  0
  186.7320  177.9570  140.9420 C   0  0  0  0  0  2  0  0  0  0  0  0
  183.8690  179.5030  138.8530 C   0  0  0  0  0  3  0  0  0  0  0  0
  185.7300  179.1690  145.8470 C   0  0  1  0  0  3  0  0  0  0  0  0
  186.2760  178.7140  143.3370 C   0  0  1  0  0  3  0  0  0  0  0  0
  185.5300  178.8800  140.6730 C   0  0  1  0  0  3  0  0  0  0  0  0
  187.4470  178.2220  147.4720 C   0  0  0  0  0  2  0  0  0  0  0  0
  184.2780  178.8340  145.5250 C   0  0  0  0  0  2  0  0  0  0  0  0
  186.0400  178.7780  147.2980 C   0  0  1  0  0  3  0  0  0  0  0  0
  191.5820  177.6290  143.0130 C   0  0  0  0  0  1  0  0  0  0  0  0
  181.5340  179.7330  138.8190 O   0  0  0  0  0  1  0  0  0  0  0  0
  182.5160  177.9410  140.1990 C   0  0  0  0  0  3  0  0  0  0  0  0
  183.9410  179.2760  144.1090 C   0  0  0  0  0  2  0  0  0  0  0  0
  187.5940  176.9610  146.6280 C   0  0  0  0  0  2  0  0  0  0  0  0
  186.7230  178.5910  144.8110 C   0  0  2  0  0  3  0  0  0  0  0  0
  189.3500  178.5710  142.5210 C   0  0  0  0  0  2  0  0  0  0  0  0
  1 26  1  1  0  0  0
  2 11  1  0  0  0  0
  2  1  1  0  0  0  0
  3  7  1  0  0  0  0
  3 17  1  0  0  0  0
  4 13  1  0  0  0  0
  6 11  1  0  0  0  0
  7  2  1  0  0  0  0
  9 18  1  0  0  0  0
 10 17  1  0  0  0  0
 10 25  1  0  0  0  0
 11  8  1  0  0  0  0
 12 24  1  0  0  0  0
 13 10  1  0  0  0  0
 14  3  1  0  0  0  0
 15  9  1  0  0  0  0
 15 12  2  0  0  0  0
 16 21  1  0  0  0  0
 17 27  1  0  0  0  0
 18 14  1  0  0  0  0
 18 13  1  0  0  0  0
 20 16  1  0  0  0  0
 21 19  1  0  0  0  0
 21  5  1  0  0  0  0
 22  6  1  0  0  0  0
 23 12  1  0  0  0  0
 24  4  2  0  0  0  0
 25 20  1  0  0  0  0
 26 19  1  0  0  0  0
 27  1  1  0  0  0  0
 27 16  1  0  0  0  0
 28  7  1  0  0  0  0
 28  6  1  0  0  0  0
M  END
>  <MODEL>
1

>  <REMARK>
 VINA RESULT:     -10.0      0.000      0.000
  Name = 
  0 active torsions:
  status: ('A' for Active; 'I' for Inactive)
                            x       y       z     vdW  Elec       q    Type
                         _______ _______ _______ _____ _____    ______ ____

>  <TORSDO>
F 0

$$$$
=
 OpenBabel10272401513D

 28 33  0  0  1  0  0  0  0  0999 V2000
  187.0840  177.1760  143.6460 C   0  0  1  0  0  3  0  0  0  0  0  0
  188.5920  176.9810  143.9280 C   0  0  1  0  0  3  0  0  0  0  0  0
  188.6710  177.3370  141.3830 C   0  0  2  0  0  3  0  0  0  0  0  0
  186.8000  176.9830  138.0310 C   0  0  0  0  0  3  0  0  0  0  0  0
  183.9650  180.0600  144.4690 N   0  0  0  0  0  1  0  0  0  0  0  0
  190.4420  178.5150  144.4600 C   0  0  1  0  0  3  0  0  0  0  0  0
  189.4780  177.1870  142.6810 C   0  0  1  0  0  3  0  0  0  0  0  0
  189.2100  177.3770  146.2230 O   0  0  0  0  0  1  0  0  0  0  0  0
  189.5770  177.9520  137.6640 C   0  0  0  0  0  2  0  0  0  0  0  0
  186.6060  178.0080  140.2950 C   0  0  1  0  0  3  0  0  0  0  0  0
  189.1050  177.9770  144.9650 C   0  0  2  0  0  3  0  0  0  0  0  0
  187.7230  178.0600  136.0020 C   0  0  0  0  0  0  0  0  0  0  0  0
  187.2930  178.0870  138.9220 C   0  0  1  0  0  3  0  0  0  0  0  0
  189.5210  177.4270  140.1110 C   0  0  0  0  0  2  0  0  0  0  0  0
  188.8920  178.5230  136.4580 C   0  0  0  0  0  3  0  0  0  0  0  0
  185.4470  179.0570  142.8090 C   0  0  1  0  0  3  0  0  0  0  0  0
  187.5580  178.3890  141.4300 C   0  0  1  0  0  3  0  0  0  0  0  0
  188.8440  178.2220  138.9810 C   0  0  1  0  0  3  0  0  0  0  0  0
  185.5690  178.4170  145.2710 C   0  0  0  0  0  2  0  0  0  0  0  0
  184.6060  178.5780  141.6300 C   0  0  0  0  0  2  0  0  0  0  0  0
  184.6720  178.8420  144.1150 C   0  0  1  0  0  3  0  0  0  0  0  0
  191.6270  177.6910  144.9500 C   0  0  0  0  0  1  0  0  0  0  0  0
  187.2180  178.5660  134.8120 O   0  0  0  0  0  1  0  0  0  0  0  0
  186.9620  177.0080  136.7060 C   0  0  0  0  0  3  0  0  0  0  0  0
  185.3370  178.8440  140.3230 C   0  0  0  0  0  2  0  0  0  0  0  0
  186.2370  177.0920  144.9250 C   0  0  0  0  0  2  0  0  0  0  0  0
  186.8720  178.4530  142.8120 C   0  0  2  0  0  3  0  0  0  0  0  0
  190.3530  178.4020  142.9540 C   0  0  0  0  0  2  0  0  0  0  0  0
  1  2  1  0  0  0  0
  1 26  1  1  0  0  0
  2 11  1  0  0  0  0
  3 17  1  0  0  0  0
  3  7  1  0  0  0  0
  4 13  1  0  0  0  0
  6 22  1  0  0  0  0
  6 11  1  0  0  0  0
  7 28  1  0  0  0  0
  7  2  1  0  0  0  0
  9 18  1  0  0  0  0
 10 25  1  0  0  0  0
 10 17  1  0  0  0  0
 11  8  1  0  0  0  0
 12 15  2  0  0  0  0
 12 24  1  0  0  0  0
 13 18  1  0  0  0  0
 13 10  1  0  0  0  0
 14  3  1  0  0  0  0
 15  9  1  0  0  0  0
 16 27  1  0  0  0  0
 16 21  1  0  0  0  0
 17 27  1  0  0  0  0
 18 14  1  0  0  0  0
 20 16  1  0  0  0  0
 21  5  1  0  0  0  0
 21 19  1  0  0  0  0
 23 12  1  0  0  0  0
 24  4  2  0  0  0  0
 25 20  1  0  0  0  0
 26 19  1  0  0  0  0
 27  1  1  0  0  0  0
 28  6  1  0  0  0  0
M  END
>  <MODEL>
2

>  <REMARK>
 VINA RESULT:      -9.4      2.563      3.579
  Name = 
  0 active torsions:
  status: ('A' for Active; 'I' for Inactive)
                            x       y       z     vdW  Elec       q    Type
                         _______ _______ _______ _____ _____    ______ ____

>  <TORSDO>
F 0

$$$$
=
 OpenBabel10272401513D

 28 33  0  0  1  0  0  0  0  0999 V2000
  189.5000  178.1180  144.1760 C   0  0  1  0  0  3  0  0  0  0  0  0
  188.1110  178.5350  144.7160 C   0  0  1  0  0  3  0  0  0  0  0  0
  187.5940  178.4690  142.1980 C   0  0  2  0  0  3  0  0  0  0  0  0
  188.9840  178.8540  138.6230 C   0  0  0  0  0  3  0  0  0  0  0  0
  192.1220  174.6780  144.2500 N   0  0  0  0  0  1  0  0  0  0  0  0
  186.1100  177.2890  145.4220 C   0  0  1  0  0  3  0  0  0  0  0  0
  187.0290  178.6150  143.6180 C   0  0  1  0  0  3  0  0  0  0  0  0
  187.7760  178.0080  147.0430 O   0  0  0  0  0  1  0  0  0  0  0  0
  186.0530  178.4140  138.6410 C   0  0  0  0  0  2  0  0  0  0  0  0
  189.3180  177.5770  140.7380 C   0  0  1  0  0  3  0  0  0  0  0  0
  187.5820  177.5350  145.7420 C   0  0  2  0  0  3  0  0  0  0  0  0
  187.5910  178.1700  136.6950 C   0  0  0  0  0  0  0  0  0  0  0  0
  188.4330  177.7620  139.4940 C   0  0  1  0  0  3  0  0  0  0  0  0
  186.5640  178.6590  141.0800 C   0  0  0  0  0  2  0  0  0  0  0  0
  186.4370  177.8660  137.2980 C   0  0  0  0  0  3  0  0  0  0  0  0
  190.6220  176.0870  142.9380 C   0  0  1  0  0  3  0  0  0  0  0  0
  188.4900  177.2450  141.9800 C   0  0  1  0  0  3  0  0  0  0  0  0
  186.9090  177.8860  139.7950 C   0  0  1  0  0  3  0  0  0  0  0  0
  190.9830  176.4730  145.4290 C   0  0  0  0  0  2  0  0  0  0  0  0
  191.3530  176.5380  141.6780 C   0  0  0  0  0  2  0  0  0  0  0  0
  191.6070  176.0280  144.1130 C   0  0  1  0  0  3  0  0  0  0  0  0
  185.1810  178.2440  146.1620 C   0  0  0  0  0  1  0  0  0  0  0  0
  187.8130  177.7150  135.4020 O   0  0  0  0  0  1  0  0  0  0  0  0
  188.6270  178.9980  137.3440 C   0  0  0  0  0  3  0  0  0  0  0  0
  190.4010  176.5400  140.4920 C   0  0  0  0  0  2  0  0  0  0  0  0
  190.5270  177.9220  145.3010 C   0  0  0  0  0  2  0  0  0  0  0  0
  189.3480  176.9190  143.2220 C   0  0  2  0  0  3  0  0  0  0  0  0
  185.9950  177.5440  143.9350 C   0  0  0  0  0  2  0  0  0  0  0  0
  1  2  1  0  0  0  0
  1 26  1  1  0  0  0
  2 11  1  0  0  0  0
  3  7  1  0  0  0  0
  4 13  1  0  0  0  0
  6 11  1  0  0  0  0
  6 22  1  0  0  0  0
  7 28  1  0  0  0  0
  7  2  1  0  0  0  0
  9 18  1  0  0  0  0
 10 17  1  0  0  0  0
 11  8  1  0  0  0  0
 12 15  2  0  0  0  0
 12 24  1  0  0  0  0
 13 18  1  0  0  0  0
 13 10  1  0  0  0  0
 14  3  1  0  0  0  0
 15  9  1  0  0  0  0
 16 27  1  0  0  0  0
 16 21  1  0  0  0  0
 17  3  1  0  0  0  0
 17 27  1  0  0  0  0
 18 14  1  0  0  0  0
 20 16  1  0  0  0  0
 21  5  1  0  0  0  0
 21 19  1  0  0  0  0
 23 12  1  0  0  0  0
 24  4  2  0  0  0  0
 25 10  1  0  0  0  0
 25 20  1  0  0  0  0
 26 19  1  0  0  0  0
 27  1  1  0  0  0  0
 28  6  1  0  0  0  0
M  END
>  <MODEL>
3

>  <REMARK>
 VINA RESULT:      -8.4      2.937      5.067
  Name = 
  0 active torsions:
  status: ('A' for Active; 'I' for Inactive)
                            x       y       z     vdW  Elec       q    Type
                         _______ _______ _______ _____ _____    ______ ____

>  <TORSDO>
F 0

$$$$
=
 OpenBabel10272401513D

 28 33  0  0  1  0  0  0  0  0999 V2000
  185.0090  177.4240  139.0980 C   0  0  1  0  0  3  0  0  0  0  0  0
  183.4950  177.7210  139.1980 C   0  0  1  0  0  3  0  0  0  0  0  0
  184.1620  178.0440  141.6600 C   0  0  2  0  0  3  0  0  0  0  0  0
  186.5970  177.0640  144.4820 C   0  0  0  0  0  3  0  0  0  0  0  0
  188.5640  179.1850  137.3710 N   0  0  0  0  0  1  0  0  0  0  0  0
  182.1420  179.7700  139.0280 C   0  0  1  0  0  3  0  0  0  0  0  0
  183.0540  178.1770  140.6050 C   0  0  1  0  0  3  0  0  0  0  0  0
  182.4830  178.3280  137.0970 O   0  0  0  0  0  1  0  0  0  0  0  0
  184.4400  178.8550  145.4410 C   0  0  0  0  0  2  0  0  0  0  0  0
  186.5340  178.0090  142.1770 C   0  0  1  0  0  3  0  0  0  0  0  0
  183.0770  178.8450  138.2520 C   0  0  2  0  0  3  0  0  0  0  0  0
  186.5860  178.3450  146.6000 C   0  0  0  0  0  0  0  0  0  0  0  0
  186.2670  178.2800  143.6670 C   0  0  1  0  0  3  0  0  0  0  0  0
  183.7230  178.3790  143.0900 C   0  0  0  0  0  2  0  0  0  0  0  0
  185.5440  179.1610  146.4090 C   0  0  0  0  0  3  0  0  0  0  0  0
  187.3030  178.6770  139.3970 C   0  0  1  0  0  3  0  0  0  0  0  0
  185.4980  178.6900  141.2810 C   0  0  1  0  0  3  0  0  0  0  0  0
  184.8710  178.9000  143.9730 C   0  0  1  0  0  3  0  0  0  0  0  0
  186.3840  178.1470  137.0820 C   0  0  0  0  0  2  0  0  0  0  0  0
  188.2170  177.9380  140.3690 C   0  0  0  0  0  2  0  0  0  0  0  0
  187.6250  178.2480  137.9600 C   0  0  1  0  0  3  0  0  0  0  0  0
  180.6760  179.3720  138.8890 C   0  0  0  0  0  1  0  0  0  0  0  0
  187.5000  178.6460  147.6010 O   0  0  0  0  0  1  0  0  0  0  0  0
  186.7840  177.1170  145.8040 C   0  0  0  0  0  3  0  0  0  0  0  0
  187.9510  178.4020  141.7930 C   0  0  0  0  0  2  0  0  0  0  0  0
  185.4450  177.0960  137.6620 C   0  0  0  0  0  2  0  0  0  0  0  0
  185.8070  178.5550  139.7740 C   0  0  2  0  0  3  0  0  0  0  0  0
  182.5600  179.6100  140.4720 C   0  0  0  0  0  2  0  0  0  0  0  0
  1 26  1  6  0  0  0
  1  2  1  0  0  0  0
  1 27  1  0  0  0  0
  2  7  1  0  0  0  0
  3 14  1  0  0  0  0
  4 24  2  0  0  0  0
  5 21  1  0  0  0  0
  6 28  1  0  0  0  0
  7  3  1  0  0  0  0
  8 11  1  0  0  0  0
  9 15  1  0  0  0  0
 10 13  1  0  0  0  0
 11  6  1  0  0  0  0
 11  2  1  0  0  0  0
 12 23  1  0  0  0  0
 13 18  1  0  0  0  0
 13  4  1  0  0  0  0
 14 18  1  0  0  0  0
 15 12  2  0  0  0  0
 16 27  1  0  0  0  0
 16 20  1  0  0  0  0
 17  3  1  0  0  0  0
 17 10  1  0  0  0  0
 18  9  1  0  0  0  0
 19 26  1  0  0  0  0
 19 21  1  0  0  0  0
 20 25  1  0  0  0  0
 21 16  1  0  0  0  0
 22  6  1  0  0  0  0
 24 12  1  0  0  0  0
 25 10  1  0  0  0  0
 27 17  1  0  0  0  0
 28  7  1  0  0  0  0
M  END
>  <MODEL>
4

>  <REMARK>
 VINA RESULT:      -8.0      2.718      7.532
  Name = 
  0 active torsions:
  status: ('A' for Active; 'I' for Inactive)
                            x       y       z     vdW  Elec       q    Type
                         _______ _______ _______ _____ _____    ______ ____

>  <TORSDO>
F 0

$$$$
=
 OpenBabel10272401513D

 28 33  0  0  1  0  0  0  0  0999 V2000
  189.7290  178.1470  145.2630 C   0  0  1  0  0  3  0  0  0  0  0  0
  188.9490  178.4130  146.5710 C   0  0  1  0  0  3  0  0  0  0  0  0
  187.0060  178.4850  144.8880 C   0  0  2  0  0  3  0  0  0  0  0  0
  185.9220  179.2290  141.2650 C   0  0  0  0  0  3  0  0  0  0  0  0
  191.9200  174.9280  143.3780 N   0  0  0  0  0  1  0  0  0  0  0  0
  187.8170  176.9660  148.2090 C   0  0  1  0  0  3  0  0  0  0  0  0
  187.4210  178.4850  146.3670 C   0  0  1  0  0  3  0  0  0  0  0  0
  190.1110  177.6990  148.5570 O   0  0  0  0  0  1  0  0  0  0  0  0
  183.6180  178.5590  143.0050 C   0  0  0  0  0  2  0  0  0  0  0  0
  187.5000  177.8370  142.6010 C   0  0  1  0  0  3  0  0  0  0  0  0
  189.1740  177.3050  147.5980 C   0  0  2  0  0  3  0  0  0  0  0  0
  183.6560  178.5750  140.5130 C   0  0  0  0  0  0  0  0  0  0  0  0
  186.0380  178.0380  142.1720 C   0  0  1  0  0  3  0  0  0  0  0  0
  185.5040  178.6710  144.6480 C   0  0  0  0  0  2  0  0  0  0  0  0
  183.1150  178.1390  141.6550 C   0  0  0  0  0  3  0  0  0  0  0  0
  189.9040  176.3030  143.3950 C   0  0  1  0  0  3  0  0  0  0  0  0
  187.6070  177.3540  144.0480 C   0  0  1  0  0  3  0  0  0  0  0  0
  185.0110  178.0200  143.3440 C   0  0  1  0  0  3  0  0  0  0  0  0
  191.7010  176.5400  145.1840 C   0  0  0  0  0  2  0  0  0  0  0  0
  189.7070  176.8990  142.0050 C   0  0  0  0  0  2  0  0  0  0  0  0
  191.4020  176.2390  143.7210 C   0  0  1  0  0  3  0  0  0  0  0  0
  187.5130  177.7910  149.4550 C   0  0  0  0  0  1  0  0  0  0  0  0
  183.0530  178.2310  139.3110 O   0  0  0  0  0  1  0  0  0  0  0  0
  184.8570  179.4340  140.4860 C   0  0  0  0  0  3  0  0  0  0  0  0
  188.2300  176.9080  141.6440 C   0  0  0  0  0  2  0  0  0  0  0  0
  191.2330  177.9530  145.5100 C   0  0  0  0  0  2  0  0  0  0  0  0
  189.0510  177.0100  144.4750 C   0  0  2  0  0  3  0  0  0  0  0  0
  186.8160  177.3160  147.1310 C   0  0  0  0  0  2  0  0  0  0  0  0
  1 26  1  1  0  0  0
  1  2  1  0  0  0  0
  2 11  1  0  0  0  0
  3  7  1  0  0  0  0
  4 13  1  0  0  0  0
  5 21  1  0  0  0  0
  6 22  1  0  0  0  0
  7  2  1  0  0  0  0
  7 28  1  0  0  0  0
  9 18  1  0  0  0  0
 10 17  1  0  0  0  0
 11  6  1  0  0  0  0
 11  8  1  0  0  0  0
 12 15  2  0  0  0  0
 13 10  1  0  0  0  0
 13 18  1  0  0  0  0
 14  3  1  0  0  0  0
 15  9  1  0  0  0  0
 16 21  1  0  0  0  0
 16 27  1  0  0  0  0
 17 27  1  0  0  0  0
 17  3  1  0  0  0  0
 18 14  1  0  0  0  0
 19 26  1  0  0  0  0
 20 16  1  0  0  0  0
 21 19  1  0  0  0  0
 23 12  1  0  0  0  0
 24 12  1  0  0  0  0
 24  4  2  0  0  0  0
 25 20  1  0  0  0  0
 25 10  1  0  0  0  0
 27  1  1  0  0  0  0
 28  6  1  0  0  0  0
M  END
>  <MODEL>
5

>  <REMARK>
 VINA RESULT:      -7.9      2.250      4.444
  Name = 
  0 active torsions:
  status: ('A' for Active; 'I' for Inactive)
                            x       y       z     vdW  Elec       q    Type
                         _______ _______ _______ _____ _____    ______ ____

>  <TORSDO>
F 0

$$$$
=
 OpenBabel10272401513D

 28 33  0  0  1  0  0  0  0  0999 V2000
  188.8310  178.4370  137.9890 C   0  0  1  0  0  3  0  0  0  0  0  0
  190.0710  177.7120  137.4170 C   0  0  1  0  0  3  0  0  0  0  0  0
  190.5080  177.3970  139.9320 C   0  0  2  0  0  3  0  0  0  0  0  0
  189.9840  178.8030  143.4820 C   0  0  0  0  0  3  0  0  0  0  0  0
  184.5390  177.9110  138.1440 N   0  0  0  0  0  1  0  0  0  0  0  0
  190.5460  175.3820  136.7800 C   0  0  1  0  0  3  0  0  0  0  0  0
  190.9380  177.0370  138.5020 C   0  0  1  0  0  3  0  0  0  0  0  0
  189.8180  177.0110  135.1260 O   0  0  0  0  0  1  0  0  0  0  0  0
  191.7170  176.3980  143.4770 C   0  0  0  0  0  2  0  0  0  0  0  0
  188.7380  178.0670  141.4530 C   0  0  1  0  0  3  0  0  0  0  0  0
  189.6780  176.5950  136.4530 C   0  0  2  0  0  3  0  0  0  0  0  0
  190.5630  177.4070  145.4420 C   0  0  0  0  0  0  0  0  0  0  0  0
  189.5470  177.6130  142.6790 C   0  0  1  0  0  3  0  0  0  0  0  0
  191.4170  176.8370  141.0300 C   0  0  0  0  0  2  0  0  0  0  0  0
  191.1220  176.3450  144.8540 C   0  0  0  0  0  3  0  0  0  0  0  0
  186.6560  177.8730  139.3570 C   0  0  1  0  0  3  0  0  0  0  0  0
  189.0190  177.1930  140.2300 C   0  0  1  0  0  3  0  0  0  0  0  0
  190.6860  176.5970  142.3630 C   0  0  1  0  0  3  0  0  0  0  0  0
  186.5590  178.3010  136.8490 C   0  0  0  0  0  2  0  0  0  0  0  0
  186.5290  178.7620  140.5900 C   0  0  0  0  0  2  0  0  0  0  0  0
  185.8690  178.4900  138.1940 C   0  0  1  0  0  3  0  0  0  0  0  0
  191.8410  175.3540  135.9770 C   0  0  0  0  0  1  0  0  0  0  0  0
  190.1450  177.3000  146.7620 O   0  0  0  0  0  1  0  0  0  0  0  0
  190.3990  178.7000  144.7480 C   0  0  0  0  0  3  0  0  0  0  0  0
  187.2520  178.1290  141.7690 C   0  0  0  0  0  2  0  0  0  0  0  0
  187.9180  178.9900  136.8830 C   0  0  0  0  0  2  0  0  0  0  0  0
  188.1260  177.5310  139.0160 C   0  0  2  0  0  3  0  0  0  0  0  0
  190.8800  175.5380  138.2470 C   0  0  0  0  0  2  0  0  0  0  0  0
  1 26  1  6  0  0  0
  1 27  1  0  0  0  0
  2  1  1  0  0  0  0
  2  7  1  0  0  0  0
  3 17  1  0  0  0  0
  3 14  1  0  0  0  0
  4 24  2  0  0  0  0
  5 21  1  0  0  0  0
  6 28  1  0  0  0  0
  7  3  1  0  0  0  0
  8 11  1  0  0  0  0
  9 15  1  0  0  0  0
 10 25  1  0  0  0  0
 10 13  1  0  0  0  0
 11  6  1  0  0  0  0
 11  2  1  0  0  0  0
 12 23  1  0  0  0  0
 13  4  1  0  0  0  0
 14 18  1  0  0  0  0
 15 12  2  0  0  0  0
 16 20  1  0  0  0  0
 17 10  1  0  0  0  0
 18 13  1  0  0  0  0
 18  9  1  0  0  0  0
 19 26  1  0  0  0  0
 19 21  1  0  0  0  0
 20 25  1  0  0  0  0
 21 16  1  0  0  0  0
 22  6  1  0  0  0  0
 24 12  1  0  0  0  0
 27 16  1  0  0  0  0
 27 17  1  0  0  0  0
 28  7  1  0  0  0  0
M  END
>  <MODEL>
6

>  <REMARK>
 VINA RESULT:      -7.8      4.112      7.725
  Name = 
  0 active torsions:
  status: ('A' for Active; 'I' for Inactive)
                            x       y       z     vdW  Elec       q    Type
                         _______ _______ _______ _____ _____    ______ ____

>  <TORSDO>
F 0

$$$$
=
 OpenBabel10272401513D

 28 33  0  0  1  0  0  0  0  0999 V2000
  189.9150  176.3010  138.7120 C   0  0  1  0  0  3  0  0  0  0  0  0
  188.8860  176.5760  137.5910 C   0  0  1  0  0  3  0  0  0  0  0  0
  187.5770  177.4820  139.6110 C   0  0  2  0  0  3  0  0  0  0  0  0
  186.9690  177.2490  143.4100 C   0  0  0  0  0  3  0  0  0  0  0  0
  193.8150  177.6960  139.9640 N   0  0  0  0  0  1  0  0  0  0  0  0
  188.4410  178.4940  136.1150 C   0  0  1  0  0  3  0  0  0  0  0  0
  187.6370  177.3380  138.0830 C   0  0  1  0  0  3  0  0  0  0  0  0
  189.8500  176.6500  135.3840 O   0  0  0  0  0  1  0  0  0  0  0  0
  185.1230  179.1610  142.0980 C   0  0  0  0  0  2  0  0  0  0  0  0
  188.7650  177.6270  141.7240 C   0  0  1  0  0  3  0  0  0  0  0  0
  189.4800  177.4370  136.4790 C   0  0  2  0  0  3  0  0  0  0  0  0
  185.6150  178.9890  144.5350 C   0  0  0  0  0  0  0  0  0  0  0  0
  187.5410  178.2320  142.4300 C   0  0  1  0  0  3  0  0  0  0  0  0
  186.2940  178.1310  140.1390 C   0  0  0  0  0  2  0  0  0  0  0  0
  185.1950  179.7120  143.4920 C   0  0  0  0  0  3  0  0  0  0  0  0
  191.4150  177.6450  140.4050 C   0  0  1  0  0  3  0  0  0  0  0  0
  188.8430  178.0540  140.2570 C   0  0  1  0  0  3  0  0  0  0  0  0
  186.4910  178.8720  141.4730 C   0  0  1  0  0  3  0  0  0  0  0  0
  192.4170  176.5670  138.3260 C   0  0  0  0  0  2  0  0  0  0  0  0
  191.1920  177.1770  141.8390 C   0  0  0  0  0  2  0  0  0  0  0  0
  192.6120  176.9000  139.8000 C   0  0  1  0  0  3  0  0  0  0  0  0
  187.5080  178.0390  134.9980 C   0  0  0  0  0  1  0  0  0  0  0  0
  185.5370  179.5380  145.8080 O   0  0  0  0  0  1  0  0  0  0  0  0
  186.1340  177.6140  144.3860 C   0  0  0  0  0  3  0  0  0  0  0  0
  190.0480  177.9540  142.4710 C   0  0  0  0  0  2  0  0  0  0  0  0
  191.2030  175.6580  138.1760 C   0  0  0  0  0  2  0  0  0  0  0  0
  190.1290  177.5780  139.5460 C   0  0  2  0  0  3  0  0  0  0  0  0
  187.6350  178.6870  137.3800 C   0  0  0  0  0  2  0  0  0  0  0  0
  1 26  1  6  0  0  0
  1 27  1  0  0  0  0
  2  7  1  0  0  0  0
  2  1  1  0  0  0  0
  3 14  1  0  0  0  0
  3 17  1  0  0  0  0
  4 24  2  0  0  0  0
  6 11  1  0  0  0  0
  6 28  1  0  0  0  0
  7  3  1  0  0  0  0
  8 11  1  0  0  0  0
  9 15  1  0  0  0  0
 10 13  1  0  0  0  0
 10 25  1  0  0  0  0
 11  2  1  0  0  0  0
 12 23  1  0  0  0  0
 13  4  1  0  0  0  0
 14 18  1  0  0  0  0
 15 12  2  0  0  0  0
 16 20  1  0  0  0  0
 17 10  1  0  0  0  0
 18  9  1  0  0  0  0
 18 13  1  0  0  0  0
 19 21  1  0  0  0  0
 20 25  1  0  0  0  0
 21  5  1  0  0  0  0
 21 16  1  0  0  0  0
 22  6  1  0  0  0  0
 24 12  1  0  0  0  0
 26 19  1  0  0  0  0
 27 17  1  0  0  0  0
 27 16  1  0  0  0  0
 28  7  1  0  0  0  0
M  END
>  <MODEL>
7

>  <REMARK>
 VINA RESULT:      -7.7      4.167      6.931
  Name = 
  0 active torsions:
  status: ('A' for Active; 'I' for Inactive)
                            x       y       z     vdW  Elec       q    Type
                         _______ _______ _______ _____ _____    ______ ____

>  <TORSDO>
F 0

$$$$
=
 OpenBabel10272401513D

 28 33  0  0  1  0  0  0  0  0999 V2000
  187.7500  176.8400  143.2740 C   0  0  1  0  0  3  0  0  0  0  0  0
  188.7230  176.6520  144.4620 C   0  0  1  0  0  3  0  0  0  0  0  0
  190.4070  176.6430  142.5190 C   0  0  2  0  0  3  0  0  0  0  0  0
  191.0060  175.8630  138.7920 C   0  0  0  0  0  3  0  0  0  0  0  0
  185.1290  179.8830  141.6640 N   0  0  0  0  0  1  0  0  0  0  0  0
  189.9900  178.2020  145.8930 C   0  0  1  0  0  3  0  0  0  0  0  0
  190.2080  176.6590  144.0420 C   0  0  1  0  0  3  0  0  0  0  0  0
  187.8150  177.3540  146.5810 O   0  0  0  0  0  1  0  0  0  0  0  0
  193.4910  176.7050  140.1710 C   0  0  0  0  0  2  0  0  0  0  0  0
  189.5560  177.2010  140.3150 C   0  0  1  0  0  3  0  0  0  0  0  0
  188.5810  177.7730  145.4900 C   0  0  2  0  0  3  0  0  0  0  0  0
  193.1000  176.6200  137.7110 C   0  0  0  0  0  0  0  0  0  0  0  0
  190.9520  177.0690  139.6840 C   0  0  1  0  0  3  0  0  0  0  0  0
  191.8680  176.5330  142.0690 C   0  0  0  0  0  2  0  0  0  0  0  0
  193.7720  177.1160  138.7560 C   0  0  0  0  0  3  0  0  0  0  0  0
  187.2040  178.6220  141.4170 C   0  0  1  0  0  3  0  0  0  0  0  0
  189.6280  177.7160  141.7530 C   0  0  1  0  0  3  0  0  0  0  0  0
  192.1320  177.1750  140.6960 C   0  0  1  0  0  3  0  0  0  0  0  0
  185.6970  178.3340  143.4500 C   0  0  0  0  0  2  0  0  0  0  0  0
  187.2350  178.0010  140.0250 C   0  0  0  0  0  2  0  0  0  0  0  0
  185.7670  178.6110  141.9540 C   0  0  1  0  0  3  0  0  0  0  0  0
  190.5150  177.4290  147.0970 C   0  0  0  0  0  1  0  0  0  0  0  0
  193.5050  176.9650  136.4280 O   0  0  0  0  0  1  0  0  0  0  0  0
  191.9600  175.6960  137.8720 C   0  0  0  0  0  3  0  0  0  0  0  0
  188.6440  178.0630  139.4560 C   0  0  0  0  0  2  0  0  0  0  0  0
  186.2880  176.9580  143.7310 C   0  0  0  0  0  2  0  0  0  0  0  0
  188.2420  177.9920  142.3770 C   0  0  2  0  0  3  0  0  0  0  0  0
  190.8460  177.8800  144.6890 C   0  0  0  0  0  2  0  0  0  0  0  0
  1 26  1  1  0  0  0
  1  2  1  0  0  0  0
  2 11  1  0  0  0  0
  3  7  1  0  0  0  0
  4 13  1  0  0  0  0
  5 21  1  0  0  0  0
  6 22  1  0  0  0  0
  7  2  1  0  0  0  0
  7 28  1  0  0  0  0
  9 18  1  0  0  0  0
 10 17  1  0  0  0  0
 11  6  1  0  0  0  0
 11  8  1  0  0  0  0
 12 24  1  0  0  0  0
 12 15  2  0  0  0  0
 13 10  1  0  0  0  0
 13 18  1  0  0  0  0
 14  3  1  0  0  0  0
 15  9  1  0  0  0  0
 16 21  1  0  0  0  0
 16 27  1  0  0  0  0
 17 27  1  0  0  0  0
 17  3  1  0  0  0  0
 18 14  1  0  0  0  0
 19 26  1  0  0  0  0
 20 16  1  0  0  0  0
 21 19  1  0  0  0  0
 23 12  1  0  0  0  0
 24  4  2  0  0  0  0
 25 20  1  0  0  0  0
 25 10  1  0  0  0  0
 27  1  1  0  0  0  0
 28  6  1  0  0  0  0
M  END
>  <MODEL>
8

>  <REMARK>
 VINA RESULT:      -7.5      3.381      6.198
  Name = 
  0 active torsions:
  status: ('A' for Active; 'I' for Inactive)
                            x       y       z     vdW  Elec       q    Type
                         _______ _______ _______ _____ _____    ______ ____

>  <TORSDO>
F 0

$$$$
=
 OpenBabel10272401513D

 28 33  0  0  1  0  0  0  0  0999 V2000
  190.1090  178.4390  143.7080 C   0  0  1  0  0  3  0  0  0  0  0  0
  190.3360  178.2350  145.2240 C   0  0  1  0  0  3  0  0  0  0  0  0
  187.7700  178.4070  145.1900 C   0  0  2  0  0  3  0  0  0  0  0  0
  184.6720  179.8510  143.4080 C   0  0  0  0  0  3  0  0  0  0  0  0
  190.5210  176.2040  140.0260 N   0  0  0  0  0  1  0  0  0  0  0  0
  190.4410  176.2570  146.6840 C   0  0  1  0  0  3  0  0  0  0  0  0
  189.0230  178.1040  146.0250 C   0  0  1  0  0  3  0  0  0  0  0  0
  192.4650  177.2460  145.7640 O   0  0  0  0  0  1  0  0  0  0  0  0
  183.9570  178.3950  145.8880 C   0  0  0  0  0  2  0  0  0  0  0  0
  186.6940  178.4470  143.0130 C   0  0  1  0  0  3  0  0  0  0  0  0
  191.1210  176.9580  145.5110 C   0  0  2  0  0  3  0  0  0  0  0  0
  182.4190  179.0440  144.0380 C   0  0  0  0  0  0  0  0  0  0  0  0
  185.2950  178.5060  143.6480 C   0  0  1  0  0  3  0  0  0  0  0  0
  186.4590  178.3980  145.9820 C   0  0  0  0  0  2  0  0  0  0  0  0
  182.7030  178.2510  145.0760 C   0  0  0  0  0  3  0  0  0  0  0  0
  189.0110  177.1800  141.6770 C   0  0  1  0  0  3  0  0  0  0  0  0
  187.6720  177.6390  143.8680 C   0  0  1  0  0  3  0  0  0  0  0  0
  185.2340  178.0250  145.1290 C   0  0  1  0  0  3  0  0  0  0  0  0
  191.5400  177.2510  141.9700 C   0  0  0  0  0  2  0  0  0  0  0  0
  188.0020  178.0650  140.9520 C   0  0  0  0  0  2  0  0  0  0  0  0
  190.3770  177.2830  140.9870 C   0  0  1  0  0  3  0  0  0  0  0  0
  191.0150  176.6800  148.0310 C   0  0  0  0  0  1  0  0  0  0  0  0
  181.1830  178.9190  143.4170 O   0  0  0  0  0  1  0  0  0  0  0  0
  183.3610  180.0680  143.5440 C   0  0  0  0  0  3  0  0  0  0  0  0
  186.6280  177.9220  141.5890 C   0  0  0  0  0  2  0  0  0  0  0  0
  191.4260  178.4400  142.9170 C   0  0  0  0  0  2  0  0  0  0  0  0
  189.0510  177.4410  143.2010 C   0  0  2  0  0  3  0  0  0  0  0  0
  188.9960  176.6970  146.6050 C   0  0  0  0  0  2  0  0  0  0  0  0
  1 26  1  6  0  0  0
  1  2  1  0  0  0  0
  2 11  1  0  0  0  0
  2  7  1  0  0  0  0
  3 14  1  0  0  0  0
  3  7  1  0  0  0  0
  4 24  2  0  0  0  0
  4 13  1  0  0  0  0
  5 21  1  0  0  0  0
  6 22  1  0  0  0  0
  7 28  1  0  0  0  0
 10 13  1  0  0  0  0
 10 17  1  0  0  0  0
 11  8  1  0  0  0  0
 11  6  1  0  0  0  0
 12 15  2  0  0  0  0
 13 18  1  0  0  0  0
 15  9  1  0  0  0  0
 16 27  1  0  0  0  0
 17  3  1  0  0  0  0
 18  9  1  0  0  0  0
 18 14  1  0  0  0  0
 19 26  1  0  0  0  0
 20 25  1  0  0  0  0
 20 16  1  0  0  0  0
 21 16  1  0  0  0  0
 21 19  1  0  0  0  0
 23 12  1  0  0  0  0
 24 12  1  0  0  0  0
 25 10  1  0  0  0  0
 27  1  1  0  0  0  0
 27 17  1  0  0  0  0
 28  6  1  0  0  0  0
M  END
>  <MODEL>
9

>  <REMARK>
 VINA RESULT:      -7.3      2.847      4.841
  Name = 
  0 active torsions:
  status: ('A' for Active; 'I' for Inactive)
                            x       y       z     vdW  Elec       q    Type
                         _______ _______ _______ _____ _____    ______ ____

>  <TORSDO>
F 0

$$$$
