=
 OpenBabel10262423503D

 34 39  0  0  1  0  0  0  0  0999 V2000
  188.6450  176.9030  145.5270 C   0  0  1  0  0  3  0  0  0  0  0  0
  190.4510  176.6900  143.7280 C   0  0  2  0  0  3  0  0  0  0  0  0
  188.1280  177.5290  143.1520 C   0  0  0  0  0  0  0  0  0  0  0  0
  187.5180  178.1590  140.9100 N   0  0  0  0  0  0  0  0  0  0  0  0
  191.0490  177.2690  146.0960 C   0  0  0  0  0  3  0  0  0  0  0  0
  191.4210  176.8630  144.8730 C   0  0  0  0  0  3  0  0  0  0  0  0
  189.6690  177.5850  141.1370 C   0  0  0  0  0  3  0  0  0  0  0  0
  189.0340  177.0900  144.0750 C   0  0  0  0  0  0  0  0  0  0  0  0
  188.0700  178.2890  139.6950 C   0  0  0  0  0  3  0  0  0  0  0  0
  189.6320  177.6560  146.4110 C   0  0  0  0  0  2  0  0  0  0  0  0
  186.7800  177.8160  143.5370 C   0  0  0  0  0  0  0  0  0  0  0  0
  187.3230  177.3460  145.8140 O   0  0  0  0  0  0  0  0  0  0  0  0
  190.4830  175.2440  143.2650 C   0  0  0  0  0  1  0  0  0  0  0  0
  186.2350  178.4090  141.2410 C   0  0  0  0  0  3  0  0  0  0  0  0
  185.8200  178.2360  142.5660 C   0  0  0  0  0  0  0  0  0  0  0  0
  189.4000  177.9360  139.8250 C   0  0  0  0  0  0  0  0  0  0  0  0
  188.4500  177.7360  141.7860 C   0  0  0  0  0  0  0  0  0  0  0  0
  186.4230  177.7310  144.8230 C   0  0  0  0  0  3  0  0  0  0  0  0
  182.0770  178.8040  142.1760 C   0  0  0  0  0  0  0  0  0  0  0  0
  181.7090  179.1020  143.4900 C   0  0  0  0  0  3  0  0  0  0  0  0
  184.3900  178.5110  142.8800 C   0  0  0  0  0  0  0  0  0  0  0  0
  182.6740  179.1120  144.5000 C   0  0  0  0  0  3  0  0  0  0  0  0
  183.4100  178.5170  141.8720 C   0  0  0  0  0  3  0  0  0  0  0  0
  184.0080  178.8230  144.1960 C   0  0  0  0  0  3  0  0  0  0  0  0
  181.1440  178.7990  141.1950 F   0  0  0  0  0  0  0  0  0  0  0  0
  190.3670  177.9300  138.7760 N   0  0  0  0  0  2  0  0  0  0  0  0
  190.2130  177.1060  137.5880 C   0  0  0  0  0  2  0  0  0  0  0  0
  189.7050  174.2260  137.0670 C   0  0  0  0  0  1  0  0  0  0  0  0
  191.3270  176.1150  137.5150 C   0  0  0  0  0  0  0  0  0  0  0  0
  191.0840  174.7510  137.2810 C   0  0  0  0  0  0  0  0  0  0  0  0
  193.4090  174.3160  137.4420 C   0  0  0  0  0  3  0  0  0  0  0  0
  193.6490  175.6700  137.6820 C   0  0  0  0  0  3  0  0  0  0  0  0
  192.6030  176.5370  137.7150 N   0  0  0  0  0  0  0  0  0  0  0  0
  192.1340  173.8880  137.2480 N   0  0  0  0  0  0  0  0  0  0  0  0
  1 12  1  0  0  0  0
  1 10  1  1  0  0  0
  2 13  1  1  0  0  0
  2  8  1  0  0  0  0
  2  6  1  0  0  0  0
  3 11  1  0  0  0  0
  3  8  2  0  0  0  0
  4 14  1  0  0  0  0
  4 17  1  0  0  0  0
  5 10  1  0  0  0  0
  6  5  2  0  0  0  0
  7 17  2  0  0  0  0
  8  1  1  0  0  0  0
  9 16  2  0  0  0  0
  9  4  1  0  0  0  0
 11 18  2  0  0  0  0
 14 15  2  0  0  0  0
 15 21  1  0  0  0  0
 15 11  1  0  0  0  0
 16  7  1  0  0  0  0
 17  3  1  0  0  0  0
 18 12  1  0  0  0  0
 19 20  1  0  0  0  0
 20 22  2  0  0  0  0
 21 24  2  0  0  0  0
 23 19  2  0  0  0  0
 23 21  1  0  0  0  0
 24 22  1  0  0  0  0
 25 19  1  0  0  0  0
 26 16  1  0  0  0  0
 27 26  1  0  0  0  0
 28 30  1  0  0  0  0
 29 27  1  0  0  0  0
 29 33  1  0  0  0  0
 30 29  2  0  0  0  0
 31 32  1  0  0  0  0
 32 33  2  0  0  0  0
 34 30  1  0  0  0  0
 34 31  2  0  0  0  0
M  END
>  <MODEL>
1

>  <REMARK>
 VINA RESULT:     -10.4      0.000      0.000
  Name = 
  4 active torsions:
  status: ('A' for Active; 'I' for Inactive)
    1  A    between atoms: C_3  and  C_13
    2  A    between atoms: C_3  and  N_17
    3  A    between atoms: C_12  and  C_28
    4  A    between atoms: N_17  and  C_29
                            x       y       z     vdW  Elec       q    Type
                         _______ _______ _______ _____ _____    ______ ____

>  <TORSDO>
F 4

$$$$
=
 OpenBabel10262423503D

 34 39  0  0  1  0  0  0  0  0999 V2000
  188.6130  176.9460  145.4650 C   0  0  1  0  0  3  0  0  0  0  0  0
  190.4000  176.7250  143.6470 C   0  0  2  0  0  3  0  0  0  0  0  0
  188.0660  177.5470  143.0900 C   0  0  0  0  0  0  0  0  0  0  0  0
  187.4270  178.1520  140.8500 N   0  0  0  0  0  0  0  0  0  0  0  0
  191.0220  177.3290  146.0030 C   0  0  0  0  0  3  0  0  0  0  0  0
  191.3820  176.9130  144.7800 C   0  0  0  0  0  3  0  0  0  0  0  0
  189.5840  177.5920  141.0580 C   0  0  0  0  0  3  0  0  0  0  0  0
  188.9840  177.1220  144.0070 C   0  0  0  0  0  0  0  0  0  0  0  0
  187.9650  178.2750  139.6280 C   0  0  0  0  0  3  0  0  0  0  0  0
  189.6060  177.7120  146.3310 C   0  0  0  0  0  2  0  0  0  0  0  0
  186.7210  177.8300  143.4880 C   0  0  0  0  0  0  0  0  0  0  0  0
  187.2930  177.3850  145.7630 O   0  0  0  0  0  0  0  0  0  0  0  0
  190.4340  175.2750  143.1980 C   0  0  0  0  0  1  0  0  0  0  0  0
  186.1470  178.4000  141.1930 C   0  0  0  0  0  3  0  0  0  0  0  0
  185.7480  178.2370  142.5240 C   0  0  0  0  0  0  0  0  0  0  0  0
  189.2980  177.9300  139.7460 C   0  0  0  0  0  0  0  0  0  0  0  0
  188.3710  177.7430  141.7190 C   0  0  0  0  0  0  0  0  0  0  0  0
  186.3800  177.7560  144.7790 C   0  0  0  0  0  3  0  0  0  0  0  0
  182.0020  178.8080  142.1690 C   0  0  0  0  0  0  0  0  0  0  0  0
  181.6430  179.0900  143.4890 C   0  0  0  0  0  3  0  0  0  0  0  0
  184.3200  178.5070  142.8520 C   0  0  0  0  0  0  0  0  0  0  0  0
  182.6160  179.0880  144.4920 C   0  0  0  0  0  3  0  0  0  0  0  0
  183.3330  178.5250  141.8520 C   0  0  0  0  0  3  0  0  0  0  0  0
  183.9470  178.8030  144.1740 C   0  0  0  0  0  3  0  0  0  0  0  0
  181.0610  178.8140  141.1950 F   0  0  0  0  0  0  0  0  0  0  0  0
  190.2530  177.9180  138.6860 N   0  0  0  0  0  2  0  0  0  0  0  0
  189.8920  177.5580  137.3240 C   0  0  0  0  0  2  0  0  0  0  0  0
  192.0240  175.5500  137.8200 C   0  0  0  0  0  1  0  0  0  0  0  0
  189.6210  176.0920  137.2470 C   0  0  0  0  0  0  0  0  0  0  0  0
  190.6330  175.1430  137.4710 C   0  0  0  0  0  0  0  0  0  0  0  0
  189.0840  173.4000  137.0440 C   0  0  0  0  0  3  0  0  0  0  0  0
  188.0810  174.3420  136.8150 C   0  0  0  0  0  3  0  0  0  0  0  0
  188.3730  175.6650  136.9200 N   0  0  0  0  0  0  0  0  0  0  0  0
  190.3360  173.8210  137.3650 N   0  0  0  0  0  0  0  0  0  0  0  0
  1 12  1  0  0  0  0
  1 10  1  1  0  0  0
  2 13  1  1  0  0  0
  2  8  1  0  0  0  0
  2  6  1  0  0  0  0
  3 11  1  0  0  0  0
  3  8  2  0  0  0  0
  4 14  1  0  0  0  0
  4 17  1  0  0  0  0
  5 10  1  0  0  0  0
  6  5  2  0  0  0  0
  7 17  2  0  0  0  0
  8  1  1  0  0  0  0
  9 16  2  0  0  0  0
  9  4  1  0  0  0  0
 11 18  2  0  0  0  0
 14 15  2  0  0  0  0
 15 21  1  0  0  0  0
 15 11  1  0  0  0  0
 16  7  1  0  0  0  0
 17  3  1  0  0  0  0
 18 12  1  0  0  0  0
 19 20  1  0  0  0  0
 20 22  2  0  0  0  0
 21 24  2  0  0  0  0
 23 19  2  0  0  0  0
 23 21  1  0  0  0  0
 24 22  1  0  0  0  0
 25 19  1  0  0  0  0
 26 16  1  0  0  0  0
 27 26  1  0  0  0  0
 29 27  1  0  0  0  0
 29 30  1  0  0  0  0
 30 28  1  0  0  0  0
 31 34  1  0  0  0  0
 32 33  1  0  0  0  0
 32 31  2  0  0  0  0
 33 29  2  0  0  0  0
 34 30  2  0  0  0  0
M  END
>  <MODEL>
2

>  <REMARK>
 VINA RESULT:     -10.4      0.822      1.604
  Name = 
  4 active torsions:
  status: ('A' for Active; 'I' for Inactive)
    1  A    between atoms: C_3  and  C_13
    2  A    between atoms: C_3  and  N_17
    3  A    between atoms: C_12  and  C_28
    4  A    between atoms: N_17  and  C_29
                            x       y       z     vdW  Elec       q    Type
                         _______ _______ _______ _____ _____    ______ ____

>  <TORSDO>
F 4

$$$$
=
 OpenBabel10262423503D

 34 39  0  0  1  0  0  0  0  0999 V2000
  181.8500  178.8900  141.5990 C   0  0  1  0  0  3  0  0  0  0  0  0
  182.7590  178.9640  139.2090 C   0  0  2  0  0  3  0  0  0  0  0  0
  184.3130  178.6370  141.1880 C   0  0  0  0  0  0  0  0  0  0  0  0
  186.6900  178.3820  140.9140 N   0  0  0  0  0  0  0  0  0  0  0  0
  180.4810  178.0260  139.6960 C   0  0  0  0  0  3  0  0  0  0  0  0
  181.3800  178.4890  138.8140 C   0  0  0  0  0  3  0  0  0  0  0  0
  185.5660  178.5190  138.9850 C   0  0  0  0  0  3  0  0  0  0  0  0
  183.0530  178.7960  140.6840 C   0  0  0  0  0  0  0  0  0  0  0  0
  187.6070  178.2860  139.9400 C   0  0  0  0  0  3  0  0  0  0  0  0
  180.8020  177.8750  141.1570 C   0  0  0  0  0  2  0  0  0  0  0  0
  184.5260  178.5630  142.6010 C   0  0  0  0  0  0  0  0  0  0  0  0
  182.1690  178.6710  142.9690 O   0  0  0  0  0  0  0  0  0  0  0  0
  182.9140  180.4200  138.8120 C   0  0  0  0  0  1  0  0  0  0  0  0
  186.9220  178.3370  142.2420 C   0  0  0  0  0  3  0  0  0  0  0  0
  185.8460  178.4370  143.1320 C   0  0  0  0  0  0  0  0  0  0  0  0
  186.9210  178.3710  138.7430 C   0  0  0  0  0  0  0  0  0  0  0  0
  185.4670  178.5260  140.3710 C   0  0  0  0  0  0  0  0  0  0  0  0
  183.4780  178.5700  143.4320 C   0  0  0  0  0  3  0  0  0  0  0  0
  187.4430  177.5430  146.4680 C   0  0  0  0  0  0  0  0  0  0  0  0
  186.6640  178.2910  147.3520 C   0  0  0  0  0  3  0  0  0  0  0  0
  186.1530  178.3990  144.5890 C   0  0  0  0  0  0  0  0  0  0  0  0
  185.6250  179.0870  146.8640 C   0  0  0  0  0  3  0  0  0  0  0  0
  187.1850  177.5920  145.0950 C   0  0  0  0  0  3  0  0  0  0  0  0
  185.3680  179.1370  145.4910 C   0  0  0  0  0  3  0  0  0  0  0  0
  188.4470  176.7650  146.9400 F   0  0  0  0  0  0  0  0  0  0  0  0
  187.5040  178.3140  137.4420 N   0  0  0  0  0  2  0  0  0  0  0  0
  188.9340  178.1350  137.2430 C   0  0  0  0  0  2  0  0  0  0  0  0
  190.9360  176.8900  139.0500 C   0  0  0  0  0  1  0  0  0  0  0  0
  189.2530  176.6790  137.1730 C   0  0  0  0  0  0  0  0  0  0  0  0
  190.2090  176.0930  138.0200 C   0  0  0  0  0  0  0  0  0  0  0  0
  189.8450  173.9980  136.9720 C   0  0  0  0  0  3  0  0  0  0  0  0
  188.9020  174.5820  136.1260 C   0  0  0  0  0  3  0  0  0  0  0  0
  188.6290  175.9080  136.2440 N   0  0  0  0  0  0  0  0  0  0  0  0
  190.4780  174.7660  137.8980 N   0  0  0  0  0  0  0  0  0  0  0  0
  1 10  1  6  0  0  0
  1 12  1  0  0  0  0
  2 13  1  1  0  0  0
  2  8  1  0  0  0  0
  3 11  1  0  0  0  0
  4 14  1  0  0  0  0
  5 10  1  0  0  0  0
  6  2  1  0  0  0  0
  6  5  2  0  0  0  0
  7 17  2  0  0  0  0
  8  3  2  0  0  0  0
  8  1  1  0  0  0  0
  9  4  1  0  0  0  0
 11 15  1  0  0  0  0
 11 18  2  0  0  0  0
 12 18  1  0  0  0  0
 14 15  2  0  0  0  0
 15 21  1  0  0  0  0
 16  7  1  0  0  0  0
 16  9  2  0  0  0  0
 17  4  1  0  0  0  0
 17  3  1  0  0  0  0
 19 25  1  0  0  0  0
 19 20  1  0  0  0  0
 21 23  1  0  0  0  0
 21 24  2  0  0  0  0
 22 20  2  0  0  0  0
 23 19  2  0  0  0  0
 24 22  1  0  0  0  0
 26 16  1  0  0  0  0
 27 26  1  0  0  0  0
 29 27  1  0  0  0  0
 29 30  1  0  0  0  0
 30 28  1  0  0  0  0
 31 34  1  0  0  0  0
 32 33  1  0  0  0  0
 32 31  2  0  0  0  0
 33 29  2  0  0  0  0
 34 30  2  0  0  0  0
M  END
>  <MODEL>
3

>  <REMARK>
 VINA RESULT:      -9.5      2.884      5.804
  Name = 
  4 active torsions:
  status: ('A' for Active; 'I' for Inactive)
    1  A    between atoms: C_3  and  C_13
    2  A    between atoms: C_3  and  N_17
    3  A    between atoms: C_12  and  C_28
    4  A    between atoms: N_17  and  C_29
                            x       y       z     vdW  Elec       q    Type
                         _______ _______ _______ _____ _____    ______ ____

>  <TORSDO>
F 4

$$$$
=
 OpenBabel10262423503D

 34 39  0  0  1  0  0  0  0  0999 V2000
  187.4260  177.2720  145.2700 C   0  0  1  0  0  3  0  0  0  0  0  0
  189.4600  177.0170  143.7400 C   0  0  2  0  0  3  0  0  0  0  0  0
  187.2260  177.7930  142.8230 C   0  0  0  0  0  0  0  0  0  0  0  0
  186.9160  178.3220  140.4960 N   0  0  0  0  0  0  0  0  0  0  0  0
  189.7290  177.7000  146.1400 C   0  0  0  0  0  3  0  0  0  0  0  0
  190.2660  177.2520  144.9960 C   0  0  0  0  0  3  0  0  0  0  0  0
  189.0230  177.7950  141.0320 C   0  0  0  0  0  3  0  0  0  0  0  0
  188.0050  177.4080  143.8770 C   0  0  0  0  0  0  0  0  0  0  0  0
  187.6250  178.4130  139.3610 C   0  0  0  0  0  3  0  0  0  0  0  0
  188.2770  178.0760  146.2470 C   0  0  0  0  0  2  0  0  0  0  0  0
  185.8360  178.0730  143.0120 C   0  0  0  0  0  0  0  0  0  0  0  0
  186.0730  177.7040  145.3590 O   0  0  0  0  0  0  0  0  0  0  0  0
  189.5700  175.5550  143.3470 C   0  0  0  0  0  1  0  0  0  0  0  0
  185.5980  178.5650  140.6410 C   0  0  0  0  0  3  0  0  0  0  0  0
  185.0100  178.4380  141.9050 C   0  0  0  0  0  0  0  0  0  0  0  0
  188.9290  178.0880  139.6830 C   0  0  0  0  0  0  0  0  0  0  0  0
  187.7260  177.9510  141.5050 C   0  0  0  0  0  0  0  0  0  0  0  0
  185.3110  178.0340  144.2420 C   0  0  0  0  0  3  0  0  0  0  0  0
  181.5360  179.0070  143.3500 C   0  0  0  0  0  0  0  0  0  0  0  0
  180.7730  179.1270  142.1870 C   0  0  0  0  0  3  0  0  0  0  0  0
  183.5480  178.7010  142.0130 C   0  0  0  0  0  0  0  0  0  0  0  0
  181.3880  179.0300  140.9360 C   0  0  0  0  0  3  0  0  0  0  0  0
  182.9140  178.7890  143.2640 C   0  0  0  0  0  3  0  0  0  0  0  0
  182.7670  178.8130  140.8500 C   0  0  0  0  0  3  0  0  0  0  0  0
  180.9410  179.0950  144.5640 F   0  0  0  0  0  0  0  0  0  0  0  0
  190.0280  178.0560  138.7740 N   0  0  0  0  0  2  0  0  0  0  0  0
  189.8640  177.6950  137.3750 C   0  0  0  0  0  2  0  0  0  0  0  0
  192.0950  175.8050  137.9000 C   0  0  0  0  0  1  0  0  0  0  0  0
  189.6840  176.2180  137.2550 C   0  0  0  0  0  0  0  0  0  0  0  0
  190.7430  175.3250  137.4920 C   0  0  0  0  0  0  0  0  0  0  0  0
  189.3170  173.5040  136.9710 C   0  0  0  0  0  3  0  0  0  0  0  0
  188.2680  174.3910  136.7290 C   0  0  0  0  0  3  0  0  0  0  0  0
  188.4750  175.7260  136.8740 N   0  0  0  0  0  0  0  0  0  0  0  0
  190.5300  173.9910  137.3450 N   0  0  0  0  0  0  0  0  0  0  0  0
  1 12  1  0  0  0  0
  1 10  1  1  0  0  0
  2 13  1  1  0  0  0
  2  8  1  0  0  0  0
  2  6  1  0  0  0  0
  3 11  1  0  0  0  0
  3  8  2  0  0  0  0
  4 14  1  0  0  0  0
  4 17  1  0  0  0  0
  5 10  1  0  0  0  0
  6  5  2  0  0  0  0
  7 17  2  0  0  0  0
  8  1  1  0  0  0  0
  9 16  2  0  0  0  0
  9  4  1  0  0  0  0
 11 18  2  0  0  0  0
 14 15  2  0  0  0  0
 15 21  1  0  0  0  0
 15 11  1  0  0  0  0
 16  7  1  0  0  0  0
 17  3  1  0  0  0  0
 18 12  1  0  0  0  0
 19 25  1  0  0  0  0
 20 19  2  0  0  0  0
 21 23  2  0  0  0  0
 22 20  1  0  0  0  0
 23 19  1  0  0  0  0
 24 22  2  0  0  0  0
 24 21  1  0  0  0  0
 26 16  1  0  0  0  0
 27 26  1  0  0  0  0
 29 27  1  0  0  0  0
 29 30  1  0  0  0  0
 30 28  1  0  0  0  0
 31 34  1  0  0  0  0
 32 33  1  0  0  0  0
 32 31  2  0  0  0  0
 33 29  2  0  0  0  0
 34 30  2  0  0  0  0
M  END
>  <MODEL>
4

>  <REMARK>
 VINA RESULT:      -9.4      1.279      2.100
  Name = 
  4 active torsions:
  status: ('A' for Active; 'I' for Inactive)
    1  A    between atoms: C_3  and  C_13
    2  A    between atoms: C_3  and  N_17
    3  A    between atoms: C_12  and  C_28
    4  A    between atoms: N_17  and  C_29
                            x       y       z     vdW  Elec       q    Type
                         _______ _______ _______ _____ _____    ______ ____

>  <TORSDO>
F 4

$$$$
=
 OpenBabel10262423503D

 34 39  0  0  1  0  0  0  0  0999 V2000
  188.4370  177.8390  139.2880 C   0  0  1  0  0  3  0  0  0  0  0  0
  186.6320  178.1990  137.5110 C   0  0  2  0  0  3  0  0  0  0  0  0
  186.0940  178.4120  139.9810 C   0  0  0  0  0  0  0  0  0  0  0  0
  183.8850  178.9580  140.7630 N   0  0  0  0  0  0  0  0  0  0  0  0
  189.0260  178.8080  137.0610 C   0  0  0  0  0  3  0  0  0  0  0  0
  187.7850  178.5730  136.6090 C   0  0  0  0  0  3  0  0  0  0  0  0
  184.0860  178.9710  138.5340 C   0  0  0  0  0  3  0  0  0  0  0  0
  186.9970  178.1900  138.9800 C   0  0  0  0  0  0  0  0  0  0  0  0
  182.6780  179.2870  140.2800 C   0  0  0  0  0  3  0  0  0  0  0  0
  189.3580  178.7870  138.5270 C   0  0  0  0  0  2  0  0  0  0  0  0
  186.4910  178.3100  141.3520 C   0  0  0  0  0  0  0  0  0  0  0  0
  188.7440  177.8990  140.6760 O   0  0  0  0  0  0  0  0  0  0  0  0
  186.1020  176.8380  137.1000 C   0  0  0  0  0  1  0  0  0  0  0  0
  184.2250  178.8420  142.0620 C   0  0  0  0  0  3  0  0  0  0  0  0
  185.5410  178.5030  142.4010 C   0  0  0  0  0  0  0  0  0  0  0  0
  182.7920  179.2970  138.9030 C   0  0  0  0  0  0  0  0  0  0  0  0
  184.7400  178.7610  139.7420 C   0  0  0  0  0  0  0  0  0  0  0  0
  187.7720  178.0750  141.6570 C   0  0  0  0  0  3  0  0  0  0  0  0
  187.3020  177.5570  145.6380 C   0  0  0  0  0  0  0  0  0  0  0  0
  186.4200  178.0730  146.5890 C   0  0  0  0  0  3  0  0  0  0  0  0
  185.8660  178.3710  143.8480 C   0  0  0  0  0  0  0  0  0  0  0  0
  185.2580  178.7310  146.1780 C   0  0  0  0  0  3  0  0  0  0  0  0
  187.0240  177.7000  144.2760 C   0  0  0  0  0  3  0  0  0  0  0  0
  184.9800  178.8750  144.8160 C   0  0  0  0  0  3  0  0  0  0  0  0
  188.4270  176.9140  146.0350 F   0  0  0  0  0  0  0  0  0  0  0  0
  181.7450  179.5980  137.9820 N   0  0  0  0  0  2  0  0  0  0  0  0
  180.6710  180.5220  138.3070 C   0  0  0  0  0  2  0  0  0  0  0  0
  179.9890  180.5340  135.4160 C   0  0  0  0  0  1  0  0  0  0  0  0
  180.8010  181.7560  137.4760 C   0  0  0  0  0  0  0  0  0  0  0  0
  180.4900  181.7570  136.1060 C   0  0  0  0  0  0  0  0  0  0  0  0
  181.1070  184.0430  135.9740 C   0  0  0  0  0  3  0  0  0  0  0  0
  181.4230  184.0390  137.3330 C   0  0  0  0  0  3  0  0  0  0  0  0
  181.2650  182.8960  138.0520 N   0  0  0  0  0  0  0  0  0  0  0  0
  180.6490  182.9030  135.3920 N   0  0  0  0  0  0  0  0  0  0  0  0
  1 10  1  6  0  0  0
  1 12  1  0  0  0  0
  2 13  1  6  0  0  0
  2  8  1  0  0  0  0
  3 11  1  0  0  0  0
  4 14  1  0  0  0  0
  5 10  1  0  0  0  0
  6  5  2  0  0  0  0
  6  2  1  0  0  0  0
  7 16  1  0  0  0  0
  7 17  2  0  0  0  0
  8  1  1  0  0  0  0
  8  3  2  0  0  0  0
  9  4  1  0  0  0  0
 11 18  2  0  0  0  0
 11 15  1  0  0  0  0
 12 18  1  0  0  0  0
 14 15  2  0  0  0  0
 15 21  1  0  0  0  0
 16  9  2  0  0  0  0
 17  3  1  0  0  0  0
 17  4  1  0  0  0  0
 19 25  1  0  0  0  0
 19 20  1  0  0  0  0
 21 23  1  0  0  0  0
 21 24  2  0  0  0  0
 22 20  2  0  0  0  0
 23 19  2  0  0  0  0
 24 22  1  0  0  0  0
 26 27  1  0  0  0  0
 26 16  1  0  0  0  0
 28 30  1  0  0  0  0
 29 33  1  0  0  0  0
 29 27  1  0  0  0  0
 30 29  2  0  0  0  0
 31 32  1  0  0  0  0
 32 33  2  0  0  0  0
 34 31  2  0  0  0  0
 34 30  1  0  0  0  0
M  END
>  <MODEL>
5

>  <REMARK>
 VINA RESULT:      -9.3      4.508      8.228
  Name = 
  4 active torsions:
  status: ('A' for Active; 'I' for Inactive)
    1  A    between atoms: C_3  and  C_13
    2  A    between atoms: C_3  and  N_17
    3  A    between atoms: C_12  and  C_28
    4  A    between atoms: N_17  and  C_29
                            x       y       z     vdW  Elec       q    Type
                         _______ _______ _______ _____ _____    ______ ____

>  <TORSDO>
F 4

$$$$
=
 OpenBabel10262423503D

 34 39  0  0  1  0  0  0  0  0999 V2000
  184.6070  178.3910  144.3370 C   0  0  1  0  0  3  0  0  0  0  0  0
  187.0620  177.6800  144.4420 C   0  0  2  0  0  3  0  0  0  0  0  0
  185.9630  178.2560  142.2290 C   0  0  0  0  0  0  0  0  0  0  0  0
  187.1630  178.1630  140.1460 N   0  0  0  0  0  0  0  0  0  0  0  0
  186.0080  178.9630  146.3250 C   0  0  0  0  0  3  0  0  0  0  0  0
  187.0160  178.2130  145.8550 C   0  0  0  0  0  3  0  0  0  0  0  0
  188.4280  177.7310  141.9400 C   0  0  0  0  0  3  0  0  0  0  0  0
  185.8990  178.1370  143.5890 C   0  0  0  0  0  0  0  0  0  0  0  0
  188.4010  177.9310  139.6840 C   0  0  0  0  0  3  0  0  0  0  0  0
  184.8630  179.3970  145.4530 C   0  0  0  0  0  2  0  0  0  0  0  0
  184.8010  178.6170  141.4770 C   0  0  0  0  0  0  0  0  0  0  0  0
  183.5600  178.8720  143.5010 O   0  0  0  0  0  0  0  0  0  0  0  0
  187.1090  176.1630  144.4850 C   0  0  0  0  0  1  0  0  0  0  0  0
  186.0780  178.4750  139.4100 C   0  0  0  0  0  3  0  0  0  0  0  0
  184.8550  178.7030  140.0520 C   0  0  0  0  0  0  0  0  0  0  0  0
  189.1900  177.6620  140.7870 C   0  0  0  0  0  0  0  0  0  0  0  0
  187.1530  178.0460  141.4870 C   0  0  0  0  0  0  0  0  0  0  0  0
  183.6640  178.9190  142.1130 C   0  0  0  0  0  3  0  0  0  0  0  0
  182.1110  180.6420  138.2650 C   0  0  0  0  0  0  0  0  0  0  0  0
  181.4150  179.6100  137.6330 C   0  0  0  0  0  3  0  0  0  0  0  0
  183.6800  179.0300  139.1970 C   0  0  0  0  0  0  0  0  0  0  0  0
  181.8400  178.2880  137.7840 C   0  0  0  0  0  3  0  0  0  0  0  0
  183.2330  180.3530  139.0460 C   0  0  0  0  0  3  0  0  0  0  0  0
  182.9630  177.9990  138.5650 C   0  0  0  0  0  3  0  0  0  0  0  0
  181.6970  181.9240  138.1240 F   0  0  0  0  0  0  0  0  0  0  0  0
  190.5840  177.3580  140.7600 N   0  0  0  0  0  2  0  0  0  0  0  0
  191.5400  178.0380  141.6180 C   0  0  0  0  0  2  0  0  0  0  0  0
  191.2320  179.6470  144.0960 C   0  0  0  0  0  1  0  0  0  0  0  0
  191.5430  177.4040  142.9690 C   0  0  0  0  0  0  0  0  0  0  0  0
  191.4090  178.1670  144.1410 C   0  0  0  0  0  0  0  0  0  0  0  0
  191.6070  176.1940  145.4410 C   0  0  0  0  0  3  0  0  0  0  0  0
  191.7480  175.4370  144.2770 C   0  0  0  0  0  3  0  0  0  0  0  0
  191.7150  176.0590  143.0690 N   0  0  0  0  0  0  0  0  0  0  0  0
  191.4420  177.5400  145.3470 N   0  0  0  0  0  0  0  0  0  0  0  0
  1 10  1  1  0  0  0
  2 13  1  1  0  0  0
  2  6  1  0  0  0  0
  3  8  2  0  0  0  0
  4 17  1  0  0  0  0
  6  5  2  0  0  0  0
  8  1  1  0  0  0  0
  8  2  1  0  0  0  0
  9  4  1  0  0  0  0
  9 16  2  0  0  0  0
 10  5  1  0  0  0  0
 11 18  2  0  0  0  0
 11  3  1  0  0  0  0
 12  1  1  0  0  0  0
 14 15  2  0  0  0  0
 14  4  1  0  0  0  0
 15 11  1  0  0  0  0
 16  7  1  0  0  0  0
 17  7  2  0  0  0  0
 17  3  1  0  0  0  0
 18 12  1  0  0  0  0
 19 23  1  0  0  0  0
 20 22  1  0  0  0  0
 20 19  2  0  0  0  0
 21 15  1  0  0  0  0
 22 24  2  0  0  0  0
 23 21  2  0  0  0  0
 24 21  1  0  0  0  0
 25 19  1  0  0  0  0
 26 16  1  0  0  0  0
 26 27  1  0  0  0  0
 27 29  1  0  0  0  0
 28 30  1  0  0  0  0
 29 33  2  0  0  0  0
 29 30  1  0  0  0  0
 30 34  2  0  0  0  0
 32 31  2  0  0  0  0
 33 32  1  0  0  0  0
 34 31  1  0  0  0  0
M  END
>  <MODEL>
6

>  <REMARK>
 VINA RESULT:      -9.3      2.772      4.866
  Name = 
  4 active torsions:
  status: ('A' for Active; 'I' for Inactive)
    1  A    between atoms: C_3  and  C_13
    2  A    between atoms: C_3  and  N_17
    3  A    between atoms: C_12  and  C_28
    4  A    between atoms: N_17  and  C_29
                            x       y       z     vdW  Elec       q    Type
                         _______ _______ _______ _____ _____    ______ ____

>  <TORSDO>
F 4

$$$$
=
 OpenBabel10262423503D

 34 39  0  0  1  0  0  0  0  0999 V2000
  181.6400  179.0320  141.7060 C   0  0  1  0  0  3  0  0  0  0  0  0
  182.4450  179.0860  139.2780 C   0  0  2  0  0  3  0  0  0  0  0  0
  184.0770  178.7320  141.1880 C   0  0  0  0  0  0  0  0  0  0  0  0
  186.4350  178.4310  140.8110 N   0  0  0  0  0  0  0  0  0  0  0  0
  180.1740  178.1920  139.8670 C   0  0  0  0  0  3  0  0  0  0  0  0
  181.0410  178.6370  138.9450 C   0  0  0  0  0  3  0  0  0  0  0  0
  185.2300  178.5880  138.9320 C   0  0  0  0  0  3  0  0  0  0  0  0
  182.8000  178.9140  140.7400 C   0  0  0  0  0  0  0  0  0  0  0  0
  187.3060  178.3170  139.7980 C   0  0  0  0  0  3  0  0  0  0  0  0
  180.5550  178.0370  141.3120 C   0  0  0  0  0  2  0  0  0  0  0  0
  184.3510  178.6560  142.5900 C   0  0  0  0  0  0  0  0  0  0  0  0
  182.0150  178.8080  143.0610 O   0  0  0  0  0  0  0  0  0  0  0  0
  182.6100  180.5390  138.8720 C   0  0  0  0  0  1  0  0  0  0  0  0
  186.7240  178.3840  142.1270 C   0  0  0  0  0  3  0  0  0  0  0  0
  185.6900  178.5050  143.0630 C   0  0  0  0  0  0  0  0  0  0  0  0
  186.5700  178.4140  138.6310 C   0  0  0  0  0  0  0  0  0  0  0  0
  185.1920  178.5980  140.3210 C   0  0  0  0  0  0  0  0  0  0  0  0
  183.3410  178.6830  143.4670 C   0  0  0  0  0  3  0  0  0  0  0  0
  187.4700  177.6470  146.3150 C   0  0  0  0  0  0  0  0  0  0  0  0
  186.6920  178.3420  147.2430 C   0  0  0  0  0  3  0  0  0  0  0  0
  186.0600  178.4620  144.5050 C   0  0  0  0  0  0  0  0  0  0  0  0
  185.5950  179.0920  146.8110 C   0  0  0  0  0  3  0  0  0  0  0  0
  187.1520  177.7020  144.9560 C   0  0  0  0  0  3  0  0  0  0  0  0
  185.2780  179.1470  145.4510 C   0  0  0  0  0  3  0  0  0  0  0  0
  188.5310  176.9160  146.7330 F   0  0  0  0  0  0  0  0  0  0  0  0
  187.0950  178.3450  137.3060 N   0  0  0  0  0  2  0  0  0  0  0  0
  186.4240  177.6090  136.2460 C   0  0  0  0  0  2  0  0  0  0  0  0
  183.9150  176.1100  136.7730 C   0  0  0  0  0  1  0  0  0  0  0  0
  186.4360  176.1510  136.5620 C   0  0  0  0  0  0  0  0  0  0  0  0
  185.2490  175.4450  136.8230 C   0  0  0  0  0  0  0  0  0  0  0  0
  186.5110  173.4710  137.1910 C   0  0  0  0  0  3  0  0  0  0  0  0
  187.6890  174.1750  136.9400 C   0  0  0  0  0  3  0  0  0  0  0  0
  187.6250  175.4970  136.6330 N   0  0  0  0  0  0  0  0  0  0  0  0
  185.3190  174.1220  137.1280 N   0  0  0  0  0  0  0  0  0  0  0  0
  1 10  1  6  0  0  0
  1 12  1  0  0  0  0
  2 13  1  1  0  0  0
  2  8  1  0  0  0  0
  3 11  1  0  0  0  0
  4 14  1  0  0  0  0
  5 10  1  0  0  0  0
  6  2  1  0  0  0  0
  6  5  2  0  0  0  0
  7 17  2  0  0  0  0
  8  3  2  0  0  0  0
  8  1  1  0  0  0  0
  9  4  1  0  0  0  0
 11 15  1  0  0  0  0
 11 18  2  0  0  0  0
 12 18  1  0  0  0  0
 14 15  2  0  0  0  0
 15 21  1  0  0  0  0
 16  7  1  0  0  0  0
 16  9  2  0  0  0  0
 17  4  1  0  0  0  0
 17  3  1  0  0  0  0
 19 25  1  0  0  0  0
 19 20  1  0  0  0  0
 21 23  1  0  0  0  0
 21 24  2  0  0  0  0
 22 20  2  0  0  0  0
 23 19  2  0  0  0  0
 24 22  1  0  0  0  0
 26 16  1  0  0  0  0
 27 29  1  0  0  0  0
 27 26  1  0  0  0  0
 28 30  1  0  0  0  0
 29 33  2  0  0  0  0
 29 30  1  0  0  0  0
 30 34  2  0  0  0  0
 32 31  2  0  0  0  0
 33 32  1  0  0  0  0
 34 31  1  0  0  0  0
M  END
>  <MODEL>
7

>  <REMARK>
 VINA RESULT:      -9.2      3.509      6.355
  Name = 
  4 active torsions:
  status: ('A' for Active; 'I' for Inactive)
    1  A    between atoms: C_3  and  C_13
    2  A    between atoms: C_3  and  N_17
    3  A    between atoms: C_12  and  C_28
    4  A    between atoms: N_17  and  C_29
                            x       y       z     vdW  Elec       q    Type
                         _______ _______ _______ _____ _____    ______ ____

>  <TORSDO>
F 4

$$$$
=
 OpenBabel10262423503D

 34 39  0  0  1  0  0  0  0  0999 V2000
  185.9840  178.4840  138.6250 C   0  0  1  0  0  3  0  0  0  0  0  0
  188.2900  178.1650  137.5640 C   0  0  2  0  0  3  0  0  0  0  0  0
  187.9720  177.9890  140.0750 C   0  0  0  0  0  0  0  0  0  0  0  0
  189.8030  177.5180  141.5630 N   0  0  0  0  0  0  0  0  0  0  0  0
  186.2030  177.4790  136.3480 C   0  0  0  0  0  3  0  0  0  0  0  0
  187.5170  177.7490  136.3350 C   0  0  0  0  0  3  0  0  0  0  0  0
  190.3630  177.4810  139.3970 C   0  0  0  0  0  3  0  0  0  0  0  0
  187.4530  178.1750  138.8250 C   0  0  0  0  0  0  0  0  0  0  0  0
  191.1110  177.2220  141.5200 C   0  0  0  0  0  3  0  0  0  0  0  0
  185.3980  177.5020  137.6170 C   0  0  0  0  0  2  0  0  0  0  0  0
  187.1340  178.0900  141.2310 C   0  0  0  0  0  0  0  0  0  0  0  0
  185.2300  178.4270  139.8310 O   0  0  0  0  0  0  0  0  0  0  0  0
  188.8920  179.5390  137.3300 C   0  0  0  0  0  1  0  0  0  0  0  0
  189.0430  177.6350  142.6700 C   0  0  0  0  0  3  0  0  0  0  0  0
  187.6820  177.9360  142.5420 C   0  0  0  0  0  0  0  0  0  0  0  0
  191.4660  177.1970  140.1840 C   0  0  0  0  0  0  0  0  0  0  0  0
  189.3360  177.6810  140.3110 C   0  0  0  0  0  0  0  0  0  0  0  0
  185.8200  178.2890  141.0850 C   0  0  0  0  0  3  0  0  0  0  0  0
  184.8810  178.7950  144.9690 C   0  0  0  0  0  0  0  0  0  0  0  0
  185.4330  178.3770  146.1820 C   0  0  0  0  0  3  0  0  0  0  0  0
  186.8860  178.0700  143.7930 C   0  0  0  0  0  0  0  0  0  0  0  0
  186.7110  177.8120  146.2080 C   0  0  0  0  0  3  0  0  0  0  0  0
  185.6050  178.6480  143.7840 C   0  0  0  0  0  3  0  0  0  0  0  0
  187.4350  177.6640  145.0210 C   0  0  0  0  0  3  0  0  0  0  0  0
  183.6440  179.3480  144.9430 F   0  0  0  0  0  0  0  0  0  0  0  0
  192.7700  176.9220  139.6740 N   0  0  0  0  0  2  0  0  0  0  0  0
  193.0000  176.6010  138.2740 C   0  0  0  0  0  2  0  0  0  0  0  0
  192.1680  174.3000  136.5900 C   0  0  0  0  0  1  0  0  0  0  0  0
  193.8300  175.3640  138.1730 C   0  0  0  0  0  0  0  0  0  0  0  0
  193.4290  174.2710  137.3850 C   0  0  0  0  0  0  0  0  0  0  0  0
  195.3680  173.0840  138.0570 C   0  0  0  0  0  3  0  0  0  0  0  0
  195.7610  174.1660  138.8450 C   0  0  0  0  0  3  0  0  0  0  0  0
  194.9830  175.2790  138.8870 N   0  0  0  0  0  0  0  0  0  0  0  0
  194.2120  173.1610  137.3470 N   0  0  0  0  0  0  0  0  0  0  0  0
  1 10  1  6  0  0  0
  1  8  1  0  0  0  0
  1 12  1  0  0  0  0
  2 13  1  6  0  0  0
  2  8  1  0  0  0  0
  3 17  1  0  0  0  0
  3 11  1  0  0  0  0
  4 14  1  0  0  0  0
  5 10  1  0  0  0  0
  6  5  2  0  0  0  0
  6  2  1  0  0  0  0
  7 16  1  0  0  0  0
  7 17  2  0  0  0  0
  8  3  2  0  0  0  0
  9  4  1  0  0  0  0
 11 15  1  0  0  0  0
 12 18  1  0  0  0  0
 15 14  2  0  0  0  0
 15 21  1  0  0  0  0
 16  9  2  0  0  0  0
 17  4  1  0  0  0  0
 18 11  2  0  0  0  0
 19 20  1  0  0  0  0
 20 22  2  0  0  0  0
 21 24  2  0  0  0  0
 23 21  1  0  0  0  0
 23 19  2  0  0  0  0
 24 22  1  0  0  0  0
 25 19  1  0  0  0  0
 26 16  1  0  0  0  0
 27 26  1  0  0  0  0
 28 30  1  0  0  0  0
 29 27  1  0  0  0  0
 29 33  1  0  0  0  0
 30 29  2  0  0  0  0
 31 32  1  0  0  0  0
 32 33  2  0  0  0  0
 34 30  1  0  0  0  0
 34 31  2  0  0  0  0
M  END
>  <MODEL>
8

>  <REMARK>
 VINA RESULT:      -9.2      2.409      4.789
  Name = 
  4 active torsions:
  status: ('A' for Active; 'I' for Inactive)
    1  A    between atoms: C_3  and  C_13
    2  A    between atoms: C_3  and  N_17
    3  A    between atoms: C_12  and  C_28
    4  A    between atoms: N_17  and  C_29
                            x       y       z     vdW  Elec       q    Type
                         _______ _______ _______ _____ _____    ______ ____

>  <TORSDO>
F 4

$$$$
=
 OpenBabel10262423503D

 34 39  0  0  1  0  0  0  0  0999 V2000
  188.4810  177.8550  139.4360 C   0  0  1  0  0  3  0  0  0  0  0  0
  186.6050  178.1620  137.7240 C   0  0  2  0  0  3  0  0  0  0  0  0
  186.1530  178.3820  140.2110 C   0  0  0  0  0  0  0  0  0  0  0  0
  183.9610  178.8850  141.0700 N   0  0  0  0  0  0  0  0  0  0  0  0
  188.9660  178.8200  137.1840 C   0  0  0  0  0  3  0  0  0  0  0  0
  187.7150  178.5540  136.7780 C   0  0  0  0  0  3  0  0  0  0  0  0
  184.0810  178.8860  138.8350 C   0  0  0  0  0  3  0  0  0  0  0  0
  187.0230  178.1720  139.1790 C   0  0  0  0  0  0  0  0  0  0  0  0
  182.7300  179.1840  140.6290 C   0  0  0  0  0  3  0  0  0  0  0  0
  189.3520  178.8170  138.6360 C   0  0  0  0  0  2  0  0  0  0  0  0
  186.6010  178.2980  141.5670 C   0  0  0  0  0  0  0  0  0  0  0  0
  188.8370  177.9310  140.8120 O   0  0  0  0  0  0  0  0  0  0  0  0
  186.0900  176.7870  137.3410 C   0  0  0  0  0  1  0  0  0  0  0  0
  184.3520  178.7850  142.3560 C   0  0  0  0  0  3  0  0  0  0  0  0
  185.6850  178.4780  142.6490 C   0  0  0  0  0  0  0  0  0  0  0  0
  182.7940  179.1860  139.2490 C   0  0  0  0  0  0  0  0  0  0  0  0
  184.7830  178.6980  140.0200 C   0  0  0  0  0  0  0  0  0  0  0  0
  187.8970  178.0930  141.8270 C   0  0  0  0  0  3  0  0  0  0  0  0
  187.5540  177.5460  145.8300 C   0  0  0  0  0  0  0  0  0  0  0  0
  186.7230  178.1000  146.8060 C   0  0  0  0  0  3  0  0  0  0  0  0
  186.0660  178.3630  144.0840 C   0  0  0  0  0  0  0  0  0  0  0  0
  185.5620  178.7780  146.4300 C   0  0  0  0  0  3  0  0  0  0  0  0
  187.2240  177.6720  144.4780 C   0  0  0  0  0  3  0  0  0  0  0  0
  185.2330  178.9050  145.0770 C   0  0  0  0  0  3  0  0  0  0  0  0
  188.6780  176.8830  146.1930 F   0  0  0  0  0  0  0  0  0  0  0  0
  181.7080  179.4570  138.3640 N   0  0  0  0  0  2  0  0  0  0  0  0
  180.4760  178.6850  138.3950 C   0  0  0  0  0  2  0  0  0  0  0  0
  179.9830  176.6100  140.4620 C   0  0  0  0  0  1  0  0  0  0  0  0
  180.7780  177.2450  138.1460 C   0  0  0  0  0  0  0  0  0  0  0  0
  180.5560  176.2660  139.1290 C   0  0  0  0  0  0  0  0  0  0  0  0
  181.4010  174.6080  137.6600 C   0  0  0  0  0  3  0  0  0  0  0  0
  181.6290  175.5820  136.6870 C   0  0  0  0  0  3  0  0  0  0  0  0
  181.3150  176.8770  136.9530 N   0  0  0  0  0  0  0  0  0  0  0  0
  180.8720  174.9720  138.8580 N   0  0  0  0  0  0  0  0  0  0  0  0
  1 10  1  6  0  0  0
  1 12  1  0  0  0  0
  2 13  1  6  0  0  0
  2  8  1  0  0  0  0
  3 11  1  0  0  0  0
  4 14  1  0  0  0  0
  5 10  1  0  0  0  0
  6  5  2  0  0  0  0
  6  2  1  0  0  0  0
  7 16  1  0  0  0  0
  7 17  2  0  0  0  0
  8  1  1  0  0  0  0
  8  3  2  0  0  0  0
  9  4  1  0  0  0  0
 11 18  2  0  0  0  0
 11 15  1  0  0  0  0
 12 18  1  0  0  0  0
 14 15  2  0  0  0  0
 15 21  1  0  0  0  0
 16  9  2  0  0  0  0
 17  3  1  0  0  0  0
 17  4  1  0  0  0  0
 19 25  1  0  0  0  0
 19 20  1  0  0  0  0
 21 23  1  0  0  0  0
 21 24  2  0  0  0  0
 22 20  2  0  0  0  0
 23 19  2  0  0  0  0
 24 22  1  0  0  0  0
 26 27  1  0  0  0  0
 26 16  1  0  0  0  0
 29 27  1  0  0  0  0
 29 30  1  0  0  0  0
 30 28  1  0  0  0  0
 31 34  1  0  0  0  0
 32 33  1  0  0  0  0
 32 31  2  0  0  0  0
 33 29  2  0  0  0  0
 34 30  2  0  0  0  0
M  END
>  <MODEL>
9

>  <REMARK>
 VINA RESULT:      -9.0      4.188      7.449
  Name = 
  4 active torsions:
  status: ('A' for Active; 'I' for Inactive)
    1  A    between atoms: C_3  and  C_13
    2  A    between atoms: C_3  and  N_17
    3  A    between atoms: C_12  and  C_28
    4  A    between atoms: N_17  and  C_29
                            x       y       z     vdW  Elec       q    Type
                         _______ _______ _______ _____ _____    ______ ____

>  <TORSDO>
F 4

$$$$
