=
 OpenBabel10272401293D

 55 59  0  0  1  0  0  0  0  0999 V2000
  191.2200  176.7460  143.6530 C   0  0  0  0  0  2  0  0  0  0  0  0
  188.6540  177.6600  144.1170 C   0  0  2  0  0  3  0  0  0  0  0  0
  189.0790  177.5760  142.7570 O   0  0  0  0  0  0  0  0  0  0  0  0
  190.5650  176.9220  145.0180 C   0  0  0  0  0  2  0  0  0  0  0  0
  190.1330  176.6450  142.5760 C   0  0  1  0  0  3  0  0  0  0  0  0
  189.1910  176.6470  144.9390 O   0  0  0  0  0  0  0  0  0  0  0  0
  187.1370  177.6380  144.1950 C   0  0  0  0  0  2  0  0  0  0  0  0
  186.6890  177.7810  145.6390 C   0  0  0  0  0  2  0  0  0  0  0  0
  185.2710  178.3190  145.7010 C   0  0  0  0  0  2  0  0  0  0  0  0
  185.2060  179.6840  145.0360 C   0  0  0  0  0  2  0  0  0  0  0  0
  183.8960  179.8640  144.2850 C   0  0  0  0  0  2  0  0  0  0  0  0
  183.3510  178.5260  143.8140 C   0  0  0  0  0  2  0  0  0  0  0  0
  183.3350  178.4820  142.3590 N   0  0  0  0  0  2  0  0  0  0  0  0
  182.1290  178.6390  141.6080 C   0  0  0  0  0  0  0  0  0  0  0  0
  181.0330  178.8150  142.2070 O   0  0  0  0  0  0  0  0  0  0  0  0
  179.9890  178.1160  139.2320 O   0  0  0  0  0  1  0  0  0  0  0  0
  182.1840  178.6340  140.0980 C   0  0  1  0  0  0  0  0  0  0  0  0
  181.1770  176.2980  140.2360 C   0  0  0  0  0  1  0  0  0  0  0  0
  181.2740  177.6070  139.4400 C   0  0  1  0  0  0  0  0  0  0  0  0
  183.3730  177.6330  138.2770 O   0  0  0  0  0  0  0  0  0  0  0  0
  181.9910  177.4100  138.1050 C   0  0  1  0  0  3  0  0  0  0  0  0
  181.8740  179.9190  139.6210 O   0  0  0  0  0  1  0  0  0  0  0  0
  183.5450  178.1950  139.5580 C   0  0  1  0  0  3  0  0  0  0  0  0
  184.5620  179.2920  139.5300 C   0  0  0  0  0  3  0  0  0  0  0  0
  185.6750  179.1060  139.9930 O   0  0  0  0  0  0  0  0  0  0  0  0
  181.7250  176.0730  137.4220 C   0  0  0  0  0  2  0  0  0  0  0  0
  183.0020  175.3670  137.1430 C   0  0  0  0  0  0  0  0  0  0  0  0
  183.5920  174.7580  138.0690 O   0  0  0  0  0  1  0  0  0  0  0  0
  183.5550  175.4010  135.8730 O   0  0  0  0  0  0  0  0  0  0  0  0
  190.7290  176.7800  141.1840 C   0  0  0  0  0  2  0  0  0  0  0  0
  189.7730  177.5030  140.2480 C   0  0  0  0  0  2  0  0  0  0  0  0
  189.2350  176.6030  139.3270 O   0  0  0  0  0  0  0  0  0  0  0  0
  189.7470  177.0130  138.0880 C   0  0  1  0  0  3  0  0  0  0  0  0
  192.6570  176.5290  138.3230 C   0  0  0  0  0  2  0  0  0  0  0  0
  193.9840  175.0170  136.9460 N   0  0  0  0  0  0  0  0  0  0  0  0
  191.7720  175.7030  137.4450 C   0  0  1  0  0  0  0  0  0  0  0  0
  190.2950  175.8020  137.3330 C   0  0  1  0  0  3  0  0  0  0  0  0
  192.5900  174.8380  136.5360 C   0  0  0  0  0  2  0  0  0  0  0  0
  194.0320  176.2600  137.7340 C   0  0  0  0  0  2  0  0  0  0  0  0
  190.9160  174.9130  138.2310 O   0  0  0  0  0  0  0  0  0  0  0  0
  194.7940  175.2090  135.7420 C   0  0  0  0  0  3  0  0  0  0  0  0
  193.9680  175.3300  134.6210 O   0  0  0  0  0  1  0  0  0  0  0  0
  195.5660  176.3690  135.8610 O   0  0  0  0  0  1  0  0  0  0  0  0
  188.8770  179.1380  137.3790 O   0  0  0  0  0  1  0  0  0  0  0  0
  188.6800  177.7580  137.2700 C   0  0  0  0  0  0  0  0  0  0  0  0
  187.4110  177.4340  137.7510 O   0  0  0  0  0  1  0  0  0  0  0  0
  188.7820  177.3270  135.8080 C   0  0  0  0  0  2  0  0  0  0  0  0
  187.5130  176.6610  135.2880 C   0  0  0  0  0  2  0  0  0  0  0  0
  186.6140  174.6500  134.3850 O   0  0  0  0  0  0  0  0  0  0  0  0
  186.9580  174.3060  135.7080 C   0  0  2  0  0  3  0  0  0  0  0  0
  187.7950  175.2240  134.8950 C   0  0  2  0  0  3  0  0  0  0  0  0
  188.9320  172.7180  135.2170 C   0  0  0  0  0  1  0  0  0  0  0  0
  186.6020  171.9530  135.0370 C   0  0  0  0  0  1  0  0  0  0  0  0
  187.5530  172.4350  137.2450 C   0  0  0  0  0  1  0  0  0  0  0  0
  187.5290  172.8770  135.7960 C   0  0  0  0  0  0  0  0  0  0  0  0
  1  4  1  0  0  0  0
  2  7  1  6  0  0  0
  2  6  1  0  0  0  0
  3  2  1  0  0  0  0
  5 30  1  6  0  0  0
  5  3  1  0  0  0  0
  5  1  1  0  0  0  0
  6  4  1  0  0  0  0
  7  8  1  0  0  0  0
  8  9  1  0  0  0  0
 10  9  1  0  0  0  0
 11 10  1  0  0  0  0
 12 11  1  0  0  0  0
 13 12  1  0  0  0  0
 14 15  2  0  0  0  0
 14 13  1  0  0  0  0
 16 19  1  0  0  0  0
 17 22  1  6  0  0  0
 17 14  1  0  0  0  0
 19 17  1  0  0  0  0
 19 18  1  1  0  0  0
 20 23  1  0  0  0  0
 21 26  1  1  0  0  0
 21 20  1  0  0  0  0
 21 19  1  0  0  0  0
 23 24  1  6  0  0  0
 23 17  1  0  0  0  0
 24 25  2  0  0  0  0
 27 26  1  0  0  0  0
 27 28  1  0  0  0  0
 29 27  2  0  0  0  0
 31 30  1  0  0  0  0
 32 31  1  0  0  0  0
 33 32  1  1  0  0  0
 35 39  1  0  0  0  0
 36 38  1  6  0  0  0
 36 40  1  0  0  0  0
 36 34  1  0  0  0  0
 37 36  1  0  0  0  0
 37 33  1  1  0  0  0
 37 40  1  0  0  0  0
 38 35  1  0  0  0  0
 39 34  1  0  0  0  0
 41 43  1  0  0  0  0
 41 35  1  0  0  0  0
 42 41  1  0  0  0  0
 45 44  1  0  0  0  0
 45 46  1  0  0  0  0
 45 33  1  0  0  0  0
 47 45  1  0  0  0  0
 48 47  1  0  0  0  0
 49 51  1  0  0  0  0
 49 50  1  0  0  0  0
 50 55  1  6  0  0  0
 51 48  1  1  0  0  0
 51 50  1  0  0  0  0
 52 55  1  0  0  0  0
 53 55  1  0  0  0  0
 55 54  1  0  0  0  0
M  END
>  <MODEL>
1

>  <REMARK>
 VINA RESULT:      -6.3      0.000      0.000
  Name = 
  22 active torsions:
  status: ('A' for Active; 'I' for Inactive)
    1  A    between atoms: C_1  and  C_53
    2  A    between atoms: C_2  and  C_28
    3  A    between atoms: C_2  and  C_44
    4  A    between atoms: C_6  and  C_20
    5  A    between atoms: N_7  and  C_22
    6  A    between atoms: C_8  and  C_22
    7  A    between atoms: C_8  and  C_35
    8  A    between atoms: C_10  and  N_32
    9  A    between atoms: C_11  and  C_29
   10  A    between atoms: C_16  and  C_17
   11  A    between atoms: C_16  and  C_26
   12  A    between atoms: C_17  and  C_33
   13  A    between atoms: C_19  and  C_40
   14  A    between atoms: C_26  and  C_45
   15  A    between atoms: C_27  and  C_54
   16  A    between atoms: C_28  and  O_49
   17  A    between atoms: C_29  and  C_38
   18  A    between atoms: C_33  and  C_36
   19  A    between atoms: C_33  and  O_49
   20  A    between atoms: C_35  and  C_43
   21  A    between atoms: C_43  and  C_51
   22  A    between atoms: C_51  and  C_54
                            x       y       z     vdW  Elec       q    Type
                         _______ _______ _______ _____ _____    ______ ____

>  <TORSDO>
F 22

$$$$
=
 OpenBabel10272401293D

 55 59  0  0  1  0  0  0  0  0999 V2000
  188.1840  178.3960  139.7630 C   0  0  0  0  0  2  0  0  0  0  0  0
  185.8530  179.0490  141.0950 C   0  0  2  0  0  3  0  0  0  0  0  0
  185.7760  178.9160  139.6760 O   0  0  0  0  0  0  0  0  0  0  0  0
  188.0380  178.5940  141.2680 C   0  0  0  0  0  2  0  0  0  0  0  0
  186.8090  178.0970  139.1530 C   0  0  1  0  0  3  0  0  0  0  0  0
  186.7720  178.1640  141.6960 O   0  0  0  0  0  0  0  0  0  0  0  0
  184.4780  178.8650  141.7140 C   0  0  0  0  0  2  0  0  0  0  0  0
  184.6100  178.2690  143.1050 C   0  0  0  0  0  2  0  0  0  0  0  0
  184.8240  179.3670  144.1310 C   0  0  0  0  0  2  0  0  0  0  0  0
  184.2600  178.9370  145.4750 C   0  0  0  0  0  2  0  0  0  0  0  0
  185.0990  177.8290  146.0900 C   0  0  0  0  0  2  0  0  0  0  0  0
  186.1390  178.3970  147.0400 C   0  0  0  0  0  2  0  0  0  0  0  0
  187.4490  178.3890  146.4040 N   0  0  0  0  0  2  0  0  0  0  0  0
  188.4780  177.4780  146.7970 C   0  0  0  0  0  0  0  0  0  0  0  0
  188.2680  176.6540  147.7280 O   0  0  0  0  0  0  0  0  0  0  0  0
  189.5470  178.7150  143.9990 O   0  0  0  0  0  1  0  0  0  0  0  0
  189.8000  177.4850  146.0640 C   0  0  1  0  0  0  0  0  0  0  0  0
  188.5090  176.5600  144.0720 C   0  0  0  0  0  1  0  0  0  0  0  0
  189.6760  177.4350  144.5470 C   0  0  1  0  0  0  0  0  0  0  0  0
  191.4750  175.9970  145.2210 O   0  0  0  0  0  0  0  0  0  0  0  0
  191.0290  176.8310  144.1750 C   0  0  1  0  0  3  0  0  0  0  0  0
  190.5310  178.6230  146.4440 O   0  0  0  0  0  1  0  0  0  0  0  0
  190.6260  176.2260  146.3230 C   0  0  1  0  0  3  0  0  0  0  0  0
  191.4050  176.2720  147.6000 C   0  0  0  0  0  3  0  0  0  0  0  0
  192.6250  176.2690  147.5720 O   0  0  0  0  0  0  0  0  0  0  0  0
  191.0640  176.1050  142.8340 C   0  0  0  0  0  2  0  0  0  0  0  0
  191.4340  177.0420  141.7440 C   0  0  0  0  0  0  0  0  0  0  0  0
  191.9370  178.1580  142.0250 O   0  0  0  0  0  1  0  0  0  0  0  0
  191.2020  176.7010  140.4210 O   0  0  0  0  0  0  0  0  0  0  0  0
  186.8520  178.1980  137.6360 C   0  0  0  0  0  2  0  0  0  0  0  0
  188.0230  177.4120  137.0690 C   0  0  0  0  0  2  0  0  0  0  0  0
  187.9000  176.0620  137.4070 O   0  0  0  0  0  0  0  0  0  0  0  0
  188.4160  175.3700  136.3020 C   0  0  1  0  0  3  0  0  0  0  0  0
  191.2980  176.0130  136.1050 C   0  0  0  0  0  2  0  0  0  0  0  0
  193.1460  174.4370  136.3250 N   0  0  0  0  0  0  0  0  0  0  0  0
  190.8010  174.6770  136.5570 C   0  0  1  0  0  0  0  0  0  0  0  0
  189.3850  174.2890  136.7820 C   0  0  1  0  0  3  0  0  0  0  0  0
  191.9220  173.6850  136.6070 C   0  0  0  0  0  2  0  0  0  0  0  0
  192.7250  175.6970  135.6890 C   0  0  0  0  0  2  0  0  0  0  0  0
  190.1940  174.7920  137.8200 O   0  0  0  0  0  0  0  0  0  0  0  0
  193.9360  173.6780  135.3540 C   0  0  0  0  0  3  0  0  0  0  0  0
  193.1510  172.6790  134.7720 O   0  0  0  0  0  1  0  0  0  0  0  0
  194.4050  174.5270  134.3460 O   0  0  0  0  0  1  0  0  0  0  0  0
  187.7410  173.6360  134.7840 O   0  0  0  0  0  1  0  0  0  0  0  0
  187.2870  174.7810  135.4440 C   0  0  0  0  0  0  0  0  0  0  0  0
  186.8750  175.7250  134.5010 O   0  0  0  0  0  1  0  0  0  0  0  0
  186.1040  174.4330  136.3470 C   0  0  0  0  0  2  0  0  0  0  0  0
  184.8270  175.1780  135.9780 C   0  0  0  0  0  2  0  0  0  0  0  0
  183.7460  174.7860  138.0630 O   0  0  0  0  0  0  0  0  0  0  0  0
  182.7700  175.4500  137.2910 C   0  0  2  0  0  3  0  0  0  0  0  0
  184.2090  175.8080  137.2110 C   0  0  2  0  0  3  0  0  0  0  0  0
  182.3070  177.9040  137.9440 C   0  0  0  0  0  1  0  0  0  0  0  0
  182.1580  176.0920  139.6000 C   0  0  0  0  0  1  0  0  0  0  0  0
  180.4720  176.2560  137.8270 C   0  0  0  0  0  1  0  0  0  0  0  0
  181.9440  176.4350  138.1420 C   0  0  0  0  0  0  0  0  0  0  0  0
  1  4  1  0  0  0  0
  2  6  1  0  0  0  0
  2  7  1  1  0  0  0
  3  2  1  0  0  0  0
  4  6  1  0  0  0  0
  5 30  1  6  0  0  0
  5  3  1  0  0  0  0
  5  1  1  0  0  0  0
  7  8  1  0  0  0  0
  8  9  1  0  0  0  0
  9 10  1  0  0  0  0
 10 11  1  0  0  0  0
 11 12  1  0  0  0  0
 13 14  1  0  0  0  0
 13 12  1  0  0  0  0
 14 15  2  0  0  0  0
 16 19  1  0  0  0  0
 17 23  1  0  0  0  0
 17 22  1  1  0  0  0
 17 14  1  0  0  0  0
 19 18  1  6  0  0  0
 19 17  1  0  0  0  0
 20 23  1  0  0  0  0
 21 26  1  6  0  0  0
 21 19  1  0  0  0  0
 21 20  1  0  0  0  0
 23 24  1  1  0  0  0
 25 24  2  0  0  0  0
 27 28  1  0  0  0  0
 27 26  1  0  0  0  0
 29 27  2  0  0  0  0
 31 32  1  0  0  0  0
 31 30  1  0  0  0  0
 33 32  1  1  0  0  0
 35 38  1  0  0  0  0
 36 34  1  6  0  0  0
 36 38  1  0  0  0  0
 36 37  1  0  0  0  0
 36 40  1  0  0  0  0
 37 33  1  6  0  0  0
 37 40  1  0  0  0  0
 39 34  1  0  0  0  0
 39 35  1  0  0  0  0
 41 35  1  0  0  0  0
 42 41  1  0  0  0  0
 43 41  1  0  0  0  0
 44 45  1  0  0  0  0
 45 33  1  0  0  0  0
 45 47  1  0  0  0  0
 46 45  1  0  0  0  0
 48 47  1  0  0  0  0
 50 49  1  0  0  0  0
 50 55  1  1  0  0  0
 51 48  1  6  0  0  0
 51 50  1  0  0  0  0
 51 49  1  0  0  0  0
 52 55  1  0  0  0  0
 54 55  1  0  0  0  0
 55 53  1  0  0  0  0
M  END
>  <MODEL>
2

>  <REMARK>
 VINA RESULT:      -6.1      2.163      6.524
  Name = 
  22 active torsions:
  status: ('A' for Active; 'I' for Inactive)
    1  A    between atoms: C_1  and  C_53
    2  A    between atoms: C_2  and  C_28
    3  A    between atoms: C_2  and  C_44
    4  A    between atoms: C_6  and  C_20
    5  A    between atoms: N_7  and  C_22
    6  A    between atoms: C_8  and  C_22
    7  A    between atoms: C_8  and  C_35
    8  A    between atoms: C_10  and  N_32
    9  A    between atoms: C_11  and  C_29
   10  A    between atoms: C_16  and  C_17
   11  A    between atoms: C_16  and  C_26
   12  A    between atoms: C_17  and  C_33
   13  A    between atoms: C_19  and  C_40
   14  A    between atoms: C_26  and  C_45
   15  A    between atoms: C_27  and  C_54
   16  A    between atoms: C_28  and  O_49
   17  A    between atoms: C_29  and  C_38
   18  A    between atoms: C_33  and  C_36
   19  A    between atoms: C_33  and  O_49
   20  A    between atoms: C_35  and  C_43
   21  A    between atoms: C_43  and  C_51
   22  A    between atoms: C_51  and  C_54
                            x       y       z     vdW  Elec       q    Type
                         _______ _______ _______ _____ _____    ______ ____

>  <TORSDO>
F 22

$$$$
=
 OpenBabel10272401293D

 55 59  0  0  1  0  0  0  0  0999 V2000
  184.3710  178.1320  137.7520 C   0  0  0  0  0  2  0  0  0  0  0  0
  184.0670  178.5330  140.4690 C   0  0  2  0  0  3  0  0  0  0  0  0
  185.3350  178.0550  140.0190 O   0  0  0  0  0  0  0  0  0  0  0  0
  183.1080  178.6270  138.4480 C   0  0  0  0  0  2  0  0  0  0  0  0
  185.5820  178.3760  138.6600 C   0  0  1  0  0  3  0  0  0  0  0  0
  183.4420  179.4140  139.5620 O   0  0  0  0  0  0  0  0  0  0  0  0
  184.2100  179.2020  141.8240 C   0  0  0  0  0  2  0  0  0  0  0  0
  185.4780  178.7220  142.5100 C   0  0  0  0  0  2  0  0  0  0  0  0
  185.1390  178.0060  143.8040 C   0  0  0  0  0  2  0  0  0  0  0  0
  184.4660  178.9690  144.7680 C   0  0  0  0  0  2  0  0  0  0  0  0
  185.3250  179.1960  146.0020 C   0  0  0  0  0  2  0  0  0  0  0  0
  186.2830  178.0360  146.2190 C   0  0  0  0  0  2  0  0  0  0  0  0
  187.4530  178.1950  145.3670 N   0  0  0  0  0  2  0  0  0  0  0  0
  188.6610  177.4630  145.5930 C   0  0  0  0  0  0  0  0  0  0  0  0
  188.7380  176.6580  146.5600 O   0  0  0  0  0  0  0  0  0  0  0  0
  189.0340  178.6760  142.6120 O   0  0  0  0  0  1  0  0  0  0  0  0
  189.8240  177.6340  144.6440 C   0  0  1  0  0  0  0  0  0  0  0  0
  188.3970  176.3940  142.9370 C   0  0  0  0  0  1  0  0  0  0  0  0
  189.4630  177.4710  143.1740 C   0  0  1  0  0  0  0  0  0  0  0  0
  191.5630  176.3810  143.5780 O   0  0  0  0  0  0  0  0  0  0  0  0
  190.8190  177.0660  142.5950 C   0  0  1  0  0  3  0  0  0  0  0  0
  190.4080  178.8950  144.8520 O   0  0  0  0  0  1  0  0  0  0  0  0
  190.8800  176.5410  144.8010 C   0  0  1  0  0  3  0  0  0  0  0  0
  191.8400  176.7890  145.9220 C   0  0  0  0  0  3  0  0  0  0  0  0
  192.0920  175.9010  146.7190 O   0  0  0  0  0  0  0  0  0  0  0  0
  190.7530  176.2730  141.2950 C   0  0  0  0  0  2  0  0  0  0  0  0
  190.9930  177.1620  140.1300 C   0  0  0  0  0  0  0  0  0  0  0  0
  192.1310  177.2030  139.6020 O   0  0  0  0  0  0  0  0  0  0  0  0
  189.9730  177.9620  139.6400 O   0  0  0  0  0  1  0  0  0  0  0  0
  186.8050  177.6290  138.1510 C   0  0  0  0  0  2  0  0  0  0  0  0
  187.5770  178.4660  137.1440 C   0  0  0  0  0  2  0  0  0  0  0  0
  187.4940  177.8850  135.8770 O   0  0  0  0  0  0  0  0  0  0  0  0
  187.6540  176.5110  136.1050 C   0  0  1  0  0  3  0  0  0  0  0  0
  185.8430  174.5050  137.3080 C   0  0  0  0  0  2  0  0  0  0  0  0
  184.6320  172.7540  136.1180 N   0  0  0  0  0  0  0  0  0  0  0  0
  185.9720  174.6870  135.8300 C   0  0  1  0  0  0  0  0  0  0  0  0
  186.7740  175.7240  135.1330 C   0  0  1  0  0  3  0  0  0  0  0  0
  185.3050  173.5630  135.0990 C   0  0  0  0  0  2  0  0  0  0  0  0
  185.2500  173.1080  137.4060 C   0  0  0  0  0  2  0  0  0  0  0  0
  185.4150  175.9190  135.4460 O   0  0  0  0  0  0  0  0  0  0  0  0
  184.9190  171.3450  135.8460 C   0  0  0  0  0  3  0  0  0  0  0  0
  183.8580  170.7660  135.1440 O   0  0  0  0  0  1  0  0  0  0  0  0
  186.0830  171.2290  135.0800 O   0  0  0  0  0  1  0  0  0  0  0  0
  189.9320  177.2430  135.8890 O   0  0  0  0  0  1  0  0  0  0  0  0
  189.1310  176.1030  135.9930 C   0  0  0  0  0  0  0  0  0  0  0  0
  189.3120  175.3060  134.8620 O   0  0  0  0  0  1  0  0  0  0  0  0
  189.5210  175.2990  137.2330 C   0  0  0  0  0  2  0  0  0  0  0  0
  190.4480  174.1290  136.9240 C   0  0  0  0  0  2  0  0  0  0  0  0
  192.3640  174.1230  135.5110 O   0  0  0  0  0  0  0  0  0  0  0  0
  192.7980  173.4620  136.6790 C   0  0  2  0  0  3  0  0  0  0  0  0
  191.8700  174.6190  136.7340 C   0  0  2  0  0  3  0  0  0  0  0  0
  194.9930  172.7690  137.8440 C   0  0  0  0  0  1  0  0  0  0  0  0
  194.2300  175.1070  137.8460 C   0  0  0  0  0  1  0  0  0  0  0  0
  195.0290  174.0920  135.7610 C   0  0  0  0  0  1  0  0  0  0  0  0
  194.2520  173.8290  137.0350 C   0  0  0  0  0  0  0  0  0  0  0  0
  1  4  1  0  0  0  0
  1  5  1  0  0  0  0
  2  7  1  1  0  0  0
  3  2  1  0  0  0  0
  4  6  1  0  0  0  0
  5 30  1  6  0  0  0
  5  3  1  0  0  0  0
  6  2  1  0  0  0  0
  7  8  1  0  0  0  0
  8  9  1  0  0  0  0
  9 10  1  0  0  0  0
 10 11  1  0  0  0  0
 11 12  1  0  0  0  0
 13 14  1  0  0  0  0
 13 12  1  0  0  0  0
 14 15  2  0  0  0  0
 16 19  1  0  0  0  0
 17 23  1  0  0  0  0
 17 22  1  1  0  0  0
 17 14  1  0  0  0  0
 19 18  1  6  0  0  0
 19 17  1  0  0  0  0
 20 23  1  0  0  0  0
 21 26  1  6  0  0  0
 21 19  1  0  0  0  0
 21 20  1  0  0  0  0
 23 24  1  1  0  0  0
 24 25  2  0  0  0  0
 27 26  1  0  0  0  0
 28 27  2  0  0  0  0
 29 27  1  0  0  0  0
 31 30  1  0  0  0  0
 32 31  1  0  0  0  0
 33 32  1  6  0  0  0
 34 39  1  0  0  0  0
 35 39  1  0  0  0  0
 36 38  1  6  0  0  0
 36 34  1  0  0  0  0
 37 40  1  0  0  0  0
 37 36  1  0  0  0  0
 37 33  1  1  0  0  0
 38 35  1  0  0  0  0
 40 36  1  0  0  0  0
 41 35  1  0  0  0  0
 42 41  1  0  0  0  0
 43 41  1  0  0  0  0
 44 45  1  0  0  0  0
 45 33  1  0  0  0  0
 45 47  1  0  0  0  0
 46 45  1  0  0  0  0
 48 47  1  0  0  0  0
 49 50  1  0  0  0  0
 49 51  1  0  0  0  0
 50 51  1  0  0  0  0
 50 55  1  1  0  0  0
 51 48  1  6  0  0  0
 54 55  1  0  0  0  0
 55 52  1  0  0  0  0
 55 53  1  0  0  0  0
M  END
>  <MODEL>
3

>  <REMARK>
 VINA RESULT:      -6.0      2.447      7.327
  Name = 
  22 active torsions:
  status: ('A' for Active; 'I' for Inactive)
    1  A    between atoms: C_1  and  C_53
    2  A    between atoms: C_2  and  C_28
    3  A    between atoms: C_2  and  C_44
    4  A    between atoms: C_6  and  C_20
    5  A    between atoms: N_7  and  C_22
    6  A    between atoms: C_8  and  C_22
    7  A    between atoms: C_8  and  C_35
    8  A    between atoms: C_10  and  N_32
    9  A    between atoms: C_11  and  C_29
   10  A    between atoms: C_16  and  C_17
   11  A    between atoms: C_16  and  C_26
   12  A    between atoms: C_17  and  C_33
   13  A    between atoms: C_19  and  C_40
   14  A    between atoms: C_26  and  C_45
   15  A    between atoms: C_27  and  C_54
   16  A    between atoms: C_28  and  O_49
   17  A    between atoms: C_29  and  C_38
   18  A    between atoms: C_33  and  C_36
   19  A    between atoms: C_33  and  O_49
   20  A    between atoms: C_35  and  C_43
   21  A    between atoms: C_43  and  C_51
   22  A    between atoms: C_51  and  C_54
                            x       y       z     vdW  Elec       q    Type
                         _______ _______ _______ _____ _____    ______ ____

>  <TORSDO>
F 22

$$$$
=
 OpenBabel10272401293D

 55 59  0  0  1  0  0  0  0  0999 V2000
  190.9640  177.5950  141.7900 C   0  0  0  0  0  2  0  0  0  0  0  0
  188.4000  177.8320  142.7910 C   0  0  2  0  0  3  0  0  0  0  0  0
  188.5460  177.8240  141.3720 O   0  0  0  0  0  0  0  0  0  0  0  0
  190.5790  177.6330  143.2640 C   0  0  0  0  0  2  0  0  0  0  0  0
  189.7440  177.1890  140.9550 C   0  0  1  0  0  3  0  0  0  0  0  0
  189.3350  177.0140  143.4600 O   0  0  0  0  0  0  0  0  0  0  0  0
  186.9890  177.4260  143.1760 C   0  0  0  0  0  2  0  0  0  0  0  0
  186.8520  177.3890  144.6890 C   0  0  0  0  0  2  0  0  0  0  0  0
  185.7790  178.3600  145.1450 C   0  0  0  0  0  2  0  0  0  0  0  0
  184.7530  178.5540  144.0410 C   0  0  0  0  0  2  0  0  0  0  0  0
  183.5250  179.2860  144.5590 C   0  0  0  0  0  2  0  0  0  0  0  0
  182.2720  178.8280  143.8320 C   0  0  0  0  0  2  0  0  0  0  0  0
  182.5810  178.5530  142.4360 N   0  0  0  0  0  2  0  0  0  0  0  0
  181.7380  178.9970  141.3700 C   0  0  0  0  0  0  0  0  0  0  0  0
  180.6850  179.6420  141.6270 O   0  0  0  0  0  0  0  0  0  0  0  0
  180.1530  178.2850  138.6350 O   0  0  0  0  0  1  0  0  0  0  0  0
  182.1400  178.7240  139.9390 C   0  0  1  0  0  0  0  0  0  0  0  0
  180.8130  176.5600  140.1560 C   0  0  0  0  0  1  0  0  0  0  0  0
  181.2720  177.6940  139.2300 C   0  0  1  0  0  0  0  0  0  0  0  0
  183.5650  177.3070  138.6380 O   0  0  0  0  0  0  0  0  0  0  0  0
  182.2430  177.1970  138.1600 C   0  0  1  0  0  3  0  0  0  0  0  0
  182.1290  179.9300  139.2190 O   0  0  0  0  0  1  0  0  0  0  0  0
  183.5130  178.0640  139.8260 C   0  0  1  0  0  3  0  0  0  0  0  0
  184.6520  179.0330  139.8950 C   0  0  0  0  0  3  0  0  0  0  0  0
  185.1460  179.4690  138.8690 O   0  0  0  0  0  0  0  0  0  0  0  0
  181.9590  175.7950  137.6330 C   0  0  0  0  0  2  0  0  0  0  0  0
  182.7990  175.5050  136.4430 C   0  0  0  0  0  0  0  0  0  0  0  0
  182.2730  175.0150  135.4140 O   0  0  0  0  0  0  0  0  0  0  0  0
  184.1630  175.7490  136.4750 O   0  0  0  0  0  1  0  0  0  0  0  0
  189.9890  177.4350  139.4740 C   0  0  0  0  0  2  0  0  0  0  0  0
  191.2760  176.7670  139.0160 C   0  0  0  0  0  2  0  0  0  0  0  0
  191.0120  175.4620  138.5970 O   0  0  0  0  0  0  0  0  0  0  0  0
  191.7550  175.3100  137.4170 C   0  0  1  0  0  3  0  0  0  0  0  0
  194.0470  176.5680  136.0320 C   0  0  0  0  0  2  0  0  0  0  0  0
  196.3230  175.7000  135.9270 N   0  0  0  0  0  0  0  0  0  0  0  0
  194.2040  175.3890  136.9380 C   0  0  1  0  0  0  0  0  0  0  0  0
  193.1380  174.7490  137.7510 C   0  0  1  0  0  3  0  0  0  0  0  0
  195.5750  174.8010  136.8070 C   0  0  0  0  0  2  0  0  0  0  0  0
  195.3240  176.5090  135.2100 C   0  0  0  0  0  2  0  0  0  0  0  0
  193.9600  175.7690  138.2690 O   0  0  0  0  0  0  0  0  0  0  0  0
  197.0410  174.8860  134.9440 C   0  0  0  0  0  3  0  0  0  0  0  0
  198.3500  174.6550  135.3760 O   0  0  0  0  0  1  0  0  0  0  0  0
  196.3980  173.6550  134.7770 O   0  0  0  0  0  1  0  0  0  0  0  0
  191.6060  173.1590  136.3570 O   0  0  0  0  0  1  0  0  0  0  0  0
  191.0100  174.4230  136.4080 C   0  0  0  0  0  0  0  0  0  0  0  0
  191.0620  175.0090  135.1420 O   0  0  0  0  0  1  0  0  0  0  0  0
  189.5490  174.2980  136.8380 C   0  0  0  0  0  2  0  0  0  0  0  0
  189.0250  172.8680  136.7750 C   0  0  0  0  0  2  0  0  0  0  0  0
  187.0120  173.9110  136.0470 O   0  0  0  0  0  0  0  0  0  0  0  0
  186.5790  172.7040  136.6330 C   0  0  2  0  0  3  0  0  0  0  0  0
  187.8320  172.7840  135.8420 C   0  0  2  0  0  3  0  0  0  0  0  0
  185.6760  170.6810  135.3100 C   0  0  0  0  0  1  0  0  0  0  0  0
  185.0840  172.9840  134.6830 C   0  0  0  0  0  1  0  0  0  0  0  0
  184.1840  172.0190  136.7500 C   0  0  0  0  0  1  0  0  0  0  0  0
  185.4040  172.0800  135.8540 C   0  0  0  0  0  0  0  0  0  0  0  0
  1  4  1  0  0  0  0
  2  7  1  6  0  0  0
  2  6  1  0  0  0  0
  3  2  1  0  0  0  0
  4  6  1  0  0  0  0
  5 30  1  6  0  0  0
  5  3  1  0  0  0  0
  5  1  1  0  0  0  0
  7  8  1  0  0  0  0
  8  9  1  0  0  0  0
 10 11  1  0  0  0  0
 10  9  1  0  0  0  0
 12 11  1  0  0  0  0
 13 12  1  0  0  0  0
 14 15  2  0  0  0  0
 14 13  1  0  0  0  0
 16 19  1  0  0  0  0
 17 22  1  6  0  0  0
 17 14  1  0  0  0  0
 19 17  1  0  0  0  0
 19 18  1  1  0  0  0
 20 23  1  0  0  0  0
 21 26  1  1  0  0  0
 21 20  1  0  0  0  0
 21 19  1  0  0  0  0
 23 24  1  6  0  0  0
 23 17  1  0  0  0  0
 25 24  2  0  0  0  0
 27 29  1  0  0  0  0
 27 26  1  0  0  0  0
 28 27  2  0  0  0  0
 31 30  1  0  0  0  0
 32 31  1  0  0  0  0
 33 32  1  1  0  0  0
 35 38  1  0  0  0  0
 36 34  1  6  0  0  0
 36 37  1  0  0  0  0
 36 40  1  0  0  0  0
 37 33  1  6  0  0  0
 37 40  1  0  0  0  0
 38 36  1  0  0  0  0
 39 35  1  0  0  0  0
 39 34  1  0  0  0  0
 41 42  1  0  0  0  0
 41 35  1  0  0  0  0
 43 41  1  0  0  0  0
 44 45  1  0  0  0  0
 45 47  1  0  0  0  0
 45 33  1  0  0  0  0
 46 45  1  0  0  0  0
 48 47  1  0  0  0  0
 49 50  1  0  0  0  0
 50 55  1  6  0  0  0
 51 49  1  0  0  0  0
 51 50  1  0  0  0  0
 51 48  1  1  0  0  0
 52 55  1  0  0  0  0
 53 55  1  0  0  0  0
 55 54  1  0  0  0  0
M  END
>  <MODEL>
4

>  <REMARK>
 VINA RESULT:      -5.9      1.635      2.409
  Name = 
  22 active torsions:
  status: ('A' for Active; 'I' for Inactive)
    1  A    between atoms: C_1  and  C_53
    2  A    between atoms: C_2  and  C_28
    3  A    between atoms: C_2  and  C_44
    4  A    between atoms: C_6  and  C_20
    5  A    between atoms: N_7  and  C_22
    6  A    between atoms: C_8  and  C_22
    7  A    between atoms: C_8  and  C_35
    8  A    between atoms: C_10  and  N_32
    9  A    between atoms: C_11  and  C_29
   10  A    between atoms: C_16  and  C_17
   11  A    between atoms: C_16  and  C_26
   12  A    between atoms: C_17  and  C_33
   13  A    between atoms: C_19  and  C_40
   14  A    between atoms: C_26  and  C_45
   15  A    between atoms: C_27  and  C_54
   16  A    between atoms: C_28  and  O_49
   17  A    between atoms: C_29  and  C_38
   18  A    between atoms: C_33  and  C_36
   19  A    between atoms: C_33  and  O_49
   20  A    between atoms: C_35  and  C_43
   21  A    between atoms: C_43  and  C_51
   22  A    between atoms: C_51  and  C_54
                            x       y       z     vdW  Elec       q    Type
                         _______ _______ _______ _____ _____    ______ ____

>  <TORSDO>
F 22

$$$$
=
 OpenBabel10272401293D

 55 59  0  0  1  0  0  0  0  0999 V2000
  191.4870  177.1130  144.8370 C   0  0  0  0  0  2  0  0  0  0  0  0
  188.7470  177.4680  144.8300 C   0  0  2  0  0  3  0  0  0  0  0  0
  189.4080  177.4830  143.5660 O   0  0  0  0  0  0  0  0  0  0  0  0
  190.5850  177.1390  146.0650 C   0  0  0  0  0  2  0  0  0  0  0  0
  190.6470  176.7930  143.5950 C   0  0  1  0  0  3  0  0  0  0  0  0
  189.3310  176.5850  145.7620 O   0  0  0  0  0  0  0  0  0  0  0  0
  187.2780  177.1310  144.6500 C   0  0  0  0  0  2  0  0  0  0  0  0
  186.4450  178.4010  144.6870 C   0  0  0  0  0  2  0  0  0  0  0  0
  184.9660  178.0640  144.6220 C   0  0  0  0  0  2  0  0  0  0  0  0
  184.3240  178.7760  143.4430 C   0  0  0  0  0  2  0  0  0  0  0  0
  185.3770  179.4180  142.5530 C   0  0  0  0  0  2  0  0  0  0  0  0
  185.3270  178.8410  141.1490 C   0  0  0  0  0  2  0  0  0  0  0  0
  183.9470  178.7740  140.6890 N   0  0  0  0  0  2  0  0  0  0  0  0
  183.4830  179.5310  139.5690 C   0  0  0  0  0  0  0  0  0  0  0  0
  184.2750  180.2920  138.9510 O   0  0  0  0  0  0  0  0  0  0  0  0
  181.3830  177.0710  139.3640 O   0  0  0  0  0  1  0  0  0  0  0  0
  182.0510  179.3800  139.1090 C   0  0  1  0  0  0  0  0  0  0  0  0
  182.9120  177.5310  137.5830 C   0  0  0  0  0  1  0  0  0  0  0  0
  181.7460  178.0500  138.4340 C   0  0  1  0  0  0  0  0  0  0  0  0
  180.6420  179.8010  137.2200 O   0  0  0  0  0  0  0  0  0  0  0  0
  180.5440  178.4400  137.5750 C   0  0  1  0  0  3  0  0  0  0  0  0
  181.1930  179.5630  140.2060 O   0  0  0  0  0  1  0  0  0  0  0  0
  181.6820  180.3560  137.9930 C   0  0  1  0  0  3  0  0  0  0  0  0
  181.3140  181.7200  138.4860 C   0  0  0  0  0  3  0  0  0  0  0  0
  182.0330  182.6740  138.2390 O   0  0  0  0  0  0  0  0  0  0  0  0
  180.3150  177.5610  136.3500 C   0  0  0  0  0  2  0  0  0  0  0  0
  180.8330  178.2270  135.1280 C   0  0  0  0  0  0  0  0  0  0  0  0
  181.9060  177.8310  134.6110 O   0  0  0  0  0  1  0  0  0  0  0  0
  180.1490  179.2970  134.5720 O   0  0  0  0  0  0  0  0  0  0  0  0
  191.4330  177.0580  142.3200 C   0  0  0  0  0  2  0  0  0  0  0  0
  190.5060  177.1730  141.1200 C   0  0  0  0  0  2  0  0  0  0  0  0
  191.2410  177.5080  139.9810 O   0  0  0  0  0  0  0  0  0  0  0  0
  190.5150  176.9580  138.9150 C   0  0  1  0  0  3  0  0  0  0  0  0
  187.8010  176.2180  137.9970 C   0  0  0  0  0  2  0  0  0  0  0  0
  186.3930  177.5000  136.4740 N   0  0  0  0  0  0  0  0  0  0  0  0
  188.4050  177.5580  137.7220 C   0  0  1  0  0  0  0  0  0  0  0  0
  189.7120  178.0580  138.2200 C   0  0  1  0  0  3  0  0  0  0  0  0
  187.5880  178.3100  136.7180 C   0  0  0  0  0  2  0  0  0  0  0  0
  186.7070  176.1400  136.9450 C   0  0  0  0  0  2  0  0  0  0  0  0
  188.5100  178.2920  138.9160 O   0  0  0  0  0  0  0  0  0  0  0  0
  186.1680  177.4410  135.0290 C   0  0  0  0  0  3  0  0  0  0  0  0
  187.0760  178.2720  134.3670 O   0  0  0  0  0  1  0  0  0  0  0  0
  186.3370  176.1310  134.5680 O   0  0  0  0  0  1  0  0  0  0  0  0
  191.1050  176.5610  136.6200 O   0  0  0  0  0  1  0  0  0  0  0  0
  191.4440  176.2260  137.9350 C   0  0  0  0  0  0  0  0  0  0  0  0
  191.3160  174.8480  138.1080 O   0  0  0  0  0  1  0  0  0  0  0  0
  192.8900  176.6310  138.2230 C   0  0  0  0  0  2  0  0  0  0  0  0
  193.7380  175.4840  138.7600 C   0  0  0  0  0  2  0  0  0  0  0  0
  194.7960  173.4870  138.0080 O   0  0  0  0  0  0  0  0  0  0  0  0
  195.8480  174.4220  138.0880 C   0  0  2  0  0  3  0  0  0  0  0  0
  194.4900  174.8100  137.6300 C   0  0  2  0  0  3  0  0  0  0  0  0
  196.7640  175.3140  135.8470 C   0  0  0  0  0  1  0  0  0  0  0  0
  196.6050  172.9000  136.2920 C   0  0  0  0  0  1  0  0  0  0  0  0
  198.2630  174.2500  137.4940 C   0  0  0  0  0  1  0  0  0  0  0  0
  196.8550  174.2470  136.9340 C   0  0  0  0  0  0  0  0  0  0  0  0
  1  4  1  0  0  0  0
  2  7  1  6  0  0  0
  2  6  1  0  0  0  0
  3  5  1  0  0  0  0
  3  2  1  0  0  0  0
  5 30  1  6  0  0  0
  5  1  1  0  0  0  0
  6  4  1  0  0  0  0
  7  8  1  0  0  0  0
  9  8  1  0  0  0  0
 10  9  1  0  0  0  0
 11 10  1  0  0  0  0
 12 11  1  0  0  0  0
 13 12  1  0  0  0  0
 14 13  1  0  0  0  0
 15 14  2  0  0  0  0
 17 14  1  0  0  0  0
 17 22  1  1  0  0  0
 19 18  1  6  0  0  0
 19 17  1  0  0  0  0
 19 16  1  0  0  0  0
 20 21  1  0  0  0  0
 20 23  1  0  0  0  0
 21 26  1  6  0  0  0
 21 19  1  0  0  0  0
 23 24  1  1  0  0  0
 23 17  1  0  0  0  0
 25 24  2  0  0  0  0
 27 26  1  0  0  0  0
 28 27  1  0  0  0  0
 29 27  2  0  0  0  0
 31 30  1  0  0  0  0
 32 31  1  0  0  0  0
 33 32  1  1  0  0  0
 35 38  1  0  0  0  0
 35 39  1  0  0  0  0
 36 38  1  6  0  0  0
 36 34  1  0  0  0  0
 36 37  1  0  0  0  0
 36 40  1  0  0  0  0
 37 33  1  1  0  0  0
 37 40  1  0  0  0  0
 39 34  1  0  0  0  0
 41 35  1  0  0  0  0
 42 41  1  0  0  0  0
 43 41  1  0  0  0  0
 44 45  1  0  0  0  0
 45 46  1  0  0  0  0
 45 47  1  0  0  0  0
 45 33  1  0  0  0  0
 47 48  1  0  0  0  0
 49 50  1  0  0  0  0
 50 55  1  6  0  0  0
 51 49  1  0  0  0  0
 51 50  1  0  0  0  0
 51 48  1  1  0  0  0
 52 55  1  0  0  0  0
 53 55  1  0  0  0  0
 55 54  1  0  0  0  0
M  END
>  <MODEL>
5

>  <REMARK>
 VINA RESULT:      -5.9      2.298      5.044
  Name = 
  22 active torsions:
  status: ('A' for Active; 'I' for Inactive)
    1  A    between atoms: C_1  and  C_53
    2  A    between atoms: C_2  and  C_28
    3  A    between atoms: C_2  and  C_44
    4  A    between atoms: C_6  and  C_20
    5  A    between atoms: N_7  and  C_22
    6  A    between atoms: C_8  and  C_22
    7  A    between atoms: C_8  and  C_35
    8  A    between atoms: C_10  and  N_32
    9  A    between atoms: C_11  and  C_29
   10  A    between atoms: C_16  and  C_17
   11  A    between atoms: C_16  and  C_26
   12  A    between atoms: C_17  and  C_33
   13  A    between atoms: C_19  and  C_40
   14  A    between atoms: C_26  and  C_45
   15  A    between atoms: C_27  and  C_54
   16  A    between atoms: C_28  and  O_49
   17  A    between atoms: C_29  and  C_38
   18  A    between atoms: C_33  and  C_36
   19  A    between atoms: C_33  and  O_49
   20  A    between atoms: C_35  and  C_43
   21  A    between atoms: C_43  and  C_51
   22  A    between atoms: C_51  and  C_54
                            x       y       z     vdW  Elec       q    Type
                         _______ _______ _______ _____ _____    ______ ____

>  <TORSDO>
F 22

$$$$
=
 OpenBabel10272401293D

 55 59  0  0  1  0  0  0  0  0999 V2000
  192.0110  175.8180  143.6650 C   0  0  0  0  0  2  0  0  0  0  0  0
  190.4750  177.4970  145.2330 C   0  0  2  0  0  3  0  0  0  0  0  0
  190.4330  177.7050  143.8210 O   0  0  0  0  0  0  0  0  0  0  0  0
  191.9120  175.7810  145.1860 C   0  0  0  0  0  2  0  0  0  0  0  0
  190.7860  176.5400  143.0930 C   0  0  1  0  0  3  0  0  0  0  0  0
  190.6200  176.1420  145.5990 O   0  0  0  0  0  0  0  0  0  0  0  0
  189.2340  178.0790  145.8860 C   0  0  0  0  0  2  0  0  0  0  0  0
  188.4500  176.9800  146.5830 C   0  0  0  0  0  2  0  0  0  0  0  0
  188.0620  177.4160  147.9840 C   0  0  0  0  0  2  0  0  0  0  0  0
  187.8140  178.9150  148.0100 C   0  0  0  0  0  2  0  0  0  0  0  0
  186.3620  179.2340  147.6920 C   0  0  0  0  0  2  0  0  0  0  0  0
  185.6630  178.0330  147.0780 C   0  0  0  0  0  2  0  0  0  0  0  0
  185.4870  178.2400  145.6470 N   0  0  0  0  0  2  0  0  0  0  0  0
  184.2990  178.8210  145.1050 C   0  0  0  0  0  0  0  0  0  0  0  0
  183.3590  179.1630  145.8720 O   0  0  0  0  0  0  0  0  0  0  0  0
  182.1770  180.2990  143.1530 O   0  0  0  0  0  1  0  0  0  0  0  0
  184.1970  179.0560  143.6160 C   0  0  1  0  0  0  0  0  0  0  0  0
  181.8810  178.0090  143.7780 C   0  0  0  0  0  1  0  0  0  0  0  0
  182.7740  179.0380  143.0740 C   0  0  1  0  0  0  0  0  0  0  0  0
  184.2010  177.8740  141.5340 O   0  0  0  0  0  0  0  0  0  0  0  0
  183.0350  178.6630  141.6150 C   0  0  1  0  0  3  0  0  0  0  0  0
  184.8100  180.2810  143.3000 O   0  0  0  0  0  1  0  0  0  0  0  0
  184.8290  177.9330  142.7950 C   0  0  1  0  0  3  0  0  0  0  0  0
  186.3130  178.0570  142.6500 C   0  0  0  0  0  3  0  0  0  0  0  0
  187.0480  177.2180  143.1440 O   0  0  0  0  0  0  0  0  0  0  0  0
  181.8630  177.9960  140.9020 C   0  0  0  0  0  2  0  0  0  0  0  0
  182.2080  177.7120  139.4860 C   0  0  0  0  0  0  0  0  0  0  0  0
  181.8790  176.6140  138.9740 O   0  0  0  0  0  1  0  0  0  0  0  0
  182.9120  178.6430  138.7390 O   0  0  0  0  0  0  0  0  0  0  0  0
  190.9860  176.8740  141.6220 C   0  0  0  0  0  2  0  0  0  0  0  0
  189.8070  177.6620  141.0750 C   0  0  0  0  0  2  0  0  0  0  0  0
  189.0650  176.8660  140.2010 O   0  0  0  0  0  0  0  0  0  0  0  0
  189.4320  177.3040  138.9210 C   0  0  1  0  0  3  0  0  0  0  0  0
  192.2310  176.7680  138.1280 C   0  0  0  0  0  2  0  0  0  0  0  0
  192.9670  175.2570  136.3610 N   0  0  0  0  0  0  0  0  0  0  0  0
  191.0810  175.9710  137.6030 C   0  0  1  0  0  0  0  0  0  0  0  0
  189.6580  176.0960  138.0110 C   0  0  1  0  0  3  0  0  0  0  0  0
  191.5140  175.1080  136.4580 C   0  0  0  0  0  2  0  0  0  0  0  0
  193.3110  176.4860  137.0950 C   0  0  0  0  0  2  0  0  0  0  0  0
  190.5340  175.1820  138.6300 O   0  0  0  0  0  0  0  0  0  0  0  0
  193.3140  175.4550  134.9530 C   0  0  0  0  0  3  0  0  0  0  0  0
  193.7460  176.7680  134.7450 O   0  0  0  0  0  1  0  0  0  0  0  0
  194.3390  174.5800  134.5810 O   0  0  0  0  0  1  0  0  0  0  0  0
  188.9720  179.4890  138.0370 O   0  0  0  0  0  1  0  0  0  0  0  0
  188.3780  178.2620  138.3440 C   0  0  0  0  0  0  0  0  0  0  0  0
  187.3630  178.4600  139.2800 O   0  0  0  0  0  1  0  0  0  0  0  0
  187.7770  177.6390  137.0840 C   0  0  0  0  0  2  0  0  0  0  0  0
  186.2660  177.8150  136.9900 C   0  0  0  0  0  2  0  0  0  0  0  0
  184.2440  176.7820  136.2730 O   0  0  0  0  0  0  0  0  0  0  0  0
  184.8210  175.8360  137.1450 C   0  0  2  0  0  3  0  0  0  0  0  0
  185.6470  176.6610  136.2270 C   0  0  2  0  0  3  0  0  0  0  0  0
  185.1560  174.1210  135.2460 C   0  0  0  0  0  1  0  0  0  0  0  0
  183.1200  174.1180  136.6250 C   0  0  0  0  0  1  0  0  0  0  0  0
  185.2560  173.4260  137.6120 C   0  0  0  0  0  1  0  0  0  0  0  0
  184.6080  174.3940  136.6430 C   0  0  0  0  0  0  0  0  0  0  0  0
  1  4  1  0  0  0  0
  2  6  1  0  0  0  0
  2  7  1  1  0  0  0
  3  2  1  0  0  0  0
  4  6  1  0  0  0  0
  5 30  1  6  0  0  0
  5  1  1  0  0  0  0
  5  3  1  0  0  0  0
  7  8  1  0  0  0  0
  8  9  1  0  0  0  0
  9 10  1  0  0  0  0
 11 10  1  0  0  0  0
 12 11  1  0  0  0  0
 13 12  1  0  0  0  0
 14 13  1  0  0  0  0
 14 15  2  0  0  0  0
 17 22  1  6  0  0  0
 17 14  1  0  0  0  0
 19 16  1  0  0  0  0
 19 17  1  0  0  0  0
 19 18  1  1  0  0  0
 20 21  1  0  0  0  0
 20 23  1  0  0  0  0
 21 26  1  1  0  0  0
 21 19  1  0  0  0  0
 23 24  1  6  0  0  0
 23 17  1  0  0  0  0
 24 25  2  0  0  0  0
 27 26  1  0  0  0  0
 28 27  1  0  0  0  0
 29 27  2  0  0  0  0
 31 30  1  0  0  0  0
 32 31  1  0  0  0  0
 33 32  1  1  0  0  0
 35 38  1  0  0  0  0
 35 39  1  0  0  0  0
 36 38  1  6  0  0  0
 36 37  1  0  0  0  0
 36 34  1  0  0  0  0
 36 40  1  0  0  0  0
 37 40  1  0  0  0  0
 37 33  1  1  0  0  0
 39 34  1  0  0  0  0
 41 35  1  0  0  0  0
 42 41  1  0  0  0  0
 43 41  1  0  0  0  0
 44 45  1  0  0  0  0
 45 33  1  0  0  0  0
 45 46  1  0  0  0  0
 47 45  1  0  0  0  0
 48 47  1  0  0  0  0
 49 50  1  0  0  0  0
 50 55  1  6  0  0  0
 51 49  1  0  0  0  0
 51 48  1  1  0  0  0
 51 50  1  0  0  0  0
 52 55  1  0  0  0  0
 53 55  1  0  0  0  0
 55 54  1  0  0  0  0
M  END
>  <MODEL>
6

>  <REMARK>
 VINA RESULT:      -5.6      1.816      2.958
  Name = 
  22 active torsions:
  status: ('A' for Active; 'I' for Inactive)
    1  A    between atoms: C_1  and  C_53
    2  A    between atoms: C_2  and  C_28
    3  A    between atoms: C_2  and  C_44
    4  A    between atoms: C_6  and  C_20
    5  A    between atoms: N_7  and  C_22
    6  A    between atoms: C_8  and  C_22
    7  A    between atoms: C_8  and  C_35
    8  A    between atoms: C_10  and  N_32
    9  A    between atoms: C_11  and  C_29
   10  A    between atoms: C_16  and  C_17
   11  A    between atoms: C_16  and  C_26
   12  A    between atoms: C_17  and  C_33
   13  A    between atoms: C_19  and  C_40
   14  A    between atoms: C_26  and  C_45
   15  A    between atoms: C_27  and  C_54
   16  A    between atoms: C_28  and  O_49
   17  A    between atoms: C_29  and  C_38
   18  A    between atoms: C_33  and  C_36
   19  A    between atoms: C_33  and  O_49
   20  A    between atoms: C_35  and  C_43
   21  A    between atoms: C_43  and  C_51
   22  A    between atoms: C_51  and  C_54
                            x       y       z     vdW  Elec       q    Type
                         _______ _______ _______ _____ _____    ______ ____

>  <TORSDO>
F 22

$$$$
=
 OpenBabel10272401293D

 55 59  0  0  1  0  0  0  0  0999 V2000
  187.6800  178.2810  139.9370 C   0  0  0  0  0  2  0  0  0  0  0  0
  185.5450  179.2070  141.4270 C   0  0  2  0  0  3  0  0  0  0  0  0
  185.3850  179.1780  140.0090 O   0  0  0  0  0  0  0  0  0  0  0  0
  187.6340  178.4040  141.4560 C   0  0  0  0  0  2  0  0  0  0  0  0
  186.2490  178.2410  139.3870 C   0  0  1  0  0  3  0  0  0  0  0  0
  186.3370  178.1520  141.9270 O   0  0  0  0  0  0  0  0  0  0  0  0
  184.1880  179.2020  142.1080 C   0  0  0  0  0  2  0  0  0  0  0  0
  184.2540  178.3950  143.3930 C   0  0  0  0  0  2  0  0  0  0  0  0
  184.6040  179.2950  144.5640 C   0  0  0  0  0  2  0  0  0  0  0  0
  184.0440  178.7120  145.8510 C   0  0  0  0  0  2  0  0  0  0  0  0
  185.1090  177.9310  146.6050 C   0  0  0  0  0  2  0  0  0  0  0  0
  186.0650  178.8680  147.3240 C   0  0  0  0  0  2  0  0  0  0  0  0
  187.3770  178.8180  146.6940 N   0  0  0  0  0  2  0  0  0  0  0  0
  188.2730  177.7220  146.8950 C   0  0  0  0  0  0  0  0  0  0  0  0
  187.9400  176.7650  147.6450 O   0  0  0  0  0  0  0  0  0  0  0  0
  189.3020  178.6120  143.9540 O   0  0  0  0  0  1  0  0  0  0  0  0
  189.6010  177.7040  146.1730 C   0  0  1  0  0  0  0  0  0  0  0  0
  188.3900  176.4320  144.3280 C   0  0  0  0  0  1  0  0  0  0  0  0
  189.4990  177.4330  144.6790 C   0  0  1  0  0  0  0  0  0  0  0  0
  191.3700  176.2130  145.5560 O   0  0  0  0  0  0  0  0  0  0  0  0
  190.8890  176.8630  144.4010 C   0  0  1  0  0  3  0  0  0  0  0  0
  190.2610  178.9250  146.3910 O   0  0  0  0  0  1  0  0  0  0  0  0
  190.4960  176.5460  146.6110 C   0  0  1  0  0  3  0  0  0  0  0  0
  191.2560  176.8170  147.8720 C   0  0  0  0  0  3  0  0  0  0  0  0
  192.3580  176.3210  148.0400 O   0  0  0  0  0  0  0  0  0  0  0  0
  190.9820  175.9590  143.1760 C   0  0  0  0  0  2  0  0  0  0  0  0
  191.2410  176.7610  141.9540 C   0  0  0  0  0  0  0  0  0  0  0  0
  192.0240  177.7410  142.0070 O   0  0  0  0  0  1  0  0  0  0  0  0
  190.6020  176.4480  140.7650 O   0  0  0  0  0  0  0  0  0  0  0  0
  186.2390  178.4300  137.8780 C   0  0  0  0  0  2  0  0  0  0  0  0
  187.4670  177.7980  137.2400 C   0  0  0  0  0  2  0  0  0  0  0  0
  187.2560  176.4310  137.0510 O   0  0  0  0  0  0  0  0  0  0  0  0
  188.4170  175.9760  136.4110 C   0  0  1  0  0  3  0  0  0  0  0  0
  191.3590  176.2910  136.3740 C   0  0  0  0  0  2  0  0  0  0  0  0
  192.9860  174.7720  137.3700 N   0  0  0  0  0  0  0  0  0  0  0  0
  190.6720  175.2500  137.1990 C   0  0  1  0  0  0  0  0  0  0  0  0
  189.2060  175.0750  137.3610 C   0  0  1  0  0  3  0  0  0  0  0  0
  191.6630  174.2650  137.7380 C   0  0  0  0  0  2  0  0  0  0  0  0
  192.7740  175.7430  136.2840 C   0  0  0  0  0  2  0  0  0  0  0  0
  189.9660  175.8590  138.2510 O   0  0  0  0  0  0  0  0  0  0  0  0
  193.7720  173.6580  136.8390 C   0  0  0  0  0  3  0  0  0  0  0  0
  194.6230  173.1550  137.8280 O   0  0  0  0  0  1  0  0  0  0  0  0
  192.9240  172.6310  136.4100 O   0  0  0  0  0  1  0  0  0  0  0  0
  189.2430  175.0500  134.3540 O   0  0  0  0  0  1  0  0  0  0  0  0
  188.0770  175.2580  135.0970 C   0  0  0  0  0  0  0  0  0  0  0  0
  187.1890  176.0370  134.3540 O   0  0  0  0  0  1  0  0  0  0  0  0
  187.4130  173.9190  135.4180 C   0  0  0  0  0  2  0  0  0  0  0  0
  185.9060  173.9250  135.1870 C   0  0  0  0  0  2  0  0  0  0  0  0
  185.4760  171.6010  134.8990 O   0  0  0  0  0  0  0  0  0  0  0  0
  184.1950  172.1900  134.8920 C   0  0  2  0  0  3  0  0  0  0  0  0
  185.2770  172.6810  135.7820 C   0  0  2  0  0  3  0  0  0  0  0  0
  182.9310  171.6780  137.0830 C   0  0  0  0  0  1  0  0  0  0  0  0
  183.6400  169.8760  135.5670 C   0  0  0  0  0  1  0  0  0  0  0  0
  181.8330  171.3900  134.8910 C   0  0  0  0  0  1  0  0  0  0  0  0
  183.1590  171.3090  135.6200 C   0  0  0  0  0  0  0  0  0  0  0  0
  1  4  1  0  0  0  0
  2  6  1  0  0  0  0
  2  7  1  1  0  0  0
  3  2  1  0  0  0  0
  4  6  1  0  0  0  0
  5 30  1  6  0  0  0
  5  1  1  0  0  0  0
  5  3  1  0  0  0  0
  7  8  1  0  0  0  0
  8  9  1  0  0  0  0
  9 10  1  0  0  0  0
 10 11  1  0  0  0  0
 11 12  1  0  0  0  0
 13 14  1  0  0  0  0
 13 12  1  0  0  0  0
 14 15  2  0  0  0  0
 16 19  1  0  0  0  0
 17 22  1  1  0  0  0
 17 23  1  0  0  0  0
 17 14  1  0  0  0  0
 19 18  1  6  0  0  0
 19 17  1  0  0  0  0
 20 23  1  0  0  0  0
 21 26  1  6  0  0  0
 21 19  1  0  0  0  0
 21 20  1  0  0  0  0
 23 24  1  1  0  0  0
 24 25  2  0  0  0  0
 27 28  1  0  0  0  0
 27 26  1  0  0  0  0
 29 27  2  0  0  0  0
 31 30  1  0  0  0  0
 32 31  1  0  0  0  0
 33 32  1  1  0  0  0
 35 38  1  0  0  0  0
 36 34  1  6  0  0  0
 36 37  1  0  0  0  0
 36 38  1  0  0  0  0
 36 40  1  0  0  0  0
 37 33  1  6  0  0  0
 37 40  1  0  0  0  0
 39 34  1  0  0  0  0
 39 35  1  0  0  0  0
 41 35  1  0  0  0  0
 41 42  1  0  0  0  0
 43 41  1  0  0  0  0
 44 45  1  0  0  0  0
 45 47  1  0  0  0  0
 45 33  1  0  0  0  0
 46 45  1  0  0  0  0
 48 47  1  0  0  0  0
 49 51  1  0  0  0  0
 50 49  1  0  0  0  0
 50 55  1  1  0  0  0
 50 51  1  0  0  0  0
 51 48  1  6  0  0  0
 53 55  1  0  0  0  0
 54 55  1  0  0  0  0
 55 52  1  0  0  0  0
M  END
>  <MODEL>
7

>  <REMARK>
 VINA RESULT:      -5.2      2.618      6.295
  Name = 
  22 active torsions:
  status: ('A' for Active; 'I' for Inactive)
    1  A    between atoms: C_1  and  C_53
    2  A    between atoms: C_2  and  C_28
    3  A    between atoms: C_2  and  C_44
    4  A    between atoms: C_6  and  C_20
    5  A    between atoms: N_7  and  C_22
    6  A    between atoms: C_8  and  C_22
    7  A    between atoms: C_8  and  C_35
    8  A    between atoms: C_10  and  N_32
    9  A    between atoms: C_11  and  C_29
   10  A    between atoms: C_16  and  C_17
   11  A    between atoms: C_16  and  C_26
   12  A    between atoms: C_17  and  C_33
   13  A    between atoms: C_19  and  C_40
   14  A    between atoms: C_26  and  C_45
   15  A    between atoms: C_27  and  C_54
   16  A    between atoms: C_28  and  O_49
   17  A    between atoms: C_29  and  C_38
   18  A    between atoms: C_33  and  C_36
   19  A    between atoms: C_33  and  O_49
   20  A    between atoms: C_35  and  C_43
   21  A    between atoms: C_43  and  C_51
   22  A    between atoms: C_51  and  C_54
                            x       y       z     vdW  Elec       q    Type
                         _______ _______ _______ _____ _____    ______ ____

>  <TORSDO>
F 22

$$$$
=
 OpenBabel10272401293D

 55 59  0  0  1  0  0  0  0  0999 V2000
  187.1310  177.6690  138.2790 C   0  0  0  0  0  2  0  0  0  0  0  0
  188.5830  177.5670  135.9310 C   0  0  2  0  0  3  0  0  0  0  0  0
  189.2410  178.1000  137.0800 O   0  0  0  0  0  0  0  0  0  0  0  0
  186.6280  177.1480  136.9380 C   0  0  0  0  0  2  0  0  0  0  0  0
  188.6640  177.6450  138.2930 C   0  0  1  0  0  3  0  0  0  0  0  0
  187.6730  176.5310  136.2310 O   0  0  0  0  0  0  0  0  0  0  0  0
  189.6060  177.0780  134.9210 C   0  0  0  0  0  2  0  0  0  0  0  0
  189.4950  175.5720  134.7550 C   0  0  0  0  0  2  0  0  0  0  0  0
  190.6460  174.8770  135.4580 C   0  0  0  0  0  2  0  0  0  0  0  0
  191.8130  175.8380  135.6150 C   0  0  0  0  0  2  0  0  0  0  0  0
  192.1990  175.9930  137.0780 C   0  0  0  0  0  2  0  0  0  0  0  0
  192.4950  174.6420  137.7090 C   0  0  0  0  0  2  0  0  0  0  0  0
  193.8550  174.2340  137.3890 N   0  0  0  0  0  2  0  0  0  0  0  0
  194.1320  173.1280  136.5260 C   0  0  0  0  0  0  0  0  0  0  0  0
  193.1830  172.4680  136.0230 O   0  0  0  0  0  0  0  0  0  0  0  0
  195.6680  170.4910  135.4350 O   0  0  0  0  0  1  0  0  0  0  0  0
  195.5660  172.7840  136.1920 C   0  0  1  0  0  0  0  0  0  0  0  0
  195.2850  170.8080  137.7750 C   0  0  0  0  0  1  0  0  0  0  0  0
  195.9550  171.3450  136.5040 C   0  0  1  0  0  0  0  0  0  0  0  0
  197.7590  172.7900  137.1510 O   0  0  0  0  0  0  0  0  0  0  0  0
  197.4660  171.4940  136.6760 C   0  0  1  0  0  3  0  0  0  0  0  0
  195.8000  173.0560  134.8340 O   0  0  0  0  0  1  0  0  0  0  0  0
  196.5720  173.5440  137.0540 C   0  0  1  0  0  3  0  0  0  0  0  0
  196.8560  174.9300  136.5650 C   0  0  0  0  0  3  0  0  0  0  0  0
  197.8550  175.5190  136.9440 O   0  0  0  0  0  0  0  0  0  0  0  0
  198.1250  170.4240  137.5390 C   0  0  0  0  0  2  0  0  0  0  0  0
  198.6220  169.3080  136.6960 C   0  0  0  0  0  0  0  0  0  0  0  0
  198.8210  168.1800  137.2110 O   0  0  0  0  0  1  0  0  0  0  0  0
  198.8910  169.5140  135.3530 O   0  0  0  0  0  0  0  0  0  0  0  0
  189.2120  178.4340  139.4710 C   0  0  0  0  0  2  0  0  0  0  0  0
  188.9610  177.7040  140.7820 C   0  0  0  0  0  2  0  0  0  0  0  0
  188.7290  178.6260  141.8040 O   0  0  0  0  0  0  0  0  0  0  0  0
  188.3640  177.8460  142.9110 C   0  0  1  0  0  3  0  0  0  0  0  0
  190.7510  176.2410  143.6020 C   0  0  0  0  0  2  0  0  0  0  0  0
  191.9980  176.3370  145.6950 N   0  0  0  0  0  0  0  0  0  0  0  0
  190.2730  177.3770  144.4490 C   0  0  1  0  0  0  0  0  0  0  0  0
  189.1510  178.3000  144.1400 C   0  0  1  0  0  3  0  0  0  0  0  0
  190.9760  177.3830  145.7710 C   0  0  0  0  0  2  0  0  0  0  0  0
  191.6150  175.4580  144.5780 C   0  0  0  0  0  2  0  0  0  0  0  0
  190.4800  178.5960  143.7800 O   0  0  0  0  0  0  0  0  0  0  0  0
  191.9440  175.5530  146.9300 C   0  0  0  0  0  3  0  0  0  0  0  0
  193.1740  175.6110  147.5900 O   0  0  0  0  0  1  0  0  0  0  0  0
  190.9540  176.0590  147.7790 O   0  0  0  0  0  1  0  0  0  0  0  0
  186.5870  178.5170  144.3830 O   0  0  0  0  0  1  0  0  0  0  0  0
  186.8470  177.9080  143.1520 C   0  0  0  0  0  0  0  0  0  0  0  0
  186.3210  176.6160  143.1550 O   0  0  0  0  0  1  0  0  0  0  0  0
  186.1960  178.7060  142.0230 C   0  0  0  0  0  2  0  0  0  0  0  0
  184.6840  178.8300  142.1700 C   0  0  0  0  0  2  0  0  0  0  0  0
  183.9630  178.8060  139.9010 O   0  0  0  0  0  0  0  0  0  0  0  0
  182.7640  178.7660  140.6410 C   0  0  2  0  0  3  0  0  0  0  0  0
  183.9810  178.0400  141.0830 C   0  0  2  0  0  3  0  0  0  0  0  0
  182.2350  176.4680  139.5930 C   0  0  0  0  0  1  0  0  0  0  0  0
  181.2220  178.5330  138.7210 C   0  0  0  0  0  1  0  0  0  0  0  0
  180.5370  177.6780  140.9150 C   0  0  0  0  0  1  0  0  0  0  0  0
  181.7160  177.8500  139.9780 C   0  0  0  0  0  0  0  0  0  0  0  0
  1  5  1  0  0  0  0
  2  7  1  6  0  0  0
  2  6  1  0  0  0  0
  2  3  1  0  0  0  0
  3  5  1  0  0  0  0
  4  1  1  0  0  0  0
  5 30  1  1  0  0  0
  6  4  1  0  0  0  0
  8  7  1  0  0  0  0
  8  9  1  0  0  0  0
  9 10  1  0  0  0  0
 10 11  1  0  0  0  0
 11 12  1  0  0  0  0
 13 12  1  0  0  0  0
 14 13  1  0  0  0  0
 15 14  2  0  0  0  0
 16 19  1  0  0  0  0
 17 22  1  6  0  0  0
 17 19  1  0  0  0  0
 17 14  1  0  0  0  0
 17 23  1  0  0  0  0
 19 21  1  0  0  0  0
 19 18  1  1  0  0  0
 21 20  1  0  0  0  0
 21 26  1  1  0  0  0
 23 24  1  6  0  0  0
 23 20  1  0  0  0  0
 24 25  2  0  0  0  0
 27 28  1  0  0  0  0
 27 26  1  0  0  0  0
 29 27  2  0  0  0  0
 30 31  1  0  0  0  0
 31 32  1  0  0  0  0
 33 32  1  6  0  0  0
 33 45  1  0  0  0  0
 34 39  1  0  0  0  0
 35 38  1  0  0  0  0
 35 41  1  0  0  0  0
 36 34  1  6  0  0  0
 36 38  1  0  0  0  0
 37 33  1  6  0  0  0
 37 36  1  0  0  0  0
 39 35  1  0  0  0  0
 40 37  1  0  0  0  0
 40 36  1  0  0  0  0
 41 42  1  0  0  0  0
 41 43  1  0  0  0  0
 45 46  1  0  0  0  0
 45 44  1  0  0  0  0
 47 48  1  0  0  0  0
 47 45  1  0  0  0  0
 49 50  1  0  0  0  0
 49 51  1  0  0  0  0
 50 55  1  6  0  0  0
 50 51  1  0  0  0  0
 51 48  1  1  0  0  0
 52 55  1  0  0  0  0
 53 55  1  0  0  0  0
 55 54  1  0  0  0  0
M  END
>  <MODEL>
8

>  <REMARK>
 VINA RESULT:      -5.1      3.293     11.160
  Name = 
  22 active torsions:
  status: ('A' for Active; 'I' for Inactive)
    1  A    between atoms: C_1  and  C_53
    2  A    between atoms: C_2  and  C_28
    3  A    between atoms: C_2  and  C_44
    4  A    between atoms: C_6  and  C_20
    5  A    between atoms: N_7  and  C_22
    6  A    between atoms: C_8  and  C_22
    7  A    between atoms: C_8  and  C_35
    8  A    between atoms: C_10  and  N_32
    9  A    between atoms: C_11  and  C_29
   10  A    between atoms: C_16  and  C_17
   11  A    between atoms: C_16  and  C_26
   12  A    between atoms: C_17  and  C_33
   13  A    between atoms: C_19  and  C_40
   14  A    between atoms: C_26  and  C_45
   15  A    between atoms: C_27  and  C_54
   16  A    between atoms: C_28  and  O_49
   17  A    between atoms: C_29  and  C_38
   18  A    between atoms: C_33  and  C_36
   19  A    between atoms: C_33  and  O_49
   20  A    between atoms: C_35  and  C_43
   21  A    between atoms: C_43  and  C_51
   22  A    between atoms: C_51  and  C_54
                            x       y       z     vdW  Elec       q    Type
                         _______ _______ _______ _____ _____    ______ ____

>  <TORSDO>
F 22

$$$$
=
 OpenBabel10272401293D

 55 59  0  0  1  0  0  0  0  0999 V2000
  193.3670  176.6190  138.0810 C   0  0  0  0  0  2  0  0  0  0  0  0
  191.9860  174.3900  137.2120 C   0  0  2  0  0  3  0  0  0  0  0  0
  191.5150  175.0250  138.4000 O   0  0  0  0  0  0  0  0  0  0  0  0
  193.6980  175.7860  136.8480 C   0  0  0  0  0  2  0  0  0  0  0  0
  191.9040  176.3870  138.4760 C   0  0  1  0  0  3  0  0  0  0  0  0
  192.5210  175.2890  136.2660 O   0  0  0  0  0  0  0  0  0  0  0  0
  190.8740  173.5730  136.5780 C   0  0  0  0  0  2  0  0  0  0  0  0
  189.6510  174.4470  136.3520 C   0  0  0  0  0  2  0  0  0  0  0  0
  189.5020  174.7750  134.8780 C   0  0  0  0  0  2  0  0  0  0  0  0
  189.1770  176.2500  134.7060 C   0  0  0  0  0  2  0  0  0  0  0  0
  188.6740  176.8540  136.0080 C   0  0  0  0  0  2  0  0  0  0  0  0
  187.3290  177.5320  135.8080 C   0  0  0  0  0  2  0  0  0  0  0  0
  186.2730  176.5310  135.7490 N   0  0  0  0  0  2  0  0  0  0  0  0
  185.7680  175.8900  136.9230 C   0  0  0  0  0  0  0  0  0  0  0  0
  186.2460  176.1800  138.0530 O   0  0  0  0  0  0  0  0  0  0  0  0
  185.2450  172.8640  137.9580 O   0  0  0  0  0  1  0  0  0  0  0  0
  184.6360  174.8960  136.8010 C   0  0  1  0  0  0  0  0  0  0  0  0
  186.3790  173.2760  135.8920 C   0  0  0  0  0  1  0  0  0  0  0  0
  185.0840  173.4450  136.6970 C   0  0  1  0  0  0  0  0  0  0  0  0
  183.2770  173.8060  135.1580 O   0  0  0  0  0  0  0  0  0  0  0  0
  183.8830  172.8310  135.9790 C   0  0  1  0  0  3  0  0  0  0  0  0
  183.7690  175.0490  137.8960 O   0  0  0  0  0  1  0  0  0  0  0  0
  183.8550  175.0470  135.4960 C   0  0  1  0  0  3  0  0  0  0  0  0
  182.8200  176.1270  135.5370 C   0  0  0  0  0  3  0  0  0  0  0  0
  183.1510  177.2950  135.4250 O   0  0  0  0  0  0  0  0  0  0  0  0
  184.1810  171.5560  135.1970 C   0  0  0  0  0  2  0  0  0  0  0  0
  183.2370  170.4760  135.5810 C   0  0  0  0  0  0  0  0  0  0  0  0
  182.0150  170.5970  135.3240 O   0  0  0  0  0  0  0  0  0  0  0  0
  183.6980  169.3500  136.2440 O   0  0  0  0  0  1  0  0  0  0  0  0
  191.6160  176.9450  139.8610 C   0  0  0  0  0  2  0  0  0  0  0  0
  190.2960  177.7000  139.8820 C   0  0  0  0  0  2  0  0  0  0  0  0
  189.2420  176.8110  140.0990 O   0  0  0  0  0  0  0  0  0  0  0  0
  188.5010  177.3840  141.1420 C   0  0  1  0  0  3  0  0  0  0  0  0
  187.6430  176.5600  143.8510 C   0  0  0  0  0  2  0  0  0  0  0  0
  188.5870  177.3340  145.9620 N   0  0  0  0  0  0  0  0  0  0  0  0
  188.8720  177.3770  143.6110 C   0  0  1  0  0  0  0  0  0  0  0  0
  189.4380  177.7570  142.2910 C   0  0  1  0  0  3  0  0  0  0  0  0
  189.4010  177.9270  144.8990 C   0  0  0  0  0  2  0  0  0  0  0  0
  187.3600  176.8360  145.3190 C   0  0  0  0  0  2  0  0  0  0  0  0
  189.8520  176.5960  142.9730 O   0  0  0  0  0  0  0  0  0  0  0  0
  188.2120  178.3960  146.8970 C   0  0  0  0  0  3  0  0  0  0  0  0
  186.8570  178.2910  147.2250 O   0  0  0  0  0  1  0  0  0  0  0  0
  188.9680  178.2950  148.0700 O   0  0  0  0  0  1  0  0  0  0  0  0
  187.7960  178.6930  139.2550 O   0  0  0  0  0  1  0  0  0  0  0  0
  187.6980  178.5960  140.6460 C   0  0  0  0  0  0  0  0  0  0  0  0
  188.2020  179.7610  141.2270 O   0  0  0  0  0  1  0  0  0  0  0  0
  186.2360  178.4280  141.0590 C   0  0  0  0  0  2  0  0  0  0  0  0
  185.2660  179.1720  140.1490 C   0  0  0  0  0  2  0  0  0  0  0  0
  183.7950  178.3110  138.4860 O   0  0  0  0  0  0  0  0  0  0  0  0
  182.9750  179.1530  139.2660 C   0  0  2  0  0  3  0  0  0  0  0  0
  184.0430  178.3190  139.8730 C   0  0  2  0  0  3  0  0  0  0  0  0
  181.5310  177.1860  140.1050 C   0  0  0  0  0  1  0  0  0  0  0  0
  180.9220  178.4450  138.0820 C   0  0  0  0  0  1  0  0  0  0  0  0
  180.7270  179.5130  140.2810 C   0  0  0  0  0  1  0  0  0  0  0  0
  181.5630  178.5630  139.4480 C   0  0  0  0  0  0  0  0  0  0  0  0
  1  5  1  0  0  0  0
  2  7  1  6  0  0  0
  2  3  1  0  0  0  0
  3  5  1  0  0  0  0
  4  1  1  0  0  0  0
  5 30  1  1  0  0  0
  6  4  1  0  0  0  0
  6  2  1  0  0  0  0
  8  7  1  0  0  0  0
  9  8  1  0  0  0  0
 10  9  1  0  0  0  0
 10 11  1  0  0  0  0
 12 11  1  0  0  0  0
 13 12  1  0  0  0  0
 13 14  1  0  0  0  0
 14 15  2  0  0  0  0
 17 14  1  0  0  0  0
 17 22  1  1  0  0  0
 19 18  1  6  0  0  0
 19 17  1  0  0  0  0
 19 16  1  0  0  0  0
 20 23  1  0  0  0  0
 20 21  1  0  0  0  0
 21 26  1  6  0  0  0
 21 19  1  0  0  0  0
 23 24  1  1  0  0  0
 23 17  1  0  0  0  0
 25 24  2  0  0  0  0
 26 27  1  0  0  0  0
 27 29  1  0  0  0  0
 28 27  2  0  0  0  0
 30 31  1  0  0  0  0
 31 32  1  0  0  0  0
 33 32  1  6  0  0  0
 34 39  1  0  0  0  0
 35 41  1  0  0  0  0
 36 34  1  1  0  0  0
 36 38  1  0  0  0  0
 37 33  1  6  0  0  0
 37 40  1  0  0  0  0
 37 36  1  0  0  0  0
 38 35  1  0  0  0  0
 39 35  1  0  0  0  0
 40 36  1  0  0  0  0
 41 42  1  0  0  0  0
 41 43  1  0  0  0  0
 44 45  1  0  0  0  0
 45 47  1  0  0  0  0
 45 33  1  0  0  0  0
 45 46  1  0  0  0  0
 48 47  1  0  0  0  0
 49 50  1  0  0  0  0
 49 51  1  0  0  0  0
 50 55  1  1  0  0  0
 50 51  1  0  0  0  0
 51 48  1  6  0  0  0
 53 55  1  0  0  0  0
 55 52  1  0  0  0  0
 55 54  1  0  0  0  0
M  END
>  <MODEL>
9

>  <REMARK>
 VINA RESULT:      -5.0      2.427      7.739
  Name = 
  22 active torsions:
  status: ('A' for Active; 'I' for Inactive)
    1  A    between atoms: C_1  and  C_53
    2  A    between atoms: C_2  and  C_28
    3  A    between atoms: C_2  and  C_44
    4  A    between atoms: C_6  and  C_20
    5  A    between atoms: N_7  and  C_22
    6  A    between atoms: C_8  and  C_22
    7  A    between atoms: C_8  and  C_35
    8  A    between atoms: C_10  and  N_32
    9  A    between atoms: C_11  and  C_29
   10  A    between atoms: C_16  and  C_17
   11  A    between atoms: C_16  and  C_26
   12  A    between atoms: C_17  and  C_33
   13  A    between atoms: C_19  and  C_40
   14  A    between atoms: C_26  and  C_45
   15  A    between atoms: C_27  and  C_54
   16  A    between atoms: C_28  and  O_49
   17  A    between atoms: C_29  and  C_38
   18  A    between atoms: C_33  and  C_36
   19  A    between atoms: C_33  and  O_49
   20  A    between atoms: C_35  and  C_43
   21  A    between atoms: C_43  and  C_51
   22  A    between atoms: C_51  and  C_54
                            x       y       z     vdW  Elec       q    Type
                         _______ _______ _______ _____ _____    ______ ____

>  <TORSDO>
F 22

$$$$
