=
 OpenBabel10272415043D

 37 39  0  0  1  0  0  0  0  0999 V2000
  188.3670  177.3090  136.6220 C   0  0  0  0  0  2  0  0  0  0  0  0
  187.5430  175.8800  134.7970 C   0  0  0  0  0  1  0  0  0  0  0  0
  189.7810  176.2560  138.3850 C   0  0  0  0  0  0  0  0  0  0  0  0
  187.8630  172.9250  137.6190 O   0  0  0  0  0  0  0  0  0  0  0  0
  190.3370  176.2430  139.6680 C   0  0  0  0  0  3  0  0  0  0  0  0
  187.8260  175.9130  136.2870 C   0  0  1  0  0  0  0  0  0  0  0  0
  188.3390  173.4690  136.5900 C   0  0  0  0  0  0  0  0  0  0  0  0
  188.7690  178.4100  138.8430 C   0  0  0  0  0  3  0  0  0  0  0  0
  188.7790  174.8350  136.6550 N   0  0  0  0  0  0  0  0  0  0  0  0
  186.6230  175.7270  136.9730 O   0  0  0  0  0  1  0  0  0  0  0  0
  188.9810  177.3310  137.9810 C   0  0  0  0  0  0  0  0  0  0  0  0
  190.0010  175.1070  137.4410 C   0  0  1  0  0  3  0  0  0  0  0  0
  190.1230  177.3180  140.5430 C   0  0  0  0  0  0  0  0  0  0  0  0
  189.3400  178.4030  140.1190 C   0  0  0  0  0  3  0  0  0  0  0  0
  191.9500  177.0790  142.0310 O   0  0  0  0  0  0  0  0  0  0  0  0
  190.7180  177.3110  141.8900 C   0  0  0  0  0  0  0  0  0  0  0  0
  189.8910  177.5590  143.0360 N   0  0  0  0  0  2  0  0  0  0  0  0
  190.3570  177.6420  144.3880 C   0  0  0  0  0  0  0  0  0  0  0  0
  191.5870  177.5860  144.6560 O   0  0  0  0  0  0  0  0  0  0  0  0
  187.9940  177.4140  145.0280 C   0  0  0  0  0  1  0  0  0  0  0  0
  189.3740  177.8380  145.4880 C   0  0  0  0  0  2  0  0  0  0  0  0
  188.4310  172.7280  135.4100 O   0  0  0  0  0  0  0  0  0  0  0  0
  188.1080  170.3960  135.8260 C   0  0  0  0  0  2  0  0  0  0  0  0
  187.5760  171.6310  135.1290 C   0  0  0  0  0  3  0  0  0  0  0  0
  188.3480  170.5880  134.3460 C   0  0  0  0  0  2  0  0  0  0  0  0
  191.2890  175.1680  136.5550 C   0  0  1  0  0  0  0  0  0  0  0  0
  191.0890  176.5340  134.3660 C   0  0  0  0  0  1  0  0  0  0  0  0
  190.9710  175.1710  135.0390 C   0  0  0  0  0  2  0  0  0  0  0  0
  192.0250  176.4820  136.8860 C   0  0  0  0  0  2  0  0  0  0  0  0
  193.5200  176.3610  136.9910 C   0  0  0  0  0  0  0  0  0  0  0  0
  194.0530  176.2170  138.0800 O   0  0  0  0  0  0  0  0  0  0  0  0
  194.9890  177.7360  135.7550 O   0  0  0  0  0  1  0  0  0  0  0  0
  194.3610  176.4910  135.7660 C   0  0  0  0  0  2  0  0  0  0  0  0
  192.2220  173.9860  136.9060 C   0  0  0  0  0  2  0  0  0  0  0  0
  192.5460  173.0840  135.7530 C   0  0  0  0  0  0  0  0  0  0  0  0
  191.7190  172.2110  135.3870 O   0  0  0  0  0  0  0  0  0  0  0  0
  193.7880  173.2120  135.0720 N   0  0  0  0  0  1  0  0  0  0  0  0
  1 11  1  0  0  0  0
  3  5  1  0  0  0  0
  5 13  2  0  0  0  0
  6  2  1  6  0  0  0
  6  1  1  0  0  0  0
  6  9  1  0  0  0  0
  6 10  1  0  0  0  0
  7  9  1  0  0  0  0
  7  4  2  0  0  0  0
  8 14  2  0  0  0  0
  9 12  1  0  0  0  0
 11  3  2  0  0  0  0
 11  8  1  0  0  0  0
 12 26  1  6  0  0  0
 12  3  1  0  0  0  0
 13 16  1  0  0  0  0
 14 13  1  0  0  0  0
 16 15  2  0  0  0  0
 16 17  1  0  0  0  0
 17 18  1  0  0  0  0
 18 19  2  0  0  0  0
 18 21  1  0  0  0  0
 20 21  1  0  0  0  0
 22  7  1  0  0  0  0
 24 22  1  0  0  0  0
 24 23  1  0  0  0  0
 25 24  1  0  0  0  0
 25 23  1  0  0  0  0
 26 28  1  6  0  0  0
 26 29  1  0  0  0  0
 26 34  1  0  0  0  0
 27 28  1  0  0  0  0
 29 30  1  0  0  0  0
 30 31  2  0  0  0  0
 32 33  1  0  0  0  0
 33 30  1  0  0  0  0
 35 34  1  0  0  0  0
 36 35  2  0  0  0  0
 37 35  1  0  0  0  0
M  END
>  <MODEL>
1

>  <REMARK>
 VINA RESULT:      -5.5      0.000      0.000
  Name = 
  11 active torsions:
  status: ('A' for Active; 'I' for Inactive)
    1  A    between atoms: C_1  and  C_5
    2  A    between atoms: C_1  and  C_36
    3  A    between atoms: C_5  and  C_23
    4  A    between atoms: C_6  and  C_31
    5  A    between atoms: C_11  and  C_33
    6  A    between atoms: C_18  and  C_19
    7  A    between atoms: C_20  and  O_32
    8  A    between atoms: C_21  and  O_32
    9  A    between atoms: C_27  and  C_36
   10  A    between atoms: C_29  and  C_36
   11  A    between atoms: C_33  and  C_36
                            x       y       z     vdW  Elec       q    Type
                         _______ _______ _______ _____ _____    ______ ____

>  <TORSDO>
F 11

$$$$
=
 OpenBabel10272415043D

 37 39  0  0  1  0  0  0  0  0999 V2000
  182.1770  177.9140  136.2060 C   0  0  0  0  0  2  0  0  0  0  0  0
  182.0120  176.3120  134.3460 C   0  0  0  0  0  1  0  0  0  0  0  0
  183.4270  177.2140  138.2460 C   0  0  0  0  0  0  0  0  0  0  0  0
  182.4040  173.5400  137.3390 O   0  0  0  0  0  0  0  0  0  0  0  0
  183.7280  177.3400  139.6050 C   0  0  0  0  0  3  0  0  0  0  0  0
  182.0040  176.4290  135.8580 C   0  0  1  0  0  0  0  0  0  0  0  0
  182.9400  174.1550  136.3820 C   0  0  0  0  0  0  0  0  0  0  0  0
  181.9300  179.1130  138.3980 C   0  0  0  0  0  3  0  0  0  0  0  0
  183.0720  175.5830  136.4480 N   0  0  0  0  0  0  0  0  0  0  0  0
  180.7580  176.0060  136.3310 O   0  0  0  0  0  1  0  0  0  0  0  0
  182.5130  178.0880  137.6480 C   0  0  0  0  0  0  0  0  0  0  0  0
  184.0470  176.1200  137.4200 C   0  0  1  0  0  3  0  0  0  0  0  0
  183.1410  178.3610  140.3680 C   0  0  0  0  0  0  0  0  0  0  0  0
  182.2460  179.2490  139.7530 C   0  0  0  0  0  3  0  0  0  0  0  0
  182.6060  178.9630  142.5950 O   0  0  0  0  0  0  0  0  0  0  0  0
  183.4680  178.5030  141.7970 C   0  0  0  0  0  0  0  0  0  0  0  0
  184.7680  178.1260  142.2710 N   0  0  0  0  0  2  0  0  0  0  0  0
  185.1880  178.1550  143.6410 C   0  0  0  0  0  0  0  0  0  0  0  0
  184.3790  178.4440  144.5630 O   0  0  0  0  0  0  0  0  0  0  0  0
  186.7380  177.6650  145.4850 C   0  0  0  0  0  1  0  0  0  0  0  0
  186.5920  177.7990  143.9820 C   0  0  0  0  0  2  0  0  0  0  0  0
  183.3970  173.4290  135.2800 O   0  0  0  0  0  0  0  0  0  0  0  0
  183.9390  171.1660  135.8280 C   0  0  0  0  0  2  0  0  0  0  0  0
  183.0210  172.0810  135.0440 C   0  0  0  0  0  3  0  0  0  0  0  0
  184.1590  171.3640  134.3460 C   0  0  0  0  0  2  0  0  0  0  0  0
  185.4360  176.4360  136.7730 C   0  0  1  0  0  0  0  0  0  0  0  0
  185.7530  177.5440  134.4560 C   0  0  0  0  0  1  0  0  0  0  0  0
  185.4280  176.2730  135.2330 C   0  0  0  0  0  2  0  0  0  0  0  0
  185.7780  177.9050  137.0910 C   0  0  0  0  0  2  0  0  0  0  0  0
  187.0830  178.1100  137.8100 C   0  0  0  0  0  0  0  0  0  0  0  0
  187.1160  178.1550  139.0300 O   0  0  0  0  0  0  0  0  0  0  0  0
  188.8380  179.6040  137.2960 O   0  0  0  0  0  1  0  0  0  0  0  0
  188.3330  178.3320  137.0280 C   0  0  0  0  0  2  0  0  0  0  0  0
  186.5240  175.5360  137.4040 C   0  0  0  0  0  2  0  0  0  0  0  0
  186.4430  174.0920  137.0090 C   0  0  0  0  0  0  0  0  0  0  0  0
  186.8480  173.7270  135.8750 O   0  0  0  0  0  0  0  0  0  0  0  0
  185.9100  173.1310  137.9120 N   0  0  0  0  0  1  0  0  0  0  0  0
  1 11  1  0  0  0  0
  3  5  1  0  0  0  0
  5 13  2  0  0  0  0
  6  2  1  6  0  0  0
  6  1  1  0  0  0  0
  6 10  1  0  0  0  0
  6  9  1  0  0  0  0
  7  9  1  0  0  0  0
  7  4  2  0  0  0  0
  8 14  2  0  0  0  0
  9 12  1  0  0  0  0
 11  3  2  0  0  0  0
 11  8  1  0  0  0  0
 12 26  1  6  0  0  0
 12  3  1  0  0  0  0
 13 16  1  0  0  0  0
 14 13  1  0  0  0  0
 16 17  1  0  0  0  0
 16 15  2  0  0  0  0
 17 18  1  0  0  0  0
 18 21  1  0  0  0  0
 18 19  2  0  0  0  0
 21 20  1  0  0  0  0
 22  7  1  0  0  0  0
 24 22  1  0  0  0  0
 24 23  1  0  0  0  0
 25 24  1  0  0  0  0
 25 23  1  0  0  0  0
 26 28  1  6  0  0  0
 26 29  1  0  0  0  0
 26 34  1  0  0  0  0
 27 28  1  0  0  0  0
 29 30  1  0  0  0  0
 30 31  2  0  0  0  0
 33 32  1  0  0  0  0
 33 30  1  0  0  0  0
 35 34  1  0  0  0  0
 35 37  1  0  0  0  0
 36 35  2  0  0  0  0
M  END
>  <MODEL>
2

>  <REMARK>
 VINA RESULT:      -5.5      4.586      6.121
  Name = 
  11 active torsions:
  status: ('A' for Active; 'I' for Inactive)
    1  A    between atoms: C_1  and  C_5
    2  A    between atoms: C_1  and  C_36
    3  A    between atoms: C_5  and  C_23
    4  A    between atoms: C_6  and  C_31
    5  A    between atoms: C_11  and  C_33
    6  A    between atoms: C_18  and  C_19
    7  A    between atoms: C_20  and  O_32
    8  A    between atoms: C_21  and  O_32
    9  A    between atoms: C_27  and  C_36
   10  A    between atoms: C_29  and  C_36
   11  A    between atoms: C_33  and  C_36
                            x       y       z     vdW  Elec       q    Type
                         _______ _______ _______ _____ _____    ______ ____

>  <TORSDO>
F 11

$$$$
=
 OpenBabel10272415043D

 37 39  0  0  1  0  0  0  0  0999 V2000
  193.2940  171.2670  134.6820 C   0  0  0  0  0  2  0  0  0  0  0  0
  195.2000  169.7160  134.8040 C   0  0  0  0  0  1  0  0  0  0  0  0
  193.1140  173.0390  136.4260 C   0  0  0  0  0  0  0  0  0  0  0  0
  195.0190  170.5760  138.8070 O   0  0  0  0  0  0  0  0  0  0  0  0
  192.3750  173.9800  137.1490 C   0  0  0  0  0  3  0  0  0  0  0  0
  194.1910  170.4760  135.6440 C   0  0  1  0  0  0  0  0  0  0  0  0
  195.6030  170.7510  137.7070 C   0  0  0  0  0  0  0  0  0  0  0  0
  191.1540  172.5120  135.1030 C   0  0  0  0  0  3  0  0  0  0  0  0
  194.8870  171.3540  136.6180 N   0  0  0  0  0  0  0  0  0  0  0  0
  193.3980  169.5530  136.3310 O   0  0  0  0  0  1  0  0  0  0  0  0
  192.4970  172.2920  135.4170 C   0  0  0  0  0  0  0  0  0  0  0  0
  194.5630  172.7910  136.7450 C   0  0  1  0  0  3  0  0  0  0  0  0
  191.0230  174.2020  136.8460 C   0  0  0  0  0  0  0  0  0  0  0  0
  190.4210  173.4650  135.8150 C   0  0  0  0  0  3  0  0  0  0  0  0
  189.1270  175.5860  137.1620 O   0  0  0  0  0  0  0  0  0  0  0  0
  190.2460  175.2020  137.5990 C   0  0  0  0  0  0  0  0  0  0  0  0
  190.7730  175.7410  138.8190 N   0  0  0  0  0  2  0  0  0  0  0  0
  190.0930  176.6670  139.6740 C   0  0  0  0  0  0  0  0  0  0  0  0
  188.9040  177.0150  139.4410 O   0  0  0  0  0  0  0  0  0  0  0  0
  190.3450  176.4270  142.1090 C   0  0  0  0  0  1  0  0  0  0  0  0
  190.7880  177.1960  140.8790 C   0  0  0  0  0  2  0  0  0  0  0  0
  196.9360  170.3560  137.5750 O   0  0  0  0  0  0  0  0  0  0  0  0
  198.8600  169.0370  138.0960 C   0  0  0  0  0  2  0  0  0  0  0  0
  197.3680  169.0290  137.8330 C   0  0  0  0  0  3  0  0  0  0  0  0
  198.3350  168.6030  136.7470 C   0  0  0  0  0  2  0  0  0  0  0  0
  195.6040  173.7120  136.0280 C   0  0  1  0  0  0  0  0  0  0  0  0
  198.0520  173.0210  135.5490 C   0  0  0  0  0  1  0  0  0  0  0  0
  196.5880  172.9180  135.1340 C   0  0  0  0  0  2  0  0  0  0  0  0
  194.8230  174.6860  135.1220 C   0  0  0  0  0  2  0  0  0  0  0  0
  195.0840  176.1430  135.3860 C   0  0  0  0  0  0  0  0  0  0  0  0
  194.3370  176.7830  136.1100 O   0  0  0  0  0  0  0  0  0  0  0  0
  196.4140  178.0900  135.2650 O   0  0  0  0  0  1  0  0  0  0  0  0
  196.2190  176.8280  134.7040 C   0  0  0  0  0  2  0  0  0  0  0  0
  196.3800  174.5400  137.0770 C   0  0  0  0  0  2  0  0  0  0  0  0
  195.8430  174.4390  138.4730 C   0  0  0  0  0  0  0  0  0  0  0  0
  196.2400  173.5200  139.2340 O   0  0  0  0  0  0  0  0  0  0  0  0
  194.8840  175.3790  138.9410 N   0  0  0  0  0  1  0  0  0  0  0  0
  1 11  1  0  0  0  0
  1  6  1  0  0  0  0
  3 12  1  0  0  0  0
  3  5  1  0  0  0  0
  6  2  1  6  0  0  0
  6 10  1  0  0  0  0
  6  9  1  0  0  0  0
  7  4  2  0  0  0  0
  8 11  1  0  0  0  0
  8 14  2  0  0  0  0
  9 12  1  0  0  0  0
  9  7  1  0  0  0  0
 11  3  2  0  0  0  0
 12 26  1  6  0  0  0
 13  5  2  0  0  0  0
 13 16  1  0  0  0  0
 14 13  1  0  0  0  0
 15 16  2  0  0  0  0
 16 17  1  0  0  0  0
 17 18  1  0  0  0  0
 18 21  1  0  0  0  0
 19 18  2  0  0  0  0
 21 20  1  0  0  0  0
 22  7  1  0  0  0  0
 22 24  1  0  0  0  0
 24 23  1  0  0  0  0
 25 24  1  0  0  0  0
 25 23  1  0  0  0  0
 26 29  1  6  0  0  0
 26 34  1  0  0  0  0
 28 27  1  0  0  0  0
 28 26  1  0  0  0  0
 29 30  1  0  0  0  0
 30 31  2  0  0  0  0
 33 32  1  0  0  0  0
 33 30  1  0  0  0  0
 34 35  1  0  0  0  0
 35 37  1  0  0  0  0
 35 36  2  0  0  0  0
M  END
>  <MODEL>
3

>  <REMARK>
 VINA RESULT:      -5.3      3.512      6.505
  Name = 
  11 active torsions:
  status: ('A' for Active; 'I' for Inactive)
    1  A    between atoms: C_1  and  C_5
    2  A    between atoms: C_1  and  C_36
    3  A    between atoms: C_5  and  C_23
    4  A    between atoms: C_6  and  C_31
    5  A    between atoms: C_11  and  C_33
    6  A    between atoms: C_18  and  C_19
    7  A    between atoms: C_20  and  O_32
    8  A    between atoms: C_21  and  O_32
    9  A    between atoms: C_27  and  C_36
   10  A    between atoms: C_29  and  C_36
   11  A    between atoms: C_33  and  C_36
                            x       y       z     vdW  Elec       q    Type
                         _______ _______ _______ _____ _____    ______ ____

>  <TORSDO>
F 11

$$$$
=
 OpenBabel10272415043D

 37 39  0  0  1  0  0  0  0  0999 V2000
  193.5490  171.3720  134.6310 C   0  0  0  0  0  2  0  0  0  0  0  0
  195.3300  169.6810  134.7720 C   0  0  0  0  0  1  0  0  0  0  0  0
  193.3090  172.9790  136.5210 C   0  0  0  0  0  0  0  0  0  0  0  0
  194.8050  170.1670  138.8070 O   0  0  0  0  0  0  0  0  0  0  0  0
  192.5630  173.8990  137.2640 C   0  0  0  0  0  3  0  0  0  0  0  0
  194.2930  170.4300  135.5870 C   0  0  1  0  0  0  0  0  0  0  0  0
  195.5060  170.4030  137.7890 C   0  0  0  0  0  0  0  0  0  0  0  0
  191.4620  172.7250  134.9740 C   0  0  0  0  0  3  0  0  0  0  0  0
  194.9420  171.1580  136.7060 N   0  0  0  0  0  0  0  0  0  0  0  0
  193.3770  169.5060  136.0990 O   0  0  0  0  0  1  0  0  0  0  0  0
  192.7500  172.3780  135.3880 C   0  0  0  0  0  0  0  0  0  0  0  0
  194.7000  172.5960  136.9470 C   0  0  1  0  0  3  0  0  0  0  0  0
  191.2650  174.2480  136.8600 C   0  0  0  0  0  0  0  0  0  0  0  0
  190.7230  173.6580  135.7080 C   0  0  0  0  0  3  0  0  0  0  0  0
  189.3210  175.5410  137.2570 O   0  0  0  0  0  0  0  0  0  0  0  0
  190.4830  175.2260  137.6350 C   0  0  0  0  0  0  0  0  0  0  0  0
  191.0510  175.8220  138.8090 N   0  0  0  0  0  2  0  0  0  0  0  0
  190.3740  176.7340  139.6820 C   0  0  0  0  0  0  0  0  0  0  0  0
  189.1580  177.0150  139.5120 O   0  0  0  0  0  0  0  0  0  0  0  0
  190.6720  176.6670  142.1220 C   0  0  0  0  0  1  0  0  0  0  0  0
  191.1110  177.3290  140.8310 C   0  0  0  0  0  2  0  0  0  0  0  0
  196.8170  169.9250  137.7430 O   0  0  0  0  0  0  0  0  0  0  0  0
  198.4460  168.3290  138.4600 C   0  0  0  0  0  2  0  0  0  0  0  0
  197.1260  168.5400  137.7480 C   0  0  0  0  0  3  0  0  0  0  0  0
  198.3940  168.3120  136.9490 C   0  0  0  0  0  2  0  0  0  0  0  0
  195.8640  173.5020  136.4270 C   0  0  1  0  0  0  0  0  0  0  0  0
  195.2270  175.5440  134.9700 C   0  0  0  0  0  1  0  0  0  0  0  0
  195.5960  174.0640  135.0100 C   0  0  0  0  0  2  0  0  0  0  0  0
  195.9950  174.6970  137.3930 C   0  0  0  0  0  2  0  0  0  0  0  0
  196.4490  174.3430  138.7820 C   0  0  0  0  0  0  0  0  0  0  0  0
  195.6940  173.7680  139.5510 O   0  0  0  0  0  0  0  0  0  0  0  0
  198.4360  175.5020  138.2510 O   0  0  0  0  0  1  0  0  0  0  0  0
  197.8030  174.7590  139.2470 C   0  0  0  0  0  2  0  0  0  0  0  0
  197.1930  172.7110  136.4490 C   0  0  0  0  0  2  0  0  0  0  0  0
  198.0550  172.9090  135.2390 C   0  0  0  0  0  0  0  0  0  0  0  0
  198.0960  172.0240  134.3460 O   0  0  0  0  0  0  0  0  0  0  0  0
  198.8290  174.0940  135.0970 N   0  0  0  0  0  1  0  0  0  0  0  0
  1 11  1  0  0  0  0
  1  6  1  0  0  0  0
  3 12  1  0  0  0  0
  3  5  1  0  0  0  0
  6  2  1  6  0  0  0
  6 10  1  0  0  0  0
  6  9  1  0  0  0  0
  7  4  2  0  0  0  0
  8 11  1  0  0  0  0
  8 14  2  0  0  0  0
  9 12  1  0  0  0  0
  9  7  1  0  0  0  0
 11  3  2  0  0  0  0
 12 26  1  6  0  0  0
 13  5  2  0  0  0  0
 13 16  1  0  0  0  0
 14 13  1  0  0  0  0
 15 16  2  0  0  0  0
 16 17  1  0  0  0  0
 17 18  1  0  0  0  0
 18 21  1  0  0  0  0
 19 18  2  0  0  0  0
 21 20  1  0  0  0  0
 22 24  1  0  0  0  0
 22  7  1  0  0  0  0
 24 23  1  0  0  0  0
 25 24  1  0  0  0  0
 25 23  1  0  0  0  0
 26 28  1  6  0  0  0
 26 34  1  0  0  0  0
 26 29  1  0  0  0  0
 27 28  1  0  0  0  0
 29 30  1  0  0  0  0
 30 33  1  0  0  0  0
 30 31  2  0  0  0  0
 32 33  1  0  0  0  0
 35 34  1  0  0  0  0
 36 35  2  0  0  0  0
 37 35  1  0  0  0  0
M  END
>  <MODEL>
4

>  <REMARK>
 VINA RESULT:      -4.8      3.938      6.607
  Name = 
  11 active torsions:
  status: ('A' for Active; 'I' for Inactive)
    1  A    between atoms: C_1  and  C_5
    2  A    between atoms: C_1  and  C_36
    3  A    between atoms: C_5  and  C_23
    4  A    between atoms: C_6  and  C_31
    5  A    between atoms: C_11  and  C_33
    6  A    between atoms: C_18  and  C_19
    7  A    between atoms: C_20  and  O_32
    8  A    between atoms: C_21  and  O_32
    9  A    between atoms: C_27  and  C_36
   10  A    between atoms: C_29  and  C_36
   11  A    between atoms: C_33  and  C_36
                            x       y       z     vdW  Elec       q    Type
                         _______ _______ _______ _____ _____    ______ ____

>  <TORSDO>
F 11

$$$$
=
 OpenBabel10272415043D

 37 39  0  0  1  0  0  0  0  0999 V2000
  183.5310  177.1240  135.9060 C   0  0  0  0  0  2  0  0  0  0  0  0
  184.4070  175.4350  134.3470 C   0  0  0  0  0  1  0  0  0  0  0  0
  184.3600  177.0870  138.2570 C   0  0  0  0  0  0  0  0  0  0  0  0
  184.9010  173.2360  137.7700 O   0  0  0  0  0  0  0  0  0  0  0  0
  184.2330  177.4190  139.6090 C   0  0  0  0  0  3  0  0  0  0  0  0
  183.9620  175.6570  135.7800 C   0  0  1  0  0  0  0  0  0  0  0  0
  185.4330  173.9290  136.8640 C   0  0  0  0  0  0  0  0  0  0  0  0
  182.3300  178.3150  137.7620 C   0  0  0  0  0  3  0  0  0  0  0  0
  185.0570  175.3070  136.7200 N   0  0  0  0  0  0  0  0  0  0  0  0
  182.8530  174.8460  136.0330 O   0  0  0  0  0  1  0  0  0  0  0  0
  183.3970  177.5190  137.3380 C   0  0  0  0  0  0  0  0  0  0  0  0
  185.5040  176.2360  137.7790 C   0  0  1  0  0  3  0  0  0  0  0  0
  183.1600  178.2110  140.0460 C   0  0  0  0  0  0  0  0  0  0  0  0
  182.2140  178.6600  139.1120 C   0  0  0  0  0  3  0  0  0  0  0  0
  181.9370  179.0200  141.9060 O   0  0  0  0  0  0  0  0  0  0  0  0
  183.0320  178.5710  141.4680 C   0  0  0  0  0  0  0  0  0  0  0  0
  184.1560  178.4190  142.3450 N   0  0  0  0  0  2  0  0  0  0  0  0
  184.1440  178.6710  143.7550 C   0  0  0  0  0  0  0  0  0  0  0  0
  183.0770  178.9740  144.3520 O   0  0  0  0  0  0  0  0  0  0  0  0
  185.1060  178.6040  146.0170 C   0  0  0  0  0  1  0  0  0  0  0  0
  185.4060  178.5350  144.5330 C   0  0  0  0  0  2  0  0  0  0  0  0
  186.3790  173.3380  136.0240 O   0  0  0  0  0  0  0  0  0  0  0  0
  185.4840  171.1760  135.5350 C   0  0  0  0  0  2  0  0  0  0  0  0
  186.0190  172.4700  134.9590 C   0  0  0  0  0  3  0  0  0  0  0  0
  186.8990  171.2370  135.0060 C   0  0  0  0  0  2  0  0  0  0  0  0
  186.8250  176.9870  137.4080 C   0  0  1  0  0  0  0  0  0  0  0  0
  187.0790  178.9750  135.7700 C   0  0  0  0  0  1  0  0  0  0  0  0
  186.5990  178.4950  137.1360 C   0  0  0  0  0  2  0  0  0  0  0  0
  187.7880  176.8620  138.6060 C   0  0  0  0  0  2  0  0  0  0  0  0
  188.1200  178.1600  139.2900 C   0  0  0  0  0  0  0  0  0  0  0  0
  188.9240  178.9320  138.7930 O   0  0  0  0  0  0  0  0  0  0  0  0
  188.4870  178.3580  141.6130 O   0  0  0  0  0  1  0  0  0  0  0  0
  187.5170  178.4710  140.6170 C   0  0  0  0  0  2  0  0  0  0  0  0
  187.4840  176.3130  136.1820 C   0  0  0  0  0  2  0  0  0  0  0  0
  188.9010  175.8760  136.3980 C   0  0  0  0  0  0  0  0  0  0  0  0
  189.1420  174.7340  136.8660 O   0  0  0  0  0  0  0  0  0  0  0  0
  189.9770  176.7490  136.0740 N   0  0  0  0  0  1  0  0  0  0  0  0
  1 11  1  0  0  0  0
  3  5  1  0  0  0  0
  5 13  2  0  0  0  0
  6  2  1  6  0  0  0
  6  1  1  0  0  0  0
  6 10  1  0  0  0  0
  6  9  1  0  0  0  0
  7  4  2  0  0  0  0
  8 14  2  0  0  0  0
  9  7  1  0  0  0  0
  9 12  1  0  0  0  0
 11  8  1  0  0  0  0
 11  3  2  0  0  0  0
 12 26  1  6  0  0  0
 12  3  1  0  0  0  0
 13 16  1  0  0  0  0
 14 13  1  0  0  0  0
 16 15  2  0  0  0  0
 16 17  1  0  0  0  0
 17 18  1  0  0  0  0
 18 19  2  0  0  0  0
 18 21  1  0  0  0  0
 21 20  1  0  0  0  0
 22  7  1  0  0  0  0
 24 25  1  0  0  0  0
 24 23  1  0  0  0  0
 24 22  1  0  0  0  0
 25 23  1  0  0  0  0
 26 34  1  6  0  0  0
 26 29  1  0  0  0  0
 27 28  1  0  0  0  0
 28 26  1  0  0  0  0
 29 30  1  0  0  0  0
 30 33  1  0  0  0  0
 31 30  2  0  0  0  0
 33 32  1  0  0  0  0
 34 35  1  0  0  0  0
 35 36  2  0  0  0  0
 37 35  1  0  0  0  0
M  END
>  <MODEL>
5

>  <REMARK>
 VINA RESULT:      -4.7      4.008      5.558
  Name = 
  11 active torsions:
  status: ('A' for Active; 'I' for Inactive)
    1  A    between atoms: C_1  and  C_5
    2  A    between atoms: C_1  and  C_36
    3  A    between atoms: C_5  and  C_23
    4  A    between atoms: C_6  and  C_31
    5  A    between atoms: C_11  and  C_33
    6  A    between atoms: C_18  and  C_19
    7  A    between atoms: C_20  and  O_32
    8  A    between atoms: C_21  and  O_32
    9  A    between atoms: C_27  and  C_36
   10  A    between atoms: C_29  and  C_36
   11  A    between atoms: C_33  and  C_36
                            x       y       z     vdW  Elec       q    Type
                         _______ _______ _______ _____ _____    ______ ____

>  <TORSDO>
F 11

$$$$
=
 OpenBabel10272415043D

 37 39  0  0  1  0  0  0  0  0999 V2000
  181.6850  179.3130  140.9670 C   0  0  0  0  0  2  0  0  0  0  0  0
  180.0770  178.5330  139.2770 C   0  0  0  0  0  1  0  0  0  0  0  0
  183.7790  177.9990  141.2840 C   0  0  0  0  0  0  0  0  0  0  0  0
  181.7340  174.8740  140.0950 O   0  0  0  0  0  0  0  0  0  0  0  0
  184.8900  177.6240  142.0460 C   0  0  0  0  0  3  0  0  0  0  0  0
  181.0510  178.0640  140.3420 C   0  0  1  0  0  0  0  0  0  0  0  0
  181.6480  175.8510  139.3070 C   0  0  0  0  0  0  0  0  0  0  0  0
  183.1180  179.5610  143.0150 C   0  0  0  0  0  3  0  0  0  0  0  0
  182.0620  177.1520  139.7510 N   0  0  0  0  0  0  0  0  0  0  0  0
  180.3340  177.3870  141.3330 O   0  0  0  0  0  1  0  0  0  0  0  0
  182.8840  178.9530  141.7790 C   0  0  0  0  0  0  0  0  0  0  0  0
  183.5120  177.3600  139.9490 C   0  0  1  0  0  3  0  0  0  0  0  0
  185.1290  178.2220  143.2920 C   0  0  0  0  0  0  0  0  0  0  0  0
  184.2380  179.1970  143.7670 C   0  0  0  0  0  3  0  0  0  0  0  0
  187.2910  177.2850  143.5280 O   0  0  0  0  0  0  0  0  0  0  0  0
  186.3050  177.8370  144.0900 C   0  0  0  0  0  0  0  0  0  0  0  0
  186.3190  178.0810  145.5030 N   0  0  0  0  0  2  0  0  0  0  0  0
  187.4220  177.8140  146.3770 C   0  0  0  0  0  0  0  0  0  0  0  0
  188.5260  177.4090  145.9250 O   0  0  0  0  0  0  0  0  0  0  0  0
  188.6200  177.9300  148.5210 C   0  0  0  0  0  1  0  0  0  0  0  0
  187.2720  178.0560  147.8380 C   0  0  0  0  0  2  0  0  0  0  0  0
  181.1540  175.6420  138.0170 O   0  0  0  0  0  0  0  0  0  0  0  0
  180.9220  174.6110  135.8730 C   0  0  0  0  0  2  0  0  0  0  0  0
  181.3430  174.4230  137.3160 C   0  0  0  0  0  3  0  0  0  0  0  0
  179.9980  173.9100  136.8420 C   0  0  0  0  0  2  0  0  0  0  0  0
  184.2050  178.0170  138.7100 C   0  0  1  0  0  0  0  0  0  0  0  0
  183.3890  180.4700  138.5800 C   0  0  0  0  0  1  0  0  0  0  0  0
  184.5270  179.5160  138.9300 C   0  0  0  0  0  2  0  0  0  0  0  0
  185.5380  177.2780  138.4710 C   0  0  0  0  0  2  0  0  0  0  0  0
  186.7480  178.1670  138.3860 C   0  0  0  0  0  0  0  0  0  0  0  0
  186.9760  178.8040  137.3700 O   0  0  0  0  0  0  0  0  0  0  0  0
  188.9380  178.7130  139.0790 O   0  0  0  0  0  1  0  0  0  0  0  0
  187.7130  178.2150  139.5220 C   0  0  0  0  0  2  0  0  0  0  0  0
  183.3170  177.8360  137.4570 C   0  0  0  0  0  2  0  0  0  0  0  0
  183.9260  176.9910  136.3790 C   0  0  0  0  0  0  0  0  0  0  0  0
  184.2690  175.8070  136.6270 O   0  0  0  0  0  0  0  0  0  0  0  0
  184.1180  177.5240  135.0740 N   0  0  0  0  0  1  0  0  0  0  0  0
  1 11  1  0  0  0  0
  3 11  2  0  0  0  0
  3  5  1  0  0  0  0
  5 13  2  0  0  0  0
  6  2  1  6  0  0  0
  6  1  1  0  0  0  0
  6 10  1  0  0  0  0
  7  9  1  0  0  0  0
  7  4  2  0  0  0  0
  8 14  2  0  0  0  0
  9 12  1  0  0  0  0
  9  6  1  0  0  0  0
 11  8  1  0  0  0  0
 12 26  1  6  0  0  0
 12  3  1  0  0  0  0
 13 14  1  0  0  0  0
 13 16  1  0  0  0  0
 15 16  2  0  0  0  0
 16 17  1  0  0  0  0
 17 18  1  0  0  0  0
 18 21  1  0  0  0  0
 19 18  2  0  0  0  0
 21 20  1  0  0  0  0
 22  7  1  0  0  0  0
 23 25  1  0  0  0  0
 23 24  1  0  0  0  0
 24 22  1  0  0  0  0
 25 24  1  0  0  0  0
 26 34  1  6  0  0  0
 26 28  1  0  0  0  0
 27 28  1  0  0  0  0
 29 26  1  0  0  0  0
 30 29  1  0  0  0  0
 30 33  1  0  0  0  0
 31 30  2  0  0  0  0
 32 33  1  0  0  0  0
 35 36  2  0  0  0  0
 35 34  1  0  0  0  0
 37 35  1  0  0  0  0
M  END
>  <MODEL>
6

>  <REMARK>
 VINA RESULT:      -4.6      5.366      7.373
  Name = 
  11 active torsions:
  status: ('A' for Active; 'I' for Inactive)
    1  A    between atoms: C_1  and  C_5
    2  A    between atoms: C_1  and  C_36
    3  A    between atoms: C_5  and  C_23
    4  A    between atoms: C_6  and  C_31
    5  A    between atoms: C_11  and  C_33
    6  A    between atoms: C_18  and  C_19
    7  A    between atoms: C_20  and  O_32
    8  A    between atoms: C_21  and  O_32
    9  A    between atoms: C_27  and  C_36
   10  A    between atoms: C_29  and  C_36
   11  A    between atoms: C_33  and  C_36
                            x       y       z     vdW  Elec       q    Type
                         _______ _______ _______ _____ _____    ______ ____

>  <TORSDO>
F 11

$$$$
=
 OpenBabel10272415043D

 37 39  0  0  1  0  0  0  0  0999 V2000
  187.6730  178.4820  136.9220 C   0  0  0  0  0  2  0  0  0  0  0  0
  186.4950  177.6050  134.9480 C   0  0  0  0  0  1  0  0  0  0  0  0
  188.6710  176.8420  138.5130 C   0  0  0  0  0  0  0  0  0  0  0  0
  185.8590  174.3610  137.3710 O   0  0  0  0  0  0  0  0  0  0  0  0
  189.1720  176.5030  139.7730 C   0  0  0  0  0  3  0  0  0  0  0  0
  186.7450  177.3650  136.4250 C   0  0  1  0  0  0  0  0  0  0  0  0
  186.4970  174.8620  136.4090 C   0  0  0  0  0  0  0  0  0  0  0  0
  188.3420  179.1250  139.2560 C   0  0  0  0  0  3  0  0  0  0  0  0
  187.3240  176.0140  136.6370 N   0  0  0  0  0  0  0  0  0  0  0  0
  185.5280  177.4640  137.1050 O   0  0  0  0  0  1  0  0  0  0  0  0
  188.2380  178.1490  138.2620 C   0  0  0  0  0  0  0  0  0  0  0  0
  188.5560  175.8070  137.4280 C   0  0  1  0  0  3  0  0  0  0  0  0
  189.2720  177.4750  140.7800 C   0  0  0  0  0  0  0  0  0  0  0  0
  188.8590  178.7880  140.5100 C   0  0  0  0  0  3  0  0  0  0  0  0
  190.9090  176.5040  142.1910 O   0  0  0  0  0  0  0  0  0  0  0  0
  189.8120  177.1210  142.1040 C   0  0  0  0  0  0  0  0  0  0  0  0
  189.0810  177.4720  143.2870 N   0  0  0  0  0  2  0  0  0  0  0  0
  189.5250  177.2430  144.6300 C   0  0  0  0  0  0  0  0  0  0  0  0
  190.6710  176.7780  144.8650 O   0  0  0  0  0  0  0  0  0  0  0  0
  189.3210  177.2930  147.0800 C   0  0  0  0  0  1  0  0  0  0  0  0
  188.6300  177.5990  145.7660 C   0  0  0  0  0  2  0  0  0  0  0  0
  186.3870  174.2810  135.1450 O   0  0  0  0  0  0  0  0  0  0  0  0
  185.4180  172.2050  135.8280 C   0  0  0  0  0  2  0  0  0  0  0  0
  185.3760  173.3380  134.8240 C   0  0  0  0  0  3  0  0  0  0  0  0
  186.0270  172.0190  134.4580 C   0  0  0  0  0  2  0  0  0  0  0  0
  189.8200  175.5900  136.5330 C   0  0  1  0  0  0  0  0  0  0  0  0
  190.0370  177.0020  134.3740 C   0  0  0  0  0  1  0  0  0  0  0  0
  189.5120  175.7240  135.0210 C   0  0  0  0  0  2  0  0  0  0  0  0
  190.8500  176.6770  136.9030 C   0  0  0  0  0  2  0  0  0  0  0  0
  192.2420  176.1690  137.1590 C   0  0  0  0  0  0  0  0  0  0  0  0
  192.9720  175.8700  136.2270 O   0  0  0  0  0  0  0  0  0  0  0  0
  194.0220  176.4100  138.6920 O   0  0  0  0  0  1  0  0  0  0  0  0
  192.7080  175.9620  138.5600 C   0  0  0  0  0  2  0  0  0  0  0  0
  190.4430  174.2070  136.8330 C   0  0  0  0  0  2  0  0  0  0  0  0
  190.4830  173.2740  135.6610 C   0  0  0  0  0  0  0  0  0  0  0  0
  191.4740  173.2770  134.8880 O   0  0  0  0  0  0  0  0  0  0  0  0
  189.4000  172.3830  135.4190 N   0  0  0  0  0  1  0  0  0  0  0  0
  1 11  1  0  0  0  0
  3  5  1  0  0  0  0
  5 13  2  0  0  0  0
  6  2  1  6  0  0  0
  6  9  1  0  0  0  0
  6  1  1  0  0  0  0
  6 10  1  0  0  0  0
  7  9  1  0  0  0  0
  7  4  2  0  0  0  0
  8 14  2  0  0  0  0
  9 12  1  0  0  0  0
 11  3  2  0  0  0  0
 11  8  1  0  0  0  0
 12 26  1  6  0  0  0
 12  3  1  0  0  0  0
 13 16  1  0  0  0  0
 14 13  1  0  0  0  0
 16 15  2  0  0  0  0
 16 17  1  0  0  0  0
 17 18  1  0  0  0  0
 18 19  2  0  0  0  0
 18 21  1  0  0  0  0
 21 20  1  0  0  0  0
 22  7  1  0  0  0  0
 24 22  1  0  0  0  0
 24 23  1  0  0  0  0
 25 24  1  0  0  0  0
 25 23  1  0  0  0  0
 26 28  1  6  0  0  0
 26 34  1  0  0  0  0
 26 29  1  0  0  0  0
 27 28  1  0  0  0  0
 29 30  1  0  0  0  0
 30 33  1  0  0  0  0
 31 30  2  0  0  0  0
 33 32  1  0  0  0  0
 35 34  1  0  0  0  0
 36 35  2  0  0  0  0
 37 35  1  0  0  0  0
M  END
>  <MODEL>
7

>  <REMARK>
 VINA RESULT:      -4.6      1.771      1.996
  Name = 
  11 active torsions:
  status: ('A' for Active; 'I' for Inactive)
    1  A    between atoms: C_1  and  C_5
    2  A    between atoms: C_1  and  C_36
    3  A    between atoms: C_5  and  C_23
    4  A    between atoms: C_6  and  C_31
    5  A    between atoms: C_11  and  C_33
    6  A    between atoms: C_18  and  C_19
    7  A    between atoms: C_20  and  O_32
    8  A    between atoms: C_21  and  O_32
    9  A    between atoms: C_27  and  C_36
   10  A    between atoms: C_29  and  C_36
   11  A    between atoms: C_33  and  C_36
                            x       y       z     vdW  Elec       q    Type
                         _______ _______ _______ _____ _____    ______ ____

>  <TORSDO>
F 11

$$$$
=
 OpenBabel10272415043D

 37 39  0  0  1  0  0  0  0  0999 V2000
  191.9200  178.1390  140.9220 C   0  0  0  0  0  2  0  0  0  0  0  0
  190.8140  178.7840  143.0230 C   0  0  0  0  0  1  0  0  0  0  0  0
  190.7780  176.4700  139.4640 C   0  0  0  0  0  0  0  0  0  0  0  0
  189.1690  175.0410  142.7400 O   0  0  0  0  0  0  0  0  0  0  0  0
  190.7970  175.5140  138.4440 C   0  0  0  0  0  3  0  0  0  0  0  0
  191.0860  177.6130  142.0980 C   0  0  1  0  0  0  0  0  0  0  0  0
  189.0150  176.2830  142.6140 C   0  0  0  0  0  0  0  0  0  0  0  0
  193.1350  176.9030  139.1050 C   0  0  0  0  0  3  0  0  0  0  0  0
  189.8100  176.9980  141.6550 N   0  0  0  0  0  0  0  0  0  0  0  0
  191.8460  176.6660  142.7900 O   0  0  0  0  0  1  0  0  0  0  0  0
  191.9520  177.1490  139.8070 C   0  0  0  0  0  0  0  0  0  0  0  0
  189.5140  176.7540  140.2280 C   0  0  1  0  0  3  0  0  0  0  0  0
  191.9820  175.2540  137.7400 C   0  0  0  0  0  0  0  0  0  0  0  0
  193.1490  175.9590  138.0740 C   0  0  0  0  0  3  0  0  0  0  0  0
  193.0990  173.9000  136.1490 O   0  0  0  0  0  0  0  0  0  0  0  0
  192.0000  174.2550  136.6570 C   0  0  0  0  0  0  0  0  0  0  0  0
  190.7670  173.7010  136.1790 N   0  0  0  0  0  2  0  0  0  0  0  0
  190.6520  172.6810  135.1810 C   0  0  0  0  0  0  0  0  0  0  0  0
  191.6750  172.1230  134.7010 O   0  0  0  0  0  0  0  0  0  0  0  0
  188.2990  172.4370  135.8540 C   0  0  0  0  0  1  0  0  0  0  0  0
  189.3010  172.2460  134.7320 C   0  0  0  0  0  2  0  0  0  0  0  0
  188.0710  176.9340  143.4100 O   0  0  0  0  0  0  0  0  0  0  0  0
  186.6810  177.3350  145.3140 C   0  0  0  0  0  2  0  0  0  0  0  0
  187.9630  176.7080  144.8070 C   0  0  0  0  0  3  0  0  0  0  0  0
  188.0010  178.0390  145.5300 C   0  0  0  0  0  2  0  0  0  0  0  0
  188.5550  177.8270  139.6160 C   0  0  1  0  0  0  0  0  0  0  0  0
  187.7570  175.9910  137.9760 C   0  0  0  0  0  1  0  0  0  0  0  0
  187.3790  177.1980  138.8290 C   0  0  0  0  0  2  0  0  0  0  0  0
  187.9590  178.6430  140.7810 C   0  0  0  0  0  2  0  0  0  0  0  0
  186.4590  178.7500  140.7780 C   0  0  0  0  0  0  0  0  0  0  0  0
  185.8720  179.1640  139.7900 O   0  0  0  0  0  0  0  0  0  0  0  0
  185.2270  179.5900  142.6080 O   0  0  0  0  0  1  0  0  0  0  0  0
  185.6910  178.4180  142.0110 C   0  0  0  0  0  2  0  0  0  0  0  0
  189.3560  178.7890  138.7080 C   0  0  0  0  0  2  0  0  0  0  0  0
  188.8760  178.8500  137.2890 C   0  0  0  0  0  0  0  0  0  0  0  0
  187.8670  179.5400  136.9960 O   0  0  0  0  0  0  0  0  0  0  0  0
  189.5600  178.1280  136.2710 N   0  0  0  0  0  1  0  0  0  0  0  0
  1  6  1  0  0  0  0
  3 11  1  0  0  0  0
  3 12  1  0  0  0  0
  5  3  2  0  0  0  0
  6 10  1  0  0  0  0
  6  2  1  1  0  0  0
  7  4  2  0  0  0  0
  7 22  1  0  0  0  0
  8 11  2  0  0  0  0
  9  6  1  0  0  0  0
  9  7  1  0  0  0  0
 11  1  1  0  0  0  0
 12 26  1  6  0  0  0
 12  9  1  0  0  0  0
 13 14  2  0  0  0  0
 13  5  1  0  0  0  0
 14  8  1  0  0  0  0
 15 16  2  0  0  0  0
 16 13  1  0  0  0  0
 17 16  1  0  0  0  0
 18 17  1  0  0  0  0
 19 18  2  0  0  0  0
 21 18  1  0  0  0  0
 21 20  1  0  0  0  0
 22 24  1  0  0  0  0
 23 25  1  0  0  0  0
 24 23  1  0  0  0  0
 24 25  1  0  0  0  0
 26 34  1  6  0  0  0
 26 29  1  0  0  0  0
 27 28  1  0  0  0  0
 28 26  1  0  0  0  0
 30 29  1  0  0  0  0
 30 33  1  0  0  0  0
 31 30  2  0  0  0  0
 33 32  1  0  0  0  0
 35 34  1  0  0  0  0
 36 35  2  0  0  0  0
 37 35  1  0  0  0  0
M  END
>  <MODEL>
8

>  <REMARK>
 VINA RESULT:      -4.5      2.397      7.910
  Name = 
  11 active torsions:
  status: ('A' for Active; 'I' for Inactive)
    1  A    between atoms: C_1  and  C_5
    2  A    between atoms: C_1  and  C_36
    3  A    between atoms: C_5  and  C_23
    4  A    between atoms: C_6  and  C_31
    5  A    between atoms: C_11  and  C_33
    6  A    between atoms: C_18  and  C_19
    7  A    between atoms: C_20  and  O_32
    8  A    between atoms: C_21  and  O_32
    9  A    between atoms: C_27  and  C_36
   10  A    between atoms: C_29  and  C_36
   11  A    between atoms: C_33  and  C_36
                            x       y       z     vdW  Elec       q    Type
                         _______ _______ _______ _____ _____    ______ ____

>  <TORSDO>
F 11

$$$$
=
 OpenBabel10272415043D

 37 39  0  0  1  0  0  0  0  0999 V2000
  188.3510  177.0620  135.0470 C   0  0  0  0  0  2  0  0  0  0  0  0
  190.7470  176.5150  134.9320 C   0  0  0  0  0  1  0  0  0  0  0  0
  187.0800  176.3340  137.0640 C   0  0  0  0  0  0  0  0  0  0  0  0
  189.6520  173.3900  137.3470 O   0  0  0  0  0  0  0  0  0  0  0  0
  185.8820  176.0310  137.7170 C   0  0  0  0  0  3  0  0  0  0  0  0
  189.3950  175.9860  135.3740 C   0  0  1  0  0  0  0  0  0  0  0  0
  190.2000  174.5180  137.2500 C   0  0  0  0  0  0  0  0  0  0  0  0
  185.8420  176.9590  135.0770 C   0  0  0  0  0  3  0  0  0  0  0  0
  189.4210  175.6440  136.8180 N   0  0  0  0  0  0  0  0  0  0  0  0
  189.1000  174.8420  134.6280 O   0  0  0  0  0  1  0  0  0  0  0  0
  187.0600  176.7790  135.7380 C   0  0  0  0  0  0  0  0  0  0  0  0
  188.4010  176.1520  137.7590 C   0  0  1  0  0  3  0  0  0  0  0  0
  184.6540  176.2000  137.0590 C   0  0  0  0  0  0  0  0  0  0  0  0
  184.6440  176.6720  135.7370 C   0  0  0  0  0  3  0  0  0  0  0  0
  182.7850  174.8150  137.5020 O   0  0  0  0  0  0  0  0  0  0  0  0
  183.3900  175.8930  137.7500 C   0  0  0  0  0  0  0  0  0  0  0  0
  182.8500  176.8280  138.6950 N   0  0  0  0  0  2  0  0  0  0  0  0
  181.6690  176.6210  139.4780 C   0  0  0  0  0  0  0  0  0  0  0  0
  181.0520  175.5220  139.4460 O   0  0  0  0  0  0  0  0  0  0  0  0
  182.3660  178.4040  141.0210 C   0  0  0  0  0  1  0  0  0  0  0  0
  181.1860  177.7070  140.3730 C   0  0  0  0  0  2  0  0  0  0  0  0
  191.5540  174.6460  137.5690 O   0  0  0  0  0  0  0  0  0  0  0  0
  193.8570  174.0140  137.6780 C   0  0  0  0  0  2  0  0  0  0  0  0
  192.5700  173.9300  136.8840 C   0  0  0  0  0  3  0  0  0  0  0  0
  193.6610  174.8970  136.4670 C   0  0  0  0  0  2  0  0  0  0  0  0
  188.9120  177.3590  138.6140 C   0  0  1  0  0  0  0  0  0  0  0  0
  189.3560  179.5370  137.2880 C   0  0  0  0  0  1  0  0  0  0  0  0
  188.3670  178.7190  138.1130 C   0  0  0  0  0  2  0  0  0  0  0  0
  188.4150  177.1550  140.0590 C   0  0  0  0  0  2  0  0  0  0  0  0
  187.6850  178.3290  140.6490 C   0  0  0  0  0  0  0  0  0  0  0  0
  188.2860  179.1640  141.3080 O   0  0  0  0  0  0  0  0  0  0  0  0
  185.7350  179.5390  141.2040 O   0  0  0  0  0  1  0  0  0  0  0  0
  186.2060  178.4370  140.4900 C   0  0  0  0  0  2  0  0  0  0  0  0
  190.4590  177.3720  138.6280 C   0  0  0  0  0  2  0  0  0  0  0  0
  191.0730  176.9640  139.9330 C   0  0  0  0  0  0  0  0  0  0  0  0
  190.8490  175.8180  140.4020 O   0  0  0  0  0  0  0  0  0  0  0  0
  191.9090  177.8680  140.6450 N   0  0  0  0  0  1  0  0  0  0  0  0
  1  6  1  0  0  0  0
  1 11  1  0  0  0  0
  3  5  1  0  0  0  0
  3 12  1  0  0  0  0
  6  2  1  6  0  0  0
  6  9  1  0  0  0  0
  7  4  2  0  0  0  0
  7 22  1  0  0  0  0
  8 14  2  0  0  0  0
  8 11  1  0  0  0  0
  9  7  1  0  0  0  0
  9 12  1  0  0  0  0
 10  6  1  0  0  0  0
 11  3  2  0  0  0  0
 12 26  1  6  0  0  0
 13  5  2  0  0  0  0
 13 16  1  0  0  0  0
 14 13  1  0  0  0  0
 15 16  2  0  0  0  0
 16 17  1  0  0  0  0
 17 18  1  0  0  0  0
 18 21  1  0  0  0  0
 19 18  2  0  0  0  0
 21 20  1  0  0  0  0
 24 22  1  0  0  0  0
 24 23  1  0  0  0  0
 25 24  1  0  0  0  0
 25 23  1  0  0  0  0
 26 28  1  6  0  0  0
 26 34  1  0  0  0  0
 26 29  1  0  0  0  0
 27 28  1  0  0  0  0
 29 30  1  0  0  0  0
 30 31  2  0  0  0  0
 33 30  1  0  0  0  0
 33 32  1  0  0  0  0
 34 35  1  0  0  0  0
 35 36  2  0  0  0  0
 35 37  1  0  0  0  0
M  END
>  <MODEL>
9

>  <REMARK>
 VINA RESULT:      -4.3      3.405      6.441
  Name = 
  11 active torsions:
  status: ('A' for Active; 'I' for Inactive)
    1  A    between atoms: C_1  and  C_5
    2  A    between atoms: C_1  and  C_36
    3  A    between atoms: C_5  and  C_23
    4  A    between atoms: C_6  and  C_31
    5  A    between atoms: C_11  and  C_33
    6  A    between atoms: C_18  and  C_19
    7  A    between atoms: C_20  and  O_32
    8  A    between atoms: C_21  and  O_32
    9  A    between atoms: C_27  and  C_36
   10  A    between atoms: C_29  and  C_36
   11  A    between atoms: C_33  and  C_36
                            x       y       z     vdW  Elec       q    Type
                         _______ _______ _______ _____ _____    ______ ____

>  <TORSDO>
F 11

$$$$
