=
 OpenBabel10272400563D

 25 29  0  0  1  0  0  0  0  0999 V2000
  189.0020  176.3750  141.5820 C   0  0  1  0  0  3  0  0  0  0  0  0
  190.3330  176.2910  142.3660 C   0  0  0  0  0  0  0  0  0  0  0  0
  190.6480  177.1120  139.7080 C   0  0  0  0  0  2  0  0  0  0  0  0
  188.0890  177.4150  142.1270 C   0  0  1  0  0  3  0  0  0  0  0  0
  190.7230  176.6930  144.8080 C   0  0  0  0  0  0  0  0  0  0  0  0
  185.7770  179.6500  140.9510 O   0  0  0  0  0  0  0  0  0  0  0  0
  191.3680  177.8570  140.7980 C   0  0  0  0  0  2  0  0  0  0  0  0
  187.7520  178.3070  141.2380 C   0  0  2  0  0  3  0  0  0  0  0  0
  186.4620  178.8240  141.6080 C   0  0  0  0  0  0  0  0  0  0  0  0
  191.9750  178.2330  143.1310 C   0  0  0  0  0  0  0  0  0  0  0  0
  191.6870  180.2760  144.4890 C   0  0  0  0  0  1  0  0  0  0  0  0
  190.1140  176.0230  143.8240 C   0  0  0  0  0  3  0  0  0  0  0  0
  186.0450  178.2220  142.7830 O   0  0  0  0  0  0  0  0  0  0  0  0
  189.1890  176.8220  140.0980 C   0  0  2  0  0  3  0  0  0  0  0  0
  188.3280  178.0780  139.8970 C   0  0  0  0  0  2  0  0  0  0  0  0
  191.7140  177.8080  144.5780 C   0  0  0  0  0  0  0  0  0  0  0  0
  187.0240  177.2610  143.1780 C   0  0  0  0  0  2  0  0  0  0  0  0
  191.0070  179.0180  143.9940 C   0  0  2  0  0  3  0  0  0  0  0  0
  191.2300  177.4720  142.0720 C   0  0  0  0  0  0  0  0  0  0  0  0
  190.3980  176.3200  146.2200 C   0  0  0  0  0  2  0  0  0  0  0  0
  189.7700  177.4930  146.9570 C   0  0  0  0  0  2  0  0  0  0  0  0
  188.4060  177.8220  146.3620 C   0  0  0  0  0  2  0  0  0  0  0  0
  187.2850  177.7640  147.3960 C   0  0  0  0  0  3  0  0  0  0  0  0
  187.7910  178.0790  148.7920 C   0  0  0  0  0  1  0  0  0  0  0  0
  186.1380  178.6860  147.0230 C   0  0  0  0  0  1  0  0  0  0  0  0
  1  4  1  0  0  0  0
  1  2  1  1  0  0  0
  2 12  1  0  0  0  0
  3  7  1  0  0  0  0
  4 17  1  6  0  0  0
  5 20  1  0  0  0  0
  6  9  2  0  0  0  0
  7 19  1  0  0  0  0
  8 15  1  6  0  0  0
  8  9  1  0  0  0  0
  8  4  1  0  0  0  0
  9 13  1  0  0  0  0
 10 18  1  0  0  0  0
 10 16  2  0  0  0  0
 12  5  2  0  0  0  0
 13 17  1  0  0  0  0
 14  3  1  1  0  0  0
 14  1  1  0  0  0  0
 15 14  1  0  0  0  0
 16  5  1  0  0  0  0
 18 11  1  1  0  0  0
 18 16  1  0  0  0  0
 19  2  2  0  0  0  0
 19 10  1  0  0  0  0
 20 21  1  0  0  0  0
 22 21  1  0  0  0  0
 22 23  1  0  0  0  0
 23 24  1  0  0  0  0
 25 23  1  0  0  0  0
M  END
>  <MODEL>
1

>  <REMARK>
 VINA RESULT:      -7.2      0.000      0.000
  Name = 
  4 active torsions:
  status: ('A' for Active; 'I' for Inactive)
    1  A    between atoms: C_2  and  C_21
    2  A    between atoms: C_6  and  C_15
    3  A    between atoms: C_15  and  C_25
    4  A    between atoms: C_21  and  C_25
                            x       y       z     vdW  Elec       q    Type
                         _______ _______ _______ _____ _____    ______ ____

>  <TORSDO>
F 4

$$$$
=
 OpenBabel10272400563D

 25 29  0  0  1  0  0  0  0  0999 V2000
  186.5940  176.9430  143.6950 C   0  0  1  0  0  3  0  0  0  0  0  0
  187.8240  176.8180  142.7660 C   0  0  0  0  0  0  0  0  0  0  0  0
  185.9180  178.6540  141.8570 C   0  0  0  0  0  2  0  0  0  0  0  0
  186.9480  177.4920  145.0320 C   0  0  1  0  0  3  0  0  0  0  0  0
  190.1950  176.3000  143.3930 C   0  0  0  0  0  0  0  0  0  0  0  0
  185.5480  179.5200  147.4090 O   0  0  0  0  0  0  0  0  0  0  0  0
  187.3720  179.0380  141.8470 C   0  0  0  0  0  2  0  0  0  0  0  0
  186.2880  178.5770  145.3230 C   0  0  2  0  0  3  0  0  0  0  0  0
  186.1820  178.6510  146.7560 C   0  0  0  0  0  0  0  0  0  0  0  0
  189.7370  178.5820  142.2360 C   0  0  0  0  0  0  0  0  0  0  0  0
  191.3380  179.8370  143.6380 C   0  0  0  0  0  1  0  0  0  0  0  0
  188.9010  175.9640  143.3670 C   0  0  0  0  0  3  0  0  0  0  0  0
  186.8360  177.5700  147.3210 O   0  0  0  0  0  0  0  0  0  0  0  0
  185.5320  177.9610  143.1740 C   0  0  2  0  0  3  0  0  0  0  0  0
  185.3300  179.0050  144.2820 C   0  0  0  0  0  2  0  0  0  0  0  0
  190.7420  177.5840  142.8170 C   0  0  0  0  0  0  0  0  0  0  0  0
  187.3370  176.7380  146.2740 C   0  0  0  0  0  2  0  0  0  0  0  0
  190.2680  178.7660  143.6450 C   0  0  2  0  0  3  0  0  0  0  0  0
  188.2940  178.1670  142.2740 C   0  0  0  0  0  0  0  0  0  0  0  0
  191.1570  175.3510  144.0350 C   0  0  0  0  0  2  0  0  0  0  0  0
  191.9520  176.0470  145.1280 C   0  0  0  0  0  2  0  0  0  0  0  0
  192.2130  175.0880  146.2850 C   0  0  0  0  0  2  0  0  0  0  0  0
  191.7410  175.6430  147.6250 C   0  0  0  0  0  3  0  0  0  0  0  0
  192.9060  175.9360  148.5540 C   0  0  0  0  0  1  0  0  0  0  0  0
  190.8820  176.8800  147.4410 C   0  0  0  0  0  1  0  0  0  0  0  0
  1  2  1  6  0  0  0
  1  4  1  0  0  0  0
  2 12  1  0  0  0  0
  4  8  1  0  0  0  0
  4 17  1  1  0  0  0
  5 20  1  0  0  0  0
  7  3  1  0  0  0  0
  7 19  1  0  0  0  0
  8 15  1  6  0  0  0
  8  9  1  0  0  0  0
  9 13  1  0  0  0  0
  9  6  2  0  0  0  0
 10 19  1  0  0  0  0
 10 16  2  0  0  0  0
 10 18  1  0  0  0  0
 12  5  2  0  0  0  0
 14  3  1  6  0  0  0
 14  1  1  0  0  0  0
 14 15  1  0  0  0  0
 16  5  1  0  0  0  0
 16 18  1  0  0  0  0
 17 13  1  0  0  0  0
 18 11  1  6  0  0  0
 19  2  2  0  0  0  0
 20 21  1  0  0  0  0
 21 22  1  0  0  0  0
 22 23  1  0  0  0  0
 23 24  1  0  0  0  0
 25 23  1  0  0  0  0
M  END
>  <MODEL>
2

>  <REMARK>
 VINA RESULT:      -7.2      2.218      3.958
  Name = 
  4 active torsions:
  status: ('A' for Active; 'I' for Inactive)
    1  A    between atoms: C_2  and  C_21
    2  A    between atoms: C_6  and  C_15
    3  A    between atoms: C_15  and  C_25
    4  A    between atoms: C_21  and  C_25
                            x       y       z     vdW  Elec       q    Type
                         _______ _______ _______ _____ _____    ______ ____

>  <TORSDO>
F 4

$$$$
=
 OpenBabel10272400563D

 25 29  0  0  1  0  0  0  0  0999 V2000
  188.1030  178.5400  137.4350 C   0  0  1  0  0  3  0  0  0  0  0  0
  186.7720  178.2250  136.7140 C   0  0  0  0  0  0  0  0  0  0  0  0
  189.0410  177.5430  135.2240 C   0  0  0  0  0  2  0  0  0  0  0  0
  188.2830  177.7310  138.6710 C   0  0  1  0  0  3  0  0  0  0  0  0
  184.5770  177.5660  137.7280 C   0  0  0  0  0  0  0  0  0  0  0  0
  190.8380  176.2490  140.4020 O   0  0  0  0  0  0  0  0  0  0  0  0
  187.9040  176.5630  135.3230 C   0  0  0  0  0  2  0  0  0  0  0  0
  189.3750  177.0210  138.6550 C   0  0  2  0  0  3  0  0  0  0  0  0
  189.7860  176.8240  140.0200 C   0  0  0  0  0  0  0  0  0  0  0  0
  185.6920  175.8800  136.0940 C   0  0  0  0  0  0  0  0  0  0  0  0
  185.0670  173.8860  137.4110 C   0  0  0  0  0  1  0  0  0  0  0  0
  185.5840  178.4370  137.6040 C   0  0  0  0  0  3  0  0  0  0  0  0
  188.8730  177.4280  140.8660 O   0  0  0  0  0  0  0  0  0  0  0  0
  189.3620  178.1660  136.5920 C   0  0  2  0  0  3  0  0  0  0  0  0
  190.1940  177.1890  137.4370 C   0  0  0  0  0  2  0  0  0  0  0  0
  184.5040  176.2540  136.9840 C   0  0  0  0  0  0  0  0  0  0  0  0
  187.8750  178.0770  140.0770 C   0  0  0  0  0  2  0  0  0  0  0  0
  185.5780  175.3080  137.4940 C   0  0  2  0  0  3  0  0  0  0  0  0
  186.8110  176.8790  136.0290 C   0  0  0  0  0  0  0  0  0  0  0  0
  183.4600  177.9070  138.6620 C   0  0  0  0  0  2  0  0  0  0  0  0
  183.9660  178.7480  139.8240 C   0  0  0  0  0  2  0  0  0  0  0  0
  183.8970  177.9520  141.1230 C   0  0  0  0  0  2  0  0  0  0  0  0
  184.3590  178.7600  142.3310 C   0  0  0  0  0  3  0  0  0  0  0  0
  183.2530  178.9190  143.3580 C   0  0  0  0  0  1  0  0  0  0  0  0
  185.5940  178.1490  142.9680 C   0  0  0  0  0  1  0  0  0  0  0  0
  1  2  1  6  0  0  0
  1  4  1  0  0  0  0
  2 12  1  0  0  0  0
  3  7  1  0  0  0  0
  4 17  1  1  0  0  0
  5 20  1  0  0  0  0
  7 19  1  0  0  0  0
  8 15  1  6  0  0  0
  8  4  1  0  0  0  0
  8  9  1  0  0  0  0
  9  6  2  0  0  0  0
  9 13  1  0  0  0  0
 10 16  2  0  0  0  0
 10 18  1  0  0  0  0
 12  5  2  0  0  0  0
 14  3  1  6  0  0  0
 14  1  1  0  0  0  0
 14 15  1  0  0  0  0
 16 18  1  0  0  0  0
 16  5  1  0  0  0  0
 17 13  1  0  0  0  0
 18 11  1  6  0  0  0
 19 10  1  0  0  0  0
 19  2  2  0  0  0  0
 20 21  1  0  0  0  0
 21 22  1  0  0  0  0
 22 23  1  0  0  0  0
 23 25  1  0  0  0  0
 23 24  1  0  0  0  0
M  END
>  <MODEL>
3

>  <REMARK>
 VINA RESULT:      -5.7      3.836      7.057
  Name = 
  4 active torsions:
  status: ('A' for Active; 'I' for Inactive)
    1  A    between atoms: C_2  and  C_21
    2  A    between atoms: C_6  and  C_15
    3  A    between atoms: C_15  and  C_25
    4  A    between atoms: C_21  and  C_25
                            x       y       z     vdW  Elec       q    Type
                         _______ _______ _______ _____ _____    ______ ____

>  <TORSDO>
F 4

$$$$
=
 OpenBabel10272400563D

 25 29  0  0  1  0  0  0  0  0999 V2000
  190.0110  176.2990  140.4060 C   0  0  1  0  0  3  0  0  0  0  0  0
  190.5050  176.1970  141.8680 C   0  0  0  0  0  0  0  0  0  0  0  0
  192.5770  176.4280  140.0000 C   0  0  0  0  0  2  0  0  0  0  0  0
  189.2250  177.5370  140.1590 C   0  0  1  0  0  3  0  0  0  0  0  0
  189.3740  177.0170  143.9480 C   0  0  0  0  0  0  0  0  0  0  0  0
  188.7290  179.7820  137.6210 O   0  0  0  0  0  0  0  0  0  0  0  0
  192.6110  177.2720  141.2440 C   0  0  0  0  0  2  0  0  0  0  0  0
  189.7260  178.2730  139.2070 C   0  0  2  0  0  3  0  0  0  0  0  0
  188.6470  179.0190  138.6180 C   0  0  0  0  0  0  0  0  0  0  0  0
  191.7050  178.0170  143.3840 C   0  0  0  0  0  0  0  0  0  0  0  0
  191.1130  180.3080  144.0930 C   0  0  0  0  0  1  0  0  0  0  0  0
  189.3740  176.2530  142.8510 C   0  0  0  0  0  3  0  0  0  0  0  0
  187.4680  178.7200  139.2800 O   0  0  0  0  0  0  0  0  0  0  0  0
  191.1740  176.4160  139.3710 C   0  0  2  0  0  3  0  0  0  0  0  0
  190.9390  177.7100  138.5770 C   0  0  0  0  0  2  0  0  0  0  0  0
  190.5140  177.9240  144.3420 C   0  0  0  0  0  0  0  0  0  0  0  0
  187.7390  177.7350  140.2780 C   0  0  0  0  0  2  0  0  0  0  0  0
  190.6220  179.0780  143.3600 C   0  0  2  0  0  3  0  0  0  0  0  0
  191.6290  177.1670  142.1480 C   0  0  0  0  0  0  0  0  0  0  0  0
  188.1690  176.9760  144.8350 C   0  0  0  0  0  2  0  0  0  0  0  0
  186.9050  177.2680  144.0410 C   0  0  0  0  0  2  0  0  0  0  0  0
  185.9030  178.0280  144.9030 C   0  0  0  0  0  2  0  0  0  0  0  0
  184.9400  178.8730  144.0750 C   0  0  0  0  0  3  0  0  0  0  0  0
  184.7970  178.3410  142.6610 C   0  0  0  0  0  1  0  0  0  0  0  0
  183.5810  178.9800  144.7440 C   0  0  0  0  0  1  0  0  0  0  0  0
  1  2  1  1  0  0  0
  2 19  2  0  0  0  0
  2 12  1  0  0  0  0
  3  7  1  0  0  0  0
  4 17  1  6  0  0  0
  4  1  1  0  0  0  0
  5 16  1  0  0  0  0
  5 20  1  0  0  0  0
  6  9  2  0  0  0  0
  7 19  1  0  0  0  0
  8 15  1  6  0  0  0
  8  4  1  0  0  0  0
  9  8  1  0  0  0  0
  9 13  1  0  0  0  0
 10 16  2  0  0  0  0
 12  5  2  0  0  0  0
 13 17  1  0  0  0  0
 14 15  1  1  0  0  0
 14  3  1  0  0  0  0
 14  1  1  0  0  0  0
 18 10  1  0  0  0  0
 18 11  1  1  0  0  0
 18 16  1  0  0  0  0
 19 10  1  0  0  0  0
 21 20  1  0  0  0  0
 21 22  1  0  0  0  0
 23 25  1  0  0  0  0
 23 22  1  0  0  0  0
 24 23  1  0  0  0  0
M  END
>  <MODEL>
4

>  <REMARK>
 VINA RESULT:      -5.6      1.894      2.890
  Name = 
  4 active torsions:
  status: ('A' for Active; 'I' for Inactive)
    1  A    between atoms: C_2  and  C_21
    2  A    between atoms: C_6  and  C_15
    3  A    between atoms: C_15  and  C_25
    4  A    between atoms: C_21  and  C_25
                            x       y       z     vdW  Elec       q    Type
                         _______ _______ _______ _____ _____    ______ ____

>  <TORSDO>
F 4

$$$$
=
 OpenBabel10272400563D

 25 29  0  0  1  0  0  0  0  0999 V2000
  182.4290  178.1960  137.5120 C   0  0  1  0  0  3  0  0  0  0  0  0
  182.5340  179.1390  138.7330 C   0  0  0  0  0  0  0  0  0  0  0  0
  180.4300  179.7780  137.0020 C   0  0  0  0  0  2  0  0  0  0  0  0
  182.1020  176.7980  137.9020 C   0  0  1  0  0  3  0  0  0  0  0  0
  183.3380  178.6000  141.0450 C   0  0  0  0  0  0  0  0  0  0  0  0
  180.3040  174.1590  136.6680 O   0  0  0  0  0  0  0  0  0  0  0  0
  180.1780  179.7430  138.4840 C   0  0  0  0  0  2  0  0  0  0  0  0
  181.0140  176.3570  137.3370 C   0  0  2  0  0  3  0  0  0  0  0  0
  181.1280  174.9280  137.2280 C   0  0  0  0  0  0  0  0  0  0  0  0
  180.8880  179.4300  140.7970 C   0  0  0  0  0  0  0  0  0  0  0  0
  179.9820  177.8770  142.4910 C   0  0  0  0  0  1  0  0  0  0  0  0
  183.5520  178.6650  139.7270 C   0  0  0  0  0  3  0  0  0  0  0  0
  182.3290  174.5190  137.7810 O   0  0  0  0  0  0  0  0  0  0  0  0
  181.2600  178.5680  136.5470 C   0  0  2  0  0  3  0  0  0  0  0  0
  180.3640  177.3250  136.4290 C   0  0  0  0  0  2  0  0  0  0  0  0
  182.0400  178.9960  141.7060 C   0  0  0  0  0  0  0  0  0  0  0  0
  183.0500  175.6730  138.2150 C   0  0  0  0  0  2  0  0  0  0  0  0
  180.9460  178.0120  141.3320 C   0  0  2  0  0  3  0  0  0  0  0  0
  181.1760  179.4430  139.3230 C   0  0  0  0  0  0  0  0  0  0  0  0
  184.4470  178.0980  141.9150 C   0  0  0  0  0  2  0  0  0  0  0  0
  184.8650  179.1590  142.9210 C   0  0  0  0  0  2  0  0  0  0  0  0
  184.3620  178.7950  144.3140 C   0  0  0  0  0  2  0  0  0  0  0  0
  185.4810  178.7560  145.3510 C   0  0  0  0  0  3  0  0  0  0  0  0
  184.9600  178.3840  146.7270 C   0  0  0  0  0  1  0  0  0  0  0  0
  186.5950  177.8150  144.9290 C   0  0  0  0  0  1  0  0  0  0  0  0
  1  4  1  0  0  0  0
  1  2  1  1  0  0  0
  2 19  2  0  0  0  0
  2 12  1  0  0  0  0
  3  7  1  0  0  0  0
  4 17  1  6  0  0  0
  5 16  1  0  0  0  0
  5 20  1  0  0  0  0
  6  9  2  0  0  0  0
  7 19  1  0  0  0  0
  8 15  1  6  0  0  0
  8  4  1  0  0  0  0
  9  8  1  0  0  0  0
  9 13  1  0  0  0  0
 10 18  1  0  0  0  0
 10 16  2  0  0  0  0
 12  5  2  0  0  0  0
 13 17  1  0  0  0  0
 14 15  1  1  0  0  0
 14  3  1  0  0  0  0
 14  1  1  0  0  0  0
 18 16  1  0  0  0  0
 18 11  1  1  0  0  0
 19 10  1  0  0  0  0
 20 21  1  0  0  0  0
 21 22  1  0  0  0  0
 22 23  1  0  0  0  0
 23 24  1  0  0  0  0
 25 23  1  0  0  0  0
M  END
>  <MODEL>
5

>  <REMARK>
 VINA RESULT:      -5.6      5.687      8.478
  Name = 
  4 active torsions:
  status: ('A' for Active; 'I' for Inactive)
    1  A    between atoms: C_2  and  C_21
    2  A    between atoms: C_6  and  C_15
    3  A    between atoms: C_15  and  C_25
    4  A    between atoms: C_21  and  C_25
                            x       y       z     vdW  Elec       q    Type
                         _______ _______ _______ _____ _____    ______ ____

>  <TORSDO>
F 4

$$$$
=
 OpenBabel10272400563D

 25 29  0  0  1  0  0  0  0  0999 V2000
  190.0690  177.0600  137.1410 C   0  0  1  0  0  3  0  0  0  0  0  0
  189.6190  176.0640  136.0470 C   0  0  0  0  0  0  0  0  0  0  0  0
  191.7030  175.1020  137.6490 C   0  0  0  0  0  2  0  0  0  0  0  0
  188.9990  177.3240  138.1410 C   0  0  1  0  0  3  0  0  0  0  0  0
  187.3310  175.7610  135.0710 C   0  0  0  0  0  0  0  0  0  0  0  0
  188.7420  177.9550  141.4960 O   0  0  0  0  0  0  0  0  0  0  0  0
  190.5340  174.2060  137.3460 C   0  0  0  0  0  2  0  0  0  0  0  0
  189.3660  177.0440  139.3590 C   0  0  2  0  0  3  0  0  0  0  0  0
  188.6100  177.8860  140.2470 C   0  0  0  0  0  0  0  0  0  0  0  0
  188.3900  173.7220  136.2870 C   0  0  0  0  0  0  0  0  0  0  0  0
  186.2750  173.0040  137.3440 C   0  0  0  0  0  1  0  0  0  0  0  0
  188.3920  176.5340  135.3250 C   0  0  0  0  0  3  0  0  0  0  0  0
  187.7440  178.6730  139.5070 O   0  0  0  0  0  0  0  0  0  0  0  0
  191.2380  176.5190  138.0220 C   0  0  2  0  0  3  0  0  0  0  0  0
  190.7540  176.5510  139.4790 C   0  0  0  0  0  2  0  0  0  0  0  0
  187.2310  174.3100  135.4770 C   0  0  0  0  0  0  0  0  0  0  0  0
  187.9510  178.4030  138.1200 C   0  0  0  0  0  2  0  0  0  0  0  0
  187.1330  174.2000  136.9880 C   0  0  2  0  0  3  0  0  0  0  0  0
  189.5330  174.6520  136.5770 C   0  0  0  0  0  0  0  0  0  0  0  0
  186.1720  176.3700  134.3480 C   0  0  0  0  0  2  0  0  0  0  0  0
  185.3840  177.2900  135.2680 C   0  0  0  0  0  2  0  0  0  0  0  0
  184.2380  176.5280  135.9230 C   0  0  0  0  0  2  0  0  0  0  0  0
  184.3710  176.4590  137.4420 C   0  0  0  0  0  3  0  0  0  0  0  0
  184.2400  177.8290  138.0810 C   0  0  0  0  0  1  0  0  0  0  0  0
  183.3680  175.4910  138.0430 C   0  0  0  0  0  1  0  0  0  0  0  0
  1  2  1  6  0  0  0
  1 14  1  0  0  0  0
  1  4  1  0  0  0  0
  2 19  1  0  0  0  0
  4 17  1  1  0  0  0
  4  8  1  0  0  0  0
  5 12  1  0  0  0  0
  5 16  2  3  0  0  0
  7  3  1  0  0  0  0
  8 15  1  6  0  0  0
  8  9  1  0  0  0  0
  9  6  2  0  0  0  0
 10 19  2  3  0  0  0
 10 18  1  0  0  0  0
 12  2  2  0  0  0  0
 13  9  1  0  0  0  0
 14  3  1  6  0  0  0
 14 15  1  0  0  0  0
 16 10  1  0  0  0  0
 16 18  1  0  0  0  0
 17 13  1  0  0  0  0
 18 11  1  6  0  0  0
 19  7  1  0  0  0  0
 20  5  1  0  0  0  0
 20 21  1  0  0  0  0
 21 22  1  0  0  0  0
 22 23  1  0  0  0  0
 23 25  1  0  0  0  0
 23 24  1  0  0  0  0
M  END
>  <MODEL>
6

>  <REMARK>
 VINA RESULT:      -5.5      4.545      8.042
  Name = 
  4 active torsions:
  status: ('A' for Active; 'I' for Inactive)
    1  A    between atoms: C_2  and  C_21
    2  A    between atoms: C_6  and  C_15
    3  A    between atoms: C_15  and  C_25
    4  A    between atoms: C_21  and  C_25
                            x       y       z     vdW  Elec       q    Type
                         _______ _______ _______ _____ _____    ______ ____

>  <TORSDO>
F 4

$$$$
=
 OpenBabel10272400563D

 25 29  0  0  1  0  0  0  0  0999 V2000
  187.3380  178.2980  136.4970 C   0  0  1  0  0  3  0  0  0  0  0  0
  186.7490  177.2250  135.5520 C   0  0  0  0  0  0  0  0  0  0  0  0
  189.5470  177.2970  135.5570 C   0  0  0  0  0  2  0  0  0  0  0  0
  187.0270  178.0250  137.9260 C   0  0  1  0  0  3  0  0  0  0  0  0
  184.6230  175.9240  135.8160 C   0  0  0  0  0  0  0  0  0  0  0  0
  188.5240  178.4110  140.9810 O   0  0  0  0  0  0  0  0  0  0  0  0
  188.8450  175.9700  135.6490 C   0  0  0  0  0  2  0  0  0  0  0  0
  188.0960  177.9240  138.6650 C   0  0  2  0  0  3  0  0  0  0  0  0
  187.7380  178.3110  140.0030 C   0  0  0  0  0  0  0  0  0  0  0  0
  186.8430  174.5760  135.7230 C   0  0  0  0  0  0  0  0  0  0  0  0
  186.1590  172.9520  137.4540 C   0  0  0  0  0  1  0  0  0  0  0  0
  185.2630  177.0930  135.7040 C   0  0  0  0  0  3  0  0  0  0  0  0
  186.3910  178.6260  140.0460 O   0  0  0  0  0  0  0  0  0  0  0  0
  188.8980  178.3370  136.4850 C   0  0  2  0  0  3  0  0  0  0  0  0
  189.3640  178.1190  137.9320 C   0  0  0  0  0  2  0  0  0  0  0  0
  185.3140  174.5820  135.8010 C   0  0  0  0  0  0  0  0  0  0  0  0
  185.8500  178.5050  138.7300 C   0  0  0  0  0  2  0  0  0  0  0  0
  186.1460  174.4130  137.0600 C   0  0  2  0  0  3  0  0  0  0  0  0
  187.5070  175.9210  135.6430 C   0  0  0  0  0  0  0  0  0  0  0  0
  183.1350  175.9470  135.9710 C   0  0  0  0  0  2  0  0  0  0  0  0
  182.7400  176.6060  137.2830 C   0  0  0  0  0  2  0  0  0  0  0  0
  183.0660  175.6890  138.4560 C   0  0  0  0  0  2  0  0  0  0  0  0
  182.3020  176.0620  139.7230 C   0  0  0  0  0  3  0  0  0  0  0  0
  182.5740  177.4950  140.1430 C   0  0  0  0  0  1  0  0  0  0  0  0
  180.8100  175.8280  139.5590 C   0  0  0  0  0  1  0  0  0  0  0  0
  1  2  1  6  0  0  0
  1  4  1  0  0  0  0
  2 19  2  0  0  0  0
  2 12  1  0  0  0  0
  3  7  1  0  0  0  0
  4  8  1  0  0  0  0
  4 17  1  1  0  0  0
  5 20  1  0  0  0  0
  8 15  1  6  0  0  0
  8  9  1  0  0  0  0
  9 13  1  0  0  0  0
  9  6  2  0  0  0  0
 10 16  2  0  0  0  0
 10 18  1  0  0  0  0
 12  5  2  0  0  0  0
 14  3  1  6  0  0  0
 14  1  1  0  0  0  0
 14 15  1  0  0  0  0
 16  5  1  0  0  0  0
 16 18  1  0  0  0  0
 17 13  1  0  0  0  0
 18 11  1  6  0  0  0
 19  7  1  0  0  0  0
 19 10  1  0  0  0  0
 20 21  1  0  0  0  0
 21 22  1  0  0  0  0
 22 23  1  0  0  0  0
 23 24  1  0  0  0  0
 25 23  1  0  0  0  0
M  END
>  <MODEL>
7

>  <REMARK>
 VINA RESULT:      -5.4      4.969      8.082
  Name = 
  4 active torsions:
  status: ('A' for Active; 'I' for Inactive)
    1  A    between atoms: C_2  and  C_21
    2  A    between atoms: C_6  and  C_15
    3  A    between atoms: C_15  and  C_25
    4  A    between atoms: C_21  and  C_25
                            x       y       z     vdW  Elec       q    Type
                         _______ _______ _______ _____ _____    ______ ____

>  <TORSDO>
F 4

$$$$
=
 OpenBabel10272400563D

 25 29  0  0  1  0  0  0  0  0999 V2000
  189.6560  177.5400  137.1770 C   0  0  1  0  0  3  0  0  0  0  0  0
  188.6640  177.0270  136.1060 C   0  0  0  0  0  0  0  0  0  0  0  0
  191.1790  175.8060  135.9780 C   0  0  0  0  0  2  0  0  0  0  0  0
  189.2170  177.2110  138.5590 C   0  0  1  0  0  3  0  0  0  0  0  0
  186.1720  176.8240  136.2730 C   0  0  0  0  0  0  0  0  0  0  0  0
  190.6410  176.3630  141.5550 O   0  0  0  0  0  0  0  0  0  0  0  0
  189.9420  174.9540  135.8970 C   0  0  0  0  0  2  0  0  0  0  0  0
  190.0980  176.5120  139.2170 C   0  0  2  0  0  3  0  0  0  0  0  0
  189.9240  176.7960  140.6160 C   0  0  0  0  0  0  0  0  0  0  0  0
  187.5230  174.6430  135.8550 C   0  0  0  0  0  0  0  0  0  0  0  0
  186.1210  173.2560  137.3420 C   0  0  0  0  0  1  0  0  0  0  0  0
  187.2810  177.5690  136.3130 C   0  0  0  0  0  3  0  0  0  0  0  0
  188.8730  177.6820  140.7770 O   0  0  0  0  0  0  0  0  0  0  0  0
  191.0590  176.8610  137.0890 C   0  0  2  0  0  3  0  0  0  0  0  0
  191.3330  176.2200  138.4590 C   0  0  0  0  0  2  0  0  0  0  0  0
  186.1670  175.3370  136.0120 C   0  0  0  0  0  0  0  0  0  0  0  0
  188.3720  178.0390  139.4890 C   0  0  0  0  0  2  0  0  0  0  0  0
  186.7940  174.6020  137.1840 C   0  0  2  0  0  3  0  0  0  0  0  0
  188.7340  175.5260  135.9520 C   0  0  0  0  0  0  0  0  0  0  0  0
  184.8590  177.5010  136.5070 C   0  0  0  0  0  2  0  0  0  0  0  0
  184.4630  177.4190  137.9730 C   0  0  0  0  0  2  0  0  0  0  0  0
  184.7400  178.7460  138.6710 C   0  0  0  0  0  2  0  0  0  0  0  0
  184.1650  178.7980  140.0830 C   0  0  0  0  0  3  0  0  0  0  0  0
  183.2200  177.6390  140.3480 C   0  0  0  0  0  1  0  0  0  0  0  0
  185.2640  178.8380  141.1290 C   0  0  0  0  0  1  0  0  0  0  0  0
  1  2  1  6  0  0  0
  1  4  1  0  0  0  0
  2 12  1  0  0  0  0
  4  8  1  0  0  0  0
  4 17  1  1  0  0  0
  5 12  2  0  0  0  0
  5 20  1  0  0  0  0
  7 19  1  0  0  0  0
  7  3  1  0  0  0  0
  8 15  1  6  0  0  0
  8  9  1  0  0  0  0
  9 13  1  0  0  0  0
  9  6  2  0  0  0  0
 10 19  1  0  0  0  0
 10 16  2  0  0  0  0
 10 18  1  0  0  0  0
 14  3  1  6  0  0  0
 14  1  1  0  0  0  0
 14 15  1  0  0  0  0
 16  5  1  0  0  0  0
 16 18  1  0  0  0  0
 17 13  1  0  0  0  0
 18 11  1  6  0  0  0
 19  2  2  0  0  0  0
 20 21  1  0  0  0  0
 21 22  1  0  0  0  0
 22 23  1  0  0  0  0
 23 24  1  0  0  0  0
 23 25  1  0  0  0  0
M  END
>  <MODEL>
8

>  <REMARK>
 VINA RESULT:      -5.4      4.127      7.397
  Name = 
  4 active torsions:
  status: ('A' for Active; 'I' for Inactive)
    1  A    between atoms: C_2  and  C_21
    2  A    between atoms: C_6  and  C_15
    3  A    between atoms: C_15  and  C_25
    4  A    between atoms: C_21  and  C_25
                            x       y       z     vdW  Elec       q    Type
                         _______ _______ _______ _____ _____    ______ ____

>  <TORSDO>
F 4

$$$$
=
 OpenBabel10272400563D

 25 29  0  0  1  0  0  0  0  0999 V2000
  188.6610  175.9290  135.4550 C   0  0  1  0  0  3  0  0  0  0  0  0
  189.2810  177.1400  136.1920 C   0  0  0  0  0  0  0  0  0  0  0  0
  187.2280  177.8380  134.4230 C   0  0  0  0  0  2  0  0  0  0  0  0
  187.9720  174.9930  136.3830 C   0  0  1  0  0  3  0  0  0  0  0  0
  190.2620  177.2160  138.4970 C   0  0  0  0  0  0  0  0  0  0  0  0
  185.2260  172.9490  136.3710 O   0  0  0  0  0  0  0  0  0  0  0  0
  187.2440  178.4350  135.8030 C   0  0  0  0  0  2  0  0  0  0  0  0
  186.7180  174.8130  136.0790 C   0  0  2  0  0  3  0  0  0  0  0  0
  186.3400  173.5070  136.5470 C   0  0  0  0  0  0  0  0  0  0  0  0
  188.2110  178.7400  138.0220 C   0  0  0  0  0  0  0  0  0  0  0  0
  187.1650  178.3540  140.2260 C   0  0  0  0  0  1  0  0  0  0  0  0
  190.2490  176.7170  137.2560 C   0  0  0  0  0  3  0  0  0  0  0  0
  187.4210  172.9140  137.1760 O   0  0  0  0  0  0  0  0  0  0  0  0
  187.5250  176.3310  134.4620 C   0  0  2  0  0  3  0  0  0  0  0  0
  186.2690  175.5540  134.8820 C   0  0  0  0  0  2  0  0  0  0  0  0
  189.3020  178.2720  138.9890 C   0  0  0  0  0  0  0  0  0  0  0  0
  188.5420  173.7930  137.0870 C   0  0  0  0  0  2  0  0  0  0  0  0
  187.8990  177.6970  139.0770 C   0  0  2  0  0  3  0  0  0  0  0  0
  188.2230  178.1130  136.6570 C   0  0  0  0  0  0  0  0  0  0  0  0
  191.2830  176.6910  139.4570 C   0  0  0  0  0  2  0  0  0  0  0  0
  191.1000  177.3130  140.8320 C   0  0  0  0  0  2  0  0  0  0  0  0
  190.6480  176.2570  141.8350 C   0  0  0  0  0  2  0  0  0  0  0  0
  189.8580  176.8510  142.9970 C   0  0  0  0  0  3  0  0  0  0  0  0
  189.7970  178.3660  142.9200 C   0  0  0  0  0  1  0  0  0  0  0  0
  188.4600  176.2640  143.0740 C   0  0  0  0  0  1  0  0  0  0  0  0
  1  2  1  1  0  0  0
  1  4  1  0  0  0  0
  2 19  2  0  0  0  0
  2 12  1  0  0  0  0
  3  7  1  0  0  0  0
  4 17  1  6  0  0  0
  5 16  1  0  0  0  0
  5 20  1  0  0  0  0
  6  9  2  0  0  0  0
  7 19  1  0  0  0  0
  8 15  1  6  0  0  0
  8  4  1  0  0  0  0
  8  9  1  0  0  0  0
  9 13  1  0  0  0  0
 10 16  2  0  0  0  0
 10 18  1  0  0  0  0
 12  5  2  0  0  0  0
 14  3  1  1  0  0  0
 14 15  1  0  0  0  0
 14  1  1  0  0  0  0
 16 18  1  0  0  0  0
 17 13  1  0  0  0  0
 18 11  1  1  0  0  0
 19 10  1  0  0  0  0
 20 21  1  0  0  0  0
 21 22  1  0  0  0  0
 22 23  1  0  0  0  0
 23 25  1  0  0  0  0
 24 23  1  0  0  0  0
M  END
>  <MODEL>
9

>  <REMARK>
 VINA RESULT:      -5.4      4.062      6.410
  Name = 
  4 active torsions:
  status: ('A' for Active; 'I' for Inactive)
    1  A    between atoms: C_2  and  C_21
    2  A    between atoms: C_6  and  C_15
    3  A    between atoms: C_15  and  C_25
    4  A    between atoms: C_21  and  C_25
                            x       y       z     vdW  Elec       q    Type
                         _______ _______ _______ _____ _____    ______ ____

>  <TORSDO>
F 4

$$$$
