=
 OpenBabel10272400303D

 31 35  0  0  0  0  0  0  0  0999 V2000
  187.4200  177.7690  144.5430 C   0  0  0  0  0  0  0  0  0  0  0  0
  187.8250  177.8390  145.9010 C   0  0  0  0  0  0  0  0  0  0  0  0
  189.5300  177.6350  147.6290 C   0  0  0  0  0  0  0  0  0  0  0  0
  189.1500  177.5690  146.2860 C   0  0  0  0  0  3  0  0  0  0  0  0
  185.5560  178.4150  146.5620 C   0  0  0  0  0  3  0  0  0  0  0  0
  190.8120  177.3770  147.9820 F   0  0  0  0  0  0  0  0  0  0  0  0
  186.0610  178.0430  144.2130 C   0  0  0  0  0  0  0  0  0  0  0  0
  188.5910  177.9680  148.6070 C   0  0  0  0  0  3  0  0  0  0  0  0
  185.1540  178.3530  145.2300 C   0  0  0  0  0  3  0  0  0  0  0  0
  186.8810  178.1670  146.9030 C   0  0  0  0  0  0  0  0  0  0  0  0
  187.2690  178.2320  148.2440 C   0  0  0  0  0  3  0  0  0  0  0  0
  188.3890  177.3460  143.5090 C   0  0  0  0  0  0  0  0  0  0  0  0
  189.3690  177.5180  141.2800 C   0  0  0  0  0  0  0  0  0  0  0  0
  190.1650  175.7010  142.7860 C   0  0  0  0  0  2  0  0  0  0  0  0
  188.3660  177.8940  142.2910 C   0  0  0  0  0  3  0  0  0  0  0  0
  189.3970  176.3800  143.8290 N   0  0  0  0  0  2  0  0  0  0  0  0
  190.2390  176.5260  141.5290 C   0  0  0  0  0  3  0  0  0  0  0  0
  189.4030  178.2330  140.0780 O   0  0  0  0  0  0  0  0  0  0  0  0
  188.4690  178.0250  139.0250 C   0  0  0  0  0  1  0  0  0  0  0  0
  185.5010  178.0600  142.8440 C   0  0  0  0  0  3  0  0  0  0  0  0
  185.1280  179.1520  142.1840 C   0  0  0  0  0  3  0  0  0  0  0  0
  181.1650  177.8870  138.8870 C   0  0  0  0  0  0  0  0  0  0  0  0
  182.2710  178.0670  141.0680 C   0  0  0  0  0  3  0  0  0  0  0  0
  184.4980  179.3610  138.6890 O   0  0  0  0  0  0  0  0  0  0  0  0
  185.2610  179.5490  139.7350 N   0  0  0  0  0  0  0  0  0  0  0  0
  179.9820  177.4830  138.0840 C   0  0  0  0  0  1  0  0  0  0  0  0
  184.5830  179.1060  140.8200 C   0  0  0  0  0  0  0  0  0  0  0  0
  181.1610  177.6920  140.2870 C   0  0  0  0  0  3  0  0  0  0  0  0
  183.3620  178.8200  139.0480 C   0  0  0  0  0  0  0  0  0  0  0  0
  183.3570  178.6310  140.4010 C   0  0  0  0  0  0  0  0  0  0  0  0
  182.2810  178.4600  138.2470 C   0  0  0  0  0  3  0  0  0  0  0  0
  1  2  1  0  0  0  0
  2  4  2  0  0  0  0
  2 10  1  0  0  0  0
  3  6  1  0  0  0  0
  3  8  2  0  0  0  0
  4  3  1  0  0  0  0
  5 10  1  0  0  0  0
  7  1  2  0  0  0  0
  7  9  1  0  0  0  0
  9  5  2  0  0  0  0
 10 11  2  0  0  0  0
 11  8  1  0  0  0  0
 12 16  1  0  0  0  0
 12  1  1  0  0  0  0
 13 17  2  0  0  0  0
 13 15  1  0  0  0  0
 14 16  1  0  0  0  0
 15 12  2  0  0  0  0
 17 14  1  0  0  0  0
 18 13  1  0  0  0  0
 19 18  1  0  0  0  0
 20  7  1  0  0  0  0
 21 20  2  0  0  0  0
 22 28  1  0  0  0  0
 24 29  1  0  0  0  0
 24 25  1  0  0  0  0
 25 27  2  0  0  0  0
 26 22  1  0  0  0  0
 27 21  1  0  0  0  0
 28 23  2  0  0  0  0
 29 30  2  0  0  0  0
 30 27  1  0  0  0  0
 30 23  1  0  0  0  0
 31 22  2  0  0  0  0
 31 29  1  0  0  0  0
M  END
>  <MODEL>
1

>  <REMARK>
 VINA RESULT:     -10.9      0.000      0.000
  Name = 
  4 active torsions:
  status: ('A' for Active; 'I' for Inactive)
    1  A    between atoms: O_2  and  C_13
    2  A    between atoms: C_4  and  C_12
    3  A    between atoms: C_9  and  C_23
    4  A    between atoms: C_15  and  C_21
                            x       y       z     vdW  Elec       q    Type
                         _______ _______ _______ _____ _____    ______ ____

>  <TORSDO>
F 4

$$$$
=
 OpenBabel10272400303D

 31 35  0  0  0  0  0  0  0  0999 V2000
  187.7260  177.6230  143.9890 C   0  0  0  0  0  0  0  0  0  0  0  0
  187.0510  177.9650  145.1890 C   0  0  0  0  0  0  0  0  0  0  0  0
  186.9650  178.1060  147.6200 C   0  0  0  0  0  0  0  0  0  0  0  0
  187.6470  177.7720  146.4470 C   0  0  0  0  0  3  0  0  0  0  0  0
  185.1070  178.6720  143.9090 C   0  0  0  0  0  3  0  0  0  0  0  0
  187.5560  177.9190  148.8240 F   0  0  0  0  0  0  0  0  0  0  0  0
  187.0680  177.8310  142.7420 C   0  0  0  0  0  0  0  0  0  0  0  0
  185.6740  178.6340  147.5520 C   0  0  0  0  0  3  0  0  0  0  0  0
  185.7680  178.3440  142.7280 C   0  0  0  0  0  3  0  0  0  0  0  0
  185.7390  178.4930  145.1350 C   0  0  0  0  0  0  0  0  0  0  0  0
  185.0620  178.8250  146.3110 C   0  0  0  0  0  3  0  0  0  0  0  0
  189.0650  176.9960  144.0530 C   0  0  0  0  0  0  0  0  0  0  0  0
  191.2360  176.6650  145.1180 C   0  0  0  0  0  0  0  0  0  0  0  0
  190.8130  175.5630  142.9250 C   0  0  0  0  0  2  0  0  0  0  0  0
  189.9260  177.3320  145.0170 C   0  0  0  0  0  3  0  0  0  0  0  0
  189.4230  175.9820  143.1070 N   0  0  0  0  0  2  0  0  0  0  0  0
  191.6290  175.8040  144.1660 C   0  0  0  0  0  3  0  0  0  0  0  0
  192.0350  176.9330  146.2340 O   0  0  0  0  0  0  0  0  0  0  0  0
  192.0490  176.1090  147.3940 C   0  0  0  0  0  1  0  0  0  0  0  0
  187.6580  177.5730  141.4110 C   0  0  0  0  0  3  0  0  0  0  0  0
  187.8660  178.4950  140.4760 C   0  0  0  0  0  3  0  0  0  0  0  0
  191.8980  176.4990  137.6610 C   0  0  0  0  0  0  0  0  0  0  0  0
  190.7100  177.1110  139.7160 C   0  0  0  0  0  3  0  0  0  0  0  0
  188.6530  178.0470  137.0360 O   0  0  0  0  0  0  0  0  0  0  0  0
  187.8550  178.4480  137.9920 N   0  0  0  0  0  0  0  0  0  0  0  0
  193.0940  175.9120  137.0030 C   0  0  0  0  0  1  0  0  0  0  0  0
  188.4630  178.1790  139.1710 C   0  0  0  0  0  0  0  0  0  0  0  0
  191.8330  176.5590  139.0710 C   0  0  0  0  0  3  0  0  0  0  0  0
  189.7440  177.5310  137.5420 C   0  0  0  0  0  0  0  0  0  0  0  0
  189.6820  177.5880  138.9050 C   0  0  0  0  0  0  0  0  0  0  0  0
  190.8400  176.9920  136.8730 C   0  0  0  0  0  3  0  0  0  0  0  0
  1 12  1  0  0  0  0
  1  2  1  0  0  0  0
  2  4  1  0  0  0  0
  3  6  1  0  0  0  0
  4  3  2  0  0  0  0
  5 10  1  0  0  0  0
  7  1  2  0  0  0  0
  8  3  1  0  0  0  0
  9  7  1  0  0  0  0
  9  5  2  0  0  0  0
 10  2  2  0  0  0  0
 10 11  1  0  0  0  0
 11  8  2  0  0  0  0
 12 15  2  0  0  0  0
 13 18  1  0  0  0  0
 14 16  1  0  0  0  0
 14 17  1  0  0  0  0
 15 13  1  0  0  0  0
 16 12  1  0  0  0  0
 17 13  2  0  0  0  0
 18 19  1  0  0  0  0
 20  7  1  0  0  0  0
 21 20  2  0  0  0  0
 22 28  1  0  0  0  0
 24 29  1  0  0  0  0
 24 25  1  0  0  0  0
 25 27  2  0  0  0  0
 26 22  1  0  0  0  0
 27 21  1  0  0  0  0
 28 23  2  0  0  0  0
 29 30  2  0  0  0  0
 30 27  1  0  0  0  0
 30 23  1  0  0  0  0
 31 29  1  0  0  0  0
 31 22  2  0  0  0  0
M  END
>  <MODEL>
2

>  <REMARK>
 VINA RESULT:     -10.8      3.022      5.553
  Name = 
  4 active torsions:
  status: ('A' for Active; 'I' for Inactive)
    1  A    between atoms: O_2  and  C_13
    2  A    between atoms: C_4  and  C_12
    3  A    between atoms: C_9  and  C_23
    4  A    between atoms: C_15  and  C_21
                            x       y       z     vdW  Elec       q    Type
                         _______ _______ _______ _____ _____    ______ ____

>  <TORSDO>
F 4

$$$$
=
 OpenBabel10272400303D

 31 35  0  0  0  0  0  0  0  0999 V2000
  189.0250  177.4490  144.1000 C   0  0  0  0  0  0  0  0  0  0  0  0
  188.6870  177.5760  145.4730 C   0  0  0  0  0  0  0  0  0  0  0  0
  187.1090  178.1600  147.2340 C   0  0  0  0  0  0  0  0  0  0  0  0
  187.4210  178.0320  145.8790 C   0  0  0  0  0  3  0  0  0  0  0  0
  190.9160  176.8320  146.1030 C   0  0  0  0  0  3  0  0  0  0  0  0
  185.8810  178.5960  147.6070 F   0  0  0  0  0  0  0  0  0  0  0  0
  190.3280  176.9910  143.7490 C   0  0  0  0  0  0  0  0  0  0  0  0
  188.0590  177.8370  148.2050 C   0  0  0  0  0  3  0  0  0  0  0  0
  191.2500  176.7000  144.7580 C   0  0  0  0  0  3  0  0  0  0  0  0
  189.6440  177.2610  146.4670 C   0  0  0  0  0  0  0  0  0  0  0  0
  189.3250  177.3900  147.8220 C   0  0  0  0  0  3  0  0  0  0  0  0
  188.0500  177.8570  143.0650 C   0  0  0  0  0  0  0  0  0  0  0  0
  185.7670  178.1290  142.2480 C   0  0  0  0  0  0  0  0  0  0  0  0
  187.6470  178.6440  140.6980 C   0  0  0  0  0  2  0  0  0  0  0  0
  186.7410  177.6690  143.2520 C   0  0  0  0  0  3  0  0  0  0  0  0
  188.5070  178.5090  141.8730 N   0  0  0  0  0  2  0  0  0  0  0  0
  186.1900  178.6280  141.0760 C   0  0  0  0  0  3  0  0  0  0  0  0
  184.4050  178.0550  142.5600 O   0  0  0  0  0  0  0  0  0  0  0  0
  183.8340  178.6980  143.6940 C   0  0  0  0  0  1  0  0  0  0  0  0
  190.8090  176.7600  142.3700 C   0  0  0  0  0  3  0  0  0  0  0  0
  191.7570  177.4670  141.7620 C   0  0  0  0  0  3  0  0  0  0  0  0
  190.5810  176.0380  136.7880 C   0  0  0  0  0  0  0  0  0  0  0  0
  190.0760  176.5590  139.1290 C   0  0  0  0  0  3  0  0  0  0  0  0
  193.5350  176.9540  138.7250 O   0  0  0  0  0  0  0  0  0  0  0  0
  193.4900  177.2700  139.9940 N   0  0  0  0  0  0  0  0  0  0  0  0
  190.1100  175.6280  135.4400 C   0  0  0  0  0  1  0  0  0  0  0  0
  192.1980  177.1850  140.3900 C   0  0  0  0  0  0  0  0  0  0  0  0
  189.6520  176.1720  137.8440 C   0  0  0  0  0  3  0  0  0  0  0  0
  192.3360  176.6710  138.2850 C   0  0  0  0  0  0  0  0  0  0  0  0
  191.4370  176.8000  139.3050 C   0  0  0  0  0  0  0  0  0  0  0  0
  191.9500  176.2900  137.0030 C   0  0  0  0  0  3  0  0  0  0  0  0
  1  2  1  0  0  0  0
  2  4  2  0  0  0  0
  2 10  1  0  0  0  0
  3  6  1  0  0  0  0
  3  8  2  0  0  0  0
  4  3  1  0  0  0  0
  5 10  1  0  0  0  0
  7  1  2  0  0  0  0
  7  9  1  0  0  0  0
  9  5  2  0  0  0  0
 10 11  2  0  0  0  0
 11  8  1  0  0  0  0
 12 15  2  0  0  0  0
 12  1  1  0  0  0  0
 13 18  1  0  0  0  0
 13 15  1  0  0  0  0
 14 17  1  0  0  0  0
 14 16  1  0  0  0  0
 16 12  1  0  0  0  0
 17 13  2  0  0  0  0
 18 19  1  0  0  0  0
 20  7  1  0  0  0  0
 21 20  2  0  0  0  0
 22 31  2  0  0  0  0
 22 28  1  0  0  0  0
 23 30  1  0  0  0  0
 24 25  1  0  0  0  0
 25 27  2  0  0  0  0
 26 22  1  0  0  0  0
 27 21  1  0  0  0  0
 28 23  2  0  0  0  0
 29 24  1  0  0  0  0
 29 30  2  0  0  0  0
 30 27  1  0  0  0  0
 31 29  1  0  0  0  0
M  END
>  <MODEL>
3

>  <REMARK>
 VINA RESULT:     -10.6      2.949      6.220
  Name = 
  4 active torsions:
  status: ('A' for Active; 'I' for Inactive)
    1  A    between atoms: O_2  and  C_13
    2  A    between atoms: C_4  and  C_12
    3  A    between atoms: C_9  and  C_23
    4  A    between atoms: C_15  and  C_21
                            x       y       z     vdW  Elec       q    Type
                         _______ _______ _______ _____ _____    ______ ____

>  <TORSDO>
F 4

$$$$
=
 OpenBabel10272400303D

 31 35  0  0  0  0  0  0  0  0999 V2000
  188.9950  177.2850  143.7220 C   0  0  0  0  0  0  0  0  0  0  0  0
  189.1340  177.3530  145.1330 C   0  0  0  0  0  0  0  0  0  0  0  0
  188.2580  177.9150  147.3360 C   0  0  0  0  0  0  0  0  0  0  0  0
  188.1020  177.8480  145.9490 C   0  0  0  0  0  3  0  0  0  0  0  0
  191.3920  176.4640  144.9660 C   0  0  0  0  0  3  0  0  0  0  0  0
  187.2510  178.3900  148.1080 F   0  0  0  0  0  0  0  0  0  0  0  0
  190.0790  176.7830  142.9450 C   0  0  0  0  0  0  0  0  0  0  0  0
  189.4500  177.4920  147.9270 C   0  0  0  0  0  3  0  0  0  0  0  0
  191.2590  176.3910  143.5830 C   0  0  0  0  0  3  0  0  0  0  0  0
  190.3400  176.9350  145.7450 C   0  0  0  0  0  0  0  0  0  0  0  0
  190.4890  177.0050  147.1320 C   0  0  0  0  0  3  0  0  0  0  0  0
  187.7650  177.7980  143.0810 C   0  0  0  0  0  0  0  0  0  0  0  0
  185.3570  178.1940  143.0550 C   0  0  0  0  0  0  0  0  0  0  0  0
  186.6730  178.7760  141.0230 C   0  0  0  0  0  2  0  0  0  0  0  0
  186.5740  177.6310  143.6640 C   0  0  0  0  0  3  0  0  0  0  0  0
  187.8530  178.5270  141.8500 N   0  0  0  0  0  2  0  0  0  0  0  0
  185.4120  178.7700  141.8440 C   0  0  0  0  0  3  0  0  0  0  0  0
  184.1620  178.1330  143.7810 O   0  0  0  0  0  0  0  0  0  0  0  0
  183.8790  178.9900  144.8800 C   0  0  0  0  0  1  0  0  0  0  0  0
  190.0670  176.6050  141.4770 C   0  0  0  0  0  3  0  0  0  0  0  0
  190.9000  177.2000  140.6280 C   0  0  0  0  0  3  0  0  0  0  0  0
  188.3010  177.7000  136.0280 C   0  0  0  0  0  0  0  0  0  0  0  0
  188.6130  177.9650  138.4450 C   0  0  0  0  0  3  0  0  0  0  0  0
  191.4640  176.3280  137.2260 O   0  0  0  0  0  0  0  0  0  0  0  0
  191.8300  176.3640  138.4810 N   0  0  0  0  0  0  0  0  0  0  0  0
  187.4640  177.9050  134.8170 C   0  0  0  0  0  1  0  0  0  0  0  0
  190.8440  176.9780  139.1770 C   0  0  0  0  0  0  0  0  0  0  0  0
  187.8370  178.1490  137.2850 C   0  0  0  0  0  3  0  0  0  0  0  0
  190.2910  176.8890  137.0790 C   0  0  0  0  0  0  0  0  0  0  0  0
  189.8420  177.3250  138.2940 C   0  0  0  0  0  0  0  0  0  0  0  0
  189.5490  177.0560  135.9130 C   0  0  0  0  0  3  0  0  0  0  0  0
  1  2  1  0  0  0  0
  2 10  2  0  0  0  0
  2  4  1  0  0  0  0
  3  8  1  0  0  0  0
  3  6  1  0  0  0  0
  4  3  2  0  0  0  0
  5 10  1  0  0  0  0
  7  9  1  0  0  0  0
  7  1  2  0  0  0  0
  9  5  2  0  0  0  0
 10 11  1  0  0  0  0
 11  8  2  0  0  0  0
 12 15  2  0  0  0  0
 12  1  1  0  0  0  0
 13 15  1  0  0  0  0
 13 18  1  0  0  0  0
 14 17  1  0  0  0  0
 14 16  1  0  0  0  0
 16 12  1  0  0  0  0
 17 13  2  0  0  0  0
 18 19  1  0  0  0  0
 20  7  1  0  0  0  0
 21 20  2  0  0  0  0
 22 28  1  0  0  0  0
 24 25  1  0  0  0  0
 25 27  2  0  0  0  0
 26 22  1  0  0  0  0
 27 21  1  0  0  0  0
 28 23  2  0  0  0  0
 29 24  1  0  0  0  0
 29 30  2  0  0  0  0
 30 23  1  0  0  0  0
 30 27  1  0  0  0  0
 31 22  2  0  0  0  0
 31 29  1  0  0  0  0
M  END
>  <MODEL>
4

>  <REMARK>
 VINA RESULT:     -10.4      2.846      5.563
  Name = 
  4 active torsions:
  status: ('A' for Active; 'I' for Inactive)
    1  A    between atoms: O_2  and  C_13
    2  A    between atoms: C_4  and  C_12
    3  A    between atoms: C_9  and  C_23
    4  A    between atoms: C_15  and  C_21
                            x       y       z     vdW  Elec       q    Type
                         _______ _______ _______ _____ _____    ______ ____

>  <TORSDO>
F 4

$$$$
=
 OpenBabel10272400303D

 31 35  0  0  0  0  0  0  0  0999 V2000
  187.6680  177.6270  144.0810 C   0  0  0  0  0  0  0  0  0  0  0  0
  187.0020  177.9280  145.2970 C   0  0  0  0  0  0  0  0  0  0  0  0
  186.9460  178.0150  147.7310 C   0  0  0  0  0  0  0  0  0  0  0  0
  187.6190  177.7210  146.5430 C   0  0  0  0  0  3  0  0  0  0  0  0
  185.0260  178.6200  144.0590 C   0  0  0  0  0  3  0  0  0  0  0  0
  187.5590  177.8150  148.9230 F   0  0  0  0  0  0  0  0  0  0  0  0
  186.9870  177.8470  142.8480 C   0  0  0  0  0  0  0  0  0  0  0  0
  185.6440  178.5160  147.6920 C   0  0  0  0  0  3  0  0  0  0  0  0
  185.6760  178.3310  142.8630 C   0  0  0  0  0  3  0  0  0  0  0  0
  185.6780  178.4280  145.2720 C   0  0  0  0  0  0  0  0  0  0  0  0
  185.0100  178.7200  146.4650 C   0  0  0  0  0  3  0  0  0  0  0  0
  189.0200  177.0280  144.1140 C   0  0  0  0  0  0  0  0  0  0  0  0
  191.2210  176.7400  145.1280 C   0  0  0  0  0  0  0  0  0  0  0  0
  190.7710  175.6320  142.9430 C   0  0  0  0  0  2  0  0  0  0  0  0
  189.8960  177.3800  145.0580 C   0  0  0  0  0  3  0  0  0  0  0  0
  189.3770  176.0220  143.1580 N   0  0  0  0  0  2  0  0  0  0  0  0
  191.6100  175.8890  144.1650 C   0  0  0  0  0  3  0  0  0  0  0  0
  192.0400  177.0240  146.2260 O   0  0  0  0  0  0  0  0  0  0  0  0
  191.9800  176.2940  147.4460 C   0  0  0  0  0  1  0  0  0  0  0  0
  187.5640  177.6310  141.5040 C   0  0  0  0  0  3  0  0  0  0  0  0
  188.5990  178.2970  141.0000 C   0  0  0  0  0  3  0  0  0  0  0  0
  187.7850  177.7760  135.7810 C   0  0  0  0  0  0  0  0  0  0  0  0
  187.1210  178.1920  138.1030 C   0  0  0  0  0  3  0  0  0  0  0  0
  190.5720  177.5780  138.1290 O   0  0  0  0  0  0  0  0  0  0  0  0
  190.4380  177.7680  139.4160 N   0  0  0  0  0  0  0  0  0  0  0  0
  187.4140  177.6580  134.3470 C   0  0  0  0  0  1  0  0  0  0  0  0
  189.1320  178.0320  139.6570 C   0  0  0  0  0  0  0  0  0  0  0  0
  186.7910  178.0760  136.7400 C   0  0  0  0  0  3  0  0  0  0  0  0
  189.4170  177.7090  137.5290 C   0  0  0  0  0  0  0  0  0  0  0  0
  188.4550  178.0000  138.4540 C   0  0  0  0  0  0  0  0  0  0  0  0
  189.1250  177.5870  136.1730 C   0  0  0  0  0  3  0  0  0  0  0  0
  1 12  1  0  0  0  0
  1  2  1  0  0  0  0
  2  4  1  0  0  0  0
  3  6  1  0  0  0  0
  4  3  2  0  0  0  0
  5 10  1  0  0  0  0
  7  9  1  0  0  0  0
  7  1  2  0  0  0  0
  8  3  1  0  0  0  0
  9  5  2  0  0  0  0
 10  2  2  0  0  0  0
 10 11  1  0  0  0  0
 11  8  2  0  0  0  0
 12 15  2  0  0  0  0
 13 18  1  0  0  0  0
 14 16  1  0  0  0  0
 14 17  1  0  0  0  0
 15 13  1  0  0  0  0
 16 12  1  0  0  0  0
 17 13  2  0  0  0  0
 18 19  1  0  0  0  0
 20  7  1  0  0  0  0
 21 20  2  0  0  0  0
 22 31  2  0  0  0  0
 22 28  1  0  0  0  0
 23 30  1  0  0  0  0
 24 25  1  0  0  0  0
 25 27  2  0  0  0  0
 26 22  1  0  0  0  0
 27 21  1  0  0  0  0
 28 23  2  0  0  0  0
 29 24  1  0  0  0  0
 29 30  2  0  0  0  0
 30 27  1  0  0  0  0
 31 29  1  0  0  0  0
M  END
>  <MODEL>
5

>  <REMARK>
 VINA RESULT:     -10.3      3.081      4.644
  Name = 
  4 active torsions:
  status: ('A' for Active; 'I' for Inactive)
    1  A    between atoms: O_2  and  C_13
    2  A    between atoms: C_4  and  C_12
    3  A    between atoms: C_9  and  C_23
    4  A    between atoms: C_15  and  C_21
                            x       y       z     vdW  Elec       q    Type
                         _______ _______ _______ _____ _____    ______ ____

>  <TORSDO>
F 4

$$$$
=
 OpenBabel10272400303D

 31 35  0  0  0  0  0  0  0  0999 V2000
  187.7340  177.9930  143.6530 C   0  0  0  0  0  0  0  0  0  0  0  0
  186.4200  178.2650  144.1160 C   0  0  0  0  0  0  0  0  0  0  0  0
  184.7930  178.4570  145.9180 C   0  0  0  0  0  0  0  0  0  0  0  0
  186.0930  178.1950  145.4810 C   0  0  0  0  0  3  0  0  0  0  0  0
  185.6810  178.6450  141.8300 C   0  0  0  0  0  3  0  0  0  0  0  0
  184.4970  178.3910  147.2390 F   0  0  0  0  0  0  0  0  0  0  0  0
  188.0040  178.0690  142.2560 C   0  0  0  0  0  0  0  0  0  0  0  0
  183.7980  178.7880  144.9970 C   0  0  0  0  0  3  0  0  0  0  0  0
  186.9690  178.3850  141.3720 C   0  0  0  0  0  3  0  0  0  0  0  0
  185.4000  178.5930  143.1910 C   0  0  0  0  0  0  0  0  0  0  0  0
  184.1010  178.8540  143.6350 C   0  0  0  0  0  3  0  0  0  0  0  0
  188.7770  177.5710  144.6140 C   0  0  0  0  0  0  0  0  0  0  0  0
  189.7160  177.4730  146.8640 C   0  0  0  0  0  0  0  0  0  0  0  0
  191.0470  176.5250  144.9850 C   0  0  0  0  0  2  0  0  0  0  0  0
  188.7110  177.9420  145.8950 C   0  0  0  0  0  3  0  0  0  0  0  0
  189.8400  176.7130  144.1810 N   0  0  0  0  0  2  0  0  0  0  0  0
  190.7810  176.7720  146.4450 C   0  0  0  0  0  3  0  0  0  0  0  0
  189.5150  177.7550  148.2200 O   0  0  0  0  0  0  0  0  0  0  0  0
  188.2340  178.0370  148.7710 C   0  0  0  0  0  1  0  0  0  0  0  0
  189.3280  177.8650  141.6300 C   0  0  0  0  0  3  0  0  0  0  0  0
  189.5360  177.2720  140.4580 C   0  0  0  0  0  3  0  0  0  0  0  0
  192.6550  175.2890  136.6500 C   0  0  0  0  0  0  0  0  0  0  0  0
  190.5220  175.7030  137.7840 C   0  0  0  0  0  3  0  0  0  0  0  0
  193.0070  177.2880  139.6820 O   0  0  0  0  0  0  0  0  0  0  0  0
  191.9940  177.6260  140.4390 N   0  0  0  0  0  0  0  0  0  0  0  0
  193.4060  174.6750  135.5230 C   0  0  0  0  0  1  0  0  0  0  0  0
  190.8760  177.1030  139.8820 C   0  0  0  0  0  0  0  0  0  0  0  0
  191.2530  175.1310  136.7260 C   0  0  0  0  0  3  0  0  0  0  0  0
  192.5950  176.5750  138.6650 C   0  0  0  0  0  0  0  0  0  0  0  0
  191.2400  176.4220  138.7370 C   0  0  0  0  0  0  0  0  0  0  0  0
  193.3480  176.0230  137.6320 C   0  0  0  0  0  3  0  0  0  0  0  0
  1  2  1  0  0  0  0
  1 12  1  0  0  0  0
  2  4  1  0  0  0  0
  3  6  1  0  0  0  0
  4  3  2  0  0  0  0
  5 10  1  0  0  0  0
  7  1  2  0  0  0  0
  8  3  1  0  0  0  0
  9  5  2  0  0  0  0
  9  7  1  0  0  0  0
 10 11  1  0  0  0  0
 10  2  2  0  0  0  0
 11  8  2  0  0  0  0
 12 15  2  0  0  0  0
 13 18  1  0  0  0  0
 14 17  1  0  0  0  0
 15 13  1  0  0  0  0
 16 12  1  0  0  0  0
 16 14  1  0  0  0  0
 17 13  2  0  0  0  0
 18 19  1  0  0  0  0
 20  7  1  0  0  0  0
 21 20  2  0  0  0  0
 22 28  2  0  0  0  0
 22 31  1  0  0  0  0
 23 30  2  0  0  0  0
 24 25  1  0  0  0  0
 26 22  1  0  0  0  0
 27 25  2  0  0  0  0
 27 21  1  0  0  0  0
 28 23  1  0  0  0  0
 29 30  1  0  0  0  0
 29 24  1  0  0  0  0
 30 27  1  0  0  0  0
 31 29  2  0  0  0  0
M  END
>  <MODEL>
6

>  <REMARK>
 VINA RESULT:     -10.3      3.419      6.962
  Name = 
  4 active torsions:
  status: ('A' for Active; 'I' for Inactive)
    1  A    between atoms: O_2  and  C_13
    2  A    between atoms: C_4  and  C_12
    3  A    between atoms: C_9  and  C_23
    4  A    between atoms: C_15  and  C_21
                            x       y       z     vdW  Elec       q    Type
                         _______ _______ _______ _____ _____    ______ ____

>  <TORSDO>
F 4

$$$$
=
 OpenBabel10272400303D

 31 35  0  0  0  0  0  0  0  0999 V2000
  188.2690  177.5450  143.4920 C   0  0  0  0  0  0  0  0  0  0  0  0
  188.5950  177.4550  144.8700 C   0  0  0  0  0  0  0  0  0  0  0  0
  187.9860  177.6450  147.2210 C   0  0  0  0  0  0  0  0  0  0  0  0
  187.6450  177.7300  145.8690 C   0  0  0  0  0  3  0  0  0  0  0  0
  190.8820  176.8500  144.3020 C   0  0  0  0  0  3  0  0  0  0  0  0
  187.0560  177.9080  148.1710 F   0  0  0  0  0  0  0  0  0  0  0  0
  189.2770  177.2650  142.5240 C   0  0  0  0  0  0  0  0  0  0  0  0
  189.2820  177.2880  147.5950 C   0  0  0  0  0  3  0  0  0  0  0  0
  190.5650  176.9320  142.9490 C   0  0  0  0  0  3  0  0  0  0  0  0
  189.9090  177.1030  145.2630 C   0  0  0  0  0  0  0  0  0  0  0  0
  190.2430  177.0200  146.6170 C   0  0  0  0  0  3  0  0  0  0  0  0
  186.9190  177.9920  143.0850 C   0  0  0  0  0  0  0  0  0  0  0  0
  185.3890  179.0580  141.5110 C   0  0  0  0  0  0  0  0  0  0  0  0
  184.4950  178.3270  143.7180 C   0  0  0  0  0  2  0  0  0  0  0  0
  186.7400  178.6650  141.9450 C   0  0  0  0  0  3  0  0  0  0  0  0
  185.7840  177.6570  143.8930 N   0  0  0  0  0  2  0  0  0  0  0  0
  184.3350  178.8570  142.3180 C   0  0  0  0  0  3  0  0  0  0  0  0
  185.2360  179.6160  140.2370 O   0  0  0  0  0  0  0  0  0  0  0  0
  184.1610  179.2810  139.3680 C   0  0  0  0  0  1  0  0  0  0  0  0
  189.0770  177.2670  141.0580 C   0  0  0  0  0  3  0  0  0  0  0  0
  189.8020  177.9650  140.1890 C   0  0  0  0  0  3  0  0  0  0  0  0
  190.2100  175.3920  135.5660 C   0  0  0  0  0  0  0  0  0  0  0  0
  190.5040  175.6810  137.9820 C   0  0  0  0  0  3  0  0  0  0  0  0
  188.9030  178.5670  136.8010 O   0  0  0  0  0  0  0  0  0  0  0  0
  188.9560  178.9230  138.0580 N   0  0  0  0  0  0  0  0  0  0  0  0
  190.3920  174.5620  134.3470 C   0  0  0  0  0  1  0  0  0  0  0  0
  189.5600  177.9210  138.7410 C   0  0  0  0  0  0  0  0  0  0  0  0
  190.6650  174.9110  136.8150 C   0  0  0  0  0  3  0  0  0  0  0  0
  189.4420  177.3850  136.6400 C   0  0  0  0  0  0  0  0  0  0  0  0
  189.8820  176.9200  137.8470 C   0  0  0  0  0  0  0  0  0  0  0  0
  189.5860  176.6500  135.4670 C   0  0  0  0  0  3  0  0  0  0  0  0
  1  2  1  0  0  0  0
  2 10  2  0  0  0  0
  2  4  1  0  0  0  0
  3  8  1  0  0  0  0
  3  6  1  0  0  0  0
  4  3  2  0  0  0  0
  5 10  1  0  0  0  0
  7  9  1  0  0  0  0
  7  1  2  0  0  0  0
  9  5  2  0  0  0  0
 10 11  1  0  0  0  0
 11  8  2  0  0  0  0
 12  1  1  0  0  0  0
 12 16  1  0  0  0  0
 13 15  1  0  0  0  0
 13 17  2  0  0  0  0
 14 16  1  0  0  0  0
 15 12  2  0  0  0  0
 17 14  1  0  0  0  0
 18 13  1  0  0  0  0
 19 18  1  0  0  0  0
 20  7  1  0  0  0  0
 21 20  2  0  0  0  0
 22 28  1  0  0  0  0
 24 25  1  0  0  0  0
 25 27  2  0  0  0  0
 26 22  1  0  0  0  0
 27 21  1  0  0  0  0
 28 23  2  0  0  0  0
 29 24  1  0  0  0  0
 29 30  2  0  0  0  0
 30 23  1  0  0  0  0
 30 27  1  0  0  0  0
 31 22  2  0  0  0  0
 31 29  1  0  0  0  0
M  END
>  <MODEL>
7

>  <REMARK>
 VINA RESULT:     -10.2      2.559      5.668
  Name = 
  4 active torsions:
  status: ('A' for Active; 'I' for Inactive)
    1  A    between atoms: O_2  and  C_13
    2  A    between atoms: C_4  and  C_12
    3  A    between atoms: C_9  and  C_23
    4  A    between atoms: C_15  and  C_21
                            x       y       z     vdW  Elec       q    Type
                         _______ _______ _______ _____ _____    ______ ____

>  <TORSDO>
F 4

$$$$
=
 OpenBabel10272400303D

 31 35  0  0  0  0  0  0  0  0999 V2000
  186.6730  178.1290  144.5980 C   0  0  0  0  0  0  0  0  0  0  0  0
  187.4130  177.9840  145.8010 C   0  0  0  0  0  0  0  0  0  0  0  0
  189.4960  177.5270  146.9790 C   0  0  0  0  0  0  0  0  0  0  0  0
  188.7840  177.6740  145.7860 C   0  0  0  0  0  3  0  0  0  0  0  0
  185.4040  178.4110  147.1030 C   0  0  0  0  0  3  0  0  0  0  0  0
  190.8180  177.2330  146.9460 F   0  0  0  0  0  0  0  0  0  0  0  0
  185.2830  178.4340  144.6750 C   0  0  0  0  0  0  0  0  0  0  0  0
  188.8460  177.6820  148.2050 C   0  0  0  0  0  3  0  0  0  0  0  0
  184.6750  178.5600  145.9270 C   0  0  0  0  0  3  0  0  0  0  0  0
  186.7650  178.1310  147.0500 C   0  0  0  0  0  0  0  0  0  0  0  0
  187.4830  177.9810  148.2400 C   0  0  0  0  0  3  0  0  0  0  0  0
  187.3360  177.8950  143.2960 C   0  0  0  0  0  0  0  0  0  0  0  0
  189.1250  176.9490  141.9330 C   0  0  0  0  0  0  0  0  0  0  0  0
  187.4420  178.4140  140.8260 C   0  0  0  0  0  2  0  0  0  0  0  0
  188.4950  177.2350  143.2330 C   0  0  0  0  0  3  0  0  0  0  0  0
  186.7050  178.3320  142.0870 N   0  0  0  0  0  2  0  0  0  0  0  0
  188.6060  177.4600  140.8050 C   0  0  0  0  0  3  0  0  0  0  0  0
  190.2500  176.1190  141.9070 O   0  0  0  0  0  0  0  0  0  0  0  0
  190.9960  175.7870  143.0730 C   0  0  0  0  0  1  0  0  0  0  0  0
  184.3940  178.6640  143.5160 C   0  0  0  0  0  3  0  0  0  0  0  0
  183.0660  178.5990  143.5470 C   0  0  0  0  0  3  0  0  0  0  0  0
  182.2210  177.9650  138.3460 C   0  0  0  0  0  0  0  0  0  0  0  0
  183.4450  177.6780  140.4500 C   0  0  0  0  0  3  0  0  0  0  0  0
  180.5990  179.5890  141.1840 O   0  0  0  0  0  0  0  0  0  0  0  0
  181.0840  179.5600  142.3980 N   0  0  0  0  0  0  0  0  0  0  0  0
  182.1110  177.7100  136.8860 C   0  0  0  0  0  1  0  0  0  0  0  0
  182.2330  178.8450  142.3620 C   0  0  0  0  0  0  0  0  0  0  0  0
  183.3210  177.4490  139.0670 C   0  0  0  0  0  3  0  0  0  0  0  0
  181.3800  178.9280  140.3670 C   0  0  0  0  0  0  0  0  0  0  0  0
  182.4440  178.4280  141.0630 C   0  0  0  0  0  0  0  0  0  0  0  0
  181.2270  178.7200  139.0000 C   0  0  0  0  0  3  0  0  0  0  0  0
  1  7  2  0  0  0  0
  1  2  1  0  0  0  0
  2 10  1  0  0  0  0
  3  8  2  0  0  0  0
  4  2  2  0  0  0  0
  4  3  1  0  0  0  0
  6  3  1  0  0  0  0
  7  9  1  0  0  0  0
  8 11  1  0  0  0  0
  9  5  2  0  0  0  0
 10  5  1  0  0  0  0
 10 11  2  0  0  0  0
 12  1  1  0  0  0  0
 13 15  1  0  0  0  0
 14 16  1  0  0  0  0
 15 12  2  0  0  0  0
 16 12  1  0  0  0  0
 17 14  1  0  0  0  0
 17 13  2  0  0  0  0
 18 13  1  0  0  0  0
 18 19  1  0  0  0  0
 20 21  2  0  0  0  0
 20  7  1  0  0  0  0
 22 31  2  0  0  0  0
 22 28  1  0  0  0  0
 23 30  1  0  0  0  0
 24 25  1  0  0  0  0
 26 22  1  0  0  0  0
 27 25  2  0  0  0  0
 27 21  1  0  0  0  0
 28 23  2  0  0  0  0
 29 30  2  0  0  0  0
 29 24  1  0  0  0  0
 30 27  1  0  0  0  0
 31 29  1  0  0  0  0
M  END
>  <MODEL>
8

>  <REMARK>
 VINA RESULT:     -10.2      1.742      2.333
  Name = 
  4 active torsions:
  status: ('A' for Active; 'I' for Inactive)
    1  A    between atoms: O_2  and  C_13
    2  A    between atoms: C_4  and  C_12
    3  A    between atoms: C_9  and  C_23
    4  A    between atoms: C_15  and  C_21
                            x       y       z     vdW  Elec       q    Type
                         _______ _______ _______ _____ _____    ______ ____

>  <TORSDO>
F 4

$$$$
=
 OpenBabel10272400303D

 31 35  0  0  0  0  0  0  0  0999 V2000
  187.5200  177.7820  144.5230 C   0  0  0  0  0  0  0  0  0  0  0  0
  187.8930  177.8650  145.8900 C   0  0  0  0  0  0  0  0  0  0  0  0
  189.5620  177.7030  147.6570 C   0  0  0  0  0  0  0  0  0  0  0  0
  189.2140  177.6260  146.3060 C   0  0  0  0  0  3  0  0  0  0  0  0
  185.5970  178.3900  146.4970 C   0  0  0  0  0  3  0  0  0  0  0  0
  190.8410  177.4740  148.0400 F   0  0  0  0  0  0  0  0  0  0  0  0
  186.1640  178.0250  144.1620 C   0  0  0  0  0  0  0  0  0  0  0  0
  188.5940  178.0160  148.6120 C   0  0  0  0  0  3  0  0  0  0  0  0
  185.2270  178.3160  145.1580 C   0  0  0  0  0  3  0  0  0  0  0  0
  186.9190  178.1730  146.8700 C   0  0  0  0  0  0  0  0  0  0  0  0
  187.2740  178.2490  148.2190 C   0  0  0  0  0  3  0  0  0  0  0  0
  188.5230  177.3800  143.5130 C   0  0  0  0  0  0  0  0  0  0  0  0
  190.7160  176.5120  142.8850 C   0  0  0  0  0  0  0  0  0  0  0  0
  189.1950  177.3030  141.0780 C   0  0  0  0  0  2  0  0  0  0  0  0
  189.7370  176.9690  143.8870 C   0  0  0  0  0  3  0  0  0  0  0  0
  188.1740  177.3800  142.1230 N   0  0  0  0  0  2  0  0  0  0  0  0
  190.4420  176.6240  141.5750 C   0  0  0  0  0  3  0  0  0  0  0  0
  191.9110  175.9400  143.3350 O   0  0  0  0  0  0  0  0  0  0  0  0
  191.9850  175.1020  144.4820 C   0  0  0  0  0  1  0  0  0  0  0  0
  185.6350  178.0260  142.7800 C   0  0  0  0  0  3  0  0  0  0  0  0
  185.3380  179.1150  142.0760 C   0  0  0  0  0  3  0  0  0  0  0  0
  181.2210  178.6340  138.7620 C   0  0  0  0  0  0  0  0  0  0  0  0
  182.3040  178.7660  140.9570 C   0  0  0  0  0  3  0  0  0  0  0  0
  184.8410  179.0450  138.5550 O   0  0  0  0  0  0  0  0  0  0  0  0
  185.6130  179.1380  139.6070 N   0  0  0  0  0  0  0  0  0  0  0  0
  179.9820  178.4880  137.9550 C   0  0  0  0  0  1  0  0  0  0  0  0
  184.8210  179.0530  140.7030 C   0  0  0  0  0  0  0  0  0  0  0  0
  181.1420  178.6300  140.1730 C   0  0  0  0  0  3  0  0  0  0  0  0
  183.5920  178.9060  138.9190 C   0  0  0  0  0  0  0  0  0  0  0  0
  183.5150  178.9030  140.2830 C   0  0  0  0  0  0  0  0  0  0  0  0
  182.4640  178.7730  138.1140 C   0  0  0  0  0  3  0  0  0  0  0  0
  1  2  1  0  0  0  0
  2  4  2  0  0  0  0
  2 10  1  0  0  0  0
  3  6  1  0  0  0  0
  3  8  2  0  0  0  0
  4  3  1  0  0  0  0
  5 10  1  0  0  0  0
  7  1  2  0  0  0  0
  7  9  1  0  0  0  0
  9  5  2  0  0  0  0
 10 11  2  0  0  0  0
 11  8  1  0  0  0  0
 12 15  2  0  0  0  0
 12  1  1  0  0  0  0
 13 18  1  0  0  0  0
 13 15  1  0  0  0  0
 14 17  1  0  0  0  0
 14 16  1  0  0  0  0
 16 12  1  0  0  0  0
 17 13  2  0  0  0  0
 18 19  1  0  0  0  0
 20  7  1  0  0  0  0
 21 20  2  0  0  0  0
 22 28  1  0  0  0  0
 24 29  1  0  0  0  0
 24 25  1  0  0  0  0
 25 27  2  0  0  0  0
 26 22  1  0  0  0  0
 27 21  1  0  0  0  0
 28 23  2  0  0  0  0
 29 30  2  0  0  0  0
 30 27  1  0  0  0  0
 30 23  1  0  0  0  0
 31 22  2  0  0  0  0
 31 29  1  0  0  0  0
M  END
>  <MODEL>
9

>  <REMARK>
 VINA RESULT:     -10.1      1.157      1.792
  Name = 
  4 active torsions:
  status: ('A' for Active; 'I' for Inactive)
    1  A    between atoms: O_2  and  C_13
    2  A    between atoms: C_4  and  C_12
    3  A    between atoms: C_9  and  C_23
    4  A    between atoms: C_15  and  C_21
                            x       y       z     vdW  Elec       q    Type
                         _______ _______ _______ _____ _____    ______ ____

>  <TORSDO>
F 4

$$$$
