=
 OpenBabel10272413493D

 30 31  0  0  1  0  0  0  0  0999 V2000
  190.4880  177.3060  145.2270 N   0  0  0  0  0  0  0  0  0  0  0  0
  189.2980  176.9740  145.9870 C   0  0  1  0  0  3  0  0  0  0  0  0
  189.8120  176.3350  147.2680 C   0  0  0  0  0  2  0  0  0  0  0  0
  191.7140  177.1210  145.9780 C   0  0  0  0  0  2  0  0  0  0  0  0
  191.2830  176.7140  147.3730 C   0  0  0  0  0  2  0  0  0  0  0  0
  191.5610  177.9840  143.2680 O   0  0  0  0  0  0  0  0  0  0  0  0
  190.4900  177.6230  143.8280 C   0  0  0  0  0  0  0  0  0  0  0  0
  189.2350  177.4860  143.0090 C   0  0  2  0  0  3  0  0  0  0  0  0
  190.2150  175.3800  142.8990 N   0  0  0  0  0  1  0  0  0  0  0  0
  189.0610  176.1010  142.5560 N   0  0  0  0  0  0  0  0  0  0  0  0
  188.0500  175.5520  143.2710 O   0  0  0  0  0  1  0  0  0  0  0  0
  189.3260  178.4350  141.8140 C   0  0  0  0  0  2  0  0  0  0  0  0
  190.5810  177.6130  139.9510 O   0  0  0  0  0  1  0  0  0  0  0  0
  189.2990  177.6700  140.5000 C   0  0  2  0  0  3  0  0  0  0  0  0
  188.3080  178.2740  139.5040 C   0  0  0  0  0  2  0  0  0  0  0  0
  188.9250  179.0750  137.2100 C   0  0  0  0  0  1  0  0  0  0  0  0
  187.3320  177.2140  137.4910 C   0  0  0  0  0  1  0  0  0  0  0  0
  188.5740  177.8680  138.0580 C   0  0  0  0  0  3  0  0  0  0  0  0
  188.5270  178.2530  146.3070 C   0  0  0  0  0  2  0  0  0  0  0  0
  187.1720  177.9770  146.9500 C   0  0  1  0  0  3  0  0  0  0  0  0
  187.3300  177.9300  148.3340 O   0  0  0  0  0  1  0  0  0  0  0  0
  186.1590  179.0610  146.6050 C   0  0  0  0  0  2  0  0  0  0  0  0
  184.3010  178.2300  142.5070 C   0  0  0  0  0  0  0  0  0  0  0  0
  183.4490  179.2750  143.1480 C   0  0  0  0  0  2  0  0  0  0  0  0
  183.9100  177.7170  141.3160 F   0  0  0  0  0  0  0  0  0  0  0  0
  185.3780  178.7230  145.3800 C   0  0  0  0  0  0  0  0  0  0  0  0
  183.0380  178.8750  144.5240 C   0  0  0  0  0  3  0  0  0  0  0  0
  185.4860  177.8750  143.0030 C   0  0  0  0  0  3  0  0  0  0  0  0
  183.9080  178.6720  145.5120 C   0  0  0  0  0  3  0  0  0  0  0  0
  186.0530  178.3230  144.2910 C   0  0  0  0  0  3  0  0  0  0  0  0
  1  4  1  0  0  0  0
  1  2  1  0  0  0  0
  2 19  1  1  0  0  0
  2  3  1  0  0  0  0
  3  5  1  0  0  0  0
  4  5  1  0  0  0  0
  6  7  2  0  0  0  0
  7  1  1  0  0  0  0
  8 12  1  6  0  0  0
  8  7  1  0  0  0  0
 10  9  1  0  0  0  0
 10  8  1  0  0  0  0
 10 11  1  0  0  0  0
 14 13  1  6  0  0  0
 14 12  1  0  0  0  0
 15 14  1  0  0  0  0
 16 18  1  0  0  0  0
 17 18  1  0  0  0  0
 18 15  1  0  0  0  0
 19 20  1  0  0  0  0
 20 21  1  1  0  0  0
 22 20  1  0  0  0  0
 23 28  2  0  0  0  0
 23 24  1  0  0  0  0
 24 27  1  0  0  0  0
 25 23  1  0  0  0  0
 26 29  1  0  0  0  0
 26 22  1  0  0  0  0
 27 29  2  0  0  0  0
 28 30  1  0  0  0  0
 30 26  2  0  0  0  0
M  END
>  <MODEL>
1

>  <REMARK>
 VINA RESULT:      -8.0      0.000      0.000
  Name = 
  10 active torsions:
  status: ('A' for Active; 'I' for Inactive)
    1  A    between atoms: C_3  and  C_11
    2  A    between atoms: C_3  and  C_19
    3  A    between atoms: N_4  and  C_13
    4  A    between atoms: C_8  and  C_12
    5  A    between atoms: C_8  and  C_13
    6  A    between atoms: C_9  and  C_12
    7  A    between atoms: C_9  and  C_21
    8  A    between atoms: C_10  and  C_25
    9  A    between atoms: C_11  and  C_25
   10  A    between atoms: C_13  and  C_30
                            x       y       z     vdW  Elec       q    Type
                         _______ _______ _______ _____ _____    ______ ____

>  <TORSDO>
F 10

$$$$
=
 OpenBabel10272413493D

 30 31  0  0  1  0  0  0  0  0999 V2000
  185.0770  177.9670  138.2630 N   0  0  0  0  0  0  0  0  0  0  0  0
  184.7500  178.7950  139.4090 C   0  0  1  0  0  3  0  0  0  0  0  0
  183.3010  179.2090  139.1960 C   0  0  0  0  0  2  0  0  0  0  0  0
  183.9270  177.6520  137.4400 C   0  0  0  0  0  2  0  0  0  0  0  0
  182.7340  178.2550  138.1540 C   0  0  0  0  0  2  0  0  0  0  0  0
  186.6020  176.8290  136.9110 O   0  0  0  0  0  0  0  0  0  0  0  0
  186.4150  177.6250  137.8710 C   0  0  0  0  0  0  0  0  0  0  0  0
  187.5990  178.2420  138.5650 C   0  0  2  0  0  3  0  0  0  0  0  0
  189.1420  178.3020  136.8260 N   0  0  0  0  0  1  0  0  0  0  0  0
  188.3420  179.1120  137.6450 N   0  0  0  0  0  0  0  0  0  0  0  0
  187.4470  179.7090  136.8210 O   0  0  0  0  0  1  0  0  0  0  0  0
  188.4970  177.1210  139.0870 C   0  0  0  0  0  2  0  0  0  0  0  0
  190.8200  177.0690  139.6570 O   0  0  0  0  0  1  0  0  0  0  0  0
  189.6010  177.6700  139.9780 C   0  0  2  0  0  3  0  0  0  0  0  0
  189.2830  177.4940  141.4630 C   0  0  0  0  0  2  0  0  0  0  0  0
  190.3050  175.7500  142.9460 C   0  0  0  0  0  1  0  0  0  0  0  0
  190.6890  178.1440  143.3940 C   0  0  0  0  0  1  0  0  0  0  0  0
  190.4960  177.1110  142.3040 C   0  0  0  0  0  3  0  0  0  0  0  0
  184.8800  177.9680  140.6860 C   0  0  0  0  0  2  0  0  0  0  0  0
  185.6910  178.6780  141.7650 C   0  0  1  0  0  3  0  0  0  0  0  0
  186.1330  179.9020  141.2650 O   0  0  0  0  0  1  0  0  0  0  0  0
  184.8580  178.9270  143.0160 C   0  0  0  0  0  2  0  0  0  0  0  0
  186.8850  178.1340  147.0420 C   0  0  0  0  0  0  0  0  0  0  0  0
  187.9510  178.0100  146.0050 C   0  0  0  0  0  2  0  0  0  0  0  0
  187.1930  177.8400  148.3270 F   0  0  0  0  0  0  0  0  0  0  0  0
  185.5600  178.4700  144.2510 C   0  0  0  0  0  0  0  0  0  0  0  0
  187.5380  177.0930  144.9030 C   0  0  0  0  0  3  0  0  0  0  0  0
  185.6810  178.6380  146.7680 C   0  0  0  0  0  3  0  0  0  0  0  0
  186.4950  177.3350  144.1100 C   0  0  0  0  0  3  0  0  0  0  0  0
  185.1780  178.9940  145.4260 C   0  0  0  0  0  3  0  0  0  0  0  0
  1  2  1  0  0  0  0
  2 19  1  1  0  0  0
  3  2  1  0  0  0  0
  4  5  1  0  0  0  0
  4  1  1  0  0  0  0
  5  3  1  0  0  0  0
  6  7  2  0  0  0  0
  7  1  1  0  0  0  0
  7  8  1  0  0  0  0
  8 12  1  6  0  0  0
  9 10  1  0  0  0  0
 10  8  1  0  0  0  0
 11 10  1  0  0  0  0
 12 14  1  0  0  0  0
 14 13  1  6  0  0  0
 14 15  1  0  0  0  0
 15 18  1  0  0  0  0
 18 16  1  0  0  0  0
 18 17  1  0  0  0  0
 19 20  1  0  0  0  0
 20 21  1  6  0  0  0
 20 22  1  0  0  0  0
 22 26  1  0  0  0  0
 23 25  1  0  0  0  0
 24 23  1  0  0  0  0
 26 30  2  0  0  0  0
 27 24  1  0  0  0  0
 28 23  2  0  0  0  0
 29 26  1  0  0  0  0
 29 27  2  0  0  0  0
 30 28  1  0  0  0  0
M  END
>  <MODEL>
2

>  <REMARK>
 VINA RESULT:      -8.0      3.449      6.537
  Name = 
  10 active torsions:
  status: ('A' for Active; 'I' for Inactive)
    1  A    between atoms: C_3  and  C_11
    2  A    between atoms: C_3  and  C_19
    3  A    between atoms: N_4  and  C_13
    4  A    between atoms: C_8  and  C_12
    5  A    between atoms: C_8  and  C_13
    6  A    between atoms: C_9  and  C_12
    7  A    between atoms: C_9  and  C_21
    8  A    between atoms: C_10  and  C_25
    9  A    between atoms: C_11  and  C_25
   10  A    between atoms: C_13  and  C_30
                            x       y       z     vdW  Elec       q    Type
                         _______ _______ _______ _____ _____    ______ ____

>  <TORSDO>
F 10

$$$$
=
 OpenBabel10272413493D

 30 31  0  0  1  0  0  0  0  0999 V2000
  185.3610  176.7660  137.3490 N   0  0  0  0  0  0  0  0  0  0  0  0
  184.4510  177.7940  137.8170 C   0  0  1  0  0  3  0  0  0  0  0  0
  183.2000  177.6320  136.9650 C   0  0  0  0  0  2  0  0  0  0  0  0
  184.7460  175.8400  136.4180 C   0  0  0  0  0  2  0  0  0  0  0  0
  183.2880  176.2480  136.3370 C   0  0  0  0  0  2  0  0  0  0  0  0
  187.4690  175.7660  137.2540 O   0  0  0  0  0  0  0  0  0  0  0  0
  186.7680  176.7460  137.6290 C   0  0  0  0  0  0  0  0  0  0  0  0
  187.4270  177.9030  138.3280 C   0  0  2  0  0  3  0  0  0  0  0  0
  188.9670  179.5210  137.6790 N   0  0  0  0  0  1  0  0  0  0  0  0
  187.7020  178.9910  137.3820 N   0  0  0  0  0  0  0  0  0  0  0  0
  187.8040  178.4510  136.1430 O   0  0  0  0  0  1  0  0  0  0  0  0
  188.7230  177.4110  138.9720 C   0  0  0  0  0  2  0  0  0  0  0  0
  187.9810  178.6860  140.8560 O   0  0  0  0  0  1  0  0  0  0  0  0
  188.6620  177.5240  140.4880 C   0  0  2  0  0  3  0  0  0  0  0  0
  190.0530  177.4850  141.1230 C   0  0  0  0  0  2  0  0  0  0  0  0
  188.9730  176.1850  142.9750 C   0  0  0  0  0  1  0  0  0  0  0  0
  191.3840  176.6960  143.0550 C   0  0  0  0  0  1  0  0  0  0  0  0
  190.2260  176.3610  142.1400 C   0  0  0  0  0  3  0  0  0  0  0  0
  184.1230  177.5500  139.2880 C   0  0  0  0  0  2  0  0  0  0  0  0
  184.4780  178.7400  140.1730 C   0  0  1  0  0  3  0  0  0  0  0  0
  184.6280  179.8700  139.3720 O   0  0  0  0  0  1  0  0  0  0  0  0
  183.3930  179.0090  141.2090 C   0  0  0  0  0  2  0  0  0  0  0  0
  184.4720  178.6790  145.6440 C   0  0  0  0  0  0  0  0  0  0  0  0
  185.7450  178.9800  144.9250 C   0  0  0  0  0  2  0  0  0  0  0  0
  184.5230  178.4230  146.9720 F   0  0  0  0  0  0  0  0  0  0  0  0
  183.8690  178.7330  142.5960 C   0  0  0  0  0  0  0  0  0  0  0  0
  185.9590  178.0500  143.7790 C   0  0  0  0  0  3  0  0  0  0  0  0
  183.2810  178.7730  145.0520 C   0  0  0  0  0  3  0  0  0  0  0  0
  185.1340  177.9830  142.7350 C   0  0  0  0  0  3  0  0  0  0  0  0
  183.0470  179.0260  143.6160 C   0  0  0  0  0  3  0  0  0  0  0  0
  1  7  1  0  0  0  0
  1  2  1  0  0  0  0
  2 19  1  1  0  0  0
  3  2  1  0  0  0  0
  4  1  1  0  0  0  0
  5  4  1  0  0  0  0
  5  3  1  0  0  0  0
  6  7  2  0  0  0  0
  7  8  1  0  0  0  0
  8 12  1  6  0  0  0
 10  9  1  0  0  0  0
 10  8  1  0  0  0  0
 11 10  1  0  0  0  0
 12 14  1  0  0  0  0
 14 13  1  6  0  0  0
 14 15  1  0  0  0  0
 15 18  1  0  0  0  0
 18 16  1  0  0  0  0
 18 17  1  0  0  0  0
 19 20  1  0  0  0  0
 20 21  1  6  0  0  0
 20 22  1  0  0  0  0
 22 26  1  0  0  0  0
 23 25  1  0  0  0  0
 24 23  1  0  0  0  0
 26 29  1  0  0  0  0
 26 30  2  0  0  0  0
 27 24  1  0  0  0  0
 28 23  2  0  0  0  0
 29 27  2  0  0  0  0
 30 28  1  0  0  0  0
M  END
>  <MODEL>
3

>  <REMARK>
 VINA RESULT:      -7.8      3.523      6.892
  Name = 
  10 active torsions:
  status: ('A' for Active; 'I' for Inactive)
    1  A    between atoms: C_3  and  C_11
    2  A    between atoms: C_3  and  C_19
    3  A    between atoms: N_4  and  C_13
    4  A    between atoms: C_8  and  C_12
    5  A    between atoms: C_8  and  C_13
    6  A    between atoms: C_9  and  C_12
    7  A    between atoms: C_9  and  C_21
    8  A    between atoms: C_10  and  C_25
    9  A    between atoms: C_11  and  C_25
   10  A    between atoms: C_13  and  C_30
                            x       y       z     vdW  Elec       q    Type
                         _______ _______ _______ _____ _____    ______ ____

>  <TORSDO>
F 10

$$$$
=
 OpenBabel10272413493D

 30 31  0  0  1  0  0  0  0  0999 V2000
  190.1720  177.3640  145.3150 N   0  0  0  0  0  0  0  0  0  0  0  0
  189.9310  178.4290  144.3590 C   0  0  1  0  0  3  0  0  0  0  0  0
  191.1870  178.4820  143.5020 C   0  0  0  0  0  2  0  0  0  0  0  0
  191.3730  176.6040  145.0300 C   0  0  0  0  0  2  0  0  0  0  0  0
  191.9160  177.1670  143.7320 C   0  0  0  0  0  2  0  0  0  0  0  0
  189.6360  176.1670  147.2460 O   0  0  0  0  0  0  0  0  0  0  0  0
  189.4120  177.1720  146.5170 C   0  0  0  0  0  0  0  0  0  0  0  0
  188.3800  178.1800  146.9410 C   0  0  2  0  0  3  0  0  0  0  0  0
  187.8430  177.6550  149.1430 N   0  0  0  0  0  1  0  0  0  0  0  0
  188.5700  178.5550  148.3480 N   0  0  0  0  0  0  0  0  0  0  0  0
  189.8740  178.3600  148.6590 O   0  0  0  0  0  1  0  0  0  0  0  0
  186.9910  177.5760  146.7290 C   0  0  0  0  0  2  0  0  0  0  0  0
  185.0340  178.9000  147.1050 O   0  0  0  0  0  1  0  0  0  0  0  0
  186.0230  178.6050  146.1650 C   0  0  2  0  0  3  0  0  0  0  0  0
  185.4000  178.1450  144.8470 C   0  0  0  0  0  2  0  0  0  0  0  0
  183.1610  179.0190  144.1350 C   0  0  0  0  0  1  0  0  0  0  0  0
  185.1230  179.2800  142.6640 C   0  0  0  0  0  1  0  0  0  0  0  0
  184.6590  179.2530  144.1050 C   0  0  0  0  0  3  0  0  0  0  0  0
  188.7200  178.0760  143.5000 C   0  0  0  0  0  2  0  0  0  0  0  0
  189.0910  177.2440  142.2770 C   0  0  1  0  0  3  0  0  0  0  0  0
  188.7090  175.9220  142.4970 O   0  0  0  0  0  1  0  0  0  0  0  0
  188.3940  177.7560  141.0210 C   0  0  0  0  0  2  0  0  0  0  0  0
  190.2980  176.6990  136.9970 C   0  0  0  0  0  0  0  0  0  0  0  0
  191.0000  175.8730  138.0220 C   0  0  0  0  0  2  0  0  0  0  0  0
  190.7410  176.6600  135.7180 F   0  0  0  0  0  0  0  0  0  0  0  0
  189.1990  177.4910  139.7930 C   0  0  0  0  0  0  0  0  0  0  0  0
  191.4820  176.7070  139.1590 C   0  0  0  0  0  3  0  0  0  0  0  0
  189.1810  177.3740  137.2700 C   0  0  0  0  0  3  0  0  0  0  0  0
  190.6630  177.3880  139.9590 C   0  0  0  0  0  3  0  0  0  0  0  0
  188.5730  177.5330  138.6070 C   0  0  0  0  0  3  0  0  0  0  0  0
  1  7  1  0  0  0  0
  2 19  1  6  0  0  0
  2  1  1  0  0  0  0
  3  5  1  0  0  0  0
  3  2  1  0  0  0  0
  4  1  1  0  0  0  0
  5  4  1  0  0  0  0
  7  8  1  0  0  0  0
  7  6  2  0  0  0  0
  8 12  1  1  0  0  0
  8 10  1  0  0  0  0
 10 11  1  0  0  0  0
 10  9  1  0  0  0  0
 14 12  1  0  0  0  0
 14 13  1  1  0  0  0
 15 14  1  0  0  0  0
 17 18  1  0  0  0  0
 18 16  1  0  0  0  0
 18 15  1  0  0  0  0
 20 21  1  1  0  0  0
 20 19  1  0  0  0  0
 22 20  1  0  0  0  0
 23 28  2  0  0  0  0
 23 24  1  0  0  0  0
 24 27  1  0  0  0  0
 25 23  1  0  0  0  0
 26 29  1  0  0  0  0
 26 22  1  0  0  0  0
 27 29  2  0  0  0  0
 28 30  1  0  0  0  0
 30 26  2  0  0  0  0
M  END
>  <MODEL>
4

>  <REMARK>
 VINA RESULT:      -7.7      2.478      6.469
  Name = 
  10 active torsions:
  status: ('A' for Active; 'I' for Inactive)
    1  A    between atoms: C_3  and  C_11
    2  A    between atoms: C_3  and  C_19
    3  A    between atoms: N_4  and  C_13
    4  A    between atoms: C_8  and  C_12
    5  A    between atoms: C_8  and  C_13
    6  A    between atoms: C_9  and  C_12
    7  A    between atoms: C_9  and  C_21
    8  A    between atoms: C_10  and  C_25
    9  A    between atoms: C_11  and  C_25
   10  A    between atoms: C_13  and  C_30
                            x       y       z     vdW  Elec       q    Type
                         _______ _______ _______ _____ _____    ______ ____

>  <TORSDO>
F 10

$$$$
=
 OpenBabel10272413493D

 30 31  0  0  1  0  0  0  0  0999 V2000
  181.4550  178.7180  141.6270 N   0  0  0  0  0  0  0  0  0  0  0  0
  182.6470  179.0970  142.3640 C   0  0  1  0  0  3  0  0  0  0  0  0
  182.2090  179.1540  143.8200 C   0  0  0  0  0  2  0  0  0  0  0  0
  180.3510  178.3380  142.4860 C   0  0  0  0  0  2  0  0  0  0  0  0
  180.8940  178.3930  143.9000 C   0  0  0  0  0  2  0  0  0  0  0  0
  180.2670  178.4220  139.6400 O   0  0  0  0  0  0  0  0  0  0  0  0
  181.3060  178.8590  140.2070 C   0  0  0  0  0  0  0  0  0  0  0  0
  182.3560  179.5620  139.3910 C   0  0  2  0  0  3  0  0  0  0  0  0
  182.6510  181.7530  138.6710 N   0  0  0  0  0  1  0  0  0  0  0  0
  181.7640  180.6670  138.6270 N   0  0  0  0  0  0  0  0  0  0  0  0
  181.7010  180.2880  137.3280 O   0  0  0  0  0  1  0  0  0  0  0  0
  183.0060  178.5460  138.4520 C   0  0  0  0  0  2  0  0  0  0  0  0
  185.0460  179.6240  139.0870 O   0  0  0  0  0  1  0  0  0  0  0  0
  184.4890  178.3880  138.7540 C   0  0  2  0  0  3  0  0  0  0  0  0
  185.2460  177.7460  137.5900 C   0  0  0  0  0  2  0  0  0  0  0  0
  187.2590  178.7500  136.4830 C   0  0  0  0  0  1  0  0  0  0  0  0
  187.4330  176.5890  137.6580 C   0  0  0  0  0  1  0  0  0  0  0  0
  186.7570  177.9440  137.6650 C   0  0  0  0  0  3  0  0  0  0  0  0
  183.7200  178.0280  142.1760 C   0  0  0  0  0  2  0  0  0  0  0  0
  185.0850  178.4700  142.6930 C   0  0  1  0  0  3  0  0  0  0  0  0
  185.3390  179.7660  142.2470 O   0  0  0  0  0  1  0  0  0  0  0  0
  185.1380  178.4530  144.2160 C   0  0  0  0  0  2  0  0  0  0  0  0
  189.0590  177.1890  146.2080 C   0  0  0  0  0  0  0  0  0  0  0  0
  189.3980  177.5300  144.7950 C   0  0  0  0  0  2  0  0  0  0  0  0
  190.0280  176.6770  147.0020 F   0  0  0  0  0  0  0  0  0  0  0  0
  186.4180  177.8790  144.7210 C   0  0  0  0  0  0  0  0  0  0  0  0
  188.5010  176.8270  143.8330 C   0  0  0  0  0  3  0  0  0  0  0  0
  187.8750  177.4840  146.7470 C   0  0  0  0  0  3  0  0  0  0  0  0
  187.1850  177.0250  143.7910 C   0  0  0  0  0  3  0  0  0  0  0  0
  186.7080  178.0270  146.0230 C   0  0  0  0  0  3  0  0  0  0  0  0
  1  2  1  0  0  0  0
  1  4  1  0  0  0  0
  2 19  1  1  0  0  0
  2  3  1  0  0  0  0
  3  5  1  0  0  0  0
  4  5  1  0  0  0  0
  6  7  2  0  0  0  0
  7  1  1  0  0  0  0
  8 12  1  6  0  0  0
  8  7  1  0  0  0  0
 10  9  1  0  0  0  0
 10  8  1  0  0  0  0
 11 10  1  0  0  0  0
 12 14  1  0  0  0  0
 14 13  1  6  0  0  0
 15 18  1  0  0  0  0
 15 14  1  0  0  0  0
 16 18  1  0  0  0  0
 17 18  1  0  0  0  0
 19 20  1  0  0  0  0
 20 21  1  1  0  0  0
 20 22  1  0  0  0  0
 22 26  1  0  0  0  0
 23 28  2  0  0  0  0
 23 25  1  0  0  0  0
 24 23  1  0  0  0  0
 26 30  2  0  0  0  0
 27 24  1  0  0  0  0
 29 27  2  0  0  0  0
 29 26  1  0  0  0  0
 30 28  1  0  0  0  0
M  END
>  <MODEL>
5

>  <REMARK>
 VINA RESULT:      -7.5      4.646      7.266
  Name = 
  10 active torsions:
  status: ('A' for Active; 'I' for Inactive)
    1  A    between atoms: C_3  and  C_11
    2  A    between atoms: C_3  and  C_19
    3  A    between atoms: N_4  and  C_13
    4  A    between atoms: C_8  and  C_12
    5  A    between atoms: C_8  and  C_13
    6  A    between atoms: C_9  and  C_12
    7  A    between atoms: C_9  and  C_21
    8  A    between atoms: C_10  and  C_25
    9  A    between atoms: C_11  and  C_25
   10  A    between atoms: C_13  and  C_30
                            x       y       z     vdW  Elec       q    Type
                         _______ _______ _______ _____ _____    ______ ____

>  <TORSDO>
F 10

$$$$
=
 OpenBabel10272413493D

 30 31  0  0  1  0  0  0  0  0999 V2000
  188.0910  178.0580  138.5900 N   0  0  0  0  0  0  0  0  0  0  0  0
  188.3480  177.2380  139.7590 C   0  0  1  0  0  3  0  0  0  0  0  0
  189.7940  176.7870  139.6150 C   0  0  0  0  0  2  0  0  0  0  0  0
  189.2830  178.3350  137.8140 C   0  0  0  0  0  2  0  0  0  0  0  0
  190.4300  177.7130  138.5880 C   0  0  0  0  0  2  0  0  0  0  0  0
  186.6540  179.2140  137.1590 O   0  0  0  0  0  0  0  0  0  0  0  0
  186.7810  178.4260  138.1360 C   0  0  0  0  0  0  0  0  0  0  0  0
  185.5530  177.8470  138.7840 C   0  0  2  0  0  3  0  0  0  0  0  0
  183.9780  176.2870  138.0830 N   0  0  0  0  0  1  0  0  0  0  0  0
  184.5320  177.5380  137.7750 N   0  0  0  0  0  0  0  0  0  0  0  0
  183.5270  178.4360  137.9120 O   0  0  0  0  0  1  0  0  0  0  0  0
  185.0170  178.8530  139.8020 C   0  0  0  0  0  2  0  0  0  0  0  0
  183.2950  177.7320  141.0280 O   0  0  0  0  0  1  0  0  0  0  0  0
  184.6200  178.1650  141.1000 C   0  0  2  0  0  3  0  0  0  0  0  0
  184.8310  179.0680  142.3160 C   0  0  0  0  0  2  0  0  0  0  0  0
  182.9410  179.2850  143.9480 C   0  0  0  0  0  1  0  0  0  0  0  0
  185.1950  178.6620  144.7310 C   0  0  0  0  0  1  0  0  0  0  0  0
  184.2030  178.5230  143.5950 C   0  0  0  0  0  3  0  0  0  0  0  0
  188.1820  178.0840  141.0190 C   0  0  0  0  0  2  0  0  0  0  0  0
  189.1770  177.7090  142.1130 C   0  0  1  0  0  3  0  0  0  0  0  0
  189.6970  178.8760  142.6700 O   0  0  0  0  0  1  0  0  0  0  0  0
  188.5140  176.8900  143.2140 C   0  0  0  0  0  2  0  0  0  0  0  0
  191.0470  176.7400  147.0220 C   0  0  0  0  0  0  0  0  0  0  0  0
  189.6280  176.5900  147.4570 C   0  0  0  0  0  2  0  0  0  0  0  0
  192.0090  176.8370  147.9690 F   0  0  0  0  0  0  0  0  0  0  0  0
  189.2330  177.0210  144.5140 C   0  0  0  0  0  0  0  0  0  0  0  0
  188.7640  177.6600  146.8810 C   0  0  0  0  0  3  0  0  0  0  0  0
  191.4110  176.6580  145.7410 C   0  0  0  0  0  3  0  0  0  0  0  0
  188.5710  177.8110  145.5720 C   0  0  0  0  0  3  0  0  0  0  0  0
  190.4950  176.5680  144.5870 C   0  0  0  0  0  3  0  0  0  0  0  0
  1  2  1  0  0  0  0
  2 19  1  1  0  0  0
  3  2  1  0  0  0  0
  4  5  1  0  0  0  0
  4  1  1  0  0  0  0
  5  3  1  0  0  0  0
  6  7  2  0  0  0  0
  7  1  1  0  0  0  0
  7  8  1  0  0  0  0
  8 12  1  1  0  0  0
 10 11  1  0  0  0  0
 10  9  1  0  0  0  0
 10  8  1  0  0  0  0
 12 14  1  0  0  0  0
 14 13  1  6  0  0  0
 14 15  1  0  0  0  0
 15 18  1  0  0  0  0
 18 16  1  0  0  0  0
 18 17  1  0  0  0  0
 19 20  1  0  0  0  0
 20 21  1  1  0  0  0
 20 22  1  0  0  0  0
 22 26  1  0  0  0  0
 23 24  1  0  0  0  0
 23 25  1  0  0  0  0
 26 30  2  0  0  0  0
 26 29  1  0  0  0  0
 27 24  1  0  0  0  0
 28 23  2  0  0  0  0
 29 27  2  0  0  0  0
 30 28  1  0  0  0  0
M  END
>  <MODEL>
6

>  <REMARK>
 VINA RESULT:      -7.3      3.548      6.895
  Name = 
  10 active torsions:
  status: ('A' for Active; 'I' for Inactive)
    1  A    between atoms: C_3  and  C_11
    2  A    between atoms: C_3  and  C_19
    3  A    between atoms: N_4  and  C_13
    4  A    between atoms: C_8  and  C_12
    5  A    between atoms: C_8  and  C_13
    6  A    between atoms: C_9  and  C_12
    7  A    between atoms: C_9  and  C_21
    8  A    between atoms: C_10  and  C_25
    9  A    between atoms: C_11  and  C_25
   10  A    between atoms: C_13  and  C_30
                            x       y       z     vdW  Elec       q    Type
                         _______ _______ _______ _____ _____    ______ ____

>  <TORSDO>
F 10

$$$$
=
 OpenBabel10272413493D

 30 31  0  0  1  0  0  0  0  0999 V2000
  189.7220  177.3000  138.5670 N   0  0  0  0  0  0  0  0  0  0  0  0
  188.8760  178.4520  138.8170 C   0  0  1  0  0  3  0  0  0  0  0  0
  188.6420  179.0750  137.4490 C   0  0  0  0  0  2  0  0  0  0  0  0
  189.8920  177.0130  137.1560 C   0  0  0  0  0  2  0  0  0  0  0  0
  189.0150  178.0110  136.4260 C   0  0  0  0  0  2  0  0  0  0  0  0
  191.1030  175.5610  139.2870 O   0  0  0  0  0  0  0  0  0  0  0  0
  190.4610  176.6060  139.5820 C   0  0  0  0  0  0  0  0  0  0  0  0
  190.5150  177.1360  140.9890 C   0  0  2  0  0  3  0  0  0  0  0  0
  192.6810  177.6620  140.3260 N   0  0  0  0  0  1  0  0  0  0  0  0
  191.9060  177.2850  141.4330 N   0  0  0  0  0  0  0  0  0  0  0  0
  191.9590  178.3250  142.2990 O   0  0  0  0  0  1  0  0  0  0  0  0
  189.7590  176.1720  141.9040 C   0  0  0  0  0  2  0  0  0  0  0  0
  190.8270  174.5930  143.3490 O   0  0  0  0  0  1  0  0  0  0  0  0
  190.5110  175.9450  143.2060 C   0  0  2  0  0  3  0  0  0  0  0  0
  189.7270  176.4500  144.4180 C   0  0  0  0  0  2  0  0  0  0  0  0
  191.6170  176.5350  146.0620 C   0  0  0  0  0  1  0  0  0  0  0  0
  189.6290  177.9580  146.3780 C   0  0  0  0  0  1  0  0  0  0  0  0
  190.5480  177.3380  145.3480 C   0  0  0  0  0  3  0  0  0  0  0  0
  187.5520  177.9880  139.4200 C   0  0  0  0  0  2  0  0  0  0  0  0
  187.3750  178.4400  140.8650 C   0  0  1  0  0  3  0  0  0  0  0  0
  188.1900  179.5470  141.0950 O   0  0  0  0  0  1  0  0  0  0  0  0
  185.9290  178.8210  141.1580 C   0  0  0  0  0  2  0  0  0  0  0  0
  184.5000  178.6440  145.5020 C   0  0  0  0  0  0  0  0  0  0  0  0
  185.9910  178.6740  145.5530 C   0  0  0  0  0  2  0  0  0  0  0  0
  183.8150  178.4820  146.6580 F   0  0  0  0  0  0  0  0  0  0  0  0
  185.5670  178.5730  142.5840 C   0  0  0  0  0  0  0  0  0  0  0  0
  186.5890  177.6390  144.6610 C   0  0  0  0  0  3  0  0  0  0  0  0
  183.8210  178.8920  144.3810 C   0  0  0  0  0  3  0  0  0  0  0  0
  186.4200  177.6340  143.3400 C   0  0  0  0  0  3  0  0  0  0  0  0
  184.4070  179.0730  143.0380 C   0  0  0  0  0  3  0  0  0  0  0  0
  1  2  1  0  0  0  0
  1  7  1  0  0  0  0
  2 19  1  6  0  0  0
  3  2  1  0  0  0  0
  4  1  1  0  0  0  0
  5  4  1  0  0  0  0
  5  3  1  0  0  0  0
  6  7  2  0  0  0  0
  7  8  1  0  0  0  0
  8 10  1  0  0  0  0
  8 12  1  1  0  0  0
  9 10  1  0  0  0  0
 10 11  1  0  0  0  0
 12 14  1  0  0  0  0
 14 13  1  1  0  0  0
 14 15  1  0  0  0  0
 15 18  1  0  0  0  0
 18 16  1  0  0  0  0
 18 17  1  0  0  0  0
 19 20  1  0  0  0  0
 20 21  1  6  0  0  0
 20 22  1  0  0  0  0
 22 26  1  0  0  0  0
 23 24  1  0  0  0  0
 23 25  1  0  0  0  0
 26 30  2  0  0  0  0
 26 29  1  0  0  0  0
 27 24  1  0  0  0  0
 28 23  2  0  0  0  0
 29 27  2  0  0  0  0
 30 28  1  0  0  0  0
M  END
>  <MODEL>
7

>  <REMARK>
 VINA RESULT:      -7.2      2.336      5.999
  Name = 
  10 active torsions:
  status: ('A' for Active; 'I' for Inactive)
    1  A    between atoms: C_3  and  C_11
    2  A    between atoms: C_3  and  C_19
    3  A    between atoms: N_4  and  C_13
    4  A    between atoms: C_8  and  C_12
    5  A    between atoms: C_8  and  C_13
    6  A    between atoms: C_9  and  C_12
    7  A    between atoms: C_9  and  C_21
    8  A    between atoms: C_10  and  C_25
    9  A    between atoms: C_11  and  C_25
   10  A    between atoms: C_13  and  C_30
                            x       y       z     vdW  Elec       q    Type
                         _______ _______ _______ _____ _____    ______ ____

>  <TORSDO>
F 10

$$$$
=
 OpenBabel10272413493D

 30 31  0  0  1  0  0  0  0  0999 V2000
  191.1130  176.8330  139.8790 N   0  0  0  0  0  0  0  0  0  0  0  0
  189.9520  176.5350  140.6990 C   0  0  1  0  0  3  0  0  0  0  0  0
  190.4470  176.6370  142.1340 C   0  0  0  0  0  2  0  0  0  0  0  0
  192.2480  177.3040  140.6480 C   0  0  0  0  0  2  0  0  0  0  0  0
  191.7610  177.4020  142.0800 C   0  0  0  0  0  2  0  0  0  0  0  0
  192.2210  176.9120  137.8260 O   0  0  0  0  0  0  0  0  0  0  0  0
  191.2070  176.5390  138.4780 C   0  0  0  0  0  0  0  0  0  0  0  0
  190.1290  175.7520  137.7850 C   0  0  2  0  0  3  0  0  0  0  0  0
  189.5400  173.6760  136.9170 N   0  0  0  0  0  1  0  0  0  0  0  0
  190.4860  174.3290  137.7220 N   0  0  0  0  0  0  0  0  0  0  0  0
  191.6690  174.2240  137.0700 O   0  0  0  0  0  1  0  0  0  0  0  0
  189.9360  176.3200  136.3790 C   0  0  0  0  0  2  0  0  0  0  0  0
  189.2320  178.5560  136.8570 O   0  0  0  0  0  1  0  0  0  0  0  0
  188.8000  177.3310  136.3450 C   0  0  2  0  0  3  0  0  0  0  0  0
  187.5650  176.8330  137.0970 C   0  0  0  0  0  2  0  0  0  0  0  0
  185.7370  178.2100  138.1210 C   0  0  0  0  0  1  0  0  0  0  0  0
  185.2750  176.7890  136.1590 C   0  0  0  0  0  1  0  0  0  0  0  0
  186.3130  177.6630  136.8290 C   0  0  0  0  0  3  0  0  0  0  0  0
  188.8670  177.5770  140.4380 C   0  0  0  0  0  2  0  0  0  0  0  0
  188.3910  178.2600  141.7160 C   0  0  1  0  0  3  0  0  0  0  0  0
  188.8060  179.5910  141.6990 O   0  0  0  0  0  1  0  0  0  0  0  0
  186.8730  178.2190  141.8400 C   0  0  0  0  0  2  0  0  0  0  0  0
  185.2280  178.4140  146.1050 C   0  0  0  0  0  0  0  0  0  0  0  0
  186.7150  178.4130  146.2300 C   0  0  0  0  0  2  0  0  0  0  0  0
  184.4830  178.3590  147.2340 F   0  0  0  0  0  0  0  0  0  0  0  0
  186.4350  178.0910  143.2600 C   0  0  0  0  0  0  0  0  0  0  0  0
  187.3280  177.2990  145.4520 C   0  0  0  0  0  3  0  0  0  0  0  0
  184.6120  178.5900  144.9360 C   0  0  0  0  0  3  0  0  0  0  0  0
  187.2240  177.1940  144.1280 C   0  0  0  0  0  3  0  0  0  0  0  0
  185.2680  178.6520  143.6140 C   0  0  0  0  0  3  0  0  0  0  0  0
  1  4  1  0  0  0  0
  1  2  1  0  0  0  0
  2 19  1  1  0  0  0
  2  3  1  0  0  0  0
  4  5  1  0  0  0  0
  5  3  1  0  0  0  0
  6  7  2  0  0  0  0
  7  1  1  0  0  0  0
  8 12  1  6  0  0  0
  8  7  1  0  0  0  0
  9 10  1  0  0  0  0
 10  8  1  0  0  0  0
 11 10  1  0  0  0  0
 14 12  1  0  0  0  0
 14 13  1  1  0  0  0
 14 15  1  0  0  0  0
 17 18  1  0  0  0  0
 18 15  1  0  0  0  0
 18 16  1  0  0  0  0
 19 20  1  0  0  0  0
 20 21  1  6  0  0  0
 20 22  1  0  0  0  0
 22 26  1  0  0  0  0
 23 24  1  0  0  0  0
 23 25  1  0  0  0  0
 26 30  2  0  0  0  0
 26 29  1  0  0  0  0
 27 24  1  0  0  0  0
 28 23  2  0  0  0  0
 29 27  2  0  0  0  0
 30 28  1  0  0  0  0
M  END
>  <MODEL>
8

>  <REMARK>
 VINA RESULT:      -7.2      2.952      4.863
  Name = 
  10 active torsions:
  status: ('A' for Active; 'I' for Inactive)
    1  A    between atoms: C_3  and  C_11
    2  A    between atoms: C_3  and  C_19
    3  A    between atoms: N_4  and  C_13
    4  A    between atoms: C_8  and  C_12
    5  A    between atoms: C_8  and  C_13
    6  A    between atoms: C_9  and  C_12
    7  A    between atoms: C_9  and  C_21
    8  A    between atoms: C_10  and  C_25
    9  A    between atoms: C_11  and  C_25
   10  A    between atoms: C_13  and  C_30
                            x       y       z     vdW  Elec       q    Type
                         _______ _______ _______ _____ _____    ______ ____

>  <TORSDO>
F 10

$$$$
=
 OpenBabel10272413493D

 30 31  0  0  1  0  0  0  0  0999 V2000
  189.2380  177.4490  145.9910 N   0  0  0  0  0  0  0  0  0  0  0  0
  189.4730  178.1610  144.7480 C   0  0  1  0  0  3  0  0  0  0  0  0
  190.9840  178.1570  144.5710 C   0  0  0  0  0  2  0  0  0  0  0  0
  190.4320  176.8240  146.5240 C   0  0  0  0  0  2  0  0  0  0  0  0
  191.5200  177.0780  145.5000 C   0  0  0  0  0  2  0  0  0  0  0  0
  187.8600  176.7680  147.7480 O   0  0  0  0  0  0  0  0  0  0  0  0
  188.0040  177.4880  146.7210 C   0  0  0  0  0  0  0  0  0  0  0  0
  186.8930  178.4120  146.3030 C   0  0  2  0  0  3  0  0  0  0  0  0
  185.9840  180.2650  147.3740 N   0  0  0  0  0  1  0  0  0  0  0  0
  186.1350  178.8740  147.4720 N   0  0  0  0  0  0  0  0  0  0  0  0
  184.8870  178.3550  147.3920 O   0  0  0  0  0  1  0  0  0  0  0  0
  185.9790  177.6680  145.3300 C   0  0  0  0  0  2  0  0  0  0  0  0
  184.1190  178.9570  144.5520 O   0  0  0  0  0  1  0  0  0  0  0  0
  185.4370  178.6030  144.2590 C   0  0  2  0  0  3  0  0  0  0  0  0
  185.5370  177.9930  142.8600 C   0  0  0  0  0  2  0  0  0  0  0  0
  183.4390  178.1880  141.5020 C   0  0  0  0  0  1  0  0  0  0  0  0
  185.6180  178.7950  140.5200 C   0  0  0  0  0  1  0  0  0  0  0  0
  184.7980  178.7940  141.7930 C   0  0  0  0  0  3  0  0  0  0  0  0
  188.8040  177.4100  143.6000 C   0  0  0  0  0  2  0  0  0  0  0  0
  189.7120  177.2730  142.3810 C   0  0  1  0  0  3  0  0  0  0  0  0
  189.8630  175.9210  142.0810 O   0  0  0  0  0  1  0  0  0  0  0  0
  189.1280  177.9860  141.1670 C   0  0  0  0  0  2  0  0  0  0  0  0
  191.2080  176.5440  137.3540 C   0  0  0  0  0  0  0  0  0  0  0  0
  189.9950  177.2920  136.9120 C   0  0  0  0  0  2  0  0  0  0  0  0
  191.9570  175.9130  136.4200 F   0  0  0  0  0  0  0  0  0  0  0  0
  189.6250  177.4010  139.8880 C   0  0  0  0  0  0  0  0  0  0  0  0
  188.7710  176.8140  137.6170 C   0  0  0  0  0  3  0  0  0  0  0  0
  191.6450  176.5780  138.6140 C   0  0  0  0  0  3  0  0  0  0  0  0
  188.6100  176.9070  138.9360 C   0  0  0  0  0  3  0  0  0  0  0  0
  190.9460  177.2040  139.7540 C   0  0  0  0  0  3  0  0  0  0  0  0
  1  4  1  0  0  0  0
  1  7  1  0  0  0  0
  2 19  1  6  0  0  0
  2  1  1  0  0  0  0
  3  2  1  0  0  0  0
  3  5  1  0  0  0  0
  5  4  1  0  0  0  0
  7  6  2  0  0  0  0
  8 12  1  6  0  0  0
  8  7  1  0  0  0  0
  8 10  1  0  0  0  0
  9 10  1  0  0  0  0
 11 10  1  0  0  0  0
 14 13  1  1  0  0  0
 14 12  1  0  0  0  0
 15 14  1  0  0  0  0
 16 18  1  0  0  0  0
 17 18  1  0  0  0  0
 18 15  1  0  0  0  0
 20 21  1  6  0  0  0
 20 19  1  0  0  0  0
 22 20  1  0  0  0  0
 23 28  2  0  0  0  0
 24 23  1  0  0  0  0
 24 27  1  0  0  0  0
 25 23  1  0  0  0  0
 26 22  1  0  0  0  0
 27 29  2  0  0  0  0
 28 30  1  0  0  0  0
 29 26  1  0  0  0  0
 30 26  2  0  0  0  0
M  END
>  <MODEL>
9

>  <REMARK>
 VINA RESULT:      -7.1      2.845      6.179
  Name = 
  10 active torsions:
  status: ('A' for Active; 'I' for Inactive)
    1  A    between atoms: C_3  and  C_11
    2  A    between atoms: C_3  and  C_19
    3  A    between atoms: N_4  and  C_13
    4  A    between atoms: C_8  and  C_12
    5  A    between atoms: C_8  and  C_13
    6  A    between atoms: C_9  and  C_12
    7  A    between atoms: C_9  and  C_21
    8  A    between atoms: C_10  and  C_25
    9  A    between atoms: C_11  and  C_25
   10  A    between atoms: C_13  and  C_30
                            x       y       z     vdW  Elec       q    Type
                         _______ _______ _______ _____ _____    ______ ____

>  <TORSDO>
F 10

$$$$
