=
 OpenBabel10272400403D

 25 28  0  0  1  0  0  0  0  0999 V2000
  187.3710  178.1760  145.6220 C   0  0  0  0  0  0  0  0  0  0  0  0
  188.6810  177.7610  145.3840 C   0  0  0  0  0  0  0  0  0  0  0  0
  187.5210  177.5890  147.9630 C   0  0  0  0  0  3  0  0  0  0  0  0
  186.3880  178.8330  144.7220 C   0  0  2  0  0  3  0  0  0  0  0  0
  183.6260  178.6760  143.9190 C   0  0  0  0  0  3  0  0  0  0  0  0
  188.8380  177.1470  147.7490 C   0  0  0  0  0  3  0  0  0  0  0  0
  185.2300  178.9660  145.6780 C   0  0  0  0  0  0  0  0  0  0  0  0
  183.8700  179.1240  145.1570 C   0  0  0  0  0  3  0  0  0  0  0  0
  190.7410  176.8150  146.2140 C   0  0  0  0  0  0  0  0  0  0  0  0
  191.6020  176.2480  147.2940 C   0  0  0  0  0  1  0  0  0  0  0  0
  189.2410  177.8590  144.1520 N   0  0  0  0  0  0  0  0  0  0  0  0
  184.6890  177.9960  143.1300 C   0  0  0  0  0  3  0  0  0  0  0  0
  186.8190  178.1140  146.8790 C   0  0  0  0  0  0  0  0  0  0  0  0
  185.4760  178.5700  146.8890 N   0  0  0  0  0  0  0  0  0  0  0  0
  191.2530  176.9330  144.9610 N   0  0  0  0  0  0  0  0  0  0  0  0
  185.9720  178.0090  143.5310 C   0  0  0  0  0  3  0  0  0  0  0  0
  190.5160  177.4410  143.9360 C   0  0  0  0  0  0  0  0  0  0  0  0
  189.4250  177.2320  146.4660 C   0  0  0  0  0  0  0  0  0  0  0  0
  191.1210  177.5800  142.5860 C   0  0  0  0  0  2  0  0  0  0  0  0
  190.3760  176.7670  141.6290 N   0  0  0  0  0  2  0  0  0  0  0  0
  189.9100  177.5780  140.5010 C   0  0  2  0  0  3  0  0  0  0  0  0
  188.4510  177.9930  140.6450 C   0  0  0  0  0  1  0  0  0  0  0  0
  190.2040  176.9390  139.1760 C   0  0  0  0  0  0  0  0  0  0  0  0
  189.9420  177.6390  138.0070 O   0  0  0  0  0  0  0  0  0  0  0  0
  190.7160  175.7890  139.1140 O   0  0  0  0  0  1  0  0  0  0  0  0
  1 13  1  0  0  0  0
  2  1  2  0  0  0  0
  2 18  1  0  0  0  0
  4 16  1  6  0  0  0
  4  1  1  0  0  0  0
  4  7  1  0  0  0  0
  5  8  2  0  0  0  0
  6  3  1  0  0  0  0
  7 14  2  0  0  0  0
  8  7  1  0  0  0  0
  9 18  1  0  0  0  0
  9 10  1  0  0  0  0
 11  2  1  0  0  0  0
 12 16  2  0  0  0  0
 12  5  1  0  0  0  0
 13 14  1  0  0  0  0
 13  3  2  0  0  0  0
 15  9  2  0  0  0  0
 17 11  2  0  0  0  0
 17 15  1  0  0  0  0
 18  6  2  0  0  0  0
 19 17  1  0  0  0  0
 20 19  1  0  0  0  0
 21 22  1  1  0  0  0
 21 20  1  0  0  0  0
 23 21  1  0  0  0  0
 24 23  2  0  0  0  0
 25 23  1  0  0  0  0
M  END
>  <MODEL>
1

>  <REMARK>
 VINA RESULT:      -9.5      0.000      0.000
  Name = 
  4 active torsions:
  status: ('A' for Active; 'I' for Inactive)
    1  A    between atoms: C_2  and  CA_21
    2  A    between atoms: C_6  and  N_15
    3  A    between atoms: C_6  and  C_23
    4  A    between atoms: N_15  and  CA_21
                            x       y       z     vdW  Elec       q    Type
                         _______ _______ _______ _____ _____    ______ ____

>  <TORSDO>
F 4

$$$$
=
 OpenBabel10272400403D

 25 28  0  0  1  0  0  0  0  0999 V2000
  189.0820  177.0810  143.9740 C   0  0  0  0  0  0  0  0  0  0  0  0
  188.2750  177.4510  145.0510 C   0  0  0  0  0  0  0  0  0  0  0  0
  191.0120  176.8190  145.4050 C   0  0  0  0  0  3  0  0  0  0  0  0
  188.7400  176.8500  142.5470 C   0  0  2  0  0  3  0  0  0  0  0  0
  189.6540  177.4840  139.8900 C   0  0  0  0  0  3  0  0  0  0  0  0
  190.2290  177.2050  146.5060 C   0  0  0  0  0  3  0  0  0  0  0  0
  190.1070  176.4870  142.0240 C   0  0  0  0  0  0  0  0  0  0  0  0
  190.3980  176.6220  140.5940 C   0  0  0  0  0  3  0  0  0  0  0  0
  188.0390  177.8950  147.4120 C   0  0  0  0  0  0  0  0  0  0  0  0
  188.5690  177.9910  148.8040 C   0  0  0  0  0  1  0  0  0  0  0  0
  186.9590  177.7380  144.8820 N   0  0  0  0  0  0  0  0  0  0  0  0
  188.6090  178.3090  140.5530 C   0  0  0  0  0  3  0  0  0  0  0  0
  190.4030  176.7520  144.1530 C   0  0  0  0  0  0  0  0  0  0  0  0
  191.0370  176.4250  142.9270 N   0  0  0  0  0  0  0  0  0  0  0  0
  186.7280  178.1730  147.1870 N   0  0  0  0  0  0  0  0  0  0  0  0
  188.2210  178.0610  141.8160 C   0  0  0  0  0  3  0  0  0  0  0  0
  186.1890  178.1050  145.9400 C   0  0  0  0  0  0  0  0  0  0  0  0
  188.8600  177.5190  146.3380 C   0  0  0  0  0  0  0  0  0  0  0  0
  184.7450  178.3900  145.7400 C   0  0  0  0  0  2  0  0  0  0  0  0
  184.5880  179.6760  145.0650 N   0  0  0  0  0  2  0  0  0  0  0  0
  183.7590  179.5410  143.8640 C   0  0  2  0  0  3  0  0  0  0  0  0
  182.4830  178.7490  144.1220 C   0  0  0  0  0  1  0  0  0  0  0  0
  184.5350  179.0250  142.6890 C   0  0  0  0  0  0  0  0  0  0  0  0
  185.4750  179.8450  142.0780 O   0  0  0  0  0  0  0  0  0  0  0  0
  184.3680  177.8490  142.2710 O   0  0  0  0  0  1  0  0  0  0  0  0
  1 13  2  0  0  0  0
  1  2  1  0  0  0  0
  2 18  2  0  0  0  0
  3  6  2  0  0  0  0
  4 16  1  6  0  0  0
  4  1  1  0  0  0  0
  5 12  1  0  0  0  0
  5  8  2  0  0  0  0
  7  4  1  0  0  0  0
  7 14  2  0  0  0  0
  8  7  1  0  0  0  0
  9 10  1  0  0  0  0
 11  2  1  0  0  0  0
 11 17  2  0  0  0  0
 12 16  2  0  0  0  0
 13  3  1  0  0  0  0
 14 13  1  0  0  0  0
 15  9  2  0  0  0  0
 17 15  1  0  0  0  0
 18  6  1  0  0  0  0
 18  9  1  0  0  0  0
 19 17  1  0  0  0  0
 20 19  1  0  0  0  0
 21 22  1  1  0  0  0
 21 20  1  0  0  0  0
 23 21  1  0  0  0  0
 24 23  2  0  0  0  0
 25 23  1  0  0  0  0
M  END
>  <MODEL>
2

>  <REMARK>
 VINA RESULT:      -9.3      2.304      5.464
  Name = 
  4 active torsions:
  status: ('A' for Active; 'I' for Inactive)
    1  A    between atoms: C_2  and  CA_21
    2  A    between atoms: C_6  and  N_15
    3  A    between atoms: C_6  and  C_23
    4  A    between atoms: N_15  and  CA_21
                            x       y       z     vdW  Elec       q    Type
                         _______ _______ _______ _____ _____    ______ ____

>  <TORSDO>
F 4

$$$$
=
 OpenBabel10272400403D

 25 28  0  0  1  0  0  0  0  0999 V2000
  187.6120  177.6530  145.2490 C   0  0  0  0  0  0  0  0  0  0  0  0
  186.7260  178.1060  144.2710 C   0  0  0  0  0  0  0  0  0  0  0  0
  186.0590  178.1890  147.0220 C   0  0  0  0  0  3  0  0  0  0  0  0
  188.9380  176.9940  145.1190 C   0  0  2  0  0  3  0  0  0  0  0  0
  191.6110  177.1020  146.1860 C   0  0  0  0  0  3  0  0  0  0  0  0
  185.1530  178.6680  146.0610 C   0  0  0  0  0  3  0  0  0  0  0  0
  189.2630  176.8100  146.5800 C   0  0  0  0  0  0  0  0  0  0  0  0
  190.6560  176.6310  146.9980 C   0  0  0  0  0  3  0  0  0  0  0  0
  184.5960  179.0820  143.6930 C   0  0  0  0  0  0  0  0  0  0  0  0
  183.2560  179.6450  144.0350 C   0  0  0  0  0  1  0  0  0  0  0  0
  187.0400  178.0500  142.9520 N   0  0  0  0  0  0  0  0  0  0  0  0
  191.2600  177.8260  144.9340 C   0  0  0  0  0  3  0  0  0  0  0  0
  187.2760  177.6720  146.5810 C   0  0  0  0  0  0  0  0  0  0  0  0
  188.3280  177.1840  147.3970 N   0  0  0  0  0  0  0  0  0  0  0  0
  184.9610  179.0050  142.3860 N   0  0  0  0  0  0  0  0  0  0  0  0
  190.0020  177.8340  144.4630 C   0  0  0  0  0  3  0  0  0  0  0  0
  186.1690  178.5030  142.0130 C   0  0  0  0  0  0  0  0  0  0  0  0
  185.4770  178.6270  144.6850 C   0  0  0  0  0  0  0  0  0  0  0  0
  186.5200  178.4110  140.5720 C   0  0  0  0  0  2  0  0  0  0  0  0
  187.9070  178.8250  140.3780 N   0  0  0  0  0  2  0  0  0  0  0  0
  188.6810  177.7730  139.7130 C   0  0  2  0  0  3  0  0  0  0  0  0
  189.7330  177.1560  140.6270 C   0  0  0  0  0  1  0  0  0  0  0  0
  189.2450  178.2210  138.3980 C   0  0  0  0  0  0  0  0  0  0  0  0
  188.9450  179.4910  137.9240 O   0  0  0  0  0  1  0  0  0  0  0  0
  190.0130  177.4730  137.7360 O   0  0  0  0  0  0  0  0  0  0  0  0
  1 13  1  0  0  0  0
  2 18  1  0  0  0  0
  2  1  2  0  0  0  0
  4 16  1  1  0  0  0
  4  1  1  0  0  0  0
  4  7  1  0  0  0  0
  5  8  2  0  0  0  0
  6  3  1  0  0  0  0
  7  8  1  0  0  0  0
  7 14  2  0  0  0  0
  9 10  1  0  0  0  0
  9 18  1  0  0  0  0
 11  2  1  0  0  0  0
 12  5  1  0  0  0  0
 13  3  2  0  0  0  0
 13 14  1  0  0  0  0
 15  9  2  0  0  0  0
 16 12  2  0  0  0  0
 17 15  1  0  0  0  0
 17 11  2  0  0  0  0
 18  6  2  0  0  0  0
 19 17  1  0  0  0  0
 20 19  1  0  0  0  0
 21 20  1  0  0  0  0
 21 22  1  1  0  0  0
 23 21  1  0  0  0  0
 24 23  1  0  0  0  0
 25 23  2  0  0  0  0
M  END
>  <MODEL>
3

>  <REMARK>
 VINA RESULT:      -9.3      1.735      4.727
  Name = 
  4 active torsions:
  status: ('A' for Active; 'I' for Inactive)
    1  A    between atoms: C_2  and  CA_21
    2  A    between atoms: C_6  and  N_15
    3  A    between atoms: C_6  and  C_23
    4  A    between atoms: N_15  and  CA_21
                            x       y       z     vdW  Elec       q    Type
                         _______ _______ _______ _____ _____    ______ ____

>  <TORSDO>
F 4

$$$$
=
 OpenBabel10272400403D

 25 28  0  0  1  0  0  0  0  0999 V2000
  187.6720  177.6150  145.2550 C   0  0  0  0  0  0  0  0  0  0  0  0
  186.8390  178.0730  144.2330 C   0  0  0  0  0  0  0  0  0  0  0  0
  186.0360  178.1650  146.9470 C   0  0  0  0  0  3  0  0  0  0  0  0
  188.9970  176.9460  145.1930 C   0  0  2  0  0  3  0  0  0  0  0  0
  191.6140  177.0370  146.3910 C   0  0  0  0  0  3  0  0  0  0  0  0
  185.1820  178.6500  145.9410 C   0  0  0  0  0  3  0  0  0  0  0  0
  189.2480  176.7630  146.6680 C   0  0  0  0  0  0  0  0  0  0  0  0
  190.6160  176.5740  147.1550 C   0  0  0  0  0  3  0  0  0  0  0  0
  184.7470  179.0640  143.5480 C   0  0  0  0  0  0  0  0  0  0  0  0
  183.3960  179.6370  143.8230 C   0  0  0  0  0  1  0  0  0  0  0  0
  187.2180  178.0130  142.9310 N   0  0  0  0  0  0  0  0  0  0  0  0
  191.3320  177.7610  145.1230 C   0  0  0  0  0  3  0  0  0  0  0  0
  187.2690  177.6390  146.5680 C   0  0  0  0  0  0  0  0  0  0  0  0
  188.2750  177.1440  147.4370 N   0  0  0  0  0  0  0  0  0  0  0  0
  185.1770  178.9830  142.2610 N   0  0  0  0  0  0  0  0  0  0  0  0
  190.0990  177.7780  144.5890 C   0  0  0  0  0  3  0  0  0  0  0  0
  186.3980  178.4710  141.9500 C   0  0  0  0  0  0  0  0  0  0  0  0
  185.5750  178.6050  144.5840 C   0  0  0  0  0  0  0  0  0  0  0  0
  186.8200  178.3740  140.5280 C   0  0  0  0  0  2  0  0  0  0  0  0
  188.2160  178.7850  140.4020 N   0  0  0  0  0  2  0  0  0  0  0  0
  188.9060  177.9930  139.3800 C   0  0  2  0  0  3  0  0  0  0  0  0
  187.9410  177.3260  138.4080 C   0  0  0  0  0  1  0  0  0  0  0  0
  189.8920  177.0310  139.9720 C   0  0  0  0  0  0  0  0  0  0  0  0
  190.4080  176.0110  139.1840 O   0  0  0  0  0  0  0  0  0  0  0  0
  190.2820  177.1570  141.1630 O   0  0  0  0  0  1  0  0  0  0  0  0
  1 13  1  0  0  0  0
  2 18  1  0  0  0  0
  2  1  2  0  0  0  0
  4 16  1  1  0  0  0
  4  1  1  0  0  0  0
  4  7  1  0  0  0  0
  5  8  2  0  0  0  0
  6  3  1  0  0  0  0
  7  8  1  0  0  0  0
  7 14  2  0  0  0  0
  9 10  1  0  0  0  0
  9 18  1  0  0  0  0
 11  2  1  0  0  0  0
 12  5  1  0  0  0  0
 13  3  2  0  0  0  0
 13 14  1  0  0  0  0
 15  9  2  0  0  0  0
 16 12  2  0  0  0  0
 17 15  1  0  0  0  0
 17 11  2  0  0  0  0
 18  6  2  0  0  0  0
 19 17  1  0  0  0  0
 20 19  1  0  0  0  0
 21 22  1  1  0  0  0
 21 23  1  0  0  0  0
 21 20  1  0  0  0  0
 23 25  1  0  0  0  0
 24 23  2  0  0  0  0
M  END
>  <MODEL>
4

>  <REMARK>
 VINA RESULT:      -9.0      1.781      4.709
  Name = 
  4 active torsions:
  status: ('A' for Active; 'I' for Inactive)
    1  A    between atoms: C_2  and  CA_21
    2  A    between atoms: C_6  and  N_15
    3  A    between atoms: C_6  and  C_23
    4  A    between atoms: N_15  and  CA_21
                            x       y       z     vdW  Elec       q    Type
                         _______ _______ _______ _____ _____    ______ ____

>  <TORSDO>
F 4

$$$$
=
 OpenBabel10272400403D

 25 28  0  0  1  0  0  0  0  0999 V2000
  185.6530  178.5280  144.4840 C   0  0  0  0  0  0  0  0  0  0  0  0
  186.9770  178.0930  144.5390 C   0  0  0  0  0  0  0  0  0  0  0  0
  185.3890  178.2890  146.8760 C   0  0  0  0  0  3  0  0  0  0  0  0
  184.8510  179.0390  143.3420 C   0  0  2  0  0  3  0  0  0  0  0  0
  182.2670  178.7450  142.1060 C   0  0  0  0  0  3  0  0  0  0  0  0
  186.7150  177.8310  146.9600 C   0  0  0  0  0  3  0  0  0  0  0  0
  183.5490  179.3000  144.0550 C   0  0  0  0  0  0  0  0  0  0  0  0
  182.3020  179.3700  143.2900 C   0  0  0  0  0  3  0  0  0  0  0  0
  188.8470  177.2940  145.8400 C   0  0  0  0  0  0  0  0  0  0  0  0
  189.4990  176.8970  147.1230 C   0  0  0  0  0  1  0  0  0  0  0  0
  187.7430  178.0150  143.4210 N   0  0  0  0  0  0  0  0  0  0  0  0
  183.4370  177.9660  141.6190 C   0  0  0  0  0  3  0  0  0  0  0  0
  184.8930  178.6450  145.6230 C   0  0  0  0  0  0  0  0  0  0  0  0
  183.5760  179.0870  145.3350 N   0  0  0  0  0  0  0  0  0  0  0  0
  189.5690  177.2330  144.6900 N   0  0  0  0  0  0  0  0  0  0  0  0
  184.6320  178.0470  142.2290 C   0  0  0  0  0  3  0  0  0  0  0  0
  189.0280  177.5800  143.4920 C   0  0  0  0  0  0  0  0  0  0  0  0
  187.5150  177.7330  145.7980 C   0  0  0  0  0  0  0  0  0  0  0  0
  189.8590  177.5260  142.2600 C   0  0  0  0  0  2  0  0  0  0  0  0
  189.0000  177.3120  141.0990 N   0  0  0  0  0  2  0  0  0  0  0  0
  189.7970  177.0540  139.8960 C   0  0  2  0  0  3  0  0  0  0  0  0
  191.2880  177.2730  140.1260 C   0  0  0  0  0  1  0  0  0  0  0  0
  189.2800  177.7920  138.6980 C   0  0  0  0  0  0  0  0  0  0  0  0
  188.9550  179.1370  138.8110 O   0  0  0  0  0  1  0  0  0  0  0  0
  189.1690  177.2160  137.5830 O   0  0  0  0  0  0  0  0  0  0  0  0
  1  2  2  0  0  0  0
  1 13  1  0  0  0  0
  2 18  1  0  0  0  0
  3  6  1  0  0  0  0
  4 16  1  6  0  0  0
  4  7  1  0  0  0  0
  4  1  1  0  0  0  0
  5  8  2  0  0  0  0
  7 14  2  0  0  0  0
  8  7  1  0  0  0  0
  9 10  1  0  0  0  0
 11 17  2  0  0  0  0
 11  2  1  0  0  0  0
 12  5  1  0  0  0  0
 12 16  2  0  0  0  0
 13  3  2  0  0  0  0
 14 13  1  0  0  0  0
 15  9  2  0  0  0  0
 17 15  1  0  0  0  0
 18  9  1  0  0  0  0
 18  6  2  0  0  0  0
 19 17  1  0  0  0  0
 20 19  1  0  0  0  0
 21 22  1  1  0  0  0
 21 20  1  0  0  0  0
 23 24  1  0  0  0  0
 23 21  1  0  0  0  0
 25 23  2  0  0  0  0
M  END
>  <MODEL>
5

>  <REMARK>
 VINA RESULT:      -8.9      1.342      2.075
  Name = 
  4 active torsions:
  status: ('A' for Active; 'I' for Inactive)
    1  A    between atoms: C_2  and  CA_21
    2  A    between atoms: C_6  and  N_15
    3  A    between atoms: C_6  and  C_23
    4  A    between atoms: N_15  and  CA_21
                            x       y       z     vdW  Elec       q    Type
                         _______ _______ _______ _____ _____    ______ ____

>  <TORSDO>
F 4

$$$$
=
 OpenBabel10272400403D

 25 28  0  0  1  0  0  0  0  0999 V2000
  186.7730  177.8570  142.9270 C   0  0  0  0  0  0  0  0  0  0  0  0
  188.0640  177.5120  142.5250 C   0  0  0  0  0  0  0  0  0  0  0  0
  186.2400  178.7400  140.7400 C   0  0  0  0  0  3  0  0  0  0  0  0
  186.0620  177.6110  144.2090 C   0  0  2  0  0  3  0  0  0  0  0  0
  184.4220  178.9540  146.1580 C   0  0  0  0  0  3  0  0  0  0  0  0
  187.5400  178.4200  140.3120 C   0  0  0  0  0  3  0  0  0  0  0  0
  184.7410  178.2600  143.8850 C   0  0  0  0  0  0  0  0  0  0  0  0
  183.8600  178.6980  144.9700 C   0  0  0  0  0  3  0  0  0  0  0  0
  189.7570  177.4550  140.8050 C   0  0  0  0  0  0  0  0  0  0  0  0
  190.2560  177.7210  139.4240 C   0  0  0  0  0  1  0  0  0  0  0  0
  188.9320  176.9090  143.3770 N   0  0  0  0  0  0  0  0  0  0  0  0
  185.8950  178.8470  146.3450 C   0  0  0  0  0  3  0  0  0  0  0  0
  185.8830  178.4300  142.0510 C   0  0  0  0  0  0  0  0  0  0  0  0
  184.6390  178.7120  142.6720 N   0  0  0  0  0  0  0  0  0  0  0  0
  190.5870  176.8540  141.6990 N   0  0  0  0  0  0  0  0  0  0  0  0
  186.6770  178.2790  145.4110 C   0  0  0  0  0  3  0  0  0  0  0  0
  190.1880  176.5880  142.9720 C   0  0  0  0  0  0  0  0  0  0  0  0
  188.4550  177.8040  141.1960 C   0  0  0  0  0  0  0  0  0  0  0  0
  191.1160  175.9050  143.9110 C   0  0  0  0  0  2  0  0  0  0  0  0
  191.5320  176.8380  144.9540 N   0  0  0  0  0  2  0  0  0  0  0  0
  190.9650  176.4600  146.2530 C   0  0  2  0  0  3  0  0  0  0  0  0
  189.8530  177.4010  146.7000 C   0  0  0  0  0  1  0  0  0  0  0  0
  192.0180  176.2650  147.3020 C   0  0  0  0  0  0  0  0  0  0  0  0
  192.9160  175.2130  147.1810 O   0  0  0  0  0  0  0  0  0  0  0  0
  192.1180  177.0620  148.2720 O   0  0  0  0  0  1  0  0  0  0  0  0
  1  4  1  0  0  0  0
  2  1  1  0  0  0  0
  2 11  1  0  0  0  0
  3 13  1  0  0  0  0
  4 16  1  1  0  0  0
  5 12  1  0  0  0  0
  6  3  2  0  0  0  0
  6 18  1  0  0  0  0
  7  4  1  0  0  0  0
  7  8  1  0  0  0  0
  8  5  2  0  0  0  0
  9 18  1  0  0  0  0
  9 15  2  0  0  0  0
 10  9  1  0  0  0  0
 13 14  1  0  0  0  0
 13  1  2  0  0  0  0
 14  7  2  0  0  0  0
 15 17  1  0  0  0  0
 16 12  2  0  0  0  0
 17 11  2  0  0  0  0
 17 19  1  0  0  0  0
 18  2  2  0  0  0  0
 19 20  1  0  0  0  0
 20 21  1  0  0  0  0
 21 22  1  1  0  0  0
 21 23  1  0  0  0  0
 23 25  1  0  0  0  0
 24 23  2  0  0  0  0
M  END
>  <MODEL>
6

>  <REMARK>
 VINA RESULT:      -8.8      2.924      5.249
  Name = 
  4 active torsions:
  status: ('A' for Active; 'I' for Inactive)
    1  A    between atoms: C_2  and  CA_21
    2  A    between atoms: C_6  and  N_15
    3  A    between atoms: C_6  and  C_23
    4  A    between atoms: N_15  and  CA_21
                            x       y       z     vdW  Elec       q    Type
                         _______ _______ _______ _____ _____    ______ ____

>  <TORSDO>
F 4

$$$$
=
 OpenBabel10272400403D

 25 28  0  0  1  0  0  0  0  0999 V2000
  187.5000  177.6600  145.2240 C   0  0  0  0  0  0  0  0  0  0  0  0
  186.5510  178.0940  144.2980 C   0  0  0  0  0  0  0  0  0  0  0  0
  186.0280  178.1400  147.0810 C   0  0  0  0  0  3  0  0  0  0  0  0
  188.8350  177.0400  145.0200 C   0  0  2  0  0  3  0  0  0  0  0  0
  191.5560  177.2190  145.9440 C   0  0  0  0  0  3  0  0  0  0  0  0
  185.0590  178.6000  146.1720 C   0  0  0  0  0  3  0  0  0  0  0  0
  189.2420  176.8570  146.4590 C   0  0  0  0  0  0  0  0  0  0  0  0
  190.6600  176.7160  146.8020 C   0  0  0  0  0  3  0  0  0  0  0  0
  184.3650  179.0120  143.8400 C   0  0  0  0  0  0  0  0  0  0  0  0
  183.0310  179.5340  144.2580 C   0  0  0  0  0  1  0  0  0  0  0  0
  186.7960  178.0550  142.9630 N   0  0  0  0  0  0  0  0  0  0  0  0
  191.1200  177.9400  144.7180 C   0  0  0  0  0  3  0  0  0  0  0  0
  187.2340  177.6620  146.5720 C   0  0  0  0  0  0  0  0  0  0  0  0
  188.3410  177.1990  147.3280 N   0  0  0  0  0  0  0  0  0  0  0  0
  184.6630  178.9540  142.5150 N   0  0  0  0  0  0  0  0  0  0  0  0
  189.8380  177.9160  144.3140 C   0  0  0  0  0  3  0  0  0  0  0  0
  185.8630  178.4890  142.0750 C   0  0  0  0  0  0  0  0  0  0  0  0
  185.3110  178.5770  144.7810 C   0  0  0  0  0  0  0  0  0  0  0  0
  186.1400  178.4160  140.6170 C   0  0  0  0  0  2  0  0  0  0  0  0
  185.2370  179.3130  139.9010 N   0  0  0  0  0  2  0  0  0  0  0  0
  184.6020  178.6270  138.7720 C   0  0  2  0  0  3  0  0  0  0  0  0
  183.5510  177.6170  139.2190 C   0  0  0  0  0  1  0  0  0  0  0  0
  185.6030  178.0420  137.8210 C   0  0  0  0  0  0  0  0  0  0  0  0
  186.7040  178.7960  137.4400 O   0  0  0  0  0  1  0  0  0  0  0  0
  185.4730  176.8650  137.3920 O   0  0  0  0  0  0  0  0  0  0  0  0
  1 13  1  0  0  0  0
  2 18  1  0  0  0  0
  2  1  2  0  0  0  0
  4 16  1  6  0  0  0
  4  1  1  0  0  0  0
  4  7  1  0  0  0  0
  5  8  2  0  0  0  0
  6  3  1  0  0  0  0
  7  8  1  0  0  0  0
  7 14  2  0  0  0  0
  9 10  1  0  0  0  0
  9 18  1  0  0  0  0
 11  2  1  0  0  0  0
 12  5  1  0  0  0  0
 13  3  2  0  0  0  0
 13 14  1  0  0  0  0
 15  9  2  0  0  0  0
 16 12  2  0  0  0  0
 17 15  1  0  0  0  0
 17 11  2  0  0  0  0
 18  6  2  0  0  0  0
 19 17  1  0  0  0  0
 20 19  1  0  0  0  0
 21 22  1  1  0  0  0
 21 20  1  0  0  0  0
 23 21  1  0  0  0  0
 24 23  1  0  0  0  0
 25 23  2  0  0  0  0
M  END
>  <MODEL>
7

>  <REMARK>
 VINA RESULT:      -8.8      2.652      5.283
  Name = 
  4 active torsions:
  status: ('A' for Active; 'I' for Inactive)
    1  A    between atoms: C_2  and  CA_21
    2  A    between atoms: C_6  and  N_15
    3  A    between atoms: C_6  and  C_23
    4  A    between atoms: N_15  and  CA_21
                            x       y       z     vdW  Elec       q    Type
                         _______ _______ _______ _____ _____    ______ ____

>  <TORSDO>
F 4

$$$$
=
 OpenBabel10272400403D

 25 28  0  0  1  0  0  0  0  0999 V2000
  186.8940  177.8240  143.8400 C   0  0  0  0  0  0  0  0  0  0  0  0
  186.7750  178.0710  142.4720 C   0  0  0  0  0  0  0  0  0  0  0  0
  184.6330  178.5730  144.2550 C   0  0  0  0  0  3  0  0  0  0  0  0
  188.0020  177.2120  144.6180 C   0  0  2  0  0  3  0  0  0  0  0  0
  189.5480  177.6130  147.0140 C   0  0  0  0  0  3  0  0  0  0  0  0
  184.4900  178.8480  142.8840 C   0  0  0  0  0  3  0  0  0  0  0  0
  187.4010  177.2850  145.9980 C   0  0  0  0  0  0  0  0  0  0  0  0
  188.2730  177.2390  147.1750 C   0  0  0  0  0  3  0  0  0  0  0  0
  185.4480  178.8430  140.6090 C   0  0  0  0  0  0  0  0  0  0  0  0
  184.1970  179.3940  140.0080 C   0  0  0  0  0  1  0  0  0  0  0  0
  187.7970  177.8140  141.6160 N   0  0  0  0  0  0  0  0  0  0  0  0
  190.0400  178.1060  145.6990 C   0  0  0  0  0  3  0  0  0  0  0  0
  185.8440  178.0460  144.6980 C   0  0  0  0  0  0  0  0  0  0  0  0
  186.1880  177.7450  146.0410 N   0  0  0  0  0  0  0  0  0  0  0  0
  186.5020  178.5700  139.7970 N   0  0  0  0  0  0  0  0  0  0  0  0
  189.2970  177.9810  144.5860 C   0  0  0  0  0  3  0  0  0  0  0  0
  187.6680  178.0690  140.2870 C   0  0  0  0  0  0  0  0  0  0  0  0
  185.5540  178.5970  141.9870 C   0  0  0  0  0  0  0  0  0  0  0  0
  188.7880  177.7580  139.3620 C   0  0  0  0  0  2  0  0  0  0  0  0
  189.7770  176.9320  140.0510 N   0  0  0  0  0  2  0  0  0  0  0  0
  191.0920  177.0460  139.4130 C   0  0  2  0  0  3  0  0  0  0  0  0
  191.3860  175.8850  138.4700 C   0  0  0  0  0  1  0  0  0  0  0  0
  192.1910  177.2810  140.4060 C   0  0  0  0  0  0  0  0  0  0  0  0
  193.5110  177.2870  139.9750 O   0  0  0  0  0  0  0  0  0  0  0  0
  191.9290  177.5060  141.6170 O   0  0  0  0  0  1  0  0  0  0  0  0
  1  4  1  0  0  0  0
  1 13  1  0  0  0  0
  2  1  2  0  0  0  0
  3 13  2  0  0  0  0
  4 16  1  1  0  0  0
  4  7  1  0  0  0  0
  5  8  2  0  0  0  0
  6  3  1  0  0  0  0
  7 14  2  0  0  0  0
  7  8  1  0  0  0  0
  9 18  1  0  0  0  0
 10  9  1  0  0  0  0
 11  2  1  0  0  0  0
 12  5  1  0  0  0  0
 13 14  1  0  0  0  0
 15 17  1  0  0  0  0
 15  9  2  0  0  0  0
 16 12  2  0  0  0  0
 17 11  2  0  0  0  0
 18  2  1  0  0  0  0
 18  6  2  0  0  0  0
 19 20  1  0  0  0  0
 19 17  1  0  0  0  0
 21 22  1  1  0  0  0
 21 20  1  0  0  0  0
 21 23  1  0  0  0  0
 23 25  1  0  0  0  0
 24 23  2  0  0  0  0
M  END
>  <MODEL>
8

>  <REMARK>
 VINA RESULT:      -8.6      2.012      4.890
  Name = 
  4 active torsions:
  status: ('A' for Active; 'I' for Inactive)
    1  A    between atoms: C_2  and  CA_21
    2  A    between atoms: C_6  and  N_15
    3  A    between atoms: C_6  and  C_23
    4  A    between atoms: N_15  and  CA_21
                            x       y       z     vdW  Elec       q    Type
                         _______ _______ _______ _____ _____    ______ ____

>  <TORSDO>
F 4

$$$$
=
 OpenBabel10272400403D

 25 28  0  0  1  0  0  0  0  0999 V2000
  187.5090  177.7370  144.7250 C   0  0  0  0  0  0  0  0  0  0  0  0
  186.4090  178.1250  143.9590 C   0  0  0  0  0  0  0  0  0  0  0  0
  186.2630  177.9760  146.7830 C   0  0  0  0  0  3  0  0  0  0  0  0
  188.8540  177.2600  144.3120 C   0  0  2  0  0  3  0  0  0  0  0  0
  191.6480  177.6510  144.8880 C   0  0  0  0  0  3  0  0  0  0  0  0
  185.1440  178.3870  146.0390 C   0  0  0  0  0  3  0  0  0  0  0  0
  189.4650  177.0420  145.6730 C   0  0  0  0  0  0  0  0  0  0  0  0
  190.9230  177.0200  145.8200 C   0  0  0  0  0  3  0  0  0  0  0  0
  184.1100  178.8510  143.8470 C   0  0  0  0  0  0  0  0  0  0  0  0
  182.8020  179.2200  144.4650 C   0  0  0  0  0  1  0  0  0  0  0  0
  186.4760  178.1790  142.6040 N   0  0  0  0  0  0  0  0  0  0  0  0
  190.9890  178.3890  143.7780 C   0  0  0  0  0  3  0  0  0  0  0  0
  187.4270  177.6430  146.0940 C   0  0  0  0  0  0  0  0  0  0  0  0
  188.6620  177.2490  146.6700 N   0  0  0  0  0  0  0  0  0  0  0  0
  184.2310  178.8910  142.4930 N   0  0  0  0  0  0  0  0  0  0  0  0
  189.6720  178.2630  143.5410 C   0  0  0  0  0  3  0  0  0  0  0  0
  185.3980  178.5670  141.8740 C   0  0  0  0  0  0  0  0  0  0  0  0
  185.2080  178.4600  144.6280 C   0  0  0  0  0  0  0  0  0  0  0  0
  185.4820  178.5970  140.3900 C   0  0  0  0  0  2  0  0  0  0  0  0
  184.4990  179.5380  139.8620 N   0  0  0  0  0  2  0  0  0  0  0  0
  183.4770  178.8440  139.0730 C   0  0  2  0  0  3  0  0  0  0  0  0
  184.0810  177.8900  138.0480 C   0  0  0  0  0  1  0  0  0  0  0  0
  182.4790  179.7870  138.4710 C   0  0  0  0  0  0  0  0  0  0  0  0
  181.5810  179.3180  137.5230 O   0  0  0  0  0  0  0  0  0  0  0  0
  182.4250  180.9900  138.8410 O   0  0  0  0  0  1  0  0  0  0  0  0
  1 13  1  0  0  0  0
  2 18  1  0  0  0  0
  2  1  2  0  0  0  0
  4 16  1  1  0  0  0
  4  1  1  0  0  0  0
  4  7  1  0  0  0  0
  5  8  2  0  0  0  0
  6  3  1  0  0  0  0
  7  8  1  0  0  0  0
  7 14  2  0  0  0  0
  9 10  1  0  0  0  0
  9 18  1  0  0  0  0
 11  2  1  0  0  0  0
 12  5  1  0  0  0  0
 13 14  1  0  0  0  0
 13  3  2  0  0  0  0
 15  9  2  0  0  0  0
 16 12  2  0  0  0  0
 17 15  1  0  0  0  0
 17 11  2  0  0  0  0
 18  6  2  0  0  0  0
 19 17  1  0  0  0  0
 20 19  1  0  0  0  0
 21 22  1  6  0  0  0
 21 20  1  0  0  0  0
 23 25  1  0  0  0  0
 23 21  1  0  0  0  0
 24 23  2  0  0  0  0
M  END
>  <MODEL>
9

>  <REMARK>
 VINA RESULT:      -8.5      3.585      6.036
  Name = 
  4 active torsions:
  status: ('A' for Active; 'I' for Inactive)
    1  A    between atoms: C_2  and  CA_21
    2  A    between atoms: C_6  and  N_15
    3  A    between atoms: C_6  and  C_23
    4  A    between atoms: N_15  and  CA_21
                            x       y       z     vdW  Elec       q    Type
                         _______ _______ _______ _____ _____    ______ ____

>  <TORSDO>
F 4

$$$$
