=
 OpenBabel10272401013D

 27 32  0  0  1  0  0  0  0  0999 V2000
  187.4920  178.6370  136.5400 C   0  0  1  0  0  3  0  0  0  0  0  0
  187.2150  178.0040  139.0290 C   0  0  0  0  0  0  0  0  0  0  0  0
  189.2040  176.7180  138.1460 C   0  0  0  0  0  2  0  0  0  0  0  0
  188.8720  178.1740  142.9710 C   0  0  0  0  0  2  0  0  0  0  0  0
  189.8140  176.6040  144.4540 O   0  0  0  0  0  0  0  0  0  0  0  0
  186.5380  178.6180  140.0860 C   0  0  0  0  0  3  0  0  0  0  0  0
  190.3770  176.8910  140.8630 C   0  0  0  0  0  2  0  0  0  0  0  0
  190.4200  175.4770  135.7650 C   0  0  0  0  0  1  0  0  0  0  0  0
  190.3870  176.1650  142.2100 C   0  0  0  0  0  2  0  0  0  0  0  0
  189.7360  177.5400  134.4950 C   0  0  0  0  0  2  0  0  0  0  0  0
  188.4760  177.4240  139.2660 C   0  0  0  0  0  0  0  0  0  0  0  0
  186.5970  178.0320  137.6550 C   0  0  2  0  0  3  0  0  0  0  0  0
  189.6930  176.9530  143.2930 C   0  0  0  0  0  0  0  0  0  0  0  0
  188.2990  178.0900  141.5890 C   0  0  0  0  0  0  0  0  0  0  0  0
  188.9530  178.8570  136.9280 C   0  0  0  0  0  2  0  0  0  0  0  0
  189.0210  177.4630  140.5580 C   0  0  0  0  0  0  0  0  0  0  0  0
  189.6360  176.7790  135.7970 C   0  0  1  0  0  0  0  0  0  0  0  0
  187.0870  178.6490  141.3280 N   0  0  0  0  0  0  0  0  0  0  0  0
  188.4120  176.8710  134.8810 C   0  0  1  0  0  3  0  0  0  0  0  0
  187.3920  177.9860  135.1610 C   0  0  0  0  0  2  0  0  0  0  0  0
  189.6780  177.5800  137.0420 N   0  0  2  0  0  0  0  0  0  0  0  0
  184.3200  174.5240  136.6320 C   0  0  0  0  0  3  0  0  0  0  0  0
  185.8170  176.7930  137.3110 C   0  0  0  0  0  0  0  0  0  0  0  0
  186.4160  175.5260  137.3110 C   0  0  0  0  0  3  0  0  0  0  0  0
  185.6690  174.3940  136.9730 C   0  0  0  0  0  3  0  0  0  0  0  0
  183.7190  175.7860  136.6280 C   0  0  0  0  0  3  0  0  0  0  0  0
  184.4660  176.9180  136.9660 C   0  0  0  0  0  3  0  0  0  0  0  0
  1 20  1  6  0  0  0
  1 15  1  0  0  0  0
  1 12  1  0  0  0  0
  2 11  2  0  0  0  0
  2  6  1  0  0  0  0
  3 11  1  0  0  0  0
  4 13  1  0  0  0  0
  6 18  2  0  0  0  0
  7  9  1  0  0  0  0
  9 13  1  0  0  0  0
 10 17  1  0  0  0  0
 11 16  1  0  0  0  0
 12 23  1  6  0  0  0
 12  2  1  0  0  0  0
 13  5  2  0  0  0  0
 14  4  1  0  0  0  0
 16  7  1  0  0  0  0
 16 14  2  0  0  0  0
 17  8  1  1  0  0  0
 17 21  1  0  0  0  0
 18 14  1  0  0  0  0
 19 10  1  6  0  0  0
 19 20  1  0  0  0  0
 19 17  1  0  0  0  0
 21 15  1  6  0  0  0
 21  3  1  0  0  0  0
 22 25  1  0  0  0  0
 24 23  1  0  0  0  0
 25 24  2  0  0  0  0
 26 22  2  0  0  0  0
 26 27  1  0  0  0  0
 27 23  2  0  0  0  0
M  END
>  <MODEL>
1

>  <REMARK>
 VINA RESULT:      -6.8      0.000      0.000
  Name = 
  1 active torsions:
  status: ('A' for Active; 'I' for Inactive)
    1  A    between atoms: C_9  and  C_15
                            x       y       z     vdW  Elec       q    Type
                         _______ _______ _______ _____ _____    ______ ____

>  <TORSDO>
F 1

$$$$
=
 OpenBabel10272401013D

 27 32  0  0  1  0  0  0  0  0999 V2000
  188.5260  176.5960  135.3430 C   0  0  1  0  0  3  0  0  0  0  0  0
  187.7300  176.9670  137.7730 C   0  0  0  0  0  0  0  0  0  0  0  0
  189.8480  175.5900  137.8800 C   0  0  0  0  0  2  0  0  0  0  0  0
  188.5320  178.7870  141.5620 C   0  0  0  0  0  2  0  0  0  0  0  0
  189.1300  177.9960  143.7000 O   0  0  0  0  0  0  0  0  0  0  0  0
  186.8550  177.8930  138.3450 C   0  0  0  0  0  3  0  0  0  0  0  0
  190.4310  176.8980  140.4750 C   0  0  0  0  0  2  0  0  0  0  0  0
  191.5210  173.6100  136.4750 C   0  0  0  0  0  1  0  0  0  0  0  0
  190.1540  176.7590  141.9730 C   0  0  0  0  0  2  0  0  0  0  0  0
  191.1350  174.9560  134.3830 C   0  0  0  0  0  2  0  0  0  0  0  0
  188.9100  176.6210  138.4610 C   0  0  0  0  0  0  0  0  0  0  0  0
  187.4120  176.4100  136.4090 C   0  0  2  0  0  3  0  0  0  0  0  0
  189.2580  177.8540  142.4960 C   0  0  0  0  0  0  0  0  0  0  0  0
  188.2590  178.1270  140.2450 C   0  0  0  0  0  0  0  0  0  0  0  0
  189.8760  177.0570  135.8880 C   0  0  0  0  0  2  0  0  0  0  0  0
  189.1740  177.2030  139.7100 C   0  0  0  0  0  0  0  0  0  0  0  0
  190.7590  174.7590  135.8340 C   0  0  1  0  0  0  0  0  0  0  0  0
  187.1330  178.4480  139.5530 N   0  0  0  0  0  0  0  0  0  0  0  0
  189.7540  174.3950  134.7370 C   0  0  1  0  0  3  0  0  0  0  0  0
  188.7090  175.4520  134.3460 C   0  0  0  0  0  2  0  0  0  0  0  0
  190.5490  175.9840  136.6400 N   0  0  2  0  0  0  0  0  0  0  0  0
  185.3750  172.6170  136.4390 C   0  0  0  0  0  3  0  0  0  0  0  0
  186.7090  175.0810  136.4420 C   0  0  0  0  0  0  0  0  0  0  0  0
  187.1730  174.0250  137.2390 C   0  0  0  0  0  3  0  0  0  0  0  0
  186.5080  172.7960  137.2380 C   0  0  0  0  0  3  0  0  0  0  0  0
  184.9100  173.6650  135.6400 C   0  0  0  0  0  3  0  0  0  0  0  0
  185.5760  174.8940  135.6420 C   0  0  0  0  0  3  0  0  0  0  0  0
  1 20  1  1  0  0  0
  1 15  1  0  0  0  0
  1 12  1  0  0  0  0
  2  6  2  0  0  0  0
  2 11  1  0  0  0  0
  3 11  1  0  0  0  0
  4 13  1  0  0  0  0
  6 18  1  0  0  0  0
  7  9  1  0  0  0  0
  9 13  1  0  0  0  0
 10 19  1  0  0  0  0
 10 17  1  0  0  0  0
 11 16  2  0  0  0  0
 12 23  1  1  0  0  0
 12  2  1  0  0  0  0
 13  5  2  0  0  0  0
 14  4  1  0  0  0  0
 16 14  1  0  0  0  0
 16  7  1  0  0  0  0
 17  8  1  1  0  0  0
 17 21  1  0  0  0  0
 18 14  2  0  0  0  0
 19 20  1  1  0  0  0
 19 17  1  0  0  0  0
 21 15  1  6  0  0  0
 21  3  1  0  0  0  0
 22 25  1  0  0  0  0
 23 24  1  0  0  0  0
 25 24  2  0  0  0  0
 26 27  1  0  0  0  0
 26 22  2  0  0  0  0
 27 23  2  0  0  0  0
M  END
>  <MODEL>
2

>  <REMARK>
 VINA RESULT:      -6.3      1.435      2.008
  Name = 
  1 active torsions:
  status: ('A' for Active; 'I' for Inactive)
    1  A    between atoms: C_9  and  C_15
                            x       y       z     vdW  Elec       q    Type
                         _______ _______ _______ _____ _____    ______ ____

>  <TORSDO>
F 1

$$$$
=
 OpenBabel10272401013D

 27 32  0  0  1  0  0  0  0  0999 V2000
  187.6050  178.5100  136.4030 C   0  0  1  0  0  3  0  0  0  0  0  0
  186.0790  178.3720  138.4840 C   0  0  0  0  0  0  0  0  0  0  0  0
  188.2330  177.1770  139.0540 C   0  0  0  0  0  2  0  0  0  0  0  0
  185.4620  179.5400  142.5540 C   0  0  0  0  0  2  0  0  0  0  0  0
  185.4960  178.4300  144.6330 O   0  0  0  0  0  0  0  0  0  0  0  0
  184.9560  179.1040  138.8780 C   0  0  0  0  0  3  0  0  0  0  0  0
  187.8350  178.0410  141.8610 C   0  0  0  0  0  2  0  0  0  0  0  0
  190.4990  175.6280  137.9790 C   0  0  0  0  0  1  0  0  0  0  0  0
  187.1450  177.6120  143.1580 C   0  0  0  0  0  2  0  0  0  0  0  0
  190.5770  177.2920  136.0910 C   0  0  0  0  0  2  0  0  0  0  0  0
  187.0340  178.0060  139.4520 C   0  0  0  0  0  0  0  0  0  0  0  0
  186.2600  178.0440  137.0240 C   0  0  2  0  0  3  0  0  0  0  0  0
  185.9950  178.5170  143.5240 C   0  0  0  0  0  0  0  0  0  0  0  0
  185.6850  179.1070  141.1370 C   0  0  0  0  0  0  0  0  0  0  0  0
  188.6560  178.9770  137.4090 C   0  0  0  0  0  2  0  0  0  0  0  0
  186.8340  178.3740  140.7910 C   0  0  0  0  0  0  0  0  0  0  0  0
  189.8160  176.8070  137.3030 C   0  0  1  0  0  0  0  0  0  0  0  0
  184.7840  179.4530  140.1790 N   0  0  0  0  0  0  0  0  0  0  0  0
  189.2410  176.5640  135.9040 C   0  0  1  0  0  3  0  0  0  0  0  0
  188.2280  177.5840  135.3610 C   0  0  0  0  0  2  0  0  0  0  0  0
  189.2120  177.8450  138.1700 N   0  0  2  0  0  0  0  0  0  0  0  0
  184.8270  174.1560  135.8580 C   0  0  0  0  0  3  0  0  0  0  0  0
  185.7640  176.6780  136.6390 C   0  0  0  0  0  0  0  0  0  0  0  0
  186.2270  175.5210  137.2830 C   0  0  0  0  0  3  0  0  0  0  0  0
  185.7590  174.2630  136.8930 C   0  0  0  0  0  3  0  0  0  0  0  0
  184.3640  175.3050  135.2110 C   0  0  0  0  0  3  0  0  0  0  0  0
  184.8320  176.5630  135.6010 C   0  0  0  0  0  3  0  0  0  0  0  0
  1 20  1  1  0  0  0
  1 12  1  0  0  0  0
  1 15  1  0  0  0  0
  2  6  2  0  0  0  0
  2 11  1  0  0  0  0
  3 11  1  0  0  0  0
  4 13  1  0  0  0  0
  6 18  1  0  0  0  0
  7  9  1  0  0  0  0
  9 13  1  0  0  0  0
 10 17  1  0  0  0  0
 11 16  2  0  0  0  0
 12 23  1  1  0  0  0
 12  2  1  0  0  0  0
 13  5  2  0  0  0  0
 14  4  1  0  0  0  0
 16 14  1  0  0  0  0
 16  7  1  0  0  0  0
 17  8  1  1  0  0  0
 17 21  1  0  0  0  0
 18 14  2  0  0  0  0
 19 20  1  1  0  0  0
 19 10  1  0  0  0  0
 19 17  1  0  0  0  0
 21 15  1  6  0  0  0
 21  3  1  0  0  0  0
 22 25  1  0  0  0  0
 23 24  1  0  0  0  0
 25 24  2  0  0  0  0
 26 27  1  0  0  0  0
 26 22  2  0  0  0  0
 27 23  2  0  0  0  0
M  END
>  <MODEL>
3

>  <REMARK>
 VINA RESULT:      -6.1      1.697      2.173
  Name = 
  1 active torsions:
  status: ('A' for Active; 'I' for Inactive)
    1  A    between atoms: C_9  and  C_15
                            x       y       z     vdW  Elec       q    Type
                         _______ _______ _______ _____ _____    ______ ____

>  <TORSDO>
F 1

$$$$
=
 OpenBabel10272401013D

 27 32  0  0  1  0  0  0  0  0999 V2000
  189.4180  178.3580  138.3510 C   0  0  1  0  0  3  0  0  0  0  0  0
  191.5040  176.9350  138.8990 C   0  0  0  0  0  0  0  0  0  0  0  0
  189.8430  175.4170  137.7460 C   0  0  0  0  0  2  0  0  0  0  0  0
  194.8310  174.7230  137.3650 C   0  0  0  0  0  2  0  0  0  0  0  0
  195.4210  172.4430  137.2750 O   0  0  0  0  0  0  0  0  0  0  0  0
  192.8220  177.2780  139.2100 C   0  0  0  0  0  3  0  0  0  0  0  0
  192.1500  173.9250  136.6350 C   0  0  0  0  0  2  0  0  0  0  0  0
  186.9850  174.8890  137.2510 C   0  0  0  0  0  1  0  0  0  0  0  0
  193.1070  172.7790  136.9710 C   0  0  0  0  0  2  0  0  0  0  0  0
  186.7200  177.3660  136.8830 C   0  0  0  0  0  2  0  0  0  0  0  0
  191.2610  175.8300  138.0590 C   0  0  0  0  0  0  0  0  0  0  0  0
  190.3840  177.7930  139.4280 C   0  0  2  0  0  3  0  0  0  0  0  0
  194.5160  173.2580  137.2140 C   0  0  0  0  0  0  0  0  0  0  0  0
  193.6540  175.4760  137.9070 C   0  0  0  0  0  0  0  0  0  0  0  0
  189.5700  177.7470  136.9590 C   0  0  0  0  0  2  0  0  0  0  0  0
  192.3460  175.0910  137.5620 C   0  0  0  0  0  0  0  0  0  0  0  0
  187.6450  176.2570  137.3320 C   0  0  1  0  0  0  0  0  0  0  0  0
  193.8570  176.5520  138.7140 N   0  0  0  0  0  0  0  0  0  0  0  0
  187.0820  177.2360  138.3670 C   0  0  1  0  0  3  0  0  0  0  0  0
  187.9440  178.4520  138.7420 C   0  0  0  0  0  2  0  0  0  0  0  0
  189.0630  176.3640  136.9200 N   0  0  2  0  0  0  0  0  0  0  0  0
  188.6830  176.2940  143.0880 C   0  0  0  0  0  3  0  0  0  0  0  0
  189.7670  177.2760  140.6980 C   0  0  0  0  0  0  0  0  0  0  0  0
  188.5530  177.7820  141.1840 C   0  0  0  0  0  3  0  0  0  0  0  0
  188.0120  177.2920  142.3760 C   0  0  0  0  0  3  0  0  0  0  0  0
  189.8950  175.7880  142.6100 C   0  0  0  0  0  3  0  0  0  0  0  0
  190.4360  176.2790  141.4180 C   0  0  0  0  0  3  0  0  0  0  0  0
  1 15  1  6  0  0  0
  1 20  1  0  0  0  0
  1 12  1  0  0  0  0
  2  6  1  0  0  0  0
  2 12  1  0  0  0  0
  3 11  1  0  0  0  0
  4 14  1  0  0  0  0
  7  9  1  0  0  0  0
  7 16  1  0  0  0  0
  9 13  1  0  0  0  0
 10 17  1  0  0  0  0
 11  2  2  0  0  0  0
 12 23  1  1  0  0  0
 13  5  2  0  0  0  0
 13  4  1  0  0  0  0
 14 18  1  0  0  0  0
 16 14  2  0  0  0  0
 16 11  1  0  0  0  0
 17  8  1  1  0  0  0
 17 19  1  0  0  0  0
 18  6  2  0  0  0  0
 19 10  1  6  0  0  0
 19 20  1  0  0  0  0
 21 15  1  1  0  0  0
 21 17  1  0  0  0  0
 21  3  1  0  0  0  0
 23 24  2  0  0  0  0
 23 27  1  0  0  0  0
 24 25  1  0  0  0  0
 25 22  2  0  0  0  0
 26 22  1  0  0  0  0
 27 26  2  0  0  0  0
M  END
>  <MODEL>
4

>  <REMARK>
 VINA RESULT:      -5.4      3.061      5.826
  Name = 
  1 active torsions:
  status: ('A' for Active; 'I' for Inactive)
    1  A    between atoms: C_9  and  C_15
                            x       y       z     vdW  Elec       q    Type
                         _______ _______ _______ _____ _____    ______ ____

>  <TORSDO>
F 1

$$$$
=
 OpenBabel10272401013D

 27 32  0  0  1  0  0  0  0  0999 V2000
  186.7220  177.5800  135.4050 C   0  0  1  0  0  3  0  0  0  0  0  0
  184.5290  177.3060  136.7420 C   0  0  0  0  0  0  0  0  0  0  0  0
  186.4020  177.5720  138.4200 C   0  0  0  0  0  2  0  0  0  0  0  0
  181.6930  179.1280  139.3790 C   0  0  0  0  0  2  0  0  0  0  0  0
  181.0900  178.8400  141.6380 O   0  0  0  0  0  0  0  0  0  0  0  0
  183.1860  177.4560  136.3890 C   0  0  0  0  0  3  0  0  0  0  0  0
  184.4490  178.8900  140.2190 C   0  0  0  0  0  2  0  0  0  0  0  0
  189.2700  177.1290  138.9360 C   0  0  0  0  0  1  0  0  0  0  0  0
  183.4060  178.5700  141.2920 C   0  0  0  0  0  2  0  0  0  0  0  0
  189.6920  177.9800  136.6050 C   0  0  0  0  0  2  0  0  0  0  0  0
  184.9630  177.7650  138.0020 C   0  0  0  0  0  0  0  0  0  0  0  0
  185.4830  176.7070  135.7410 C   0  0  2  0  0  3  0  0  0  0  0  0
  181.9980  178.8400  140.8250 C   0  0  0  0  0  0  0  0  0  0  0  0
  182.6960  178.4770  138.4750 C   0  0  0  0  0  0  0  0  0  0  0  0
  186.9430  178.7770  136.3280 C   0  0  0  0  0  2  0  0  0  0  0  0
  184.0370  178.3520  138.8780 C   0  0  0  0  0  0  0  0  0  0  0  0
  188.6500  177.5540  137.6140 C   0  0  1  0  0  0  0  0  0  0  0  0
  182.3080  178.0320  137.2500 N   0  0  0  0  0  0  0  0  0  0  0  0
  188.9330  176.6640  136.4000 C   0  0  1  0  0  3  0  0  0  0  0  0
  188.0340  176.8340  135.1650 C   0  0  0  0  0  2  0  0  0  0  0  0
  187.4030  178.3510  137.6610 N   0  0  2  0  0  0  0  0  0  0  0  0
  186.1630  172.4800  136.1990 C   0  0  0  0  0  3  0  0  0  0  0  0
  185.7130  175.2320  135.9250 C   0  0  0  0  0  0  0  0  0  0  0  0
  186.0040  174.6860  137.1830 C   0  0  0  0  0  3  0  0  0  0  0  0
  186.2280  173.3130  137.3200 C   0  0  0  0  0  3  0  0  0  0  0  0
  185.8760  173.0200  134.9430 C   0  0  0  0  0  3  0  0  0  0  0  0
  185.6520  174.3930  134.8060 C   0  0  0  0  0  3  0  0  0  0  0  0
  1 20  1  1  0  0  0
  1 12  1  0  0  0  0
  1 15  1  0  0  0  0
  2 11  1  0  0  0  0
  4 13  1  0  0  0  0
  6  2  2  0  0  0  0
  6 18  1  0  0  0  0
  7  9  1  0  0  0  0
 10 17  1  0  0  0  0
 11  3  1  0  0  0  0
 11 16  2  0  0  0  0
 12 23  1  1  0  0  0
 12  2  1  0  0  0  0
 13  9  1  0  0  0  0
 13  5  2  0  0  0  0
 14 16  1  0  0  0  0
 14  4  1  0  0  0  0
 16  7  1  0  0  0  0
 17 21  1  0  0  0  0
 17  8  1  1  0  0  0
 18 14  2  0  0  0  0
 19 20  1  6  0  0  0
 19 10  1  0  0  0  0
 19 17  1  0  0  0  0
 21 15  1  6  0  0  0
 21  3  1  0  0  0  0
 22 25  1  0  0  0  0
 23 24  1  0  0  0  0
 24 25  2  0  0  0  0
 26 22  2  0  0  0  0
 27 26  1  0  0  0  0
 27 23  2  0  0  0  0
M  END
>  <MODEL>
5

>  <REMARK>
 VINA RESULT:      -5.4      2.960      4.635
  Name = 
  1 active torsions:
  status: ('A' for Active; 'I' for Inactive)
    1  A    between atoms: C_9  and  C_15
                            x       y       z     vdW  Elec       q    Type
                         _______ _______ _______ _____ _____    ______ ____

>  <TORSDO>
F 1

$$$$
=
 OpenBabel10272401013D

 27 32  0  0  1  0  0  0  0  0999 V2000
  195.3360  173.8300  134.8830 C   0  0  1  0  0  3  0  0  0  0  0  0
  193.1420  174.1390  136.2130 C   0  0  0  0  0  0  0  0  0  0  0  0
  195.0300  174.9620  137.6800 C   0  0  0  0  0  2  0  0  0  0  0  0
  190.3730  176.8970  137.9570 C   0  0  0  0  0  2  0  0  0  0  0  0
  189.7730  177.4940  140.1560 O   0  0  0  0  0  0  0  0  0  0  0  0
  191.8020  174.1840  135.8200 C   0  0  0  0  0  3  0  0  0  0  0  0
  193.1250  176.9120  138.8420 C   0  0  0  0  0  2  0  0  0  0  0  0
  197.8870  174.6620  138.3420 C   0  0  0  0  0  1  0  0  0  0  0  0
  192.0790  177.0480  139.9510 C   0  0  0  0  0  2  0  0  0  0  0  0
  198.3220  174.5660  135.8640 C   0  0  0  0  0  2  0  0  0  0  0  0
  193.5960  175.0240  137.2110 C   0  0  0  0  0  0  0  0  0  0  0  0
  194.0740  173.1820  135.5150 C   0  0  2  0  0  3  0  0  0  0  0  0
  190.6770  177.1630  139.4070 C   0  0  0  0  0  0  0  0  0  0  0  0
  191.3520  175.9260  137.3690 C   0  0  0  0  0  0  0  0  0  0  0  0
  195.5950  175.2780  135.2920 C   0  0  0  0  0  2  0  0  0  0  0  0
  192.6910  175.9230  137.7970 C   0  0  0  0  0  0  0  0  0  0  0  0
  197.2730  174.5790  136.9530 C   0  0  1  0  0  0  0  0  0  0  0  0
  190.9460  175.0660  136.3980 N   0  0  0  0  0  0  0  0  0  0  0  0
  197.5240  173.2910  136.1630 C   0  0  1  0  0  3  0  0  0  0  0  0
  196.6240  173.0110  134.9490 C   0  0  0  0  0  2  0  0  0  0  0  0
  196.0500  175.3710  136.6900 N   0  0  2  0  0  0  0  0  0  0  0  0
  194.6080  169.4130  137.5270 C   0  0  0  0  0  3  0  0  0  0  0  0
  194.2620  171.8770  136.2390 C   0  0  0  0  0  0  0  0  0  0  0  0
  194.9600  171.8060  137.4540 C   0  0  0  0  0  3  0  0  0  0  0  0
  195.1320  170.5770  138.0960 C   0  0  0  0  0  3  0  0  0  0  0  0
  193.9150  169.4780  136.3150 C   0  0  0  0  0  3  0  0  0  0  0  0
  193.7420  170.7080  135.6730 C   0  0  0  0  0  3  0  0  0  0  0  0
  1 20  1  1  0  0  0
  1 15  1  0  0  0  0
  1 12  1  0  0  0  0
  2 11  1  0  0  0  0
  4 13  1  0  0  0  0
  6  2  2  0  0  0  0
  6 18  1  0  0  0  0
  7  9  1  0  0  0  0
 10 19  1  0  0  0  0
 10 17  1  0  0  0  0
 11  3  1  0  0  0  0
 11 16  2  0  0  0  0
 12  2  1  0  0  0  0
 12 23  1  1  0  0  0
 13  9  1  0  0  0  0
 13  5  2  0  0  0  0
 14 16  1  0  0  0  0
 14  4  1  0  0  0  0
 16  7  1  0  0  0  0
 17  8  1  1  0  0  0
 18 14  2  0  0  0  0
 19 20  1  6  0  0  0
 19 17  1  0  0  0  0
 21 15  1  6  0  0  0
 21 17  1  0  0  0  0
 21  3  1  0  0  0  0
 22 25  1  0  0  0  0
 23 24  1  0  0  0  0
 24 25  2  0  0  0  0
 26 22  2  0  0  0  0
 27 23  2  0  0  0  0
 27 26  1  0  0  0  0
M  END
>  <MODEL>
6

>  <REMARK>
 VINA RESULT:      -5.1      5.311      8.113
  Name = 
  1 active torsions:
  status: ('A' for Active; 'I' for Inactive)
    1  A    between atoms: C_9  and  C_15
                            x       y       z     vdW  Elec       q    Type
                         _______ _______ _______ _____ _____    ______ ____

>  <TORSDO>
F 1

$$$$
=
 OpenBabel10272401013D

 27 32  0  0  1  0  0  0  0  0999 V2000
  186.4930  176.8250  134.6440 C   0  0  1  0  0  3  0  0  0  0  0  0
  184.4690  176.7940  136.2510 C   0  0  0  0  0  0  0  0  0  0  0  0
  186.5350  177.1800  137.6560 C   0  0  0  0  0  2  0  0  0  0  0  0
  182.0150  179.0180  138.9600 C   0  0  0  0  0  2  0  0  0  0  0  0
  181.6790  179.0180  141.2920 O   0  0  0  0  0  0  0  0  0  0  0  0
  183.0970  176.9540  136.0390 C   0  0  0  0  0  3  0  0  0  0  0  0
  184.8440  178.7720  139.4980 C   0  0  0  0  0  2  0  0  0  0  0  0
  189.4320  176.6890  137.8850 C   0  0  0  0  0  1  0  0  0  0  0  0
  183.9300  178.6200  140.7150 C   0  0  0  0  0  2  0  0  0  0  0  0
  189.5930  177.2470  135.4360 C   0  0  0  0  0  2  0  0  0  0  0  0
  185.0620  177.3780  137.3870 C   0  0  0  0  0  0  0  0  0  0  0  0
  185.2820  176.0460  135.2250 C   0  0  2  0  0  3  0  0  0  0  0  0
  182.4830  178.8880  140.3850 C   0  0  0  0  0  0  0  0  0  0  0  0
  182.8860  178.2280  138.0310 C   0  0  0  0  0  0  0  0  0  0  0  0
  186.8510  178.1120  135.3860 C   0  0  0  0  0  2  0  0  0  0  0  0
  184.2620  178.0990  138.2870 C   0  0  0  0  0  0  0  0  0  0  0  0
  188.6700  176.9820  136.6030 C   0  0  1  0  0  0  0  0  0  0  0  0
  182.3430  177.6590  136.9210 N   0  0  0  0  0  0  0  0  0  0  0  0
  188.7830  175.9460  135.4800 C   0  0  1  0  0  3  0  0  0  0  0  0
  187.7470  176.0060  134.3460 C   0  0  0  0  0  2  0  0  0  0  0  0
  187.4570  177.8260  136.6980 N   0  0  2  0  0  0  0  0  0  0  0  0
  185.8730  171.9040  136.2410 C   0  0  0  0  0  3  0  0  0  0  0  0
  185.4950  174.5940  135.5560 C   0  0  0  0  0  0  0  0  0  0  0  0
  185.3750  173.5940  134.5820 C   0  0  0  0  0  3  0  0  0  0  0  0
  185.5640  172.2520  134.9230 C   0  0  0  0  0  3  0  0  0  0  0  0
  185.9910  172.8970  137.2170 C   0  0  0  0  0  3  0  0  0  0  0  0
  185.8020  174.2390  136.8750 C   0  0  0  0  0  3  0  0  0  0  0  0
  1 20  1  1  0  0  0
  1 12  1  0  0  0  0
  1 15  1  0  0  0  0
  2 11  1  0  0  0  0
  4 13  1  0  0  0  0
  6  2  2  0  0  0  0
  6 18  1  0  0  0  0
  7  9  1  0  0  0  0
 10 19  1  0  0  0  0
 10 17  1  0  0  0  0
 11  3  1  0  0  0  0
 11 16  2  0  0  0  0
 12 23  1  1  0  0  0
 12  2  1  0  0  0  0
 13  9  1  0  0  0  0
 13  5  2  0  0  0  0
 14 16  1  0  0  0  0
 14  4  1  0  0  0  0
 16  7  1  0  0  0  0
 17 21  1  0  0  0  0
 17  8  1  1  0  0  0
 18 14  2  0  0  0  0
 19 20  1  6  0  0  0
 19 17  1  0  0  0  0
 21 15  1  6  0  0  0
 21  3  1  0  0  0  0
 22 26  1  0  0  0  0
 23 27  1  0  0  0  0
 24 25  1  0  0  0  0
 24 23  2  0  0  0  0
 25 22  2  0  0  0  0
 27 26  2  0  0  0  0
M  END
>  <MODEL>
7

>  <REMARK>
 VINA RESULT:      -5.1      3.051      4.668
  Name = 
  1 active torsions:
  status: ('A' for Active; 'I' for Inactive)
    1  A    between atoms: C_9  and  C_15
                            x       y       z     vdW  Elec       q    Type
                         _______ _______ _______ _____ _____    ______ ____

>  <TORSDO>
F 1

$$$$
=
 OpenBabel10272401013D

 27 32  0  0  1  0  0  0  0  0999 V2000
  190.0620  176.1450  135.2450 C   0  0  1  0  0  3  0  0  0  0  0  0
  192.3740  175.8250  136.3550 C   0  0  0  0  0  0  0  0  0  0  0  0
  191.0920  173.6670  136.6600 C   0  0  0  0  0  2  0  0  0  0  0  0
  196.1270  173.7700  136.2780 C   0  0  0  0  0  2  0  0  0  0  0  0
  197.1680  172.1450  137.6300 O   0  0  0  0  0  0  0  0  0  0  0  0
  193.5850  176.5090  136.2200 C   0  0  0  0  0  3  0  0  0  0  0  0
  193.6880  172.2420  136.5440 C   0  0  0  0  0  2  0  0  0  0  0  0
  188.4170  172.4610  136.9460 C   0  0  0  0  0  1  0  0  0  0  0  0
  194.8450  171.7900  137.4370 C   0  0  0  0  0  2  0  0  0  0  0  0
  187.6700  173.9840  135.0860 C   0  0  0  0  0  2  0  0  0  0  0  0
  192.3870  174.4210  136.4700 C   0  0  0  0  0  0  0  0  0  0  0  0
  191.0870  176.6080  136.3160 C   0  0  2  0  0  3  0  0  0  0  0  0
  196.1200  172.5450  137.1530 C   0  0  0  0  0  0  0  0  0  0  0  0
  194.8050  174.4750  136.3240 C   0  0  0  0  0  0  0  0  0  0  0  0
  190.3790  174.8060  134.5820 C   0  0  0  0  0  2  0  0  0  0  0  0
  193.6140  173.7400  136.4590 C   0  0  0  0  0  0  0  0  0  0  0  0
  188.7840  173.6290  136.0440 C   0  0  1  0  0  0  0  0  0  0  0  0
  194.7610  175.8290  136.2070 N   0  0  0  0  0  0  0  0  0  0  0  0
  188.0020  174.9300  136.2450 C   0  0  1  0  0  3  0  0  0  0  0  0
  188.5880  176.2160  135.6410 C   0  0  0  0  0  2  0  0  0  0  0  0
  190.1640  173.6810  135.5090 N   0  0  2  0  0  0  0  0  0  0  0  0
  189.4840  177.6450  140.1750 C   0  0  0  0  0  3  0  0  0  0  0  0
  190.5470  176.9610  137.6750 C   0  0  0  0  0  0  0  0  0  0  0  0
  190.9200  176.2450  138.8210 C   0  0  0  0  0  3  0  0  0  0  0  0
  190.3900  176.5870  140.0680 C   0  0  0  0  0  3  0  0  0  0  0  0
  189.1070  178.3600  139.0350 C   0  0  0  0  0  3  0  0  0  0  0  0
  189.6370  178.0190  137.7880 C   0  0  0  0  0  3  0  0  0  0  0  0
  1 15  1  1  0  0  0
  1 20  1  0  0  0  0
  1 12  1  0  0  0  0
  2 11  1  0  0  0  0
  4 14  1  0  0  0  0
  4 13  1  0  0  0  0
  6  2  2  0  0  0  0
  7  9  1  0  0  0  0
 10 17  1  0  0  0  0
 11  3  1  0  0  0  0
 12  2  1  0  0  0  0
 12 23  1  1  0  0  0
 13  9  1  0  0  0  0
 13  5  2  0  0  0  0
 14 16  1  0  0  0  0
 16 11  2  0  0  0  0
 16  7  1  0  0  0  0
 17 19  1  0  0  0  0
 17  8  1  1  0  0  0
 18  6  1  0  0  0  0
 18 14  2  0  0  0  0
 19 10  1  6  0  0  0
 20 19  1  0  0  0  0
 21 15  1  1  0  0  0
 21 17  1  0  0  0  0
 21  3  1  0  0  0  0
 23 27  2  0  0  0  0
 23 24  1  0  0  0  0
 24 25  2  0  0  0  0
 25 22  1  0  0  0  0
 26 22  2  0  0  0  0
 27 26  1  0  0  0  0
M  END
>  <MODEL>
8

>  <REMARK>
 VINA RESULT:      -5.1      3.893      6.572
  Name = 
  1 active torsions:
  status: ('A' for Active; 'I' for Inactive)
    1  A    between atoms: C_9  and  C_15
                            x       y       z     vdW  Elec       q    Type
                         _______ _______ _______ _____ _____    ______ ____

>  <TORSDO>
F 1

$$$$
=
 OpenBabel10272401013D

 27 32  0  0  1  0  0  0  0  0999 V2000
  182.6970  176.6030  135.8240 C   0  0  1  0  0  3  0  0  0  0  0  0
  182.2610  176.5430  138.3700 C   0  0  0  0  0  0  0  0  0  0  0  0
  184.6850  177.1810  138.0400 C   0  0  0  0  0  2  0  0  0  0  0  0
  182.0030  178.7780  142.0110 C   0  0  0  0  0  2  0  0  0  0  0  0
  183.2980  178.9250  143.9740 O   0  0  0  0  0  0  0  0  0  0  0  0
  181.0860  176.5870  139.1250 C   0  0  0  0  0  3  0  0  0  0  0  0
  184.4850  178.7780  140.5290 C   0  0  0  0  0  2  0  0  0  0  0  0
  187.0390  176.9200  136.2840 C   0  0  0  0  0  1  0  0  0  0  0  0
  184.6280  178.6500  142.0470 C   0  0  0  0  0  2  0  0  0  0  0  0
  185.4790  177.3060  134.3460 C   0  0  0  0  0  2  0  0  0  0  0  0
  183.3930  177.2520  138.8190 C   0  0  0  0  0  0  0  0  0  0  0  0
  182.2620  175.7830  137.0680 C   0  0  2  0  0  3  0  0  0  0  0  0
  183.3080  178.7880  142.7620 C   0  0  0  0  0  0  0  0  0  0  0  0
  182.1160  177.9860  140.7430 C   0  0  0  0  0  0  0  0  0  0  0  0
  183.3210  177.9630  136.1290 C   0  0  0  0  0  2  0  0  0  0  0  0
  183.3210  177.9760  140.0180 C   0  0  0  0  0  0  0  0  0  0  0  0
  185.5930  177.0610  135.8330 C   0  0  1  0  0  0  0  0  0  0  0  0
  181.0380  177.2990  140.2800 N   0  0  0  0  0  0  0  0  0  0  0  0
  185.0410  175.9570  134.9270 C   0  0  1  0  0  3  0  0  0  0  0  0
  183.5150  175.8570  134.7710 C   0  0  0  0  0  2  0  0  0  0  0  0
  184.6690  177.8200  136.7070 N   0  0  2  0  0  0  0  0  0  0  0  0
  183.7280  171.7440  137.3450 C   0  0  0  0  0  3  0  0  0  0  0  0
  182.7900  174.3790  137.1830 C   0  0  0  0  0  0  0  0  0  0  0  0
  184.0900  174.1190  137.6380 C   0  0  0  0  0  3  0  0  0  0  0  0
  184.5580  172.8040  137.7200 C   0  0  0  0  0  3  0  0  0  0  0  0
  182.4320  171.9980  136.8880 C   0  0  0  0  0  3  0  0  0  0  0  0
  181.9640  173.3130  136.8070 C   0  0  0  0  0  3  0  0  0  0  0  0
  1 20  1  1  0  0  0
  1 15  1  0  0  0  0
  1 12  1  0  0  0  0
  2 11  2  0  0  0  0
  2  6  1  0  0  0  0
  3 11  1  0  0  0  0
  4 13  1  0  0  0  0
  6 18  2  0  0  0  0
  7  9  1  0  0  0  0
  9 13  1  0  0  0  0
 10 17  1  0  0  0  0
 11 16  1  0  0  0  0
 12 23  1  1  0  0  0
 12  2  1  0  0  0  0
 13  5  2  0  0  0  0
 14  4  1  0  0  0  0
 16  7  1  0  0  0  0
 16 14  2  0  0  0  0
 17  8  1  1  0  0  0
 17 21  1  0  0  0  0
 18 14  1  0  0  0  0
 19 10  1  6  0  0  0
 19 17  1  0  0  0  0
 20 19  1  0  0  0  0
 21 15  1  6  0  0  0
 21  3  1  0  0  0  0
 22 25  1  0  0  0  0
 23 24  1  0  0  0  0
 24 25  2  0  0  0  0
 26 22  2  0  0  0  0
 27 26  1  0  0  0  0
 27 23  2  0  0  0  0
M  END
>  <MODEL>
9

>  <REMARK>
 VINA RESULT:      -5.0      3.629      5.092
  Name = 
  1 active torsions:
  status: ('A' for Active; 'I' for Inactive)
    1  A    between atoms: C_9  and  C_15
                            x       y       z     vdW  Elec       q    Type
                         _______ _______ _______ _____ _____    ______ ____

>  <TORSDO>
F 1

$$$$
