=
 OpenBabel10272400533D

 25 28  0  0  1  0  0  0  0  0999 V2000
  187.0170  177.7550  145.4960 C   0  0  0  0  0  0  0  0  0  0  0  0
  188.1840  177.1590  145.2760 C   0  0  0  0  0  0  0  0  0  0  0  0
  187.2610  177.5720  147.9760 C   0  0  0  0  0  3  0  0  0  0  0  0
  185.9840  178.2500  144.6120 C   0  0  0  0  0  0  0  0  0  0  0  0
  189.8490  176.4150  143.6930 N   0  0  0  0  0  0  0  0  0  0  0  0
  183.5080  178.9390  143.4220 C   0  0  0  0  0  2  0  0  0  0  0  0
  188.4200  177.0040  147.7910 N   0  0  0  0  0  0  0  0  0  0  0  0
  185.0050  178.6800  145.4080 C   0  0  0  0  0  0  0  0  0  0  0  0
  183.7480  179.3160  144.8910 C   0  0  0  0  0  2  0  0  0  0  0  0
  190.4790  177.3280  146.4570 C   0  0  0  0  0  0  0  0  0  0  0  0
  191.2190  177.4170  147.7520 C   0  0  0  0  0  1  0  0  0  0  0  0
  188.5750  176.8650  143.9710 O   0  0  0  0  0  0  0  0  0  0  0  0
  184.7920  179.1080  142.6010 C   0  0  0  0  0  2  0  0  0  0  0  0
  186.5050  178.0000  146.8100 C   0  0  0  0  0  0  0  0  0  0  0  0
  185.3300  178.5400  146.7980 N   0  0  0  0  0  0  0  0  0  0  0  0
  191.2100  177.5740  145.3540 C   0  0  0  0  0  3  0  0  0  0  0  0
  185.8940  178.1770  143.1170 C   0  0  0  0  0  2  0  0  0  0  0  0
  190.7520  177.5320  143.9260 C   0  0  0  0  0  2  0  0  0  0  0  0
  189.0610  176.7680  146.4700 C   0  0  2  0  0  3  0  0  0  0  0  0
  189.9230  176.0300  142.2790 C   0  0  0  0  0  2  0  0  0  0  0  0
  188.7580  177.5900  140.7210 C   0  0  0  0  0  1  0  0  0  0  0  0
  190.1000  177.2140  141.3190 C   0  0  2  0  0  3  0  0  0  0  0  0
  191.0780  176.9070  140.2320 C   0  0  0  0  0  0  0  0  0  0  0  0
  190.7320  176.0120  139.2300 O   0  0  0  0  0  0  0  0  0  0  0  0
  192.2160  177.4500  140.2190 O   0  0  0  0  0  1  0  0  0  0  0  0
  1 14  1  0  0  0  0
  2  1  2  0  0  0  0
  4  8  2  0  0  0  0
  4  1  1  0  0  0  0
  5 18  1  0  0  0  0
  5 12  1  0  0  0  0
  6  9  1  0  0  0  0
  7  3  2  0  0  0  0
  8 15  1  0  0  0  0
  9  8  1  0  0  0  0
 10 19  1  0  0  0  0
 10 11  1  0  0  0  0
 12  2  1  0  0  0  0
 13 17  1  0  0  0  0
 13  6  1  0  0  0  0
 14  3  1  0  0  0  0
 15 14  2  0  0  0  0
 16 10  2  0  0  0  0
 17  4  1  0  0  0  0
 18 16  1  0  0  0  0
 19  2  1  6  0  0  0
 19  7  1  0  0  0  0
 20  5  1  0  0  0  0
 22 21  1  6  0  0  0
 22 20  1  0  0  0  0
 23 22  1  0  0  0  0
 24 23  2  0  0  0  0
 25 23  1  0  0  0  0
M  END
>  <MODEL>
1

>  <REMARK>
 VINA RESULT:      -9.2      0.000      0.000
  Name = 
  3 active torsions:
  status: ('A' for Active; 'I' for Inactive)
    1  A    between atoms: C_2  and  C_25
    2  A    between atoms: N_6  and  C_15
    3  A    between atoms: C_15  and  C_25
                            x       y       z     vdW  Elec       q    Type
                         _______ _______ _______ _____ _____    ______ ____

>  <TORSDO>
F 3

$$$$
=
 OpenBabel10272400533D

 25 28  0  0  1  0  0  0  0  0999 V2000
  186.2980  178.4680  142.0730 C   0  0  0  0  0  0  0  0  0  0  0  0
  187.5970  178.3910  141.8070 C   0  0  0  0  0  0  0  0  0  0  0  0
  185.7010  178.7290  139.6610 C   0  0  0  0  0  3  0  0  0  0  0  0
  185.5460  178.4690  143.3100 C   0  0  2  0  0  3  0  0  0  0  0  0
  189.8490  178.0740  142.6170 N   0  0  0  0  0  0  0  0  0  0  0  0
  183.6600  178.9830  145.3590 C   0  0  0  0  0  2  0  0  0  0  0  0
  186.9680  178.6350  139.3680 N   0  0  0  0  0  0  0  0  0  0  0  0
  184.2740  178.6490  142.9580 C   0  0  0  0  0  0  0  0  0  0  0  0
  183.1450  178.6700  143.9470 C   0  0  0  0  0  2  0  0  0  0  0  0
  188.9240  177.2210  139.9190 C   0  0  0  0  0  0  0  0  0  0  0  0
  189.0100  176.8970  138.4630 C   0  0  0  0  0  1  0  0  0  0  0  0
  188.5160  178.3360  142.8540 O   0  0  0  0  0  0  0  0  0  0  0  0
  184.8910  178.1310  145.6900 C   0  0  0  0  0  2  0  0  0  0  0  0
  185.3040  178.6260  141.0570 C   0  0  0  0  0  0  0  0  0  0  0  0
  184.1080  178.7350  141.5360 N   0  0  0  0  0  0  0  0  0  0  0  0
  189.7770  176.5500  140.7140 C   0  0  0  0  0  3  0  0  0  0  0  0
  186.0410  178.4420  144.7260 C   0  0  0  0  0  2  0  0  0  0  0  0
  189.9400  176.6840  142.1990 C   0  0  0  0  0  2  0  0  0  0  0  0
  188.0630  178.4050  140.3480 C   0  0  0  0  0  0  0  0  0  0  0  0
  190.5990  178.2440  143.8680 C   0  0  0  0  0  2  0  0  0  0  0  0
  189.4700  177.9050  146.0660 C   0  0  0  0  0  1  0  0  0  0  0  0
  190.2410  177.2200  144.9530 C   0  0  2  0  0  3  0  0  0  0  0  0
  191.4560  176.5510  145.5080 C   0  0  0  0  0  0  0  0  0  0  0  0
  191.9430  176.9330  146.7510 O   0  0  0  0  0  1  0  0  0  0  0  0
  192.0450  175.6460  144.8580 O   0  0  0  0  0  0  0  0  0  0  0  0
  1  4  1  0  0  0  0
  2  1  1  0  0  0  0
  2 12  1  0  0  0  0
  3 14  1  0  0  0  0
  4 17  1  1  0  0  0
  5 12  1  0  0  0  0
  5 20  1  0  0  0  0
  6 13  1  0  0  0  0
  7  3  2  0  0  0  0
  7 19  1  0  0  0  0
  8  4  1  0  0  0  0
  8  9  1  0  0  0  0
  9  6  1  0  0  0  0
 10 19  1  0  0  0  0
 10 16  2  0  0  0  0
 11 10  1  0  0  0  0
 14 15  1  0  0  0  0
 14  1  2  0  0  0  0
 15  8  2  0  0  0  0
 16 18  1  0  0  0  0
 17 13  1  0  0  0  0
 18  5  1  0  0  0  0
 19  2  2  0  0  0  0
 20 22  1  0  0  0  0
 22 23  1  0  0  0  0
 22 21  1  1  0  0  0
 23 24  1  0  0  0  0
 25 23  2  0  0  0  0
M  END
>  <MODEL>
2

>  <REMARK>
 VINA RESULT:      -8.9      2.414      5.070
  Name = 
  3 active torsions:
  status: ('A' for Active; 'I' for Inactive)
    1  A    between atoms: C_2  and  C_25
    2  A    between atoms: N_6  and  C_15
    3  A    between atoms: C_15  and  C_25
                            x       y       z     vdW  Elec       q    Type
                         _______ _______ _______ _____ _____    ______ ____

>  <TORSDO>
F 3

$$$$
=
 OpenBabel10272400533D

 25 28  0  0  1  0  0  0  0  0999 V2000
  186.7850  178.3490  142.5040 C   0  0  0  0  0  0  0  0  0  0  0  0
  188.1080  178.2350  142.4420 C   0  0  0  0  0  0  0  0  0  0  0  0
  186.5740  178.5870  140.0250 C   0  0  0  0  0  3  0  0  0  0  0  0
  185.8520  178.3870  143.6090 C   0  0  2  0  0  3  0  0  0  0  0  0
  190.1990  177.8740  143.5940 N   0  0  0  0  0  0  0  0  0  0  0  0
  183.6870  178.9790  145.3360 C   0  0  0  0  0  2  0  0  0  0  0  0
  187.8680  178.4570  139.9320 N   0  0  0  0  0  0  0  0  0  0  0  0
  184.6550  178.5930  143.0630 C   0  0  0  0  0  0  0  0  0  0  0  0
  183.3880  178.6580  143.8650 C   0  0  0  0  0  2  0  0  0  0  0  0
  189.6770  177.0040  140.7950 C   0  0  0  0  0  0  0  0  0  0  0  0
  189.9780  176.6550  139.3740 C   0  0  0  0  0  1  0  0  0  0  0  0
  188.8530  178.1730  143.6190 O   0  0  0  0  0  0  0  0  0  0  0  0
  184.8290  178.1020  145.8630 C   0  0  0  0  0  2  0  0  0  0  0  0
  185.9650  178.5150  141.3440 C   0  0  0  0  0  0  0  0  0  0  0  0
  184.7120  178.6620  141.6320 N   0  0  0  0  0  0  0  0  0  0  0  0
  190.3790  176.3240  141.7200 C   0  0  0  0  0  3  0  0  0  0  0  0
  186.1230  178.3700  145.0850 C   0  0  0  0  0  2  0  0  0  0  0  0
  190.3150  176.4760  143.2110 C   0  0  0  0  0  2  0  0  0  0  0  0
  188.7930  178.2150  141.0720 C   0  0  0  0  0  0  0  0  0  0  0  0
  190.7510  178.0450  144.9440 C   0  0  0  0  0  2  0  0  0  0  0  0
  189.2750  177.4040  146.8490 C   0  0  0  0  0  1  0  0  0  0  0  0
  190.3720  176.9220  145.9190 C   0  0  2  0  0  3  0  0  0  0  0  0
  191.5490  176.4540  146.7120 C   0  0  0  0  0  0  0  0  0  0  0  0
  192.2840  175.3640  146.2700 O   0  0  0  0  0  0  0  0  0  0  0  0
  191.8770  177.0380  147.7800 O   0  0  0  0  0  1  0  0  0  0  0  0
  1  4  1  0  0  0  0
  2  1  1  0  0  0  0
  2 12  1  0  0  0  0
  3 14  1  0  0  0  0
  4 17  1  1  0  0  0
  5 12  1  0  0  0  0
  5 20  1  0  0  0  0
  6 13  1  0  0  0  0
  7  3  2  0  0  0  0
  7 19  1  0  0  0  0
  8  4  1  0  0  0  0
  8  9  1  0  0  0  0
  9  6  1  0  0  0  0
 10 19  1  0  0  0  0
 10 16  2  0  0  0  0
 11 10  1  0  0  0  0
 14 15  1  0  0  0  0
 14  1  2  0  0  0  0
 15  8  2  0  0  0  0
 16 18  1  0  0  0  0
 17 13  1  0  0  0  0
 18  5  1  0  0  0  0
 19  2  2  0  0  0  0
 20 22  1  0  0  0  0
 22 23  1  0  0  0  0
 22 21  1  1  0  0  0
 23 25  1  0  0  0  0
 24 23  2  0  0  0  0
M  END
>  <MODEL>
3

>  <REMARK>
 VINA RESULT:      -8.9      2.265      4.955
  Name = 
  3 active torsions:
  status: ('A' for Active; 'I' for Inactive)
    1  A    between atoms: C_2  and  C_25
    2  A    between atoms: N_6  and  C_15
    3  A    between atoms: C_15  and  C_25
                            x       y       z     vdW  Elec       q    Type
                         _______ _______ _______ _____ _____    ______ ____

>  <TORSDO>
F 3

$$$$
=
 OpenBabel10272400533D

 25 28  0  0  1  0  0  0  0  0999 V2000
  186.9300  177.7850  144.6360 C   0  0  0  0  0  0  0  0  0  0  0  0
  188.0360  177.3820  144.0210 C   0  0  0  0  0  0  0  0  0  0  0  0
  187.8670  177.2880  146.8980 C   0  0  0  0  0  3  0  0  0  0  0  0
  185.6530  178.2620  144.1480 C   0  0  0  0  0  0  0  0  0  0  0  0
  189.2550  177.0900  141.9570 N   0  0  0  0  0  0  0  0  0  0  0  0
  182.8950  178.7860  143.7790 C   0  0  0  0  0  2  0  0  0  0  0  0
  188.9730  176.9060  146.3240 N   0  0  0  0  0  0  0  0  0  0  0  0
  184.9000  178.4460  145.2320 C   0  0  0  0  0  0  0  0  0  0  0  0
  183.4990  178.9800  145.1760 C   0  0  0  0  0  2  0  0  0  0  0  0
  190.5460  177.6780  144.5750 C   0  0  0  0  0  0  0  0  0  0  0  0
  191.6060  177.6790  145.6290 C   0  0  0  0  0  1  0  0  0  0  0  0
  188.0740  177.3270  142.6280 O   0  0  0  0  0  0  0  0  0  0  0  0
  183.8810  179.2340  142.6930 C   0  0  0  0  0  2  0  0  0  0  0  0
  186.7830  177.7740  146.0590 C   0  0  0  0  0  0  0  0  0  0  0  0
  185.6090  178.1540  146.4450 N   0  0  0  0  0  0  0  0  0  0  0  0
  190.9180  178.1690  143.3790 C   0  0  0  0  0  3  0  0  0  0  0  0
  185.1590  178.3890  142.7380 C   0  0  0  0  0  2  0  0  0  0  0  0
  190.0870  178.2700  142.1330 C   0  0  0  0  0  2  0  0  0  0  0  0
  189.2400  176.9430  144.8610 C   0  0  2  0  0  3  0  0  0  0  0  0
  188.9670  176.9200  140.5280 C   0  0  0  0  0  2  0  0  0  0  0  0
  187.0440  178.1850  139.5670 C   0  0  0  0  0  1  0  0  0  0  0  0
  188.5390  178.2140  139.8210 C   0  0  2  0  0  3  0  0  0  0  0  0
  189.2740  178.4140  138.5350 C   0  0  0  0  0  0  0  0  0  0  0  0
  188.9820  179.5150  137.7430 O   0  0  0  0  0  0  0  0  0  0  0  0
  190.1530  177.5910  138.1630 O   0  0  0  0  0  1  0  0  0  0  0  0
  1 14  1  0  0  0  0
  2  1  2  0  0  0  0
  4  1  1  0  0  0  0
  4  8  2  0  0  0  0
  5 18  1  0  0  0  0
  5 12  1  0  0  0  0
  6  9  1  0  0  0  0
  7  3  2  0  0  0  0
  8 15  1  0  0  0  0
  9  8  1  0  0  0  0
 10 19  1  0  0  0  0
 10 11  1  0  0  0  0
 12  2  1  0  0  0  0
 13 17  1  0  0  0  0
 13  6  1  0  0  0  0
 14 15  2  0  0  0  0
 14  3  1  0  0  0  0
 16 10  2  0  0  0  0
 17  4  1  0  0  0  0
 18 16  1  0  0  0  0
 19  2  1  6  0  0  0
 19  7  1  0  0  0  0
 20  5  1  0  0  0  0
 22 21  1  6  0  0  0
 22 20  1  0  0  0  0
 23 22  1  0  0  0  0
 24 23  2  0  0  0  0
 25 23  1  0  0  0  0
M  END
>  <MODEL>
4

>  <REMARK>
 VINA RESULT:      -8.6      1.471      1.849
  Name = 
  3 active torsions:
  status: ('A' for Active; 'I' for Inactive)
    1  A    between atoms: C_2  and  C_25
    2  A    between atoms: N_6  and  C_15
    3  A    between atoms: C_15  and  C_25
                            x       y       z     vdW  Elec       q    Type
                         _______ _______ _______ _____ _____    ______ ____

>  <TORSDO>
F 3

$$$$
=
 OpenBabel10272400533D

 25 28  0  0  1  0  0  0  0  0999 V2000
  188.5780  177.3240  144.4180 C   0  0  0  0  0  0  0  0  0  0  0  0
  187.8980  177.3260  143.2770 C   0  0  0  0  0  0  0  0  0  0  0  0
  190.6310  176.4080  143.3290 C   0  0  0  0  0  3  0  0  0  0  0  0
  188.2160  177.6650  145.7780 C   0  0  2  0  0  3  0  0  0  0  0  0
  185.8600  177.8560  142.0950 N   0  0  0  0  0  0  0  0  0  0  0  0
  187.9500  177.7340  148.5970 C   0  0  0  0  0  2  0  0  0  0  0  0
  189.9960  176.4180  142.1900 N   0  0  0  0  0  0  0  0  0  0  0  0
  189.2930  177.3940  146.5150 C   0  0  0  0  0  0  0  0  0  0  0  0
  189.3580  177.6450  147.9930 C   0  0  0  0  0  2  0  0  0  0  0  0
  188.5650  177.9310  140.8510 C   0  0  0  0  0  0  0  0  0  0  0  0
  189.5990  177.8410  139.7760 C   0  0  0  0  0  1  0  0  0  0  0  0
  186.5470  177.6680  143.2760 O   0  0  0  0  0  0  0  0  0  0  0  0
  187.0520  178.6450  147.7500 C   0  0  0  0  0  2  0  0  0  0  0  0
  189.9380  176.8920  144.5130 C   0  0  0  0  0  0  0  0  0  0  0  0
  190.3900  176.9180  145.7240 N   0  0  0  0  0  0  0  0  0  0  0  0
  187.5610  178.7960  140.6190 C   0  0  0  0  0  3  0  0  0  0  0  0
  186.8870  178.0810  146.3350 C   0  0  0  0  0  2  0  0  0  0  0  0
  186.3760  179.0770  141.4960 C   0  0  0  0  0  2  0  0  0  0  0  0
  188.6070  176.9100  141.9840 C   0  0  0  0  0  0  0  0  0  0  0  0
  184.4340  178.0380  142.3940 C   0  0  0  0  0  2  0  0  0  0  0  0
  182.1910  178.8480  141.6670 C   0  0  0  0  0  1  0  0  0  0  0  0
  183.6180  178.5930  141.2190 C   0  0  2  0  0  3  0  0  0  0  0  0
  183.6290  177.6660  140.0470 C   0  0  0  0  0  0  0  0  0  0  0  0
  184.3570  178.0020  138.9140 O   0  0  0  0  0  0  0  0  0  0  0  0
  182.9820  176.5840  140.0770 O   0  0  0  0  0  1  0  0  0  0  0  0
  1 14  2  0  0  0  0
  1  4  1  0  0  0  0
  2  1  1  0  0  0  0
  3 14  1  0  0  0  0
  4 17  1  1  0  0  0
  4  8  1  0  0  0  0
  5 20  1  0  0  0  0
  5 12  1  0  0  0  0
  7  3  2  0  0  0  0
  8  9  1  0  0  0  0
  9  6  1  0  0  0  0
 10 19  1  0  0  0  0
 11 10  1  0  0  0  0
 12  2  1  0  0  0  0
 13  6  1  0  0  0  0
 14 15  1  0  0  0  0
 15  8  2  0  0  0  0
 16 10  2  0  0  0  0
 16 18  1  0  0  0  0
 17 13  1  0  0  0  0
 18  5  1  0  0  0  0
 19  7  1  0  0  0  0
 19  2  2  0  0  0  0
 22 21  1  1  0  0  0
 22 20  1  0  0  0  0
 23 25  1  0  0  0  0
 23 22  1  0  0  0  0
 24 23  2  0  0  0  0
M  END
>  <MODEL>
5

>  <REMARK>
 VINA RESULT:      -8.3      2.598      5.693
  Name = 
  3 active torsions:
  status: ('A' for Active; 'I' for Inactive)
    1  A    between atoms: C_2  and  C_25
    2  A    between atoms: N_6  and  C_15
    3  A    between atoms: C_15  and  C_25
                            x       y       z     vdW  Elec       q    Type
                         _______ _______ _______ _____ _____    ______ ____

>  <TORSDO>
F 3

$$$$
=
 OpenBabel10272400533D

 25 28  0  0  1  0  0  0  0  0999 V2000
  188.6420  177.4110  144.4900 C   0  0  0  0  0  0  0  0  0  0  0  0
  187.9200  177.3470  143.3760 C   0  0  0  0  0  0  0  0  0  0  0  0
  190.7350  176.7250  143.3110 C   0  0  0  0  0  3  0  0  0  0  0  0
  188.3020  177.7030  145.8660 C   0  0  2  0  0  3  0  0  0  0  0  0
  185.7920  177.6650  142.2810 N   0  0  0  0  0  0  0  0  0  0  0  0
  188.1440  177.7270  148.6930 C   0  0  0  0  0  2  0  0  0  0  0  0
  190.0570  176.6750  142.1980 N   0  0  0  0  0  0  0  0  0  0  0  0
  189.4300  177.5440  146.5570 C   0  0  0  0  0  0  0  0  0  0  0  0
  189.5280  177.7920  148.0340 C   0  0  0  0  0  2  0  0  0  0  0  0
  188.4210  178.0340  140.9320 C   0  0  0  0  0  0  0  0  0  0  0  0
  189.4140  178.0620  139.8160 C   0  0  0  0  0  1  0  0  0  0  0  0
  186.5410  177.5440  143.4320 O   0  0  0  0  0  0  0  0  0  0  0  0
  187.1210  178.5420  147.8920 C   0  0  0  0  0  2  0  0  0  0  0  0
  190.0430  177.1260  144.5260 C   0  0  0  0  0  0  0  0  0  0  0  0
  190.5390  177.1930  145.7180 N   0  0  0  0  0  0  0  0  0  0  0  0
  187.3220  178.7890  140.7490 C   0  0  0  0  0  3  0  0  0  0  0  0
  186.9600  177.9720  146.4790 C   0  0  0  0  0  2  0  0  0  0  0  0
  186.1500  178.9370  141.6750 C   0  0  0  0  0  2  0  0  0  0  0  0
  188.6170  177.0170  142.0520 C   0  0  0  0  0  0  0  0  0  0  0  0
  184.3680  177.6910  142.6380 C   0  0  0  0  0  2  0  0  0  0  0  0
  183.8400  179.3720  144.4030 C   0  0  0  0  0  1  0  0  0  0  0  0
  183.8210  179.0990  142.9120 C   0  0  2  0  0  3  0  0  0  0  0  0
  182.4360  179.2710  142.3770 C   0  0  0  0  0  0  0  0  0  0  0  0
  181.4510  179.8160  143.1870 O   0  0  0  0  0  1  0  0  0  0  0  0
  182.1550  178.9210  141.1990 O   0  0  0  0  0  0  0  0  0  0  0  0
  1 14  2  0  0  0  0
  1  4  1  0  0  0  0
  2 12  1  0  0  0  0
  2  1  1  0  0  0  0
  3 14  1  0  0  0  0
  4 17  1  1  0  0  0
  4  8  1  0  0  0  0
  5 20  1  0  0  0  0
  5 12  1  0  0  0  0
  7  3  2  0  0  0  0
  8  9  1  0  0  0  0
  9  6  1  0  0  0  0
 10 19  1  0  0  0  0
 11 10  1  0  0  0  0
 13  6  1  0  0  0  0
 14 15  1  0  0  0  0
 15  8  2  0  0  0  0
 16 10  2  0  0  0  0
 16 18  1  0  0  0  0
 17 13  1  0  0  0  0
 18  5  1  0  0  0  0
 19  7  1  0  0  0  0
 19  2  2  0  0  0  0
 20 22  1  0  0  0  0
 22 21  1  1  0  0  0
 23 22  1  0  0  0  0
 23 24  1  0  0  0  0
 25 23  2  0  0  0  0
M  END
>  <MODEL>
6

>  <REMARK>
 VINA RESULT:      -8.0      2.644      6.116
  Name = 
  3 active torsions:
  status: ('A' for Active; 'I' for Inactive)
    1  A    between atoms: C_2  and  C_25
    2  A    between atoms: N_6  and  C_15
    3  A    between atoms: C_15  and  C_25
                            x       y       z     vdW  Elec       q    Type
                         _______ _______ _______ _____ _____    ______ ____

>  <TORSDO>
F 3

$$$$
=
 OpenBabel10272400533D

 25 28  0  0  1  0  0  0  0  0999 V2000
  189.5000  177.6310  140.9340 C   0  0  0  0  0  0  0  0  0  0  0  0
  188.8160  178.0470  141.9940 C   0  0  0  0  0  0  0  0  0  0  0  0
  191.6160  177.4020  142.2420 C   0  0  0  0  0  3  0  0  0  0  0  0
  189.1430  177.4540  139.5420 C   0  0  0  0  0  0  0  0  0  0  0  0
  186.7030  178.7220  142.9460 N   0  0  0  0  0  0  0  0  0  0  0  0
  189.1460  177.3780  136.7110 C   0  0  0  0  0  2  0  0  0  0  0  0
  190.9660  177.7870  143.3050 N   0  0  0  0  0  0  0  0  0  0  0  0
  190.2660  177.0830  138.9270 C   0  0  0  0  0  0  0  0  0  0  0  0
  190.3280  176.7530  137.4650 C   0  0  0  0  0  2  0  0  0  0  0  0
  188.8370  177.3190  144.4770 C   0  0  0  0  0  0  0  0  0  0  0  0
  189.6580  176.9160  145.6590 C   0  0  0  0  0  1  0  0  0  0  0  0
  187.4930  178.4590  141.8470 O   0  0  0  0  0  0  0  0  0  0  0  0
  187.8290  177.1160  137.4530 C   0  0  0  0  0  2  0  0  0  0  0  0
  190.8870  177.2850  140.9890 C   0  0  0  0  0  0  0  0  0  0  0  0
  191.3700  176.9600  139.8340 N   0  0  0  0  0  0  0  0  0  0  0  0
  187.5120  177.1180  144.5960 C   0  0  0  0  0  3  0  0  0  0  0  0
  187.8520  177.7610  138.8430 C   0  0  0  0  0  2  0  0  0  0  0  0
  186.4430  177.4470  143.5960 C   0  0  0  0  0  2  0  0  0  0  0  0
  189.5140  178.1030  143.3570 C   0  0  2  0  0  3  0  0  0  0  0  0
  185.4290  179.2940  142.4930 C   0  0  0  0  0  2  0  0  0  0  0  0
  183.5170  178.1440  141.3790 C   0  0  0  0  0  1  0  0  0  0  0  0
  184.2220  178.3690  142.7030 C   0  0  2  0  0  3  0  0  0  0  0  0
  183.2640  178.9250  143.7060 C   0  0  0  0  0  0  0  0  0  0  0  0
  183.6930  179.1680  145.0030 O   0  0  0  0  0  1  0  0  0  0  0  0
  182.0690  179.1700  143.3860 O   0  0  0  0  0  0  0  0  0  0  0  0
  1 14  1  0  0  0  0
  1  2  2  0  0  0  0
  3  7  2  0  0  0  0
  4  1  1  0  0  0  0
  5 18  1  0  0  0  0
  6 13  1  0  0  0  0
  6  9  1  0  0  0  0
  7 19  1  0  0  0  0
  8  4  2  0  0  0  0
  8 15  1  0  0  0  0
  9  8  1  0  0  0  0
 10 16  2  0  0  0  0
 10 11  1  0  0  0  0
 12  2  1  0  0  0  0
 12  5  1  0  0  0  0
 13 17  1  0  0  0  0
 14  3  1  0  0  0  0
 15 14  2  0  0  0  0
 17  4  1  0  0  0  0
 18 16  1  0  0  0  0
 19  2  1  6  0  0  0
 19 10  1  0  0  0  0
 20 22  1  0  0  0  0
 20  5  1  0  0  0  0
 22 21  1  6  0  0  0
 22 23  1  0  0  0  0
 23 24  1  0  0  0  0
 25 23  2  0  0  0  0
M  END
>  <MODEL>
7

>  <REMARK>
 VINA RESULT:      -7.9      2.726      6.570
  Name = 
  3 active torsions:
  status: ('A' for Active; 'I' for Inactive)
    1  A    between atoms: C_2  and  C_25
    2  A    between atoms: N_6  and  C_15
    3  A    between atoms: C_15  and  C_25
                            x       y       z     vdW  Elec       q    Type
                         _______ _______ _______ _____ _____    ______ ____

>  <TORSDO>
F 3

$$$$
=
 OpenBabel10272400533D

 25 28  0  0  1  0  0  0  0  0999 V2000
  187.9580  177.6540  143.4210 C   0  0  0  0  0  0  0  0  0  0  0  0
  187.8290  177.3470  144.7070 C   0  0  0  0  0  0  0  0  0  0  0  0
  185.5570  178.3120  143.2180 C   0  0  0  0  0  3  0  0  0  0  0  0
  189.0680  177.5640  142.4960 C   0  0  0  0  0  0  0  0  0  0  0  0
  188.8640  176.6180  146.7630 N   0  0  0  0  0  0  0  0  0  0  0  0
  190.6890  177.1800  140.2050 C   0  0  0  0  0  2  0  0  0  0  0  0
  185.4050  178.0380  144.4830 N   0  0  0  0  0  0  0  0  0  0  0  0
  188.5830  177.9460  141.3140 C   0  0  0  0  0  0  0  0  0  0  0  0
  189.4230  178.0380  140.0750 C   0  0  0  0  0  2  0  0  0  0  0  0
  186.5320  178.4660  146.6460 C   0  0  0  0  0  0  0  0  0  0  0  0
  185.2740  179.1390  147.0880 C   0  0  0  0  0  1  0  0  0  0  0  0
  188.9010  176.7800  145.3940 O   0  0  0  0  0  0  0  0  0  0  0  0
  191.3710  177.4200  141.5580 C   0  0  0  0  0  2  0  0  0  0  0  0
  186.8750  178.1470  142.6270 C   0  0  0  0  0  0  0  0  0  0  0  0
  187.2020  178.3290  141.3890 N   0  0  0  0  0  0  0  0  0  0  0  0
  187.5640  178.5450  147.5050 C   0  0  0  0  0  3  0  0  0  0  0  0
  190.4460  177.0150  142.7110 C   0  0  0  0  0  2  0  0  0  0  0  0
  188.9320  177.9480  147.3490 C   0  0  0  0  0  2  0  0  0  0  0  0
  186.4850  177.5860  145.4010 C   0  0  2  0  0  3  0  0  0  0  0  0
  190.0420  175.8510  147.1860 C   0  0  0  0  0  2  0  0  0  0  0  0
  191.9820  175.9320  145.6220 C   0  0  0  0  0  1  0  0  0  0  0  0
  191.3780  176.5380  146.8740 C   0  0  2  0  0  3  0  0  0  0  0  0
  192.3390  176.4270  148.0130 C   0  0  0  0  0  0  0  0  0  0  0  0
  192.3870  177.4300  148.9710 O   0  0  0  0  0  1  0  0  0  0  0  0
  193.1100  175.4340  148.1090 O   0  0  0  0  0  0  0  0  0  0  0  0
  1  2  2  0  0  0  0
  2 12  1  0  0  0  0
  2 19  1  0  0  0  0
  3  7  2  0  0  0  0
  4 17  1  0  0  0  0
  4  1  1  0  0  0  0
  5 20  1  0  0  0  0
  5 18  1  0  0  0  0
  6 13  1  0  0  0  0
  8 15  1  0  0  0  0
  8  4  2  0  0  0  0
  9  6  1  0  0  0  0
  9  8  1  0  0  0  0
 10 11  1  0  0  0  0
 10 16  2  0  0  0  0
 12  5  1  0  0  0  0
 13 17  1  0  0  0  0
 14  3  1  0  0  0  0
 14  1  1  0  0  0  0
 15 14  2  0  0  0  0
 18 16  1  0  0  0  0
 19  7  1  6  0  0  0
 19 10  1  0  0  0  0
 22 21  1  6  0  0  0
 22 20  1  0  0  0  0
 22 23  1  0  0  0  0
 23 25  2  0  0  0  0
 23 24  1  0  0  0  0
M  END
>  <MODEL>
8

>  <REMARK>
 VINA RESULT:      -7.8      2.317      5.562
  Name = 
  3 active torsions:
  status: ('A' for Active; 'I' for Inactive)
    1  A    between atoms: C_2  and  C_25
    2  A    between atoms: N_6  and  C_15
    3  A    between atoms: C_15  and  C_25
                            x       y       z     vdW  Elec       q    Type
                         _______ _______ _______ _____ _____    ______ ____

>  <TORSDO>
F 3

$$$$
=
 OpenBabel10272400533D

 25 28  0  0  1  0  0  0  0  0999 V2000
  187.9910  177.8770  145.6100 C   0  0  0  0  0  0  0  0  0  0  0  0
  187.2950  178.4240  144.6200 C   0  0  0  0  0  0  0  0  0  0  0  0
  186.2820  178.5120  147.3180 C   0  0  0  0  0  3  0  0  0  0  0  0
  189.2830  177.2260  145.6610 C   0  0  0  0  0  0  0  0  0  0  0  0
  187.0760  178.8660  142.2560 N   0  0  0  0  0  0  0  0  0  0  0  0
  191.8590  176.3270  146.4190 C   0  0  0  0  0  2  0  0  0  0  0  0
  185.5660  179.0390  146.3640 N   0  0  0  0  0  0  0  0  0  0  0  0
  189.4960  176.9480  146.9470 C   0  0  0  0  0  0  0  0  0  0  0  0
  190.7160  176.2270  147.4380 C   0  0  0  0  0  2  0  0  0  0  0  0
  184.7630  178.4780  144.0910 C   0  0  0  0  0  0  0  0  0  0  0  0
  183.3740  178.6290  144.6210 C   0  0  0  0  0  1  0  0  0  0  0  0
  187.8370  178.4740  143.3370 O   0  0  0  0  0  0  0  0  0  0  0  0
  191.3560  176.0110  145.0050 C   0  0  0  0  0  2  0  0  0  0  0  0
  187.5420  177.8770  146.9690 C   0  0  2  0  0  3  0  0  0  0  0  0
  188.3960  177.3420  147.7800 N   0  0  0  0  0  0  0  0  0  0  0  0
  184.8540  178.0340  142.8240 C   0  0  0  0  0  3  0  0  0  0  0  0
  190.2910  177.0240  144.5690 C   0  0  0  0  0  2  0  0  0  0  0  0
  186.1010  177.8130  142.0200 C   0  0  0  0  0  2  0  0  0  0  0  0
  185.9190  179.0290  144.9190 C   0  0  0  0  0  0  0  0  0  0  0  0
  187.9440  178.9860  141.0780 C   0  0  0  0  0  2  0  0  0  0  0  0
  189.7680  177.2980  140.8750 C   0  0  0  0  0  1  0  0  0  0  0  0
  188.3480  177.6380  140.4650 C   0  0  2  0  0  3  0  0  0  0  0  0
  188.2340  177.6500  138.9740 C   0  0  0  0  0  0  0  0  0  0  0  0
  188.4950  176.4900  138.2580 O   0  0  0  0  0  0  0  0  0  0  0  0
  187.9070  178.7030  138.3630 O   0  0  0  0  0  1  0  0  0  0  0  0
  1  4  2  0  0  0  0
  1 14  1  0  0  0  0
  2 19  2  0  0  0  0
  2  1  1  0  0  0  0
  4  8  1  0  0  0  0
  5 12  1  0  0  0  0
  6  9  1  0  0  0  0
  7  3  2  0  0  0  0
  8  9  1  0  0  0  0
  8 15  2  0  0  0  0
 10 11  1  0  0  0  0
 10 19  1  0  0  0  0
 12  2  1  0  0  0  0
 13  6  1  0  0  0  0
 14  3  1  1  0  0  0
 14 15  1  0  0  0  0
 16 10  2  0  0  0  0
 17 13  1  0  0  0  0
 17  4  1  0  0  0  0
 18  5  1  0  0  0  0
 18 16  1  0  0  0  0
 19  7  1  0  0  0  0
 20  5  1  0  0  0  0
 22 21  1  6  0  0  0
 22 20  1  0  0  0  0
 23 22  1  0  0  0  0
 24 23  2  0  0  0  0
 25 23  1  0  0  0  0
M  END
>  <MODEL>
9

>  <REMARK>
 VINA RESULT:      -7.8      1.644      4.833
  Name = 
  3 active torsions:
  status: ('A' for Active; 'I' for Inactive)
    1  A    between atoms: C_2  and  C_25
    2  A    between atoms: N_6  and  C_15
    3  A    between atoms: C_15  and  C_25
                            x       y       z     vdW  Elec       q    Type
                         _______ _______ _______ _____ _____    ______ ____

>  <TORSDO>
F 3

$$$$
