=
 OpenBabel10272413543D

 30 32  0  0  1  0  0  0  0  0999 V2000
  187.6470  177.7880  143.4640 C   0  0  0  0  0  2  0  0  0  0  0  0
  185.1470  178.1500  143.0010 N   0  0  0  0  0  0  0  0  0  0  0  0
  186.8620  178.3300  147.7320 C   0  0  0  0  0  2  0  0  0  0  0  0
  188.5930  177.1160  144.4730 C   0  0  2  0  0  3  0  0  0  0  0  0
  187.8370  177.5830  148.6480 C   0  0  0  0  0  2  0  0  0  0  0  0
  184.6970  179.5200  143.2530 C   0  0  0  0  0  2  0  0  0  0  0  0
  185.5860  178.0670  141.6140 C   0  0  0  0  0  1  0  0  0  0  0  0
  186.9490  177.7070  146.3400 C   0  0  2  0  0  3  0  0  0  0  0  0
  184.0190  179.6230  144.6350 C   0  0  0  0  0  2  0  0  0  0  0  0
  186.2000  177.7280  143.9700 C   0  0  2  0  0  3  0  0  0  0  0  0
  188.4170  177.7210  145.8870 C   0  0  1  0  0  3  0  0  0  0  0  0
  189.1560  177.7170  148.1690 O   0  0  0  0  0  0  0  0  0  0  0  0
  189.2370  177.0000  146.9580 C   0  0  0  0  0  2  0  0  0  0  0  0
  184.6600  178.6980  145.6790 C   0  0  0  0  0  2  0  0  0  0  0  0
  186.1190  178.4670  145.3110 C   0  0  1  0  0  3  0  0  0  0  0  0
  190.0310  177.1710  143.9210 C   0  0  1  0  0  3  0  0  0  0  0  0
  190.2060  175.0090  142.8770 O   0  0  0  0  0  0  0  0  0  0  0  0
  190.6570  175.8090  143.7420 C   0  0  0  0  0  0  0  0  0  0  0  0
  192.4890  174.4070  144.2630 O   0  0  0  0  0  0  0  0  0  0  0  0
  191.7660  175.3820  144.6060 C   0  0  0  0  0  0  0  0  0  0  0  0
  192.0140  176.0550  145.8090 O   0  0  0  0  0  0  0  0  0  0  0  0
  192.4100  176.3000  148.1730 C   0  0  0  0  0  1  0  0  0  0  0  0
  192.4660  175.3720  146.9710 C   0  0  0  0  0  2  0  0  0  0  0  0
  190.1110  177.9940  142.6380 C   0  0  0  0  0  2  0  0  0  0  0  0
  191.4160  177.9750  142.1230 O   0  0  0  0  0  0  0  0  0  0  0  0
  191.2950  177.5010  140.8130 C   0  0  0  0  0  2  0  0  0  0  0  0
  189.9480  177.6140  140.3630 O   0  0  0  0  0  0  0  0  0  0  0  0
  189.0300  179.1640  138.7350 O   0  0  0  0  0  1  0  0  0  0  0  0
  189.6200  177.9430  139.0410 C   0  0  0  0  0  0  0  0  0  0  0  0
  189.8850  177.1330  138.1150 O   0  0  0  0  0  0  0  0  0  0  0  0
  1  4  1  0  0  0  0
  2  6  1  0  0  0  0
  2 10  1  0  0  0  0
  3  5  1  0  0  0  0
  4 16  1  6  0  0  0
  4 11  1  0  0  0  0
  6  9  1  0  0  0  0
  7  2  1  0  0  0  0
  8  3  1  1  0  0  0
  9 14  1  0  0  0  0
 10  1  1  6  0  0  0
 10 15  1  0  0  0  0
 11  8  1  0  0  0  0
 11 13  1  1  0  0  0
 12  5  1  0  0  0  0
 13 12  1  0  0  0  0
 15 14  1  1  0  0  0
 15  8  1  0  0  0  0
 16 24  1  6  0  0  0
 17 18  2  0  0  0  0
 18 16  1  0  0  0  0
 18 20  1  0  0  0  0
 19 20  2  0  0  0  0
 20 21  1  0  0  0  0
 21 23  1  0  0  0  0
 23 22  1  0  0  0  0
 25 24  1  0  0  0  0
 26 25  1  0  0  0  0
 27 26  1  0  0  0  0
 28 29  1  0  0  0  0
 29 27  1  0  0  0  0
 30 29  2  0  0  0  0
M  END
>  <MODEL>
1

>  <REMARK>
 VINA RESULT:      -8.0      0.000      0.000
  Name = 
  10 active torsions:
  status: ('A' for Active; 'I' for Inactive)
    1  A    between atoms: C_4  and  C_13
    2  A    between atoms: O_5  and  C_12
    3  A    between atoms: O_5  and  C_21
    4  A    between atoms: O_7  and  C_15
    5  A    between atoms: O_7  and  C_16
    6  A    between atoms: C_8  and  C_12
    7  A    between atoms: C_8  and  C_13
    8  A    between atoms: C_13  and  C_27
    9  A    between atoms: C_16  and  O_30
   10  A    between atoms: C_27  and  O_30
                            x       y       z     vdW  Elec       q    Type
                         _______ _______ _______ _____ _____    ______ ____

>  <TORSDO>
F 10

$$$$
=
 OpenBabel10272413543D

 30 32  0  0  1  0  0  0  0  0999 V2000
  187.2450  178.0590  142.3840 C   0  0  0  0  0  2  0  0  0  0  0  0
  185.2940  179.3500  141.3230 N   0  0  0  0  0  0  0  0  0  0  0  0
  188.7310  177.1500  138.3730 C   0  0  0  0  0  2  0  0  0  0  0  0
  188.7490  177.8010  142.2030 C   0  0  2  0  0  3  0  0  0  0  0  0
  190.2480  176.9550  138.2970 C   0  0  0  0  0  2  0  0  0  0  0  0
  184.3370  178.4940  140.6210 C   0  0  0  0  0  2  0  0  0  0  0  0
  184.8640  179.4650  142.7110 C   0  0  0  0  0  1  0  0  0  0  0  0
  188.4140  177.8930  139.6690 C   0  0  2  0  0  3  0  0  0  0  0  0
  184.6110  178.5050  139.1030 C   0  0  0  0  0  2  0  0  0  0  0  0
  186.6910  178.8440  141.1880 C   0  0  2  0  0  3  0  0  0  0  0  0
  189.0350  177.1190  140.8430 C   0  0  1  0  0  3  0  0  0  0  0  0
  190.6960  176.1810  139.3880 O   0  0  0  0  0  0  0  0  0  0  0  0
  190.5290  176.9600  140.5510 C   0  0  0  0  0  2  0  0  0  0  0  0
  186.1050  178.6160  138.7710 C   0  0  0  0  0  2  0  0  0  0  0  0
  186.9150  178.0180  139.9150 C   0  0  1  0  0  3  0  0  0  0  0  0
  189.2750  177.0350  143.4320 C   0  0  1  0  0  3  0  0  0  0  0  0
  190.8670  178.8080  143.7770 O   0  0  0  0  0  0  0  0  0  0  0  0
  190.5580  177.6040  143.9900 C   0  0  0  0  0  0  0  0  0  0  0  0
  191.9060  175.6750  144.2300 O   0  0  0  0  0  0  0  0  0  0  0  0
  191.4840  176.7470  144.7440 C   0  0  0  0  0  0  0  0  0  0  0  0
  191.8910  177.1210  146.0300 O   0  0  0  0  0  0  0  0  0  0  0  0
  192.4730  175.7200  147.9020 C   0  0  0  0  0  1  0  0  0  0  0  0
  191.3710  176.4900  147.1940 C   0  0  0  0  0  2  0  0  0  0  0  0
  188.2070  176.9050  144.5150 C   0  0  0  0  0  2  0  0  0  0  0  0
  188.4470  177.8170  145.5550 O   0  0  0  0  0  0  0  0  0  0  0  0
  187.4780  177.5430  146.5240 C   0  0  0  0  0  2  0  0  0  0  0  0
  186.1710  177.7590  146.0010 O   0  0  0  0  0  0  0  0  0  0  0  0
  185.7750  179.7120  147.3890 O   0  0  0  0  0  1  0  0  0  0  0  0
  185.3110  178.7440  146.5050 C   0  0  0  0  0  0  0  0  0  0  0  0
  184.1090  178.7690  146.1340 O   0  0  0  0  0  0  0  0  0  0  0  0
  2  7  1  0  0  0  0
  4  1  1  0  0  0  0
  4 16  1  1  0  0  0
  5  3  1  0  0  0  0
  5 12  1  0  0  0  0
  6  2  1  0  0  0  0
  8  3  1  6  0  0  0
  8 15  1  0  0  0  0
  8 11  1  0  0  0  0
  9  6  1  0  0  0  0
 10  2  1  0  0  0  0
 10  1  1  1  0  0  0
 11 13  1  6  0  0  0
 11  4  1  0  0  0  0
 12 13  1  0  0  0  0
 14  9  1  0  0  0  0
 15 14  1  6  0  0  0
 15 10  1  0  0  0  0
 16 18  1  0  0  0  0
 16 24  1  1  0  0  0
 17 18  2  0  0  0  0
 18 20  1  0  0  0  0
 19 20  2  0  0  0  0
 20 21  1  0  0  0  0
 21 23  1  0  0  0  0
 23 22  1  0  0  0  0
 24 25  1  0  0  0  0
 25 26  1  0  0  0  0
 27 29  1  0  0  0  0
 27 26  1  0  0  0  0
 29 28  1  0  0  0  0
 30 29  2  0  0  0  0
M  END
>  <MODEL>
2

>  <REMARK>
 VINA RESULT:      -8.0      2.078      5.653
  Name = 
  10 active torsions:
  status: ('A' for Active; 'I' for Inactive)
    1  A    between atoms: C_4  and  C_13
    2  A    between atoms: O_5  and  C_12
    3  A    between atoms: O_5  and  C_21
    4  A    between atoms: O_7  and  C_15
    5  A    between atoms: O_7  and  C_16
    6  A    between atoms: C_8  and  C_12
    7  A    between atoms: C_8  and  C_13
    8  A    between atoms: C_13  and  C_27
    9  A    between atoms: C_16  and  O_30
   10  A    between atoms: C_27  and  O_30
                            x       y       z     vdW  Elec       q    Type
                         _______ _______ _______ _____ _____    ______ ____

>  <TORSDO>
F 10

$$$$
=
 OpenBabel10272413543D

 30 32  0  0  1  0  0  0  0  0999 V2000
  186.6470  177.8340  142.8070 C   0  0  0  0  0  2  0  0  0  0  0  0
  184.0970  178.1360  142.8580 N   0  0  0  0  0  0  0  0  0  0  0  0
  186.7270  178.3760  147.1450 C   0  0  0  0  0  2  0  0  0  0  0  0
  187.7930  177.1890  143.6030 C   0  0  2  0  0  3  0  0  0  0  0  0
  187.8840  177.6550  147.8450 C   0  0  0  0  0  2  0  0  0  0  0  0
  183.6740  179.4960  143.1960 C   0  0  0  0  0  2  0  0  0  0  0  0
  184.2490  178.0580  141.4110 C   0  0  0  0  0  1  0  0  0  0  0  0
  186.5460  177.7490  145.7640 C   0  0  2  0  0  3  0  0  0  0  0  0
  183.2880  179.5890  144.6870 C   0  0  0  0  0  2  0  0  0  0  0  0
  185.3340  177.7430  143.5940 C   0  0  2  0  0  3  0  0  0  0  0  0
  187.8920  177.7960  145.0230 C   0  0  1  0  0  3  0  0  0  0  0  0
  189.0760  177.8180  147.1090 O   0  0  0  0  0  0  0  0  0  0  0  0
  188.9280  177.0980  145.9060 C   0  0  0  0  0  2  0  0  0  0  0  0
  184.1470  178.6840  145.5790 C   0  0  0  0  0  2  0  0  0  0  0  0
  185.5080  178.4860  144.9240 C   0  0  1  0  0  3  0  0  0  0  0  0
  189.0880  177.2760  142.7720 C   0  0  1  0  0  3  0  0  0  0  0  0
  189.6070  174.9250  142.7600 O   0  0  0  0  0  0  0  0  0  0  0  0
  190.0120  176.1000  142.9770 C   0  0  0  0  0  0  0  0  0  0  0  0
  191.9940  175.3540  144.0300 O   0  0  0  0  0  0  0  0  0  0  0  0
  191.3770  176.3070  143.4790 C   0  0  0  0  0  0  0  0  0  0  0  0
  191.9880  177.5600  143.3480 O   0  0  0  0  0  0  0  0  0  0  0  0
  191.0840  179.6760  144.0640 C   0  0  0  0  0  1  0  0  0  0  0  0
  191.9910  178.5060  144.4100 C   0  0  0  0  0  2  0  0  0  0  0  0
  188.7940  177.5020  141.2910 C   0  0  0  0  0  2  0  0  0  0  0  0
  189.9850  177.7220  140.5820 O   0  0  0  0  0  0  0  0  0  0  0  0
  189.8790  176.9460  139.4240 C   0  0  0  0  0  2  0  0  0  0  0  0
  189.9070  177.7720  138.2630 O   0  0  0  0  0  0  0  0  0  0  0  0
  187.5150  178.0210  137.9260 O   0  0  0  0  0  1  0  0  0  0  0  0
  188.8050  178.5350  137.8540 C   0  0  0  0  0  0  0  0  0  0  0  0
  188.9830  179.7090  137.4390 O   0  0  0  0  0  0  0  0  0  0  0  0
  1  4  1  0  0  0  0
  2  6  1  0  0  0  0
  2 10  1  0  0  0  0
  3  5  1  0  0  0  0
  4 16  1  6  0  0  0
  4 11  1  0  0  0  0
  6  9  1  0  0  0  0
  7  2  1  0  0  0  0
  8  3  1  1  0  0  0
  9 14  1  0  0  0  0
 10  1  1  6  0  0  0
 10 15  1  0  0  0  0
 11  8  1  0  0  0  0
 11 13  1  1  0  0  0
 12  5  1  0  0  0  0
 13 12  1  0  0  0  0
 15 14  1  1  0  0  0
 15  8  1  0  0  0  0
 16 24  1  6  0  0  0
 16 18  1  0  0  0  0
 17 18  2  0  0  0  0
 18 20  1  0  0  0  0
 20 19  2  0  0  0  0
 21 20  1  0  0  0  0
 21 23  1  0  0  0  0
 22 23  1  0  0  0  0
 25 24  1  0  0  0  0
 26 25  1  0  0  0  0
 27 26  1  0  0  0  0
 29 28  1  0  0  0  0
 29 27  1  0  0  0  0
 30 29  2  0  0  0  0
M  END
>  <MODEL>
3

>  <REMARK>
 VINA RESULT:      -7.9      1.488      1.894
  Name = 
  10 active torsions:
  status: ('A' for Active; 'I' for Inactive)
    1  A    between atoms: C_4  and  C_13
    2  A    between atoms: O_5  and  C_12
    3  A    between atoms: O_5  and  C_21
    4  A    between atoms: O_7  and  C_15
    5  A    between atoms: O_7  and  C_16
    6  A    between atoms: C_8  and  C_12
    7  A    between atoms: C_8  and  C_13
    8  A    between atoms: C_13  and  C_27
    9  A    between atoms: C_16  and  O_30
   10  A    between atoms: C_27  and  O_30
                            x       y       z     vdW  Elec       q    Type
                         _______ _______ _______ _____ _____    ______ ____

>  <TORSDO>
F 10

$$$$
=
 OpenBabel10272413543D

 30 32  0  0  1  0  0  0  0  0999 V2000
  187.5400  178.0530  143.3880 C   0  0  0  0  0  2  0  0  0  0  0  0
  185.3570  177.9160  144.7330 N   0  0  0  0  0  0  0  0  0  0  0  0
  189.7790  177.4330  147.0930 C   0  0  0  0  0  2  0  0  0  0  0  0
  188.9360  177.4140  143.3010 C   0  0  2  0  0  3  0  0  0  0  0  0
  191.1360  176.7490  146.8970 C   0  0  0  0  0  2  0  0  0  0  0  0
  185.1510  179.0510  145.6340 C   0  0  0  0  0  2  0  0  0  0  0  0
  184.7640  178.2490  143.4450 C   0  0  0  0  0  1  0  0  0  0  0  0
  188.9350  177.1730  145.8470 C   0  0  2  0  0  3  0  0  0  0  0  0
  185.5630  178.6830  147.0740 C   0  0  0  0  0  2  0  0  0  0  0  0
  186.7990  177.5470  144.6310 C   0  0  2  0  0  3  0  0  0  0  0  0
  189.7280  177.6310  144.6120 C   0  0  1  0  0  3  0  0  0  0  0  0
  191.7980  177.2900  145.7760 O   0  0  0  0  0  0  0  0  0  0  0  0
  191.0730  176.9000  144.6320 C   0  0  0  0  0  2  0  0  0  0  0  0
  186.7600  177.7240  147.1220 C   0  0  0  0  0  2  0  0  0  0  0  0
  187.6110  177.9290  145.8750 C   0  0  1  0  0  3  0  0  0  0  0  0
  189.6400  177.9240  142.0280 C   0  0  1  0  0  3  0  0  0  0  0  0
  190.3800  175.6590  141.6860 O   0  0  0  0  0  0  0  0  0  0  0  0
  190.4630  176.8680  141.3330 C   0  0  0  0  0  0  0  0  0  0  0  0
  192.5520  177.6770  140.5730 O   0  0  0  0  0  0  0  0  0  0  0  0
  191.4070  177.2420  140.2710 C   0  0  0  0  0  0  0  0  0  0  0  0
  191.0320  177.1180  138.9270 O   0  0  0  0  0  0  0  0  0  0  0  0
  191.5350  175.0470  137.8030 C   0  0  0  0  0  1  0  0  0  0  0  0
  191.8870  176.5160  137.9630 C   0  0  0  0  0  2  0  0  0  0  0  0
  188.6560  178.5870  141.0670 C   0  0  0  0  0  2  0  0  0  0  0  0
  188.1090  177.6350  140.1920 O   0  0  0  0  0  0  0  0  0  0  0  0
  187.1770  178.3320  139.4170 C   0  0  0  0  0  2  0  0  0  0  0  0
  186.1180  178.8280  140.2300 O   0  0  0  0  0  0  0  0  0  0  0  0
  183.8560  178.0110  139.8970 O   0  0  0  0  0  1  0  0  0  0  0  0
  184.8160  179.0060  139.7460 C   0  0  0  0  0  0  0  0  0  0  0  0
  184.5030  180.0890  139.1870 O   0  0  0  0  0  0  0  0  0  0  0  0
  2  6  1  0  0  0  0
  4 16  1  6  0  0  0
  4  1  1  0  0  0  0
  4 11  1  0  0  0  0
  5  3  1  0  0  0  0
  6  9  1  0  0  0  0
  7  2  1  0  0  0  0
  8 15  1  0  0  0  0
  8  3  1  1  0  0  0
  9 14  1  0  0  0  0
 10  1  1  6  0  0  0
 10  2  1  0  0  0  0
 10 15  1  0  0  0  0
 11 13  1  6  0  0  0
 11  8  1  0  0  0  0
 12  5  1  0  0  0  0
 13 12  1  0  0  0  0
 15 14  1  1  0  0  0
 16 24  1  6  0  0  0
 18 17  2  0  0  0  0
 18 16  1  0  0  0  0
 20 19  2  0  0  0  0
 20 18  1  0  0  0  0
 21 20  1  0  0  0  0
 22 23  1  0  0  0  0
 23 21  1  0  0  0  0
 25 24  1  0  0  0  0
 26 25  1  0  0  0  0
 26 27  1  0  0  0  0
 29 28  1  0  0  0  0
 29 27  1  0  0  0  0
 30 29  2  0  0  0  0
M  END
>  <MODEL>
4

>  <REMARK>
 VINA RESULT:      -7.9      2.106      4.241
  Name = 
  10 active torsions:
  status: ('A' for Active; 'I' for Inactive)
    1  A    between atoms: C_4  and  C_13
    2  A    between atoms: O_5  and  C_12
    3  A    between atoms: O_5  and  C_21
    4  A    between atoms: O_7  and  C_15
    5  A    between atoms: O_7  and  C_16
    6  A    between atoms: C_8  and  C_12
    7  A    between atoms: C_8  and  C_13
    8  A    between atoms: C_13  and  C_27
    9  A    between atoms: C_16  and  O_30
   10  A    between atoms: C_27  and  O_30
                            x       y       z     vdW  Elec       q    Type
                         _______ _______ _______ _____ _____    ______ ____

>  <TORSDO>
F 10

$$$$
=
 OpenBabel10272413543D

 30 32  0  0  1  0  0  0  0  0999 V2000
  187.3940  177.7590  143.4570 C   0  0  0  0  0  2  0  0  0  0  0  0
  184.9030  178.1620  142.9810 N   0  0  0  0  0  0  0  0  0  0  0  0
  186.6240  178.4600  147.7040 C   0  0  0  0  0  2  0  0  0  0  0  0
  188.3260  177.1000  144.4880 C   0  0  2  0  0  3  0  0  0  0  0  0
  187.5820  177.7220  148.6450 C   0  0  0  0  0  2  0  0  0  0  0  0
  184.4840  179.5480  143.1870 C   0  0  0  0  0  2  0  0  0  0  0  0
  185.3390  178.0230  141.5980 C   0  0  0  0  0  1  0  0  0  0  0  0
  186.6960  177.7900  146.3340 C   0  0  2  0  0  3  0  0  0  0  0  0
  183.8100  179.7130  144.5650 C   0  0  0  0  0  2  0  0  0  0  0  0
  185.9470  177.7480  143.9640 C   0  0  2  0  0  3  0  0  0  0  0  0
  188.1640  177.7560  145.8800 C   0  0  1  0  0  3  0  0  0  0  0  0
  188.9040  177.8100  148.1610 O   0  0  0  0  0  0  0  0  0  0  0  0
  188.9690  177.0520  146.9750 C   0  0  0  0  0  2  0  0  0  0  0  0
  184.4290  178.8090  145.6400 C   0  0  0  0  0  2  0  0  0  0  0  0
  185.8840  178.5340  145.2800 C   0  0  1  0  0  3  0  0  0  0  0  0
  189.7640  177.1040  143.9350 C   0  0  1  0  0  3  0  0  0  0  0  0
  189.9130  175.0560  142.6790 O   0  0  0  0  0  0  0  0  0  0  0  0
  189.9180  176.3170  142.6560 C   0  0  0  0  0  0  0  0  0  0  0  0
  191.2980  177.2430  140.9720 O   0  0  0  0  0  0  0  0  0  0  0  0
  190.1250  177.0110  141.3780 C   0  0  0  0  0  0  0  0  0  0  0  0
  189.0230  177.4170  140.6150 O   0  0  0  0  0  0  0  0  0  0  0  0
  187.7790  177.9660  138.6260 C   0  0  0  0  0  1  0  0  0  0  0  0
  188.9790  177.2350  139.2060 C   0  0  0  0  0  2  0  0  0  0  0  0
  190.3060  178.5240  143.7840 C   0  0  0  0  0  2  0  0  0  0  0  0
  191.5460  178.6470  144.4280 O   0  0  0  0  0  0  0  0  0  0  0  0
  191.8870  177.3530  144.8320 C   0  0  0  0  0  2  0  0  0  0  0  0
  191.8980  177.2570  146.2540 O   0  0  0  0  0  0  0  0  0  0  0  0
  192.3040  174.8640  146.2690 O   0  0  0  0  0  0  0  0  0  0  0  0
  192.2730  176.0880  146.9280 C   0  0  0  0  0  0  0  0  0  0  0  0
  192.6090  176.1490  148.1390 O   0  0  0  0  0  1  0  0  0  0  0  0
  1  4  1  0  0  0  0
  2  6  1  0  0  0  0
  2 10  1  0  0  0  0
  3  5  1  0  0  0  0
  4 16  1  6  0  0  0
  4 11  1  0  0  0  0
  6  9  1  0  0  0  0
  7  2  1  0  0  0  0
  8  3  1  1  0  0  0
  9 14  1  0  0  0  0
 10  1  1  6  0  0  0
 10 15  1  0  0  0  0
 11  8  1  0  0  0  0
 11 13  1  1  0  0  0
 12  5  1  0  0  0  0
 13 12  1  0  0  0  0
 15 14  1  1  0  0  0
 15  8  1  0  0  0  0
 16 24  1  6  0  0  0
 18 17  2  0  0  0  0
 18 16  1  0  0  0  0
 19 20  2  0  0  0  0
 20 18  1  0  0  0  0
 21 20  1  0  0  0  0
 22 23  1  0  0  0  0
 23 21  1  0  0  0  0
 24 25  1  0  0  0  0
 25 26  1  0  0  0  0
 26 27  1  0  0  0  0
 27 29  1  0  0  0  0
 28 29  2  0  0  0  0
 29 30  1  0  0  0  0
M  END
>  <MODEL>
5

>  <REMARK>
 VINA RESULT:      -7.6      1.099      4.466
  Name = 
  10 active torsions:
  status: ('A' for Active; 'I' for Inactive)
    1  A    between atoms: C_4  and  C_13
    2  A    between atoms: O_5  and  C_12
    3  A    between atoms: O_5  and  C_21
    4  A    between atoms: O_7  and  C_15
    5  A    between atoms: O_7  and  C_16
    6  A    between atoms: C_8  and  C_12
    7  A    between atoms: C_8  and  C_13
    8  A    between atoms: C_13  and  C_27
    9  A    between atoms: C_16  and  O_30
   10  A    between atoms: C_27  and  O_30
                            x       y       z     vdW  Elec       q    Type
                         _______ _______ _______ _____ _____    ______ ____

>  <TORSDO>
F 10

$$$$
=
 OpenBabel10272413543D

 30 32  0  0  1  0  0  0  0  0999 V2000
  189.4370  177.3620  143.5460 C   0  0  0  0  0  2  0  0  0  0  0  0
  190.3420  177.6330  145.9340 N   0  0  0  0  0  0  0  0  0  0  0  0
  185.3970  178.0380  145.0760 C   0  0  0  0  0  2  0  0  0  0  0  0
  188.3820  177.9450  142.5920 C   0  0  2  0  0  3  0  0  0  0  0  0
  184.4380  178.6620  144.0580 C   0  0  0  0  0  2  0  0  0  0  0  0
  189.9630  176.5420  146.8320 C   0  0  0  0  0  2  0  0  0  0  0  0
  191.6020  177.2740  145.2950 C   0  0  0  0  0  1  0  0  0  0  0  0
  186.8250  178.2810  144.5920 C   0  0  2  0  0  3  0  0  0  0  0  0
  188.7540  176.9480  147.7000 C   0  0  0  0  0  2  0  0  0  0  0  0
  189.2610  177.9440  144.9540 C   0  0  2  0  0  3  0  0  0  0  0  0
  186.9550  177.7480  143.1570 C   0  0  1  0  0  3  0  0  0  0  0  0
  184.6030  178.0540  142.7960 O   0  0  0  0  0  0  0  0  0  0  0  0
  185.8740  178.4270  142.3130 C   0  0  0  0  0  2  0  0  0  0  0  0
  187.7710  177.8620  146.9560 C   0  0  0  0  0  2  0  0  0  0  0  0
  187.8610  177.5780  145.4630 C   0  0  1  0  0  3  0  0  0  0  0  0
  188.6060  177.3600  141.1840 C   0  0  1  0  0  3  0  0  0  0  0  0
  188.6470  179.5300  140.1420 O   0  0  0  0  0  0  0  0  0  0  0  0
  188.2740  178.3270  140.0730 C   0  0  0  0  0  0  0  0  0  0  0  0
  186.3530  178.4310  138.6960 O   0  0  0  0  0  0  0  0  0  0  0  0
  187.4700  177.8890  138.9230 C   0  0  0  0  0  0  0  0  0  0  0  0
  187.9420  176.8700  138.0870 O   0  0  0  0  0  0  0  0  0  0  0  0
  189.2930  178.0610  136.4860 C   0  0  0  0  0  1  0  0  0  0  0  0
  188.1520  177.0790  136.6960 C   0  0  0  0  0  2  0  0  0  0  0  0
  190.0150  176.7930  141.0260 C   0  0  0  0  0  2  0  0  0  0  0  0
  190.8160  177.6700  140.2780 O   0  0  0  0  0  0  0  0  0  0  0  0
  191.5750  176.8540  139.4340 C   0  0  0  0  0  2  0  0  0  0  0  0
  190.7920  175.7670  138.9500 O   0  0  0  0  0  0  0  0  0  0  0  0
  191.9110  175.6740  136.7970 O   0  0  0  0  0  0  0  0  0  0  0  0
  191.0910  175.0930  137.7580 C   0  0  0  0  0  0  0  0  0  0  0  0
  190.6330  173.9380  137.5660 O   0  0  0  0  0  1  0  0  0  0  0  0
  2  6  1  0  0  0  0
  4 16  1  6  0  0  0
  4 11  1  0  0  0  0
  4  1  1  0  0  0  0
  5  3  1  0  0  0  0
  6  9  1  0  0  0  0
  7  2  1  0  0  0  0
  8  3  1  1  0  0  0
  8 15  1  0  0  0  0
 10  1  1  6  0  0  0
 10 15  1  0  0  0  0
 10  2  1  0  0  0  0
 11 13  1  6  0  0  0
 11  8  1  0  0  0  0
 12  5  1  0  0  0  0
 13 12  1  0  0  0  0
 14  9  1  0  0  0  0
 15 14  1  1  0  0  0
 16 24  1  1  0  0  0
 18 17  2  0  0  0  0
 18 16  1  0  0  0  0
 19 20  2  0  0  0  0
 20 18  1  0  0  0  0
 21 20  1  0  0  0  0
 22 23  1  0  0  0  0
 23 21  1  0  0  0  0
 25 24  1  0  0  0  0
 26 25  1  0  0  0  0
 27 26  1  0  0  0  0
 28 29  2  0  0  0  0
 29 27  1  0  0  0  0
 30 29  1  0  0  0  0
M  END
>  <MODEL>
6

>  <REMARK>
 VINA RESULT:      -7.3      2.704      5.697
  Name = 
  10 active torsions:
  status: ('A' for Active; 'I' for Inactive)
    1  A    between atoms: C_4  and  C_13
    2  A    between atoms: O_5  and  C_12
    3  A    between atoms: O_5  and  C_21
    4  A    between atoms: O_7  and  C_15
    5  A    between atoms: O_7  and  C_16
    6  A    between atoms: C_8  and  C_12
    7  A    between atoms: C_8  and  C_13
    8  A    between atoms: C_13  and  C_27
    9  A    between atoms: C_16  and  O_30
   10  A    between atoms: C_27  and  O_30
                            x       y       z     vdW  Elec       q    Type
                         _______ _______ _______ _____ _____    ______ ____

>  <TORSDO>
F 10

$$$$
=
 OpenBabel10272413543D

 30 32  0  0  1  0  0  0  0  0999 V2000
  186.4980  178.1110  144.1240 C   0  0  0  0  0  2  0  0  0  0  0  0
  185.8870  177.9110  146.6110 N   0  0  0  0  0  0  0  0  0  0  0  0
  190.6100  177.0050  145.1190 C   0  0  0  0  0  2  0  0  0  0  0  0
  187.3540  177.4320  143.0430 C   0  0  2  0  0  3  0  0  0  0  0  0
  191.3590  176.2950  143.9860 C   0  0  0  0  0  2  0  0  0  0  0  0
  186.4910  178.9470  147.4480 C   0  0  0  0  0  2  0  0  0  0  0  0
  184.5990  178.4050  146.1390 C   0  0  0  0  0  1  0  0  0  0  0  0
  189.1140  176.9150  144.8250 C   0  0  2  0  0  3  0  0  0  0  0  0
  187.7530  178.4090  148.1530 C   0  0  0  0  0  2  0  0  0  0  0  0
  186.7940  177.5000  145.4990 C   0  0  2  0  0  3  0  0  0  0  0  0
  188.8550  177.4740  143.4170 C   0  0  1  0  0  3  0  0  0  0  0  0
  191.0960  176.9300  142.7550 O   0  0  0  0  0  0  0  0  0  0  0  0
  189.7410  176.6960  142.4420 C   0  0  0  0  0  2  0  0  0  0  0  0
  188.5310  177.4060  147.2910 C   0  0  0  0  0  2  0  0  0  0  0  0
  188.2780  177.7130  145.8200 C   0  0  1  0  0  3  0  0  0  0  0  0
  187.0120  178.0520  141.6740 C   0  0  1  0  0  3  0  0  0  0  0  0
  185.8500  179.9500  142.5920 O   0  0  0  0  0  0  0  0  0  0  0  0
  185.8630  179.0300  141.7280 C   0  0  0  0  0  0  0  0  0  0  0  0
  184.7120  179.5390  139.7260 O   0  0  0  0  0  0  0  0  0  0  0  0
  184.7260  178.8910  140.8090 C   0  0  0  0  0  0  0  0  0  0  0  0
  183.6600  178.0450  141.1390 O   0  0  0  0  0  0  0  0  0  0  0  0
  182.4570  178.8040  143.0840 C   0  0  0  0  0  1  0  0  0  0  0  0
  182.4100  178.5550  141.5850 C   0  0  0  0  0  2  0  0  0  0  0  0
  188.2410  178.6710  141.0120 C   0  0  0  0  0  2  0  0  0  0  0  0
  188.0880  178.6930  139.6170 O   0  0  0  0  0  0  0  0  0  0  0  0
  189.3450  178.3700  139.0990 C   0  0  0  0  0  2  0  0  0  0  0  0
  189.4660  176.9620  138.9150 O   0  0  0  0  0  0  0  0  0  0  0  0
  191.8540  176.9160  139.3500 O   0  0  0  0  0  1  0  0  0  0  0  0
  190.7060  176.3150  138.8460 C   0  0  0  0  0  0  0  0  0  0  0  0
  190.7780  175.1630  138.3430 O   0  0  0  0  0  0  0  0  0  0  0  0
  2  6  1  0  0  0  0
  4 16  1  6  0  0  0
  4 11  1  0  0  0  0
  4  1  1  0  0  0  0
  5  3  1  0  0  0  0
  6  9  1  0  0  0  0
  7  2  1  0  0  0  0
  8  3  1  1  0  0  0
  8 15  1  0  0  0  0
 10  1  1  6  0  0  0
 10 15  1  0  0  0  0
 10  2  1  0  0  0  0
 11 13  1  6  0  0  0
 11  8  1  0  0  0  0
 12  5  1  0  0  0  0
 13 12  1  0  0  0  0
 14  9  1  0  0  0  0
 15 14  1  1  0  0  0
 16 24  1  1  0  0  0
 16 18  1  0  0  0  0
 18 17  2  0  0  0  0
 19 20  2  0  0  0  0
 20 21  1  0  0  0  0
 20 18  1  0  0  0  0
 21 23  1  0  0  0  0
 23 22  1  0  0  0  0
 25 24  1  0  0  0  0
 26 25  1  0  0  0  0
 27 26  1  0  0  0  0
 29 27  1  0  0  0  0
 29 28  1  0  0  0  0
 30 29  2  0  0  0  0
M  END
>  <MODEL>
7

>  <REMARK>
 VINA RESULT:      -7.2      2.231      5.619
  Name = 
  10 active torsions:
  status: ('A' for Active; 'I' for Inactive)
    1  A    between atoms: C_4  and  C_13
    2  A    between atoms: O_5  and  C_12
    3  A    between atoms: O_5  and  C_21
    4  A    between atoms: O_7  and  C_15
    5  A    between atoms: O_7  and  C_16
    6  A    between atoms: C_8  and  C_12
    7  A    between atoms: C_8  and  C_13
    8  A    between atoms: C_13  and  C_27
    9  A    between atoms: C_16  and  O_30
   10  A    between atoms: C_27  and  O_30
                            x       y       z     vdW  Elec       q    Type
                         _______ _______ _______ _____ _____    ______ ____

>  <TORSDO>
F 10

$$$$
=
 OpenBabel10272413543D

 30 32  0  0  1  0  0  0  0  0999 V2000
  187.8920  177.6830  143.0290 C   0  0  0  0  0  2  0  0  0  0  0  0
  190.3600  177.3360  142.4090 N   0  0  0  0  0  0  0  0  0  0  0  0
  188.9560  177.1990  147.2430 C   0  0  0  0  0  2  0  0  0  0  0  0
  187.0070  178.3590  144.0890 C   0  0  2  0  0  3  0  0  0  0  0  0
  188.0360  177.9490  148.2110 C   0  0  0  0  0  2  0  0  0  0  0  0
  190.8390  175.9740  142.6460 C   0  0  0  0  0  2  0  0  0  0  0  0
  189.8320  177.3990  141.0520 C   0  0  0  0  0  1  0  0  0  0  0  0
  188.7740  177.8050  145.8520 C   0  0  2  0  0  3  0  0  0  0  0  0
  191.6050  175.8930  143.9830 C   0  0  0  0  0  2  0  0  0  0  0  0
  189.3680  177.7620  143.4390 C   0  0  2  0  0  3  0  0  0  0  0  0
  187.2800  177.7720  145.4950 C   0  0  1  0  0  3  0  0  0  0  0  0
  186.6900  177.7980  147.8190 O   0  0  0  0  0  0  0  0  0  0  0  0
  186.5240  178.5000  146.6080 C   0  0  0  0  0  2  0  0  0  0  0  0
  191.0250  176.8250  145.0560 C   0  0  0  0  0  2  0  0  0  0  0  0
  189.5420  177.0390  144.7810 C   0  0  1  0  0  3  0  0  0  0  0  0
  185.5370  178.2850  143.6320 C   0  0  1  0  0  3  0  0  0  0  0  0
  185.2350  180.6280  144.0960 O   0  0  0  0  0  0  0  0  0  0  0  0
  184.7160  179.4790  144.0560 C   0  0  0  0  0  0  0  0  0  0  0  0
  183.0590  178.7880  145.5960 O   0  0  0  0  0  0  0  0  0  0  0  0
  183.3180  179.3070  144.4750 C   0  0  0  0  0  0  0  0  0  0  0  0
  182.2800  179.7140  143.6290 O   0  0  0  0  0  0  0  0  0  0  0  0
  180.1090  178.6720  143.7240 C   0  0  0  0  0  1  0  0  0  0  0  0
  181.4300  178.7770  142.9800 C   0  0  0  0  0  2  0  0  0  0  0  0
  185.4260  178.0390  142.1290 C   0  0  0  0  0  2  0  0  0  0  0  0
  185.1370  179.2350  141.4550 O   0  0  0  0  0  0  0  0  0  0  0  0
  184.3800  178.8630  140.3400 C   0  0  0  0  0  2  0  0  0  0  0  0
  185.0260  179.2700  139.1370 O   0  0  0  0  0  0  0  0  0  0  0  0
  185.3270  177.5820  137.4170 O   0  0  0  0  0  0  0  0  0  0  0  0
  185.8540  178.4130  138.4000 C   0  0  0  0  0  0  0  0  0  0  0  0
  187.0940  178.4140  138.6120 O   0  0  0  0  0  1  0  0  0  0  0  0
  1  4  1  0  0  0  0
  2  6  1  0  0  0  0
  2 10  1  0  0  0  0
  3  5  1  0  0  0  0
  4 16  1  6  0  0  0
  4 11  1  0  0  0  0
  6  9  1  0  0  0  0
  7  2  1  0  0  0  0
  8  3  1  1  0  0  0
  9 14  1  0  0  0  0
 10  1  1  6  0  0  0
 10 15  1  0  0  0  0
 11  8  1  0  0  0  0
 11 13  1  1  0  0  0
 12  5  1  0  0  0  0
 13 12  1  0  0  0  0
 15 14  1  1  0  0  0
 15  8  1  0  0  0  0
 16 24  1  6  0  0  0
 16 18  1  0  0  0  0
 18 17  2  0  0  0  0
 18 20  1  0  0  0  0
 20 19  2  0  0  0  0
 21 20  1  0  0  0  0
 23 21  1  0  0  0  0
 23 22  1  0  0  0  0
 25 24  1  0  0  0  0
 26 25  1  0  0  0  0
 27 26  1  0  0  0  0
 28 29  2  0  0  0  0
 29 30  1  0  0  0  0
 29 27  1  0  0  0  0
M  END
>  <MODEL>
8

>  <REMARK>
 VINA RESULT:      -7.2      3.198      6.373
  Name = 
  10 active torsions:
  status: ('A' for Active; 'I' for Inactive)
    1  A    between atoms: C_4  and  C_13
    2  A    between atoms: O_5  and  C_12
    3  A    between atoms: O_5  and  C_21
    4  A    between atoms: O_7  and  C_15
    5  A    between atoms: O_7  and  C_16
    6  A    between atoms: C_8  and  C_12
    7  A    between atoms: C_8  and  C_13
    8  A    between atoms: C_13  and  C_27
    9  A    between atoms: C_16  and  O_30
   10  A    between atoms: C_27  and  O_30
                            x       y       z     vdW  Elec       q    Type
                         _______ _______ _______ _____ _____    ______ ____

>  <TORSDO>
F 10

$$$$
=
 OpenBabel10272413543D

 30 32  0  0  1  0  0  0  0  0999 V2000
  189.1040  177.6600  143.4360 C   0  0  0  0  0  2  0  0  0  0  0  0
  191.3480  177.5900  144.6820 N   0  0  0  0  0  0  0  0  0  0  0  0
  187.0440  177.6850  147.2940 C   0  0  0  0  0  2  0  0  0  0  0  0
  187.7090  178.3020  143.5170 C   0  0  2  0  0  3  0  0  0  0  0  0
  185.6830  178.3870  147.2720 C   0  0  0  0  0  2  0  0  0  0  0  0
  191.5910  176.3280  145.3820 C   0  0  0  0  0  2  0  0  0  0  0  0
  191.8790  177.4650  143.3310 C   0  0  0  0  0  1  0  0  0  0  0  0
  187.8300  178.1390  146.0660 C   0  0  2  0  0  3  0  0  0  0  0  0
  191.2490  176.4640  146.8810 C   0  0  0  0  0  2  0  0  0  0  0  0
  189.9050  177.9670  144.7070 C   0  0  2  0  0  3  0  0  0  0  0  0
  186.9780  177.8790  144.8140 C   0  0  1  0  0  3  0  0  0  0  0  0
  184.9670  178.0270  146.1130 O   0  0  0  0  0  0  0  0  0  0  0  0
  185.6390  178.5940  145.0110 C   0  0  0  0  0  2  0  0  0  0  0  0
  190.0600  177.4000  147.1340 C   0  0  0  0  0  2  0  0  0  0  0  0
  189.1500  177.3920  145.9130 C   0  0  1  0  0  3  0  0  0  0  0  0
  186.9430  177.9960  142.2140 C   0  0  1  0  0  3  0  0  0  0  0  0
  186.0870  180.2440  142.3020 O   0  0  0  0  0  0  0  0  0  0  0  0
  185.9770  179.0850  141.8160 C   0  0  0  0  0  0  0  0  0  0  0  0
  183.9280  178.0390  141.2670 O   0  0  0  0  0  0  0  0  0  0  0  0
  184.8690  178.7950  140.8970 C   0  0  0  0  0  0  0  0  0  0  0  0
  184.8610  179.3520  139.6120 O   0  0  0  0  0  0  0  0  0  0  0  0
  185.7470  178.0370  137.7980 C   0  0  0  0  0  1  0  0  0  0  0  0
  184.5000  178.5910  138.4670 C   0  0  0  0  0  2  0  0  0  0  0  0
  187.8930  177.6480  141.0710 C   0  0  0  0  0  2  0  0  0  0  0  0
  188.0940  178.7630  140.2430 O   0  0  0  0  0  0  0  0  0  0  0  0
  189.1590  178.4190  139.4050 C   0  0  0  0  0  2  0  0  0  0  0  0
  190.0420  177.5140  140.0610 O   0  0  0  0  0  0  0  0  0  0  0  0
  190.4840  175.5380  138.7220 O   0  0  0  0  0  0  0  0  0  0  0  0
  190.9320  176.6880  139.3620 C   0  0  0  0  0  0  0  0  0  0  0  0
  192.1480  177.0040  139.2910 O   0  0  0  0  0  1  0  0  0  0  0  0
  1  4  1  0  0  0  0
  2 10  1  0  0  0  0
  2  6  1  0  0  0  0
  4 16  1  6  0  0  0
  4 11  1  0  0  0  0
  5  3  1  0  0  0  0
  6  9  1  0  0  0  0
  7  2  1  0  0  0  0
  8  3  1  1  0  0  0
  9 14  1  0  0  0  0
 10  1  1  6  0  0  0
 10 15  1  0  0  0  0
 11 13  1  1  0  0  0
 11  8  1  0  0  0  0
 12  5  1  0  0  0  0
 13 12  1  0  0  0  0
 15  8  1  0  0  0  0
 15 14  1  1  0  0  0
 16 24  1  6  0  0  0
 18 16  1  0  0  0  0
 18 17  2  0  0  0  0
 20 19  2  0  0  0  0
 20 18  1  0  0  0  0
 21 20  1  0  0  0  0
 22 23  1  0  0  0  0
 23 21  1  0  0  0  0
 25 24  1  0  0  0  0
 26 27  1  0  0  0  0
 26 25  1  0  0  0  0
 28 29  2  0  0  0  0
 29 27  1  0  0  0  0
 30 29  1  0  0  0  0
M  END
>  <MODEL>
9

>  <REMARK>
 VINA RESULT:      -7.1      2.633      5.917
  Name = 
  10 active torsions:
  status: ('A' for Active; 'I' for Inactive)
    1  A    between atoms: C_4  and  C_13
    2  A    between atoms: O_5  and  C_12
    3  A    between atoms: O_5  and  C_21
    4  A    between atoms: O_7  and  C_15
    5  A    between atoms: O_7  and  C_16
    6  A    between atoms: C_8  and  C_12
    7  A    between atoms: C_8  and  C_13
    8  A    between atoms: C_13  and  C_27
    9  A    between atoms: C_16  and  O_30
   10  A    between atoms: C_27  and  O_30
                            x       y       z     vdW  Elec       q    Type
                         _______ _______ _______ _____ _____    ______ ____

>  <TORSDO>
F 10

$$$$
