=
 OpenBabel10262423443D

 34 38  0  0  1  0  0  0  0  0999 V2000
  182.2310  178.8170  143.1580 C   0  0  0  0  0  0  0  0  0  0  0  0
  184.4220  178.6010  144.2500 C   0  0  0  0  0  0  0  0  0  0  0  0
  184.2810  178.5970  141.7840 C   0  0  0  0  0  0  0  0  0  0  0  0
  186.3390  178.8400  139.3930 N   0  0  0  0  0  0  0  0  0  0  0  0
  179.9820  179.0580  142.0660 C   0  0  0  0  0  1  0  0  0  0  0  0
  183.8550  178.6800  145.5180 O   0  0  0  0  0  1  0  0  0  0  0  0
  186.4150  178.3590  142.9410 C   0  0  0  0  0  3  0  0  0  0  0  0
  183.6400  178.6720  143.0730 C   0  0  0  0  0  0  0  0  0  0  0  0
  186.5810  178.2550  140.5220 C   0  0  0  0  0  0  0  0  0  0  0  0
  181.5810  178.8750  144.3890 O   0  0  0  0  0  1  0  0  0  0  0  0
  183.4530  178.7230  140.6310 C   0  0  0  0  0  0  0  0  0  0  0  0
  181.4620  178.9060  142.0000 C   0  0  0  0  0  0  0  0  0  0  0  0
  185.7940  178.4560  144.1700 C   0  0  0  0  0  3  0  0  0  0  0  0
  185.1480  179.4350  139.0660 O   0  0  0  0  0  0  0  0  0  0  0  0
  183.9280  178.7350  139.2200 C   0  0  1  0  0  3  0  0  0  0  0  0
  185.7060  178.4010  141.7350 C   0  0  0  0  0  0  0  0  0  0  0  0
  182.0730  178.8660  140.7600 C   0  0  0  0  0  3  0  0  0  0  0  0
  184.7140  175.8520  136.8590 C   0  0  0  0  0  0  0  0  0  0  0  0
  183.8680  174.9010  137.3400 N   0  0  0  0  0  0  0  0  0  0  0  0
  183.9360  177.3860  138.5560 C   0  0  0  0  0  0  0  0  0  0  0  0
  183.0540  175.1460  138.4010 C   0  0  0  0  0  3  0  0  0  0  0  0
  184.7610  177.1120  137.4560 C   0  0  0  0  0  3  0  0  0  0  0  0
  183.0720  176.3950  139.0260 C   0  0  0  0  0  3  0  0  0  0  0  0
  185.5850  175.5520  135.6940 C   0  0  0  0  0  1  0  0  0  0  0  0
  187.7760  177.5310  140.6030 O   0  0  0  0  0  0  0  0  0  0  0  0
  188.9660  178.0910  140.3480 O   0  0  0  0  0  0  0  0  0  0  0  0
  189.8780  177.3380  141.0880 C   0  0  0  0  0  2  0  0  0  0  0  0
  190.5940  175.4240  143.1720 C   0  0  0  0  0  1  0  0  0  0  0  0
  189.7880  177.7010  142.4980 N   0  0  0  0  0  0  0  0  0  0  0  0
  189.5240  176.5060  143.3250 C   0  0  2  0  0  3  0  0  0  0  0  0
  189.7750  178.3240  145.0940 C   0  0  0  0  0  2  0  0  0  0  0  0
  191.0830  178.6790  144.3880 C   0  0  0  0  0  2  0  0  0  0  0  0
  191.0480  178.3430  142.8890 C   0  0  0  0  0  2  0  0  0  0  0  0
  189.3830  176.8730  144.8090 C   0  0  0  0  0  2  0  0  0  0  0  0
  1 10  1  0  0  0  0
  2  6  1  0  0  0  0
  3  8  1  0  0  0  0
  4  9  2  0  0  0  0
  7 13  2  0  0  0  0
  8  1  1  0  0  0  0
  8  2  2  0  0  0  0
  9 25  1  0  0  0  0
  9 16  1  0  0  0  0
 11 17  2  0  0  0  0
 11  3  1  0  0  0  0
 12  5  1  0  0  0  0
 12  1  2  0  0  0  0
 13  2  1  0  0  0  0
 14 15  1  0  0  0  0
 14  4  1  0  0  0  0
 15 20  1  1  0  0  0
 15 11  1  0  0  0  0
 16  3  2  0  0  0  0
 16  7  1  0  0  0  0
 17 12  1  0  0  0  0
 18 19  2  0  0  0  0
 18 22  1  0  0  0  0
 19 21  1  0  0  0  0
 20 23  1  0  0  0  0
 21 23  2  0  0  0  0
 22 20  2  0  0  0  0
 24 18  1  0  0  0  0
 26 25  1  0  0  0  0
 26 27  1  0  0  0  0
 27 29  1  0  0  0  0
 29 33  1  0  0  0  0
 29 30  1  0  0  0  0
 30 28  1  1  0  0  0
 30 34  1  0  0  0  0
 32 31  1  0  0  0  0
 33 32  1  0  0  0  0
 34 31  1  0  0  0  0
M  END
>  <MODEL>
1

>  <REMARK>
 VINA RESULT:      -8.5      0.000      0.000
  Name = 
  5 active torsions:
  status: ('A' for Active; 'I' for Inactive)
    1  A    between atoms: C_3  and  N_13
    2  A    between atoms: C_3  and  O_17
    3  A    between atoms: C_12  and  C_28
    4  A    between atoms: O_17  and  O_29
    5  A    between atoms: C_18  and  O_29
                            x       y       z     vdW  Elec       q    Type
                         _______ _______ _______ _____ _____    ______ ____

>  <TORSDO>
F 5

$$$$
=
 OpenBabel10262423443D

 34 38  0  0  1  0  0  0  0  0999 V2000
  183.2260  178.6490  140.0610 C   0  0  0  0  0  0  0  0  0  0  0  0
  184.6750  178.6710  142.0460 C   0  0  0  0  0  0  0  0  0  0  0  0
  185.6800  178.4360  139.8020 C   0  0  0  0  0  0  0  0  0  0  0  0
  188.6010  178.5910  138.5970 N   0  0  0  0  0  0  0  0  0  0  0  0
  181.7240  178.6480  138.0480 C   0  0  0  0  0  1  0  0  0  0  0  0
  183.5880  178.8290  142.9010 O   0  0  0  0  0  1  0  0  0  0  0  0
  187.0490  178.4380  141.8210 C   0  0  0  0  0  3  0  0  0  0  0  0
  184.5180  178.5860  140.6430 C   0  0  0  0  0  0  0  0  0  0  0  0
  188.3070  178.1270  139.7690 C   0  0  0  0  0  0  0  0  0  0  0  0
  182.0830  178.7770  140.8490 O   0  0  0  0  0  1  0  0  0  0  0  0
  185.4720  178.4050  138.3930 C   0  0  0  0  0  0  0  0  0  0  0  0
  183.0720  178.5840  138.6790 C   0  0  0  0  0  0  0  0  0  0  0  0
  185.9330  178.6070  142.6150 C   0  0  0  0  0  3  0  0  0  0  0  0
  187.6840  179.0780  137.7020 O   0  0  0  0  0  0  0  0  0  0  0  0
  186.5400  178.3190  137.3600 C   0  0  1  0  0  3  0  0  0  0  0  0
  186.9720  178.3270  140.4280 C   0  0  0  0  0  0  0  0  0  0  0  0
  184.1840  178.4710  137.8650 C   0  0  0  0  0  3  0  0  0  0  0  0
  186.5340  174.5270  137.0040 C   0  0  0  0  0  0  0  0  0  0  0  0
  187.5610  174.3600  136.1280 N   0  0  0  0  0  0  0  0  0  0  0  0
  186.8720  176.9180  136.9240 C   0  0  0  0  0  0  0  0  0  0  0  0
  188.2570  175.4200  135.6380 C   0  0  0  0  0  3  0  0  0  0  0  0
  186.1730  175.8090  137.4200 C   0  0  0  0  0  3  0  0  0  0  0  0
  187.9260  176.7190  136.0300 C   0  0  0  0  0  3  0  0  0  0  0  0
  185.7990  173.3450  137.5240 C   0  0  0  0  0  1  0  0  0  0  0  0
  189.3440  177.4900  140.4630 O   0  0  0  0  0  0  0  0  0  0  0  0
  190.6330  177.6960  140.1620 O   0  0  0  0  0  0  0  0  0  0  0  0
  191.3320  177.2780  141.2940 C   0  0  0  0  0  2  0  0  0  0  0  0
  191.6080  175.6270  143.6860 C   0  0  0  0  0  1  0  0  0  0  0  0
  190.5480  177.5610  142.4910 N   0  0  0  0  0  0  0  0  0  0  0  0
  190.3140  176.3230  143.2620 C   0  0  2  0  0  3  0  0  0  0  0  0
  189.2470  178.0870  144.7630 C   0  0  0  0  0  2  0  0  0  0  0  0
  190.5680  178.8440  144.6260 C   0  0  0  0  0  2  0  0  0  0  0  0
  191.2750  178.5500  143.2940 C   0  0  0  0  0  2  0  0  0  0  0  0
  189.4520  176.5930  144.5040 C   0  0  0  0  0  2  0  0  0  0  0  0
  1  8  1  0  0  0  0
  1 10  1  0  0  0  0
  2 13  1  0  0  0  0
  2  6  1  0  0  0  0
  3 16  2  0  0  0  0
  3  8  1  0  0  0  0
  4  9  2  0  0  0  0
  5 12  1  0  0  0  0
  7 13  2  0  0  0  0
  8  2  2  0  0  0  0
  9 16  1  0  0  0  0
  9 25  1  0  0  0  0
 11  3  1  0  0  0  0
 12  1  2  0  0  0  0
 14  4  1  0  0  0  0
 15 20  1  1  0  0  0
 15 14  1  0  0  0  0
 15 11  1  0  0  0  0
 16  7  1  0  0  0  0
 17 11  2  0  0  0  0
 17 12  1  0  0  0  0
 18 22  1  0  0  0  0
 18 24  1  0  0  0  0
 19 18  2  0  0  0  0
 20 22  2  0  0  0  0
 21 23  2  0  0  0  0
 21 19  1  0  0  0  0
 23 20  1  0  0  0  0
 26 25  1  0  0  0  0
 26 27  1  0  0  0  0
 27 29  1  0  0  0  0
 29 30  1  0  0  0  0
 29 33  1  0  0  0  0
 30 28  1  1  0  0  0
 30 34  1  0  0  0  0
 32 31  1  0  0  0  0
 33 32  1  0  0  0  0
 34 31  1  0  0  0  0
M  END
>  <MODEL>
2

>  <REMARK>
 VINA RESULT:      -8.3      1.884      2.774
  Name = 
  5 active torsions:
  status: ('A' for Active; 'I' for Inactive)
    1  A    between atoms: C_3  and  N_13
    2  A    between atoms: C_3  and  O_17
    3  A    between atoms: C_12  and  C_28
    4  A    between atoms: O_17  and  O_29
    5  A    between atoms: C_18  and  O_29
                            x       y       z     vdW  Elec       q    Type
                         _______ _______ _______ _____ _____    ______ ____

>  <TORSDO>
F 5

$$$$
=
 OpenBabel10262423443D

 34 38  0  0  1  0  0  0  0  0999 V2000
  183.0310  178.3290  139.3400 C   0  0  0  0  0  0  0  0  0  0  0  0
  184.0540  178.7010  141.5440 C   0  0  0  0  0  0  0  0  0  0  0  0
  185.4980  178.3700  139.5680 C   0  0  0  0  0  0  0  0  0  0  0  0
  188.5720  178.7370  138.9170 N   0  0  0  0  0  0  0  0  0  0  0  0
  181.9610  177.9700  137.0970 C   0  0  0  0  0  1  0  0  0  0  0  0
  182.8110  178.8160  142.1580 O   0  0  0  0  0  1  0  0  0  0  0  0
  186.4370  178.7160  141.7920 C   0  0  0  0  0  3  0  0  0  0  0  0
  184.1850  178.4670  140.1550 C   0  0  0  0  0  0  0  0  0  0  0  0
  188.0970  178.3560  140.0590 C   0  0  0  0  0  0  0  0  0  0  0  0
  181.7490  178.4020  139.8820 O   0  0  0  0  0  1  0  0  0  0  0  0
  185.5740  178.1820  138.1570 C   0  0  0  0  0  0  0  0  0  0  0  0
  183.1590  178.1180  137.9700 C   0  0  0  0  0  0  0  0  0  0  0  0
  185.1760  178.8320  142.3400 C   0  0  0  0  0  3  0  0  0  0  0  0
  187.8080  179.0310  137.8170 O   0  0  0  0  0  0  0  0  0  0  0  0
  186.8280  178.1200  137.3570 C   0  0  1  0  0  3  0  0  0  0  0  0
  186.6460  178.4650  140.4310 C   0  0  0  0  0  0  0  0  0  0  0  0
  184.4150  178.0540  137.3950 C   0  0  0  0  0  3  0  0  0  0  0  0
  187.1060  174.3280  137.1310 C   0  0  0  0  0  0  0  0  0  0  0  0
  188.4240  174.1950  136.8190 N   0  0  0  0  0  0  0  0  0  0  0  0
  187.3660  176.7300  137.1530 C   0  0  0  0  0  0  0  0  0  0  0  0
  189.2320  175.2790  136.6720 C   0  0  0  0  0  3  0  0  0  0  0  0
  186.5540  175.5970  137.3060 C   0  0  0  0  0  3  0  0  0  0  0  0
  188.7170  176.5660  136.8400 C   0  0  0  0  0  3  0  0  0  0  0  0
  186.2540  173.1220  137.2900 C   0  0  0  0  0  1  0  0  0  0  0  0
  189.0310  177.9060  141.0010 O   0  0  0  0  0  0  0  0  0  0  0  0
  188.7730  176.8830  141.8260 O   0  0  0  0  0  0  0  0  0  0  0  0
  190.0130  176.5420  142.3660 C   0  0  0  0  0  2  0  0  0  0  0  0
  191.6250  178.4610  143.8610 C   0  0  0  0  0  1  0  0  0  0  0  0
  189.9500  176.5950  143.8210 N   0  0  0  0  0  0  0  0  0  0  0  0
  191.2300  177.0780  144.3780 C   0  0  2  0  0  3  0  0  0  0  0  0
  189.7980  176.8470  146.4750 C   0  0  0  0  0  2  0  0  0  0  0  0
  188.7560  177.6750  145.7230 C   0  0  0  0  0  2  0  0  0  0  0  0
  188.8440  177.4820  144.2010 C   0  0  0  0  0  2  0  0  0  0  0  0
  191.1980  177.1000  145.9130 C   0  0  0  0  0  2  0  0  0  0  0  0
  1 10  1  0  0  0  0
  1  8  1  0  0  0  0
  2  6  1  0  0  0  0
  2 13  1  0  0  0  0
  3  8  1  0  0  0  0
  3 16  2  0  0  0  0
  4  9  2  0  0  0  0
  5 12  1  0  0  0  0
  7 13  2  0  0  0  0
  8  2  2  0  0  0  0
  9 16  1  0  0  0  0
  9 25  1  0  0  0  0
 11  3  1  0  0  0  0
 12  1  2  0  0  0  0
 14  4  1  0  0  0  0
 15 20  1  1  0  0  0
 15 14  1  0  0  0  0
 15 11  1  0  0  0  0
 16  7  1  0  0  0  0
 17 12  1  0  0  0  0
 17 11  2  0  0  0  0
 18 24  1  0  0  0  0
 18 22  1  0  0  0  0
 19 18  2  0  0  0  0
 20 22  2  0  0  0  0
 21 19  1  0  0  0  0
 21 23  2  0  0  0  0
 23 20  1  0  0  0  0
 25 26  1  0  0  0  0
 26 27  1  0  0  0  0
 27 29  1  0  0  0  0
 29 33  1  0  0  0  0
 29 30  1  0  0  0  0
 30 28  1  6  0  0  0
 30 34  1  0  0  0  0
 32 31  1  0  0  0  0
 33 32  1  0  0  0  0
 34 31  1  0  0  0  0
M  END
>  <MODEL>
3

>  <REMARK>
 VINA RESULT:      -8.1      2.114      3.308
  Name = 
  5 active torsions:
  status: ('A' for Active; 'I' for Inactive)
    1  A    between atoms: C_3  and  N_13
    2  A    between atoms: C_3  and  O_17
    3  A    between atoms: C_12  and  C_28
    4  A    between atoms: O_17  and  O_29
    5  A    between atoms: C_18  and  O_29
                            x       y       z     vdW  Elec       q    Type
                         _______ _______ _______ _____ _____    ______ ____

>  <TORSDO>
F 5

$$$$
=
 OpenBabel10262423443D

 34 38  0  0  1  0  0  0  0  0999 V2000
  185.6250  178.2830  143.9650 C   0  0  0  0  0  0  0  0  0  0  0  0
  187.8580  177.8020  143.0590 C   0  0  0  0  0  0  0  0  0  0  0  0
  186.0200  178.4020  141.5220 C   0  0  0  0  0  0  0  0  0  0  0  0
  185.7860  179.2180  138.4740 N   0  0  0  0  0  0  0  0  0  0  0  0
  183.3570  178.7890  144.9180 C   0  0  0  0  0  1  0  0  0  0  0  0
  188.3790  177.5700  144.3280 O   0  0  0  0  0  1  0  0  0  0  0  0
  188.2560  177.8840  140.6970 C   0  0  0  0  0  3  0  0  0  0  0  0
  186.5040  178.1600  142.8580 C   0  0  0  0  0  0  0  0  0  0  0  0
  186.6430  178.3740  138.9510 C   0  0  0  0  0  0  0  0  0  0  0  0
  186.0600  178.0390  145.2660 O   0  0  0  0  0  1  0  0  0  0  0  0
  184.6610  178.8080  141.3790 C   0  0  0  0  0  0  0  0  0  0  0  0
  184.2970  178.6540  143.7700 C   0  0  0  0  0  0  0  0  0  0  0  0
  188.7160  177.6790  141.9820 C   0  0  0  0  0  3  0  0  0  0  0  0
  184.8450  179.8780  139.2230 O   0  0  0  0  0  0  0  0  0  0  0  0
  183.9930  179.1640  140.0980 C   0  0  1  0  0  3  0  0  0  0  0  0
  186.9260  178.2210  140.4190 C   0  0  0  0  0  0  0  0  0  0  0  0
  183.8330  178.9180  142.4940 C   0  0  0  0  0  3  0  0  0  0  0  0
  182.2230  177.0000  137.5100 C   0  0  0  0  0  0  0  0  0  0  0  0
  181.9430  175.8990  138.2590 N   0  0  0  0  0  0  0  0  0  0  0  0
  183.2870  178.0170  139.4260 C   0  0  0  0  0  0  0  0  0  0  0  0
  182.3050  175.8180  139.5670 C   0  0  0  0  0  3  0  0  0  0  0  0
  182.8970  178.0800  138.0810 C   0  0  0  0  0  3  0  0  0  0  0  0
  182.9820  176.8790  140.1750 C   0  0  0  0  0  3  0  0  0  0  0  0
  181.8060  177.0570  136.0860 C   0  0  0  0  0  1  0  0  0  0  0  0
  187.3890  177.6500  138.0130 O   0  0  0  0  0  0  0  0  0  0  0  0
  187.0240  177.5640  136.7270 O   0  0  0  0  0  0  0  0  0  0  0  0
  187.5380  176.3420  136.2930 C   0  0  0  0  0  2  0  0  0  0  0  0
  185.3910  175.1260  134.7340 C   0  0  0  0  0  1  0  0  0  0  0  0
  186.7440  175.2490  136.8430 N   0  0  0  0  0  0  0  0  0  0  0  0
  185.3870  175.2500  136.2580 C   0  0  2  0  0  3  0  0  0  0  0  0
  185.3290  173.1620  137.7210 C   0  0  0  0  0  2  0  0  0  0  0  0
  186.6280  172.7660  137.0180 C   0  0  0  0  0  2  0  0  0  0  0  0
  187.4380  173.9880  136.5570 C   0  0  0  0  0  2  0  0  0  0  0  0
  184.5210  174.1320  136.8560 C   0  0  0  0  0  2  0  0  0  0  0  0
  1 10  1  0  0  0  0
  2  6  1  0  0  0  0
  3  8  1  0  0  0  0
  4  9  2  0  0  0  0
  4 14  1  0  0  0  0
  7 13  1  0  0  0  0
  8  2  1  0  0  0  0
  8  1  2  0  0  0  0
  9 16  1  0  0  0  0
 11  3  2  0  0  0  0
 11 17  1  0  0  0  0
 12  1  1  0  0  0  0
 12  5  1  0  0  0  0
 13  2  2  0  0  0  0
 14 15  1  0  0  0  0
 15 20  1  6  0  0  0
 15 11  1  0  0  0  0
 16  7  2  0  0  0  0
 16  3  1  0  0  0  0
 17 12  2  0  0  0  0
 18 22  2  0  0  0  0
 18 19  1  0  0  0  0
 19 21  2  0  0  0  0
 20 23  2  0  0  0  0
 21 23  1  0  0  0  0
 22 20  1  0  0  0  0
 24 18  1  0  0  0  0
 25  9  1  0  0  0  0
 26 25  1  0  0  0  0
 27 26  1  0  0  0  0
 27 29  1  0  0  0  0
 30 28  1  6  0  0  0
 30 29  1  0  0  0  0
 30 34  1  0  0  0  0
 32 31  1  0  0  0  0
 33 29  1  0  0  0  0
 33 32  1  0  0  0  0
 34 31  1  0  0  0  0
M  END
>  <MODEL>
4

>  <REMARK>
 VINA RESULT:      -7.9      2.274      4.962
  Name = 
  5 active torsions:
  status: ('A' for Active; 'I' for Inactive)
    1  A    between atoms: C_3  and  N_13
    2  A    between atoms: C_3  and  O_17
    3  A    between atoms: C_12  and  C_28
    4  A    between atoms: O_17  and  O_29
    5  A    between atoms: C_18  and  O_29
                            x       y       z     vdW  Elec       q    Type
                         _______ _______ _______ _____ _____    ______ ____

>  <TORSDO>
F 5

$$$$
=
 OpenBabel10262423443D

 34 38  0  0  1  0  0  0  0  0999 V2000
  185.8770  178.2480  143.8170 C   0  0  0  0  0  0  0  0  0  0  0  0
  187.9520  177.7390  142.6030 C   0  0  0  0  0  0  0  0  0  0  0  0
  185.9340  178.4090  141.3460 C   0  0  0  0  0  0  0  0  0  0  0  0
  185.3020  179.2920  138.3740 N   0  0  0  0  0  0  0  0  0  0  0  0
  183.7740  178.7820  145.0830 C   0  0  0  0  0  1  0  0  0  0  0  0
  188.6370  177.4700  143.7840 O   0  0  0  0  0  1  0  0  0  0  0  0
  188.0220  177.8610  140.2110 C   0  0  0  0  0  3  0  0  0  0  0  0
  186.5920  178.1300  142.5980 C   0  0  0  0  0  0  0  0  0  0  0  0
  186.1970  178.4210  138.7130 C   0  0  0  0  0  0  0  0  0  0  0  0
  186.4810  177.9690  145.0420 O   0  0  0  0  0  1  0  0  0  0  0  0
  184.5790  178.8460  141.3990 C   0  0  0  0  0  0  0  0  0  0  0  0
  184.5440  178.6510  143.8140 C   0  0  0  0  0  0  0  0  0  0  0  0
  188.6500  177.6200  141.4160 C   0  0  0  0  0  3  0  0  0  0  0  0
  184.4900  179.9560  139.2580 O   0  0  0  0  0  0  0  0  0  0  0  0
  183.7490  179.2420  140.2290 C   0  0  1  0  0  3  0  0  0  0  0  0
  186.6760  178.2320  140.1250 C   0  0  0  0  0  0  0  0  0  0  0  0
  183.9150  178.9500  142.6200 C   0  0  0  0  0  3  0  0  0  0  0  0
  181.2660  177.2850  138.1050 C   0  0  0  0  0  0  0  0  0  0  0  0
  181.4120  176.0420  138.6370 N   0  0  0  0  0  0  0  0  0  0  0  0
  182.9310  178.1250  139.6420 C   0  0  0  0  0  0  0  0  0  0  0  0
  182.2840  175.8010  139.6530 C   0  0  0  0  0  3  0  0  0  0  0  0
  182.0200  178.3500  138.5990 C   0  0  0  0  0  3  0  0  0  0  0  0
  183.0570  176.8410  140.1750 C   0  0  0  0  0  3  0  0  0  0  0  0
  180.2990  177.5130  137.0000 C   0  0  0  0  0  1  0  0  0  0  0  0
  186.7890  177.7000  137.6690 O   0  0  0  0  0  0  0  0  0  0  0  0
  186.9470  178.2220  136.4450 O   0  0  0  0  0  0  0  0  0  0  0  0
  187.7830  177.3230  135.7820 C   0  0  0  0  0  2  0  0  0  0  0  0
  189.6610  175.2590  134.9270 C   0  0  0  0  0  1  0  0  0  0  0  0
  188.6980  176.7060  136.7350 N   0  0  0  0  0  0  0  0  0  0  0  0
  189.0290  175.3280  136.3180 C   0  0  2  0  0  3  0  0  0  0  0  0
  190.4930  175.6180  138.3860 C   0  0  0  0  0  2  0  0  0  0  0  0
  190.9730  176.9130  137.7300 C   0  0  0  0  0  2  0  0  0  0  0  0
  189.9060  177.5350  136.8160 C   0  0  0  0  0  2  0  0  0  0  0  0
  189.9580  174.6460  137.3330 C   0  0  0  0  0  2  0  0  0  0  0  0
  1 10  1  0  0  0  0
  2  6  1  0  0  0  0
  3 11  2  0  0  0  0
  3  8  1  0  0  0  0
  4  9  2  0  0  0  0
  4 14  1  0  0  0  0
  7 13  1  0  0  0  0
  8  2  1  0  0  0  0
  8  1  2  0  0  0  0
  9 16  1  0  0  0  0
 11 17  1  0  0  0  0
 12  1  1  0  0  0  0
 12  5  1  0  0  0  0
 13  2  2  0  0  0  0
 14 15  1  0  0  0  0
 15 20  1  6  0  0  0
 15 11  1  0  0  0  0
 16  7  2  0  0  0  0
 16  3  1  0  0  0  0
 17 12  2  0  0  0  0
 18 22  2  0  0  0  0
 18 19  1  0  0  0  0
 19 21  2  0  0  0  0
 20 23  2  0  0  0  0
 21 23  1  0  0  0  0
 22 20  1  0  0  0  0
 24 18  1  0  0  0  0
 25  9  1  0  0  0  0
 26 25  1  0  0  0  0
 27 26  1  0  0  0  0
 27 29  1  0  0  0  0
 29 33  1  0  0  0  0
 30 28  1  6  0  0  0
 30 29  1  0  0  0  0
 30 34  1  0  0  0  0
 32 31  1  0  0  0  0
 33 32  1  0  0  0  0
 34 31  1  0  0  0  0
M  END
>  <MODEL>
5

>  <REMARK>
 VINA RESULT:      -7.7      2.561      4.439
  Name = 
  5 active torsions:
  status: ('A' for Active; 'I' for Inactive)
    1  A    between atoms: C_3  and  N_13
    2  A    between atoms: C_3  and  O_17
    3  A    between atoms: C_12  and  C_28
    4  A    between atoms: O_17  and  O_29
    5  A    between atoms: C_18  and  O_29
                            x       y       z     vdW  Elec       q    Type
                         _______ _______ _______ _____ _____    ______ ____

>  <TORSDO>
F 5

$$$$
=
 OpenBabel10262423443D

 34 38  0  0  1  0  0  0  0  0999 V2000
  189.5520  173.8110  136.4230 C   0  0  0  0  0  0  0  0  0  0  0  0
  187.1760  174.4340  136.3660 C   0  0  0  0  0  0  0  0  0  0  0  0
  188.7950  175.8970  137.5240 C   0  0  0  0  0  0  0  0  0  0  0  0
  188.7600  178.8310  138.7070 N   0  0  0  0  0  0  0  0  0  0  0  0
  191.9780  173.1600  136.4500 C   0  0  0  0  0  1  0  0  0  0  0  0
  186.8440  173.3060  135.6240 O   0  0  0  0  0  1  0  0  0  0  0  0
  186.4170  176.4330  137.4500 C   0  0  0  0  0  3  0  0  0  0  0  0
  188.5050  174.7050  136.7670 C   0  0  0  0  0  0  0  0  0  0  0  0
  187.7520  178.0190  138.7100 C   0  0  0  0  0  0  0  0  0  0  0  0
  189.3010  172.6430  135.7060 O   0  0  0  0  0  1  0  0  0  0  0  0
  190.1570  176.1470  137.8600 C   0  0  0  0  0  0  0  0  0  0  0  0
  190.8640  174.0860  136.8000 C   0  0  0  0  0  0  0  0  0  0  0  0
  186.1540  175.3030  136.7030 C   0  0  0  0  0  3  0  0  0  0  0  0
  189.9970  178.5320  138.1960 O   0  0  0  0  0  0  0  0  0  0  0  0
  190.6670  177.3470  138.5790 C   0  0  1  0  0  3  0  0  0  0  0  0
  187.7030  176.7570  137.8970 C   0  0  0  0  0  0  0  0  0  0  0  0
  191.1540  175.2420  137.5010 C   0  0  0  0  0  3  0  0  0  0  0  0
  189.8570  176.4800  142.1990 C   0  0  0  0  0  0  0  0  0  0  0  0
  190.9710  176.9520  142.8210 N   0  0  0  0  0  0  0  0  0  0  0  0
  190.7630  177.1810  140.0710 C   0  0  0  0  0  0  0  0  0  0  0  0
  191.9810  177.5370  142.1230 C   0  0  0  0  0  3  0  0  0  0  0  0
  189.7320  176.5880  140.8130 C   0  0  0  0  0  3  0  0  0  0  0  0
  191.8930  177.6640  140.7350 C   0  0  0  0  0  3  0  0  0  0  0  0
  188.7710  175.8520  142.9940 C   0  0  0  0  0  1  0  0  0  0  0  0
  186.6350  178.4200  139.4530 O   0  0  0  0  0  0  0  0  0  0  0  0
  186.7440  178.9080  140.6960 O   0  0  0  0  0  0  0  0  0  0  0  0
  185.4320  179.1640  141.0930 C   0  0  0  0  0  2  0  0  0  0  0  0
  183.1340  178.0580  142.5140 C   0  0  0  0  0  1  0  0  0  0  0  0
  185.3580  179.2180  142.5480 N   0  0  0  0  0  0  0  0  0  0  0  0
  183.9500  179.2580  142.9950 C   0  0  2  0  0  3  0  0  0  0  0  0
  185.2030  179.1600  145.2130 C   0  0  0  0  0  2  0  0  0  0  0  0
  185.9410  177.9600  144.6190 C   0  0  0  0  0  2  0  0  0  0  0  0
  186.0460  178.0390  143.0880 C   0  0  0  0  0  2  0  0  0  0  0  0
  183.8520  179.3590  144.5240 C   0  0  0  0  0  2  0  0  0  0  0  0
  1  8  2  0  0  0  0
  1 12  1  0  0  0  0
  2 13  2  0  0  0  0
  2  8  1  0  0  0  0
  3 11  2  0  0  0  0
  3 16  1  0  0  0  0
  4  9  2  0  0  0  0
  5 12  1  0  0  0  0
  6  2  1  0  0  0  0
  7 16  2  0  0  0  0
  8  3  1  0  0  0  0
  9 25  1  0  0  0  0
 10  1  1  0  0  0  0
 11 15  1  0  0  0  0
 12 17  2  0  0  0  0
 13  7  1  0  0  0  0
 14 15  1  0  0  0  0
 14  4  1  0  0  0  0
 15 20  1  1  0  0  0
 16  9  1  0  0  0  0
 17 11  1  0  0  0  0
 18 19  1  0  0  0  0
 18 24  1  0  0  0  0
 20 23  2  0  0  0  0
 20 22  1  0  0  0  0
 21 19  2  0  0  0  0
 22 18  2  0  0  0  0
 23 21  1  0  0  0  0
 25 26  1  0  0  0  0
 26 27  1  0  0  0  0
 27 29  1  0  0  0  0
 29 30  1  0  0  0  0
 29 33  1  0  0  0  0
 30 28  1  1  0  0  0
 30 34  1  0  0  0  0
 32 31  1  0  0  0  0
 33 32  1  0  0  0  0
 34 31  1  0  0  0  0
M  END
>  <MODEL>
6

>  <REMARK>
 VINA RESULT:      -7.7      3.067      7.863
  Name = 
  5 active torsions:
  status: ('A' for Active; 'I' for Inactive)
    1  A    between atoms: C_3  and  N_13
    2  A    between atoms: C_3  and  O_17
    3  A    between atoms: C_12  and  C_28
    4  A    between atoms: O_17  and  O_29
    5  A    between atoms: C_18  and  O_29
                            x       y       z     vdW  Elec       q    Type
                         _______ _______ _______ _____ _____    ______ ____

>  <TORSDO>
F 5

$$$$
=
 OpenBabel10262423443D

 34 38  0  0  1  0  0  0  0  0999 V2000
  185.5870  178.2810  143.9190 C   0  0  0  0  0  0  0  0  0  0  0  0
  187.7840  177.7960  142.9290 C   0  0  0  0  0  0  0  0  0  0  0  0
  185.8950  178.4160  141.4640 C   0  0  0  0  0  0  0  0  0  0  0  0
  185.5550  179.2560  138.4330 N   0  0  0  0  0  0  0  0  0  0  0  0
  183.3580  178.7890  144.9560 C   0  0  0  0  0  1  0  0  0  0  0  0
  188.3500  177.5520  144.1770 O   0  0  0  0  0  1  0  0  0  0  0  0
  188.0970  177.8940  140.5550 C   0  0  0  0  0  3  0  0  0  0  0  0
  186.4260  178.1620  142.7800 C   0  0  0  0  0  0  0  0  0  0  0  0
  186.4250  178.4050  138.8720 C   0  0  0  0  0  0  0  0  0  0  0  0
  186.0680  178.0250  145.2020 O   0  0  0  0  0  1  0  0  0  0  0  0
  184.5340  178.8290  141.3740 C   0  0  0  0  0  0  0  0  0  0  0  0
  184.2550  178.6590  143.7740 C   0  0  0  0  0  0  0  0  0  0  0  0
  188.6020  177.6770  141.8210 C   0  0  0  0  0  3  0  0  0  0  0  0
  184.6450  179.9140  139.2200 O   0  0  0  0  0  0  0  0  0  0  0  0
  183.8210  179.1970  140.1200 C   0  0  1  0  0  3  0  0  0  0  0  0
  186.7600  178.2390  140.3280 C   0  0  0  0  0  0  0  0  0  0  0  0
  183.7470  178.9340  142.5180 C   0  0  0  0  0  3  0  0  0  0  0  0
  181.7830  177.1250  137.6590 C   0  0  0  0  0  0  0  0  0  0  0  0
  181.7010  175.9480  138.3360 N   0  0  0  0  0  0  0  0  0  0  0  0
  183.0860  178.0590  139.4660 C   0  0  0  0  0  0  0  0  0  0  0  0
  182.2800  175.7880  139.5560 C   0  0  0  0  0  3  0  0  0  0  0  0
  182.4750  178.2020  138.2130 C   0  0  0  0  0  3  0  0  0  0  0  0
  182.9810  176.8430  140.1440 C   0  0  0  0  0  3  0  0  0  0  0  0
  181.1330  177.2660  136.3300 C   0  0  0  0  0  1  0  0  0  0  0  0
  187.1330  177.6840  137.9030 O   0  0  0  0  0  0  0  0  0  0  0  0
  186.5220  176.8500  137.0490 O   0  0  0  0  0  0  0  0  0  0  0  0
  187.4740  176.5940  136.0620 C   0  0  0  0  0  2  0  0  0  0  0  0
  189.6870  175.3170  137.4730 C   0  0  0  0  0  1  0  0  0  0  0  0
  187.6980  175.1580  135.9530 N   0  0  0  0  0  0  0  0  0  0  0  0
  189.1300  174.8410  136.1300 C   0  0  2  0  0  3  0  0  0  0  0  0
  188.1010  172.5190  135.9120 C   0  0  0  0  0  2  0  0  0  0  0  0
  187.1220  172.9690  136.9960 C   0  0  0  0  0  2  0  0  0  0  0  0
  186.8820  174.4870  136.9720 C   0  0  0  0  0  2  0  0  0  0  0  0
  189.3920  173.3360  135.9760 C   0  0  0  0  0  2  0  0  0  0  0  0
  1 10  1  0  0  0  0
  2  6  1  0  0  0  0
  3  8  1  0  0  0  0
  4  9  2  0  0  0  0
  4 14  1  0  0  0  0
  7 13  1  0  0  0  0
  8  2  1  0  0  0  0
  8  1  2  0  0  0  0
  9 16  1  0  0  0  0
 11  3  2  0  0  0  0
 11 17  1  0  0  0  0
 12  1  1  0  0  0  0
 12  5  1  0  0  0  0
 13  2  2  0  0  0  0
 14 15  1  0  0  0  0
 15 20  1  6  0  0  0
 15 11  1  0  0  0  0
 16  7  2  0  0  0  0
 16  3  1  0  0  0  0
 17 12  2  0  0  0  0
 18 22  2  0  0  0  0
 18 19  1  0  0  0  0
 19 21  2  0  0  0  0
 20 23  2  0  0  0  0
 21 23  1  0  0  0  0
 22 20  1  0  0  0  0
 24 18  1  0  0  0  0
 25  9  1  0  0  0  0
 26 25  1  0  0  0  0
 27 26  1  0  0  0  0
 29 27  1  0  0  0  0
 29 30  1  0  0  0  0
 29 33  1  0  0  0  0
 30 28  1  1  0  0  0
 31 34  1  0  0  0  0
 31 32  1  0  0  0  0
 33 32  1  0  0  0  0
 34 30  1  0  0  0  0
M  END
>  <MODEL>
7

>  <REMARK>
 VINA RESULT:      -7.6      2.406      4.809
  Name = 
  5 active torsions:
  status: ('A' for Active; 'I' for Inactive)
    1  A    between atoms: C_3  and  N_13
    2  A    between atoms: C_3  and  O_17
    3  A    between atoms: C_12  and  C_28
    4  A    between atoms: O_17  and  O_29
    5  A    between atoms: C_18  and  O_29
                            x       y       z     vdW  Elec       q    Type
                         _______ _______ _______ _____ _____    ______ ____

>  <TORSDO>
F 5

$$$$
=
 OpenBabel10262423443D

 34 38  0  0  1  0  0  0  0  0999 V2000
  186.1160  178.3420  146.6280 C   0  0  0  0  0  0  0  0  0  0  0  0
  184.6670  179.0010  144.7560 C   0  0  0  0  0  0  0  0  0  0  0  0
  186.7960  177.8340  144.3000 C   0  0  0  0  0  0  0  0  0  0  0  0
  188.1250  176.4360  141.7930 N   0  0  0  0  0  0  0  0  0  0  0  0
  187.5690  177.6620  148.5600 C   0  0  0  0  0  1  0  0  0  0  0  0
  183.7190  179.5480  145.6150 O   0  0  0  0  0  1  0  0  0  0  0  0
  185.3180  178.5450  142.4950 C   0  0  0  0  0  3  0  0  0  0  0  0
  185.8530  178.3970  145.2350 C   0  0  0  0  0  0  0  0  0  0  0  0
  187.3650  177.4820  141.7410 C   0  0  0  0  0  0  0  0  0  0  0  0
  185.2320  178.8920  147.5540 O   0  0  0  0  0  1  0  0  0  0  0  0
  187.9500  177.1940  144.8380 C   0  0  0  0  0  0  0  0  0  0  0  0
  187.2740  177.7300  147.1020 C   0  0  0  0  0  0  0  0  0  0  0  0
  184.4100  179.0590  143.3990 C   0  0  0  0  0  3  0  0  0  0  0  0
  188.4720  175.7840  142.9490 O   0  0  0  0  0  0  0  0  0  0  0  0
  189.0040  176.5010  144.0470 C   0  0  1  0  0  3  0  0  0  0  0  0
  186.5210  177.9510  142.8930 C   0  0  0  0  0  0  0  0  0  0  0  0
  188.1680  177.1610  146.2130 C   0  0  0  0  0  3  0  0  0  0  0  0
  192.0380  177.9320  142.2430 C   0  0  0  0  0  0  0  0  0  0  0  0
  192.3420  178.9750  143.0620 N   0  0  0  0  0  0  0  0  0  0  0  0
  190.1720  177.3710  143.6720 C   0  0  0  0  0  0  0  0  0  0  0  0
  191.6070  179.2440  144.1730 C   0  0  0  0  0  3  0  0  0  0  0  0
  190.9490  177.1100  142.5350 C   0  0  0  0  0  3  0  0  0  0  0  0
  190.5100  178.4440  144.4990 C   0  0  0  0  0  3  0  0  0  0  0  0
  192.8670  177.6630  141.0400 C   0  0  0  0  0  1  0  0  0  0  0  0
  187.2840  178.1300  140.5020 O   0  0  0  0  0  0  0  0  0  0  0  0
  188.3460  178.2550  139.6950 O   0  0  0  0  0  0  0  0  0  0  0  0
  187.9200  177.7460  138.4680 C   0  0  0  0  0  2  0  0  0  0  0  0
  189.2030  177.6710  135.8480 C   0  0  0  0  0  1  0  0  0  0  0  0
  188.7620  176.6200  138.0820 N   0  0  0  0  0  0  0  0  0  0  0  0
  188.7380  176.4340  136.6170 C   0  0  2  0  0  3  0  0  0  0  0  0
  190.4210  174.6610  137.3450 C   0  0  0  0  0  2  0  0  0  0  0  0
  191.1110  175.7890  138.1140 C   0  0  0  0  0  2  0  0  0  0  0  0
  190.1260  176.8820  138.5560 C   0  0  0  0  0  2  0  0  0  0  0  0
  189.5860  175.2250  136.1940 C   0  0  0  0  0  2  0  0  0  0  0  0
  1 12  1  0  0  0  0
  1 10  1  0  0  0  0
  2  8  1  0  0  0  0
  2  6  1  0  0  0  0
  3 11  2  0  0  0  0
  3  8  1  0  0  0  0
  4 14  1  0  0  0  0
  7 16  2  0  0  0  0
  7 13  1  0  0  0  0
  8  1  2  0  0  0  0
  9  4  2  0  0  0  0
  9 16  1  0  0  0  0
 11 17  1  0  0  0  0
 12  5  1  0  0  0  0
 13  2  2  0  0  0  0
 14 15  1  0  0  0  0
 15 20  1  6  0  0  0
 15 11  1  0  0  0  0
 16  3  1  0  0  0  0
 17 12  2  0  0  0  0
 18 22  2  0  0  0  0
 18 19  1  0  0  0  0
 19 21  2  0  0  0  0
 20 23  2  0  0  0  0
 21 23  1  0  0  0  0
 22 20  1  0  0  0  0
 24 18  1  0  0  0  0
 25  9  1  0  0  0  0
 26 25  1  0  0  0  0
 27 26  1  0  0  0  0
 29 27  1  0  0  0  0
 29 33  1  0  0  0  0
 30 28  1  6  0  0  0
 30 29  1  0  0  0  0
 31 32  1  0  0  0  0
 32 33  1  0  0  0  0
 34 30  1  0  0  0  0
 34 31  1  0  0  0  0
M  END
>  <MODEL>
8

>  <REMARK>
 VINA RESULT:      -7.6      2.752      6.557
  Name = 
  5 active torsions:
  status: ('A' for Active; 'I' for Inactive)
    1  A    between atoms: C_3  and  N_13
    2  A    between atoms: C_3  and  O_17
    3  A    between atoms: C_12  and  C_28
    4  A    between atoms: O_17  and  O_29
    5  A    between atoms: C_18  and  O_29
                            x       y       z     vdW  Elec       q    Type
                         _______ _______ _______ _____ _____    ______ ____

>  <TORSDO>
F 5

$$$$
=
 OpenBabel10262423443D

 34 38  0  0  1  0  0  0  0  0999 V2000
  182.9810  178.6830  144.0030 C   0  0  0  0  0  0  0  0  0  0  0  0
  185.4360  178.6010  143.9410 C   0  0  0  0  0  0  0  0  0  0  0  0
  184.1670  178.7910  141.8300 C   0  0  0  0  0  0  0  0  0  0  0  0
  184.8630  179.4450  138.8140 N   0  0  0  0  0  0  0  0  0  0  0  0
  180.4730  178.7830  144.0960 C   0  0  0  0  0  1  0  0  0  0  0  0
  185.5200  178.5150  145.3260 O   0  0  0  0  0  1  0  0  0  0  0  0
  186.6030  178.6760  141.8480 C   0  0  0  0  0  3  0  0  0  0  0  0
  184.1950  178.6900  143.2680 C   0  0  0  0  0  0  0  0  0  0  0  0
  185.6320  178.7950  139.6280 C   0  0  0  0  0  0  0  0  0  0  0  0
  182.9760  178.5700  145.3920 O   0  0  0  0  0  1  0  0  0  0  0  0
  182.8930  178.9280  141.2060 C   0  0  0  0  0  0  0  0  0  0  0  0
  181.7590  178.7900  143.3430 C   0  0  0  0  0  0  0  0  0  0  0  0
  186.6200  178.6050  143.2270 C   0  0  0  0  0  3  0  0  0  0  0  0
  183.6270  179.9400  139.1420 O   0  0  0  0  0  0  0  0  0  0  0  0
  182.6570  179.1080  139.7480 C   0  0  1  0  0  3  0  0  0  0  0  0
  185.4140  178.7480  141.1140 C   0  0  0  0  0  0  0  0  0  0  0  0
  181.7260  178.9180  141.9670 C   0  0  0  0  0  3  0  0  0  0  0  0
  181.7020  176.6100  137.0360 C   0  0  0  0  0  0  0  0  0  0  0  0
  181.9680  175.4380  137.6750 N   0  0  0  0  0  0  0  0  0  0  0  0
  182.4250  177.8270  138.9940 C   0  0  0  0  0  0  0  0  0  0  0  0
  182.4500  175.4160  138.9470 C   0  0  0  0  0  3  0  0  0  0  0  0
  181.9230  177.8250  137.6850 C   0  0  0  0  0  3  0  0  0  0  0  0
  182.6840  176.6110  139.6290 C   0  0  0  0  0  3  0  0  0  0  0  0
  181.1700  176.5960  135.6490 C   0  0  0  0  0  1  0  0  0  0  0  0
  186.7640  178.1920  139.0650 O   0  0  0  0  0  0  0  0  0  0  0  0
  186.7420  177.6390  137.8450 O   0  0  0  0  0  0  0  0  0  0  0  0
  187.8580  178.1690  137.1960 C   0  0  0  0  0  2  0  0  0  0  0  0
  190.0520  177.2810  138.9040 C   0  0  0  0  0  1  0  0  0  0  0  0
  188.7420  177.0890  136.7740 N   0  0  0  0  0  0  0  0  0  0  0  0
  190.0810  177.2510  137.3750 C   0  0  2  0  0  3  0  0  0  0  0  0
  190.3260  175.0360  136.1350 C   0  0  0  0  0  2  0  0  0  0  0  0
  189.0440  174.6170  136.8550 C   0  0  0  0  0  2  0  0  0  0  0  0
  188.1360  175.8140  137.1760 C   0  0  0  0  0  2  0  0  0  0  0  0
  191.0410  176.1460  136.9080 C   0  0  0  0  0  2  0  0  0  0  0  0
  1 10  1  0  0  0  0
  2  6  1  0  0  0  0
  3  8  1  0  0  0  0
  4 14  1  0  0  0  0
  4  9  2  0  0  0  0
  7 13  1  0  0  0  0
  8  2  1  0  0  0  0
  8  1  2  0  0  0  0
  9 16  1  0  0  0  0
 11  3  2  0  0  0  0
 11 17  1  0  0  0  0
 12  1  1  0  0  0  0
 12  5  1  0  0  0  0
 13  2  2  0  0  0  0
 14 15  1  0  0  0  0
 15 20  1  6  0  0  0
 15 11  1  0  0  0  0
 16  3  1  0  0  0  0
 16  7  2  0  0  0  0
 17 12  2  0  0  0  0
 18 19  2  0  0  0  0
 18 22  1  0  0  0  0
 19 21  1  0  0  0  0
 20 23  1  0  0  0  0
 21 23  2  0  0  0  0
 22 20  2  0  0  0  0
 24 18  1  0  0  0  0
 25  9  1  0  0  0  0
 26 25  1  0  0  0  0
 27 26  1  0  0  0  0
 29 33  1  0  0  0  0
 29 27  1  0  0  0  0
 29 30  1  0  0  0  0
 30 28  1  1  0  0  0
 31 32  1  0  0  0  0
 31 34  1  0  0  0  0
 32 33  1  0  0  0  0
 34 30  1  0  0  0  0
M  END
>  <MODEL>
9

>  <REMARK>
 VINA RESULT:      -7.3      2.458      3.784
  Name = 
  5 active torsions:
  status: ('A' for Active; 'I' for Inactive)
    1  A    between atoms: C_3  and  N_13
    2  A    between atoms: C_3  and  O_17
    3  A    between atoms: C_12  and  C_28
    4  A    between atoms: O_17  and  O_29
    5  A    between atoms: C_18  and  O_29
                            x       y       z     vdW  Elec       q    Type
                         _______ _______ _______ _____ _____    ______ ____

>  <TORSDO>
F 5

$$$$
