=
 OpenBabel10272400563D

 25 28  0  0  1  0  0  0  0  0999 V2000
  187.2030  178.2680  145.8660 N   0  0  0  0  0  0  0  0  0  0  0  0
  188.5600  177.8120  145.7120 C   0  0  0  0  0  0  0  0  0  0  0  0
  187.4320  178.2430  148.3150 C   0  0  0  0  0  3  0  0  0  0  0  0
  186.0920  178.0760  144.9440 C   0  0  1  0  0  3  0  0  0  0  0  0
  183.5940  179.2890  144.1440 C   0  0  0  0  0  3  0  0  0  0  0  0
  188.7120  177.8880  148.1750 C   0  0  0  0  0  3  0  0  0  0  0  0
  184.9130  178.2670  145.8630 C   0  0  2  0  0  3  0  0  0  0  0  0
  183.6090  178.6610  145.3280 C   0  0  0  0  0  3  0  0  0  0  0  0
  184.8630  179.6150  143.4390 C   0  0  0  0  0  3  0  0  0  0  0  0
  186.6510  178.4170  147.1370 N   0  0  0  0  0  0  0  0  0  0  0  0
  185.2590  178.4550  147.0950 N   0  0  0  0  0  2  0  0  0  0  0  0
  186.0380  179.1060  143.8440 C   0  0  0  0  0  3  0  0  0  0  0  0
  189.3060  177.6510  146.8340 C   0  0  0  0  0  0  0  0  0  0  0  0
  189.1050  177.5460  144.3640 C   0  0  0  0  0  0  0  0  0  0  0  0
  189.2770  176.1320  142.3980 C   0  0  0  0  0  3  0  0  0  0  0  0
  189.9720  178.4670  143.7640 C   0  0  0  0  0  3  0  0  0  0  0  0
  190.4900  178.2220  142.4890 C   0  0  0  0  0  3  0  0  0  0  0  0
  188.7590  176.3770  143.6730 C   0  0  0  0  0  3  0  0  0  0  0  0
  190.1460  177.0530  141.7970 C   0  0  0  0  0  0  0  0  0  0  0  0
  190.6920  176.7960  140.4530 C   0  0  0  0  0  0  0  0  0  0  0  0
  190.0540  176.0830  139.6330 O   0  0  0  0  0  0  0  0  0  0  0  0
  191.9460  177.3490  140.0650 N   0  0  0  0  0  1  0  0  0  0  0  0
  190.7540  177.2600  146.7820 C   0  0  0  0  0  2  0  0  0  0  0  0
  190.9810  175.9000  147.4260 C   0  0  0  0  0  2  0  0  0  0  0  0
  192.4400  175.7220  147.7990 C   0  0  0  0  0  1  0  0  0  0  0  0
  1 10  1  0  0  0  0
  2  1  1  0  0  0  0
  2 13  2  0  0  0  0
  4 12  1  6  0  0  0
  4  7  1  0  0  0  0
  4  1  1  0  0  0  0
  5  8  2  0  0  0  0
  6  3  2  0  0  0  0
  7  8  1  6  0  0  0
  7 11  1  0  0  0  0
  9 12  2  0  0  0  0
  9  5  1  0  0  0  0
 10  3  1  0  0  0  0
 11 10  1  0  0  0  0
 13  6  1  0  0  0  0
 14  2  1  0  0  0  0
 15 18  1  0  0  0  0
 16 14  1  0  0  0  0
 17 16  2  0  0  0  0
 18 14  2  0  0  0  0
 19 15  2  0  0  0  0
 19 17  1  0  0  0  0
 20 19  1  0  0  0  0
 21 20  2  0  0  0  0
 22 20  1  0  0  0  0
 23 13  1  0  0  0  0
 23 24  1  0  0  0  0
 24 25  1  0  0  0  0
M  END
>  <MODEL>
1

>  <REMARK>
 VINA RESULT:      -8.9      0.000      0.000
  Name = 
  4 active torsions:
  status: ('A' for Active; 'I' for Inactive)
    1  A    between atoms: C_2  and  C_25
    2  A    between atoms: C_3  and  C_6
    3  A    between atoms: C_13  and  C_14
    4  A    between atoms: C_14  and  C_24
                            x       y       z     vdW  Elec       q    Type
                         _______ _______ _______ _____ _____    ______ ____

>  <TORSDO>
F 4

$$$$
=
 OpenBabel10272400563D

 25 28  0  0  1  0  0  0  0  0999 V2000
  186.0500  178.1320  145.0310 N   0  0  0  0  0  0  0  0  0  0  0  0
  185.9730  178.1120  143.5930 C   0  0  0  0  0  0  0  0  0  0  0  0
  183.6840  178.7860  145.1860 C   0  0  0  0  0  3  0  0  0  0  0  0
  187.2290  178.3680  145.8530 C   0  0  1  0  0  3  0  0  0  0  0  0
  188.3140  177.7580  148.4600 C   0  0  0  0  0  3  0  0  0  0  0  0
  183.5890  178.6980  143.8570 C   0  0  0  0  0  3  0  0  0  0  0  0
  186.5970  178.7970  147.1520 C   0  0  2  0  0  3  0  0  0  0  0  0
  187.3280  178.6640  148.4140 C   0  0  0  0  0  3  0  0  0  0  0  0
  188.6080  176.8910  147.2880 C   0  0  0  0  0  3  0  0  0  0  0  0
  184.9460  178.5180  145.7880 N   0  0  0  0  0  0  0  0  0  0  0  0
  185.3080  178.8750  147.0850 N   0  0  0  0  0  2  0  0  0  0  0  0
  188.0570  177.1300  146.0860 C   0  0  0  0  0  3  0  0  0  0  0  0
  184.7690  178.3610  143.0180 C   0  0  0  0  0  0  0  0  0  0  0  0
  187.1770  177.8120  142.7890 C   0  0  0  0  0  0  0  0  0  0  0  0
  189.0640  176.3740  142.2720 C   0  0  0  0  0  3  0  0  0  0  0  0
  187.5750  178.6840  141.7700 C   0  0  0  0  0  3  0  0  0  0  0  0
  188.7120  178.4050  141.0060 C   0  0  0  0  0  3  0  0  0  0  0  0
  187.9280  176.6540  143.0360 C   0  0  0  0  0  3  0  0  0  0  0  0
  189.4640  177.2490  141.2520 C   0  0  0  0  0  0  0  0  0  0  0  0
  190.6620  176.9540  140.4460 C   0  0  0  0  0  0  0  0  0  0  0  0
  191.7730  177.4670  140.7450 O   0  0  0  0  0  0  0  0  0  0  0  0
  190.5780  176.0870  139.3180 N   0  0  0  0  0  1  0  0  0  0  0  0
  184.5600  178.2830  141.5350 C   0  0  0  0  0  2  0  0  0  0  0  0
  183.0790  178.2090  141.1900 C   0  0  0  0  0  2  0  0  0  0  0  0
  182.8400  177.2070  140.0760 C   0  0  0  0  0  1  0  0  0  0  0  0
  1 10  1  0  0  0  0
  1  4  1  0  0  0  0
  2  1  1  0  0  0  0
  3 10  1  0  0  0  0
  4 12  1  1  0  0  0
  4  7  1  0  0  0  0
  6  3  2  0  0  0  0
  7  8  1  1  0  0  0
  8  5  2  0  0  0  0
  9  5  1  0  0  0  0
 10 11  1  0  0  0  0
 11  7  1  0  0  0  0
 12  9  2  0  0  0  0
 13  2  2  0  0  0  0
 13  6  1  0  0  0  0
 14 18  1  0  0  0  0
 14  2  1  0  0  0  0
 15 18  2  0  0  0  0
 16 14  2  0  0  0  0
 17 19  2  0  0  0  0
 17 16  1  0  0  0  0
 19 15  1  0  0  0  0
 20 21  2  0  0  0  0
 20 19  1  0  0  0  0
 22 20  1  0  0  0  0
 23 13  1  0  0  0  0
 24 23  1  0  0  0  0
 25 24  1  0  0  0  0
M  END
>  <MODEL>
2

>  <REMARK>
 VINA RESULT:      -8.5      1.777      4.930
  Name = 
  4 active torsions:
  status: ('A' for Active; 'I' for Inactive)
    1  A    between atoms: C_2  and  C_25
    2  A    between atoms: C_3  and  C_6
    3  A    between atoms: C_13  and  C_14
    4  A    between atoms: C_14  and  C_24
                            x       y       z     vdW  Elec       q    Type
                         _______ _______ _______ _____ _____    ______ ____

>  <TORSDO>
F 4

$$$$
=
 OpenBabel10272400563D

 25 28  0  0  1  0  0  0  0  0999 V2000
  184.5050  178.6540  142.7520 N   0  0  0  0  0  0  0  0  0  0  0  0
  185.6910  178.3350  143.5050 C   0  0  0  0  0  0  0  0  0  0  0  0
  183.2240  178.9600  144.8300 C   0  0  0  0  0  3  0  0  0  0  0  0
  184.1700  178.2250  141.4010 C   0  0  1  0  0  3  0  0  0  0  0  0
  182.6300  179.0440  139.0970 C   0  0  0  0  0  3  0  0  0  0  0  0
  184.3380  178.7350  145.5310 C   0  0  0  0  0  3  0  0  0  0  0  0
  182.6730  178.3980  141.4040 C   0  0  2  0  0  3  0  0  0  0  0  0
  181.9430  178.5740  140.1470 C   0  0  0  0  0  3  0  0  0  0  0  0
  184.0630  179.4190  139.2310 C   0  0  0  0  0  3  0  0  0  0  0  0
  183.3010  178.8980  143.4090 N   0  0  0  0  0  0  0  0  0  0  0  0
  182.2100  178.7750  142.5510 N   0  0  0  0  0  2  0  0  0  0  0  0
  184.7700  179.0980  140.3280 C   0  0  0  0  0  3  0  0  0  0  0  0
  185.6200  178.4000  144.8580 C   0  0  0  0  0  0  0  0  0  0  0  0
  186.9390  177.9660  142.8030 C   0  0  0  0  0  0  0  0  0  0  0  0
  188.6310  178.4300  141.1240 C   0  0  0  0  0  3  0  0  0  0  0  0
  187.6230  176.7970  143.1550 C   0  0  0  0  0  3  0  0  0  0  0  0
  188.8030  176.4440  142.4950 C   0  0  0  0  0  3  0  0  0  0  0  0
  187.4510  178.7820  141.7840 C   0  0  0  0  0  3  0  0  0  0  0  0
  189.3160  177.2580  141.4760 C   0  0  0  0  0  0  0  0  0  0  0  0
  190.5610  176.8860  140.7820 C   0  0  0  0  0  0  0  0  0  0  0  0
  191.6790  177.2060  141.2650 O   0  0  0  0  0  0  0  0  0  0  0  0
  190.5150  176.1610  139.5560 N   0  0  0  0  0  1  0  0  0  0  0  0
  186.8170  178.1690  145.7340 C   0  0  0  0  0  2  0  0  0  0  0  0
  186.4900  178.4370  147.1960 C   0  0  0  0  0  2  0  0  0  0  0  0
  187.6720  178.0870  148.0800 C   0  0  0  0  0  1  0  0  0  0  0  0
  1 10  1  0  0  0  0
  1  2  1  0  0  0  0
  2 13  2  0  0  0  0
  3  6  2  0  0  0  0
  4 12  1  6  0  0  0
  4  7  1  0  0  0  0
  4  1  1  0  0  0  0
  5  9  1  0  0  0  0
  5  8  2  0  0  0  0
  7  8  1  6  0  0  0
  7 11  1  0  0  0  0
  9 12  2  0  0  0  0
 10  3  1  0  0  0  0
 11 10  1  0  0  0  0
 13  6  1  0  0  0  0
 13 23  1  0  0  0  0
 14 16  1  0  0  0  0
 14  2  1  0  0  0  0
 15 19  2  0  0  0  0
 15 18  1  0  0  0  0
 17 16  2  0  0  0  0
 18 14  2  0  0  0  0
 19 17  1  0  0  0  0
 20 21  2  0  0  0  0
 20 19  1  0  0  0  0
 22 20  1  0  0  0  0
 23 24  1  0  0  0  0
 24 25  1  0  0  0  0
M  END
>  <MODEL>
3

>  <REMARK>
 VINA RESULT:      -8.1      2.723      4.074
  Name = 
  4 active torsions:
  status: ('A' for Active; 'I' for Inactive)
    1  A    between atoms: C_2  and  C_25
    2  A    between atoms: C_3  and  C_6
    3  A    between atoms: C_13  and  C_14
    4  A    between atoms: C_14  and  C_24
                            x       y       z     vdW  Elec       q    Type
                         _______ _______ _______ _____ _____    ______ ____

>  <TORSDO>
F 4

$$$$
=
 OpenBabel10272400563D

 25 28  0  0  1  0  0  0  0  0999 V2000
  189.5130  177.6690  139.9980 N   0  0  0  0  0  0  0  0  0  0  0  0
  188.6020  177.9300  141.0820 C   0  0  0  0  0  0  0  0  0  0  0  0
  187.7450  178.1310  138.3510 C   0  0  0  0  0  3  0  0  0  0  0  0
  190.6910  176.8120  140.0160 C   0  0  1  0  0  3  0  0  0  0  0  0
  193.2550  176.4860  138.7260 C   0  0  0  0  0  3  0  0  0  0  0  0
  186.9170  178.4430  139.3520 C   0  0  0  0  0  3  0  0  0  0  0  0
  190.8670  176.5290  138.5460 C   0  0  2  0  0  3  0  0  0  0  0  0
  192.1740  176.1360  138.0160 C   0  0  0  0  0  3  0  0  0  0  0  0
  193.1230  177.2880  139.9710 C   0  0  0  0  0  3  0  0  0  0  0  0
  189.0660  177.7140  138.6790 N   0  0  0  0  0  0  0  0  0  0  0  0
  189.9340  177.0480  137.8160 N   0  0  0  0  0  2  0  0  0  0  0  0
  191.9250  177.4990  140.5420 C   0  0  0  0  0  3  0  0  0  0  0  0
  187.3440  178.3330  140.7710 C   0  0  0  0  0  0  0  0  0  0  0  0
  189.0490  177.7710  142.4820 C   0  0  0  0  0  0  0  0  0  0  0  0
  190.3500  178.5420  144.3810 C   0  0  0  0  0  3  0  0  0  0  0  0
  188.5900  176.6920  143.2480 C   0  0  0  0  0  3  0  0  0  0  0  0
  189.0090  176.5380  144.5720 C   0  0  0  0  0  3  0  0  0  0  0  0
  189.9310  178.6960  143.0570 C   0  0  0  0  0  3  0  0  0  0  0  0
  189.8920  177.4610  145.1480 C   0  0  0  0  0  0  0  0  0  0  0  0
  190.3320  177.2990  146.5450 C   0  0  0  0  0  0  0  0  0  0  0  0
  189.5280  177.5000  147.4930 O   0  0  0  0  0  0  0  0  0  0  0  0
  191.6720  176.9140  146.8380 N   0  0  0  0  0  1  0  0  0  0  0  0
  186.3430  178.7110  141.8220 C   0  0  0  0  0  2  0  0  0  0  0  0
  184.9580  178.9030  141.2210 C   0  0  0  0  0  2  0  0  0  0  0  0
  183.8870  178.4130  142.1780 C   0  0  0  0  0  1  0  0  0  0  0  0
  1  4  1  0  0  0  0
  1  2  1  0  0  0  0
  2 14  1  0  0  0  0
  3 10  1  0  0  0  0
  3  6  2  0  0  0  0
  4 12  1  6  0  0  0
  5  9  1  0  0  0  0
  6 13  1  0  0  0  0
  7  8  1  6  0  0  0
  7  4  1  0  0  0  0
  8  5  2  0  0  0  0
  9 12  2  0  0  0  0
 10  1  1  0  0  0  0
 11  7  1  0  0  0  0
 11 10  1  0  0  0  0
 13  2  2  0  0  0  0
 13 23  1  0  0  0  0
 14 18  2  0  0  0  0
 14 16  1  0  0  0  0
 15 19  2  0  0  0  0
 16 17  2  0  0  0  0
 17 19  1  0  0  0  0
 18 15  1  0  0  0  0
 19 20  1  0  0  0  0
 20 22  1  0  0  0  0
 20 21  2  0  0  0  0
 24 23  1  0  0  0  0
 24 25  1  0  0  0  0
M  END
>  <MODEL>
4

>  <REMARK>
 VINA RESULT:      -7.6      3.175      7.603
  Name = 
  4 active torsions:
  status: ('A' for Active; 'I' for Inactive)
    1  A    between atoms: C_2  and  C_25
    2  A    between atoms: C_3  and  C_6
    3  A    between atoms: C_13  and  C_14
    4  A    between atoms: C_14  and  C_24
                            x       y       z     vdW  Elec       q    Type
                         _______ _______ _______ _____ _____    ______ ____

>  <TORSDO>
F 4

$$$$
=
 OpenBabel10272400563D

 25 28  0  0  1  0  0  0  0  0999 V2000
  186.8400  178.4560  140.1920 N   0  0  0  0  0  0  0  0  0  0  0  0
  186.7520  178.3660  141.6260 C   0  0  0  0  0  0  0  0  0  0  0  0
  184.4870  179.1640  140.0550 C   0  0  0  0  0  3  0  0  0  0  0  0
  187.7370  177.7220  139.3090 C   0  0  1  0  0  3  0  0  0  0  0  0
  189.0390  177.9360  136.7400 C   0  0  0  0  0  3  0  0  0  0  0  0
  184.4230  179.1500  141.3880 C   0  0  0  0  0  3  0  0  0  0  0  0
  187.0040  177.8260  137.9970 C   0  0  2  0  0  3  0  0  0  0  0  0
  187.7240  177.6840  136.7300 C   0  0  0  0  0  3  0  0  0  0  0  0
  189.7190  178.3930  137.9810 C   0  0  0  0  0  3  0  0  0  0  0  0
  185.7150  178.7890  139.4380 N   0  0  0  0  0  0  0  0  0  0  0  0
  185.8640  178.4300  138.1000 N   0  0  0  0  0  2  0  0  0  0  0  0
  189.0970  178.3580  139.1720 C   0  0  0  0  0  3  0  0  0  0  0  0
  185.5840  178.7290  142.2140 C   0  0  0  0  0  0  0  0  0  0  0  0
  187.9150  177.9040  142.4130 C   0  0  0  0  0  0  0  0  0  0  0  0
  190.1150  178.3050  143.3600 C   0  0  0  0  0  3  0  0  0  0  0  0
  187.9210  176.6190  142.9680 C   0  0  0  0  0  3  0  0  0  0  0  0
  189.0170  176.1790  143.7140 C   0  0  0  0  0  3  0  0  0  0  0  0
  189.0180  178.7460  142.6140 C   0  0  0  0  0  3  0  0  0  0  0  0
  190.1220  177.0170  143.9150 C   0  0  0  0  0  0  0  0  0  0  0  0
  191.2770  176.5520  144.7030 C   0  0  0  0  0  0  0  0  0  0  0  0
  191.9800  175.5890  144.2940 O   0  0  0  0  0  0  0  0  0  0  0  0
  191.6120  177.1840  145.9350 N   0  0  0  0  0  1  0  0  0  0  0  0
  185.4140  178.7520  143.7050 C   0  0  0  0  0  2  0  0  0  0  0  0
  183.9420  178.8040  144.0900 C   0  0  0  0  0  2  0  0  0  0  0  0
  183.7840  178.7840  145.5990 C   0  0  0  0  0  1  0  0  0  0  0  0
  1  2  1  0  0  0  0
  2 13  2  0  0  0  0
  2 14  1  0  0  0  0
  3  6  2  0  0  0  0
  4 12  1  6  0  0  0
  4  1  1  0  0  0  0
  5  9  1  0  0  0  0
  6 13  1  0  0  0  0
  7  8  1  6  0  0  0
  7 11  1  0  0  0  0
  7  4  1  0  0  0  0
  8  5  2  0  0  0  0
  9 12  2  0  0  0  0
 10  3  1  0  0  0  0
 10  1  1  0  0  0  0
 11 10  1  0  0  0  0
 13 23  1  0  0  0  0
 14 18  2  0  0  0  0
 14 16  1  0  0  0  0
 15 19  2  0  0  0  0
 16 17  2  0  0  0  0
 17 19  1  0  0  0  0
 18 15  1  0  0  0  0
 19 20  1  0  0  0  0
 20 22  1  0  0  0  0
 21 20  2  0  0  0  0
 23 24  1  0  0  0  0
 24 25  1  0  0  0  0
M  END
>  <MODEL>
5

>  <REMARK>
 VINA RESULT:      -7.6      3.390      6.500
  Name = 
  4 active torsions:
  status: ('A' for Active; 'I' for Inactive)
    1  A    between atoms: C_2  and  C_25
    2  A    between atoms: C_3  and  C_6
    3  A    between atoms: C_13  and  C_14
    4  A    between atoms: C_14  and  C_24
                            x       y       z     vdW  Elec       q    Type
                         _______ _______ _______ _____ _____    ______ ____

>  <TORSDO>
F 4

$$$$
=
 OpenBabel10272400563D

 25 28  0  0  1  0  0  0  0  0999 V2000
  188.3890  177.4090  145.9220 N   0  0  0  0  0  0  0  0  0  0  0  0
  187.5990  177.6640  144.7460 C   0  0  0  0  0  0  0  0  0  0  0  0
  186.4840  177.9790  147.3710 C   0  0  0  0  0  3  0  0  0  0  0  0
  189.8360  177.5030  146.0570 C   0  0  1  0  0  3  0  0  0  0  0  0
  192.0290  176.4220  147.5970 C   0  0  0  0  0  3  0  0  0  0  0  0
  185.7280  178.1470  146.2830 C   0  0  0  0  0  3  0  0  0  0  0  0
  189.9800  177.6630  147.5490 C   0  0  2  0  0  3  0  0  0  0  0  0
  191.2320  177.3030  148.2170 C   0  0  0  0  0  3  0  0  0  0  0  0
  191.6210  175.8020  146.3080 C   0  0  0  0  0  3  0  0  0  0  0  0
  187.8510  177.6230  147.1900 N   0  0  0  0  0  0  0  0  0  0  0  0
  188.8440  177.7310  148.1620 N   0  0  0  0  0  2  0  0  0  0  0  0
  190.5630  176.2580  145.6170 C   0  0  0  0  0  3  0  0  0  0  0  0
  186.2940  177.9980  144.9180 C   0  0  0  0  0  0  0  0  0  0  0  0
  188.2070  177.5450  143.4030 C   0  0  0  0  0  0  0  0  0  0  0  0
  188.7910  178.5210  141.2590 C   0  0  0  0  0  3  0  0  0  0  0  0
  188.7840  176.3360  142.9990 C   0  0  0  0  0  3  0  0  0  0  0  0
  189.3610  176.2180  141.7320 C   0  0  0  0  0  3  0  0  0  0  0  0
  188.2140  178.6380  142.5260 C   0  0  0  0  0  3  0  0  0  0  0  0
  189.3690  177.3090  140.8530 C   0  0  0  0  0  0  0  0  0  0  0  0
  189.9780  177.1850  139.5170 C   0  0  0  0  0  0  0  0  0  0  0  0
  189.7320  178.0380  138.6230 O   0  0  0  0  0  0  0  0  0  0  0  0
  190.8520  176.1000  139.2210 N   0  0  0  0  0  1  0  0  0  0  0  0
  185.3630  178.2020  143.7590 C   0  0  0  0  0  2  0  0  0  0  0  0
  184.3730  179.3230  144.0400 C   0  0  0  0  0  2  0  0  0  0  0  0
  182.9490  178.8000  144.0060 C   0  0  0  0  0  1  0  0  0  0  0  0
  1  4  1  0  0  0  0
  1 10  1  0  0  0  0
  2 13  2  0  0  0  0
  2  1  1  0  0  0  0
  4 12  1  1  0  0  0
  4  7  1  0  0  0  0
  5  8  2  0  0  0  0
  6  3  2  0  0  0  0
  7 11  1  0  0  0  0
  7  8  1  1  0  0  0
  9  5  1  0  0  0  0
 10  3  1  0  0  0  0
 10 11  1  0  0  0  0
 12  9  2  0  0  0  0
 13  6  1  0  0  0  0
 14  2  1  0  0  0  0
 15 18  1  0  0  0  0
 16 14  1  0  0  0  0
 17 16  2  0  0  0  0
 18 14  2  0  0  0  0
 19 15  2  0  0  0  0
 19 17  1  0  0  0  0
 20 19  1  0  0  0  0
 21 20  2  0  0  0  0
 22 20  1  0  0  0  0
 23 24  1  0  0  0  0
 23 13  1  0  0  0  0
 25 24  1  0  0  0  0
M  END
>  <MODEL>
6

>  <REMARK>
 VINA RESULT:      -7.4      1.414      4.946
  Name = 
  4 active torsions:
  status: ('A' for Active; 'I' for Inactive)
    1  A    between atoms: C_2  and  C_25
    2  A    between atoms: C_3  and  C_6
    3  A    between atoms: C_13  and  C_14
    4  A    between atoms: C_14  and  C_24
                            x       y       z     vdW  Elec       q    Type
                         _______ _______ _______ _____ _____    ______ ____

>  <TORSDO>
F 4

$$$$
=
 OpenBabel10272400563D

 25 28  0  0  1  0  0  0  0  0999 V2000
  187.9360  177.9700  141.4540 N   0  0  0  0  0  0  0  0  0  0  0  0
  189.3170  177.5640  141.4340 C   0  0  0  0  0  0  0  0  0  0  0  0
  187.9800  178.3700  139.0270 C   0  0  0  0  0  3  0  0  0  0  0  0
  187.1950  178.5450  142.5690 C   0  0  1  0  0  3  0  0  0  0  0  0
  184.5100  178.7670  143.6120 C   0  0  0  0  0  3  0  0  0  0  0  0
  189.2400  177.9260  138.9940 C   0  0  0  0  0  3  0  0  0  0  0  0
  186.0620  179.2260  141.8460 C   0  0  2  0  0  3  0  0  0  0  0  0
  184.8040  179.5120  142.5370 C   0  0  0  0  0  3  0  0  0  0  0  0
  185.4080  177.6620  144.0410 C   0  0  0  0  0  3  0  0  0  0  0  0
  187.3170  178.4140  140.2870 N   0  0  0  0  0  0  0  0  0  0  0  0
  186.1590  179.1380  140.5590 N   0  0  0  0  0  2  0  0  0  0  0  0
  186.6350  177.5130  143.5140 C   0  0  0  0  0  3  0  0  0  0  0  0
  189.9480  177.5160  140.2340 C   0  0  0  0  0  0  0  0  0  0  0  0
  190.0020  177.2010  142.6940 C   0  0  0  0  0  0  0  0  0  0  0  0
  190.9770  177.8380  144.8240 C   0  0  0  0  0  3  0  0  0  0  0  0
  190.3240  175.8650  142.9580 C   0  0  0  0  0  3  0  0  0  0  0  0
  190.9700  175.5160  144.1470 C   0  0  0  0  0  3  0  0  0  0  0  0
  190.3310  178.1870  143.6350 C   0  0  0  0  0  3  0  0  0  0  0  0
  191.3020  176.5000  145.0880 C   0  0  0  0  0  0  0  0  0  0  0  0
  191.9820  176.1320  146.3420 C   0  0  0  0  0  0  0  0  0  0  0  0
  192.6760  175.0820  146.4050 O   0  0  0  0  0  0  0  0  0  0  0  0
  191.8620  176.9580  147.4970 N   0  0  0  0  0  1  0  0  0  0  0  0
  191.3590  177.0280  140.0910 C   0  0  0  0  0  2  0  0  0  0  0  0
  191.5630  176.3100  138.7650 C   0  0  0  0  0  2  0  0  0  0  0  0
  192.9700  176.5380  138.2440 C   0  0  0  0  0  1  0  0  0  0  0  0
  1  4  1  0  0  0  0
  2  1  1  0  0  0  0
  2 14  1  0  0  0  0
  3 10  1  0  0  0  0
  4 12  1  1  0  0  0
  5  9  1  0  0  0  0
  6  3  2  0  0  0  0
  6 13  1  0  0  0  0
  7  8  1  1  0  0  0
  7  4  1  0  0  0  0
  8  5  2  0  0  0  0
 10 11  1  0  0  0  0
 10  1  1  0  0  0  0
 11  7  1  0  0  0  0
 12  9  2  0  0  0  0
 13  2  2  0  0  0  0
 14 16  2  0  0  0  0
 14 18  1  0  0  0  0
 15 19  1  0  0  0  0
 16 17  1  0  0  0  0
 17 19  2  0  0  0  0
 18 15  2  0  0  0  0
 19 20  1  0  0  0  0
 20 21  2  0  0  0  0
 20 22  1  0  0  0  0
 23 13  1  0  0  0  0
 24 23  1  0  0  0  0
 25 24  1  0  0  0  0
M  END
>  <MODEL>
7

>  <REMARK>
 VINA RESULT:      -7.4      3.131      5.657
  Name = 
  4 active torsions:
  status: ('A' for Active; 'I' for Inactive)
    1  A    between atoms: C_2  and  C_25
    2  A    between atoms: C_3  and  C_6
    3  A    between atoms: C_13  and  C_14
    4  A    between atoms: C_14  and  C_24
                            x       y       z     vdW  Elec       q    Type
                         _______ _______ _______ _____ _____    ______ ____

>  <TORSDO>
F 4

$$$$
=
 OpenBabel10272400563D

 25 28  0  0  1  0  0  0  0  0999 V2000
  189.9070  177.0570  143.8820 N   0  0  0  0  0  0  0  0  0  0  0  0
  188.9830  177.1990  144.9770 C   0  0  0  0  0  0  0  0  0  0  0  0
  191.7200  176.4750  145.4390 C   0  0  0  0  0  3  0  0  0  0  0  0
  189.8500  177.7110  142.5810 C   0  0  1  0  0  3  0  0  0  0  0  0
  190.6760  177.3410  139.8380 C   0  0  0  0  0  3  0  0  0  0  0  0
  190.8490  176.5370  146.4500 C   0  0  0  0  0  3  0  0  0  0  0  0
  191.2870  177.6040  142.1390 C   0  0  2  0  0  3  0  0  0  0  0  0
  191.6330  177.6640  140.7180 C   0  0  0  0  0  3  0  0  0  0  0  0
  189.3360  176.8880  140.3010 C   0  0  0  0  0  3  0  0  0  0  0  0
  191.2460  176.7620  144.1270 N   0  0  0  0  0  0  0  0  0  0  0  0
  192.0520  177.0670  143.0320 N   0  0  0  0  0  2  0  0  0  0  0  0
  188.9680  176.9980  141.5880 C   0  0  0  0  0  3  0  0  0  0  0  0
  189.4310  176.9210  146.2270 C   0  0  0  0  0  0  0  0  0  0  0  0
  187.5890  177.6230  144.7210 C   0  0  0  0  0  0  0  0  0  0  0  0
  185.6260  177.6680  143.2930 C   0  0  0  0  0  3  0  0  0  0  0  0
  186.9010  178.3840  145.6730 C   0  0  0  0  0  3  0  0  0  0  0  0
  185.5840  178.7860  145.4370 C   0  0  0  0  0  3  0  0  0  0  0  0
  186.9430  177.2660  143.5290 C   0  0  0  0  0  3  0  0  0  0  0  0
  184.9370  178.4310  144.2460 C   0  0  0  0  0  0  0  0  0  0  0  0
  183.5480  178.8540  143.9990 C   0  0  0  0  0  0  0  0  0  0  0  0
  182.8330  179.2780  144.9450 O   0  0  0  0  0  0  0  0  0  0  0  0
  182.9960  178.7890  142.6860 N   0  0  0  0  0  1  0  0  0  0  0  0
  188.5300  176.9570  147.4260 C   0  0  0  0  0  2  0  0  0  0  0  0
  189.0010  177.9910  148.4380 C   0  0  0  0  0  2  0  0  0  0  0  0
  187.8580  178.4140  149.3410 C   0  0  0  0  0  1  0  0  0  0  0  0
  1 10  1  0  0  0  0
  1  2  1  0  0  0  0
  2 13  2  0  0  0  0
  3  6  2  0  0  0  0
  4 12  1  6  0  0  0
  4  1  1  0  0  0  0
  5  9  1  0  0  0  0
  5  8  2  0  0  0  0
  7  8  1  6  0  0  0
  7  4  1  0  0  0  0
  7 11  1  0  0  0  0
  9 12  2  0  0  0  0
 10  3  1  0  0  0  0
 11 10  1  0  0  0  0
 13  6  1  0  0  0  0
 13 23  1  0  0  0  0
 14  2  1  0  0  0  0
 14 16  1  0  0  0  0
 15 18  1  0  0  0  0
 15 19  2  0  0  0  0
 17 16  2  0  0  0  0
 18 14  2  0  0  0  0
 19 17  1  0  0  0  0
 20 19  1  0  0  0  0
 20 21  2  0  0  0  0
 22 20  1  0  0  0  0
 23 24  1  0  0  0  0
 24 25  1  0  0  0  0
M  END
>  <MODEL>
8

>  <REMARK>
 VINA RESULT:      -7.2      2.736      5.789
  Name = 
  4 active torsions:
  status: ('A' for Active; 'I' for Inactive)
    1  A    between atoms: C_2  and  C_25
    2  A    between atoms: C_3  and  C_6
    3  A    between atoms: C_13  and  C_14
    4  A    between atoms: C_14  and  C_24
                            x       y       z     vdW  Elec       q    Type
                         _______ _______ _______ _____ _____    ______ ____

>  <TORSDO>
F 4

$$$$
=
 OpenBabel10272400563D

 25 28  0  0  1  0  0  0  0  0999 V2000
  189.8360  177.5050  142.6290 N   0  0  0  0  0  0  0  0  0  0  0  0
  188.7470  177.7940  141.7330 C   0  0  0  0  0  0  0  0  0  0  0  0
  191.3530  177.1420  140.7260 C   0  0  0  0  0  3  0  0  0  0  0  0
  189.7550  176.9750  143.9830 C   0  0  1  0  0  3  0  0  0  0  0  0
  191.2000  176.9610  146.4840 C   0  0  0  0  0  3  0  0  0  0  0  0
  190.3640  177.4790  139.8940 C   0  0  0  0  0  3  0  0  0  0  0  0
  191.1380  176.4030  144.1560 C   0  0  2  0  0  3  0  0  0  0  0  0
  191.7020  176.2120  145.4930 C   0  0  0  0  0  3  0  0  0  0  0  0
  190.1520  177.9800  146.2140 C   0  0  0  0  0  3  0  0  0  0  0  0
  191.0810  177.1330  142.1240 N   0  0  0  0  0  0  0  0  0  0  0  0
  191.8640  176.5040  143.0890 N   0  0  0  0  0  2  0  0  0  0  0  0
  189.5200  178.0350  145.0290 C   0  0  0  0  0  3  0  0  0  0  0  0
  189.0060  177.8090  140.4010 C   0  0  0  0  0  0  0  0  0  0  0  0
  187.3980  178.0770  142.2710 C   0  0  0  0  0  0  0  0  0  0  0  0
  185.2960  179.2860  142.1630 C   0  0  0  0  0  3  0  0  0  0  0  0
  186.9390  177.3980  143.4050 C   0  0  0  0  0  3  0  0  0  0  0  0
  185.6650  177.6620  143.9170 C   0  0  0  0  0  3  0  0  0  0  0  0
  186.5690  179.0230  141.6520 C   0  0  0  0  0  3  0  0  0  0  0  0
  184.8350  178.6070  143.3000 C   0  0  0  0  0  0  0  0  0  0  0  0
  183.4920  178.8830  143.8400 C   0  0  0  0  0  0  0  0  0  0  0  0
  182.4950  178.9360  143.0710 O   0  0  0  0  0  0  0  0  0  0  0  0
  183.3050  179.0950  145.2360 N   0  0  0  0  0  1  0  0  0  0  0  0
  187.9640  178.1790  139.3870 C   0  0  0  0  0  2  0  0  0  0  0  0
  188.3240  177.6470  138.0080 C   0  0  0  0  0  2  0  0  0  0  0  0
  188.4580  178.7860  137.0140 C   0  0  0  0  0  1  0  0  0  0  0  0
  1  4  1  0  0  0  0
  2 14  1  0  0  0  0
  2  1  1  0  0  0  0
  3 10  1  0  0  0  0
  4  7  1  0  0  0  0
  4 12  1  1  0  0  0
  6 13  1  0  0  0  0
  6  3  2  0  0  0  0
  7  8  1  1  0  0  0
  8  5  2  0  0  0  0
  9  5  1  0  0  0  0
 10  1  1  0  0  0  0
 10 11  1  0  0  0  0
 11  7  1  0  0  0  0
 12  9  2  0  0  0  0
 13  2  2  0  0  0  0
 14 16  1  0  0  0  0
 15 19  2  0  0  0  0
 16 17  2  0  0  0  0
 18 15  1  0  0  0  0
 18 14  2  0  0  0  0
 19 20  1  0  0  0  0
 19 17  1  0  0  0  0
 20 22  1  0  0  0  0
 21 20  2  0  0  0  0
 23 13  1  0  0  0  0
 24 23  1  0  0  0  0
 25 24  1  0  0  0  0
M  END
>  <MODEL>
9

>  <REMARK>
 VINA RESULT:      -7.1      2.780      7.088
  Name = 
  4 active torsions:
  status: ('A' for Active; 'I' for Inactive)
    1  A    between atoms: C_2  and  C_25
    2  A    between atoms: C_3  and  C_6
    3  A    between atoms: C_13  and  C_14
    4  A    between atoms: C_14  and  C_24
                            x       y       z     vdW  Elec       q    Type
                         _______ _______ _______ _____ _____    ______ ____

>  <TORSDO>
F 4

$$$$
