=
 OpenBabel10272401143D

 27 31  0  0  1  0  0  0  0  0999 V2000
  189.2490  178.6880  143.6870 C   0  0  0  0  0  2  0  0  0  0  0  0
  190.3860  177.1130  142.2870 C   0  0  1  0  0  3  0  0  0  0  0  0
  191.9700  177.7570  144.1880 C   0  0  0  0  0  2  0  0  0  0  0  0
  190.5410  176.6160  140.0240 C   0  0  1  0  0  3  0  0  0  0  0  0
  190.2140  176.1100  141.3060 O   0  0  0  0  0  0  0  0  0  0  0  0
  186.0180  178.6200  141.4950 C   0  0  0  0  0  2  0  0  0  0  0  0
  188.0740  177.5940  141.9010 C   0  0  1  0  0  3  0  0  0  0  0  0
  190.3200  177.2330  147.6710 C   0  0  0  0  0  2  0  0  0  0  0  0
  188.2140  178.8560  141.0450 C   0  0  2  0  0  3  0  0  0  0  0  0
  189.0040  176.9230  147.0450 C   0  0  0  0  0  0  0  0  0  0  0  0
  189.1050  177.4360  142.9380 N   0  0  2  0  0  0  0  0  0  0  0  0
  189.3880  177.3090  139.2810 C   0  0  2  0  0  3  0  0  0  0  0  0
  189.6130  178.4230  145.1440 C   0  0  1  0  0  3  0  0  0  0  0  0
  191.4320  176.6260  143.3010 C   0  0  1  0  0  3  0  0  0  0  0  0
  191.3950  177.1680  146.5910 C   0  0  0  0  0  2  0  0  0  0  0  0
  191.8890  177.3310  139.9140 C   0  0  0  0  0  1  0  0  0  0  0  0
  188.1650  176.2040  147.6460 O   0  0  0  0  0  0  0  0  0  0  0  0
  186.8610  179.2250  140.7450 N   0  0  0  0  0  2  0  0  0  0  0  0
  188.7110  177.4490  145.7530 N   0  0  0  0  0  2  0  0  0  0  0  0
  189.0660  178.7280  139.7760 C   0  0  0  0  0  2  0  0  0  0  0  0
  191.1110  178.1140  145.4100 C   0  0  1  0  0  3  0  0  0  0  0  0
  186.6610  177.6810  142.4580 C   0  0  0  0  0  2  0  0  0  0  0  0
  191.3880  174.2330  143.3550 O   0  0  0  0  0  0  0  0  0  0  0  0
  192.1780  174.5810  144.4630 C   0  0  0  0  0  2  0  0  0  0  0  0
  190.9960  175.3790  144.0700 C   0  0  1  0  0  3  0  0  0  0  0  0
  187.8630  176.5200  137.8830 C   0  0  0  0  0  1  0  0  0  0  0  0
  188.2490  176.5000  139.2240 O   0  0  0  0  0  0  0  0  0  0  0  0
  2  5  1  6  0  0  0
  2 11  1  0  0  0  0
  2 14  1  0  0  0  0
  4 16  1  1  0  0  0
  4  5  1  0  0  0  0
  6 22  1  0  0  0  0
  7 22  1  1  0  0  0
  7 11  1  0  0  0  0
  9 20  1  6  0  0  0
  9  7  1  0  0  0  0
 10 17  2  0  0  0  0
 10  8  1  0  0  0  0
 11  1  1  6  0  0  0
 12 27  1  1  0  0  0
 12 20  1  0  0  0  0
 12  4  1  0  0  0  0
 13  1  1  6  0  0  0
 13 21  1  0  0  0  0
 13 19  1  0  0  0  0
 14 25  1  0  0  0  0
 14  3  1  1  0  0  0
 15  8  1  0  0  0  0
 18  9  1  0  0  0  0
 18  6  1  0  0  0  0
 19 10  1  0  0  0  0
 21  3  1  6  0  0  0
 21 15  1  0  0  0  0
 23 25  1  0  0  0  0
 23 24  1  0  0  0  0
 25 24  1  1  0  0  0
 26 27  1  0  0  0  0
M  END
>  <MODEL>
1

>  <REMARK>
 VINA RESULT:      -5.0      0.000      0.000
  Name = 
  2 active torsions:
  status: ('A' for Active; 'I' for Inactive)
    1  A    between atoms: C_14  and  C_19
    2  A    between atoms: O_16  and  C_17
                            x       y       z     vdW  Elec       q    Type
                         _______ _______ _______ _____ _____    ______ ____

>  <TORSDO>
F 2

$$$$
=
 OpenBabel10272401143D

 27 31  0  0  1  0  0  0  0  0999 V2000
  184.8750  178.5730  138.0550 C   0  0  0  0  0  2  0  0  0  0  0  0
  184.1730  176.3680  137.4360 C   0  0  1  0  0  3  0  0  0  0  0  0
  185.8990  177.1510  135.7200 C   0  0  0  0  0  2  0  0  0  0  0  0
  182.2190  175.1150  137.4480 C   0  0  1  0  0  3  0  0  0  0  0  0
  183.5590  175.1830  137.8990 O   0  0  0  0  0  0  0  0  0  0  0  0
  182.5370  178.6650  141.1820 C   0  0  0  0  0  2  0  0  0  0  0  0
  183.4410  177.3100  139.5110 C   0  0  1  0  0  3  0  0  0  0  0  0
  189.1970  178.3110  137.4250 C   0  0  0  0  0  2  0  0  0  0  0  0
  182.2390  178.1190  139.0160 C   0  0  2  0  0  3  0  0  0  0  0  0
  188.5870  178.1840  138.7790 C   0  0  0  0  0  0  0  0  0  0  0  0
  184.5640  177.2320  138.5630 N   0  0  2  0  0  0  0  0  0  0  0  0
  181.1880  175.8060  138.3550 C   0  0  2  0  0  3  0  0  0  0  0  0
  186.3670  178.7240  137.7740 C   0  0  1  0  0  3  0  0  0  0  0  0
  185.3820  175.9830  136.5700 C   0  0  1  0  0  3  0  0  0  0  0  0
  188.2990  177.5910  136.4240 C   0  0  0  0  0  2  0  0  0  0  0  0
  182.0060  175.3490  135.9520 C   0  0  0  0  0  1  0  0  0  0  0  0
  189.3090  177.9710  139.7870 O   0  0  0  0  0  0  0  0  0  0  0  0
  181.7130  178.7230  140.2040 N   0  0  0  0  0  2  0  0  0  0  0  0
  187.1730  178.3020  138.9160 N   0  0  0  0  0  2  0  0  0  0  0  0
  181.1640  177.3390  138.2470 C   0  0  0  0  0  2  0  0  0  0  0  0
  186.8540  178.1230  136.4280 C   0  0  1  0  0  3  0  0  0  0  0  0
  183.8080  177.9660  140.8330 C   0  0  0  0  0  2  0  0  0  0  0  0
  186.1130  173.8860  137.4620 O   0  0  0  0  0  0  0  0  0  0  0  0
  187.0820  174.1970  136.4930 C   0  0  0  0  0  2  0  0  0  0  0  0
  186.4700  175.2410  137.3440 C   0  0  1  0  0  3  0  0  0  0  0  0
  179.9870  175.4050  140.1710 C   0  0  0  0  0  1  0  0  0  0  0  0
  181.2930  175.3740  139.6800 O   0  0  0  0  0  0  0  0  0  0  0  0
  2  5  1  1  0  0  0
  2 11  1  0  0  0  0
  4 16  1  6  0  0  0
  4  5  1  0  0  0  0
  4 12  1  0  0  0  0
  7 22  1  1  0  0  0
  8 10  1  0  0  0  0
  9 20  1  1  0  0  0
  9  7  1  0  0  0  0
  9 18  1  0  0  0  0
 10 19  1  0  0  0  0
 10 17  2  0  0  0  0
 11  1  1  6  0  0  0
 11  7  1  0  0  0  0
 12 27  1  1  0  0  0
 13  1  1  1  0  0  0
 13 19  1  0  0  0  0
 14  3  1  1  0  0  0
 14 25  1  0  0  0  0
 14  2  1  0  0  0  0
 15 21  1  0  0  0  0
 15  8  1  0  0  0  0
 18  6  1  0  0  0  0
 20 12  1  0  0  0  0
 21  3  1  1  0  0  0
 21 13  1  0  0  0  0
 22  6  1  0  0  0  0
 24 23  1  0  0  0  0
 25 24  1  6  0  0  0
 25 23  1  0  0  0  0
 27 26  1  0  0  0  0
M  END
>  <MODEL>
2

>  <REMARK>
 VINA RESULT:      -4.9      5.330      8.070
  Name = 
  2 active torsions:
  status: ('A' for Active; 'I' for Inactive)
    1  A    between atoms: C_14  and  C_19
    2  A    between atoms: O_16  and  C_17
                            x       y       z     vdW  Elec       q    Type
                         _______ _______ _______ _____ _____    ______ ____

>  <TORSDO>
F 2

$$$$
=
 OpenBabel10272401143D

 27 31  0  0  1  0  0  0  0  0999 V2000
  192.5200  176.8540  137.6820 C   0  0  0  0  0  2  0  0  0  0  0  0
  190.9300  175.8510  136.1980 C   0  0  1  0  0  3  0  0  0  0  0  0
  193.1950  175.8840  135.0130 C   0  0  0  0  0  2  0  0  0  0  0  0
  188.6960  176.1210  135.6270 C   0  0  1  0  0  3  0  0  0  0  0  0
  189.6690  175.2170  136.1190 O   0  0  0  0  0  0  0  0  0  0  0  0
  189.8600  177.4160  140.4860 C   0  0  0  0  0  2  0  0  0  0  0  0
  190.2950  176.3700  138.4470 C   0  0  1  0  0  3  0  0  0  0  0  0
  195.9680  174.2120  137.1680 C   0  0  0  0  0  2  0  0  0  0  0  0
  189.9220  177.8440  138.2740 C   0  0  2  0  0  3  0  0  0  0  0  0
  195.0440  174.0870  138.3310 C   0  0  0  0  0  0  0  0  0  0  0  0
  191.4010  175.9100  137.5920 N   0  0  2  0  0  0  0  0  0  0  0  0
  188.0090  176.9870  136.6950 C   0  0  2  0  0  3  0  0  0  0  0  0
  193.8600  176.1390  137.5450 C   0  0  1  0  0  3  0  0  0  0  0  0
  191.9140  175.0890  135.2980 C   0  0  1  0  0  3  0  0  0  0  0  0
  195.1400  174.5310  135.9270 C   0  0  0  0  0  2  0  0  0  0  0  0
  189.0670  176.8690  134.3460 C   0  0  0  0  0  1  0  0  0  0  0  0
  195.2210  173.1890  139.1940 O   0  0  0  0  0  0  0  0  0  0  0  0
  189.5090  178.2540  139.5840 N   0  0  0  0  0  2  0  0  0  0  0  0
  193.9530  174.9960  138.4490 N   0  0  0  0  0  2  0  0  0  0  0  0
  188.8570  178.1590  137.2150 C   0  0  0  0  0  2  0  0  0  0  0  0
  194.2870  175.8010  136.0900 C   0  0  1  0  0  3  0  0  0  0  0  0
  190.5800  176.2320  139.9340 C   0  0  0  0  0  2  0  0  0  0  0  0
  191.0460  172.8600  135.3950 O   0  0  0  0  0  0  0  0  0  0  0  0
  192.1830  172.7440  134.5770 C   0  0  0  0  0  2  0  0  0  0  0  0
  192.1560  173.6490  135.7470 C   0  0  1  0  0  3  0  0  0  0  0  0
  186.4380  175.4980  137.1610 C   0  0  0  0  0  1  0  0  0  0  0  0
  187.4900  176.2100  137.7360 O   0  0  0  0  0  0  0  0  0  0  0  0
  2  5  1  1  0  0  0
  2 11  1  0  0  0  0
  4 16  1  6  0  0  0
  4  5  1  0  0  0  0
  4 12  1  0  0  0  0
  7 22  1  1  0  0  0
  8 10  1  0  0  0  0
  9 20  1  6  0  0  0
  9  7  1  0  0  0  0
  9 18  1  0  0  0  0
 10 19  1  0  0  0  0
 10 17  2  0  0  0  0
 11  1  1  6  0  0  0
 11  7  1  0  0  0  0
 12 20  1  0  0  0  0
 12 27  1  1  0  0  0
 13  1  1  6  0  0  0
 13 19  1  0  0  0  0
 14  3  1  1  0  0  0
 14 25  1  0  0  0  0
 14  2  1  0  0  0  0
 15 21  1  0  0  0  0
 15  8  1  0  0  0  0
 18  6  1  0  0  0  0
 21  3  1  6  0  0  0
 21 13  1  0  0  0  0
 22  6  1  0  0  0  0
 23 25  1  0  0  0  0
 24 23  1  0  0  0  0
 25 24  1  6  0  0  0
 26 27  1  0  0  0  0
M  END
>  <MODEL>
3

>  <REMARK>
 VINA RESULT:      -4.8      4.472      7.505
  Name = 
  2 active torsions:
  status: ('A' for Active; 'I' for Inactive)
    1  A    between atoms: C_14  and  C_19
    2  A    between atoms: O_16  and  C_17
                            x       y       z     vdW  Elec       q    Type
                         _______ _______ _______ _____ _____    ______ ____

>  <TORSDO>
F 2

$$$$
=
 OpenBabel10272401143D

 27 31  0  0  1  0  0  0  0  0999 V2000
  185.5540  177.5300  136.2820 C   0  0  0  0  0  2  0  0  0  0  0  0
  184.5300  175.4350  136.8260 C   0  0  1  0  0  3  0  0  0  0  0  0
  186.0630  175.0570  134.8160 C   0  0  0  0  0  2  0  0  0  0  0  0
  182.4710  174.6660  137.5770 C   0  0  1  0  0  3  0  0  0  0  0  0
  183.8630  174.7080  137.8390 O   0  0  0  0  0  0  0  0  0  0  0  0
  183.7200  179.4150  139.1690 C   0  0  0  0  0  2  0  0  0  0  0  0
  184.2150  177.3220  138.2660 C   0  0  1  0  0  3  0  0  0  0  0  0
  189.6820  176.3010  135.5170 C   0  0  0  0  0  2  0  0  0  0  0  0
  183.0510  178.0040  137.5430 C   0  0  2  0  0  3  0  0  0  0  0  0
  189.2650  176.9040  136.8140 C   0  0  0  0  0  0  0  0  0  0  0  0
  185.1730  176.6380  137.3820 N   0  0  2  0  0  0  0  0  0  0  0  0
  181.6670  175.8530  138.1290 C   0  0  2  0  0  3  0  0  0  0  0  0
  186.9960  177.2890  135.8480 C   0  0  1  0  0  3  0  0  0  0  0  0
  185.5490  174.5050  136.1520 C   0  0  1  0  0  3  0  0  0  0  0  0
  188.5740  175.3650  135.0440 C   0  0  0  0  0  2  0  0  0  0  0  0
  182.0710  174.2280  136.1680 C   0  0  0  0  0  1  0  0  0  0  0  0
  190.0980  177.0550  137.7450 O   0  0  0  0  0  0  0  0  0  0  0  0
  182.7730  179.1590  138.3450 N   0  0  0  0  0  2  0  0  0  0  0  0
  187.9080  177.3030  136.9880 N   0  0  0  0  0  2  0  0  0  0  0  0
  181.7960  177.1510  137.3160 C   0  0  0  0  0  2  0  0  0  0  0  0
  187.2130  176.0710  134.9090 C   0  0  1  0  0  3  0  0  0  0  0  0
  184.8410  178.4340  139.0920 C   0  0  0  0  0  2  0  0  0  0  0  0
  186.1540  172.9770  137.8940 O   0  0  0  0  0  0  0  0  0  0  0  0
  186.9840  172.6110  136.8200 C   0  0  0  0  0  2  0  0  0  0  0  0
  186.6500  174.0260  137.0980 C   0  0  1  0  0  3  0  0  0  0  0  0
  180.7050  176.5230  140.0080 C   0  0  0  0  0  1  0  0  0  0  0  0
  181.9140  176.0580  139.4900 O   0  0  0  0  0  0  0  0  0  0  0  0
  2 11  1  0  0  0  0
  2  5  1  1  0  0  0
  4 16  1  6  0  0  0
  4  5  1  0  0  0  0
  4 12  1  0  0  0  0
  7 22  1  6  0  0  0
  8 10  1  0  0  0  0
  9 20  1  1  0  0  0
  9  7  1  0  0  0  0
  9 18  1  0  0  0  0
 10 19  1  0  0  0  0
 10 17  2  0  0  0  0
 11  1  1  6  0  0  0
 11  7  1  0  0  0  0
 12 27  1  1  0  0  0
 13  1  1  1  0  0  0
 13 19  1  0  0  0  0
 14  3  1  6  0  0  0
 14  2  1  0  0  0  0
 14 25  1  0  0  0  0
 15  8  1  0  0  0  0
 18  6  1  0  0  0  0
 20 12  1  0  0  0  0
 21  3  1  1  0  0  0
 21 15  1  0  0  0  0
 21 13  1  0  0  0  0
 22  6  1  0  0  0  0
 24 23  1  0  0  0  0
 25 24  1  6  0  0  0
 25 23  1  0  0  0  0
 27 26  1  0  0  0  0
M  END
>  <MODEL>
4

>  <REMARK>
 VINA RESULT:      -4.7      6.501      8.629
  Name = 
  2 active torsions:
  status: ('A' for Active; 'I' for Inactive)
    1  A    between atoms: C_14  and  C_19
    2  A    between atoms: O_16  and  C_17
                            x       y       z     vdW  Elec       q    Type
                         _______ _______ _______ _____ _____    ______ ____

>  <TORSDO>
F 2

$$$$
=
 OpenBabel10272401143D

 27 31  0  0  1  0  0  0  0  0999 V2000
  187.4230  175.3220  135.0260 C   0  0  0  0  0  2  0  0  0  0  0  0
  187.4350  176.9450  136.7880 C   0  0  1  0  0  3  0  0  0  0  0  0
  185.6800  177.6640  135.0730 C   0  0  0  0  0  2  0  0  0  0  0  0
  188.9870  177.9670  138.1790 C   0  0  1  0  0  3  0  0  0  0  0  0
  187.8070  177.1850  138.1300 O   0  0  0  0  0  0  0  0  0  0  0  0
  190.2290  173.1810  136.6980 C   0  0  0  0  0  2  0  0  0  0  0  0
  188.7350  174.9470  137.0030 C   0  0  1  0  0  3  0  0  0  0  0  0
  183.1310  174.8170  134.3460 C   0  0  0  0  0  2  0  0  0  0  0  0
  189.9920  175.3750  136.2420 C   0  0  2  0  0  3  0  0  0  0  0  0
  183.9210  173.8490  135.1580 C   0  0  0  0  0  0  0  0  0  0  0  0
  187.4780  175.5050  136.4800 N   0  0  2  0  0  0  0  0  0  0  0  0
  190.3010  177.1710  138.1300 C   0  0  2  0  0  3  0  0  0  0  0  0
  185.9910  175.1060  134.5500 C   0  0  1  0  0  3  0  0  0  0  0  0
  186.0340  177.5330  136.5600 C   0  0  1  0  0  3  0  0  0  0  0  0
  183.6290  176.2250  134.6570 C   0  0  0  0  0  2  0  0  0  0  0  0
  188.9810  179.2370  137.3280 C   0  0  0  0  0  1  0  0  0  0  0  0
  183.3600  172.8600  135.6970 O   0  0  0  0  0  0  0  0  0  0  0  0
  190.8540  174.2330  136.3230 N   0  0  0  0  0  2  0  0  0  0  0  0
  185.3210  174.0620  135.3210 N   0  0  0  0  0  2  0  0  0  0  0  0
  190.6860  176.6520  136.7360 C   0  0  0  0  0  2  0  0  0  0  0  0
  185.1380  176.3950  134.4000 C   0  0  1  0  0  3  0  0  0  0  0  0
  188.7830  173.4270  136.9710 C   0  0  0  0  0  2  0  0  0  0  0  0
  184.8770  177.5050  138.6560 O   0  0  0  0  0  0  0  0  0  0  0  0
  183.8780  177.8320  137.7230 C   0  0  0  0  0  2  0  0  0  0  0  0
  184.9510  176.8640  137.4060 C   0  0  1  0  0  3  0  0  0  0  0  0
  190.4840  176.8290  140.3100 C   0  0  0  0  0  1  0  0  0  0  0  0
  190.3300  176.1600  139.0950 O   0  0  0  0  0  0  0  0  0  0  0  0
  2  5  1  1  0  0  0
  4 16  1  6  0  0  0
  5  4  1  0  0  0  0
  6 22  1  0  0  0  0
  7 22  1  6  0  0  0
  8 15  1  0  0  0  0
  8 10  1  0  0  0  0
  9 18  1  0  0  0  0
  9 20  1  1  0  0  0
  9  7  1  0  0  0  0
 10 19  1  0  0  0  0
 10 17  2  0  0  0  0
 11  1  1  6  0  0  0
 11  2  1  0  0  0  0
 11  7  1  0  0  0  0
 12  4  1  0  0  0  0
 12 27  1  1  0  0  0
 13  1  1  1  0  0  0
 13 19  1  0  0  0  0
 14  3  1  6  0  0  0
 14  2  1  0  0  0  0
 14 25  1  0  0  0  0
 18  6  1  0  0  0  0
 20 12  1  0  0  0  0
 21 13  1  0  0  0  0
 21 15  1  1  0  0  0
 21  3  1  0  0  0  0
 24 23  1  0  0  0  0
 25 24  1  6  0  0  0
 25 23  1  0  0  0  0
 27 26  1  0  0  0  0
M  END
>  <MODEL>
5

>  <REMARK>
 VINA RESULT:      -4.6      4.843      9.049
  Name = 
  2 active torsions:
  status: ('A' for Active; 'I' for Inactive)
    1  A    between atoms: C_14  and  C_19
    2  A    between atoms: O_16  and  C_17
                            x       y       z     vdW  Elec       q    Type
                         _______ _______ _______ _____ _____    ______ ____

>  <TORSDO>
F 2

$$$$
=
 OpenBabel10272401143D

 27 31  0  0  1  0  0  0  0  0999 V2000
  187.2370  176.9260  142.9980 C   0  0  0  0  0  2  0  0  0  0  0  0
  188.4570  177.7560  144.8840 C   0  0  1  0  0  3  0  0  0  0  0  0
  189.9970  176.1790  143.5890 C   0  0  0  0  0  2  0  0  0  0  0  0
  188.0400  178.3010  147.1020 C   0  0  1  0  0  3  0  0  0  0  0  0
  188.5170  178.7800  145.8570 O   0  0  0  0  0  0  0  0  0  0  0  0
  184.0250  178.9450  143.9230 C   0  0  0  0  0  2  0  0  0  0  0  0
  186.2930  178.6470  144.3830 C   0  0  1  0  0  3  0  0  0  0  0  0
  190.2520  177.1800  139.8380 C   0  0  0  0  0  2  0  0  0  0  0  0
  185.4180  177.5990  145.0750 C   0  0  2  0  0  3  0  0  0  0  0  0
  189.1900  178.2130  140.0010 C   0  0  0  0  0  0  0  0  0  0  0  0
  187.5350  178.1210  143.7950 N   0  0  2  0  0  0  0  0  0  0  0  0
  186.5220  178.4200  147.3100 C   0  0  2  0  0  3  0  0  0  0  0  0
  188.1750  176.8120  141.8010 C   0  0  1  0  0  3  0  0  0  0  0  0
  189.8790  177.4980  144.3620 C   0  0  1  0  0  3  0  0  0  0  0  0
  190.7260  176.7540  141.2250 C   0  0  0  0  0  2  0  0  0  0  0  0
  188.6470  176.9840  147.5870 C   0  0  0  0  0  1  0  0  0  0  0  0
  189.1490  179.2120  139.2380 O   0  0  0  0  0  0  0  0  0  0  0  0
  184.0790  178.0540  144.8410 N   0  0  0  0  0  2  0  0  0  0  0  0
  188.2250  178.0560  141.0390 N   0  0  0  0  0  2  0  0  0  0  0  0
  185.6880  177.3640  146.5680 C   0  0  0  0  0  2  0  0  0  0  0  0
  189.5810  176.2300  142.1110 C   0  0  1  0  0  3  0  0  0  0  0  0
  185.3640  179.2880  143.3640 C   0  0  0  0  0  2  0  0  0  0  0  0
  190.9310  179.6360  144.6010 O   0  0  0  0  0  0  0  0  0  0  0  0
  191.9190  178.8380  143.9990 C   0  0  0  0  0  2  0  0  0  0  0  0
  190.4890  178.7020  143.6460 C   0  0  1  0  0  3  0  0  0  0  0  0
  186.3570  180.4270  148.2310 C   0  0  0  0  0  1  0  0  0  0  0  0
  186.0660  179.7190  147.0650 O   0  0  0  0  0  0  0  0  0  0  0  0
  2  5  1  1  0  0  0
  4 12  1  0  0  0  0
  4 16  1  6  0  0  0
  5  4  1  0  0  0  0
  6 18  1  0  0  0  0
  7 22  1  6  0  0  0
  7  9  1  0  0  0  0
  8 10  1  0  0  0  0
  8 15  1  0  0  0  0
  9 20  1  1  0  0  0
 10 19  1  0  0  0  0
 11  1  1  1  0  0  0
 11  7  1  0  0  0  0
 11  2  1  0  0  0  0
 12 27  1  6  0  0  0
 13 21  1  0  0  0  0
 13  1  1  1  0  0  0
 14  3  1  6  0  0  0
 14  2  1  0  0  0  0
 17 10  2  0  0  0  0
 18  9  1  0  0  0  0
 19 13  1  0  0  0  0
 20 12  1  0  0  0  0
 21 15  1  6  0  0  0
 21  3  1  0  0  0  0
 22  6  1  0  0  0  0
 24 23  1  0  0  0  0
 25 24  1  1  0  0  0
 25 14  1  0  0  0  0
 25 23  1  0  0  0  0
 27 26  1  0  0  0  0
M  END
>  <MODEL>
6

>  <REMARK>
 VINA RESULT:      -4.5      2.534      5.911
  Name = 
  2 active torsions:
  status: ('A' for Active; 'I' for Inactive)
    1  A    between atoms: C_14  and  C_19
    2  A    between atoms: O_16  and  C_17
                            x       y       z     vdW  Elec       q    Type
                         _______ _______ _______ _____ _____    ______ ____

>  <TORSDO>
F 2

$$$$
=
 OpenBabel10272401143D

 27 31  0  0  1  0  0  0  0  0999 V2000
  188.8410  178.8340  141.3540 C   0  0  0  0  0  2  0  0  0  0  0  0
  190.3900  177.1100  140.7500 C   0  0  1  0  0  3  0  0  0  0  0  0
  191.2120  178.1740  142.9240 C   0  0  0  0  0  2  0  0  0  0  0  0
  191.3240  176.2330  138.8130 C   0  0  1  0  0  3  0  0  0  0  0  0
  190.5670  175.9410  139.9740 O   0  0  0  0  0  0  0  0  0  0  0  0
  186.5790  178.1830  138.2380 C   0  0  0  0  0  2  0  0  0  0  0  0
  188.3600  177.3730  139.5090 C   0  0  1  0  0  3  0  0  0  0  0  0
  188.4480  178.1710  145.6600 C   0  0  0  0  0  2  0  0  0  0  0  0
  188.7950  178.4710  138.5350 C   0  0  2  0  0  3  0  0  0  0  0  0
  187.4320  177.6750  144.6890 C   0  0  0  0  0  0  0  0  0  0  0  0
  188.9630  177.4630  140.8480 N   0  0  2  0  0  0  0  0  0  0  0  0
  190.5050  176.7120  137.6030 C   0  0  2  0  0  3  0  0  0  0  0  0
  188.6720  178.8510  142.8690 C   0  0  1  0  0  3  0  0  0  0  0  0
  191.0130  176.8740  142.1330 C   0  0  1  0  0  3  0  0  0  0  0  0
  189.8320  177.9830  145.0470 C   0  0  0  0  0  2  0  0  0  0  0  0
  192.6270  176.9990  139.0410 C   0  0  0  0  0  1  0  0  0  0  0  0
  186.4330  177.0220  145.0870 O   0  0  0  0  0  0  0  0  0  0  0  0
  187.6340  178.6970  137.7250 N   0  0  0  0  0  2  0  0  0  0  0  0
  187.6110  177.9460  143.3010 N   0  0  0  0  0  2  0  0  0  0  0  0
  190.0360  178.1740  137.6830 C   0  0  0  0  0  2  0  0  0  0  0  0
  189.9820  178.6870  143.6860 C   0  0  1  0  0  3  0  0  0  0  0  0
  186.8420  177.4680  139.5200 C   0  0  0  0  0  2  0  0  0  0  0  0
  191.1030  174.5850  142.8270 O   0  0  0  0  0  0  0  0  0  0  0  0
  191.2050  175.3060  144.0290 C   0  0  0  0  0  2  0  0  0  0  0  0
  190.3320  175.7580  142.9230 C   0  0  1  0  0  3  0  0  0  0  0  0
  189.3190  175.8940  135.9220 C   0  0  0  0  0  1  0  0  0  0  0  0
  189.4550  175.8370  137.3100 O   0  0  0  0  0  0  0  0  0  0  0  0
  2  5  1  6  0  0  0
  2 11  1  0  0  0  0
  2 14  1  0  0  0  0
  4 16  1  1  0  0  0
  4  5  1  0  0  0  0
  6 22  1  0  0  0  0
  7 22  1  1  0  0  0
  7 11  1  0  0  0  0
  9 20  1  6  0  0  0
  9  7  1  0  0  0  0
 10 17  2  0  0  0  0
 10  8  1  0  0  0  0
 11  1  1  6  0  0  0
 12 27  1  1  0  0  0
 12 20  1  0  0  0  0
 12  4  1  0  0  0  0
 13  1  1  6  0  0  0
 13 19  1  0  0  0  0
 13 21  1  0  0  0  0
 14 25  1  0  0  0  0
 14  3  1  1  0  0  0
 15  8  1  0  0  0  0
 18  6  1  0  0  0  0
 18  9  1  0  0  0  0
 19 10  1  0  0  0  0
 21  3  1  6  0  0  0
 21 15  1  0  0  0  0
 23 25  1  0  0  0  0
 23 24  1  0  0  0  0
 25 24  1  1  0  0  0
 26 27  1  0  0  0  0
M  END
>  <MODEL>
7

>  <REMARK>
 VINA RESULT:      -4.3      1.769      2.288
  Name = 
  2 active torsions:
  status: ('A' for Active; 'I' for Inactive)
    1  A    between atoms: C_14  and  C_19
    2  A    between atoms: O_16  and  C_17
                            x       y       z     vdW  Elec       q    Type
                         _______ _______ _______ _____ _____    ______ ____

>  <TORSDO>
F 2

$$$$
=
 OpenBabel10272401143D

 27 31  0  0  1  0  0  0  0  0999 V2000
  189.4920  175.4500  135.2290 C   0  0  0  0  0  2  0  0  0  0  0  0
  190.9990  175.9080  137.0330 C   0  0  1  0  0  3  0  0  0  0  0  0
  189.5890  178.0040  136.6390 C   0  0  0  0  0  2  0  0  0  0  0  0
  193.1870  175.4030  137.6220 C   0  0  1  0  0  3  0  0  0  0  0  0
  191.8290  175.3240  138.0160 O   0  0  0  0  0  0  0  0  0  0  0  0
  190.8320  171.8120  134.7580 C   0  0  0  0  0  2  0  0  0  0  0  0
  190.8550  173.6930  136.1380 C   0  0  1  0  0  3  0  0  0  0  0  0
  185.7820  177.2130  136.7320 C   0  0  0  0  0  2  0  0  0  0  0  0
  191.8130  173.8320  134.9530 C   0  0  2  0  0  3  0  0  0  0  0  0
  186.0480  175.7490  136.8090 C   0  0  0  0  0  0  0  0  0  0  0  0
  190.0860  174.9070  136.4550 N   0  0  2  0  0  0  0  0  0  0  0  0
  193.6830  174.2390  136.7490 C   0  0  2  0  0  3  0  0  0  0  0  0
  188.1490  176.1140  135.5120 C   0  0  1  0  0  3  0  0  0  0  0  0
  190.2310  177.0730  137.6760 C   0  0  1  0  0  3  0  0  0  0  0  0
  187.0810  177.9550  137.0320 C   0  0  0  0  0  2  0  0  0  0  0  0
  193.6730  176.7830  137.1770 C   0  0  0  0  0  1  0  0  0  0  0  0
  185.2100  174.9750  137.3390 O   0  0  0  0  0  0  0  0  0  0  0  0
  191.8070  172.5330  134.3460 N   0  0  0  0  0  2  0  0  0  0  0  0
  187.2690  175.2380  136.2800 N   0  0  0  0  0  2  0  0  0  0  0  0
  193.2360  174.3030  135.2800 C   0  0  0  0  0  2  0  0  0  0  0  0
  188.2280  177.5540  136.0880 C   0  0  1  0  0  3  0  0  0  0  0  0
  189.9830  172.5020  135.7710 C   0  0  0  0  0  2  0  0  0  0  0  0
  190.0370  176.3430  139.9470 O   0  0  0  0  0  0  0  0  0  0  0  0
  189.3640  177.5770  139.9300 C   0  0  0  0  0  2  0  0  0  0  0  0
  189.2870  176.6330  138.7930 C   0  0  1  0  0  3  0  0  0  0  0  0
  194.5260  172.2160  137.0640 C   0  0  0  0  0  1  0  0  0  0  0  0
  193.4030  172.9990  137.3310 O   0  0  0  0  0  0  0  0  0  0  0  0
  2 14  1  0  0  0  0
  2  5  1  1  0  0  0
  4 16  1  6  0  0  0
  4  5  1  0  0  0  0
  6 22  1  0  0  0  0
  7 22  1  6  0  0  0
  7 11  1  0  0  0  0
  8 10  1  0  0  0  0
  8 15  1  0  0  0  0
  9 20  1  1  0  0  0
  9  7  1  0  0  0  0
 10 17  2  0  0  0  0
 11  1  1  6  0  0  0
 11  2  1  0  0  0  0
 12 27  1  1  0  0  0
 12  4  1  0  0  0  0
 13  1  1  1  0  0  0
 13 21  1  0  0  0  0
 13 19  1  0  0  0  0
 14  3  1  6  0  0  0
 14 25  1  0  0  0  0
 18  6  1  0  0  0  0
 18  9  1  0  0  0  0
 19 10  1  0  0  0  0
 20 12  1  0  0  0  0
 21  3  1  1  0  0  0
 21 15  1  0  0  0  0
 24 23  1  0  0  0  0
 25 24  1  1  0  0  0
 25 23  1  0  0  0  0
 26 27  1  0  0  0  0
M  END
>  <MODEL>
8

>  <REMARK>
 VINA RESULT:      -4.3      4.967      8.154
  Name = 
  2 active torsions:
  status: ('A' for Active; 'I' for Inactive)
    1  A    between atoms: C_14  and  C_19
    2  A    between atoms: O_16  and  C_17
                            x       y       z     vdW  Elec       q    Type
                         _______ _______ _______ _____ _____    ______ ____

>  <TORSDO>
F 2

$$$$
=
 OpenBabel10272401143D

 27 31  0  0  1  0  0  0  0  0999 V2000
  184.5140  176.9180  136.5720 C   0  0  0  0  0  2  0  0  0  0  0  0
  184.8680  174.5810  136.1870 C   0  0  1  0  0  3  0  0  0  0  0  0
  186.6930  175.8650  134.9390 C   0  0  0  0  0  2  0  0  0  0  0  0
  183.5850  172.6740  135.8550 C   0  0  1  0  0  3  0  0  0  0  0  0
  184.5810  173.2800  136.6590 O   0  0  0  0  0  0  0  0  0  0  0  0
  181.3720  176.2870  138.8050 C   0  0  0  0  0  2  0  0  0  0  0  0
  183.1970  175.2880  137.7480 C   0  0  1  0  0  3  0  0  0  0  0  0
  188.5990  178.3040  137.2950 C   0  0  0  0  0  2  0  0  0  0  0  0
  182.0360  175.5410  136.7840 C   0  0  2  0  0  3  0  0  0  0  0  0
  187.6490  178.0320  138.4100 C   0  0  0  0  0  0  0  0  0  0  0  0
  184.5290  175.5930  137.2020 N   0  0  2  0  0  0  0  0  0  0  0  0
  182.1370  172.9680  136.2780 C   0  0  2  0  0  3  0  0  0  0  0  0
  185.8620  177.6150  136.7180 C   0  0  1  0  0  3  0  0  0  0  0  0
  186.3530  174.6400  135.7990 C   0  0  1  0  0  3  0  0  0  0  0  0
  188.4020  177.2360  136.2230 C   0  0  0  0  0  2  0  0  0  0  0  0
  183.8270  172.7200  134.3460 C   0  0  0  0  0  1  0  0  0  0  0  0
  188.0110  178.1730  139.6060 O   0  0  0  0  0  0  0  0  0  0  0  0
  180.9630  175.9650  137.6350 N   0  0  0  0  0  2  0  0  0  0  0  0
  186.3250  177.6040  138.1030 N   0  0  0  0  0  2  0  0  0  0  0  0
  181.6240  174.3640  135.8900 C   0  0  0  0  0  2  0  0  0  0  0  0
  186.9540  177.1690  135.7070 C   0  0  1  0  0  3  0  0  0  0  0  0
  182.8440  176.1120  138.9770 C   0  0  0  0  0  2  0  0  0  0  0  0
  187.3260  173.0530  137.3030 O   0  0  0  0  0  0  0  0  0  0  0  0
  188.4240  173.5490  136.5800 C   0  0  0  0  0  2  0  0  0  0  0  0
  187.2970  174.4210  136.9800 C   0  0  1  0  0  3  0  0  0  0  0  0
  180.6450  172.1370  137.6880 C   0  0  0  0  0  1  0  0  0  0  0  0
  181.9260  172.6880  137.6320 O   0  0  0  0  0  0  0  0  0  0  0  0
  2  5  1  1  0  0  0
  2 11  1  0  0  0  0
  4 16  1  6  0  0  0
  4 12  1  0  0  0  0
  4  5  1  0  0  0  0
  6 22  1  0  0  0  0
  7 22  1  1  0  0  0
  8 10  1  0  0  0  0
  9 20  1  1  0  0  0
  9 18  1  0  0  0  0
  9  7  1  0  0  0  0
 10 17  2  0  0  0  0
 11  1  1  6  0  0  0
 11  7  1  0  0  0  0
 12 27  1  1  0  0  0
 13  1  1  1  0  0  0
 13 19  1  0  0  0  0
 14  3  1  1  0  0  0
 14  2  1  0  0  0  0
 14 25  1  0  0  0  0
 15  8  1  0  0  0  0
 18  6  1  0  0  0  0
 19 10  1  0  0  0  0
 20 12  1  0  0  0  0
 21  3  1  1  0  0  0
 21 15  1  0  0  0  0
 21 13  1  0  0  0  0
 24 23  1  0  0  0  0
 25 24  1  6  0  0  0
 25 23  1  0  0  0  0
 27 26  1  0  0  0  0
M  END
>  <MODEL>
9

>  <REMARK>
 VINA RESULT:      -4.3      5.939      8.680
  Name = 
  2 active torsions:
  status: ('A' for Active; 'I' for Inactive)
    1  A    between atoms: C_14  and  C_19
    2  A    between atoms: O_16  and  C_17
                            x       y       z     vdW  Elec       q    Type
                         _______ _______ _______ _____ _____    ______ ____

>  <TORSDO>
F 2

$$$$
