=
 OpenBabel10272402083D

 32 35  0  0  1  0  0  0  0  0999 V2000
  181.6920  178.0900  139.5140 C   0  0  1  0  0  3  0  0  0  0  0  0
  180.2880  180.8340  140.5510 C   0  0  0  0  0  3  0  0  0  0  0  0
  180.7700  179.6320  135.2490 C   0  0  0  0  0  2  0  0  0  0  0  0
  180.6040  178.9870  138.8850 C   0  0  1  0  0  3  0  0  0  0  0  0
  180.8380  181.8770  135.9770 O   0  0  0  0  0  0  0  0  0  0  0  0
  180.9160  181.0570  137.0750 C   0  0  0  0  0  0  0  0  0  0  0  0
  180.5950  180.4490  139.3110 C   0  0  0  0  0  0  0  0  0  0  0  0
  180.7050  181.4460  138.2900 N   0  0  0  0  0  0  0  0  0  0  0  0
  181.1530  179.6430  136.7240 C   0  0  1  0  0  3  0  0  0  0  0  0
  180.8800  181.0980  134.7910 C   0  0  0  0  0  2  0  0  0  0  0  0
  180.3540  178.7720  137.4980 O   0  0  0  0  0  0  0  0  0  0  0  0
  179.9860  179.8930  141.6730 C   0  0  0  0  0  2  0  0  0  0  0  0
  180.2980  180.4830  142.8970 O   0  0  0  0  0  1  0  0  0  0  0  0
  181.2310  176.3550  139.4350 S   0  0  0  0  0  0  0  0  0  0  0  0
  180.8110  175.9340  137.7600 C   0  0  0  0  0  1  0  0  0  0  0  0
  180.0420  176.0830  140.3110 O   0  0  0  0  0  0  0  0  0  0  0  0
  182.3810  175.4970  139.8780 O   0  0  0  0  0  0  0  0  0  0  0  0
  183.3770  179.6060  138.5940 O   0  0  0  0  0  1  0  0  0  0  0  0
  183.2060  178.4110  139.3050 C   0  0  1  0  0  0  0  0  0  0  0  0
  185.7680  179.0410  142.1030 C   0  0  0  0  0  3  0  0  0  0  0  0
  183.5880  178.7560  143.1020 C   0  0  0  0  0  3  0  0  0  0  0  0
  183.8380  178.5930  140.6780 C   0  0  0  0  0  0  0  0  0  0  0  0
  184.9600  178.9790  143.2440 C   0  0  0  0  0  0  0  0  0  0  0  0
  183.0370  178.5630  141.8340 C   0  0  0  0  0  3  0  0  0  0  0  0
  185.2220  178.8470  140.8310 C   0  0  0  0  0  0  0  0  0  0  0  0
  186.0690  178.9090  139.7300 O   0  0  0  0  0  1  0  0  0  0  0  0
  185.5460  179.2380  144.5990 C   0  0  0  0  0  3  0  0  0  0  0  0
  185.7720  177.9310  145.3410 C   0  0  0  0  0  2  0  0  0  0  0  0
  184.5830  178.7960  145.6890 C   0  0  0  0  0  2  0  0  0  0  0  0
  183.8980  177.3190  138.5960 N   0  0  0  0  0  2  0  0  0  0  0  0
  184.0390  177.5940  137.1730 C   0  0  0  0  0  2  0  0  0  0  0  0
  185.3860  177.0970  136.6940 C   0  0  0  0  0  1  0  0  0  0  0  0
  1 14  1  6  0  0  0
  2 12  1  0  0  0  0
  4  7  1  0  0  0  0
  4  1  1  6  0  0  0
  5  6  1  0  0  0  0
  6  8  2  0  0  0  0
  7  2  2  0  0  0  0
  8  7  1  0  0  0  0
  9  3  1  6  0  0  0
  9  6  1  0  0  0  0
  9 11  1  0  0  0  0
 10  3  1  0  0  0  0
 10  5  1  0  0  0  0
 11  4  1  0  0  0  0
 12 13  1  0  0  0  0
 14 17  2  0  0  0  0
 14 16  2  0  0  0  0
 15 14  1  0  0  0  0
 19 18  1  6  0  0  0
 19  1  1  0  0  0  0
 19 22  1  0  0  0  0
 20 23  1  0  0  0  0
 21 23  2  0  0  0  0
 22 25  1  0  0  0  0
 22 24  2  0  0  0  0
 23 27  1  0  0  0  0
 24 21  1  0  0  0  0
 25 20  2  0  0  0  0
 26 25  1  0  0  0  0
 27 28  1  0  0  0  0
 27 29  1  0  0  0  0
 28 29  1  0  0  0  0
 30 19  1  0  0  0  0
 31 30  1  0  0  0  0
 32 31  1  0  0  0  0
M  END
>  <MODEL>
1

>  <REMARK>
 VINA RESULT:      -6.1      0.000      0.000
  Name = 
  8 active torsions:
  status: ('A' for Active; 'I' for Inactive)
    1  A    between atoms: N_1  and  C_4
    2  A    between atoms: N_1  and  C_27
    3  A    between atoms: S_2  and  C_5
    4  A    between atoms: C_5  and  C_10
    5  A    between atoms: C_5  and  C_27
    6  A    between atoms: C_6  and  C_25
    7  A    between atoms: C_7  and  C_19
    8  A    between atoms: C_16  and  C_27
                            x       y       z     vdW  Elec       q    Type
                         _______ _______ _______ _____ _____    ______ ____

>  <TORSDO>
F 8

$$$$
=
 OpenBabel10272402083D

 32 35  0  0  1  0  0  0  0  0999 V2000
  182.6590  178.0520  138.2750 C   0  0  1  0  0  3  0  0  0  0  0  0
  185.5690  176.9620  137.3130 C   0  0  0  0  0  3  0  0  0  0  0  0
  180.9070  175.1030  135.1690 C   0  0  0  0  0  2  0  0  0  0  0  0
  183.1400  177.4610  136.9320 C   0  0  1  0  0  3  0  0  0  0  0  0
  182.7830  173.6840  135.3630 O   0  0  0  0  0  0  0  0  0  0  0  0
  183.0280  174.8350  136.0700 C   0  0  0  0  0  0  0  0  0  0  0  0
  184.3470  176.5340  136.9890 C   0  0  0  0  0  0  0  0  0  0  0  0
  184.2010  175.2100  136.4640 N   0  0  0  0  0  0  0  0  0  0  0  0
  181.8260  175.6730  136.2420 C   0  0  1  0  0  3  0  0  0  0  0  0
  181.4490  173.6910  134.8800 C   0  0  0  0  0  2  0  0  0  0  0  0
  182.1120  177.0420  136.0390 O   0  0  0  0  0  0  0  0  0  0  0  0
  185.8860  178.3660  137.7200 C   0  0  0  0  0  2  0  0  0  0  0  0
  187.2240  178.4700  138.0960 O   0  0  0  0  0  1  0  0  0  0  0  0
  181.5020  179.4020  138.0150 S   0  0  0  0  0  0  0  0  0  0  0  0
  182.1330  180.8740  138.7870 C   0  0  0  0  0  1  0  0  0  0  0  0
  180.1660  179.0790  138.6190 O   0  0  0  0  0  0  0  0  0  0  0  0
  181.3340  179.6590  136.5450 O   0  0  0  0  0  0  0  0  0  0  0  0
  183.0190  175.8880  139.3570 O   0  0  0  0  0  1  0  0  0  0  0  0
  182.3690  177.1210  139.4950 C   0  0  1  0  0  0  0  0  0  0  0  0
  182.6050  178.8850  142.9050 C   0  0  0  0  0  3  0  0  0  0  0  0
  184.8410  178.4950  142.0800 C   0  0  0  0  0  3  0  0  0  0  0  0
  182.9210  177.8000  140.7420 C   0  0  0  0  0  0  0  0  0  0  0  0
  183.9900  179.0050  143.0650 C   0  0  0  0  0  0  0  0  0  0  0  0
  184.3110  177.9040  140.9330 C   0  0  0  0  0  3  0  0  0  0  0  0
  182.0680  178.2940  141.7570 C   0  0  0  0  0  0  0  0  0  0  0  0
  180.6850  178.2070  141.6420 O   0  0  0  0  0  1  0  0  0  0  0  0
  184.5570  179.5930  144.3220 C   0  0  0  0  0  3  0  0  0  0  0  0
  185.3890  178.5610  145.0650 C   0  0  0  0  0  2  0  0  0  0  0  0
  183.9920  178.8850  145.5420 C   0  0  0  0  0  2  0  0  0  0  0  0
  180.9230  176.8930  139.6710 N   0  0  0  0  0  2  0  0  0  0  0  0
  180.5400  175.5280  139.3340 C   0  0  0  0  0  2  0  0  0  0  0  0
  179.9820  174.8430  140.5620 C   0  0  0  0  0  1  0  0  0  0  0  0
  1 14  1  6  0  0  0
  1 19  1  0  0  0  0
  2 12  1  0  0  0  0
  4  7  1  0  0  0  0
  4  1  1  1  0  0  0
  5  6  1  0  0  0  0
  6  9  1  0  0  0  0
  6  8  2  0  0  0  0
  7  2  2  0  0  0  0
  8  7  1  0  0  0  0
  9  3  1  6  0  0  0
 10  3  1  0  0  0  0
 10  5  1  0  0  0  0
 11  9  1  0  0  0  0
 11  4  1  0  0  0  0
 12 13  1  0  0  0  0
 14 16  2  0  0  0  0
 14 15  1  0  0  0  0
 17 14  2  0  0  0  0
 19 18  1  6  0  0  0
 19 30  1  0  0  0  0
 19 22  1  0  0  0  0
 20 23  1  0  0  0  0
 21 23  2  0  0  0  0
 22 24  2  0  0  0  0
 22 25  1  0  0  0  0
 23 27  1  0  0  0  0
 24 21  1  0  0  0  0
 25 20  2  0  0  0  0
 26 25  1  0  0  0  0
 27 28  1  0  0  0  0
 27 29  1  0  0  0  0
 28 29  1  0  0  0  0
 31 30  1  0  0  0  0
 31 32  1  0  0  0  0
M  END
>  <MODEL>
2

>  <REMARK>
 VINA RESULT:      -4.8      2.202      4.822
  Name = 
  8 active torsions:
  status: ('A' for Active; 'I' for Inactive)
    1  A    between atoms: N_1  and  C_4
    2  A    between atoms: N_1  and  C_27
    3  A    between atoms: S_2  and  C_5
    4  A    between atoms: C_5  and  C_10
    5  A    between atoms: C_5  and  C_27
    6  A    between atoms: C_6  and  C_25
    7  A    between atoms: C_7  and  C_19
    8  A    between atoms: C_16  and  C_27
                            x       y       z     vdW  Elec       q    Type
                         _______ _______ _______ _____ _____    ______ ____

>  <TORSDO>
F 8

$$$$
=
 OpenBabel10272402083D

 32 35  0  0  1  0  0  0  0  0999 V2000
  187.9720  177.2640  137.5620 C   0  0  1  0  0  3  0  0  0  0  0  0
  186.2890  178.2830  140.1520 C   0  0  0  0  0  3  0  0  0  0  0  0
  191.7020  177.5980  140.2810 C   0  0  0  0  0  2  0  0  0  0  0  0
  188.3750  178.1420  138.7660 C   0  0  1  0  0  3  0  0  0  0  0  0
  190.4030  177.2250  142.2170 O   0  0  0  0  0  0  0  0  0  0  0  0
  189.5600  177.3640  141.1430 C   0  0  0  0  0  0  0  0  0  0  0  0
  187.5770  177.9480  140.0490 C   0  0  0  0  0  0  0  0  0  0  0  0
  188.2920  177.6020  141.2390 N   0  0  0  0  0  0  0  0  0  0  0  0
  190.2660  177.3310  139.8470 C   0  0  1  0  0  3  0  0  0  0  0  0
  191.7510  177.2190  141.7730 C   0  0  0  0  0  2  0  0  0  0  0  0
  189.7760  178.3170  138.9610 O   0  0  0  0  0  0  0  0  0  0  0  0
  185.4670  178.8170  139.0220 C   0  0  0  0  0  2  0  0  0  0  0  0
  184.6930  179.8930  139.4530 O   0  0  0  0  0  1  0  0  0  0  0  0
  187.7900  178.2480  136.0700 S   0  0  0  0  0  0  0  0  0  0  0  0
  186.4660  177.5860  135.0870 C   0  0  0  0  0  1  0  0  0  0  0  0
  189.0530  178.2170  135.2580 O   0  0  0  0  0  0  0  0  0  0  0  0
  187.4650  179.6700  136.4290 O   0  0  0  0  0  0  0  0  0  0  0  0
  189.3460  175.4660  138.4920 O   0  0  0  0  0  1  0  0  0  0  0  0
  188.5840  175.8390  137.3770 C   0  0  1  0  0  0  0  0  0  0  0  0
  186.5840  172.5800  136.9600 C   0  0  0  0  0  3  0  0  0  0  0  0
  185.0340  174.3990  137.3060 C   0  0  0  0  0  3  0  0  0  0  0  0
  187.4330  174.8500  137.2500 C   0  0  0  0  0  0  0  0  0  0  0  0
  185.2680  173.0410  137.0740 C   0  0  0  0  0  0  0  0  0  0  0  0
  186.1040  175.2910  137.3900 C   0  0  0  0  0  3  0  0  0  0  0  0
  187.6610  173.4690  137.0420 C   0  0  0  0  0  0  0  0  0  0  0  0
  188.9490  172.9620  136.9140 O   0  0  0  0  0  1  0  0  0  0  0  0
  184.1230  172.0730  137.0350 C   0  0  0  0  0  3  0  0  0  0  0  0
  183.5210  172.0170  135.6410 C   0  0  0  0  0  2  0  0  0  0  0  0
  182.8240  172.7990  136.7290 C   0  0  0  0  0  2  0  0  0  0  0  0
  189.4220  175.7620  136.1660 N   0  0  0  0  0  2  0  0  0  0  0  0
  190.8430  175.7440  136.4860 C   0  0  0  0  0  2  0  0  0  0  0  0
  191.5780  174.8960  135.4700 C   0  0  0  0  0  1  0  0  0  0  0  0
  1 14  1  6  0  0  0
  3 10  1  0  0  0  0
  4  1  1  6  0  0  0
  4 11  1  0  0  0  0
  4  7  1  0  0  0  0
  6  8  2  0  0  0  0
  6  5  1  0  0  0  0
  7  2  2  0  0  0  0
  7  8  1  0  0  0  0
  9  3  1  1  0  0  0
  9  6  1  0  0  0  0
 10  5  1  0  0  0  0
 11  9  1  0  0  0  0
 12 13  1  0  0  0  0
 12  2  1  0  0  0  0
 14 17  2  0  0  0  0
 15 14  1  0  0  0  0
 16 14  2  0  0  0  0
 19  1  1  0  0  0  0
 19 18  1  1  0  0  0
 20 25  2  0  0  0  0
 20 23  1  0  0  0  0
 21 24  1  0  0  0  0
 22 19  1  0  0  0  0
 22 24  2  0  0  0  0
 23 21  2  0  0  0  0
 25 22  1  0  0  0  0
 26 25  1  0  0  0  0
 27 23  1  0  0  0  0
 28 29  1  0  0  0  0
 28 27  1  0  0  0  0
 29 27  1  0  0  0  0
 30 31  1  0  0  0  0
 30 19  1  0  0  0  0
 32 31  1  0  0  0  0
M  END
>  <MODEL>
3

>  <REMARK>
 VINA RESULT:      -4.5      4.864      8.594
  Name = 
  8 active torsions:
  status: ('A' for Active; 'I' for Inactive)
    1  A    between atoms: N_1  and  C_4
    2  A    between atoms: N_1  and  C_27
    3  A    between atoms: S_2  and  C_5
    4  A    between atoms: C_5  and  C_10
    5  A    between atoms: C_5  and  C_27
    6  A    between atoms: C_6  and  C_25
    7  A    between atoms: C_7  and  C_19
    8  A    between atoms: C_16  and  C_27
                            x       y       z     vdW  Elec       q    Type
                         _______ _______ _______ _____ _____    ______ ____

>  <TORSDO>
F 8

$$$$
=
 OpenBabel10272402083D

 32 35  0  0  1  0  0  0  0  0999 V2000
  188.3040  176.4330  136.6780 C   0  0  1  0  0  3  0  0  0  0  0  0
  189.2590  173.3390  136.9860 C   0  0  0  0  0  3  0  0  0  0  0  0
  184.1610  174.6890  135.5810 C   0  0  0  0  0  2  0  0  0  0  0  0
  187.8050  175.1340  136.0100 C   0  0  1  0  0  3  0  0  0  0  0  0
  184.5760  172.7380  136.8440 O   0  0  0  0  0  0  0  0  0  0  0  0
  185.7280  173.4840  136.7960 C   0  0  0  0  0  0  0  0  0  0  0  0
  188.0390  173.8390  136.7760 C   0  0  0  0  0  0  0  0  0  0  0  0
  186.9030  173.0270  137.0850 N   0  0  0  0  0  0  0  0  0  0  0  0
  185.5130  174.8440  136.2660 C   0  0  1  0  0  3  0  0  0  0  0  0
  183.5120  173.4570  136.2390 C   0  0  0  0  0  2  0  0  0  0  0  0
  186.5350  175.2210  135.3660 O   0  0  0  0  0  0  0  0  0  0  0  0
  190.5260  174.0110  136.5630 C   0  0  0  0  0  2  0  0  0  0  0  0
  191.4740  173.9410  137.5820 O   0  0  0  0  0  1  0  0  0  0  0  0
  188.8050  177.6460  135.4510 S   0  0  0  0  0  0  0  0  0  0  0  0
  190.0110  176.9190  134.3650 C   0  0  0  0  0  1  0  0  0  0  0  0
  189.4170  178.8470  136.1120 O   0  0  0  0  0  0  0  0  0  0  0  0
  187.6180  178.0770  134.6380 O   0  0  0  0  0  0  0  0  0  0  0  0
  186.6410  176.0930  138.4400 O   0  0  0  0  0  1  0  0  0  0  0  0
  187.5970  176.9940  137.9530 C   0  0  1  0  0  0  0  0  0  0  0  0
  189.3560  177.9700  141.2310 C   0  0  0  0  0  3  0  0  0  0  0  0
  190.9190  176.7560  139.8470 C   0  0  0  0  0  3  0  0  0  0  0  0
  188.6560  177.1760  139.0320 C   0  0  0  0  0  0  0  0  0  0  0  0
  190.6370  177.4430  141.0310 C   0  0  0  0  0  0  0  0  0  0  0  0
  189.9400  176.6290  138.8600 C   0  0  0  0  0  3  0  0  0  0  0  0
  188.3720  177.8460  140.2460 C   0  0  0  0  0  0  0  0  0  0  0  0
  187.1170  178.3940  140.4890 O   0  0  0  0  0  1  0  0  0  0  0  0
  191.6690  177.5380  142.1140 C   0  0  0  0  0  3  0  0  0  0  0  0
  191.4240  176.4780  143.1760 C   0  0  0  0  0  2  0  0  0  0  0  0
  191.0200  177.9110  143.4360 C   0  0  0  0  0  2  0  0  0  0  0  0
  186.9510  178.2930  137.6860 N   0  0  0  0  0  2  0  0  0  0  0  0
  185.5260  178.1510  137.4240 C   0  0  0  0  0  2  0  0  0  0  0  0
  184.7410  178.8920  138.4850 C   0  0  0  0  0  1  0  0  0  0  0  0
  1 14  1  6  0  0  0
  1 19  1  0  0  0  0
  3 10  1  0  0  0  0
  4  1  1  1  0  0  0
  4  7  1  0  0  0  0
  6  5  1  0  0  0  0
  6  8  2  0  0  0  0
  7  2  2  0  0  0  0
  7  8  1  0  0  0  0
  9  3  1  6  0  0  0
  9  6  1  0  0  0  0
 10  5  1  0  0  0  0
 11  4  1  0  0  0  0
 11  9  1  0  0  0  0
 12  2  1  0  0  0  0
 12 13  1  0  0  0  0
 14 16  2  0  0  0  0
 15 14  1  0  0  0  0
 17 14  2  0  0  0  0
 19 18  1  1  0  0  0
 19 22  1  0  0  0  0
 21 23  2  0  0  0  0
 22 25  1  0  0  0  0
 23 20  1  0  0  0  0
 23 27  1  0  0  0  0
 24 22  2  0  0  0  0
 24 21  1  0  0  0  0
 25 26  1  0  0  0  0
 25 20  2  0  0  0  0
 27 28  1  0  0  0  0
 27 29  1  0  0  0  0
 28 29  1  0  0  0  0
 30 19  1  0  0  0  0
 31 30  1  0  0  0  0
 31 32  1  0  0  0  0
M  END
>  <MODEL>
4

>  <REMARK>
 VINA RESULT:      -4.5      5.003      7.931
  Name = 
  8 active torsions:
  status: ('A' for Active; 'I' for Inactive)
    1  A    between atoms: N_1  and  C_4
    2  A    between atoms: N_1  and  C_27
    3  A    between atoms: S_2  and  C_5
    4  A    between atoms: C_5  and  C_10
    5  A    between atoms: C_5  and  C_27
    6  A    between atoms: C_6  and  C_25
    7  A    between atoms: C_7  and  C_19
    8  A    between atoms: C_16  and  C_27
                            x       y       z     vdW  Elec       q    Type
                         _______ _______ _______ _____ _____    ______ ____

>  <TORSDO>
F 8

$$$$
=
 OpenBabel10272402083D

 32 35  0  0  1  0  0  0  0  0999 V2000
  182.4830  178.2020  137.8580 C   0  0  1  0  0  3  0  0  0  0  0  0
  181.2130  176.5470  135.3630 C   0  0  0  0  0  3  0  0  0  0  0  0
  180.1590  175.2490  140.5580 C   0  0  0  0  0  2  0  0  0  0  0  0
  181.1760  177.3920  137.7240 C   0  0  1  0  0  3  0  0  0  0  0  0
  180.2350  173.5710  138.8990 O   0  0  0  0  0  0  0  0  0  0  0  0
  180.7220  174.7390  138.3660 C   0  0  0  0  0  0  0  0  0  0  0  0
  181.1600  176.2910  136.6720 C   0  0  0  0  0  0  0  0  0  0  0  0
  180.8580  174.9590  137.0990 N   0  0  0  0  0  0  0  0  0  0  0  0
  180.9730  175.7780  139.3840 C   0  0  1  0  0  3  0  0  0  0  0  0
  179.9850  173.7430  140.2850 C   0  0  0  0  0  2  0  0  0  0  0  0
  180.5340  177.0490  138.9500 O   0  0  0  0  0  0  0  0  0  0  0  0
  181.3590  177.9160  134.7800 C   0  0  0  0  0  2  0  0  0  0  0  0
  182.6680  178.1200  134.3460 O   0  0  0  0  0  1  0  0  0  0  0  0
  182.1650  179.8510  138.4960 S   0  0  0  0  0  0  0  0  0  0  0  0
  181.2710  180.7900  137.2800 C   0  0  0  0  0  1  0  0  0  0  0  0
  183.4530  180.5600  138.7980 O   0  0  0  0  0  0  0  0  0  0  0  0
  181.3380  179.7670  139.7480 O   0  0  0  0  0  0  0  0  0  0  0  0
  184.8880  177.8810  137.5480 O   0  0  0  0  0  1  0  0  0  0  0  0
  183.7980  177.5150  138.3480 C   0  0  1  0  0  0  0  0  0  0  0  0
  185.5060  179.1060  141.4040 C   0  0  0  0  0  3  0  0  0  0  0  0
  183.3200  178.3180  142.0630 C   0  0  0  0  0  3  0  0  0  0  0  0
  184.0770  177.9990  139.7640 C   0  0  0  0  0  0  0  0  0  0  0  0
  184.5320  178.9300  142.3950 C   0  0  0  0  0  0  0  0  0  0  0  0
  183.0990  177.8560  140.7650 C   0  0  0  0  0  3  0  0  0  0  0  0
  185.2900  178.6450  140.1020 C   0  0  0  0  0  0  0  0  0  0  0  0
  186.2920  178.8360  139.1570 O   0  0  0  0  0  1  0  0  0  0  0  0
  184.7520  179.4730  143.7740 C   0  0  0  0  0  3  0  0  0  0  0  0
  185.0700  178.3470  144.7450 C   0  0  0  0  0  2  0  0  0  0  0  0
  183.6870  178.9550  144.7260 C   0  0  0  0  0  2  0  0  0  0  0  0
  183.6700  176.0460  138.3560 N   0  0  0  0  0  2  0  0  0  0  0  0
  184.5090  175.4190  137.3440 C   0  0  0  0  0  2  0  0  0  0  0  0
  184.5900  173.9310  137.6070 C   0  0  0  0  0  1  0  0  0  0  0  0
  1 19  1  0  0  0  0
  1 14  1  1  0  0  0
  2  7  2  0  0  0  0
  4  1  1  1  0  0  0
  4 11  1  0  0  0  0
  5 10  1  0  0  0  0
  6  5  1  0  0  0  0
  6  9  1  0  0  0  0
  7  8  1  0  0  0  0
  7  4  1  0  0  0  0
  8  6  2  0  0  0  0
  9  3  1  1  0  0  0
 10  3  1  0  0  0  0
 11  9  1  0  0  0  0
 12  2  1  0  0  0  0
 13 12  1  0  0  0  0
 14 16  2  0  0  0  0
 14 17  2  0  0  0  0
 15 14  1  0  0  0  0
 19 18  1  6  0  0  0
 19 30  1  0  0  0  0
 19 22  1  0  0  0  0
 20 23  1  0  0  0  0
 21 23  2  0  0  0  0
 22 25  1  0  0  0  0
 22 24  2  0  0  0  0
 23 27  1  0  0  0  0
 24 21  1  0  0  0  0
 25 20  2  0  0  0  0
 26 25  1  0  0  0  0
 27 29  1  0  0  0  0
 27 28  1  0  0  0  0
 29 28  1  0  0  0  0
 31 32  1  0  0  0  0
 31 30  1  0  0  0  0
M  END
>  <MODEL>
5

>  <REMARK>
 VINA RESULT:      -3.9      2.257      4.568
  Name = 
  8 active torsions:
  status: ('A' for Active; 'I' for Inactive)
    1  A    between atoms: N_1  and  C_4
    2  A    between atoms: N_1  and  C_27
    3  A    between atoms: S_2  and  C_5
    4  A    between atoms: C_5  and  C_10
    5  A    between atoms: C_5  and  C_27
    6  A    between atoms: C_6  and  C_25
    7  A    between atoms: C_7  and  C_19
    8  A    between atoms: C_16  and  C_27
                            x       y       z     vdW  Elec       q    Type
                         _______ _______ _______ _____ _____    ______ ____

>  <TORSDO>
F 8

$$$$
=
 OpenBabel10272402083D

 32 35  0  0  1  0  0  0  0  0999 V2000
  182.9510  176.7790  137.0250 C   0  0  1  0  0  3  0  0  0  0  0  0
  186.1990  176.7310  136.8690 C   0  0  0  0  0  3  0  0  0  0  0  0
  183.1060  173.0100  134.3460 C   0  0  0  0  0  2  0  0  0  0  0  0
  183.9180  176.2380  135.9510 C   0  0  1  0  0  3  0  0  0  0  0  0
  185.2370  172.4270  135.1790 O   0  0  0  0  0  0  0  0  0  0  0  0
  184.9020  173.6690  135.6590 C   0  0  0  0  0  0  0  0  0  0  0  0
  185.3100  175.8410  136.4240 C   0  0  0  0  0  0  0  0  0  0  0  0
  185.7470  174.5010  136.1730 N   0  0  0  0  0  0  0  0  0  0  0  0
  183.4870  174.0160  135.4250 C   0  0  1  0  0  3  0  0  0  0  0  0
  184.1400  171.8740  134.4670 C   0  0  0  0  0  2  0  0  0  0  0  0
  183.3430  175.3540  134.9920 O   0  0  0  0  0  0  0  0  0  0  0  0
  185.9210  178.1920  137.0210 C   0  0  0  0  0  2  0  0  0  0  0  0
  186.9610  178.8140  137.7100 O   0  0  0  0  0  1  0  0  0  0  0  0
  181.8120  177.9820  136.3300 S   0  0  0  0  0  0  0  0  0  0  0  0
  181.8230  179.4510  137.3320 C   0  0  0  0  0  1  0  0  0  0  0  0
  180.4150  177.4330  136.2990 O   0  0  0  0  0  0  0  0  0  0  0  0
  182.2350  178.3440  134.9340 O   0  0  0  0  0  0  0  0  0  0  0  0
  183.3370  174.9290  138.5780 O   0  0  0  0  0  1  0  0  0  0  0  0
  182.3680  175.8310  138.1200 C   0  0  1  0  0  0  0  0  0  0  0  0
  182.4340  178.2880  141.0780 C   0  0  0  0  0  3  0  0  0  0  0  0
  180.1590  177.5530  140.7350 C   0  0  0  0  0  3  0  0  0  0  0  0
  181.9380  176.6900  139.3020 C   0  0  0  0  0  0  0  0  0  0  0  0
  181.0860  178.3140  141.4540 C   0  0  0  0  0  0  0  0  0  0  0  0
  180.5830  176.7500  139.6750 C   0  0  0  0  0  3  0  0  0  0  0  0
  182.8640  177.4850  140.0180 C   0  0  0  0  0  0  0  0  0  0  0  0
  184.2150  177.4880  139.6900 O   0  0  0  0  0  1  0  0  0  0  0  0
  180.6280  179.2160  142.5590 C   0  0  0  0  0  3  0  0  0  0  0  0
  181.3990  178.9280  143.8370 C   0  0  0  0  0  2  0  0  0  0  0  0
  179.9900  178.4070  143.6760 C   0  0  0  0  0  2  0  0  0  0  0  0
  181.2010  175.0790  137.6200 N   0  0  0  0  0  2  0  0  0  0  0  0
  181.3320  173.6480  137.8530 C   0  0  0  0  0  2  0  0  0  0  0  0
  179.9830  172.9830  137.6870 C   0  0  0  0  0  1  0  0  0  0  0  0
  1 14  1  6  0  0  0
  1 19  1  0  0  0  0
  2 12  1  0  0  0  0
  3 10  1  0  0  0  0
  4  7  1  0  0  0  0
  4  1  1  1  0  0  0
  5  6  1  0  0  0  0
  6  8  2  0  0  0  0
  7  2  2  0  0  0  0
  8  7  1  0  0  0  0
  9  3  1  6  0  0  0
  9  6  1  0  0  0  0
 10  5  1  0  0  0  0
 11  9  1  0  0  0  0
 11  4  1  0  0  0  0
 12 13  1  0  0  0  0
 14 15  1  0  0  0  0
 16 14  2  0  0  0  0
 17 14  2  0  0  0  0
 19 18  1  1  0  0  0
 19 22  1  0  0  0  0
 20 23  1  0  0  0  0
 21 23  2  0  0  0  0
 22 24  2  0  0  0  0
 22 25  1  0  0  0  0
 23 27  1  0  0  0  0
 24 21  1  0  0  0  0
 25 20  2  0  0  0  0
 26 25  1  0  0  0  0
 27 29  1  0  0  0  0
 27 28  1  0  0  0  0
 29 28  1  0  0  0  0
 30 31  1  0  0  0  0
 30 19  1  0  0  0  0
 32 31  1  0  0  0  0
M  END
>  <MODEL>
6

>  <REMARK>
 VINA RESULT:      -3.9      3.022      5.898
  Name = 
  8 active torsions:
  status: ('A' for Active; 'I' for Inactive)
    1  A    between atoms: N_1  and  C_4
    2  A    between atoms: N_1  and  C_27
    3  A    between atoms: S_2  and  C_5
    4  A    between atoms: C_5  and  C_10
    5  A    between atoms: C_5  and  C_27
    6  A    between atoms: C_6  and  C_25
    7  A    between atoms: C_7  and  C_19
    8  A    between atoms: C_16  and  C_27
                            x       y       z     vdW  Elec       q    Type
                         _______ _______ _______ _____ _____    ______ ____

>  <TORSDO>
F 8

$$$$
=
 OpenBabel10272402083D

 32 35  0  0  1  0  0  0  0  0999 V2000
  188.5410  175.8840  137.5450 C   0  0  1  0  0  3  0  0  0  0  0  0
  188.4440  176.6070  134.3750 C   0  0  0  0  0  3  0  0  0  0  0  0
  183.9180  175.9030  137.3410 C   0  0  0  0  0  2  0  0  0  0  0  0
  187.4850  176.6200  136.6920 C   0  0  1  0  0  3  0  0  0  0  0  0
  183.9520  175.3160  135.0540 O   0  0  0  0  0  0  0  0  0  0  0  0
  185.2370  175.5770  135.4610 C   0  0  0  0  0  0  0  0  0  0  0  0
  187.4520  176.2830  135.2070 C   0  0  0  0  0  0  0  0  0  0  0  0
  186.2230  175.8030  134.6540 N   0  0  0  0  0  0  0  0  0  0  0  0
  185.3680  175.6890  136.9260 C   0  0  1  0  0  3  0  0  0  0  0  0
  183.0770  175.3580  136.1710 C   0  0  0  0  0  2  0  0  0  0  0  0
  186.2010  176.7700  137.2940 O   0  0  0  0  0  0  0  0  0  0  0  0
  189.7170  177.2660  134.8010 C   0  0  0  0  0  2  0  0  0  0  0  0
  190.8150  176.5360  134.3480 O   0  0  0  0  0  1  0  0  0  0  0  0
  188.7800  174.1980  136.9720 S   0  0  0  0  0  0  0  0  0  0  0  0
  187.2900  173.2680  137.2440 C   0  0  0  0  0  1  0  0  0  0  0  0
  189.9010  173.5390  137.7230 O   0  0  0  0  0  0  0  0  0  0  0  0
  189.0940  174.1940  135.5030 O   0  0  0  0  0  0  0  0  0  0  0  0
  190.0180  177.8230  137.3400 O   0  0  0  0  0  1  0  0  0  0  0  0
  189.8180  176.6300  138.0460 C   0  0  1  0  0  0  0  0  0  0  0  0
  188.5270  178.3120  141.2550 C   0  0  0  0  0  3  0  0  0  0  0  0
  190.0430  176.5350  141.8700 C   0  0  0  0  0  3  0  0  0  0  0  0
  189.6040  176.9880  139.5110 C   0  0  0  0  0  0  0  0  0  0  0  0
  189.1960  177.5820  142.2450 C   0  0  0  0  0  0  0  0  0  0  0  0
  190.2460  176.2460  140.5200 C   0  0  0  0  0  3  0  0  0  0  0  0
  188.7270  178.0280  139.9010 C   0  0  0  0  0  0  0  0  0  0  0  0
  188.0460  178.7880  138.9570 O   0  0  0  0  0  1  0  0  0  0  0  0
  188.9360  177.8620  143.6940 C   0  0  0  0  0  3  0  0  0  0  0  0
  190.1830  178.4200  144.3600 C   0  0  0  0  0  2  0  0  0  0  0  0
  189.8030  176.9730  144.5700 C   0  0  0  0  0  2  0  0  0  0  0  0
  191.0210  175.7850  137.9260 N   0  0  0  0  0  2  0  0  0  0  0  0
  192.1730  176.5380  137.4490 C   0  0  0  0  0  2  0  0  0  0  0  0
  193.2500  176.5390  138.5120 C   0  0  0  0  0  1  0  0  0  0  0  0
  1 14  1  6  0  0  0
  1 19  1  0  0  0  0
  2 12  1  0  0  0  0
  2  7  2  0  0  0  0
  4 11  1  0  0  0  0
  4  1  1  1  0  0  0
  5  6  1  0  0  0  0
  5 10  1  0  0  0  0
  6  9  1  0  0  0  0
  7  4  1  0  0  0  0
  8  7  1  0  0  0  0
  8  6  2  0  0  0  0
  9 11  1  0  0  0  0
  9  3  1  1  0  0  0
 10  3  1  0  0  0  0
 13 12  1  0  0  0  0
 14 15  1  0  0  0  0
 14 16  2  0  0  0  0
 17 14  2  0  0  0  0
 19 18  1  6  0  0  0
 19 22  1  0  0  0  0
 20 23  1  0  0  0  0
 21 23  2  0  0  0  0
 22 25  1  0  0  0  0
 22 24  2  0  0  0  0
 23 27  1  0  0  0  0
 24 21  1  0  0  0  0
 25 20  2  0  0  0  0
 26 25  1  0  0  0  0
 27 28  1  0  0  0  0
 27 29  1  0  0  0  0
 28 29  1  0  0  0  0
 30 19  1  0  0  0  0
 31 30  1  0  0  0  0
 31 32  1  0  0  0  0
M  END
>  <MODEL>
7

>  <REMARK>
 VINA RESULT:      -3.8      5.294      7.544
  Name = 
  8 active torsions:
  status: ('A' for Active; 'I' for Inactive)
    1  A    between atoms: N_1  and  C_4
    2  A    between atoms: N_1  and  C_27
    3  A    between atoms: S_2  and  C_5
    4  A    between atoms: C_5  and  C_10
    5  A    between atoms: C_5  and  C_27
    6  A    between atoms: C_6  and  C_25
    7  A    between atoms: C_7  and  C_19
    8  A    between atoms: C_16  and  C_27
                            x       y       z     vdW  Elec       q    Type
                         _______ _______ _______ _____ _____    ______ ____

>  <TORSDO>
F 8

$$$$
=
 OpenBabel10272402083D

 32 35  0  0  1  0  0  0  0  0999 V2000
  184.3380  175.6200  136.4690 C   0  0  1  0  0  3  0  0  0  0  0  0
  185.1120  172.6830  137.6350 C   0  0  0  0  0  3  0  0  0  0  0  0
  180.8260  173.4770  134.3510 C   0  0  0  0  0  2  0  0  0  0  0  0
  184.0960  174.1990  135.9150 C   0  0  1  0  0  3  0  0  0  0  0  0
  180.7670  171.7970  136.0090 O   0  0  0  0  0  0  0  0  0  0  0  0
  181.8670  172.5890  136.2250 C   0  0  0  0  0  0  0  0  0  0  0  0
  184.0430  173.0690  136.9340 C   0  0  0  0  0  0  0  0  0  0  0  0
  182.8660  172.2560  136.9750 N   0  0  0  0  0  0  0  0  0  0  0  0
  181.8560  173.8250  135.4180 C   0  0  1  0  0  3  0  0  0  0  0  0
  179.9830  172.3400  134.9570 C   0  0  0  0  0  2  0  0  0  0  0  0
  183.1300  174.1010  134.8710 O   0  0  0  0  0  0  0  0  0  0  0  0
  186.4500  173.3450  137.5590 C   0  0  0  0  0  2  0  0  0  0  0  0
  187.4440  172.4000  137.3140 O   0  0  0  0  0  1  0  0  0  0  0  0
  185.7130  176.4190  135.6340 S   0  0  0  0  0  0  0  0  0  0  0  0
  186.9230  176.9180  136.8370 C   0  0  0  0  0  1  0  0  0  0  0  0
  185.2460  177.6360  134.8900 O   0  0  0  0  0  0  0  0  0  0  0  0
  186.3550  175.4620  134.6690 O   0  0  0  0  0  0  0  0  0  0  0  0
  181.9720  175.7900  137.0640 O   0  0  0  0  0  1  0  0  0  0  0  0
  183.1360  176.5390  136.8530 C   0  0  1  0  0  0  0  0  0  0  0  0
  183.4780  177.3400  140.5990 C   0  0  0  0  0  3  0  0  0  0  0  0
  184.5790  179.0770  139.3340 C   0  0  0  0  0  3  0  0  0  0  0  0
  183.4820  177.2390  138.1610 C   0  0  0  0  0  0  0  0  0  0  0  0
  184.1930  178.5430  140.5660 C   0  0  0  0  0  0  0  0  0  0  0  0
  184.2240  178.4330  138.1480 C   0  0  0  0  0  3  0  0  0  0  0  0
  183.1190  176.6910  139.4140 C   0  0  0  0  0  0  0  0  0  0  0  0
  182.4010  175.5030  139.5000 O   0  0  0  0  0  1  0  0  0  0  0  0
  184.6160  179.2040  141.8430 C   0  0  0  0  0  3  0  0  0  0  0  0
  185.6800  178.3750  142.5450 C   0  0  0  0  0  2  0  0  0  0  0  0
  184.2510  178.3380  143.0370 C   0  0  0  0  0  2  0  0  0  0  0  0
  182.8790  177.5560  135.8150 N   0  0  0  0  0  2  0  0  0  0  0  0
  181.4610  177.6780  135.5090 C   0  0  0  0  0  2  0  0  0  0  0  0
  181.0460  179.1300  135.6070 C   0  0  0  0  0  1  0  0  0  0  0  0
  1 14  1  6  0  0  0
  1 19  1  0  0  0  0
  3 10  1  0  0  0  0
  4  1  1  1  0  0  0
  4  7  1  0  0  0  0
  5  6  1  0  0  0  0
  6  8  2  0  0  0  0
  7  8  1  0  0  0  0
  7  2  2  0  0  0  0
  9  3  1  6  0  0  0
  9  6  1  0  0  0  0
 10  5  1  0  0  0  0
 11  9  1  0  0  0  0
 11  4  1  0  0  0  0
 12  2  1  0  0  0  0
 13 12  1  0  0  0  0
 14 15  1  0  0  0  0
 16 14  2  0  0  0  0
 17 14  2  0  0  0  0
 19 18  1  1  0  0  0
 19 22  1  0  0  0  0
 21 23  2  0  0  0  0
 22 25  1  0  0  0  0
 23 20  1  0  0  0  0
 23 27  1  0  0  0  0
 24 22  2  0  0  0  0
 24 21  1  0  0  0  0
 25 26  1  0  0  0  0
 25 20  2  0  0  0  0
 27 28  1  0  0  0  0
 27 29  1  0  0  0  0
 28 29  1  0  0  0  0
 30 19  1  0  0  0  0
 31 32  1  0  0  0  0
 31 30  1  0  0  0  0
M  END
>  <MODEL>
8

>  <REMARK>
 VINA RESULT:      -3.7      3.517      6.382
  Name = 
  8 active torsions:
  status: ('A' for Active; 'I' for Inactive)
    1  A    between atoms: N_1  and  C_4
    2  A    between atoms: N_1  and  C_27
    3  A    between atoms: S_2  and  C_5
    4  A    between atoms: C_5  and  C_10
    5  A    between atoms: C_5  and  C_27
    6  A    between atoms: C_6  and  C_25
    7  A    between atoms: C_7  and  C_19
    8  A    between atoms: C_16  and  C_27
                            x       y       z     vdW  Elec       q    Type
                         _______ _______ _______ _____ _____    ______ ____

>  <TORSDO>
F 8

$$$$
=
 OpenBabel10272402083D

 32 35  0  0  1  0  0  0  0  0999 V2000
  182.4420  177.6640  137.6940 C   0  0  1  0  0  3  0  0  0  0  0  0
  180.7640  175.0280  138.5970 C   0  0  0  0  0  3  0  0  0  0  0  0
  185.9150  174.7350  136.8150 C   0  0  0  0  0  2  0  0  0  0  0  0
  182.8980  176.3030  138.2640 C   0  0  1  0  0  3  0  0  0  0  0  0
  184.4040  172.9680  136.4020 O   0  0  0  0  0  0  0  0  0  0  0  0
  183.7010  174.0440  136.8840 C   0  0  0  0  0  0  0  0  0  0  0  0
  181.9690  175.1200  138.0290 C   0  0  0  0  0  0  0  0  0  0  0  0
  182.4980  173.9740  137.3540 N   0  0  0  0  0  0  0  0  0  0  0  0
  184.4980  175.2850  136.9200 C   0  0  1  0  0  3  0  0  0  0  0  0
  185.7600  173.3330  136.1950 C   0  0  0  0  0  2  0  0  0  0  0  0
  184.2850  176.0070  138.1160 O   0  0  0  0  0  0  0  0  0  0  0  0
  180.1610  176.0870  139.4640 C   0  0  0  0  0  2  0  0  0  0  0  0
  180.0460  175.6300  140.7760 O   0  0  0  0  0  1  0  0  0  0  0  0
  181.4720  177.4520  136.1970 S   0  0  0  0  0  0  0  0  0  0  0  0
  181.4640  178.9750  135.2810 C   0  0  0  0  0  1  0  0  0  0  0  0
  180.0550  177.0850  136.5310 O   0  0  0  0  0  0  0  0  0  0  0  0
  182.0760  176.3750  135.3420 O   0  0  0  0  0  0  0  0  0  0  0  0
  180.6900  178.6030  139.1210 O   0  0  0  0  0  1  0  0  0  0  0  0
  181.9920  178.8150  138.6500 C   0  0  1  0  0  0  0  0  0  0  0  0
  185.1300  179.1470  140.8490 C   0  0  0  0  0  3  0  0  0  0  0  0
  183.2530  178.5820  142.2600 C   0  0  0  0  0  3  0  0  0  0  0  0
  182.9270  178.8160  139.8520 C   0  0  0  0  0  0  0  0  0  0  0  0
  184.6160  178.8600  142.1190 C   0  0  0  0  0  0  0  0  0  0  0  0
  182.4220  178.5580  141.1390 C   0  0  0  0  0  3  0  0  0  0  0  0
  184.3030  179.1230  139.7220 C   0  0  0  0  0  0  0  0  0  0  0  0
  184.8640  179.4060  138.4820 O   0  0  0  0  0  1  0  0  0  0  0  0
  185.5000  178.9370  143.3270 C   0  0  0  0  0  3  0  0  0  0  0  0
  185.4430  177.6370  144.1120 C   0  0  0  0  0  2  0  0  0  0  0  0
  184.6720  178.8420  144.5980 C   0  0  0  0  0  2  0  0  0  0  0  0
  182.0620  180.1290  137.9840 N   0  0  0  0  0  2  0  0  0  0  0  0
  181.1000  181.0740  138.5370 C   0  0  0  0  0  2  0  0  0  0  0  0
  180.7000  182.0700  137.4700 C   0  0  0  0  0  1  0  0  0  0  0  0
  1 14  1  6  0  0  0
  1 19  1  0  0  0  0
  2 12  1  0  0  0  0
  4  1  1  6  0  0  0
  5  6  1  0  0  0  0
  6  9  1  0  0  0  0
  6  8  2  0  0  0  0
  7  4  1  0  0  0  0
  7  2  2  0  0  0  0
  8  7  1  0  0  0  0
  9  3  1  1  0  0  0
  9 11  1  0  0  0  0
 10  5  1  0  0  0  0
 10  3  1  0  0  0  0
 11  4  1  0  0  0  0
 12 13  1  0  0  0  0
 14 16  2  0  0  0  0
 15 14  1  0  0  0  0
 17 14  2  0  0  0  0
 19 18  1  1  0  0  0
 19 22  1  0  0  0  0
 20 23  1  0  0  0  0
 22 24  2  0  0  0  0
 23 21  2  0  0  0  0
 23 27  1  0  0  0  0
 24 21  1  0  0  0  0
 25 22  1  0  0  0  0
 25 20  2  0  0  0  0
 26 25  1  0  0  0  0
 27 28  1  0  0  0  0
 27 29  1  0  0  0  0
 28 29  1  0  0  0  0
 30 31  1  0  0  0  0
 30 19  1  0  0  0  0
 32 31  1  0  0  0  0
M  END
>  <MODEL>
9

>  <REMARK>
 VINA RESULT:      -3.7      2.130      4.707
  Name = 
  8 active torsions:
  status: ('A' for Active; 'I' for Inactive)
    1  A    between atoms: N_1  and  C_4
    2  A    between atoms: N_1  and  C_27
    3  A    between atoms: S_2  and  C_5
    4  A    between atoms: C_5  and  C_10
    5  A    between atoms: C_5  and  C_27
    6  A    between atoms: C_6  and  C_25
    7  A    between atoms: C_7  and  C_19
    8  A    between atoms: C_16  and  C_27
                            x       y       z     vdW  Elec       q    Type
                         _______ _______ _______ _____ _____    ______ ____

>  <TORSDO>
F 8

$$$$
