=
 OpenBabel10272400443D

 25 27  0  0  1  0  0  0  0  0999 V2000
  189.2450  178.1230  137.9420 C   0  0  0  0  0  0  0  0  0  0  0  0
  189.4260  177.1160  136.9230 N   0  0  0  0  0  0  0  0  0  0  0  0
  186.9910  176.6370  135.0370 C   0  0  2  0  0  3  0  0  0  0  0  0
  187.0300  175.6450  137.4100 C   0  0  0  0  0  2  0  0  0  0  0  0
  187.9610  177.8330  135.0760 C   0  0  0  0  0  2  0  0  0  0  0  0
  188.2410  174.5740  135.4560 C   0  0  0  0  0  0  0  0  0  0  0  0
  188.8060  173.4630  135.0080 C   0  0  0  0  0  2  0  0  0  0  0  0
  186.1910  176.3650  136.3370 C   0  0  1  0  0  0  0  0  0  0  0  0
  189.5580  175.7000  137.2590 C   0  0  0  0  0  2  0  0  0  0  0  0
  188.8980  179.2880  137.6030 O   0  0  0  0  0  0  0  0  0  0  0  0
  187.6180  175.4470  134.5650 O   0  0  0  0  0  0  0  0  0  0  0  0
  188.2920  174.9100  136.9180 C   0  0  1  0  0  3  0  0  0  0  0  0
  189.3830  177.4800  135.5110 C   0  0  0  0  0  2  0  0  0  0  0  0
  185.6740  177.6620  136.9430 C   0  0  0  0  0  1  0  0  0  0  0  0
  189.4530  177.8350  139.3810 C   0  0  0  0  0  0  0  0  0  0  0  0
  189.8850  177.3450  142.1150 C   0  0  0  0  0  3  0  0  0  0  0  0
  188.3970  177.9690  140.3060 C   0  0  0  0  0  0  0  0  0  0  0  0
  188.6180  177.7190  141.6640 C   0  0  0  0  0  3  0  0  0  0  0  0
  190.9390  177.2190  141.2080 C   0  0  0  0  0  3  0  0  0  0  0  0
  187.1510  178.3170  139.8990 F   0  0  0  0  0  0  0  0  0  0  0  0
  190.7230  177.4650  139.8500 C   0  0  0  0  0  3  0  0  0  0  0  0
  184.0120  175.8200  135.0910 C   0  0  0  0  0  0  0  0  0  0  0  0
  184.0160  176.9130  134.4650 O   0  0  0  0  0  0  0  0  0  0  0  0
  182.6940  174.6490  134.8120 S   0  0  0  0  0  1  0  0  0  0  0  0
  185.0520  175.5030  136.0230 N   0  0  0  0  0  2  0  0  0  0  0  0
  1 15  1  0  0  0  0
  2  9  1  0  0  0  0
  2  1  1  0  0  0  0
  3  5  1  1  0  0  0
  3  8  1  0  0  0  0
  5 13  1  0  0  0  0
  6 12  1  0  0  0  0
  7  6  2  0  0  0  0
  8 14  1  1  0  0  0
  8  4  1  0  0  0  0
 10  1  2  0  0  0  0
 11  3  1  0  0  0  0
 11  6  1  0  0  0  0
 12  9  1  6  0  0  0
 12  4  1  0  0  0  0
 13  2  1  0  0  0  0
 15 21  2  0  0  0  0
 15 17  1  0  0  0  0
 17 18  2  0  0  0  0
 18 16  1  0  0  0  0
 19 16  2  0  0  0  0
 20 17  1  0  0  0  0
 21 19  1  0  0  0  0
 22 25  1  0  0  0  0
 23 22  2  0  0  0  0
 24 22  1  0  0  0  0
 25  8  1  0  0  0  0
M  END
>  <MODEL>
1

>  <REMARK>
 VINA RESULT:      -5.5      0.000      0.000
  Name = 
  2 active torsions:
  status: ('A' for Active; 'I' for Inactive)
    1  A    between atoms: C_1  and  C_5
    2  A    between atoms: C_15  and  N_21
                            x       y       z     vdW  Elec       q    Type
                         _______ _______ _______ _____ _____    ______ ____

>  <TORSDO>
F 2

$$$$
=
 OpenBabel10272400443D

 25 27  0  0  1  0  0  0  0  0999 V2000
  189.2670  178.0810  137.8950 C   0  0  0  0  0  0  0  0  0  0  0  0
  189.4870  177.0130  136.9490 N   0  0  0  0  0  0  0  0  0  0  0  0
  187.1770  176.4950  134.9210 C   0  0  2  0  0  3  0  0  0  0  0  0
  187.0170  175.6390  137.3420 C   0  0  0  0  0  2  0  0  0  0  0  0
  188.1790  177.6630  134.9650 C   0  0  0  0  0  2  0  0  0  0  0  0
  188.3280  174.4250  135.5420 C   0  0  0  0  0  0  0  0  0  0  0  0
  188.8870  173.2750  135.1980 C   0  0  0  0  0  2  0  0  0  0  0  0
  186.2800  176.3200  136.1730 C   0  0  1  0  0  0  0  0  0  0  0  0
  189.5500  175.6150  137.3710 C   0  0  0  0  0  2  0  0  0  0  0  0
  188.9820  179.2340  137.4680 O   0  0  0  0  0  0  0  0  0  0  0  0
  187.7970  175.2630  134.5620 O   0  0  0  0  0  0  0  0  0  0  0  0
  188.2860  174.8420  136.9840 C   0  0  1  0  0  3  0  0  0  0  0  0
  189.5550  177.2970  135.5200 C   0  0  0  0  0  2  0  0  0  0  0  0
  185.7630  177.6630  136.6690 C   0  0  0  0  0  1  0  0  0  0  0  0
  189.3640  177.8700  139.3590 C   0  0  0  0  0  0  0  0  0  0  0  0
  189.5080  177.4170  142.1290 C   0  0  0  0  0  3  0  0  0  0  0  0
  190.5740  177.4570  139.9530 C   0  0  0  0  0  0  0  0  0  0  0  0
  190.6400  177.2380  141.3320 C   0  0  0  0  0  3  0  0  0  0  0  0
  188.3030  177.8160  141.5490 C   0  0  0  0  0  3  0  0  0  0  0  0
  191.6950  177.2880  139.2090 F   0  0  0  0  0  0  0  0  0  0  0  0
  188.2320  178.0380  140.1720 C   0  0  0  0  0  3  0  0  0  0  0  0
  184.0370  175.1790  136.6920 C   0  0  0  0  0  0  0  0  0  0  0  0
  183.9900  175.6480  137.8600 O   0  0  0  0  0  0  0  0  0  0  0  0
  182.7130  174.1340  136.1070 S   0  0  0  0  0  1  0  0  0  0  0  0
  185.1380  175.4740  135.8260 N   0  0  0  0  0  2  0  0  0  0  0  0
  1 15  1  0  0  0  0
  2  9  1  0  0  0  0
  2  1  1  0  0  0  0
  3  5  1  1  0  0  0
  3  8  1  0  0  0  0
  5 13  1  0  0  0  0
  6 12  1  0  0  0  0
  7  6  2  0  0  0  0
  8 14  1  1  0  0  0
  8  4  1  0  0  0  0
 10  1  2  0  0  0  0
 11  3  1  0  0  0  0
 11  6  1  0  0  0  0
 12  4  1  6  0  0  0
 12  9  1  0  0  0  0
 13  2  1  0  0  0  0
 15 17  2  0  0  0  0
 15 21  1  0  0  0  0
 17 18  1  0  0  0  0
 18 16  2  0  0  0  0
 19 16  1  0  0  0  0
 20 17  1  0  0  0  0
 21 19  2  0  0  0  0
 22 23  2  0  0  0  0
 24 22  1  0  0  0  0
 25  8  1  0  0  0  0
 25 22  1  0  0  0  0
M  END
>  <MODEL>
2

>  <REMARK>
 VINA RESULT:      -5.4      1.286      1.608
  Name = 
  2 active torsions:
  status: ('A' for Active; 'I' for Inactive)
    1  A    between atoms: C_1  and  C_5
    2  A    between atoms: C_15  and  N_21
                            x       y       z     vdW  Elec       q    Type
                         _______ _______ _______ _____ _____    ______ ____

>  <TORSDO>
F 2

$$$$
=
 OpenBabel10272400443D

 25 27  0  0  1  0  0  0  0  0999 V2000
  190.0240  176.2230  135.0080 C   0  0  0  0  0  0  0  0  0  0  0  0
  188.6270  175.8790  135.1240 N   0  0  0  0  0  0  0  0  0  0  0  0
  186.7980  178.0390  136.4280 C   0  0  2  0  0  3  0  0  0  0  0  0
  188.2990  176.5360  137.8800 C   0  0  0  0  0  2  0  0  0  0  0  0
  187.4460  178.0390  135.0320 C   0  0  0  0  0  2  0  0  0  0  0  0
  186.0600  175.7670  136.9710 C   0  0  0  0  0  0  0  0  0  0  0  0
  185.0900  174.8740  137.0910 C   0  0  0  0  0  2  0  0  0  0  0  0
  187.7720  177.9620  137.6330 C   0  0  1  0  0  0  0  0  0  0  0  0
  188.1700  174.8200  136.0220 C   0  0  0  0  0  2  0  0  0  0  0  0
  190.3500  177.2870  134.4130 O   0  0  0  0  0  0  0  0  0  0  0  0
  185.7650  177.0620  136.5460 O   0  0  0  0  0  0  0  0  0  0  0  0
  187.4810  175.3840  137.2670 C   0  0  1  0  0  3  0  0  0  0  0  0
  187.6160  176.6520  134.4120 C   0  0  0  0  0  2  0  0  0  0  0  0
  188.9740  178.8720  137.4230 C   0  0  0  0  0  1  0  0  0  0  0  0
  191.0970  175.3660  135.5670 C   0  0  0  0  0  0  0  0  0  0  0  0
  193.1690  173.7560  136.5730 C   0  0  0  0  0  3  0  0  0  0  0  0
  191.8170  175.7620  136.7130 C   0  0  0  0  0  0  0  0  0  0  0  0
  192.8430  174.9540  137.2110 C   0  0  0  0  0  3  0  0  0  0  0  0
  192.4690  173.3600  135.4320 C   0  0  0  0  0  3  0  0  0  0  0  0
  191.5150  176.9130  137.3640 F   0  0  0  0  0  0  0  0  0  0  0  0
  191.4410  174.1620  134.9320 C   0  0  0  0  0  3  0  0  0  0  0  0
  187.5720  178.2600  140.1770 C   0  0  0  0  0  0  0  0  0  0  0  0
  188.7040  177.7520  140.3940 O   0  0  0  0  0  0  0  0  0  0  0  0
  186.5850  178.8360  141.5480 S   0  0  0  0  0  1  0  0  0  0  0  0
  187.0660  178.3830  138.8420 N   0  0  0  0  0  2  0  0  0  0  0  0
  1  2  1  0  0  0  0
  1 15  1  0  0  0  0
  2  9  1  0  0  0  0
  3  5  1  6  0  0  0
  3 11  1  0  0  0  0
  3  8  1  0  0  0  0
  6  7  2  0  0  0  0
  6 12  1  0  0  0  0
  8 14  1  6  0  0  0
  8  4  1  0  0  0  0
  8 25  1  0  0  0  0
 10  1  2  0  0  0  0
 11  6  1  0  0  0  0
 12  9  1  6  0  0  0
 12  4  1  0  0  0  0
 13  5  1  0  0  0  0
 13  2  1  0  0  0  0
 15 17  1  0  0  0  0
 16 18  1  0  0  0  0
 17 18  2  0  0  0  0
 17 20  1  0  0  0  0
 19 16  2  0  0  0  0
 21 19  1  0  0  0  0
 21 15  2  0  0  0  0
 22 23  2  0  0  0  0
 22 24  1  0  0  0  0
 25 22  1  0  0  0  0
M  END
>  <MODEL>
3

>  <REMARK>
 VINA RESULT:      -5.2      3.018      4.802
  Name = 
  2 active torsions:
  status: ('A' for Active; 'I' for Inactive)
    1  A    between atoms: C_1  and  C_5
    2  A    between atoms: C_15  and  N_21
                            x       y       z     vdW  Elec       q    Type
                         _______ _______ _______ _____ _____    ______ ____

>  <TORSDO>
F 2

$$$$
=
 OpenBabel10272400443D

 25 27  0  0  1  0  0  0  0  0999 V2000
  189.6250  177.5180  137.4090 C   0  0  0  0  0  0  0  0  0  0  0  0
  189.9900  176.3670  136.6170 N   0  0  0  0  0  0  0  0  0  0  0  0
  187.8880  175.4440  134.5090 C   0  0  2  0  0  3  0  0  0  0  0  0
  187.5950  174.8640  136.9990 C   0  0  0  0  0  2  0  0  0  0  0  0
  188.8020  176.6820  134.4810 C   0  0  0  0  0  2  0  0  0  0  0  0
  189.1230  173.5540  135.4560 C   0  0  0  0  0  0  0  0  0  0  0  0
  189.7840  172.4170  135.2940 C   0  0  0  0  0  2  0  0  0  0  0  0
  186.9080  175.3460  135.7070 C   0  0  1  0  0  0  0  0  0  0  0  0
  190.1130  175.0370  137.2080 C   0  0  0  0  0  2  0  0  0  0  0  0
  189.2970  178.5890  136.8260 O   0  0  0  0  0  0  0  0  0  0  0  0
  188.6160  174.2290  134.3470 O   0  0  0  0  0  0  0  0  0  0  0  0
  188.9390  174.1300  136.8300 C   0  0  1  0  0  3  0  0  0  0  0  0
  190.1520  176.4880  135.1720 C   0  0  0  0  0  2  0  0  0  0  0  0
  186.2640  176.6950  135.9980 C   0  0  0  0  0  1  0  0  0  0  0  0
  189.6190  177.4860  138.8900 C   0  0  0  0  0  0  0  0  0  0  0  0
  189.6530  177.4770  141.7010 C   0  0  0  0  0  3  0  0  0  0  0  0
  188.4800  177.8820  139.6200 C   0  0  0  0  0  0  0  0  0  0  0  0
  188.5010  177.8720  141.0180 C   0  0  0  0  0  3  0  0  0  0  0  0
  190.7900  177.0920  140.9880 C   0  0  0  0  0  3  0  0  0  0  0  0
  187.3410  178.2570  138.9860 F   0  0  0  0  0  0  0  0  0  0  0  0
  190.7730  177.0990  139.5910 C   0  0  0  0  0  3  0  0  0  0  0  0
  184.8260  173.9550  136.2830 C   0  0  0  0  0  0  0  0  0  0  0  0
  184.7670  174.4040  137.4590 O   0  0  0  0  0  0  0  0  0  0  0  0
  183.6080  172.7740  135.7270 S   0  0  0  0  0  1  0  0  0  0  0  0
  185.8580  174.3810  135.3850 N   0  0  0  0  0  2  0  0  0  0  0  0
  1 15  1  0  0  0  0
  2  9  1  0  0  0  0
  2  1  1  0  0  0  0
  3  5  1  1  0  0  0
  3  8  1  0  0  0  0
  5 13  1  0  0  0  0
  6 12  1  0  0  0  0
  7  6  2  0  0  0  0
  8 14  1  1  0  0  0
  8  4  1  0  0  0  0
 10  1  2  0  0  0  0
 11  3  1  0  0  0  0
 11  6  1  0  0  0  0
 12  4  1  6  0  0  0
 12  9  1  0  0  0  0
 13  2  1  0  0  0  0
 15 21  2  0  0  0  0
 15 17  1  0  0  0  0
 17 18  2  0  0  0  0
 18 16  1  0  0  0  0
 19 16  2  0  0  0  0
 20 17  1  0  0  0  0
 21 19  1  0  0  0  0
 22 23  2  0  0  0  0
 24 22  1  0  0  0  0
 25  8  1  0  0  0  0
 25 22  1  0  0  0  0
M  END
>  <MODEL>
4

>  <REMARK>
 VINA RESULT:      -4.9      1.408      1.479
  Name = 
  2 active torsions:
  status: ('A' for Active; 'I' for Inactive)
    1  A    between atoms: C_1  and  C_5
    2  A    between atoms: C_15  and  N_21
                            x       y       z     vdW  Elec       q    Type
                         _______ _______ _______ _____ _____    ______ ____

>  <TORSDO>
F 2

$$$$
=
 OpenBabel10272400443D

 25 27  0  0  1  0  0  0  0  0999 V2000
  188.6660  178.0880  139.5840 C   0  0  0  0  0  0  0  0  0  0  0  0
  189.5570  177.9660  138.4540 N   0  0  0  0  0  0  0  0  0  0  0  0
  188.2670  176.9430  135.8080 C   0  0  2  0  0  3  0  0  0  0  0  0
  188.8580  175.3040  137.7020 C   0  0  0  0  0  2  0  0  0  0  0  0
  188.1170  178.3160  136.4870 C   0  0  0  0  0  2  0  0  0  0  0  0
  190.5790  176.1740  136.0540 C   0  0  0  0  0  0  0  0  0  0  0  0
  191.7840  175.9790  135.5410 C   0  0  0  0  0  2  0  0  0  0  0  0
  187.8180  175.7160  136.6440 C   0  0  1  0  0  0  0  0  0  0  0  0
  190.6250  176.9690  138.4240 C   0  0  0  0  0  2  0  0  0  0  0  0
  187.6210  178.7870  139.4720 O   0  0  0  0  0  0  0  0  0  0  0  0
  189.5740  176.7430  135.2740 O   0  0  0  0  0  0  0  0  0  0  0  0
  190.2980  175.8080  137.4820 C   0  0  1  0  0  3  0  0  0  0  0  0
  189.3500  178.7790  137.2610 C   0  0  0  0  0  2  0  0  0  0  0  0
  186.5070  175.9970  137.3650 C   0  0  0  0  0  1  0  0  0  0  0  0
  188.9360  177.4170  140.8770 C   0  0  0  0  0  0  0  0  0  0  0  0
  189.4930  176.1900  143.3440 C   0  0  0  0  0  3  0  0  0  0  0  0
  187.9860  177.4440  141.9190 C   0  0  0  0  0  0  0  0  0  0  0  0
  188.2670  176.8280  143.1420 C   0  0  0  0  0  3  0  0  0  0  0  0
  190.4430  176.1650  142.3220 C   0  0  0  0  0  3  0  0  0  0  0  0
  186.7810  178.0430  141.7500 F   0  0  0  0  0  0  0  0  0  0  0  0
  190.1660  176.7780  141.0970 C   0  0  0  0  0  3  0  0  0  0  0  0
  187.1110  173.2980  136.1400 C   0  0  0  0  0  0  0  0  0  0  0  0
  186.7780  173.0740  137.3350 O   0  0  0  0  0  0  0  0  0  0  0  0
  186.9320  172.0090  134.9180 S   0  0  0  0  0  1  0  0  0  0  0  0
  187.6290  174.5740  135.7490 N   0  0  0  0  0  2  0  0  0  0  0  0
  1 15  1  0  0  0  0
  2  1  1  0  0  0  0
  3  5  1  1  0  0  0
  3  8  1  0  0  0  0
  5 13  1  0  0  0  0
  6 12  1  0  0  0  0
  7  6  2  0  0  0  0
  8 14  1  1  0  0  0
  8  4  1  0  0  0  0
  9  2  1  0  0  0  0
 10  1  2  0  0  0  0
 11  3  1  0  0  0  0
 11  6  1  0  0  0  0
 12  4  1  6  0  0  0
 12  9  1  0  0  0  0
 13  2  1  0  0  0  0
 15 21  2  0  0  0  0
 15 17  1  0  0  0  0
 17 18  2  0  0  0  0
 18 16  1  0  0  0  0
 19 16  2  0  0  0  0
 20 17  1  0  0  0  0
 21 19  1  0  0  0  0
 22 23  2  0  0  0  0
 24 22  1  0  0  0  0
 25 22  1  0  0  0  0
 25  8  1  0  0  0  0
M  END
>  <MODEL>
5

>  <REMARK>
 VINA RESULT:      -4.8      2.184      2.614
  Name = 
  2 active torsions:
  status: ('A' for Active; 'I' for Inactive)
    1  A    between atoms: C_1  and  C_5
    2  A    between atoms: C_15  and  N_21
                            x       y       z     vdW  Elec       q    Type
                         _______ _______ _______ _____ _____    ______ ____

>  <TORSDO>
F 2

$$$$
=
 OpenBabel10272400443D

 25 27  0  0  1  0  0  0  0  0999 V2000
  186.3790  177.8000  136.7180 C   0  0  0  0  0  0  0  0  0  0  0  0
  187.6120  178.0640  137.4220 N   0  0  0  0  0  0  0  0  0  0  0  0
  190.1690  176.7390  136.2300 C   0  0  2  0  0  3  0  0  0  0  0  0
  188.5130  175.3660  137.6410 C   0  0  0  0  0  2  0  0  0  0  0  0
  189.3570  177.9300  135.6880 C   0  0  0  0  0  2  0  0  0  0  0  0
  190.2660  176.8800  138.6730 C   0  0  0  0  0  0  0  0  0  0  0  0
  190.9330  177.1690  139.7800 C   0  0  0  0  0  2  0  0  0  0  0  0
  189.4000  175.4020  136.3820 C   0  0  1  0  0  0  0  0  0  0  0  0
  187.8570  177.5400  138.7640 C   0  0  0  0  0  2  0  0  0  0  0  0
  186.3040  178.0630  135.4860 O   0  0  0  0  0  0  0  0  0  0  0  0
  190.8690  177.0630  137.4290 O   0  0  0  0  0  0  0  0  0  0  0  0
  188.8540  176.3780  138.7510 C   0  0  1  0  0  3  0  0  0  0  0  0
  188.6950  178.7880  136.7650 C   0  0  0  0  0  2  0  0  0  0  0  0
  188.5070  175.1440  135.1760 C   0  0  0  0  0  1  0  0  0  0  0  0
  185.1920  177.2270  137.3950 C   0  0  0  0  0  0  0  0  0  0  0  0
  182.9800  176.1000  138.7140 C   0  0  0  0  0  3  0  0  0  0  0  0
  184.4330  177.9950  138.3020 C   0  0  0  0  0  0  0  0  0  0  0  0
  183.3320  177.4300  138.9510 C   0  0  0  0  0  3  0  0  0  0  0  0
  183.7310  175.3280  137.8250 C   0  0  0  0  0  3  0  0  0  0  0  0
  184.7400  179.2940  138.5430 F   0  0  0  0  0  0  0  0  0  0  0  0
  184.8310  175.8890  137.1720 C   0  0  0  0  0  3  0  0  0  0  0  0
  191.4000  174.0210  135.5500 C   0  0  0  0  0  0  0  0  0  0  0  0
  191.5400  174.7210  134.5130 O   0  0  0  0  0  0  0  0  0  0  0  0
  192.5070  172.6520  135.8470 S   0  0  0  0  0  1  0  0  0  0  0  0
  190.3650  174.3090  136.4970 N   0  0  0  0  0  2  0  0  0  0  0  0
  1 15  1  0  0  0  0
  1  2  1  0  0  0  0
  2  9  1  0  0  0  0
  3  5  1  1  0  0  0
  3  8  1  0  0  0  0
  3 11  1  0  0  0  0
  5 13  1  0  0  0  0
  6 12  1  0  0  0  0
  6  7  2  0  0  0  0
  8 14  1  6  0  0  0
  8 25  1  0  0  0  0
  8  4  1  0  0  0  0
 10  1  2  0  0  0  0
 11  6  1  0  0  0  0
 12  4  1  6  0  0  0
 12  9  1  0  0  0  0
 13  2  1  0  0  0  0
 15 17  1  0  0  0  0
 16 18  1  0  0  0  0
 17 20  1  0  0  0  0
 17 18  2  0  0  0  0
 19 16  2  0  0  0  0
 21 15  2  0  0  0  0
 21 19  1  0  0  0  0
 22 24  1  0  0  0  0
 22 25  1  0  0  0  0
 23 22  2  0  0  0  0
M  END
>  <MODEL>
6

>  <REMARK>
 VINA RESULT:      -4.6      2.931      5.220
  Name = 
  2 active torsions:
  status: ('A' for Active; 'I' for Inactive)
    1  A    between atoms: C_1  and  C_5
    2  A    between atoms: C_15  and  N_21
                            x       y       z     vdW  Elec       q    Type
                         _______ _______ _______ _____ _____    ______ ____

>  <TORSDO>
F 2

$$$$
=
 OpenBabel10272400443D

 25 27  0  0  1  0  0  0  0  0999 V2000
  183.5130  176.6770  136.4030 C   0  0  0  0  0  0  0  0  0  0  0  0
  182.3090  176.2800  137.0950 N   0  0  0  0  0  0  0  0  0  0  0  0
  181.1560  178.3530  139.1160 C   0  0  2  0  0  3  0  0  0  0  0  0
  183.1740  176.8870  139.7450 C   0  0  0  0  0  2  0  0  0  0  0  0
  181.1450  178.3970  137.5770 C   0  0  0  0  0  2  0  0  0  0  0  0
  180.7840  176.0490  139.8580 C   0  0  0  0  0  0  0  0  0  0  0  0
  179.9830  175.1190  140.3560 C   0  0  0  0  0  2  0  0  0  0  0  0
  182.5530  178.2960  139.7870 C   0  0  1  0  0  0  0  0  0  0  0  0
  182.3090  175.1930  138.0720 C   0  0  0  0  0  2  0  0  0  0  0  0
  183.5230  177.7610  135.7560 O   0  0  0  0  0  0  0  0  0  0  0  0
  180.3000  177.3380  139.6360 O   0  0  0  0  0  0  0  0  0  0  0  0
  182.2040  175.7140  139.5080 C   0  0  1  0  0  3  0  0  0  0  0  0
  181.0700  177.0260  136.9050 C   0  0  0  0  0  2  0  0  0  0  0  0
  183.5250  179.2520  139.1090 C   0  0  0  0  0  1  0  0  0  0  0  0
  184.7440  175.8520  136.4260 C   0  0  0  0  0  0  0  0  0  0  0  0
  187.0870  174.2990  136.4030 C   0  0  0  0  0  3  0  0  0  0  0  0
  185.9150  176.3170  137.0580 C   0  0  0  0  0  0  0  0  0  0  0  0
  187.0760  175.5380  137.0470 C   0  0  0  0  0  3  0  0  0  0  0  0
  185.9350  173.8350  135.7660 C   0  0  0  0  0  3  0  0  0  0  0  0
  185.9340  177.5100  137.7040 F   0  0  0  0  0  0  0  0  0  0  0  0
  184.7720  174.6080  135.7760 C   0  0  0  0  0  3  0  0  0  0  0  0
  183.4450  178.5280  142.1850 C   0  0  0  0  0  0  0  0  0  0  0  0
  184.5670  178.0370  141.8880 O   0  0  0  0  0  0  0  0  0  0  0  0
  183.1260  179.0520  143.8610 S   0  0  0  0  0  1  0  0  0  0  0  0
  182.4220  178.6730  141.1930 N   0  0  0  0  0  2  0  0  0  0  0  0
  1 15  1  0  0  0  0
  1  2  1  0  0  0  0
  2  9  1  0  0  0  0
  3  5  1  6  0  0  0
  3 11  1  0  0  0  0
  3  8  1  0  0  0  0
  4  8  1  0  0  0  0
  6  7  2  0  0  0  0
  8 14  1  6  0  0  0
  8 25  1  0  0  0  0
 10  1  2  0  0  0  0
 11  6  1  0  0  0  0
 12  9  1  6  0  0  0
 12  4  1  0  0  0  0
 12  6  1  0  0  0  0
 13  2  1  0  0  0  0
 13  5  1  0  0  0  0
 15 17  1  0  0  0  0
 16 18  1  0  0  0  0
 17 20  1  0  0  0  0
 18 17  2  0  0  0  0
 19 21  1  0  0  0  0
 19 16  2  0  0  0  0
 21 15  2  0  0  0  0
 22 24  1  0  0  0  0
 23 22  2  0  0  0  0
 25 22  1  0  0  0  0
M  END
>  <MODEL>
7

>  <REMARK>
 VINA RESULT:      -4.4      4.492      7.089
  Name = 
  2 active torsions:
  status: ('A' for Active; 'I' for Inactive)
    1  A    between atoms: C_1  and  C_5
    2  A    between atoms: C_15  and  N_21
                            x       y       z     vdW  Elec       q    Type
                         _______ _______ _______ _____ _____    ______ ____

>  <TORSDO>
F 2

$$$$
=
 OpenBabel10272400443D

 25 27  0  0  1  0  0  0  0  0999 V2000
  186.9480  176.6390  135.9760 C   0  0  0  0  0  0  0  0  0  0  0  0
  186.4290  175.3160  135.7210 N   0  0  0  0  0  0  0  0  0  0  0  0
  183.3380  175.1090  135.3770 C   0  0  2  0  0  3  0  0  0  0  0  0
  184.3900  175.3120  137.7160 C   0  0  0  0  0  2  0  0  0  0  0  0
  184.3800  175.6960  134.4070 C   0  0  0  0  0  2  0  0  0  0  0  0
  184.2740  173.1170  136.4510 C   0  0  0  0  0  0  0  0  0  0  0  0
  184.3500  171.7990  136.5580 C   0  0  0  0  0  2  0  0  0  0  0  0
  183.2600  175.7720  136.7760 C   0  0  1  0  0  0  0  0  0  0  0  0
  186.4770  174.2640  136.7350 C   0  0  0  0  0  2  0  0  0  0  0  0
  186.6740  177.5740  135.1740 O   0  0  0  0  0  0  0  0  0  0  0  0
  183.4430  173.6910  135.4910 O   0  0  0  0  0  0  0  0  0  0  0  0
  185.1000  173.9950  137.3460 C   0  0  1  0  0  3  0  0  0  0  0  0
  185.7500  175.0200  134.4640 C   0  0  0  0  0  2  0  0  0  0  0  0
  183.3340  177.2890  136.6680 C   0  0  0  0  0  1  0  0  0  0  0  0
  187.7940  176.9410  137.1550 C   0  0  0  0  0  0  0  0  0  0  0  0
  189.4370  177.5510  139.3520 C   0  0  0  0  0  3  0  0  0  0  0  0
  187.3090  177.7420  138.2090 C   0  0  0  0  0  0  0  0  0  0  0  0
  188.1300  178.0380  139.3010 C   0  0  0  0  0  3  0  0  0  0  0  0
  189.9300  176.7650  138.3090 C   0  0  0  0  0  3  0  0  0  0  0  0
  186.0390  178.2180  138.1970 F   0  0  0  0  0  0  0  0  0  0  0  0
  189.1130  176.4640  137.2170 C   0  0  0  0  0  3  0  0  0  0  0  0
  181.6880  175.5580  138.7970 C   0  0  0  0  0  0  0  0  0  0  0  0
  182.5390  176.0330  139.5960 O   0  0  0  0  0  0  0  0  0  0  0  0
  180.0830  175.0700  139.4060 S   0  0  0  0  0  1  0  0  0  0  0  0
  181.9920  175.4050  137.4060 N   0  0  0  0  0  2  0  0  0  0  0  0
  1 15  1  0  0  0  0
  2  1  1  0  0  0  0
  2  9  1  0  0  0  0
  3  5  1  1  0  0  0
  3 11  1  0  0  0  0
  3  8  1  0  0  0  0
  5 13  1  0  0  0  0
  6  7  2  0  0  0  0
  6 12  1  0  0  0  0
  8 14  1  6  0  0  0
  8 25  1  0  0  0  0
  8  4  1  0  0  0  0
 10  1  2  0  0  0  0
 11  6  1  0  0  0  0
 12  9  1  6  0  0  0
 12  4  1  0  0  0  0
 13  2  1  0  0  0  0
 15 21  2  0  0  0  0
 15 17  1  0  0  0  0
 17 18  2  0  0  0  0
 18 16  1  0  0  0  0
 19 16  2  0  0  0  0
 20 17  1  0  0  0  0
 21 19  1  0  0  0  0
 22 24  1  0  0  0  0
 22 23  2  0  0  0  0
 25 22  1  0  0  0  0
M  END
>  <MODEL>
8

>  <REMARK>
 VINA RESULT:      -4.4      2.685      3.705
  Name = 
  2 active torsions:
  status: ('A' for Active; 'I' for Inactive)
    1  A    between atoms: C_1  and  C_5
    2  A    between atoms: C_15  and  N_21
                            x       y       z     vdW  Elec       q    Type
                         _______ _______ _______ _____ _____    ______ ____

>  <TORSDO>
F 2

$$$$
=
 OpenBabel10272400443D

 25 27  0  0  1  0  0  0  0  0999 V2000
  184.1830  176.7270  136.6270 C   0  0  0  0  0  0  0  0  0  0  0  0
  185.3510  175.9860  136.2120 N   0  0  0  0  0  0  0  0  0  0  0  0
  184.8090  173.1880  134.9500 C   0  0  2  0  0  3  0  0  0  0  0  0
  184.7160  173.5200  137.5000 C   0  0  0  0  0  2  0  0  0  0  0  0
  184.5650  174.5830  134.3460 C   0  0  0  0  0  2  0  0  0  0  0  0
  186.8940  173.2230  136.2350 C   0  0  0  0  0  0  0  0  0  0  0  0
  188.1800  172.9240  136.3440 C   0  0  0  0  0  2  0  0  0  0  0  0
  184.0550  172.8740  136.2680 C   0  0  1  0  0  0  0  0  0  0  0  0
  186.3110  175.4620  137.1810 C   0  0  0  0  0  2  0  0  0  0  0  0
  183.2650  176.9500  135.7900 O   0  0  0  0  0  0  0  0  0  0  0  0
  186.1980  172.8870  135.0740 O   0  0  0  0  0  0  0  0  0  0  0  0
  186.1890  173.9450  137.3460 C   0  0  1  0  0  3  0  0  0  0  0  0
  185.5520  175.6540  134.8060 C   0  0  0  0  0  2  0  0  0  0  0  0
  182.6150  173.3620  136.2040 C   0  0  0  0  0  1  0  0  0  0  0  0
  184.0220  177.2360  138.0090 C   0  0  0  0  0  0  0  0  0  0  0  0
  183.7370  178.1440  140.6540 C   0  0  0  0  0  3  0  0  0  0  0  0
  184.8780  178.2340  138.5180 C   0  0  0  0  0  0  0  0  0  0  0  0
  184.7280  178.6850  139.8330 C   0  0  0  0  0  3  0  0  0  0  0  0
  182.8910  177.1490  140.1630 C   0  0  0  0  0  3  0  0  0  0  0  0
  185.8410  178.7900  137.7410 F   0  0  0  0  0  0  0  0  0  0  0  0
  183.0350  176.6970  138.8490 C   0  0  0  0  0  3  0  0  0  0  0  0
  183.6560  170.4510  135.5130 C   0  0  0  0  0  0  0  0  0  0  0  0
  183.2590  170.8000  134.3690 O   0  0  0  0  0  0  0  0  0  0  0  0
  183.7260  168.7170  135.9310 S   0  0  0  0  0  1  0  0  0  0  0  0
  184.0540  171.4270  136.4820 N   0  0  0  0  0  2  0  0  0  0  0  0
  1 15  1  0  0  0  0
  2  1  1  0  0  0  0
  2  9  1  0  0  0  0
  3  5  1  1  0  0  0
  3 11  1  0  0  0  0
  3  8  1  0  0  0  0
  5 13  1  0  0  0  0
  6  7  2  0  0  0  0
  6 12  1  0  0  0  0
  8 14  1  6  0  0  0
  8 25  1  0  0  0  0
  8  4  1  0  0  0  0
 10  1  2  0  0  0  0
 11  6  1  0  0  0  0
 12  9  1  6  0  0  0
 12  4  1  0  0  0  0
 13  2  1  0  0  0  0
 15 17  2  0  0  0  0
 15 21  1  0  0  0  0
 17 18  1  0  0  0  0
 18 16  2  0  0  0  0
 19 16  1  0  0  0  0
 20 17  1  0  0  0  0
 21 19  2  0  0  0  0
 22 24  1  0  0  0  0
 22 25  1  0  0  0  0
 23 22  2  0  0  0  0
M  END
>  <MODEL>
9

>  <REMARK>
 VINA RESULT:      -4.4      3.731      4.881
  Name = 
  2 active torsions:
  status: ('A' for Active; 'I' for Inactive)
    1  A    between atoms: C_1  and  C_5
    2  A    between atoms: C_15  and  N_21
                            x       y       z     vdW  Elec       q    Type
                         _______ _______ _______ _____ _____    ______ ____

>  <TORSDO>
F 2

$$$$
