=
 OpenBabel10272401593D

 28 31  0  0  1  0  0  0  0  0999 V2000
  187.6560  177.3400  136.8790 C   0  0  2  0  0  3  0  0  0  0  0  0
  182.6080  178.3190  140.4790 C   0  0  1  0  0  3  0  0  0  0  0  0
  184.3260  174.6100  137.7170 O   0  0  0  0  0  1  0  0  0  0  0  0
  182.4610  179.5290  138.3360 C   0  0  2  0  0  3  0  0  0  0  0  0
  184.1840  177.5740  138.5910 C   0  0  2  0  0  3  0  0  0  0  0  0
  181.5350  179.2930  140.5650 N   0  0  0  0  0  2  0  0  0  0  0  0
  183.4140  178.7270  139.2460 C   0  0  2  0  0  3  0  0  0  0  0  0
  182.6660  177.7280  136.5770 C   0  0  0  0  0  2  0  0  0  0  0  0
  181.4680  179.9870  139.3330 C   0  0  0  0  0  0  0  0  0  0  0  0
  185.5030  176.1770  136.3330 C   0  0  1  0  0  3  0  0  0  0  0  0
  185.4690  178.1030  137.9620 C   0  0  0  0  0  2  0  0  0  0  0  0
  181.7190  178.6460  137.3280 C   0  0  0  0  0  2  0  0  0  0  0  0
  186.5430  177.8440  134.7070 C   0  0  0  0  0  3  0  0  0  0  0  0
  184.1410  175.6930  136.8560 C   0  0  2  0  0  3  0  0  0  0  0  0
  185.3290  177.0190  135.0600 C   0  0  0  0  0  2  0  0  0  0  0  0
  180.6280  180.8990  139.1150 O   0  0  0  0  0  0  0  0  0  0  0  0
  183.4740  178.3960  141.7200 C   0  0  0  0  0  1  0  0  0  0  0  0
  183.3350  176.7900  137.5730 C   0  0  1  0  0  3  0  0  0  0  0  0
  187.5720  178.0300  135.5450 C   0  0  0  0  0  3  0  0  0  0  0  0
  186.2830  176.9270  137.4230 C   0  0  2  0  0  3  0  0  0  0  0  0
  188.4900  178.1600  137.8700 C   0  0  0  0  0  2  0  0  0  0  0  0
  189.4170  177.3550  138.6860 N   0  0  0  0  0  0  0  0  0  0  0  0
  189.6230  176.0370  138.0630 C   0  0  0  0  0  2  0  0  0  0  0  0
  190.8410  175.4680  138.4500 O   0  0  0  0  0  1  0  0  0  0  0  0
  188.0800  178.4250  140.4700 C   0  0  0  0  0  1  0  0  0  0  0  0
  189.0050  177.2710  140.1010 C   0  0  2  0  0  3  0  0  0  0  0  0
  190.2070  177.2860  141.0490 C   0  0  0  0  0  2  0  0  0  0  0  0
  190.3150  176.0720  141.7320 O   0  0  0  0  0  1  0  0  0  0  0  0
  1 20  1  0  0  0  0
  1 21  1  1  0  0  0
  2  6  1  0  0  0  0
  2 17  1  1  0  0  0
  4 12  1  6  0  0  0
  4  7  1  0  0  0  0
  4  9  1  0  0  0  0
  5 11  1  6  0  0  0
  5  7  1  0  0  0  0
  7  2  1  0  0  0  0
  8 12  1  0  0  0  0
  8 18  1  0  0  0  0
  9  6  1  0  0  0  0
 10 14  1  0  0  0  0
 10 20  1  0  0  0  0
 13 15  1  0  0  0  0
 13 19  2  0  0  0  0
 14 18  1  0  0  0  0
 14  3  1  0  0  0  0
 15 10  1  0  0  0  0
 16  9  2  0  0  0  0
 18  5  1  0  0  0  0
 19  1  1  0  0  0  0
 20 11  1  0  0  0  0
 21 22  1  0  0  0  0
 22 26  1  0  0  0  0
 23 24  1  0  0  0  0
 23 22  1  0  0  0  0
 26 25  1  0  0  0  0
 26 27  1  0  0  0  0
 27 28  1  0  0  0  0
M  END
>  <MODEL>
1

>  <REMARK>
 VINA RESULT:      -5.7      0.000      0.000
  Name = 
  5 active torsions:
  status: ('A' for Active; 'I' for Inactive)
    1  A    between atoms: C_1  and  C_2
    2  A    between atoms: C_2  and  N_3
    3  A    between atoms: N_3  and  C_7
    4  A    between atoms: N_3  and  C_11
    5  A    between atoms: C_6  and  C_11
                            x       y       z     vdW  Elec       q    Type
                         _______ _______ _______ _____ _____    ______ ____

>  <TORSDO>
F 5

$$$$
=
 OpenBabel10272401593D

 28 31  0  0  1  0  0  0  0  0999 V2000
  186.9340  178.9290  141.7410 C   0  0  2  0  0  3  0  0  0  0  0  0
  185.8720  177.3670  135.7550 C   0  0  1  0  0  3  0  0  0  0  0  0
  184.0950  180.7140  138.9140 O   0  0  0  0  0  1  0  0  0  0  0  0
  184.9050  175.7270  137.3210 C   0  0  2  0  0  3  0  0  0  0  0  0
  185.5850  178.0970  138.2010 C   0  0  2  0  0  3  0  0  0  0  0  0
  185.5100  176.1710  135.0150 N   0  0  0  0  0  2  0  0  0  0  0  0
  185.8460  176.9450  137.2240 C   0  0  2  0  0  3  0  0  0  0  0  0
  183.3420  177.0820  138.7700 C   0  0  0  0  0  2  0  0  0  0  0  0
  184.9670  175.2350  135.9270 C   0  0  0  0  0  0  0  0  0  0  0  0
  184.6560  179.2830  140.7550 C   0  0  1  0  0  3  0  0  0  0  0  0
  186.3080  177.8310  139.5180 C   0  0  0  0  0  2  0  0  0  0  0  0
  183.4520  176.1200  137.6010 C   0  0  0  0  0  2  0  0  0  0  0  0
  185.0100  177.6670  142.6970 C   0  0  0  0  0  3  0  0  0  0  0  0
  183.8300  179.4620  139.4710 C   0  0  2  0  0  3  0  0  0  0  0  0
  184.0640  178.1690  141.6320 C   0  0  0  0  0  2  0  0  0  0  0  0
  184.5640  174.0970  135.5690 O   0  0  0  0  0  0  0  0  0  0  0  0
  187.2670  177.8130  135.3620 C   0  0  0  0  0  1  0  0  0  0  0  0
  184.0840  178.3650  138.4220 C   0  0  1  0  0  3  0  0  0  0  0  0
  186.3150  177.9690  142.7200 C   0  0  0  0  0  3  0  0  0  0  0  0
  186.1390  179.0430  140.4340 C   0  0  2  0  0  3  0  0  0  0  0  0
  188.4210  178.6170  141.5320 C   0  0  0  0  0  2  0  0  0  0  0  0
  188.9800  177.6710  142.5140 N   0  0  0  0  0  0  0  0  0  0  0  0
  189.8360  178.3870  143.4740 C   0  0  0  0  0  2  0  0  0  0  0  0
  189.3290  178.3090  144.7760 O   0  0  0  0  0  1  0  0  0  0  0  0
  190.4140  175.6960  142.9110 C   0  0  0  0  0  1  0  0  0  0  0  0
  189.6530  176.5210  141.8800 C   0  0  2  0  0  3  0  0  0  0  0  0
  190.6320  176.9620  140.7880 C   0  0  0  0  0  2  0  0  0  0  0  0
  190.5620  176.1080  139.6850 O   0  0  0  0  0  1  0  0  0  0  0  0
  1 21  1  6  0  0  0
  1 19  1  0  0  0  0
  2 17  1  6  0  0  0
  2  7  1  0  0  0  0
  3 14  1  0  0  0  0
  4 12  1  6  0  0  0
  5 18  1  0  0  0  0
  5 11  1  1  0  0  0
  6  2  1  0  0  0  0
  6  9  1  0  0  0  0
  7  4  1  0  0  0  0
  7  5  1  0  0  0  0
  9  4  1  0  0  0  0
 10 15  1  0  0  0  0
 11 20  1  0  0  0  0
 12  8  1  0  0  0  0
 13 19  2  0  0  0  0
 14 10  1  0  0  0  0
 15 13  1  0  0  0  0
 16  9  2  0  0  0  0
 18  8  1  0  0  0  0
 18 14  1  0  0  0  0
 20 10  1  0  0  0  0
 20  1  1  0  0  0  0
 21 22  1  0  0  0  0
 22 23  1  0  0  0  0
 23 24  1  0  0  0  0
 26 22  1  0  0  0  0
 26 25  1  0  0  0  0
 27 26  1  0  0  0  0
 28 27  1  0  0  0  0
M  END
>  <MODEL>
2

>  <REMARK>
 VINA RESULT:      -5.7      2.310      5.217
  Name = 
  5 active torsions:
  status: ('A' for Active; 'I' for Inactive)
    1  A    between atoms: C_1  and  C_2
    2  A    between atoms: C_2  and  N_3
    3  A    between atoms: N_3  and  C_7
    4  A    between atoms: N_3  and  C_11
    5  A    between atoms: C_6  and  C_11
                            x       y       z     vdW  Elec       q    Type
                         _______ _______ _______ _____ _____    ______ ____

>  <TORSDO>
F 5

$$$$
=
 OpenBabel10272401593D

 28 31  0  0  1  0  0  0  0  0999 V2000
  183.1160  179.5680  143.4900 C   0  0  2  0  0  3  0  0  0  0  0  0
  183.6720  177.2860  137.6680 C   0  0  1  0  0  3  0  0  0  0  0  0
  180.7820  180.5920  139.9190 O   0  0  0  0  0  1  0  0  0  0  0  0
  182.6040  175.6710  139.1940 C   0  0  2  0  0  3  0  0  0  0  0  0
  182.7360  178.1930  139.8830 C   0  0  2  0  0  3  0  0  0  0  0  0
  183.6540  175.9820  137.0310 N   0  0  0  0  0  2  0  0  0  0  0  0
  183.3680  177.0090  139.1410 C   0  0  2  0  0  3  0  0  0  0  0  0
  180.5820  176.8890  140.0910 C   0  0  0  0  0  2  0  0  0  0  0  0
  183.0480  175.0630  137.9210 C   0  0  0  0  0  0  0  0  0  0  0  0
  181.0960  179.4540  142.0070 C   0  0  1  0  0  3  0  0  0  0  0  0
  183.1680  178.1750  141.3460 C   0  0  0  0  0  2  0  0  0  0  0  0
  181.0850  175.8500  139.1070 C   0  0  0  0  0  2  0  0  0  0  0  0
  181.2130  178.1110  144.1720 C   0  0  0  0  0  3  0  0  0  0  0  0
  180.5700  179.3730  140.5660 C   0  0  2  0  0  3  0  0  0  0  0  0
  180.4770  178.3490  142.8760 C   0  0  0  0  0  2  0  0  0  0  0  0
  182.8960  173.8460  137.6350 O   0  0  0  0  0  0  0  0  0  0  0  0
  185.0450  177.9100  137.5250 C   0  0  0  0  0  1  0  0  0  0  0  0
  181.2030  178.2360  139.7450 C   0  0  1  0  0  3  0  0  0  0  0  0
  182.4250  178.6200  144.4310 C   0  0  0  0  0  3  0  0  0  0  0  0
  182.6320  179.4260  142.0410 C   0  0  2  0  0  3  0  0  0  0  0  0
  184.6390  179.4810  143.6420 C   0  0  0  0  0  2  0  0  0  0  0  0
  185.0880  178.4620  144.6080 N   0  0  0  0  0  0  0  0  0  0  0  0
  185.5060  179.1060  145.8630 C   0  0  0  0  0  2  0  0  0  0  0  0
  184.7500  178.6530  146.9510 O   0  0  0  0  0  1  0  0  0  0  0  0
  187.3050  177.4360  144.9910 C   0  0  0  0  0  1  0  0  0  0  0  0
  186.1140  177.5590  144.0490 C   0  0  2  0  0  3  0  0  0  0  0  0
  186.6170  178.0400  142.6850 C   0  0  0  0  0  2  0  0  0  0  0  0
  188.0110  177.9730  142.6200 O   0  0  0  0  0  1  0  0  0  0  0  0
  1 21  1  6  0  0  0
  1 19  1  0  0  0  0
  2 17  1  1  0  0  0
  2  7  1  0  0  0  0
  3 14  1  0  0  0  0
  4 12  1  6  0  0  0
  5 11  1  1  0  0  0
  6  2  1  0  0  0  0
  6  9  1  0  0  0  0
  7  4  1  0  0  0  0
  7  5  1  0  0  0  0
  9  4  1  0  0  0  0
 10 20  1  0  0  0  0
 10 15  1  0  0  0  0
 11 20  1  0  0  0  0
 12  8  1  0  0  0  0
 13 19  2  0  0  0  0
 14 10  1  0  0  0  0
 15 13  1  0  0  0  0
 16  9  2  0  0  0  0
 18  5  1  0  0  0  0
 18  8  1  0  0  0  0
 18 14  1  0  0  0  0
 20  1  1  0  0  0  0
 21 22  1  0  0  0  0
 22 23  1  0  0  0  0
 23 24  1  0  0  0  0
 26 22  1  0  0  0  0
 26 25  1  0  0  0  0
 27 26  1  0  0  0  0
 28 27  1  0  0  0  0
M  END
>  <MODEL>
3

>  <REMARK>
 VINA RESULT:      -5.7      3.151      6.501
  Name = 
  5 active torsions:
  status: ('A' for Active; 'I' for Inactive)
    1  A    between atoms: C_1  and  C_2
    2  A    between atoms: C_2  and  N_3
    3  A    between atoms: N_3  and  C_7
    4  A    between atoms: N_3  and  C_11
    5  A    between atoms: C_6  and  C_11
                            x       y       z     vdW  Elec       q    Type
                         _______ _______ _______ _____ _____    ______ ____

>  <TORSDO>
F 5

$$$$
=
 OpenBabel10272401593D

 28 31  0  0  1  0  0  0  0  0999 V2000
  189.5490  177.2000  138.6120 C   0  0  2  0  0  3  0  0  0  0  0  0
  184.7570  173.7270  136.5170 C   0  0  1  0  0  3  0  0  0  0  0  0
  189.2860  174.8530  134.9150 O   0  0  0  0  0  1  0  0  0  0  0  0
  184.3270  176.1400  136.2620 C   0  0  2  0  0  3  0  0  0  0  0  0
  186.7760  175.3090  136.6670 C   0  0  2  0  0  3  0  0  0  0  0  0
  183.3490  173.9220  136.2270 N   0  0  0  0  0  2  0  0  0  0  0  0
  185.2750  175.1110  136.9100 C   0  0  2  0  0  3  0  0  0  0  0  0
  186.2430  176.9790  134.8470 C   0  0  0  0  0  2  0  0  0  0  0  0
  183.1130  175.3120  136.0940 C   0  0  0  0  0  0  0  0  0  0  0  0
  189.2150  176.9130  136.1440 C   0  0  1  0  0  3  0  0  0  0  0  0
  187.3450  176.2660  137.7100 C   0  0  0  0  0  2  0  0  0  0  0  0
  184.7820  176.5710  134.8650 C   0  0  0  0  0  2  0  0  0  0  0  0
  189.0480  179.2130  137.2320 C   0  0  0  0  0  3  0  0  0  0  0  0
  188.5920  176.0600  135.0270 C   0  0  2  0  0  3  0  0  0  0  0  0
  188.8140  178.3880  135.9900 C   0  0  0  0  0  2  0  0  0  0  0  0
  181.9740  175.7830  135.8410 O   0  0  0  0  0  0  0  0  0  0  0  0
  184.9160  172.7610  137.6750 C   0  0  0  0  0  1  0  0  0  0  0  0
  187.0940  175.7770  135.2340 C   0  0  1  0  0  3  0  0  0  0  0  0
  189.3320  178.6770  138.4270 C   0  0  0  0  0  3  0  0  0  0  0  0
  188.8610  176.3560  137.5310 C   0  0  2  0  0  3  0  0  0  0  0  0
  189.2010  176.7700  140.0430 C   0  0  0  0  0  2  0  0  0  0  0  0
  189.6870  177.6950  141.0820 N   0  0  0  0  0  0  0  0  0  0  0  0
  190.9550  177.2030  141.6440 C   0  0  0  0  0  2  0  0  0  0  0  0
  192.0510  177.6080  140.8740 O   0  0  0  0  0  1  0  0  0  0  0  0
  188.3360  176.7300  142.9140 C   0  0  0  0  0  1  0  0  0  0  0  0
  188.6680  177.9810  142.1110 C   0  0  2  0  0  3  0  0  0  0  0  0
  187.3740  178.5260  141.5000 C   0  0  0  0  0  2  0  0  0  0  0  0
  186.2790  178.2350  142.3170 O   0  0  0  0  0  1  0  0  0  0  0  0
  1 21  1  1  0  0  0
  2  7  1  0  0  0  0
  2 17  1  1  0  0  0
  3 14  1  0  0  0  0
  4 12  1  6  0  0  0
  4  7  1  0  0  0  0
  5  7  1  0  0  0  0
  5 11  1  1  0  0  0
  6  2  1  0  0  0  0
  8 12  1  0  0  0  0
  8 18  1  0  0  0  0
  9  6  1  0  0  0  0
  9  4  1  0  0  0  0
 10 20  1  0  0  0  0
 13 19  2  0  0  0  0
 14 18  1  0  0  0  0
 14 10  1  0  0  0  0
 15 10  1  0  0  0  0
 15 13  1  0  0  0  0
 16  9  2  0  0  0  0
 18  5  1  0  0  0  0
 19  1  1  0  0  0  0
 20 11  1  0  0  0  0
 20  1  1  0  0  0  0
 21 22  1  0  0  0  0
 22 23  1  0  0  0  0
 22 26  1  0  0  0  0
 24 23  1  0  0  0  0
 26 25  1  0  0  0  0
 27 26  1  0  0  0  0
 27 28  1  0  0  0  0
M  END
>  <MODEL>
4

>  <REMARK>
 VINA RESULT:      -5.4      3.175      4.422
  Name = 
  5 active torsions:
  status: ('A' for Active; 'I' for Inactive)
    1  A    between atoms: C_1  and  C_2
    2  A    between atoms: C_2  and  N_3
    3  A    between atoms: N_3  and  C_7
    4  A    between atoms: N_3  and  C_11
    5  A    between atoms: C_6  and  C_11
                            x       y       z     vdW  Elec       q    Type
                         _______ _______ _______ _____ _____    ______ ____

>  <TORSDO>
F 5

$$$$
=
 OpenBabel10272401593D

 28 31  0  0  1  0  0  0  0  0999 V2000
  184.1000  178.6480  142.7680 C   0  0  2  0  0  3  0  0  0  0  0  0
  182.8350  175.5190  137.4750 C   0  0  1  0  0  3  0  0  0  0  0  0
  182.8880  180.2520  138.8690 O   0  0  0  0  0  1  0  0  0  0  0  0
  181.0220  175.3010  139.1300 C   0  0  2  0  0  3  0  0  0  0  0  0
  182.7940  177.2070  139.4120 C   0  0  2  0  0  3  0  0  0  0  0  0
  181.9480  174.4490  137.0580 N   0  0  0  0  0  2  0  0  0  0  0  0
  182.4740  175.7850  138.9370 C   0  0  2  0  0  3  0  0  0  0  0  0
  180.3200  177.6770  139.6180 C   0  0  0  0  0  2  0  0  0  0  0  0
  180.9190  174.3270  138.0220 C   0  0  0  0  0  0  0  0  0  0  0  0
  182.4500  179.5960  141.1350 C   0  0  1  0  0  3  0  0  0  0  0  0
  183.1580  177.1860  140.8940 C   0  0  0  0  0  2  0  0  0  0  0  0
  179.9890  176.4000  138.8690 C   0  0  0  0  0  2  0  0  0  0  0  0
  181.7310  178.9300  143.4890 C   0  0  0  0  0  3  0  0  0  0  0  0
  181.9510  179.6090  139.6810 C   0  0  2  0  0  3  0  0  0  0  0  0
  181.2880  179.3420  142.1070 C   0  0  0  0  0  2  0  0  0  0  0  0
  179.9990  173.4730  137.9240 O   0  0  0  0  0  0  0  0  0  0  0  0
  184.2770  175.0650  137.3670 C   0  0  0  0  0  1  0  0  0  0  0  0
  181.6590  178.2060  139.1200 C   0  0  1  0  0  3  0  0  0  0  0  0
  182.9890  178.5690  143.7790 C   0  0  0  0  0  3  0  0  0  0  0  0
  183.5940  178.5870  141.3220 C   0  0  2  0  0  3  0  0  0  0  0  0
  185.1990  177.6250  143.0800 C   0  0  0  0  0  2  0  0  0  0  0  0
  186.3860  178.2020  143.7360 N   0  0  0  0  0  0  0  0  0  0  0  0
  187.5910  177.9200  142.9380 C   0  0  0  0  0  2  0  0  0  0  0  0
  187.4730  178.4170  141.6350 O   0  0  0  0  0  1  0  0  0  0  0  0
  185.7840  178.7560  146.0690 C   0  0  0  0  0  1  0  0  0  0  0  0
  186.5150  177.7880  145.1470 C   0  0  2  0  0  3  0  0  0  0  0  0
  187.9790  177.7040  145.5880 C   0  0  0  0  0  2  0  0  0  0  0  0
  188.0710  177.3440  146.9350 O   0  0  0  0  0  1  0  0  0  0  0  0
  1 21  1  1  0  0  0
  1 19  1  0  0  0  0
  2 17  1  1  0  0  0
  2  7  1  0  0  0  0
  3 14  1  0  0  0  0
  4 12  1  6  0  0  0
  5 11  1  1  0  0  0
  6  2  1  0  0  0  0
  6  9  1  0  0  0  0
  7  4  1  0  0  0  0
  7  5  1  0  0  0  0
  9  4  1  0  0  0  0
 10 20  1  0  0  0  0
 10 15  1  0  0  0  0
 11 20  1  0  0  0  0
 12  8  1  0  0  0  0
 13 19  2  0  0  0  0
 14 10  1  0  0  0  0
 15 13  1  0  0  0  0
 16  9  2  0  0  0  0
 18  5  1  0  0  0  0
 18  8  1  0  0  0  0
 18 14  1  0  0  0  0
 20  1  1  0  0  0  0
 21 22  1  0  0  0  0
 22 26  1  0  0  0  0
 23 22  1  0  0  0  0
 24 23  1  0  0  0  0
 26 27  1  0  0  0  0
 26 25  1  0  0  0  0
 27 28  1  0  0  0  0
M  END
>  <MODEL>
5

>  <REMARK>
 VINA RESULT:      -5.4      3.469      5.860
  Name = 
  5 active torsions:
  status: ('A' for Active; 'I' for Inactive)
    1  A    between atoms: C_1  and  C_2
    2  A    between atoms: C_2  and  N_3
    3  A    between atoms: N_3  and  C_7
    4  A    between atoms: N_3  and  C_11
    5  A    between atoms: C_6  and  C_11
                            x       y       z     vdW  Elec       q    Type
                         _______ _______ _______ _____ _____    ______ ____

>  <TORSDO>
F 5

$$$$
=
 OpenBabel10272401593D

 28 31  0  0  1  0  0  0  0  0999 V2000
  186.5720  175.9990  136.1840 C   0  0  2  0  0  3  0  0  0  0  0  0
  188.5090  178.3340  141.6790 C   0  0  1  0  0  3  0  0  0  0  0  0
  188.3180  179.9360  137.0160 O   0  0  0  0  0  1  0  0  0  0  0  0
  190.0790  176.6570  140.7860 C   0  0  2  0  0  3  0  0  0  0  0  0
  188.3050  177.7330  139.1890 C   0  0  2  0  0  3  0  0  0  0  0  0
  189.4330  177.9520  142.7310 N   0  0  0  0  0  2  0  0  0  0  0  0
  188.6720  177.2620  140.6010 C   0  0  2  0  0  3  0  0  0  0  0  0
  190.7330  177.5480  138.5150 C   0  0  0  0  0  2  0  0  0  0  0  0
  190.3210  176.9810  142.2080 C   0  0  0  0  0  0  0  0  0  0  0  0
  188.4380  177.6730  136.2280 C   0  0  1  0  0  3  0  0  0  0  0  0
  187.7440  176.5640  138.3850 C   0  0  0  0  0  2  0  0  0  0  0  0
  191.1500  177.3800  139.9640 C   0  0  0  0  0  2  0  0  0  0  0  0
  188.8240  175.3010  135.3760 C   0  0  0  0  0  3  0  0  0  0  0  0
  189.1290  178.7990  137.0130 C   0  0  2  0  0  3  0  0  0  0  0  0
  189.4550  176.6050  135.7990 C   0  0  0  0  0  2  0  0  0  0  0  0
  191.2370  176.4610  142.8980 O   0  0  0  0  0  0  0  0  0  0  0  0
  187.0910  178.3290  142.2130 C   0  0  0  0  0  1  0  0  0  0  0  0
  189.4800  178.4110  138.4600 C   0  0  1  0  0  3  0  0  0  0  0  0
  187.5340  175.0050  135.5930 C   0  0  0  0  0  3  0  0  0  0  0  0
  187.2690  177.0750  137.0250 C   0  0  2  0  0  3  0  0  0  0  0  0
  185.4300  175.2860  136.9180 C   0  0  0  0  0  2  0  0  0  0  0  0
  184.5190  174.5400  136.0310 N   0  0  0  0  0  0  0  0  0  0  0  0
  183.2190  175.2260  135.9510 C   0  0  0  0  0  2  0  0  0  0  0  0
  182.1560  174.3450  136.1780 O   0  0  0  0  0  1  0  0  0  0  0  0
  185.0490  172.8490  137.7550 C   0  0  0  0  0  1  0  0  0  0  0  0
  184.4020  173.1160  136.4020 C   0  0  2  0  0  3  0  0  0  0  0  0
  185.0500  172.1990  135.3610 C   0  0  0  0  0  2  0  0  0  0  0  0
  186.2130  171.6160  135.8700 O   0  0  0  0  0  1  0  0  0  0  0  0
  1 21  1  1  0  0  0
  1 20  1  0  0  0  0
  2 17  1  1  0  0  0
  2  6  1  0  0  0  0
  4 12  1  6  0  0  0
  4  9  1  0  0  0  0
  5 11  1  6  0  0  0
  5  7  1  0  0  0  0
  7  4  1  0  0  0  0
  7  2  1  0  0  0  0
  8 12  1  0  0  0  0
  9  6  1  0  0  0  0
  9 16  2  0  0  0  0
 10 14  1  0  0  0  0
 10 20  1  0  0  0  0
 13 19  2  0  0  0  0
 13 15  1  0  0  0  0
 14  3  1  0  0  0  0
 14 18  1  0  0  0  0
 15 10  1  0  0  0  0
 18  8  1  0  0  0  0
 18  5  1  0  0  0  0
 19  1  1  0  0  0  0
 20 11  1  0  0  0  0
 22 26  1  0  0  0  0
 22 21  1  0  0  0  0
 23 22  1  0  0  0  0
 23 24  1  0  0  0  0
 26 25  1  0  0  0  0
 27 28  1  0  0  0  0
 27 26  1  0  0  0  0
M  END
>  <MODEL>
6

>  <REMARK>
 VINA RESULT:      -5.3      3.476      6.740
  Name = 
  5 active torsions:
  status: ('A' for Active; 'I' for Inactive)
    1  A    between atoms: C_1  and  C_2
    2  A    between atoms: C_2  and  N_3
    3  A    between atoms: N_3  and  C_7
    4  A    between atoms: N_3  and  C_11
    5  A    between atoms: C_6  and  C_11
                            x       y       z     vdW  Elec       q    Type
                         _______ _______ _______ _____ _____    ______ ____

>  <TORSDO>
F 5

$$$$
=
 OpenBabel10272401593D

 28 31  0  0  1  0  0  0  0  0999 V2000
  186.6020  175.9390  136.1850 C   0  0  2  0  0  3  0  0  0  0  0  0
  188.5230  178.3120  141.6700 C   0  0  1  0  0  3  0  0  0  0  0  0
  188.2870  179.9050  137.0060 O   0  0  0  0  0  1  0  0  0  0  0  0
  190.1160  176.6590  140.7720 C   0  0  2  0  0  3  0  0  0  0  0  0
  188.3190  177.7040  139.1820 C   0  0  2  0  0  3  0  0  0  0  0  0
  189.4580  177.9460  142.7190 N   0  0  0  0  0  2  0  0  0  0  0  0
  188.6990  177.2410  140.5930 C   0  0  2  0  0  3  0  0  0  0  0  0
  190.7470  177.5580  138.4980 C   0  0  0  0  0  2  0  0  0  0  0  0
  190.3590  176.9890  142.1930 C   0  0  0  0  0  0  0  0  0  0  0  0
  188.4400  177.6440  136.2200 C   0  0  1  0  0  3  0  0  0  0  0  0
  187.7740  176.5260  138.3810 C   0  0  0  0  0  2  0  0  0  0  0  0
  191.1720  177.3990  139.9450 C   0  0  0  0  0  2  0  0  0  0  0  0
  188.8620  175.2770  135.3690 C   0  0  0  0  0  3  0  0  0  0  0  0
  189.1160  178.7820  137.0010 C   0  0  2  0  0  3  0  0  0  0  0  0
  189.4730  176.5910  135.7880 C   0  0  0  0  0  2  0  0  0  0  0  0
  191.2860  176.4850  142.8800 O   0  0  0  0  0  0  0  0  0  0  0  0
  187.1070  178.2840  142.2100 C   0  0  0  0  0  1  0  0  0  0  0  0
  189.4790  178.4010  138.4470 C   0  0  1  0  0  3  0  0  0  0  0  0
  187.5780  174.9600  135.5910 C   0  0  0  0  0  3  0  0  0  0  0  0
  187.2850  177.0280  137.0230 C   0  0  2  0  0  3  0  0  0  0  0  0
  185.4750  175.2090  136.9250 C   0  0  0  0  0  2  0  0  0  0  0  0
  184.1540  175.8490  136.7880 N   0  0  0  0  0  0  0  0  0  0  0  0
  184.1510  176.7580  135.6310 C   0  0  0  0  0  2  0  0  0  0  0  0
  183.0810  176.4910  134.7690 O   0  0  0  0  0  1  0  0  0  0  0  0
  182.2520  176.1390  138.3410 C   0  0  0  0  0  1  0  0  0  0  0  0
  183.7020  176.4950  138.0360 C   0  0  2  0  0  3  0  0  0  0  0  0
  183.8260  178.0200  137.9680 C   0  0  0  0  0  2  0  0  0  0  0  0
  184.6810  178.4930  138.9660 O   0  0  0  0  0  1  0  0  0  0  0  0
  1 21  1  1  0  0  0
  1 20  1  0  0  0  0
  2 17  1  1  0  0  0
  2  6  1  0  0  0  0
  4 12  1  6  0  0  0
  4  9  1  0  0  0  0
  5 11  1  6  0  0  0
  5  7  1  0  0  0  0
  7  4  1  0  0  0  0
  7  2  1  0  0  0  0
  8 12  1  0  0  0  0
  9  6  1  0  0  0  0
  9 16  2  0  0  0  0
 10 14  1  0  0  0  0
 10 20  1  0  0  0  0
 13 19  2  0  0  0  0
 13 15  1  0  0  0  0
 14  3  1  0  0  0  0
 14 18  1  0  0  0  0
 15 10  1  0  0  0  0
 18  8  1  0  0  0  0
 18  5  1  0  0  0  0
 19  1  1  0  0  0  0
 20 11  1  0  0  0  0
 22 21  1  0  0  0  0
 22 26  1  0  0  0  0
 23 22  1  0  0  0  0
 24 23  1  0  0  0  0
 26 25  1  0  0  0  0
 27 26  1  0  0  0  0
 27 28  1  0  0  0  0
M  END
>  <MODEL>
7

>  <REMARK>
 VINA RESULT:      -5.2      2.548      6.466
  Name = 
  5 active torsions:
  status: ('A' for Active; 'I' for Inactive)
    1  A    between atoms: C_1  and  C_2
    2  A    between atoms: C_2  and  N_3
    3  A    between atoms: N_3  and  C_7
    4  A    between atoms: N_3  and  C_11
    5  A    between atoms: C_6  and  C_11
                            x       y       z     vdW  Elec       q    Type
                         _______ _______ _______ _____ _____    ______ ____

>  <TORSDO>
F 5

$$$$
=
 OpenBabel10272401593D

 28 31  0  0  1  0  0  0  0  0999 V2000
  188.9430  177.3990  137.6990 C   0  0  2  0  0  3  0  0  0  0  0  0
  182.7650  176.4640  138.3100 C   0  0  1  0  0  3  0  0  0  0  0  0
  186.6930  173.6530  137.3040 O   0  0  0  0  0  1  0  0  0  0  0  0
  183.3230  177.5840  136.1860 C   0  0  2  0  0  3  0  0  0  0  0  0
  185.2100  176.3600  137.5250 C   0  0  2  0  0  3  0  0  0  0  0  0
  181.5460  176.9950  137.7280 N   0  0  0  0  0  2  0  0  0  0  0  0
  183.8990  177.1540  137.5510 C   0  0  2  0  0  3  0  0  0  0  0  0
  184.9260  176.0040  135.0400 C   0  0  0  0  0  2  0  0  0  0  0  0
  181.8820  177.6440  136.5150 C   0  0  0  0  0  0  0  0  0  0  0  0
  187.8350  175.5600  136.4020 C   0  0  1  0  0  3  0  0  0  0  0  0
  186.3950  177.3200  137.4950 C   0  0  0  0  0  2  0  0  0  0  0  0
  183.4980  176.5150  135.1030 C   0  0  0  0  0  2  0  0  0  0  0  0
  188.9540  177.5170  135.2100 C   0  0  0  0  0  3  0  0  0  0  0  0
  186.6260  174.6170  136.2960 C   0  0  2  0  0  3  0  0  0  0  0  0
  188.0570  176.3110  135.0800 C   0  0  0  0  0  2  0  0  0  0  0  0
  181.0200  178.2040  135.7880 O   0  0  0  0  0  0  0  0  0  0  0  0
  182.8300  176.8190  139.7820 C   0  0  0  0  0  1  0  0  0  0  0  0
  185.2720  175.3450  136.3680 C   0  0  1  0  0  3  0  0  0  0  0  0
  189.3160  178.0400  136.3900 C   0  0  0  0  0  3  0  0  0  0  0  0
  187.6920  176.5170  137.5950 C   0  0  2  0  0  3  0  0  0  0  0  0
  188.8700  178.4420  138.8200 C   0  0  0  0  0  2  0  0  0  0  0  0
  189.4620  177.9970  140.0940 N   0  0  0  0  0  0  0  0  0  0  0  0
  190.5120  176.9970  139.8400 C   0  0  0  0  0  2  0  0  0  0  0  0
  191.7730  177.4630  140.2330 O   0  0  0  0  0  1  0  0  0  0  0  0
  187.2590  178.4920  141.1000 C   0  0  0  0  0  1  0  0  0  0  0  0
  188.4490  177.5410  141.0650 C   0  0  2  0  0  3  0  0  0  0  0  0
  189.0230  177.4240  142.4790 C   0  0  0  0  0  2  0  0  0  0  0  0
  188.6380  176.2200  143.0740 O   0  0  0  0  0  1  0  0  0  0  0  0
  1 21  1  1  0  0  0
  2 17  1  1  0  0  0
  4 12  1  6  0  0  0
  4  9  1  0  0  0  0
  4  7  1  0  0  0  0
  5 11  1  6  0  0  0
  5  7  1  0  0  0  0
  6  2  1  0  0  0  0
  7  2  1  0  0  0  0
  8 12  1  0  0  0  0
  8 18  1  0  0  0  0
  9  6  1  0  0  0  0
 10 20  1  0  0  0  0
 11 20  1  0  0  0  0
 13 19  2  0  0  0  0
 14 18  1  0  0  0  0
 14 10  1  0  0  0  0
 14  3  1  0  0  0  0
 15 13  1  0  0  0  0
 15 10  1  0  0  0  0
 16  9  2  0  0  0  0
 18  5  1  0  0  0  0
 19  1  1  0  0  0  0
 20  1  1  0  0  0  0
 21 22  1  0  0  0  0
 22 26  1  0  0  0  0
 23 22  1  0  0  0  0
 23 24  1  0  0  0  0
 26 25  1  0  0  0  0
 26 27  1  0  0  0  0
 27 28  1  0  0  0  0
M  END
>  <MODEL>
8

>  <REMARK>
 VINA RESULT:      -5.2      1.997      2.537
  Name = 
  5 active torsions:
  status: ('A' for Active; 'I' for Inactive)
    1  A    between atoms: C_1  and  C_2
    2  A    between atoms: C_2  and  N_3
    3  A    between atoms: N_3  and  C_7
    4  A    between atoms: N_3  and  C_11
    5  A    between atoms: C_6  and  C_11
                            x       y       z     vdW  Elec       q    Type
                         _______ _______ _______ _____ _____    ______ ____

>  <TORSDO>
F 5

$$$$
=
 OpenBabel10272401593D

 28 31  0  0  1  0  0  0  0  0999 V2000
  189.4270  177.3190  138.1930 C   0  0  2  0  0  3  0  0  0  0  0  0
  186.1600  172.8260  135.2680 C   0  0  1  0  0  3  0  0  0  0  0  0
  186.9950  177.6360  134.5550 O   0  0  0  0  0  1  0  0  0  0  0  0
  185.0520  173.5710  137.3400 C   0  0  2  0  0  3  0  0  0  0  0  0
  186.9190  175.0650  136.2750 C   0  0  2  0  0  3  0  0  0  0  0  0
  185.1190  171.8740  135.6100 N   0  0  0  0  0  2  0  0  0  0  0  0
  186.3630  173.6600  136.5330 C   0  0  2  0  0  3  0  0  0  0  0  0
  184.7170  176.0540  137.0220 C   0  0  0  0  0  2  0  0  0  0  0  0
  184.4990  172.3070  136.8060 C   0  0  0  0  0  0  0  0  0  0  0  0
  187.3610  177.9280  136.9080 C   0  0  1  0  0  3  0  0  0  0  0  0
  187.7880  175.5010  137.4500 C   0  0  0  0  0  2  0  0  0  0  0  0
  184.0620  174.6860  136.9900 C   0  0  0  0  0  2  0  0  0  0  0  0
  187.4960  178.2980  139.4270 C   0  0  0  0  0  3  0  0  0  0  0  0
  186.3760  177.5210  135.8010 C   0  0  2  0  0  3  0  0  0  0  0  0
  186.6120  178.2690  138.2050 C   0  0  0  0  0  2  0  0  0  0  0  0
  183.5550  171.6730  137.3460 O   0  0  0  0  0  0  0  0  0  0  0  0
  187.4360  172.0890  134.9150 C   0  0  0  0  0  1  0  0  0  0  0  0
  185.8170  176.0970  135.9700 C   0  0  1  0  0  3  0  0  0  0  0  0
  188.7500  177.8240  139.4370 C   0  0  0  0  0  3  0  0  0  0  0  0
  188.4320  176.8480  137.1240 C   0  0  2  0  0  3  0  0  0  0  0  0
  190.5000  176.2790  138.5350 C   0  0  0  0  0  2  0  0  0  0  0  0
  191.5360  176.1220  137.4990 N   0  0  0  0  0  0  0  0  0  0  0  0
  191.5100  174.7520  136.9620 C   0  0  0  0  0  2  0  0  0  0  0  0
  190.6810  173.9170  137.7210 O   0  0  0  0  0  1  0  0  0  0  0  0
  193.8890  175.4170  137.7790 C   0  0  0  0  0  1  0  0  0  0  0  0
  192.8740  176.5390  137.9620 C   0  0  2  0  0  3  0  0  0  0  0  0
  192.8660  176.9540  139.4360 C   0  0  0  0  0  2  0  0  0  0  0  0
  194.1570  176.9130  139.9690 O   0  0  0  0  0  1  0  0  0  0  0  0
  1 21  1  1  0  0  0
  1 19  1  0  0  0  0
  2 17  1  1  0  0  0
  2  6  1  0  0  0  0
  2  7  1  0  0  0  0
  3 14  1  0  0  0  0
  4 12  1  6  0  0  0
  5  7  1  0  0  0  0
  5 11  1  1  0  0  0
  6  9  1  0  0  0  0
  7  4  1  0  0  0  0
  9  4  1  0  0  0  0
  9 16  2  0  0  0  0
 10 20  1  0  0  0  0
 10 15  1  0  0  0  0
 12  8  1  0  0  0  0
 13 19  2  0  0  0  0
 14 18  1  0  0  0  0
 14 10  1  0  0  0  0
 15 13  1  0  0  0  0
 18  5  1  0  0  0  0
 18  8  1  0  0  0  0
 20 11  1  0  0  0  0
 20  1  1  0  0  0  0
 22 26  1  0  0  0  0
 22 21  1  0  0  0  0
 23 22  1  0  0  0  0
 23 24  1  0  0  0  0
 25 26  1  0  0  0  0
 26 27  1  0  0  0  0
 27 28  1  0  0  0  0
M  END
>  <MODEL>
9

>  <REMARK>
 VINA RESULT:      -5.2      3.572      5.406
  Name = 
  5 active torsions:
  status: ('A' for Active; 'I' for Inactive)
    1  A    between atoms: C_1  and  C_2
    2  A    between atoms: C_2  and  N_3
    3  A    between atoms: N_3  and  C_7
    4  A    between atoms: N_3  and  C_11
    5  A    between atoms: C_6  and  C_11
                            x       y       z     vdW  Elec       q    Type
                         _______ _______ _______ _____ _____    ______ ____

>  <TORSDO>
F 5

$$$$
