=
 OpenBabel10272414543D

 37 42  0  0  1  0  0  0  0  0999 V2000
  189.1000  178.2410  138.2390 C   0  0  2  0  0  0  0  0  0  0  0  0
  188.6490  176.4290  141.9540 C   0  0  0  0  0  2  0  0  0  0  0  0
  189.3860  176.0650  136.9770 C   0  0  2  0  0  3  0  0  0  0  0  0
  188.9700  178.3600  139.7430 C   0  0  1  0  0  3  0  0  0  0  0  0
  190.0890  177.1770  137.8100 C   0  0  2  0  0  3  0  0  0  0  0  0
  187.6720  177.8280  140.1930 N   0  0  0  0  0  0  0  0  0  0  0  0
  188.1230  176.5880  136.2680 C   0  0  0  0  0  2  0  0  0  0  0  0
  190.7500  176.6980  139.1080 C   0  0  1  0  0  3  0  0  0  0  0  0
  189.1960  179.5590  137.5110 C   0  0  0  0  0  2  0  0  0  0  0  0
  188.2140  177.9700  136.0160 O   0  0  0  0  0  0  0  0  0  0  0  0
  191.3920  177.7860  139.7490 O   0  0  0  0  0  0  0  0  0  0  0  0
  187.7100  177.5920  141.6400 C   0  0  0  0  0  2  0  0  0  0  0  0
  188.0120  178.6280  137.2470 C   0  0  1  0  0  3  0  0  0  0  0  0
  190.1100  177.4460  140.2160 C   0  0  1  0  0  0  0  0  0  0  0  0
  190.0890  176.7950  141.5920 C   0  0  1  0  0  3  0  0  0  0  0  0
  190.6060  177.6830  142.5410 O   0  0  0  0  0  0  0  0  0  0  0  0
  190.3200  177.1060  143.7860 C   0  0  1  0  0  3  0  0  0  0  0  0
  191.5740  176.4890  144.3890 C   0  0  0  0  0  2  0  0  0  0  0  0
  192.0540  175.7500  146.7000 C   0  0  0  0  0  1  0  0  0  0  0  0
  191.7480  176.9460  145.8240 C   0  0  0  0  0  2  0  0  0  0  0  0
  189.7210  178.1440  144.7310 C   0  0  0  0  0  2  0  0  0  0  0  0
  188.3710  177.7060  145.2760 C   0  0  0  0  0  2  0  0  0  0  0  0
  188.3930  177.7960  147.0870 S   0  0  0  0  0  0  0  0  0  0  0  0
  186.6270  178.2040  147.1530 C   0  0  0  0  0  1  0  0  0  0  0  0
  188.9980  174.8230  137.7770 C   0  0  0  0  0  2  0  0  0  0  0  0
  189.5280  173.5510  137.1270 C   0  0  0  0  0  2  0  0  0  0  0  0
  187.1270  172.8670  137.1960 C   0  0  0  0  0  1  0  0  0  0  0  0
  188.4220  172.7940  136.4090 C   0  0  0  0  0  2  0  0  0  0  0  0
  186.7470  178.8000  139.9920 O   0  0  0  0  0  0  0  0  0  0  0  0
  186.0000  178.8420  141.1770 C   0  0  0  0  0  2  0  0  0  0  0  0
  184.0090  179.3500  139.3400 S   0  0  0  0  0  0  0  0  0  0  0  0
  184.5310  178.5590  140.9010 C   0  0  2  0  0  3  0  0  0  0  0  0
  183.6660  179.0360  142.0620 C   0  0  0  0  0  2  0  0  0  0  0  0
  181.4200  178.9570  143.1060 C   0  0  0  0  0  1  0  0  0  0  0  0
  181.5990  179.1220  140.6390 C   0  0  0  0  0  2  0  0  0  0  0  0
  182.2340  178.5430  141.8970 C   0  0  1  0  0  3  0  0  0  0  0  0
  182.3350  178.6330  139.4010 C   0  0  0  0  0  2  0  0  0  0  0  0
  1  9  1  6  0  0  0
  1  4  1  0  0  0  0
  3 25  1  1  0  0  0
  3  5  1  0  0  0  0
  4  6  1  1  0  0  0
  4 14  1  0  0  0  0
  5  1  1  0  0  0  0
  5  8  1  0  0  0  0
  6 12  1  0  0  0  0
  7  3  1  0  0  0  0
  8 11  1  0  0  0  0
  8 14  1  0  0  0  0
 10  7  1  0  0  0  0
 10 13  1  0  0  0  0
 11 14  1  0  0  0  0
 12  2  1  0  0  0  0
 13  9  1  0  0  0  0
 13  1  1  0  0  0  0
 14 15  1  0  0  0  0
 15  2  1  0  0  0  0
 15 16  1  0  0  0  0
 16 17  1  0  0  0  0
 17 18  1  0  0  0  0
 17 21  1  0  0  0  0
 18 20  1  0  0  0  0
 20 19  1  0  0  0  0
 21 22  1  0  0  0  0
 22 23  1  0  0  0  0
 23 24  1  0  0  0  0
 26 25  1  0  0  0  0
 28 26  1  0  0  0  0
 28 27  1  0  0  0  0
 29  6  1  0  0  0  0
 29 30  1  0  0  0  0
 31 37  1  0  0  0  0
 31 32  1  0  0  0  0
 32 30  1  0  0  0  0
 32 33  1  0  0  0  0
 35 36  1  0  0  0  0
 36 33  1  0  0  0  0
 36 34  1  0  0  0  0
 37 35  1  0  0  0  0
M  END
>  <MODEL>
1

>  <REMARK>
 VINA RESULT:      -6.3      0.000      0.000
  Name = 
  13 active torsions:
  status: ('A' for Active; 'I' for Inactive)
    1  A    between atoms: O_1  and  C_33
    2  A    between atoms: O_1  and  C_36
    3  A    between atoms: C_3  and  C_30
    4  A    between atoms: C_3  and  C_32
    5  A    between atoms: C_5  and  C_23
    6  A    between atoms: C_5  and  C_33
    7  A    between atoms: C_6  and  C_31
    8  A    between atoms: C_9  and  C_30
    9  A    between atoms: S_11  and  C_26
   10  A    between atoms: N_14  and  O_37
   11  A    between atoms: C_17  and  C_26
   12  A    between atoms: C_17  and  C_33
   13  A    between atoms: C_31  and  O_37
                            x       y       z     vdW  Elec       q    Type
                         _______ _______ _______ _____ _____    ______ ____

>  <TORSDO>
F 13

$$$$
=
 OpenBabel10272414543D

 37 42  0  0  1  0  0  0  0  0999 V2000
  188.2480  177.5580  136.8480 C   0  0  2  0  0  0  0  0  0  0  0  0
  191.2460  174.7830  137.6210 C   0  0  0  0  0  2  0  0  0  0  0  0
  186.5670  175.8370  136.0590 C   0  0  2  0  0  3  0  0  0  0  0  0
  189.6810  177.2570  137.2310 C   0  0  1  0  0  3  0  0  0  0  0  0
  187.7660  176.7480  135.6630 C   0  0  2  0  0  3  0  0  0  0  0  0
  189.7310  176.5020  138.4950 N   0  0  0  0  0  0  0  0  0  0  0  0
  185.7810  176.4070  137.2540 C   0  0  0  0  0  2  0  0  0  0  0  0
  189.0070  176.0040  135.1550 C   0  0  1  0  0  3  0  0  0  0  0  0
  187.8980  179.0250  136.8260 C   0  0  0  0  0  2  0  0  0  0  0  0
  185.8990  177.8080  137.3220 O   0  0  0  0  0  0  0  0  0  0  0  0
  190.0060  176.9380  134.7840 O   0  0  0  0  0  0  0  0  0  0  0  0
  191.0540  175.8920  138.6540 C   0  0  0  0  0  2  0  0  0  0  0  0
  187.1920  178.0900  137.8090 C   0  0  1  0  0  3  0  0  0  0  0  0
  190.1220  176.3630  136.0630 C   0  0  1  0  0  0  0  0  0  0  0  0
  191.2650  175.3690  136.2090 C   0  0  1  0  0  3  0  0  0  0  0  0
  192.4850  176.0160  135.9810 O   0  0  0  0  0  0  0  0  0  0  0  0
  193.4080  174.9920  135.7290 C   0  0  1  0  0  3  0  0  0  0  0  0
  193.0550  174.2600  134.4420 C   0  0  0  0  0  2  0  0  0  0  0  0
  192.9100  172.1080  135.6530 C   0  0  0  0  0  1  0  0  0  0  0  0
  193.5610  172.8320  134.4930 C   0  0  0  0  0  2  0  0  0  0  0  0
  194.8250  175.5570  135.6580 C   0  0  0  0  0  2  0  0  0  0  0  0
  195.7890  174.7880  136.5470 C   0  0  0  0  0  2  0  0  0  0  0  0
  194.9630  174.3570  138.1030 S   0  0  0  0  0  0  0  0  0  0  0  0
  195.7120  172.7060  138.1190 C   0  0  0  0  0  1  0  0  0  0  0  0
  186.9470  174.3950  136.3880 C   0  0  0  0  0  2  0  0  0  0  0  0
  185.8940  173.7240  137.2620 C   0  0  0  0  0  2  0  0  0  0  0  0
  184.0170  172.0810  137.1520 C   0  0  0  0  0  1  0  0  0  0  0  0
  185.4010  172.4280  136.6370 C   0  0  0  0  0  2  0  0  0  0  0  0
  189.6030  177.3980  139.5050 O   0  0  0  0  0  0  0  0  0  0  0  0
  190.3700  176.8750  140.5540 C   0  0  0  0  0  2  0  0  0  0  0  0
  191.4240  177.5020  143.0240 S   0  0  0  0  0  0  0  0  0  0  0  0
  190.0060  177.5390  141.8740 C   0  0  2  0  0  3  0  0  0  0  0  0
  188.7900  176.8620  142.4970 C   0  0  0  0  0  2  0  0  0  0  0  0
  187.0240  177.0190  144.2280 C   0  0  0  0  0  1  0  0  0  0  0  0
  189.3300  177.7350  144.7880 C   0  0  0  0  0  2  0  0  0  0  0  0
  188.2810  177.6670  143.6850 C   0  0  1  0  0  3  0  0  0  0  0  0
  190.5650  178.4780  144.3000 C   0  0  0  0  0  2  0  0  0  0  0  0
  1  9  1  6  0  0  0
  1  4  1  0  0  0  0
  1 13  1  0  0  0  0
  2 12  1  0  0  0  0
  3 25  1  1  0  0  0
  3  7  1  0  0  0  0
  4  6  1  1  0  0  0
  5  3  1  0  0  0  0
  5  1  1  0  0  0  0
  6 12  1  0  0  0  0
  6 29  1  0  0  0  0
  7 10  1  0  0  0  0
  8  5  1  0  0  0  0
  8 14  1  0  0  0  0
  9 13  1  0  0  0  0
 10 13  1  0  0  0  0
 11  8  1  0  0  0  0
 11 14  1  0  0  0  0
 14 15  1  0  0  0  0
 14  4  1  0  0  0  0
 15  2  1  0  0  0  0
 16 15  1  0  0  0  0
 17 16  1  0  0  0  0
 18 20  1  0  0  0  0
 18 17  1  0  0  0  0
 20 19  1  0  0  0  0
 21 17  1  0  0  0  0
 21 22  1  0  0  0  0
 22 23  1  0  0  0  0
 23 24  1  0  0  0  0
 25 26  1  0  0  0  0
 28 27  1  0  0  0  0
 28 26  1  0  0  0  0
 29 30  1  0  0  0  0
 30 32  1  0  0  0  0
 31 37  1  0  0  0  0
 32 33  1  0  0  0  0
 32 31  1  0  0  0  0
 33 36  1  0  0  0  0
 36 34  1  0  0  0  0
 36 35  1  0  0  0  0
 37 35  1  0  0  0  0
M  END
>  <MODEL>
2

>  <REMARK>
 VINA RESULT:      -6.2      3.466      6.905
  Name = 
  13 active torsions:
  status: ('A' for Active; 'I' for Inactive)
    1  A    between atoms: O_1  and  C_33
    2  A    between atoms: O_1  and  C_36
    3  A    between atoms: C_3  and  C_30
    4  A    between atoms: C_3  and  C_32
    5  A    between atoms: C_5  and  C_23
    6  A    between atoms: C_5  and  C_33
    7  A    between atoms: C_6  and  C_31
    8  A    between atoms: C_9  and  C_30
    9  A    between atoms: S_11  and  C_26
   10  A    between atoms: N_14  and  O_37
   11  A    between atoms: C_17  and  C_26
   12  A    between atoms: C_17  and  C_33
   13  A    between atoms: C_31  and  O_37
                            x       y       z     vdW  Elec       q    Type
                         _______ _______ _______ _____ _____    ______ ____

>  <TORSDO>
F 13

$$$$
=
 OpenBabel10272414543D

 37 42  0  0  1  0  0  0  0  0999 V2000
  188.1150  177.6000  136.7870 C   0  0  2  0  0  0  0  0  0  0  0  0
  191.1990  175.0890  137.9980 C   0  0  0  0  0  2  0  0  0  0  0  0
  186.6960  175.7400  135.8200 C   0  0  2  0  0  3  0  0  0  0  0  0
  189.5050  177.4220  137.3590 C   0  0  1  0  0  3  0  0  0  0  0  0
  187.8600  176.7430  135.5660 C   0  0  2  0  0  3  0  0  0  0  0  0
  189.4490  176.6850  138.6340 N   0  0  0  0  0  0  0  0  0  0  0  0
  185.7170  176.2540  136.8920 C   0  0  0  0  0  2  0  0  0  0  0  0
  189.2130  176.0990  135.2380 C   0  0  1  0  0  3  0  0  0  0  0  0
  187.6540  179.0340  136.6910 C   0  0  0  0  0  2  0  0  0  0  0  0
  185.7120  177.6610  136.9470 O   0  0  0  0  0  0  0  0  0  0  0  0
  190.1730  177.1090  134.9820 O   0  0  0  0  0  0  0  0  0  0  0  0
  190.7860  176.1870  138.9750 C   0  0  0  0  0  2  0  0  0  0  0  0
  186.9040  178.0530  137.5920 C   0  0  1  0  0  3  0  0  0  0  0  0
  190.1660  176.5570  136.2760 C   0  0  1  0  0  0  0  0  0  0  0  0
  191.3570  175.6610  136.5900 C   0  0  1  0  0  3  0  0  0  0  0  0
  192.5400  176.4050  136.5090 O   0  0  0  0  0  0  0  0  0  0  0  0
  193.4550  175.5760  135.8460 C   0  0  1  0  0  3  0  0  0  0  0  0
  194.1320  176.3300  134.7100 C   0  0  0  0  0  2  0  0  0  0  0  0
  195.8730  178.0760  134.9020 C   0  0  0  0  0  1  0  0  0  0  0  0
  195.5860  176.5970  135.0480 C   0  0  0  0  0  2  0  0  0  0  0  0
  194.4910  175.0330  136.8280 C   0  0  0  0  0  2  0  0  0  0  0  0
  194.4520  173.5160  136.9150 C   0  0  0  0  0  2  0  0  0  0  0  0
  195.9290  172.9220  137.7830 S   0  0  0  0  0  0  0  0  0  0  0  0
  195.8090  174.2400  139.0230 C   0  0  0  0  0  1  0  0  0  0  0  0
  187.1440  174.3380  136.2250 C   0  0  0  0  0  2  0  0  0  0  0  0
  186.2770  173.2640  135.5780 C   0  0  0  0  0  2  0  0  0  0  0  0
  184.6100  172.7090  137.3520 C   0  0  0  0  0  1  0  0  0  0  0  0
  185.8320  172.2250  136.5950 C   0  0  0  0  0  2  0  0  0  0  0  0
  189.1180  177.5770  139.6010 O   0  0  0  0  0  0  0  0  0  0  0  0
  189.9840  177.2950  140.6660 C   0  0  0  0  0  2  0  0  0  0  0  0
  187.6890  178.0980  141.9660 S   0  0  0  0  0  0  0  0  0  0  0  0
  189.2040  177.0770  141.9530 C   0  0  2  0  0  3  0  0  0  0  0  0
  190.0730  177.3880  143.1670 C   0  0  0  0  0  2  0  0  0  0  0  0
  190.3000  177.1860  145.6250 C   0  0  0  0  0  1  0  0  0  0  0  0
  188.0800  177.7130  144.6590 C   0  0  0  0  0  2  0  0  0  0  0  0
  189.3790  176.9450  144.4480 C   0  0  1  0  0  3  0  0  0  0  0  0
  187.0940  177.4030  143.5410 C   0  0  0  0  0  2  0  0  0  0  0  0
  1  9  1  6  0  0  0
  1  4  1  0  0  0  0
  1 13  1  0  0  0  0
  2 12  1  0  0  0  0
  3 25  1  1  0  0  0
  3  7  1  0  0  0  0
  4  6  1  1  0  0  0
  5  3  1  0  0  0  0
  5  1  1  0  0  0  0
  6 12  1  0  0  0  0
  6 29  1  0  0  0  0
  7 10  1  0  0  0  0
  8  5  1  0  0  0  0
  8 14  1  0  0  0  0
  9 13  1  0  0  0  0
 10 13  1  0  0  0  0
 11  8  1  0  0  0  0
 11 14  1  0  0  0  0
 14 15  1  0  0  0  0
 14  4  1  0  0  0  0
 15  2  1  0  0  0  0
 16 15  1  0  0  0  0
 17 16  1  0  0  0  0
 17 21  1  0  0  0  0
 18 20  1  0  0  0  0
 18 17  1  0  0  0  0
 19 20  1  0  0  0  0
 21 22  1  0  0  0  0
 22 23  1  0  0  0  0
 23 24  1  0  0  0  0
 26 25  1  0  0  0  0
 26 28  1  0  0  0  0
 28 27  1  0  0  0  0
 29 30  1  0  0  0  0
 30 32  1  0  0  0  0
 31 37  1  0  0  0  0
 32 31  1  0  0  0  0
 32 33  1  0  0  0  0
 33 36  1  0  0  0  0
 36 35  1  0  0  0  0
 36 34  1  0  0  0  0
 37 35  1  0  0  0  0
M  END
>  <MODEL>
3

>  <REMARK>
 VINA RESULT:      -6.1      3.610      6.666
  Name = 
  13 active torsions:
  status: ('A' for Active; 'I' for Inactive)
    1  A    between atoms: O_1  and  C_33
    2  A    between atoms: O_1  and  C_36
    3  A    between atoms: C_3  and  C_30
    4  A    between atoms: C_3  and  C_32
    5  A    between atoms: C_5  and  C_23
    6  A    between atoms: C_5  and  C_33
    7  A    between atoms: C_6  and  C_31
    8  A    between atoms: C_9  and  C_30
    9  A    between atoms: S_11  and  C_26
   10  A    between atoms: N_14  and  O_37
   11  A    between atoms: C_17  and  C_26
   12  A    between atoms: C_17  and  C_33
   13  A    between atoms: C_31  and  O_37
                            x       y       z     vdW  Elec       q    Type
                         _______ _______ _______ _____ _____    ______ ____

>  <TORSDO>
F 13

$$$$
=
 OpenBabel10272414543D

 37 42  0  0  1  0  0  0  0  0999 V2000
  182.2500  177.5220  138.0900 C   0  0  2  0  0  0  0  0  0  0  0  0
  185.2120  179.3300  140.3810 C   0  0  0  0  0  2  0  0  0  0  0  0
  180.8990  179.6410  137.7830 C   0  0  2  0  0  3  0  0  0  0  0  0
  183.4950  177.4040  138.9440 C   0  0  1  0  0  3  0  0  0  0  0  0
  181.1930  178.4180  138.7010 C   0  0  2  0  0  3  0  0  0  0  0  0
  184.6170  178.1330  138.3260 N   0  0  0  0  0  0  0  0  0  0  0  0
  181.2090  179.3400  136.3050 C   0  0  0  0  0  2  0  0  0  0  0  0
  181.7210  178.7660  140.0980 C   0  0  1  0  0  3  0  0  0  0  0  0
  181.7540  176.2170  137.5190 C   0  0  0  0  0  2  0  0  0  0  0  0
  181.0870  177.9640  136.0280 O   0  0  0  0  0  0  0  0  0  0  0  0
  181.9040  177.5790  140.8500 O   0  0  0  0  0  0  0  0  0  0  0  0
  185.6780  178.3400  139.3160 C   0  0  0  0  0  2  0  0  0  0  0  0
  182.2200  177.3300  136.5800 C   0  0  1  0  0  3  0  0  0  0  0  0
  183.0460  178.1160  140.2290 C   0  0  1  0  0  0  0  0  0  0  0  0
  184.0520  178.7420  141.1850 C   0  0  1  0  0  3  0  0  0  0  0  0
  184.5320  177.7680  142.0670 O   0  0  0  0  0  0  0  0  0  0  0  0
  185.4410  178.4360  142.8990 C   0  0  1  0  0  3  0  0  0  0  0  0
  184.7500  178.9200  144.1660 C   0  0  0  0  0  2  0  0  0  0  0  0
  184.7950  178.3820  146.5800 C   0  0  0  0  0  1  0  0  0  0  0  0
  185.6460  178.7040  145.3700 C   0  0  0  0  0  2  0  0  0  0  0  0
  186.6200  177.5270  143.2400 C   0  0  0  0  0  2  0  0  0  0  0  0
  187.8260  177.8020  142.3560 C   0  0  0  0  0  2  0  0  0  0  0  0
  189.3310  177.7920  143.3670 S   0  0  0  0  0  0  0  0  0  0  0  0
  189.6950  176.0720  142.9240 C   0  0  0  0  0  1  0  0  0  0  0  0
  181.6420  180.9180  138.1700 C   0  0  0  0  0  2  0  0  0  0  0  0
  180.6930  182.1040  138.2870 C   0  0  0  0  0  2  0  0  0  0  0  0
  180.7260  183.0600  135.9800 C   0  0  0  0  0  1  0  0  0  0  0  0
  181.1520  183.2670  137.4210 C   0  0  0  0  0  2  0  0  0  0  0  0
  185.1420  177.3270  137.3690 O   0  0  0  0  0  0  0  0  0  0  0  0
  186.4440  177.8040  137.1680 C   0  0  0  0  0  2  0  0  0  0  0  0
  186.5110  175.0710  136.8060 S   0  0  0  0  0  0  0  0  0  0  0  0
  187.3680  176.6820  136.7180 C   0  0  2  0  0  3  0  0  0  0  0  0
  188.6390  176.6620  137.5600 C   0  0  0  0  0  2  0  0  0  0  0  0
  190.9410  175.7710  137.7680 C   0  0  0  0  0  1  0  0  0  0  0  0
  189.1350  174.2740  136.9680 C   0  0  0  0  0  2  0  0  0  0  0  0
  189.6600  175.7040  136.9620 C   0  0  1  0  0  3  0  0  0  0  0  0
  187.9070  174.1570  136.0770 C   0  0  0  0  0  2  0  0  0  0  0  0
  1  9  1  1  0  0  0
  1  5  1  0  0  0  0
  1  4  1  0  0  0  0
  2 15  1  0  0  0  0
  3 25  1  1  0  0  0
  3  5  1  0  0  0  0
  4  6  1  6  0  0  0
  4 14  1  0  0  0  0
  5  8  1  0  0  0  0
  6 12  1  0  0  0  0
  7  3  1  0  0  0  0
  8 14  1  0  0  0  0
  8 11  1  0  0  0  0
 10  7  1  0  0  0  0
 10 13  1  0  0  0  0
 12  2  1  0  0  0  0
 13  9  1  0  0  0  0
 13  1  1  0  0  0  0
 14 11  1  0  0  0  0
 14 15  1  0  0  0  0
 15 16  1  0  0  0  0
 16 17  1  0  0  0  0
 17 21  1  0  0  0  0
 17 18  1  0  0  0  0
 18 20  1  0  0  0  0
 20 19  1  0  0  0  0
 22 21  1  0  0  0  0
 22 23  1  0  0  0  0
 24 23  1  0  0  0  0
 25 26  1  0  0  0  0
 27 28  1  0  0  0  0
 28 26  1  0  0  0  0
 29  6  1  0  0  0  0
 30 29  1  0  0  0  0
 32 31  1  0  0  0  0
 32 30  1  0  0  0  0
 32 33  1  0  0  0  0
 36 35  1  0  0  0  0
 36 33  1  0  0  0  0
 36 34  1  0  0  0  0
 37 31  1  0  0  0  0
 37 35  1  0  0  0  0
M  END
>  <MODEL>
4

>  <REMARK>
 VINA RESULT:      -6.0      2.960      7.568
  Name = 
  13 active torsions:
  status: ('A' for Active; 'I' for Inactive)
    1  A    between atoms: O_1  and  C_33
    2  A    between atoms: O_1  and  C_36
    3  A    between atoms: C_3  and  C_30
    4  A    between atoms: C_3  and  C_32
    5  A    between atoms: C_5  and  C_23
    6  A    between atoms: C_5  and  C_33
    7  A    between atoms: C_6  and  C_31
    8  A    between atoms: C_9  and  C_30
    9  A    between atoms: S_11  and  C_26
   10  A    between atoms: N_14  and  O_37
   11  A    between atoms: C_17  and  C_26
   12  A    between atoms: C_17  and  C_33
   13  A    between atoms: C_31  and  O_37
                            x       y       z     vdW  Elec       q    Type
                         _______ _______ _______ _____ _____    ______ ____

>  <TORSDO>
F 13

$$$$
=
 OpenBabel10272414543D

 37 42  0  0  1  0  0  0  0  0999 V2000
  188.7510  178.2880  138.0930 C   0  0  2  0  0  0  0  0  0  0  0  0
  188.1160  176.8690  141.9490 C   0  0  0  0  0  2  0  0  0  0  0  0
  188.8550  175.9890  137.0370 C   0  0  2  0  0  3  0  0  0  0  0  0
  188.6200  178.5550  139.5770 C   0  0  1  0  0  3  0  0  0  0  0  0
  189.6460  177.1080  137.7770 C   0  0  2  0  0  3  0  0  0  0  0  0
  187.2770  178.1800  140.0540 N   0  0  0  0  0  0  0  0  0  0  0  0
  187.6480  176.5510  136.2640 C   0  0  0  0  0  2  0  0  0  0  0  0
  190.2530  176.6930  139.1230 C   0  0  1  0  0  3  0  0  0  0  0  0
  188.9670  179.5200  137.2490 C   0  0  0  0  0  2  0  0  0  0  0  0
  187.8610  177.8920  135.8890 O   0  0  0  0  0  0  0  0  0  0  0  0
  190.9830  177.7770  139.6720 O   0  0  0  0  0  0  0  0  0  0  0  0
  187.2840  178.0740  141.5160 C   0  0  0  0  0  2  0  0  0  0  0  0
  187.7080  178.6750  137.0530 C   0  0  1  0  0  3  0  0  0  0  0  0
  189.6720  177.5920  140.1480 C   0  0  1  0  0  0  0  0  0  0  0  0
  189.5840  177.0740  141.5770 C   0  0  1  0  0  3  0  0  0  0  0  0
  190.1700  177.9980  142.4500 O   0  0  0  0  0  0  0  0  0  0  0  0
  190.1900  177.3660  143.7010 C   0  0  1  0  0  3  0  0  0  0  0  0
  191.6090  176.9560  144.0690 C   0  0  0  0  0  2  0  0  0  0  0  0
  192.0000  175.7580  146.1970 C   0  0  0  0  0  1  0  0  0  0  0  0
  191.6070  175.5990  144.7440 C   0  0  0  0  0  2  0  0  0  0  0  0
  189.5970  178.2800  144.7710 C   0  0  0  0  0  2  0  0  0  0  0  0
  188.3570  177.6780  145.4100 C   0  0  0  0  0  2  0  0  0  0  0  0
  188.7830  177.0100  147.0410 S   0  0  0  0  0  0  0  0  0  0  0  0
  187.7830  178.2630  147.8880 C   0  0  0  0  0  1  0  0  0  0  0  0
  188.3540  174.8640  137.9400 C   0  0  0  0  0  2  0  0  0  0  0  0
  187.9860  173.6220  137.1360 C   0  0  0  0  0  2  0  0  0  0  0  0
  186.0060  172.4710  136.1410 C   0  0  0  0  0  1  0  0  0  0  0  0
  186.5280  173.2430  137.3380 C   0  0  0  0  0  2  0  0  0  0  0  0
  186.4420  179.2050  139.7510 O   0  0  0  0  0  0  0  0  0  0  0  0
  185.1620  178.7390  140.0780 C   0  0  0  0  0  2  0  0  0  0  0  0
  182.5330  178.9470  139.2720 S   0  0  0  0  0  0  0  0  0  0  0  0
  184.2830  178.6590  138.8380 C   0  0  2  0  0  3  0  0  0  0  0  0
  184.4510  177.3100  138.1480 C   0  0  0  0  0  2  0  0  0  0  0  0
  184.0210  175.9970  136.0920 C   0  0  0  0  0  1  0  0  0  0  0  0
  182.2620  177.5230  136.9380 C   0  0  0  0  0  2  0  0  0  0  0  0
  183.7640  177.3160  136.7890 C   0  0  1  0  0  3  0  0  0  0  0  0
  181.9730  178.8900  137.5400 C   0  0  0  0  0  2  0  0  0  0  0  0
  1  9  1  6  0  0  0
  1  4  1  0  0  0  0
  3  5  1  0  0  0  0
  3 25  1  1  0  0  0
  4  6  1  1  0  0  0
  4 14  1  0  0  0  0
  5  1  1  0  0  0  0
  5  8  1  0  0  0  0
  6 12  1  0  0  0  0
  7  3  1  0  0  0  0
  8 11  1  0  0  0  0
  8 14  1  0  0  0  0
 10  7  1  0  0  0  0
 10 13  1  0  0  0  0
 11 14  1  0  0  0  0
 12  2  1  0  0  0  0
 13  9  1  0  0  0  0
 13  1  1  0  0  0  0
 14 15  1  0  0  0  0
 15  2  1  0  0  0  0
 15 16  1  0  0  0  0
 16 17  1  0  0  0  0
 17 18  1  0  0  0  0
 17 21  1  0  0  0  0
 18 20  1  0  0  0  0
 20 19  1  0  0  0  0
 21 22  1  0  0  0  0
 22 23  1  0  0  0  0
 23 24  1  0  0  0  0
 26 28  1  0  0  0  0
 26 25  1  0  0  0  0
 27 28  1  0  0  0  0
 29  6  1  0  0  0  0
 29 30  1  0  0  0  0
 32 31  1  0  0  0  0
 32 30  1  0  0  0  0
 33 32  1  0  0  0  0
 34 36  1  0  0  0  0
 35 37  1  0  0  0  0
 36 35  1  0  0  0  0
 36 33  1  0  0  0  0
 37 31  1  0  0  0  0
M  END
>  <MODEL>
5

>  <REMARK>
 VINA RESULT:      -5.6      1.416      2.100
  Name = 
  13 active torsions:
  status: ('A' for Active; 'I' for Inactive)
    1  A    between atoms: O_1  and  C_33
    2  A    between atoms: O_1  and  C_36
    3  A    between atoms: C_3  and  C_30
    4  A    between atoms: C_3  and  C_32
    5  A    between atoms: C_5  and  C_23
    6  A    between atoms: C_5  and  C_33
    7  A    between atoms: C_6  and  C_31
    8  A    between atoms: C_9  and  C_30
    9  A    between atoms: S_11  and  C_26
   10  A    between atoms: N_14  and  O_37
   11  A    between atoms: C_17  and  C_26
   12  A    between atoms: C_17  and  C_33
   13  A    between atoms: C_31  and  O_37
                            x       y       z     vdW  Elec       q    Type
                         _______ _______ _______ _____ _____    ______ ____

>  <TORSDO>
F 13

$$$$
=
 OpenBabel10272414543D

 37 42  0  0  1  0  0  0  0  0999 V2000
  188.1870  177.3600  136.7670 C   0  0  2  0  0  0  0  0  0  0  0  0
  191.5160  175.1610  137.9370 C   0  0  0  0  0  2  0  0  0  0  0  0
  186.8250  175.3360  136.0910 C   0  0  2  0  0  3  0  0  0  0  0  0
  189.6260  177.3190  137.2350 C   0  0  1  0  0  3  0  0  0  0  0  0
  187.8960  176.3770  135.6520 C   0  0  2  0  0  3  0  0  0  0  0  0
  189.7180  176.7030  138.5710 N   0  0  0  0  0  0  0  0  0  0  0  0
  185.8990  175.8900  137.1900 C   0  0  0  0  0  2  0  0  0  0  0  0
  189.2590  175.7870  135.2730 C   0  0  1  0  0  3  0  0  0  0  0  0
  187.6260  178.7480  136.5820 C   0  0  0  0  0  2  0  0  0  0  0  0
  185.8050  177.2930  137.1200 O   0  0  0  0  0  0  0  0  0  0  0  0
  190.1280  176.8230  134.8480 O   0  0  0  0  0  0  0  0  0  0  0  0
  191.1070  176.3200  138.8430 C   0  0  0  0  0  2  0  0  0  0  0  0
  187.0140  177.8140  137.6260 C   0  0  1  0  0  3  0  0  0  0  0  0
  190.2570  176.3970  136.1820 C   0  0  1  0  0  0  0  0  0  0  0  0
  191.5260  175.6070  136.4750 C   0  0  1  0  0  3  0  0  0  0  0  0
  192.6470  176.4080  136.2300 O   0  0  0  0  0  0  0  0  0  0  0  0
  193.4590  175.6580  135.3690 C   0  0  1  0  0  3  0  0  0  0  0  0
  194.8420  175.4620  135.9740 C   0  0  0  0  0  2  0  0  0  0  0  0
  195.5390  177.5900  134.9230 C   0  0  0  0  0  1  0  0  0  0  0  0
  195.8940  176.1300  135.1110 C   0  0  0  0  0  2  0  0  0  0  0  0
  192.8090  174.3120  135.0590 C   0  0  0  0  0  2  0  0  0  0  0  0
  193.8250  173.1810  135.0340 C   0  0  0  0  0  2  0  0  0  0  0  0
  192.9570  171.5910  134.9740 S   0  0  0  0  0  0  0  0  0  0  0  0
  191.3370  172.4020  134.9200 C   0  0  0  0  0  1  0  0  0  0  0  0
  187.3960  174.0070  136.5810 C   0  0  0  0  0  2  0  0  0  0  0  0
  186.3730  172.8830  136.4680 C   0  0  0  0  0  2  0  0  0  0  0  0
  187.7570  170.9660  135.6670 C   0  0  0  0  0  1  0  0  0  0  0  0
  186.6820  171.9680  135.2940 C   0  0  0  0  0  2  0  0  0  0  0  0
  189.4040  177.6620  139.4780 O   0  0  0  0  0  0  0  0  0  0  0  0
  190.2620  177.4310  140.5620 C   0  0  0  0  0  2  0  0  0  0  0  0
  189.8970  176.1200  142.9600 S   0  0  0  0  0  0  0  0  0  0  0  0
  189.5110  177.5420  141.8800 C   0  0  2  0  0  3  0  0  0  0  0  0
  188.0090  177.6390  141.6350 C   0  0  0  0  0  2  0  0  0  0  0  0
  185.8040  178.1640  142.6330 C   0  0  0  0  0  1  0  0  0  0  0  0
  187.4600  176.8930  143.9680 C   0  0  0  0  0  2  0  0  0  0  0  0
  187.2790  177.9880  142.9250 C   0  0  1  0  0  3  0  0  0  0  0  0
  188.9260  176.7690  144.3580 C   0  0  0  0  0  2  0  0  0  0  0  0
  1  9  1  6  0  0  0
  1  4  1  0  0  0  0
  1 13  1  0  0  0  0
  2 12  1  0  0  0  0
  3 25  1  1  0  0  0
  3  7  1  0  0  0  0
  4  6  1  1  0  0  0
  5  3  1  0  0  0  0
  5  1  1  0  0  0  0
  6 12  1  0  0  0  0
  6 29  1  0  0  0  0
  8  5  1  0  0  0  0
  8 14  1  0  0  0  0
  9 13  1  0  0  0  0
 10  7  1  0  0  0  0
 10 13  1  0  0  0  0
 11  8  1  0  0  0  0
 11 14  1  0  0  0  0
 14 15  1  0  0  0  0
 14  4  1  0  0  0  0
 15  2  1  0  0  0  0
 16 15  1  0  0  0  0
 17 18  1  0  0  0  0
 17 16  1  0  0  0  0
 19 20  1  0  0  0  0
 20 18  1  0  0  0  0
 21 17  1  0  0  0  0
 22 21  1  0  0  0  0
 23 22  1  0  0  0  0
 24 23  1  0  0  0  0
 26 25  1  0  0  0  0
 28 27  1  0  0  0  0
 28 26  1  0  0  0  0
 29 30  1  0  0  0  0
 30 32  1  0  0  0  0
 31 37  1  0  0  0  0
 32 31  1  0  0  0  0
 33 32  1  0  0  0  0
 33 36  1  0  0  0  0
 34 36  1  0  0  0  0
 35 37  1  0  0  0  0
 36 35  1  0  0  0  0
M  END
>  <MODEL>
6

>  <REMARK>
 VINA RESULT:      -5.6      3.487      6.795
  Name = 
  13 active torsions:
  status: ('A' for Active; 'I' for Inactive)
    1  A    between atoms: O_1  and  C_33
    2  A    between atoms: O_1  and  C_36
    3  A    between atoms: C_3  and  C_30
    4  A    between atoms: C_3  and  C_32
    5  A    between atoms: C_5  and  C_23
    6  A    between atoms: C_5  and  C_33
    7  A    between atoms: C_6  and  C_31
    8  A    between atoms: C_9  and  C_30
    9  A    between atoms: S_11  and  C_26
   10  A    between atoms: N_14  and  O_37
   11  A    between atoms: C_17  and  C_26
   12  A    between atoms: C_17  and  C_33
   13  A    between atoms: C_31  and  O_37
                            x       y       z     vdW  Elec       q    Type
                         _______ _______ _______ _____ _____    ______ ____

>  <TORSDO>
F 13

$$$$
=
 OpenBabel10272414543D

 37 42  0  0  1  0  0  0  0  0999 V2000
  187.5350  177.1190  143.7850 C   0  0  2  0  0  0  0  0  0  0  0  0
  190.0620  178.3750  140.7310 C   0  0  0  0  0  2  0  0  0  0  0  0
  189.2460  177.4480  145.6220 C   0  0  2  0  0  3  0  0  0  0  0  0
  187.8030  177.3090  142.3070 C   0  0  1  0  0  3  0  0  0  0  0  0
  188.6970  176.4900  144.5240 C   0  0  2  0  0  3  0  0  0  0  0  0
  187.9920  178.7370  141.9950 N   0  0  0  0  0  0  0  0  0  0  0  0
  188.1690  178.4290  146.1210 C   0  0  0  0  0  2  0  0  0  0  0  0
  189.7050  176.1050  143.4340 C   0  0  1  0  0  3  0  0  0  0  0  0
  186.1710  176.5630  144.1100 C   0  0  0  0  0  2  0  0  0  0  0  0
  186.8770  177.8890  145.9710 O   0  0  0  0  0  0  0  0  0  0  0  0
  189.1040  175.1980  142.5260 O   0  0  0  0  0  0  0  0  0  0  0  0
  188.6200  178.8750  140.6770 C   0  0  0  0  0  2  0  0  0  0  0  0
  186.5580  177.9590  144.5980 C   0  0  1  0  0  3  0  0  0  0  0  0
  189.1290  176.5510  142.1440 C   0  0  1  0  0  0  0  0  0  0  0  0
  190.0940  176.8720  141.0100 C   0  0  1  0  0  3  0  0  0  0  0  0
  189.7200  176.1680  139.8600 O   0  0  0  0  0  0  0  0  0  0  0  0
  190.5360  176.6680  138.8360 C   0  0  1  0  0  3  0  0  0  0  0  0
  191.7320  175.7530  138.6120 C   0  0  0  0  0  2  0  0  0  0  0  0
  193.4560  176.1300  136.8790 C   0  0  0  0  0  1  0  0  0  0  0  0
  192.9550  176.5670  138.2400 C   0  0  0  0  0  2  0  0  0  0  0  0
  189.7340  176.8350  137.5480 C   0  0  0  0  0  2  0  0  0  0  0  0
  188.2380  176.7170  137.7890 C   0  0  0  0  0  2  0  0  0  0  0  0
  187.3610  177.9010  136.7330 S   0  0  0  0  0  0  0  0  0  0  0  0
  188.6440  179.1600  136.9690 C   0  0  0  0  0  1  0  0  0  0  0  0
  190.4670  178.2620  145.2010 C   0  0  0  0  0  2  0  0  0  0  0  0
  191.7640  177.5880  145.6290 C   0  0  0  0  0  2  0  0  0  0  0  0
  192.3550  175.4190  146.7160 C   0  0  0  0  0  1  0  0  0  0  0  0
  191.5510  176.6980  146.8440 C   0  0  0  0  0  2  0  0  0  0  0  0
  186.7590  179.2920  141.8880 O   0  0  0  0  0  0  0  0  0  0  0  0
  186.2370  178.7880  140.6880 C   0  0  0  0  0  2  0  0  0  0  0  0
  183.7980  179.1420  139.4530 S   0  0  0  0  0  0  0  0  0  0  0  0
  184.7620  178.4490  140.8410 C   0  0  2  0  0  3  0  0  0  0  0  0
  184.2290  178.9600  142.1750 C   0  0  0  0  0  2  0  0  0  0  0  0
  182.3620  178.8700  143.8000 C   0  0  0  0  0  1  0  0  0  0  0  0
  181.8490  178.9120  141.3760 C   0  0  0  0  0  2  0  0  0  0  0  0
  182.8290  178.4180  142.4330 C   0  0  1  0  0  3  0  0  0  0  0  0
  182.2370  178.3820  140.0040 C   0  0  0  0  0  2  0  0  0  0  0  0
  1  9  1  6  0  0  0
  1  5  1  0  0  0  0
  1 13  1  0  0  0  0
  2 15  1  0  0  0  0
  3 25  1  6  0  0  0
  3  7  1  0  0  0  0
  4  6  1  1  0  0  0
  4  1  1  0  0  0  0
  5  3  1  0  0  0  0
  8  5  1  0  0  0  0
  9 13  1  0  0  0  0
 10  7  1  0  0  0  0
 11  8  1  0  0  0  0
 12  2  1  0  0  0  0
 12  6  1  0  0  0  0
 13 10  1  0  0  0  0
 14  4  1  0  0  0  0
 14 11  1  0  0  0  0
 14  8  1  0  0  0  0
 15 14  1  0  0  0  0
 16 15  1  0  0  0  0
 17 16  1  0  0  0  0
 18 17  1  0  0  0  0
 19 20  1  0  0  0  0
 20 18  1  0  0  0  0
 21 22  1  0  0  0  0
 21 17  1  0  0  0  0
 23 24  1  0  0  0  0
 23 22  1  0  0  0  0
 25 26  1  0  0  0  0
 26 28  1  0  0  0  0
 27 28  1  0  0  0  0
 29  6  1  0  0  0  0
 30 32  1  0  0  0  0
 30 29  1  0  0  0  0
 31 37  1  0  0  0  0
 31 32  1  0  0  0  0
 32 33  1  0  0  0  0
 33 36  1  0  0  0  0
 35 36  1  0  0  0  0
 36 34  1  0  0  0  0
 37 35  1  0  0  0  0
M  END
>  <MODEL>
7

>  <REMARK>
 VINA RESULT:      -5.5      2.311      6.432
  Name = 
  13 active torsions:
  status: ('A' for Active; 'I' for Inactive)
    1  A    between atoms: O_1  and  C_33
    2  A    between atoms: O_1  and  C_36
    3  A    between atoms: C_3  and  C_30
    4  A    between atoms: C_3  and  C_32
    5  A    between atoms: C_5  and  C_23
    6  A    between atoms: C_5  and  C_33
    7  A    between atoms: C_6  and  C_31
    8  A    between atoms: C_9  and  C_30
    9  A    between atoms: S_11  and  C_26
   10  A    between atoms: N_14  and  O_37
   11  A    between atoms: C_17  and  C_26
   12  A    between atoms: C_17  and  C_33
   13  A    between atoms: C_31  and  O_37
                            x       y       z     vdW  Elec       q    Type
                         _______ _______ _______ _____ _____    ______ ____

>  <TORSDO>
F 13

$$$$
=
 OpenBabel10272414543D

 37 42  0  0  1  0  0  0  0  0999 V2000
  181.6750  176.8630  137.7520 C   0  0  2  0  0  0  0  0  0  0  0  0
  184.9200  179.1690  138.9510 C   0  0  0  0  0  2  0  0  0  0  0  0
  180.1980  178.8450  137.2080 C   0  0  2  0  0  3  0  0  0  0  0  0
  183.0590  176.9540  138.3610 C   0  0  1  0  0  3  0  0  0  0  0  0
  180.7080  177.8810  138.3190 C   0  0  2  0  0  3  0  0  0  0  0  0
  184.0150  177.5110  137.3880 N   0  0  0  0  0  0  0  0  0  0  0  0
  180.2470  178.1950  135.8130 C   0  0  0  0  0  2  0  0  0  0  0  0
  181.4650  178.5560  139.4690 C   0  0  1  0  0  3  0  0  0  0  0  0
  181.1430  175.4580  137.6110 C   0  0  0  0  0  2  0  0  0  0  0  0
  180.1380  176.7930  135.8990 O   0  0  0  0  0  0  0  0  0  0  0  0
  181.8340  177.5860  140.4340 O   0  0  0  0  0  0  0  0  0  0  0  0
  185.2280  177.9500  138.0850 C   0  0  0  0  0  2  0  0  0  0  0  0
  181.3790  176.3110  136.3640 C   0  0  1  0  0  3  0  0  0  0  0  0
  182.8190  177.9560  139.5000 C   0  0  1  0  0  0  0  0  0  0  0  0
  183.9530  178.7940  140.0740 C   0  0  1  0  0  3  0  0  0  0  0  0
  184.6290  178.0620  141.0570 O   0  0  0  0  0  0  0  0  0  0  0  0
  184.8860  178.9750  142.0890 C   0  0  1  0  0  3  0  0  0  0  0  0
  184.0790  178.6210  143.3290 C   0  0  0  0  0  2  0  0  0  0  0  0
  184.1360  178.8330  145.7930 C   0  0  0  0  0  1  0  0  0  0  0  0
  184.9740  178.6030  144.5530 C   0  0  0  0  0  2  0  0  0  0  0  0
  186.3790  179.0130  142.4080 C   0  0  0  0  0  2  0  0  0  0  0  0
  187.0510  177.6740  142.1520 C   0  0  0  0  0  2  0  0  0  0  0  0
  188.8070  177.9390  141.7860 S   0  0  0  0  0  0  0  0  0  0  0  0
  188.4690  178.1810  140.0210 C   0  0  0  0  0  1  0  0  0  0  0  0
  180.9410  180.1770  137.1340 C   0  0  0  0  0  2  0  0  0  0  0  0
  180.0500  181.3390  137.5550 C   0  0  0  0  0  2  0  0  0  0  0  0
  180.7950  182.2470  135.3520 C   0  0  0  0  0  1  0  0  0  0  0  0
  180.3720  182.5980  136.7650 C   0  0  0  0  0  2  0  0  0  0  0  0
  184.3940  176.4960  136.5700 O   0  0  0  0  0  0  0  0  0  0  0  0
  185.6370  176.0770  137.0640 C   0  0  0  0  0  2  0  0  0  0  0  0
  186.8270  174.1090  135.5450 S   0  0  0  0  0  0  0  0  0  0  0  0
  185.7750  174.5650  136.9650 C   0  0  2  0  0  3  0  0  0  0  0  0
  184.4040  173.9070  136.8530 C   0  0  0  0  0  2  0  0  0  0  0  0
  183.1420  171.7790  136.9670 C   0  0  0  0  0  1  0  0  0  0  0  0
  185.3620  171.8070  135.8670 C   0  0  0  0  0  2  0  0  0  0  0  0
  184.5240  172.3960  136.9950 C   0  0  1  0  0  3  0  0  0  0  0  0
  186.7890  172.3310  135.9380 C   0  0  0  0  0  2  0  0  0  0  0  0
  1  9  1  1  0  0  0
  1  5  1  0  0  0  0
  1  4  1  0  0  0  0
  2 15  1  0  0  0  0
  3 25  1  6  0  0  0
  3  5  1  0  0  0  0
  4  6  1  6  0  0  0
  4 14  1  0  0  0  0
  5  8  1  0  0  0  0
  6 12  1  0  0  0  0
  7 10  1  0  0  0  0
  7  3  1  0  0  0  0
  8 14  1  0  0  0  0
  8 11  1  0  0  0  0
 10 13  1  0  0  0  0
 12  2  1  0  0  0  0
 13  9  1  0  0  0  0
 13  1  1  0  0  0  0
 14 15  1  0  0  0  0
 14 11  1  0  0  0  0
 15 16  1  0  0  0  0
 16 17  1  0  0  0  0
 17 21  1  0  0  0  0
 17 18  1  0  0  0  0
 18 20  1  0  0  0  0
 20 19  1  0  0  0  0
 22 21  1  0  0  0  0
 23 22  1  0  0  0  0
 24 23  1  0  0  0  0
 25 26  1  0  0  0  0
 27 28  1  0  0  0  0
 28 26  1  0  0  0  0
 29 30  1  0  0  0  0
 29  6  1  0  0  0  0
 31 37  1  0  0  0  0
 31 32  1  0  0  0  0
 32 30  1  0  0  0  0
 33 32  1  0  0  0  0
 33 36  1  0  0  0  0
 34 36  1  0  0  0  0
 35 37  1  0  0  0  0
 35 36  1  0  0  0  0
M  END
>  <MODEL>
8

>  <REMARK>
 VINA RESULT:      -5.2      3.561      7.890
  Name = 
  13 active torsions:
  status: ('A' for Active; 'I' for Inactive)
    1  A    between atoms: O_1  and  C_33
    2  A    between atoms: O_1  and  C_36
    3  A    between atoms: C_3  and  C_30
    4  A    between atoms: C_3  and  C_32
    5  A    between atoms: C_5  and  C_23
    6  A    between atoms: C_5  and  C_33
    7  A    between atoms: C_6  and  C_31
    8  A    between atoms: C_9  and  C_30
    9  A    between atoms: S_11  and  C_26
   10  A    between atoms: N_14  and  O_37
   11  A    between atoms: C_17  and  C_26
   12  A    between atoms: C_17  and  C_33
   13  A    between atoms: C_31  and  O_37
                            x       y       z     vdW  Elec       q    Type
                         _______ _______ _______ _____ _____    ______ ____

>  <TORSDO>
F 13

$$$$
=
 OpenBabel10272414543D

 37 42  0  0  1  0  0  0  0  0999 V2000
  187.3410  177.2720  136.0190 C   0  0  2  0  0  0  0  0  0  0  0  0
  188.3210  176.9160  140.0440 C   0  0  0  0  0  2  0  0  0  0  0  0
  186.8530  174.8080  135.7020 C   0  0  2  0  0  3  0  0  0  0  0  0
  187.8680  177.8940  137.2950 C   0  0  1  0  0  3  0  0  0  0  0  0
  187.9470  175.9160  135.7240 C   0  0  2  0  0  3  0  0  0  0  0  0
  186.8350  177.8750  138.3450 N   0  0  0  0  0  0  0  0  0  0  0  0
  185.4670  175.3740  135.3410 C   0  0  0  0  0  2  0  0  0  0  0  0
  189.0420  175.7280  136.7800 C   0  0  1  0  0  3  0  0  0  0  0  0
  187.2500  178.2200  134.8490 C   0  0  0  0  0  2  0  0  0  0  0  0
  185.5790  176.5350  134.5520 O   0  0  0  0  0  0  0  0  0  0  0  0
  189.9980  176.7680  136.6690 O   0  0  0  0  0  0  0  0  0  0  0  0
  187.4560  178.1120  139.6520 C   0  0  0  0  0  2  0  0  0  0  0  0
  185.9800  177.5800  135.4100 C   0  0  1  0  0  3  0  0  0  0  0  0
  189.0050  176.9250  137.6520 C   0  0  1  0  0  0  0  0  0  0  0  0
  189.5020  176.7750  139.0840 C   0  0  1  0  0  3  0  0  0  0  0  0
  190.4560  177.7620  139.3570 O   0  0  0  0  0  0  0  0  0  0  0  0
  191.4980  177.0990  140.0190 C   0  0  1  0  0  3  0  0  0  0  0  0
  192.7940  177.2220  139.2310 C   0  0  0  0  0  2  0  0  0  0  0  0
  193.5420  176.5350  136.9760 C   0  0  0  0  0  1  0  0  0  0  0  0
  192.9470  176.0500  138.2820 C   0  0  0  0  0  2  0  0  0  0  0  0
  191.6700  177.6500  141.4330 C   0  0  0  0  0  2  0  0  0  0  0  0
  191.4150  176.5900  142.4920 C   0  0  0  0  0  2  0  0  0  0  0  0
  191.4780  177.3520  144.1360 S   0  0  0  0  0  0  0  0  0  0  0  0
  190.5290  178.7930  143.5760 C   0  0  0  0  0  1  0  0  0  0  0  0
  186.7180  174.0250  137.0060 C   0  0  0  0  0  2  0  0  0  0  0  0
  185.2620  173.9140  137.4440 C   0  0  0  0  0  2  0  0  0  0  0  0
  183.3780  172.4320  136.7440 C   0  0  0  0  0  1  0  0  0  0  0  0
  184.7660  172.4790  137.3540 C   0  0  0  0  0  2  0  0  0  0  0  0
  186.0120  178.9300  138.1190 O   0  0  0  0  0  0  0  0  0  0  0  0
  184.9790  178.7910  139.0560 C   0  0  0  0  0  2  0  0  0  0  0  0
  182.4120  179.7260  138.6900 S   0  0  0  0  0  0  0  0  0  0  0  0
  183.6690  178.4410  138.3680 C   0  0  2  0  0  3  0  0  0  0  0  0
  183.1710  177.0740  138.8250 C   0  0  0  0  0  2  0  0  0  0  0  0
  181.5810  175.2260  138.3870 C   0  0  0  0  0  1  0  0  0  0  0  0
  180.8120  177.5670  138.1180 C   0  0  0  0  0  2  0  0  0  0  0  0
  181.9970  176.6200  137.9670 C   0  0  1  0  0  3  0  0  0  0  0  0
  181.1720  178.9520  137.6030 C   0  0  0  0  0  2  0  0  0  0  0  0
  1  9  1  6  0  0  0
  1  4  1  0  0  0  0
  3  5  1  0  0  0  0
  3 25  1  1  0  0  0
  4 14  1  0  0  0  0
  4  6  1  1  0  0  0
  5  1  1  0  0  0  0
  5  8  1  0  0  0  0
  6 12  1  0  0  0  0
  7  3  1  0  0  0  0
  8 14  1  0  0  0  0
  9 13  1  0  0  0  0
 10  7  1  0  0  0  0
 10 13  1  0  0  0  0
 11  8  1  0  0  0  0
 11 14  1  0  0  0  0
 12  2  1  0  0  0  0
 13  1  1  0  0  0  0
 14 15  1  0  0  0  0
 15 16  1  0  0  0  0
 15  2  1  0  0  0  0
 16 17  1  0  0  0  0
 17 21  1  0  0  0  0
 18 17  1  0  0  0  0
 19 20  1  0  0  0  0
 20 18  1  0  0  0  0
 21 22  1  0  0  0  0
 22 23  1  0  0  0  0
 24 23  1  0  0  0  0
 25 26  1  0  0  0  0
 27 28  1  0  0  0  0
 28 26  1  0  0  0  0
 29  6  1  0  0  0  0
 29 30  1  0  0  0  0
 32 31  1  0  0  0  0
 32 33  1  0  0  0  0
 32 30  1  0  0  0  0
 36 35  1  0  0  0  0
 36 34  1  0  0  0  0
 36 33  1  0  0  0  0
 37 35  1  0  0  0  0
 37 31  1  0  0  0  0
M  END
>  <MODEL>
9

>  <REMARK>
 VINA RESULT:      -5.2      2.486      3.944
  Name = 
  13 active torsions:
  status: ('A' for Active; 'I' for Inactive)
    1  A    between atoms: O_1  and  C_33
    2  A    between atoms: O_1  and  C_36
    3  A    between atoms: C_3  and  C_30
    4  A    between atoms: C_3  and  C_32
    5  A    between atoms: C_5  and  C_23
    6  A    between atoms: C_5  and  C_33
    7  A    between atoms: C_6  and  C_31
    8  A    between atoms: C_9  and  C_30
    9  A    between atoms: S_11  and  C_26
   10  A    between atoms: N_14  and  O_37
   11  A    between atoms: C_17  and  C_26
   12  A    between atoms: C_17  and  C_33
   13  A    between atoms: C_31  and  O_37
                            x       y       z     vdW  Elec       q    Type
                         _______ _______ _______ _____ _____    ______ ____

>  <TORSDO>
F 13

$$$$
