=
 OpenBabel10272401463D

 28 31  0  0  1  0  0  0  0  0999 V2000
  188.6620  178.1750  140.8520 C   0  0  2  0  0  3  0  0  0  0  0  0
  190.6660  177.0510  140.3500 C   0  0  2  0  0  3  0  0  0  0  0  0
  189.8750  177.3480  139.1390 C   0  0  0  0  0  0  0  0  0  0  0  0
  190.2140  177.0570  137.9630 O   0  0  0  0  0  0  0  0  0  0  0  0
  188.6880  177.9480  139.4570 O   0  0  0  0  0  0  0  0  0  0  0  0
  189.7710  177.3900  141.4660 N   0  0  0  0  0  0  0  0  0  0  0  0
  193.1210  177.1630  139.9240 C   0  0  0  0  0  1  0  0  0  0  0  0
  191.9070  177.9290  140.4150 C   0  0  0  0  0  2  0  0  0  0  0  0
  187.2630  177.9420  141.4290 C   0  0  0  0  0  2  0  0  0  0  0  0
  186.3510  179.1330  141.1640 C   0  0  2  0  0  3  0  0  0  0  0  0
  184.1110  178.5560  140.6080 C   0  0  0  0  0  0  0  0  0  0  0  0
  185.5840  179.4760  142.4350 C   0  0  0  0  0  2  0  0  0  0  0  0
  185.6200  178.8090  138.7460 N   0  0  0  0  0  1  0  0  0  0  0  0
  185.3230  178.7980  140.1400 C   0  0  0  0  0  0  0  0  0  0  0  0
  182.9290  178.3110  139.7340 C   0  0  0  0  0  1  0  0  0  0  0  0
  183.9600  178.6430  142.3780 S   0  0  0  0  0  0  0  0  0  0  0  0
  189.2980  176.1170  142.0260 C   0  0  0  0  0  2  0  0  0  0  0  0
  187.3950  176.6160  144.3200 C   0  0  0  0  0  3  0  0  0  0  0  0
  189.3160  177.5260  145.4880 C   0  0  0  0  0  0  0  0  0  0  0  0
  189.6880  175.9620  143.5020 C   0  0  2  0  0  3  0  0  0  0  0  0
  187.0720  178.0980  146.2030 C   0  0  0  0  0  0  0  0  0  0  0  0
  188.7850  176.7480  144.4350 C   0  0  0  0  0  0  0  0  0  0  0  0
  191.5350  176.4520  145.1530 C   0  0  0  0  0  2  0  0  0  0  0  0
  188.4560  178.2100  146.3520 C   0  0  0  0  0  3  0  0  0  0  0  0
  190.7960  177.6750  145.6760 C   0  0  0  0  0  2  0  0  0  0  0  0
  186.0030  178.9560  147.2910 Cl  0  0  0  0  0  0  0  0  0  0  0  0
  186.5420  177.2930  145.1930 C   0  0  0  0  0  3  0  0  0  0  0  0
  191.1840  176.2510  143.6880 C   0  0  0  0  0  2  0  0  0  0  0  0
  1  9  1  1  0  0  0
  1  6  1  0  0  0  0
  2  8  1  6  0  0  0
  2  6  1  0  0  0  0
  3  5  1  0  0  0  0
  3  2  1  0  0  0  0
  4  3  2  0  0  0  0
  5  1  1  0  0  0  0
  6 17  1  0  0  0  0
  7  8  1  0  0  0  0
 10  9  1  1  0  0  0
 10 12  1  0  0  0  0
 11 16  1  0  0  0  0
 13 14  1  0  0  0  0
 14 11  2  0  0  0  0
 14 10  1  0  0  0  0
 15 11  1  0  0  0  0
 16 12  1  0  0  0  0
 18 22  2  0  0  0  0
 18 27  1  0  0  0  0
 19 25  1  0  0  0  0
 19 24  2  0  0  0  0
 20 17  1  6  0  0  0
 20 28  1  0  0  0  0
 20 22  1  0  0  0  0
 21 24  1  0  0  0  0
 21 26  1  0  0  0  0
 22 19  1  0  0  0  0
 23 25  1  0  0  0  0
 27 21  2  0  0  0  0
 28 23  1  0  0  0  0
M  END
>  <MODEL>
1

>  <REMARK>
 VINA RESULT:      -7.8      0.000      0.000
  Name = 
  5 active torsions:
  status: ('A' for Active; 'I' for Inactive)
    1  A    between atoms: C_1  and  C_2
    2  A    between atoms: C_2  and  C_3
    3  A    between atoms: C_10  and  C_17
    4  A    between atoms: C_16  and  C_20
    5  A    between atoms: C_17  and  N_27
                            x       y       z     vdW  Elec       q    Type
                         _______ _______ _______ _____ _____    ______ ____

>  <TORSDO>
F 5

$$$$
=
 OpenBabel10272401463D

 28 31  0  0  1  0  0  0  0  0999 V2000
  188.1890  177.9580  140.8140 C   0  0  2  0  0  3  0  0  0  0  0  0
  190.3430  177.1140  141.2360 C   0  0  2  0  0  3  0  0  0  0  0  0
  189.7880  176.6150  139.9610 C   0  0  0  0  0  0  0  0  0  0  0  0
  190.3800  175.8380  139.1680 O   0  0  0  0  0  0  0  0  0  0  0  0
  188.5140  177.0700  139.7640 O   0  0  0  0  0  0  0  0  0  0  0  0
  189.2150  177.8000  141.8830 N   0  0  0  0  0  0  0  0  0  0  0  0
  192.7520  177.3820  140.6540 C   0  0  0  0  0  1  0  0  0  0  0  0
  191.4640  178.1100  140.9850 C   0  0  0  0  0  2  0  0  0  0  0  0
  186.7270  177.8010  141.2450 C   0  0  0  0  0  2  0  0  0  0  0  0
  185.9700  179.1160  141.1170 C   0  0  2  0  0  3  0  0  0  0  0  0
  183.6890  178.8830  140.4830 C   0  0  0  0  0  0  0  0  0  0  0  0
  185.2230  179.3980  142.4160 C   0  0  0  0  0  2  0  0  0  0  0  0
  185.2550  179.1680  138.6740 N   0  0  0  0  0  1  0  0  0  0  0  0
  184.9310  179.0300  140.0550 C   0  0  0  0  0  0  0  0  0  0  0  0
  182.5040  178.8860  139.5790 C   0  0  0  0  0  1  0  0  0  0  0  0
  183.5130  178.7800  142.2500 S   0  0  0  0  0  0  0  0  0  0  0  0
  188.7530  176.9210  142.9640 C   0  0  0  0  0  2  0  0  0  0  0  0
  191.0180  177.0460  144.9610 C   0  0  0  0  0  3  0  0  0  0  0  0
  189.2960  176.9050  146.6620 C   0  0  0  0  0  0  0  0  0  0  0  0
  188.6630  177.6610  144.3050 C   0  0  2  0  0  3  0  0  0  0  0  0
  191.5890  176.3330  147.2000 C   0  0  0  0  0  0  0  0  0  0  0  0
  189.6700  177.1590  145.3240 C   0  0  0  0  0  0  0  0  0  0  0  0
  187.1350  178.0750  146.2730 C   0  0  0  0  0  2  0  0  0  0  0  0
  190.2540  176.4770  147.5860 C   0  0  0  0  0  3  0  0  0  0  0  0
  187.8720  177.0420  147.1120 C   0  0  0  0  0  2  0  0  0  0  0  0
  192.7820  175.7990  148.3630 Cl  0  0  0  0  0  0  0  0  0  0  0  0
  191.9730  176.6280  145.8910 C   0  0  0  0  0  3  0  0  0  0  0  0
  187.2140  177.6710  144.8090 C   0  0  0  0  0  2  0  0  0  0  0  0
  1  9  1  1  0  0  0
  1  6  1  0  0  0  0
  2  8  1  6  0  0  0
  2  6  1  0  0  0  0
  3  2  1  0  0  0  0
  4  3  2  0  0  0  0
  5  3  1  0  0  0  0
  5  1  1  0  0  0  0
  6 17  1  0  0  0  0
  7  8  1  0  0  0  0
 10  9  1  1  0  0  0
 10 12  1  0  0  0  0
 11 16  1  0  0  0  0
 13 14  1  0  0  0  0
 14 11  2  0  0  0  0
 14 10  1  0  0  0  0
 15 11  1  0  0  0  0
 16 12  1  0  0  0  0
 18 22  2  0  0  0  0
 18 27  1  0  0  0  0
 19 25  1  0  0  0  0
 19 24  2  0  0  0  0
 20 17  1  6  0  0  0
 20 28  1  0  0  0  0
 20 22  1  0  0  0  0
 21 24  1  0  0  0  0
 21 26  1  0  0  0  0
 22 19  1  0  0  0  0
 23 25  1  0  0  0  0
 27 21  2  0  0  0  0
 28 23  1  0  0  0  0
M  END
>  <MODEL>
2

>  <REMARK>
 VINA RESULT:      -7.7      1.754      2.719
  Name = 
  5 active torsions:
  status: ('A' for Active; 'I' for Inactive)
    1  A    between atoms: C_1  and  C_2
    2  A    between atoms: C_2  and  C_3
    3  A    between atoms: C_10  and  C_17
    4  A    between atoms: C_16  and  C_20
    5  A    between atoms: C_17  and  N_27
                            x       y       z     vdW  Elec       q    Type
                         _______ _______ _______ _____ _____    ______ ____

>  <TORSDO>
F 5

$$$$
=
 OpenBabel10272401463D

 28 31  0  0  1  0  0  0  0  0999 V2000
  189.0920  176.7490  138.3980 C   0  0  2  0  0  3  0  0  0  0  0  0
  187.4860  178.3930  138.8990 C   0  0  2  0  0  3  0  0  0  0  0  0
  188.1950  178.6720  137.6330 C   0  0  0  0  0  0  0  0  0  0  0  0
  187.9780  179.6590  136.8840 O   0  0  0  0  0  0  0  0  0  0  0  0
  189.1630  177.7380  137.3910 O   0  0  0  0  0  0  0  0  0  0  0  0
  188.2280  177.2710  139.4940 N   0  0  0  0  0  0  0  0  0  0  0  0
  185.0950  178.7600  139.5010 C   0  0  0  0  0  1  0  0  0  0  0  0
  186.0510  177.9650  138.6330 C   0  0  0  0  0  2  0  0  0  0  0  0
  190.4880  176.2650  138.8040 C   0  0  0  0  0  2  0  0  0  0  0  0
  191.4840  176.4340  137.6640 C   0  0  2  0  0  3  0  0  0  0  0  0
  193.2980  174.8950  137.7040 C   0  0  0  0  0  0  0  0  0  0  0  0
  191.1360  175.4670  136.5400 C   0  0  0  0  0  2  0  0  0  0  0  0
  193.6700  176.9820  138.8490 N   0  0  0  0  0  1  0  0  0  0  0  0
  192.8600  176.0760  138.1050 C   0  0  0  0  0  0  0  0  0  0  0  0
  194.6840  174.4070  137.9500 C   0  0  0  0  0  1  0  0  0  0  0  0
  192.1330  173.9510  136.7460 S   0  0  0  0  0  0  0  0  0  0  0  0
  189.0180  177.8300  140.5990 C   0  0  0  0  0  2  0  0  0  0  0  0
  186.7960  177.6860  142.6440 C   0  0  0  0  0  3  0  0  0  0  0  0
  188.5580  177.3640  144.2790 C   0  0  0  0  0  0  0  0  0  0  0  0
  189.0420  176.8940  141.8150 C   0  0  2  0  0  3  0  0  0  0  0  0
  186.3660  178.1230  144.9820 C   0  0  0  0  0  0  0  0  0  0  0  0
  188.1270  177.3580  142.9340 C   0  0  0  0  0  0  0  0  0  0  0  0
  190.5460  176.0130  143.6420 C   0  0  0  0  0  2  0  0  0  0  0  0
  187.6800  177.7650  145.2910 C   0  0  0  0  0  3  0  0  0  0  0  0
  189.9620  176.9920  144.6490 C   0  0  0  0  0  2  0  0  0  0  0  0
  185.2730  178.6200  146.2560 Cl  0  0  0  0  0  0  0  0  0  0  0  0
  185.9210  178.0740  143.6600 C   0  0  0  0  0  3  0  0  0  0  0  0
  190.4880  176.6350  142.2560 C   0  0  0  0  0  2  0  0  0  0  0  0
  1  9  1  1  0  0  0
  1  6  1  0  0  0  0
  2  8  1  6  0  0  0
  2  6  1  0  0  0  0
  3  2  1  0  0  0  0
  4  3  2  0  0  0  0
  5  3  1  0  0  0  0
  5  1  1  0  0  0  0
  6 17  1  0  0  0  0
  8  7  1  0  0  0  0
 10 14  1  0  0  0  0
 10  9  1  1  0  0  0
 11 15  1  0  0  0  0
 11 14  2  0  0  0  0
 12 16  1  0  0  0  0
 12 10  1  0  0  0  0
 14 13  1  0  0  0  0
 16 11  1  0  0  0  0
 18 22  2  0  0  0  0
 18 27  1  0  0  0  0
 19 25  1  0  0  0  0
 19 24  2  0  0  0  0
 20 17  1  6  0  0  0
 20 28  1  0  0  0  0
 20 22  1  0  0  0  0
 21 24  1  0  0  0  0
 21 26  1  0  0  0  0
 22 19  1  0  0  0  0
 23 25  1  0  0  0  0
 27 21  2  0  0  0  0
 28 23  1  0  0  0  0
M  END
>  <MODEL>
3

>  <REMARK>
 VINA RESULT:      -7.7      2.948      5.545
  Name = 
  5 active torsions:
  status: ('A' for Active; 'I' for Inactive)
    1  A    between atoms: C_1  and  C_2
    2  A    between atoms: C_2  and  C_3
    3  A    between atoms: C_10  and  C_17
    4  A    between atoms: C_16  and  C_20
    5  A    between atoms: C_17  and  N_27
                            x       y       z     vdW  Elec       q    Type
                         _______ _______ _______ _____ _____    ______ ____

>  <TORSDO>
F 5

$$$$
=
 OpenBabel10272401463D

 28 31  0  0  1  0  0  0  0  0999 V2000
  188.7550  177.6500  140.8540 C   0  0  2  0  0  3  0  0  0  0  0  0
  187.2730  178.3700  139.1760 C   0  0  2  0  0  3  0  0  0  0  0  0
  188.6650  178.7840  138.9070 C   0  0  0  0  0  0  0  0  0  0  0  0
  189.0450  179.4360  137.9000 O   0  0  0  0  0  0  0  0  0  0  0  0
  189.5000  178.4070  139.9220 O   0  0  0  0  0  0  0  0  0  0  0  0
  187.3080  177.8330  140.5440 N   0  0  0  0  0  0  0  0  0  0  0  0
  185.9660  177.8530  137.1170 C   0  0  0  0  0  1  0  0  0  0  0  0
  186.8390  177.2750  138.2140 C   0  0  0  0  0  2  0  0  0  0  0  0
  189.1860  177.9540  142.2920 C   0  0  0  0  0  2  0  0  0  0  0  0
  189.3270  176.6750  143.1080 C   0  0  2  0  0  3  0  0  0  0  0  0
  190.4710  176.9470  145.1760 C   0  0  0  0  0  0  0  0  0  0  0  0
  188.2020  176.6030  144.1330 C   0  0  0  0  0  2  0  0  0  0  0  0
  191.8460  176.3490  143.2910 N   0  0  0  0  0  1  0  0  0  0  0  0
  190.5950  176.6800  143.8880 C   0  0  0  0  0  0  0  0  0  0  0  0
  191.6070  176.8910  146.1390 C   0  0  0  0  0  1  0  0  0  0  0  0
  188.8090  177.2860  145.7140 S   0  0  0  0  0  0  0  0  0  0  0  0
  186.6850  178.8440  141.4080 C   0  0  0  0  0  2  0  0  0  0  0  0
  183.9450  177.9770  140.4680 C   0  0  0  0  0  3  0  0  0  0  0  0
  183.1460  178.7860  142.6110 C   0  0  0  0  0  0  0  0  0  0  0  0
  185.6250  178.2300  142.3320 C   0  0  2  0  0  3  0  0  0  0  0  0
  181.6050  178.5100  140.7600 C   0  0  0  0  0  0  0  0  0  0  0  0
  184.2150  178.3700  141.7860 C   0  0  0  0  0  0  0  0  0  0  0  0
  184.5780  178.4610  144.6190 C   0  0  0  0  0  2  0  0  0  0  0  0
  181.8530  178.8710  142.0870 C   0  0  0  0  0  3  0  0  0  0  0  0
  183.3730  179.1860  144.0380 C   0  0  0  0  0  2  0  0  0  0  0  0
  179.9820  178.6170  140.1140 Cl  0  0  0  0  0  0  0  0  0  0  0  0
  182.6490  178.0540  139.9550 C   0  0  0  0  0  3  0  0  0  0  0  0
  185.7970  178.7610  143.7620 C   0  0  0  0  0  2  0  0  0  0  0  0
  1  9  1  1  0  0  0
  2  8  1  6  0  0  0
  2  6  1  0  0  0  0
  3  2  1  0  0  0  0
  3  5  1  0  0  0  0
  4  3  2  0  0  0  0
  5  1  1  0  0  0  0
  6  1  1  0  0  0  0
  6 17  1  0  0  0  0
  7  8  1  0  0  0  0
 10  9  1  1  0  0  0
 10 14  1  0  0  0  0
 10 12  1  0  0  0  0
 11 16  1  0  0  0  0
 11 15  1  0  0  0  0
 12 16  1  0  0  0  0
 13 14  1  0  0  0  0
 14 11  2  0  0  0  0
 18 22  1  0  0  0  0
 19 25  1  0  0  0  0
 20 17  1  6  0  0  0
 20 28  1  0  0  0  0
 21 24  2  0  0  0  0
 22 20  1  0  0  0  0
 22 19  2  0  0  0  0
 24 19  1  0  0  0  0
 25 23  1  0  0  0  0
 26 21  1  0  0  0  0
 27 18  2  0  0  0  0
 27 21  1  0  0  0  0
 28 23  1  0  0  0  0
M  END
>  <MODEL>
4

>  <REMARK>
 VINA RESULT:      -7.4      2.787      6.099
  Name = 
  5 active torsions:
  status: ('A' for Active; 'I' for Inactive)
    1  A    between atoms: C_1  and  C_2
    2  A    between atoms: C_2  and  C_3
    3  A    between atoms: C_10  and  C_17
    4  A    between atoms: C_16  and  C_20
    5  A    between atoms: C_17  and  N_27
                            x       y       z     vdW  Elec       q    Type
                         _______ _______ _______ _____ _____    ______ ____

>  <TORSDO>
F 5

$$$$
=
 OpenBabel10272401463D

 28 31  0  0  1  0  0  0  0  0999 V2000
  188.3780  177.9040  140.2460 C   0  0  2  0  0  3  0  0  0  0  0  0
  190.4510  177.0010  140.8920 C   0  0  2  0  0  3  0  0  0  0  0  0
  189.9960  176.4770  139.5890 C   0  0  0  0  0  0  0  0  0  0  0  0
  190.6280  175.6520  138.8790 O   0  0  0  0  0  0  0  0  0  0  0  0
  188.7640  176.9690  139.2600 O   0  0  0  0  0  0  0  0  0  0  0  0
  189.2960  177.7490  141.4110 N   0  0  0  0  0  0  0  0  0  0  0  0
  192.8780  177.1720  140.3450 C   0  0  0  0  0  1  0  0  0  0  0  0
  191.6280  177.9480  140.7150 C   0  0  0  0  0  2  0  0  0  0  0  0
  186.8790  177.8140  140.5460 C   0  0  0  0  0  2  0  0  0  0  0  0
  186.0920  178.8400  139.7400 C   0  0  2  0  0  3  0  0  0  0  0  0
  184.3290  177.9250  138.4320 C   0  0  0  0  0  0  0  0  0  0  0  0
  184.8450  179.2450  140.5170 C   0  0  0  0  0  2  0  0  0  0  0  0
  186.4590  178.1230  137.3250 N   0  0  0  0  0  1  0  0  0  0  0  0
  185.6080  178.2530  138.4610 C   0  0  0  0  0  0  0  0  0  0  0  0
  183.6370  177.4270  137.2100 C   0  0  0  0  0  1  0  0  0  0  0  0
  183.4470  178.2170  139.9490 S   0  0  0  0  0  0  0  0  0  0  0  0
  188.7040  176.9240  142.4720 C   0  0  0  0  0  2  0  0  0  0  0  0
  190.8350  177.1740  144.6000 C   0  0  0  0  0  3  0  0  0  0  0  0
  189.0100  177.0670  146.1940 C   0  0  0  0  0  0  0  0  0  0  0  0
  188.5160  177.7160  143.7730 C   0  0  2  0  0  3  0  0  0  0  0  0
  191.2740  176.5630  146.8980 C   0  0  0  0  0  0  0  0  0  0  0  0
  189.4640  177.2750  144.8730 C   0  0  0  0  0  0  0  0  0  0  0  0
  186.8590  178.1760  145.6220 C   0  0  0  0  0  2  0  0  0  0  0  0
  189.9150  176.6940  147.1930 C   0  0  0  0  0  3  0  0  0  0  0  0
  187.5590  177.1930  146.5470 C   0  0  0  0  0  2  0  0  0  0  0  0
  192.4000  176.1000  148.1550 Cl  0  0  0  0  0  0  0  0  0  0  0  0
  191.7350  176.8130  145.6050 C   0  0  0  0  0  3  0  0  0  0  0  0
  187.0380  177.7160  144.1840 C   0  0  0  0  0  2  0  0  0  0  0  0
  1  9  1  1  0  0  0
  1  6  1  0  0  0  0
  2  8  1  6  0  0  0
  2  6  1  0  0  0  0
  3  2  1  0  0  0  0
  4  3  2  0  0  0  0
  5  3  1  0  0  0  0
  5  1  1  0  0  0  0
  6 17  1  0  0  0  0
  7  8  1  0  0  0  0
 10 12  1  0  0  0  0
 10  9  1  1  0  0  0
 11 14  2  0  0  0  0
 11 16  1  0  0  0  0
 13 14  1  0  0  0  0
 14 10  1  0  0  0  0
 15 11  1  0  0  0  0
 16 12  1  0  0  0  0
 18 22  2  0  0  0  0
 18 27  1  0  0  0  0
 19 25  1  0  0  0  0
 19 24  2  0  0  0  0
 20 17  1  6  0  0  0
 20 28  1  0  0  0  0
 20 22  1  0  0  0  0
 21 24  1  0  0  0  0
 21 26  1  0  0  0  0
 22 19  1  0  0  0  0
 23 25  1  0  0  0  0
 27 21  2  0  0  0  0
 28 23  1  0  0  0  0
M  END
>  <MODEL>
5

>  <REMARK>
 VINA RESULT:      -7.3      1.874      2.791
  Name = 
  5 active torsions:
  status: ('A' for Active; 'I' for Inactive)
    1  A    between atoms: C_1  and  C_2
    2  A    between atoms: C_2  and  C_3
    3  A    between atoms: C_10  and  C_17
    4  A    between atoms: C_16  and  C_20
    5  A    between atoms: C_17  and  N_27
                            x       y       z     vdW  Elec       q    Type
                         _______ _______ _______ _____ _____    ______ ____

>  <TORSDO>
F 5

$$$$
=
 OpenBabel10272401463D

 28 31  0  0  1  0  0  0  0  0999 V2000
  186.3790  177.9780  138.9150 C   0  0  2  0  0  3  0  0  0  0  0  0
  185.0940  178.8570  140.6780 C   0  0  2  0  0  3  0  0  0  0  0  0
  184.8370  179.5520  139.4000 C   0  0  0  0  0  0  0  0  0  0  0  0
  184.0230  180.4970  139.2410 O   0  0  0  0  0  0  0  0  0  0  0  0
  185.6360  179.0650  138.4030 O   0  0  0  0  0  0  0  0  0  0  0  0
  186.2520  177.9950  140.4010 N   0  0  0  0  0  0  0  0  0  0  0  0
  183.1780  178.6110  142.2540 C   0  0  0  0  0  1  0  0  0  0  0  0
  183.9060  177.9950  141.0750 C   0  0  0  0  0  2  0  0  0  0  0  0
  187.8050  177.9630  138.3550 C   0  0  0  0  0  2  0  0  0  0  0  0
  188.2830  176.5400  138.1000 C   0  0  2  0  0  3  0  0  0  0  0  0
  188.3900  175.9330  135.8020 C   0  0  0  0  0  0  0  0  0  0  0  0
  189.7790  176.5520  137.8130 C   0  0  0  0  0  2  0  0  0  0  0  0
  186.3120  175.4430  136.9180 N   0  0  0  0  0  1  0  0  0  0  0  0
  187.6350  175.9720  136.8860 C   0  0  0  0  0  0  0  0  0  0  0  0
  187.9580  175.3020  134.5230 C   0  0  0  0  0  1  0  0  0  0  0  0
  190.0250  176.6050  136.0040 S   0  0  0  0  0  0  0  0  0  0  0  0
  187.4100  178.6270  141.0450 C   0  0  0  0  0  2  0  0  0  0  0  0
  186.7730  177.6700  143.8400 C   0  0  0  0  0  3  0  0  0  0  0  0
  189.1720  177.6640  144.1980 C   0  0  0  0  0  0  0  0  0  0  0  0
  188.2660  177.6080  141.8090 C   0  0  2  0  0  3  0  0  0  0  0  0
  187.6580  177.7220  146.0900 C   0  0  0  0  0  0  0  0  0  0  0  0
  188.0710  177.6850  143.3130 C   0  0  0  0  0  0  0  0  0  0  0  0
  190.6570  176.9770  142.3240 C   0  0  0  0  0  2  0  0  0  0  0  0
  188.9580  177.7010  145.5790 C   0  0  0  0  0  3  0  0  0  0  0  0
  190.5810  177.6480  143.6870 C   0  0  0  0  0  2  0  0  0  0  0  0
  187.3990  177.7660  147.8200 Cl  0  0  0  0  0  0  0  0  0  0  0  0
  186.5660  177.6960  145.2210 C   0  0  0  0  0  3  0  0  0  0  0  0
  189.7310  177.7050  141.3620 C   0  0  0  0  0  2  0  0  0  0  0  0
  1  9  1  1  0  0  0
  1  6  1  0  0  0  0
  2  8  1  6  0  0  0
  3  2  1  0  0  0  0
  4  3  2  0  0  0  0
  5  1  1  0  0  0  0
  5  3  1  0  0  0  0
  6  2  1  0  0  0  0
  6 17  1  0  0  0  0
  8  7  1  0  0  0  0
 10  9  1  6  0  0  0
 11 16  1  0  0  0  0
 11 14  2  0  0  0  0
 12 10  1  0  0  0  0
 14 13  1  0  0  0  0
 14 10  1  0  0  0  0
 15 11  1  0  0  0  0
 16 12  1  0  0  0  0
 18 27  1  0  0  0  0
 19 24  2  0  0  0  0
 20 17  1  6  0  0  0
 20 22  1  0  0  0  0
 21 26  1  0  0  0  0
 22 18  2  0  0  0  0
 22 19  1  0  0  0  0
 23 25  1  0  0  0  0
 24 21  1  0  0  0  0
 25 19  1  0  0  0  0
 27 21  2  0  0  0  0
 28 20  1  0  0  0  0
 28 23  1  0  0  0  0
M  END
>  <MODEL>
6

>  <REMARK>
 VINA RESULT:      -7.3      2.906      4.935
  Name = 
  5 active torsions:
  status: ('A' for Active; 'I' for Inactive)
    1  A    between atoms: C_1  and  C_2
    2  A    between atoms: C_2  and  C_3
    3  A    between atoms: C_10  and  C_17
    4  A    between atoms: C_16  and  C_20
    5  A    between atoms: C_17  and  N_27
                            x       y       z     vdW  Elec       q    Type
                         _______ _______ _______ _____ _____    ______ ____

>  <TORSDO>
F 5

$$$$
=
 OpenBabel10272401463D

 28 31  0  0  1  0  0  0  0  0999 V2000
  190.8060  177.3150  141.8180 C   0  0  2  0  0  3  0  0  0  0  0  0
  190.6450  176.5520  144.0360 C   0  0  2  0  0  3  0  0  0  0  0  0
  190.4700  175.4600  143.0570 C   0  0  0  0  0  0  0  0  0  0  0  0
  190.2700  174.2530  143.3460 O   0  0  0  0  0  0  0  0  0  0  0  0
  190.5090  175.9340  141.7750 O   0  0  0  0  0  0  0  0  0  0  0  0
  190.6380  177.7780  143.2250 N   0  0  0  0  0  0  0  0  0  0  0  0
  191.7720  175.9680  146.1830 C   0  0  0  0  0  1  0  0  0  0  0  0
  191.9820  176.4280  144.7530 C   0  0  0  0  0  2  0  0  0  0  0  0
  190.0260  178.0870  140.7500 C   0  0  0  0  0  2  0  0  0  0  0  0
  189.1660  177.1520  139.9090 C   0  0  2  0  0  3  0  0  0  0  0  0
  188.4840  178.0530  137.8160 C   0  0  0  0  0  0  0  0  0  0  0  0
  190.0500  176.4100  138.9140 C   0  0  0  0  0  2  0  0  0  0  0  0
  186.9690  178.4140  139.6550 N   0  0  0  0  0  1  0  0  0  0  0  0
  188.1840  177.9200  139.0960 C   0  0  0  0  0  0  0  0  0  0  0  0
  187.5760  178.6930  136.8230 C   0  0  0  0  0  1  0  0  0  0  0  0
  190.0280  177.3160  137.3290 S   0  0  0  0  0  0  0  0  0  0  0  0
  189.3340  178.4170  143.4410 C   0  0  0  0  0  2  0  0  0  0  0  0
  186.3680  177.8970  143.1830 C   0  0  0  0  0  3  0  0  0  0  0  0
  186.2670  178.2870  145.5750 C   0  0  0  0  0  0  0  0  0  0  0  0
  188.5050  177.6800  144.5020 C   0  0  2  0  0  3  0  0  0  0  0  0
  184.2630  178.4730  144.2240 C   0  0  0  0  0  0  0  0  0  0  0  0
  187.0230  177.9970  144.4170 C   0  0  0  0  0  0  0  0  0  0  0  0
  188.1470  177.4870  146.9940 C   0  0  0  0  0  2  0  0  0  0  0  0
  184.8970  178.5410  145.4670 C   0  0  0  0  0  3  0  0  0  0  0  0
  186.9130  178.3740  146.9250 C   0  0  0  0  0  2  0  0  0  0  0  0
  182.5460  178.7900  144.1000 Cl  0  0  0  0  0  0  0  0  0  0  0  0
  184.9960  178.1410  143.0840 C   0  0  0  0  0  3  0  0  0  0  0  0
  189.1130  177.8960  145.8940 C   0  0  0  0  0  2  0  0  0  0  0  0
  1  9  1  6  0  0  0
  1  6  1  0  0  0  0
  2  8  1  6  0  0  0
  3  4  2  0  0  0  0
  3  2  1  0  0  0  0
  5  1  1  0  0  0  0
  5  3  1  0  0  0  0
  6 17  1  0  0  0  0
  6  2  1  0  0  0  0
  8  7  1  0  0  0  0
 10  9  1  6  0  0  0
 11 14  2  0  0  0  0
 12 10  1  0  0  0  0
 14 13  1  0  0  0  0
 14 10  1  0  0  0  0
 15 11  1  0  0  0  0
 16 11  1  0  0  0  0
 16 12  1  0  0  0  0
 18 22  1  0  0  0  0
 19 25  1  0  0  0  0
 20 17  1  6  0  0  0
 20 28  1  0  0  0  0
 21 24  2  0  0  0  0
 22 20  1  0  0  0  0
 22 19  2  0  0  0  0
 24 19  1  0  0  0  0
 25 23  1  0  0  0  0
 26 21  1  0  0  0  0
 27 18  2  0  0  0  0
 27 21  1  0  0  0  0
 28 23  1  0  0  0  0
M  END
>  <MODEL>
7

>  <REMARK>
 VINA RESULT:      -7.3      2.647      4.163
  Name = 
  5 active torsions:
  status: ('A' for Active; 'I' for Inactive)
    1  A    between atoms: C_1  and  C_2
    2  A    between atoms: C_2  and  C_3
    3  A    between atoms: C_10  and  C_17
    4  A    between atoms: C_16  and  C_20
    5  A    between atoms: C_17  and  N_27
                            x       y       z     vdW  Elec       q    Type
                         _______ _______ _______ _____ _____    ______ ____

>  <TORSDO>
F 5

$$$$
=
 OpenBabel10272401463D

 28 31  0  0  1  0  0  0  0  0999 V2000
  189.5430  177.9360  138.1160 C   0  0  2  0  0  3  0  0  0  0  0  0
  190.5720  176.8610  139.9370 C   0  0  2  0  0  3  0  0  0  0  0  0
  190.8850  176.2040  138.6520 C   0  0  0  0  0  0  0  0  0  0  0  0
  191.6230  175.1950  138.5150 O   0  0  0  0  0  0  0  0  0  0  0  0
  190.2310  176.8080  137.6140 O   0  0  0  0  0  0  0  0  0  0  0  0
  189.5270  177.8400  139.6040 N   0  0  0  0  0  0  0  0  0  0  0  0
  191.9720  177.2760  141.9580 C   0  0  0  0  0  1  0  0  0  0  0  0
  191.7900  177.5890  140.4850 C   0  0  0  0  0  2  0  0  0  0  0  0
  188.1840  178.1110  137.4310 C   0  0  0  0  0  2  0  0  0  0  0  0
  188.0220  177.1390  136.2690 C   0  0  2  0  0  3  0  0  0  0  0  0
  185.8920  176.0870  136.1540 C   0  0  0  0  0  0  0  0  0  0  0  0
  187.3510  177.8530  135.1020 C   0  0  0  0  0  2  0  0  0  0  0  0
  187.5770  174.9050  137.4070 N   0  0  0  0  0  1  0  0  0  0  0  0
  187.1190  176.0150  136.6390 C   0  0  0  0  0  0  0  0  0  0  0  0
  184.8790  175.0070  136.3220 C   0  0  0  0  0  1  0  0  0  0  0  0
  185.5540  177.5390  135.1830 S   0  0  0  0  0  0  0  0  0  0  0  0
  188.2610  177.2910  140.1060 C   0  0  0  0  0  2  0  0  0  0  0  0
  188.7370  177.7410  143.0570 C   0  0  0  0  0  3  0  0  0  0  0  0
  186.3390  178.0740  143.2150 C   0  0  0  0  0  0  0  0  0  0  0  0
  187.4860  178.3160  140.9440 C   0  0  2  0  0  3  0  0  0  0  0  0
  187.6250  177.5180  145.1930 C   0  0  0  0  0  0  0  0  0  0  0  0
  187.5110  178.0030  142.4290 C   0  0  0  0  0  0  0  0  0  0  0  0
  185.1710  179.2380  141.3530 C   0  0  0  0  0  2  0  0  0  0  0  0
  186.4020  177.8130  144.5870 C   0  0  0  0  0  3  0  0  0  0  0  0
  185.0070  178.3820  142.6000 C   0  0  0  0  0  2  0  0  0  0  0  0
  187.6950  177.1960  146.9110 Cl  0  0  0  0  0  0  0  0  0  0  0  0
  188.7940  177.4920  144.4300 C   0  0  0  0  0  3  0  0  0  0  0  0
  186.0770  178.5130  140.3700 C   0  0  0  0  0  2  0  0  0  0  0  0
  1  9  1  6  0  0  0
  1  6  1  0  0  0  0
  2  8  1  6  0  0  0
  3  2  1  0  0  0  0
  4  3  2  0  0  0  0
  5  1  1  0  0  0  0
  5  3  1  0  0  0  0
  6  2  1  0  0  0  0
  6 17  1  0  0  0  0
  8  7  1  0  0  0  0
 10 14  1  0  0  0  0
 10  9  1  1  0  0  0
 11 15  1  0  0  0  0
 11 14  2  0  0  0  0
 12 16  1  0  0  0  0
 12 10  1  0  0  0  0
 14 13  1  0  0  0  0
 16 11  1  0  0  0  0
 18 27  1  0  0  0  0
 19 24  2  0  0  0  0
 20 17  1  6  0  0  0
 20 22  1  0  0  0  0
 21 26  1  0  0  0  0
 22 18  2  0  0  0  0
 22 19  1  0  0  0  0
 23 25  1  0  0  0  0
 24 21  1  0  0  0  0
 25 19  1  0  0  0  0
 27 21  2  0  0  0  0
 28 20  1  0  0  0  0
 28 23  1  0  0  0  0
M  END
>  <MODEL>
8

>  <REMARK>
 VINA RESULT:      -7.1      2.810      4.285
  Name = 
  5 active torsions:
  status: ('A' for Active; 'I' for Inactive)
    1  A    between atoms: C_1  and  C_2
    2  A    between atoms: C_2  and  C_3
    3  A    between atoms: C_10  and  C_17
    4  A    between atoms: C_16  and  C_20
    5  A    between atoms: C_17  and  N_27
                            x       y       z     vdW  Elec       q    Type
                         _______ _______ _______ _____ _____    ______ ____

>  <TORSDO>
F 5

$$$$
=
 OpenBabel10272401463D

 28 31  0  0  1  0  0  0  0  0999 V2000
  190.0820  177.4770  141.1180 C   0  0  2  0  0  3  0  0  0  0  0  0
  190.2180  177.1100  143.4360 C   0  0  2  0  0  3  0  0  0  0  0  0
  190.1450  175.8460  142.6750 C   0  0  0  0  0  0  0  0  0  0  0  0
  190.1640  174.6940  143.1790 O   0  0  0  0  0  0  0  0  0  0  0  0
  190.0080  176.0830  141.3350 O   0  0  0  0  0  0  0  0  0  0  0  0
  189.9510  178.1560  142.4380 N   0  0  0  0  0  0  0  0  0  0  0  0
  191.9400  178.7890  144.0950 C   0  0  0  0  0  1  0  0  0  0  0  0
  191.6080  177.3110  144.0200 C   0  0  0  0  0  2  0  0  0  0  0  0
  189.1080  177.9240  140.0240 C   0  0  0  0  0  2  0  0  0  0  0  0
  189.7750  177.9190  138.6540 C   0  0  2  0  0  3  0  0  0  0  0  0
  188.6840  176.5650  137.0310 C   0  0  0  0  0  0  0  0  0  0  0  0
  189.0940  178.9440  137.7560 C   0  0  0  0  0  2  0  0  0  0  0  0
  190.4180  175.4800  138.3040 N   0  0  0  0  0  1  0  0  0  0  0  0
  189.6000  176.6020  137.9830 C   0  0  0  0  0  0  0  0  0  0  0  0
  188.4400  175.3710  136.1740 C   0  0  0  0  0  1  0  0  0  0  0  0
  187.8150  178.0950  136.7680 S   0  0  0  0  0  0  0  0  0  0  0  0
  188.5820  178.6280  142.6810 C   0  0  0  0  0  2  0  0  0  0  0  0
  185.6200  178.0320  142.7340 C   0  0  0  0  0  3  0  0  0  0  0  0
  185.7760  178.3510  145.1340 C   0  0  0  0  0  0  0  0  0  0  0  0
  187.8950  177.8380  143.8020 C   0  0  2  0  0  3  0  0  0  0  0  0
  183.6300  178.5190  144.0190 C   0  0  0  0  0  0  0  0  0  0  0  0
  186.4060  178.1150  143.8910 C   0  0  0  0  0  0  0  0  0  0  0  0
  187.8210  177.5640  146.3120 C   0  0  0  0  0  2  0  0  0  0  0  0
  184.3960  178.5690  145.1870 C   0  0  0  0  0  3  0  0  0  0  0  0
  186.5650  178.4180  146.4070 C   0  0  0  0  0  2  0  0  0  0  0  0
  181.9030  178.7900  144.0950 Cl  0  0  0  0  0  0  0  0  0  0  0  0
  184.2400  178.2400  142.7950 C   0  0  0  0  0  3  0  0  0  0  0  0
  188.6480  178.0320  145.1250 C   0  0  0  0  0  2  0  0  0  0  0  0
  1  9  1  6  0  0  0
  1  5  1  0  0  0  0
  1  6  1  0  0  0  0
  2  8  1  6  0  0  0
  3  4  2  0  0  0  0
  3  2  1  0  0  0  0
  5  3  1  0  0  0  0
  6 17  1  0  0  0  0
  6  2  1  0  0  0  0
  8  7  1  0  0  0  0
 10  9  1  1  0  0  0
 11 14  2  0  0  0  0
 12 10  1  0  0  0  0
 14 13  1  0  0  0  0
 14 10  1  0  0  0  0
 15 11  1  0  0  0  0
 16 11  1  0  0  0  0
 16 12  1  0  0  0  0
 18 27  2  0  0  0  0
 18 22  1  0  0  0  0
 19 24  1  0  0  0  0
 19 25  1  0  0  0  0
 20 17  1  6  0  0  0
 20 22  1  0  0  0  0
 20 28  1  0  0  0  0
 21 26  1  0  0  0  0
 21 24  2  0  0  0  0
 22 19  2  0  0  0  0
 23 25  1  0  0  0  0
 27 21  1  0  0  0  0
 28 23  1  0  0  0  0
M  END
>  <MODEL>
9

>  <REMARK>
 VINA RESULT:      -7.1      2.654      4.335
  Name = 
  5 active torsions:
  status: ('A' for Active; 'I' for Inactive)
    1  A    between atoms: C_1  and  C_2
    2  A    between atoms: C_2  and  C_3
    3  A    between atoms: C_10  and  C_17
    4  A    between atoms: C_16  and  C_20
    5  A    between atoms: C_17  and  N_27
                            x       y       z     vdW  Elec       q    Type
                         _______ _______ _______ _____ _____    ______ ____

>  <TORSDO>
F 5

$$$$
