=
 OpenBabel10272401003D

 27 28  0  0  1  0  0  0  0  0999 V2000
  189.4190  177.6870  142.0140 C   0  0  2  0  0  3  0  0  0  0  0  0
  188.9300  178.1040  139.5930 C   0  0  0  0  0  0  0  0  0  0  0  0
  187.9470  178.8180  139.9340 O   0  0  0  0  0  0  0  0  0  0  0  0
  189.7130  177.4350  140.5970 N   0  0  0  0  0  0  0  0  0  0  0  0
  188.4680  176.8590  137.4980 C   0  0  0  0  0  1  0  0  0  0  0  0
  189.0210  179.2790  137.4110 C   0  0  0  0  0  1  0  0  0  0  0  0
  189.2730  177.9730  138.1390 C   0  0  0  0  0  3  0  0  0  0  0  0
  190.8360  176.5760  140.2200 C   0  0  0  0  0  2  0  0  0  0  0  0
  191.9810  177.3440  140.0130 O   0  0  0  0  0  1  0  0  0  0  0  0
  190.6840  177.8420  142.8790 C   0  0  1  0  0  3  0  0  0  0  0  0
  190.6940  179.1700  143.6240 C   0  0  0  0  0  1  0  0  0  0  0  0
  191.1300  175.5670  143.3760 O   0  0  0  0  0  0  0  0  0  0  0  0
  190.8640  176.7050  143.8480 C   0  0  0  0  0  0  0  0  0  0  0  0
  190.5530  177.1800  148.1030 C   0  0  0  0  0  3  0  0  0  0  0  0
  190.7470  176.8750  145.3170 C   0  0  0  0  0  0  0  0  0  0  0  0
  191.7830  176.4370  146.1560 C   0  0  0  0  0  3  0  0  0  0  0  0
  191.6870  176.5890  147.5420 C   0  0  0  0  0  3  0  0  0  0  0  0
  189.5140  177.6200  147.2780 C   0  0  0  0  0  3  0  0  0  0  0  0
  189.6110  177.4680  145.8930 C   0  0  0  0  0  3  0  0  0  0  0  0
  188.3800  176.7040  142.5760 C   0  0  0  0  0  2  0  0  0  0  0  0
  185.8170  177.8750  145.1080 C   0  0  0  0  0  3  0  0  0  0  0  0
  184.9090  178.5600  144.2940 C   0  0  0  0  0  0  0  0  0  0  0  0
  186.2570  178.0390  142.3520 C   0  0  0  0  0  3  0  0  0  0  0  0
  186.9470  177.2750  144.5440 C   0  0  0  0  0  3  0  0  0  0  0  0
  183.7090  179.1990  144.8940 C   0  0  0  0  0  1  0  0  0  0  0  0
  185.1280  178.6390  142.9160 C   0  0  0  0  0  3  0  0  0  0  0  0
  187.1740  177.3620  143.1660 C   0  0  0  0  0  0  0  0  0  0  0  0
  1 20  1  1  0  0  0
  1 10  1  0  0  0  0
  2  3  2  0  0  0  0
  2  4  1  0  0  0  0
  4  1  1  0  0  0  0
  5  7  1  0  0  0  0
  6  7  1  0  0  0  0
  7  2  1  0  0  0  0
  8  4  1  0  0  0  0
  9  8  1  0  0  0  0
 10 11  1  1  0  0  0
 10 13  1  0  0  0  0
 12 13  2  0  0  0  0
 13 15  1  0  0  0  0
 15 19  2  0  0  0  0
 15 16  1  0  0  0  0
 16 17  2  0  0  0  0
 17 14  1  0  0  0  0
 18 14  2  0  0  0  0
 19 18  1  0  0  0  0
 20 27  1  0  0  0  0
 22 25  1  0  0  0  0
 22 21  2  0  0  0  0
 23 26  2  0  0  0  0
 23 27  1  0  0  0  0
 24 21  1  0  0  0  0
 26 22  1  0  0  0  0
 27 24  2  0  0  0  0
M  END
>  <MODEL>
1

>  <REMARK>
 VINA RESULT:      -8.6      0.000      0.000
  Name = 
  8 active torsions:
  status: ('A' for Active; 'I' for Inactive)
    1  A    between atoms: C_2  and  C_15
    2  A    between atoms: C_2  and  C_19
    3  A    between atoms: C_3  and  C_19
    4  A    between atoms: C_3  and  C_26
    5  A    between atoms: C_8  and  C_16
    6  A    between atoms: C_9  and  C_15
    7  A    between atoms: N_14  and  C_17
    8  A    between atoms: N_14  and  C_19
                            x       y       z     vdW  Elec       q    Type
                         _______ _______ _______ _____ _____    ______ ____

>  <TORSDO>
F 8

$$$$
=
 OpenBabel10272401003D

 27 28  0  0  1  0  0  0  0  0999 V2000
  187.8120  177.2650  141.8650 C   0  0  2  0  0  3  0  0  0  0  0  0
  188.6490  177.4620  139.5120 C   0  0  0  0  0  0  0  0  0  0  0  0
  187.4570  177.4030  139.1030 O   0  0  0  0  0  0  0  0  0  0  0  0
  188.9310  177.3430  140.9180 N   0  0  0  0  0  0  0  0  0  0  0  0
  190.1990  176.3440  137.9320 C   0  0  0  0  0  1  0  0  0  0  0  0
  189.3150  178.6070  137.4160 C   0  0  0  0  0  1  0  0  0  0  0  0
  189.7560  177.6680  138.5220 C   0  0  0  0  0  3  0  0  0  0  0  0
  190.3090  177.3760  141.4090 C   0  0  0  0  0  2  0  0  0  0  0  0
  190.8320  176.0840  141.4630 O   0  0  0  0  0  1  0  0  0  0  0  0
  187.3400  178.6430  142.3650 C   0  0  1  0  0  3  0  0  0  0  0  0
  188.3490  179.7350  142.0340 C   0  0  0  0  0  1  0  0  0  0  0  0
  185.9020  179.3820  140.6310 O   0  0  0  0  0  0  0  0  0  0  0  0
  185.9830  179.0170  141.8350 C   0  0  0  0  0  0  0  0  0  0  0  0
  182.4090  178.8660  144.2090 C   0  0  0  0  0  3  0  0  0  0  0  0
  184.7550  178.9660  142.6640 C   0  0  0  0  0  0  0  0  0  0  0  0
  183.5180  178.6780  142.0660 C   0  0  0  0  0  3  0  0  0  0  0  0
  182.3510  178.6280  142.8340 C   0  0  0  0  0  3  0  0  0  0  0  0
  183.6350  179.1550  144.8160 C   0  0  0  0  0  3  0  0  0  0  0  0
  184.8000  179.2040  144.0480 C   0  0  0  0  0  3  0  0  0  0  0  0
  188.0620  176.2360  142.9790 C   0  0  0  0  0  2  0  0  0  0  0  0
  189.3390  177.7290  146.2170 C   0  0  0  0  0  3  0  0  0  0  0  0
  188.1540  177.8860  146.9420 C   0  0  0  0  0  0  0  0  0  0  0  0
  186.8980  176.9660  145.0890 C   0  0  0  0  0  3  0  0  0  0  0  0
  189.3030  177.1940  144.9260 C   0  0  0  0  0  3  0  0  0  0  0  0
  188.1920  178.4560  148.3140 C   0  0  0  0  0  1  0  0  0  0  0  0
  186.9340  177.5010  146.3790 C   0  0  0  0  0  3  0  0  0  0  0  0
  188.0820  176.8190  144.3550 C   0  0  0  0  0  0  0  0  0  0  0  0
  1 10  1  0  0  0  0
  1 20  1  1  0  0  0
  2  4  1  0  0  0  0
  3  2  2  0  0  0  0
  4  8  1  0  0  0  0
  4  1  1  0  0  0  0
  5  7  1  0  0  0  0
  6  7  1  0  0  0  0
  7  2  1  0  0  0  0
  8  9  1  0  0  0  0
 10 11  1  6  0  0  0
 12 13  2  0  0  0  0
 13 10  1  0  0  0  0
 13 15  1  0  0  0  0
 14 18  1  0  0  0  0
 15 19  1  0  0  0  0
 16 15  2  0  0  0  0
 16 17  1  0  0  0  0
 17 14  2  0  0  0  0
 19 18  2  0  0  0  0
 20 27  1  0  0  0  0
 21 22  1  0  0  0  0
 22 25  1  0  0  0  0
 23 26  1  0  0  0  0
 24 21  2  0  0  0  0
 26 22  2  0  0  0  0
 27 24  1  0  0  0  0
 27 23  2  0  0  0  0
M  END
>  <MODEL>
2

>  <REMARK>
 VINA RESULT:      -7.2      1.580      4.822
  Name = 
  8 active torsions:
  status: ('A' for Active; 'I' for Inactive)
    1  A    between atoms: C_2  and  C_15
    2  A    between atoms: C_2  and  C_19
    3  A    between atoms: C_3  and  C_19
    4  A    between atoms: C_3  and  C_26
    5  A    between atoms: C_8  and  C_16
    6  A    between atoms: C_9  and  C_15
    7  A    between atoms: N_14  and  C_17
    8  A    between atoms: N_14  and  C_19
                            x       y       z     vdW  Elec       q    Type
                         _______ _______ _______ _____ _____    ______ ____

>  <TORSDO>
F 8

$$$$
=
 OpenBabel10272401003D

 27 28  0  0  1  0  0  0  0  0999 V2000
  189.7450  177.4020  141.0210 C   0  0  2  0  0  3  0  0  0  0  0  0
  190.0680  176.5590  138.6850 C   0  0  0  0  0  0  0  0  0  0  0  0
  190.5610  175.4980  139.1560 O   0  0  0  0  0  0  0  0  0  0  0  0
  189.6710  177.6210  139.5720 N   0  0  0  0  0  0  0  0  0  0  0  0
  191.2160  176.4920  136.4880 C   0  0  0  0  0  1  0  0  0  0  0  0
  188.8720  175.6950  136.6920 C   0  0  0  0  0  1  0  0  0  0  0  0
  189.8940  176.6930  137.2020 C   0  0  0  0  0  3  0  0  0  0  0  0
  189.1290  178.8730  139.0430 C   0  0  0  0  0  2  0  0  0  0  0  0
  188.0780  178.6090  138.1640 O   0  0  0  0  0  1  0  0  0  0  0  0
  188.5250  177.9540  141.7830 C   0  0  1  0  0  3  0  0  0  0  0  0
  187.3720  178.2710  140.8410 C   0  0  0  0  0  1  0  0  0  0  0  0
  188.3120  175.8020  142.7540 O   0  0  0  0  0  0  0  0  0  0  0  0
  188.0600  177.0310  142.8770 C   0  0  0  0  0  0  0  0  0  0  0  0
  185.9300  178.4290  146.3310 C   0  0  0  0  0  3  0  0  0  0  0  0
  187.3330  177.5090  144.0760 C   0  0  0  0  0  0  0  0  0  0  0  0
  186.0590  178.0840  143.9390 C   0  0  0  0  0  3  0  0  0  0  0  0
  185.3610  178.5410  145.0610 C   0  0  0  0  0  3  0  0  0  0  0  0
  187.1970  177.8590  146.4810 C   0  0  0  0  0  3  0  0  0  0  0  0
  187.8940  177.4020  145.3590 C   0  0  0  0  0  3  0  0  0  0  0  0
  191.1030  177.8230  141.6050 C   0  0  0  0  0  2  0  0  0  0  0  0
  191.7230  175.6720  144.6610 C   0  0  0  0  0  3  0  0  0  0  0  0
  191.6670  176.6190  145.6890 C   0  0  0  0  0  0  0  0  0  0  0  0
  191.2400  178.3590  144.0610 C   0  0  0  0  0  3  0  0  0  0  0  0
  191.5420  176.0690  143.3330 C   0  0  0  0  0  3  0  0  0  0  0  0
  191.8610  176.1960  147.1000 C   0  0  0  0  0  1  0  0  0  0  0  0
  191.4210  177.9620  145.3890 C   0  0  0  0  0  3  0  0  0  0  0  0
  191.3080  177.4150  143.0290 C   0  0  0  0  0  0  0  0  0  0  0  0
  1 20  1  1  0  0  0
  1 10  1  0  0  0  0
  2  3  2  0  0  0  0
  2  4  1  0  0  0  0
  4  1  1  0  0  0  0
  5  7  1  0  0  0  0
  6  7  1  0  0  0  0
  7  2  1  0  0  0  0
  8  4  1  0  0  0  0
  9  8  1  0  0  0  0
 10 11  1  6  0  0  0
 10 13  1  0  0  0  0
 12 13  2  0  0  0  0
 13 15  1  0  0  0  0
 14 18  1  0  0  0  0
 15 19  1  0  0  0  0
 16 15  2  0  0  0  0
 16 17  1  0  0  0  0
 17 14  2  0  0  0  0
 19 18  2  0  0  0  0
 20 27  1  0  0  0  0
 21 22  1  0  0  0  0
 22 25  1  0  0  0  0
 23 26  1  0  0  0  0
 24 21  2  0  0  0  0
 26 22  2  0  0  0  0
 27 24  1  0  0  0  0
 27 23  2  0  0  0  0
M  END
>  <MODEL>
3

>  <REMARK>
 VINA RESULT:      -7.2      1.501      4.548
  Name = 
  8 active torsions:
  status: ('A' for Active; 'I' for Inactive)
    1  A    between atoms: C_2  and  C_15
    2  A    between atoms: C_2  and  C_19
    3  A    between atoms: C_3  and  C_19
    4  A    between atoms: C_3  and  C_26
    5  A    between atoms: C_8  and  C_16
    6  A    between atoms: C_9  and  C_15
    7  A    between atoms: N_14  and  C_17
    8  A    between atoms: N_14  and  C_19
                            x       y       z     vdW  Elec       q    Type
                         _______ _______ _______ _____ _____    ______ ____

>  <TORSDO>
F 8

$$$$
=
 OpenBabel10272401003D

 27 28  0  0  1  0  0  0  0  0999 V2000
  188.9590  177.5550  141.5250 C   0  0  2  0  0  3  0  0  0  0  0  0
  189.8080  177.7620  143.8730 C   0  0  0  0  0  0  0  0  0  0  0  0
  190.0090  178.9910  143.6720 O   0  0  0  0  0  0  0  0  0  0  0  0
  189.3200  176.9310  142.8040 N   0  0  0  0  0  0  0  0  0  0  0  0
  191.5550  177.2040  145.5420 C   0  0  0  0  0  1  0  0  0  0  0  0
  189.3110  177.9590  146.2940 C   0  0  0  0  0  1  0  0  0  0  0  0
  190.0710  177.1870  145.2330 C   0  0  0  0  0  3  0  0  0  0  0  0
  189.1110  175.4970  143.0080 C   0  0  0  0  0  2  0  0  0  0  0  0
  190.3340  174.8270  143.0030 O   0  0  0  0  0  1  0  0  0  0  0  0
  190.1500  177.6910  140.5570 C   0  0  1  0  0  3  0  0  0  0  0  0
  191.4610  177.2990  141.2230 C   0  0  0  0  0  1  0  0  0  0  0  0
  190.6810  175.8850  139.1160 O   0  0  0  0  0  0  0  0  0  0  0  0
  189.9570  176.9020  139.2900 C   0  0  0  0  0  0  0  0  0  0  0  0
  187.0740  178.0000  136.3060 C   0  0  0  0  0  3  0  0  0  0  0  0
  188.9580  177.2700  138.2590 C   0  0  0  0  0  0  0  0  0  0  0  0
  188.9220  178.5810  137.7570 C   0  0  0  0  0  3  0  0  0  0  0  0
  187.9840  178.9440  136.7850 C   0  0  0  0  0  3  0  0  0  0  0  0
  187.1000  176.6920  136.7980 C   0  0  0  0  0  3  0  0  0  0  0  0
  188.0370  176.3300  137.7690 C   0  0  0  0  0  3  0  0  0  0  0  0
  188.1450  178.8450  141.7160 C   0  0  0  0  0  2  0  0  0  0  0  0
  184.7430  178.5880  140.0700 C   0  0  0  0  0  3  0  0  0  0  0  0
  183.9110  178.3700  141.1730 C   0  0  0  0  0  0  0  0  0  0  0  0
  185.8340  178.4610  142.6410 C   0  0  0  0  0  3  0  0  0  0  0  0
  186.1200  178.7390  140.2520 C   0  0  0  0  0  3  0  0  0  0  0  0
  182.4470  178.2080  140.9800 C   0  0  0  0  0  1  0  0  0  0  0  0
  184.4570  178.3100  142.4590 C   0  0  0  0  0  3  0  0  0  0  0  0
  186.6710  178.6680  141.5370 C   0  0  0  0  0  0  0  0  0  0  0  0
  1 20  1  1  0  0  0
  1  4  1  0  0  0  0
  2  7  1  0  0  0  0
  3  2  2  0  0  0  0
  4  8  1  0  0  0  0
  4  2  1  0  0  0  0
  7  5  1  0  0  0  0
  7  6  1  0  0  0  0
  9  8  1  0  0  0  0
 10 11  1  1  0  0  0
 10  1  1  0  0  0  0
 12 13  2  0  0  0  0
 13 10  1  0  0  0  0
 14 17  2  0  0  0  0
 14 18  1  0  0  0  0
 15 13  1  0  0  0  0
 16 15  2  0  0  0  0
 17 16  1  0  0  0  0
 18 19  2  0  0  0  0
 19 15  1  0  0  0  0
 21 24  2  0  0  0  0
 21 22  1  0  0  0  0
 22 26  2  0  0  0  0
 24 27  1  0  0  0  0
 25 22  1  0  0  0  0
 26 23  1  0  0  0  0
 27 20  1  0  0  0  0
 27 23  2  0  0  0  0
M  END
>  <MODEL>
4

>  <REMARK>
 VINA RESULT:      -6.9      1.767      6.186
  Name = 
  8 active torsions:
  status: ('A' for Active; 'I' for Inactive)
    1  A    between atoms: C_2  and  C_15
    2  A    between atoms: C_2  and  C_19
    3  A    between atoms: C_3  and  C_19
    4  A    between atoms: C_3  and  C_26
    5  A    between atoms: C_8  and  C_16
    6  A    between atoms: C_9  and  C_15
    7  A    between atoms: N_14  and  C_17
    8  A    between atoms: N_14  and  C_19
                            x       y       z     vdW  Elec       q    Type
                         _______ _______ _______ _____ _____    ______ ____

>  <TORSDO>
F 8

$$$$
=
 OpenBabel10272401003D

 27 28  0  0  1  0  0  0  0  0999 V2000
  189.0440  177.2990  142.1070 C   0  0  2  0  0  3  0  0  0  0  0  0
  190.1470  176.8080  139.9130 C   0  0  0  0  0  0  0  0  0  0  0  0
  190.7710  175.8570  140.4610 O   0  0  0  0  0  0  0  0  0  0  0  0
  189.2770  177.6410  140.6990 N   0  0  0  0  0  0  0  0  0  0  0  0
  191.7570  176.8200  138.0270 C   0  0  0  0  0  1  0  0  0  0  0  0
  189.3980  176.1420  137.6450 C   0  0  0  0  0  1  0  0  0  0  0  0
  190.3170  177.0470  138.4420 C   0  0  0  0  0  3  0  0  0  0  0  0
  188.5710  178.7690  140.0890 C   0  0  0  0  0  2  0  0  0  0  0  0
  187.5120  178.3080  139.3080 O   0  0  0  0  0  1  0  0  0  0  0  0
  187.5660  177.0040  142.4260 C   0  0  1  0  0  3  0  0  0  0  0  0
  187.4270  175.9040  143.4680 C   0  0  0  0  0  1  0  0  0  0  0  0
  186.7850  179.2160  142.0810 O   0  0  0  0  0  0  0  0  0  0  0  0
  186.8140  178.2310  142.8660 C   0  0  0  0  0  0  0  0  0  0  0  0
  184.8080  178.4720  146.6530 C   0  0  0  0  0  3  0  0  0  0  0  0
  186.1110  178.3180  144.1690 C   0  0  0  0  0  0  0  0  0  0  0  0
  186.8160  178.0830  145.3600 C   0  0  0  0  0  3  0  0  0  0  0  0
  186.1680  178.1600  146.5960 C   0  0  0  0  0  3  0  0  0  0  0  0
  184.0950  178.7070  145.4740 C   0  0  0  0  0  3  0  0  0  0  0  0
  184.7440  178.6300  144.2400 C   0  0  0  0  0  3  0  0  0  0  0  0
  189.7150  178.2950  143.0670 C   0  0  0  0  0  2  0  0  0  0  0  0
  190.5520  177.4870  146.6710 C   0  0  0  0  0  3  0  0  0  0  0  0
  191.5370  176.5070  146.5200 C   0  0  0  0  0  0  0  0  0  0  0  0
  191.3440  176.6850  144.1130 C   0  0  0  0  0  3  0  0  0  0  0  0
  189.9600  178.0640  145.5440 C   0  0  0  0  0  3  0  0  0  0  0  0
  192.1650  175.8930  147.7180 C   0  0  0  0  0  1  0  0  0  0  0  0
  191.9350  176.1080  145.2410 C   0  0  0  0  0  3  0  0  0  0  0  0
  190.3480  177.6590  144.2620 C   0  0  0  0  0  0  0  0  0  0  0  0
  1 10  1  0  0  0  0
  1 20  1  1  0  0  0
  2  3  2  0  0  0  0
  2  4  1  0  0  0  0
  4  1  1  0  0  0  0
  5  7  1  0  0  0  0
  6  7  1  0  0  0  0
  7  2  1  0  0  0  0
  8  4  1  0  0  0  0
  9  8  1  0  0  0  0
 10 13  1  0  0  0  0
 10 11  1  1  0  0  0
 12 13  2  0  0  0  0
 13 15  1  0  0  0  0
 15 19  2  0  0  0  0
 15 16  1  0  0  0  0
 16 17  2  0  0  0  0
 17 14  1  0  0  0  0
 18 14  2  0  0  0  0
 19 18  1  0  0  0  0
 20 27  1  0  0  0  0
 22 21  1  0  0  0  0
 22 25  1  0  0  0  0
 23 27  2  0  0  0  0
 23 26  1  0  0  0  0
 24 21  2  0  0  0  0
 26 22  2  0  0  0  0
 27 24  1  0  0  0  0
M  END
>  <MODEL>
5

>  <REMARK>
 VINA RESULT:      -6.8      1.281      4.831
  Name = 
  8 active torsions:
  status: ('A' for Active; 'I' for Inactive)
    1  A    between atoms: C_2  and  C_15
    2  A    between atoms: C_2  and  C_19
    3  A    between atoms: C_3  and  C_19
    4  A    between atoms: C_3  and  C_26
    5  A    between atoms: C_8  and  C_16
    6  A    between atoms: C_9  and  C_15
    7  A    between atoms: N_14  and  C_17
    8  A    between atoms: N_14  and  C_19
                            x       y       z     vdW  Elec       q    Type
                         _______ _______ _______ _____ _____    ______ ____

>  <TORSDO>
F 8

$$$$
=
 OpenBabel10272401003D

 27 28  0  0  1  0  0  0  0  0999 V2000
  188.6220  177.1280  141.9280 C   0  0  2  0  0  3  0  0  0  0  0  0
  186.4850  177.6470  143.1280 C   0  0  0  0  0  0  0  0  0  0  0  0
  186.5720  176.5380  143.7230 O   0  0  0  0  0  0  0  0  0  0  0  0
  187.4680  178.0110  142.1420 N   0  0  0  0  0  0  0  0  0  0  0  0
  184.1350  178.2620  142.6300 C   0  0  0  0  0  1  0  0  0  0  0  0
  185.0160  178.4850  144.9410 C   0  0  0  0  0  1  0  0  0  0  0  0
  185.3590  178.5770  143.4670 C   0  0  0  0  0  3  0  0  0  0  0  0
  187.3670  179.2780  141.4170 C   0  0  0  0  0  2  0  0  0  0  0  0
  186.4860  179.1490  140.3440 O   0  0  0  0  0  1  0  0  0  0  0  0
  189.2430  176.6090  143.2380 C   0  0  1  0  0  3  0  0  0  0  0  0
  190.4090  175.6680  142.9710 C   0  0  0  0  0  1  0  0  0  0  0  0
  190.2690  178.7080  143.6380 O   0  0  0  0  0  0  0  0  0  0  0  0
  189.6770  177.7220  144.1530 C   0  0  0  0  0  0  0  0  0  0  0  0
  188.9930  177.6510  148.3900 C   0  0  0  0  0  3  0  0  0  0  0  0
  189.4300  177.7020  145.6150 C   0  0  0  0  0  0  0  0  0  0  0  0
  190.4560  177.3140  146.4910 C   0  0  0  0  0  3  0  0  0  0  0  0
  190.2390  177.2880  147.8720 C   0  0  0  0  0  3  0  0  0  0  0  0
  187.9640  178.0380  147.5270 C   0  0  0  0  0  3  0  0  0  0  0  0
  188.1820  178.0640  146.1480 C   0  0  0  0  0  3  0  0  0  0  0  0
  189.6340  177.7230  140.9360 C   0  0  0  0  0  2  0  0  0  0  0  0
  191.0120  175.7190  138.0320 C   0  0  0  0  0  3  0  0  0  0  0  0
  189.9010  175.6460  137.1870 C   0  0  0  0  0  0  0  0  0  0  0  0
  188.6050  176.9290  138.7790 C   0  0  0  0  0  3  0  0  0  0  0  0
  190.9190  176.3930  139.2530 C   0  0  0  0  0  3  0  0  0  0  0  0
  190.0000  174.9270  135.8900 C   0  0  0  0  0  1  0  0  0  0  0  0
  188.6990  176.2540  137.5590 C   0  0  0  0  0  3  0  0  0  0  0  0
  189.7130  176.9930  139.6330 C   0  0  0  0  0  0  0  0  0  0  0  0
  1 20  1  1  0  0  0
  1  4  1  0  0  0  0
  1 10  1  0  0  0  0
  2  7  1  0  0  0  0
  2  3  2  0  0  0  0
  4  2  1  0  0  0  0
  5  7  1  0  0  0  0
  7  6  1  0  0  0  0
  8  4  1  0  0  0  0
  9  8  1  0  0  0  0
 10 11  1  6  0  0  0
 10 13  1  0  0  0  0
 12 13  2  0  0  0  0
 13 15  1  0  0  0  0
 15 19  2  0  0  0  0
 15 16  1  0  0  0  0
 16 17  2  0  0  0  0
 17 14  1  0  0  0  0
 18 14  2  0  0  0  0
 19 18  1  0  0  0  0
 21 24  1  0  0  0  0
 22 26  1  0  0  0  0
 22 21  2  0  0  0  0
 23 27  1  0  0  0  0
 24 27  2  0  0  0  0
 25 22  1  0  0  0  0
 26 23  2  0  0  0  0
 27 20  1  0  0  0  0
M  END
>  <MODEL>
6

>  <REMARK>
 VINA RESULT:      -6.7      1.794      5.282
  Name = 
  8 active torsions:
  status: ('A' for Active; 'I' for Inactive)
    1  A    between atoms: C_2  and  C_15
    2  A    between atoms: C_2  and  C_19
    3  A    between atoms: C_3  and  C_19
    4  A    between atoms: C_3  and  C_26
    5  A    between atoms: C_8  and  C_16
    6  A    between atoms: C_9  and  C_15
    7  A    between atoms: N_14  and  C_17
    8  A    between atoms: N_14  and  C_19
                            x       y       z     vdW  Elec       q    Type
                         _______ _______ _______ _____ _____    ______ ____

>  <TORSDO>
F 8

$$$$
=
 OpenBabel10272401003D

 27 28  0  0  1  0  0  0  0  0999 V2000
  188.4900  178.2390  141.7160 C   0  0  2  0  0  3  0  0  0  0  0  0
  188.6750  177.2300  139.4310 C   0  0  0  0  0  0  0  0  0  0  0  0
  187.5950  177.7980  139.1130 O   0  0  0  0  0  0  0  0  0  0  0  0
  189.1850  177.3560  140.7710 N   0  0  0  0  0  0  0  0  0  0  0  0
  188.4550  175.7220  137.4740 C   0  0  0  0  0  1  0  0  0  0  0  0
  190.3370  177.3390  137.5940 C   0  0  0  0  0  1  0  0  0  0  0  0
  189.4210  176.4380  138.3990 C   0  0  0  0  0  3  0  0  0  0  0  0
  190.4190  176.6780  141.1680 C   0  0  0  0  0  2  0  0  0  0  0  0
  191.5030  177.5510  141.0640 O   0  0  0  0  0  1  0  0  0  0  0  0
  188.1670  177.5590  143.0600 C   0  0  1  0  0  3  0  0  0  0  0  0
  188.2550  176.0430  142.9560 C   0  0  0  0  0  1  0  0  0  0  0  0
  190.1330  178.6020  143.8780 O   0  0  0  0  0  0  0  0  0  0  0  0
  189.0410  178.0510  144.1820 C   0  0  0  0  0  0  0  0  0  0  0  0
  187.9230  177.6760  148.3090 C   0  0  0  0  0  3  0  0  0  0  0  0
  188.6660  177.9180  145.6100 C   0  0  0  0  0  0  0  0  0  0  0  0
  187.3320  178.1110  146.0030 C   0  0  0  0  0  3  0  0  0  0  0  0
  186.9620  177.9910  147.3460 C   0  0  0  0  0  3  0  0  0  0  0  0
  189.2540  177.4830  147.9300 C   0  0  0  0  0  3  0  0  0  0  0  0
  189.6230  177.6030  146.5880 C   0  0  0  0  0  3  0  0  0  0  0  0
  187.3000  178.9640  141.0690 C   0  0  0  0  0  2  0  0  0  0  0  0
  183.7920  178.0920  142.2010 C   0  0  0  0  0  3  0  0  0  0  0  0
  183.6740  178.8550  143.3670 C   0  0  0  0  0  0  0  0  0  0  0  0
  185.9200  179.6980  143.0430 C   0  0  0  0  0  3  0  0  0  0  0  0
  184.9760  178.1280  141.4580 C   0  0  0  0  0  3  0  0  0  0  0  0
  182.4160  178.8140  144.1570 C   0  0  0  0  0  1  0  0  0  0  0  0
  184.7370  179.6600  143.7850 C   0  0  0  0  0  3  0  0  0  0  0  0
  186.0460  178.9250  141.8810 C   0  0  0  0  0  0  0  0  0  0  0  0
  1 20  1  6  0  0  0
  1 10  1  0  0  0  0
  2  4  1  0  0  0  0
  3  2  2  0  0  0  0
  4  8  1  0  0  0  0
  4  1  1  0  0  0  0
  5  7  1  0  0  0  0
  6  7  1  0  0  0  0
  7  2  1  0  0  0  0
  9  8  1  0  0  0  0
 10 11  1  6  0  0  0
 10 13  1  0  0  0  0
 12 13  2  0  0  0  0
 13 15  1  0  0  0  0
 15 16  2  0  0  0  0
 15 19  1  0  0  0  0
 16 17  1  0  0  0  0
 17 14  2  0  0  0  0
 18 14  1  0  0  0  0
 19 18  2  0  0  0  0
 20 27  1  0  0  0  0
 21 22  1  0  0  0  0
 22 26  2  0  0  0  0
 22 25  1  0  0  0  0
 23 26  1  0  0  0  0
 24 27  1  0  0  0  0
 24 21  2  0  0  0  0
 27 23  2  0  0  0  0
M  END
>  <MODEL>
7

>  <REMARK>
 VINA RESULT:      -6.7      1.630      2.478
  Name = 
  8 active torsions:
  status: ('A' for Active; 'I' for Inactive)
    1  A    between atoms: C_2  and  C_15
    2  A    between atoms: C_2  and  C_19
    3  A    between atoms: C_3  and  C_19
    4  A    between atoms: C_3  and  C_26
    5  A    between atoms: C_8  and  C_16
    6  A    between atoms: C_9  and  C_15
    7  A    between atoms: N_14  and  C_17
    8  A    between atoms: N_14  and  C_19
                            x       y       z     vdW  Elec       q    Type
                         _______ _______ _______ _____ _____    ______ ____

>  <TORSDO>
F 8

$$$$
=
 OpenBabel10272401003D

 27 28  0  0  1  0  0  0  0  0999 V2000
  188.2610  177.2970  141.9250 C   0  0  2  0  0  3  0  0  0  0  0  0
  186.3290  177.7750  143.4450 C   0  0  0  0  0  0  0  0  0  0  0  0
  186.5220  176.6630  144.0090 O   0  0  0  0  0  0  0  0  0  0  0  0
  187.1430  178.1610  142.3240 N   0  0  0  0  0  0  0  0  0  0  0  0
  183.9180  178.3450  143.3370 C   0  0  0  0  0  1  0  0  0  0  0  0
  185.1600  178.5910  145.4740 C   0  0  0  0  0  1  0  0  0  0  0  0
  185.2560  178.6850  143.9640 C   0  0  0  0  0  3  0  0  0  0  0  0
  186.9140  179.4310  141.6360 C   0  0  0  0  0  2  0  0  0  0  0  0
  185.8830  179.2960  140.7060 O   0  0  0  0  0  1  0  0  0  0  0  0
  189.0270  176.7010  143.1210 C   0  0  1  0  0  3  0  0  0  0  0  0
  190.0860  175.7050  142.6700 C   0  0  0  0  0  1  0  0  0  0  0  0
  190.1430  178.7710  143.4260 O   0  0  0  0  0  0  0  0  0  0  0  0
  189.6510  177.7580  143.9920 C   0  0  0  0  0  0  0  0  0  0  0  0
  189.7700  177.4750  148.2740 C   0  0  0  0  0  3  0  0  0  0  0  0
  189.7020  177.6540  145.4700 C   0  0  0  0  0  0  0  0  0  0  0  0
  188.6350  178.1410  146.2420 C   0  0  0  0  0  3  0  0  0  0  0  0
  188.6690  178.0520  147.6370 C   0  0  0  0  0  3  0  0  0  0  0  0
  190.8380  176.9870  147.5160 C   0  0  0  0  0  3  0  0  0  0  0  0
  190.8030  177.0760  146.1220 C   0  0  0  0  0  3  0  0  0  0  0  0
  189.1550  177.9550  140.8620 C   0  0  0  0  0  2  0  0  0  0  0  0
  188.0270  176.6830  137.4770 C   0  0  0  0  0  3  0  0  0  0  0  0
  189.1240  175.9100  137.0860 C   0  0  0  0  0  0  0  0  0  0  0  0
  190.2510  176.4620  139.1560 C   0  0  0  0  0  3  0  0  0  0  0  0
  188.0430  177.3490  138.7050 C   0  0  0  0  0  3  0  0  0  0  0  0
  189.1080  175.2030  135.7790 C   0  0  0  0  0  1  0  0  0  0  0  0
  190.2350  175.7970  137.9270 C   0  0  0  0  0  3  0  0  0  0  0  0
  189.1580  177.2470  139.5450 C   0  0  0  0  0  0  0  0  0  0  0  0
  1 20  1  1  0  0  0
  1  4  1  0  0  0  0
  1 10  1  0  0  0  0
  2  7  1  0  0  0  0
  2  3  2  0  0  0  0
  4  2  1  0  0  0  0
  5  7  1  0  0  0  0
  7  6  1  0  0  0  0
  8  4  1  0  0  0  0
  9  8  1  0  0  0  0
 10 11  1  6  0  0  0
 10 13  1  0  0  0  0
 12 13  2  0  0  0  0
 13 15  1  0  0  0  0
 15 19  2  0  0  0  0
 15 16  1  0  0  0  0
 16 17  2  0  0  0  0
 17 14  1  0  0  0  0
 18 14  2  0  0  0  0
 19 18  1  0  0  0  0
 21 24  1  0  0  0  0
 22 21  2  0  0  0  0
 22 26  1  0  0  0  0
 23 27  1  0  0  0  0
 24 27  2  0  0  0  0
 25 22  1  0  0  0  0
 26 23  2  0  0  0  0
 27 20  1  0  0  0  0
M  END
>  <MODEL>
8

>  <REMARK>
 VINA RESULT:      -6.7      1.780      5.402
  Name = 
  8 active torsions:
  status: ('A' for Active; 'I' for Inactive)
    1  A    between atoms: C_2  and  C_15
    2  A    between atoms: C_2  and  C_19
    3  A    between atoms: C_3  and  C_19
    4  A    between atoms: C_3  and  C_26
    5  A    between atoms: C_8  and  C_16
    6  A    between atoms: C_9  and  C_15
    7  A    between atoms: N_14  and  C_17
    8  A    between atoms: N_14  and  C_19
                            x       y       z     vdW  Elec       q    Type
                         _______ _______ _______ _____ _____    ______ ____

>  <TORSDO>
F 8

$$$$
=
 OpenBabel10272401003D

 27 28  0  0  1  0  0  0  0  0999 V2000
  188.2300  177.1820  141.5950 C   0  0  2  0  0  3  0  0  0  0  0  0
  190.5490  177.1880  140.6470 C   0  0  0  0  0  0  0  0  0  0  0  0
  191.0080  177.0820  141.8170 O   0  0  0  0  0  0  0  0  0  0  0  0
  189.1300  177.3030  140.4400 N   0  0  0  0  0  0  0  0  0  0  0  0
  192.9300  177.3000  139.9610 C   0  0  0  0  0  1  0  0  0  0  0  0
  191.3240  175.9190  138.6630 C   0  0  0  0  0  1  0  0  0  0  0  0
  191.4950  177.1820  139.4830 C   0  0  0  0  0  3  0  0  0  0  0  0
  188.5800  177.4610  139.0930 C   0  0  0  0  0  2  0  0  0  0  0  0
  188.8390  178.7450  138.6150 O   0  0  0  0  0  1  0  0  0  0  0  0
  187.6730  178.5350  142.0770 C   0  0  1  0  0  3  0  0  0  0  0  0
  188.6070  179.6840  141.7230 C   0  0  0  0  0  1  0  0  0  0  0  0
  186.1620  179.0050  140.3120 O   0  0  0  0  0  0  0  0  0  0  0  0
  186.2910  178.8110  141.5510 C   0  0  0  0  0  0  0  0  0  0  0  0
  182.8440  178.9550  144.1040 C   0  0  0  0  0  3  0  0  0  0  0  0
  185.0940  178.8580  142.4240 C   0  0  0  0  0  0  0  0  0  0  0  0
  185.2030  179.3510  143.7340 C   0  0  0  0  0  3  0  0  0  0  0  0
  184.0830  179.4000  144.5700 C   0  0  0  0  0  3  0  0  0  0  0  0
  182.7230  178.4620  142.8020 C   0  0  0  0  0  3  0  0  0  0  0  0
  183.8420  178.4140  141.9680 C   0  0  0  0  0  3  0  0  0  0  0  0
  188.8270  176.3070  142.7080 C   0  0  0  0  0  2  0  0  0  0  0  0
  189.3730  177.6910  146.1910 C   0  0  0  0  0  3  0  0  0  0  0  0
  188.0690  177.7160  146.6930 C   0  0  0  0  0  0  0  0  0  0  0  0
  187.2470  176.8200  144.6000 C   0  0  0  0  0  3  0  0  0  0  0  0
  189.6150  177.2340  144.8930 C   0  0  0  0  0  3  0  0  0  0  0  0
  187.8120  178.2030  148.0730 C   0  0  0  0  0  1  0  0  0  0  0  0
  187.0060  177.2770  145.8980 C   0  0  0  0  0  3  0  0  0  0  0  0
  188.5510  176.8050  144.0900 C   0  0  0  0  0  0  0  0  0  0  0  0
  1 10  1  0  0  0  0
  1 20  1  1  0  0  0
  2  3  2  0  0  0  0
  4  2  1  0  0  0  0
  4  1  1  0  0  0  0
  6  7  1  0  0  0  0
  7  5  1  0  0  0  0
  7  2  1  0  0  0  0
  8  4  1  0  0  0  0
  9  8  1  0  0  0  0
 10 11  1  6  0  0  0
 12 13  2  0  0  0  0
 13 10  1  0  0  0  0
 13 15  1  0  0  0  0
 14 17  1  0  0  0  0
 15 16  1  0  0  0  0
 16 17  2  0  0  0  0
 18 14  2  0  0  0  0
 19 15  2  0  0  0  0
 19 18  1  0  0  0  0
 20 27  1  0  0  0  0
 21 22  1  0  0  0  0
 22 25  1  0  0  0  0
 23 26  1  0  0  0  0
 24 21  2  0  0  0  0
 26 22  2  0  0  0  0
 27 23  2  0  0  0  0
 27 24  1  0  0  0  0
M  END
>  <MODEL>
9

>  <REMARK>
 VINA RESULT:      -6.7      1.643      4.916
  Name = 
  8 active torsions:
  status: ('A' for Active; 'I' for Inactive)
    1  A    between atoms: C_2  and  C_15
    2  A    between atoms: C_2  and  C_19
    3  A    between atoms: C_3  and  C_19
    4  A    between atoms: C_3  and  C_26
    5  A    between atoms: C_8  and  C_16
    6  A    between atoms: C_9  and  C_15
    7  A    between atoms: N_14  and  C_17
    8  A    between atoms: N_14  and  C_19
                            x       y       z     vdW  Elec       q    Type
                         _______ _______ _______ _____ _____    ______ ____

>  <TORSDO>
F 8

$$$$
