=
 OpenBabel10272400473D

 25 28  0  0  1  0  0  0  0  0999 V2000
  187.0640  177.8760  145.2220 C   0  0  0  0  0  0  0  0  0  0  0  0
  188.3750  177.5030  144.8750 C   0  0  0  0  0  0  0  0  0  0  0  0
  187.6120  177.7420  147.5970 C   0  0  0  0  0  3  0  0  0  0  0  0
  185.9900  178.1720  144.3650 C   0  0  0  0  0  0  0  0  0  0  0  0
  183.6460  178.8250  142.9940 C   0  0  0  0  0  3  0  0  0  0  0  0
  188.9190  177.3700  147.2610 C   0  0  0  0  0  3  0  0  0  0  0  0
  184.8280  178.5070  145.0550 C   0  0  0  0  0  0  0  0  0  0  0  0
  183.6450  178.8360  144.3960 C   0  0  0  0  0  3  0  0  0  0  0  0
  190.6130  176.8780  145.5460 C   0  0  0  0  0  0  0  0  0  0  0  0
  191.6610  176.5930  146.5690 C   0  0  0  0  0  1  0  0  0  0  0  0
  188.7580  177.3830  143.5780 N   0  0  0  0  0  0  0  0  0  0  0  0
  184.8130  178.4890  142.2820 C   0  0  0  0  0  3  0  0  0  0  0  0
  186.7090  177.9880  146.5660 C   0  0  0  0  0  0  0  0  0  0  0  0
  185.0930  178.4460  146.7180 S   0  0  0  0  0  0  0  0  0  0  0  0
  190.9390  176.7760  144.2300 N   0  0  0  0  0  0  0  0  0  0  0  0
  185.9940  178.1610  142.9660 C   0  0  0  0  0  3  0  0  0  0  0  0
  190.0270  177.0250  143.2530 C   0  0  0  0  0  0  0  0  0  0  0  0
  189.3100  177.2490  145.9100 C   0  0  0  0  0  0  0  0  0  0  0  0
  190.4980  176.8780  141.5370 S   0  0  0  0  0  0  0  0  0  0  0  0
  188.9490  177.6580  140.9710 C   0  0  0  0  0  2  0  0  0  0  0  0
  188.6320  177.3250  139.5090 C   0  0  2  0  0  3  0  0  0  0  0  0
  189.8910  176.7780  138.8390 C   0  0  0  0  0  1  0  0  0  0  0  0
  188.0920  178.4840  138.7820 N   0  0  0  0  0  0  0  0  0  0  0  0
  186.8630  178.0830  138.1140 C   0  0  0  0  0  1  0  0  0  0  0  0
  189.0120  178.8290  137.7060 C   0  0  0  0  0  1  0  0  0  0  0  0
  1 13  1  0  0  0  0
  2  1  2  0  0  0  0
  2 18  1  0  0  0  0
  4  7  1  0  0  0  0
  4  1  1  0  0  0  0
  5  8  1  0  0  0  0
  6  3  1  0  0  0  0
  7 14  1  0  0  0  0
  8  7  2  0  0  0  0
  9 18  1  0  0  0  0
  9 10  1  0  0  0  0
 11  2  1  0  0  0  0
 12 16  1  0  0  0  0
 12  5  2  0  0  0  0
 13 14  1  0  0  0  0
 13  3  2  0  0  0  0
 15  9  2  0  0  0  0
 16  4  2  0  0  0  0
 17 11  2  0  0  0  0
 17 15  1  0  0  0  0
 18  6  2  0  0  0  0
 19 17  1  0  0  0  0
 20 19  1  0  0  0  0
 21 22  1  6  0  0  0
 21 20  1  0  0  0  0
 23 21  1  0  0  0  0
 24 23  1  0  0  0  0
 25 23  1  0  0  0  0
M  END
>  <MODEL>
1

>  <REMARK>
 VINA RESULT:      -9.8      0.000      0.000
  Name = 
  4 active torsions:
  status: ('A' for Active; 'I' for Inactive)
    1  A    between atoms: N_2  and  C_21
    2  A    between atoms: S_6  and  C_15
    3  A    between atoms: S_6  and  C_23
    4  A    between atoms: C_15  and  C_21
                            x       y       z     vdW  Elec       q    Type
                         _______ _______ _______ _____ _____    ______ ____

>  <TORSDO>
F 4

$$$$
=
 OpenBabel10272400473D

 25 28  0  0  1  0  0  0  0  0999 V2000
  185.9460  178.3810  144.5040 C   0  0  0  0  0  0  0  0  0  0  0  0
  186.0460  178.4560  143.1040 C   0  0  0  0  0  0  0  0  0  0  0  0
  183.5690  178.9230  144.4020 C   0  0  0  0  0  3  0  0  0  0  0  0
  186.9590  178.0870  145.4330 C   0  0  0  0  0  0  0  0  0  0  0  0
  188.6910  177.5460  147.5570 C   0  0  0  0  0  3  0  0  0  0  0  0
  183.6590  179.0000  143.0070 C   0  0  0  0  0  3  0  0  0  0  0  0
  186.5020  178.0980  146.7490 C   0  0  0  0  0  0  0  0  0  0  0  0
  187.3440  177.8320  147.8260 C   0  0  0  0  0  3  0  0  0  0  0  0
  185.0060  178.8390  140.9540 C   0  0  0  0  0  0  0  0  0  0  0  0
  183.8370  179.1620  140.0850 C   0  0  0  0  0  1  0  0  0  0  0  0
  187.2250  178.2350  142.4650 N   0  0  0  0  0  0  0  0  0  0  0  0
  189.1670  177.5310  146.2320 C   0  0  0  0  0  3  0  0  0  0  0  0
  184.7180  178.6140  145.1240 C   0  0  0  0  0  0  0  0  0  0  0  0
  184.8590  178.4650  146.7980 S   0  0  0  0  0  0  0  0  0  0  0  0
  186.2110  178.6080  140.3710 N   0  0  0  0  0  0  0  0  0  0  0  0
  188.3020  177.8020  145.1610 C   0  0  0  0  0  3  0  0  0  0  0  0
  187.3110  178.3080  141.1110 C   0  0  0  0  0  0  0  0  0  0  0  0
  184.8870  178.7680  142.3510 C   0  0  0  0  0  0  0  0  0  0  0  0
  188.8750  178.0110  140.3040 S   0  0  0  0  0  0  0  0  0  0  0  0
  189.7770  178.0160  141.8890 C   0  0  0  0  0  2  0  0  0  0  0  0
  190.5460  176.7110  142.1240 C   0  0  2  0  0  3  0  0  0  0  0  0
  189.6070  175.6870  142.7580 C   0  0  0  0  0  1  0  0  0  0  0  0
  191.7510  176.9190  142.9410 N   0  0  0  0  0  0  0  0  0  0  0  0
  191.7280  175.9770  144.0510 C   0  0  0  0  0  1  0  0  0  0  0  0
  191.6730  178.2350  143.5610 C   0  0  0  0  0  1  0  0  0  0  0  0
  1 13  2  0  0  0  0
  1  4  1  0  0  0  0
  2  1  1  0  0  0  0
  3 13  1  0  0  0  0
  4  7  1  0  0  0  0
  5  8  1  0  0  0  0
  6  3  2  0  0  0  0
  7 14  1  0  0  0  0
  7  8  2  0  0  0  0
  9 18  1  0  0  0  0
 10  9  1  0  0  0  0
 11  2  1  0  0  0  0
 12  5  2  0  0  0  0
 13 14  1  0  0  0  0
 15  9  2  0  0  0  0
 15 17  1  0  0  0  0
 16  4  2  0  0  0  0
 16 12  1  0  0  0  0
 17 11  2  0  0  0  0
 18  6  1  0  0  0  0
 18  2  2  0  0  0  0
 19 17  1  0  0  0  0
 19 20  1  0  0  0  0
 20 21  1  0  0  0  0
 21 22  1  1  0  0  0
 21 23  1  0  0  0  0
 23 25  1  0  0  0  0
 23 24  1  0  0  0  0
M  END
>  <MODEL>
2

>  <REMARK>
 VINA RESULT:      -9.4      1.704      5.117
  Name = 
  4 active torsions:
  status: ('A' for Active; 'I' for Inactive)
    1  A    between atoms: N_2  and  C_21
    2  A    between atoms: S_6  and  C_15
    3  A    between atoms: S_6  and  C_23
    4  A    between atoms: C_15  and  C_21
                            x       y       z     vdW  Elec       q    Type
                         _______ _______ _______ _____ _____    ______ ____

>  <TORSDO>
F 4

$$$$
=
 OpenBabel10272400473D

 25 28  0  0  1  0  0  0  0  0999 V2000
  187.5700  177.8130  145.5630 C   0  0  0  0  0  0  0  0  0  0  0  0
  186.7090  178.1310  144.4970 C   0  0  0  0  0  0  0  0  0  0  0  0
  185.7870  178.2310  147.1770 C   0  0  0  0  0  3  0  0  0  0  0  0
  188.9190  177.4230  145.5030 C   0  0  0  0  0  0  0  0  0  0  0  0
  191.5810  176.6260  145.7830 C   0  0  0  0  0  3  0  0  0  0  0  0
  184.9240  178.5490  146.1220 C   0  0  0  0  0  3  0  0  0  0  0  0
  189.4650  177.1840  146.7620 C   0  0  0  0  0  0  0  0  0  0  0  0
  190.7900  176.7860  146.9300 C   0  0  0  0  0  3  0  0  0  0  0  0
  184.5280  178.8150  143.7080 C   0  0  0  0  0  0  0  0  0  0  0  0
  183.1060  179.2150  143.9200 C   0  0  0  0  0  1  0  0  0  0  0  0
  187.1330  178.0880  143.2070 N   0  0  0  0  0  0  0  0  0  0  0  0
  191.0430  176.8630  144.5040 C   0  0  0  0  0  3  0  0  0  0  0  0
  187.0970  177.8690  146.8740 C   0  0  0  0  0  0  0  0  0  0  0  0
  188.3130  177.4460  147.9630 S   0  0  0  0  0  0  0  0  0  0  0  0
  185.0080  178.7530  142.4390 N   0  0  0  0  0  0  0  0  0  0  0  0
  189.7050  177.2630  144.3580 C   0  0  0  0  0  3  0  0  0  0  0  0
  186.2940  178.3940  142.1840 C   0  0  0  0  0  0  0  0  0  0  0  0
  185.3720  178.5010  144.7850 C   0  0  0  0  0  0  0  0  0  0  0  0
  186.8840  178.3260  140.5010 S   0  0  0  0  0  0  0  0  0  0  0  0
  188.5640  177.8550  141.0320 C   0  0  0  0  0  2  0  0  0  0  0  0
  189.5280  177.7100  139.8490 C   0  0  2  0  0  3  0  0  0  0  0  0
  188.7320  177.3180  138.6050 C   0  0  0  0  0  1  0  0  0  0  0  0
  190.6040  176.7470  140.1280 N   0  0  0  0  0  0  0  0  0  0  0  0
  191.6680  177.4340  140.8460 C   0  0  0  0  0  1  0  0  0  0  0  0
  191.2050  176.3400  138.8640 C   0  0  0  0  0  1  0  0  0  0  0  0
  1 13  2  0  0  0  0
  2 18  2  0  0  0  0
  2  1  1  0  0  0  0
  4  1  1  0  0  0  0
  4  7  1  0  0  0  0
  5  8  1  0  0  0  0
  6  3  2  0  0  0  0
  7  8  2  0  0  0  0
  7 14  1  0  0  0  0
  9 10  1  0  0  0  0
  9 18  1  0  0  0  0
 11  2  1  0  0  0  0
 12  5  2  0  0  0  0
 13  3  1  0  0  0  0
 13 14  1  0  0  0  0
 15  9  2  0  0  0  0
 16 12  1  0  0  0  0
 16  4  2  0  0  0  0
 17 15  1  0  0  0  0
 17 11  2  0  0  0  0
 18  6  1  0  0  0  0
 19 20  1  0  0  0  0
 19 17  1  0  0  0  0
 21 22  1  6  0  0  0
 21 23  1  0  0  0  0
 21 20  1  0  0  0  0
 23 24  1  0  0  0  0
 25 23  1  0  0  0  0
M  END
>  <MODEL>
3

>  <REMARK>
 VINA RESULT:      -9.4      1.833      4.740
  Name = 
  4 active torsions:
  status: ('A' for Active; 'I' for Inactive)
    1  A    between atoms: N_2  and  C_21
    2  A    between atoms: S_6  and  C_15
    3  A    between atoms: S_6  and  C_23
    4  A    between atoms: C_15  and  C_21
                            x       y       z     vdW  Elec       q    Type
                         _______ _______ _______ _____ _____    ______ ____

>  <TORSDO>
F 4

$$$$
=
 OpenBabel10272400473D

 25 28  0  0  1  0  0  0  0  0999 V2000
  186.8220  177.9310  144.6160 C   0  0  0  0  0  0  0  0  0  0  0  0
  187.9610  177.6050  143.8590 C   0  0  0  0  0  0  0  0  0  0  0  0
  188.0540  177.5790  146.6940 C   0  0  0  0  0  3  0  0  0  0  0  0
  185.5460  178.2970  144.1520 C   0  0  0  0  0  0  0  0  0  0  0  0
  182.9120  179.0530  143.6160 C   0  0  0  0  0  3  0  0  0  0  0  0
  189.1930  177.2530  145.9470 C   0  0  0  0  0  3  0  0  0  0  0  0
  184.6510  178.5540  145.1880 C   0  0  0  0  0  0  0  0  0  0  0  0
  183.3320  178.9320  144.9480 C   0  0  0  0  0  3  0  0  0  0  0  0
  190.2850  176.9420  143.7650 C   0  0  0  0  0  0  0  0  0  0  0  0
  191.5850  176.5710  144.3950 C   0  0  0  0  0  1  0  0  0  0  0  0
  187.9350  177.6130  142.5010 N   0  0  0  0  0  0  0  0  0  0  0  0
  183.8050  178.7980  142.5590 C   0  0  0  0  0  3  0  0  0  0  0  0
  186.8880  177.9120  146.0100 C   0  0  0  0  0  0  0  0  0  0  0  0
  185.4010  178.3380  146.6820 S   0  0  0  0  0  0  0  0  0  0  0  0
  190.1990  176.9670  142.4090 N   0  0  0  0  0  0  0  0  0  0  0  0
  185.1300  178.4180  142.8220 C   0  0  0  0  0  3  0  0  0  0  0  0
  189.0420  177.2990  141.7780 C   0  0  0  0  0  0  0  0  0  0  0  0
  189.1580  177.2640  144.5370 C   0  0  0  0  0  0  0  0  0  0  0  0
  188.9730  177.3190  139.9950 S   0  0  0  0  0  0  0  0  0  0  0  0
  190.6880  176.7150  139.8490 C   0  0  0  0  0  2  0  0  0  0  0  0
  191.0650  176.3780  138.4020 C   0  0  2  0  0  3  0  0  0  0  0  0
  190.1270  177.1270  137.4570 C   0  0  0  0  0  1  0  0  0  0  0  0
  191.0440  174.9290  138.1500 N   0  0  0  0  0  0  0  0  0  0  0  0
  192.3200  174.5410  137.5660 C   0  0  0  0  0  1  0  0  0  0  0  0
  190.0560  174.6500  137.1160 C   0  0  0  0  0  1  0  0  0  0  0  0
  1 13  2  0  0  0  0
  2 18  2  0  0  0  0
  2  1  1  0  0  0  0
  4  1  1  0  0  0  0
  4  7  1  0  0  0  0
  5  8  1  0  0  0  0
  6  3  2  0  0  0  0
  7 14  1  0  0  0  0
  8  7  2  0  0  0  0
  9 10  1  0  0  0  0
  9 18  1  0  0  0  0
 11  2  1  0  0  0  0
 12 16  1  0  0  0  0
 12  5  2  0  0  0  0
 13 14  1  0  0  0  0
 13  3  1  0  0  0  0
 15  9  2  0  0  0  0
 16  4  2  0  0  0  0
 17 15  1  0  0  0  0
 17 11  2  0  0  0  0
 18  6  1  0  0  0  0
 19 17  1  0  0  0  0
 20 19  1  0  0  0  0
 21 22  1  6  0  0  0
 21 20  1  0  0  0  0
 23 21  1  0  0  0  0
 24 23  1  0  0  0  0
 25 23  1  0  0  0  0
M  END
>  <MODEL>
4

>  <REMARK>
 VINA RESULT:      -9.3      1.642      2.290
  Name = 
  4 active torsions:
  status: ('A' for Active; 'I' for Inactive)
    1  A    between atoms: N_2  and  C_21
    2  A    between atoms: S_6  and  C_15
    3  A    between atoms: S_6  and  C_23
    4  A    between atoms: C_15  and  C_21
                            x       y       z     vdW  Elec       q    Type
                         _______ _______ _______ _____ _____    ______ ____

>  <TORSDO>
F 4

$$$$
=
 OpenBabel10272400473D

 25 28  0  0  1  0  0  0  0  0999 V2000
  186.3910  178.2670  144.3840 C   0  0  0  0  0  0  0  0  0  0  0  0
  186.5170  178.3360  142.9850 C   0  0  0  0  0  0  0  0  0  0  0  0
  184.0500  178.9440  144.2450 C   0  0  0  0  0  3  0  0  0  0  0  0
  187.3710  177.9180  145.3280 C   0  0  0  0  0  0  0  0  0  0  0  0
  189.0360  177.2800  147.4780 C   0  0  0  0  0  3  0  0  0  0  0  0
  184.1670  179.0150  142.8510 C   0  0  0  0  0  3  0  0  0  0  0  0
  186.8950  177.9540  146.6370 C   0  0  0  0  0  0  0  0  0  0  0  0
  187.7040  177.6420  147.7270 C   0  0  0  0  0  3  0  0  0  0  0  0
  185.5340  178.7760  140.8200 C   0  0  0  0  0  0  0  0  0  0  0  0
  184.3990  179.1650  139.9320 C   0  0  0  0  0  1  0  0  0  0  0  0
  187.6910  178.0490  142.3640 N   0  0  0  0  0  0  0  0  0  0  0  0
  189.5310  177.2370  146.1620 C   0  0  0  0  0  3  0  0  0  0  0  0
  185.1690  178.5710  144.9840 C   0  0  0  0  0  0  0  0  0  0  0  0
  185.2740  178.4150  146.6600 S   0  0  0  0  0  0  0  0  0  0  0  0
  186.7330  178.4770  140.2550 N   0  0  0  0  0  0  0  0  0  0  0  0
  188.7000  177.5560  145.0770 C   0  0  0  0  0  3  0  0  0  0  0  0
  187.8020  178.1150  141.0120 C   0  0  0  0  0  0  0  0  0  0  0  0
  185.3890  178.7140  142.2150 C   0  0  0  0  0  0  0  0  0  0  0  0
  189.3590  177.7300  140.2290 S   0  0  0  0  0  0  0  0  0  0  0  0
  188.9810  178.7880  138.7920 C   0  0  0  0  0  2  0  0  0  0  0  0
  188.8770  177.9850  137.4910 C   0  0  2  0  0  3  0  0  0  0  0  0
  187.7180  178.5330  136.6600 C   0  0  0  0  0  1  0  0  0  0  0  0
  188.7280  176.5430  137.7420 N   0  0  0  0  0  0  0  0  0  0  0  0
  189.6480  175.8220  136.8740 C   0  0  0  0  0  1  0  0  0  0  0  0
  187.3990  176.1290  137.3100 C   0  0  0  0  0  1  0  0  0  0  0  0
  1 13  2  0  0  0  0
  1  4  1  0  0  0  0
  2  1  1  0  0  0  0
  3 13  1  0  0  0  0
  4  7  1  0  0  0  0
  5  8  1  0  0  0  0
  6  3  2  0  0  0  0
  7 14  1  0  0  0  0
  7  8  2  0  0  0  0
  9 18  1  0  0  0  0
 10  9  1  0  0  0  0
 11  2  1  0  0  0  0
 12  5  2  0  0  0  0
 13 14  1  0  0  0  0
 15  9  2  0  0  0  0
 15 17  1  0  0  0  0
 16  4  2  0  0  0  0
 16 12  1  0  0  0  0
 17 11  2  0  0  0  0
 18  6  1  0  0  0  0
 18  2  2  0  0  0  0
 19 17  1  0  0  0  0
 20 19  1  0  0  0  0
 21 22  1  1  0  0  0
 21 23  1  0  0  0  0
 21 20  1  0  0  0  0
 24 23  1  0  0  0  0
 25 23  1  0  0  0  0
M  END
>  <MODEL>
5

>  <REMARK>
 VINA RESULT:      -9.0      1.458      4.558
  Name = 
  4 active torsions:
  status: ('A' for Active; 'I' for Inactive)
    1  A    between atoms: N_2  and  C_21
    2  A    between atoms: S_6  and  C_15
    3  A    between atoms: S_6  and  C_23
    4  A    between atoms: C_15  and  C_21
                            x       y       z     vdW  Elec       q    Type
                         _______ _______ _______ _____ _____    ______ ____

>  <TORSDO>
F 4

$$$$
=
 OpenBabel10272400473D

 25 28  0  0  1  0  0  0  0  0999 V2000
  188.0320  177.5890  145.3920 C   0  0  0  0  0  0  0  0  0  0  0  0
  187.4440  177.8830  144.1490 C   0  0  0  0  0  0  0  0  0  0  0  0
  185.9450  178.1120  146.5460 C   0  0  0  0  0  3  0  0  0  0  0  0
  189.3460  177.1670  145.6530 C   0  0  0  0  0  0  0  0  0  0  0  0
  191.8510  176.3240  146.5560 C   0  0  0  0  0  3  0  0  0  0  0  0
  185.3520  178.4050  145.3120 C   0  0  0  0  0  3  0  0  0  0  0  0
  189.5870  176.9670  147.0110 C   0  0  0  0  0  0  0  0  0  0  0  0
  190.8270  176.5470  147.4880 C   0  0  0  0  0  3  0  0  0  0  0  0
  185.5180  178.5820  142.8640 C   0  0  0  0  0  0  0  0  0  0  0  0
  184.0980  179.0210  142.7340 C   0  0  0  0  0  1  0  0  0  0  0  0
  188.1460  177.7780  142.9910 N   0  0  0  0  0  0  0  0  0  0  0  0
  191.6230  176.5210  145.1810 C   0  0  0  0  0  3  0  0  0  0  0  0
  187.2770  177.7080  146.5600 C   0  0  0  0  0  0  0  0  0  0  0  0
  188.2030  177.3030  147.9100 S   0  0  0  0  0  0  0  0  0  0  0  0
  186.2700  178.4590  141.7390 N   0  0  0  0  0  0  0  0  0  0  0  0
  190.3660  176.9440  144.7220 C   0  0  0  0  0  3  0  0  0  0  0  0
  187.5690  178.0610  141.7950 C   0  0  0  0  0  0  0  0  0  0  0  0
  186.0880  178.2940  144.1140 C   0  0  0  0  0  0  0  0  0  0  0  0
  188.5210  177.9130  140.2920 S   0  0  0  0  0  0  0  0  0  0  0  0
  187.0700  178.2860  139.2500 C   0  0  0  0  0  2  0  0  0  0  0  0
  187.1800  177.6590  137.8560 C   0  0  2  0  0  3  0  0  0  0  0  0
  188.2110  176.5330  137.8970 C   0  0  0  0  0  1  0  0  0  0  0  0
  187.5080  178.6560  136.8260 N   0  0  0  0  0  0  0  0  0  0  0  0
  187.0980  178.1370  135.5290 C   0  0  0  0  0  1  0  0  0  0  0  0
  188.9580  178.7790  136.7420 C   0  0  0  0  0  1  0  0  0  0  0  0
  1  4  1  0  0  0  0
  1 13  2  0  0  0  0
  2  1  1  0  0  0  0
  3 13  1  0  0  0  0
  4  7  1  0  0  0  0
  5  8  1  0  0  0  0
  6  3  2  0  0  0  0
  7  8  2  0  0  0  0
  7 14  1  0  0  0  0
  9 18  1  0  0  0  0
 10  9  1  0  0  0  0
 11  2  1  0  0  0  0
 12  5  2  0  0  0  0
 13 14  1  0  0  0  0
 15 17  1  0  0  0  0
 15  9  2  0  0  0  0
 16 12  1  0  0  0  0
 16  4  2  0  0  0  0
 17 11  2  0  0  0  0
 18  2  2  0  0  0  0
 18  6  1  0  0  0  0
 19 17  1  0  0  0  0
 20 19  1  0  0  0  0
 21 22  1  1  0  0  0
 21 20  1  0  0  0  0
 23 21  1  0  0  0  0
 24 23  1  0  0  0  0
 25 23  1  0  0  0  0
M  END
>  <MODEL>
6

>  <REMARK>
 VINA RESULT:      -8.9      1.530      4.553
  Name = 
  4 active torsions:
  status: ('A' for Active; 'I' for Inactive)
    1  A    between atoms: N_2  and  C_21
    2  A    between atoms: S_6  and  C_15
    3  A    between atoms: S_6  and  C_23
    4  A    between atoms: C_15  and  C_21
                            x       y       z     vdW  Elec       q    Type
                         _______ _______ _______ _____ _____    ______ ____

>  <TORSDO>
F 4

$$$$
=
 OpenBabel10272400473D

 25 28  0  0  1  0  0  0  0  0999 V2000
  189.3770  177.4700  144.1100 C   0  0  0  0  0  0  0  0  0  0  0  0
  188.9560  177.6720  142.7830 C   0  0  0  0  0  0  0  0  0  0  0  0
  191.6000  176.8140  143.3450 C   0  0  0  0  0  3  0  0  0  0  0  0
  188.6360  177.6400  145.2910 C   0  0  0  0  0  0  0  0  0  0  0  0
  187.4950  177.8650  147.8300 C   0  0  0  0  0  3  0  0  0  0  0  0
  191.1900  177.0130  142.0210 C   0  0  0  0  0  3  0  0  0  0  0  0
  189.3740  177.3480  146.4360 C   0  0  0  0  0  0  0  0  0  0  0  0
  188.8290  177.4520  147.7140 C   0  0  0  0  0  3  0  0  0  0  0  0
  189.4390  177.6490  140.4130 C   0  0  0  0  0  0  0  0  0  0  0  0
  190.3410  177.4290  139.2450 C   0  0  0  0  0  1  0  0  0  0  0  0
  187.6940  178.0830  142.4950 N   0  0  0  0  0  0  0  0  0  0  0  0
  186.7360  178.1640  146.6830 C   0  0  0  0  0  3  0  0  0  0  0  0
  190.6820  177.0470  144.3650 C   0  0  0  0  0  0  0  0  0  0  0  0
  190.9390  176.8780  146.0230 S   0  0  0  0  0  0  0  0  0  0  0  0
  188.1650  178.0610  140.1870 N   0  0  0  0  0  0  0  0  0  0  0  0
  187.3040  178.0530  145.4050 C   0  0  0  0  0  3  0  0  0  0  0  0
  187.2980  178.2790  141.2110 C   0  0  0  0  0  0  0  0  0  0  0  0
  189.8770  177.4410  141.7310 C   0  0  0  0  0  0  0  0  0  0  0  0
  185.6320  178.8200  140.8680 S   0  0  0  0  0  0  0  0  0  0  0  0
  185.1410  178.6560  142.6170 C   0  0  0  0  0  2  0  0  0  0  0  0
  183.6430  178.3740  142.7760 C   0  0  2  0  0  3  0  0  0  0  0  0
  182.9680  178.4870  141.4110 C   0  0  0  0  0  1  0  0  0  0  0  0
  183.0150  179.2640  143.7650 N   0  0  0  0  0  0  0  0  0  0  0  0
  183.7430  179.1520  145.0200 C   0  0  0  0  0  1  0  0  0  0  0  0
  181.6780  178.7660  144.0590 C   0  0  0  0  0  1  0  0  0  0  0  0
  1 13  2  0  0  0  0
  1  4  1  0  0  0  0
  2  1  1  0  0  0  0
  3 13  1  0  0  0  0
  4 16  2  0  0  0  0
  4  7  1  0  0  0  0
  6  3  2  0  0  0  0
  7  8  2  0  0  0  0
  8  5  1  0  0  0  0
  9 18  1  0  0  0  0
 10  9  1  0  0  0  0
 11  2  1  0  0  0  0
 12  5  2  0  0  0  0
 13 14  1  0  0  0  0
 14  7  1  0  0  0  0
 15  9  2  0  0  0  0
 15 17  1  0  0  0  0
 16 12  1  0  0  0  0
 17 11  2  0  0  0  0
 18  6  1  0  0  0  0
 18  2  2  0  0  0  0
 19 17  1  0  0  0  0
 19 20  1  0  0  0  0
 20 21  1  0  0  0  0
 21 22  1  6  0  0  0
 21 23  1  0  0  0  0
 23 25  1  0  0  0  0
 23 24  1  0  0  0  0
M  END
>  <MODEL>
7

>  <REMARK>
 VINA RESULT:      -8.9      2.143      5.541
  Name = 
  4 active torsions:
  status: ('A' for Active; 'I' for Inactive)
    1  A    between atoms: N_2  and  C_21
    2  A    between atoms: S_6  and  C_15
    3  A    between atoms: S_6  and  C_23
    4  A    between atoms: C_15  and  C_21
                            x       y       z     vdW  Elec       q    Type
                         _______ _______ _______ _____ _____    ______ ____

>  <TORSDO>
F 4

$$$$
=
 OpenBabel10272400473D

 25 28  0  0  1  0  0  0  0  0999 V2000
  189.3630  177.4960  144.0700 C   0  0  0  0  0  0  0  0  0  0  0  0
  188.4320  177.7220  145.0990 C   0  0  0  0  0  0  0  0  0  0  0  0
  191.1020  176.9810  145.7030 C   0  0  0  0  0  3  0  0  0  0  0  0
  189.1620  177.5860  142.6820 C   0  0  0  0  0  0  0  0  0  0  0  0
  189.1460  177.6600  139.8900 C   0  0  0  0  0  3  0  0  0  0  0  0
  190.1810  177.2040  146.7340 C   0  0  0  0  0  3  0  0  0  0  0  0
  190.3110  177.2920  141.9520 C   0  0  0  0  0  0  0  0  0  0  0  0
  190.3310  177.3220  140.5590 C   0  0  0  0  0  3  0  0  0  0  0  0
  187.9070  177.8010  147.4590 C   0  0  0  0  0  0  0  0  0  0  0  0
  188.2610  177.6660  148.9020 C   0  0  0  0  0  1  0  0  0  0  0  0
  187.1490  178.0780  144.8290 N   0  0  0  0  0  0  0  0  0  0  0  0
  187.9760  177.9590  140.6140 C   0  0  0  0  0  3  0  0  0  0  0  0
  190.6720  177.1320  144.3880 C   0  0  0  0  0  0  0  0  0  0  0  0
  191.5870  176.9190  142.9880 S   0  0  0  0  0  0  0  0  0  0  0  0
  186.6380  178.1540  147.1270 N   0  0  0  0  0  0  0  0  0  0  0  0
  187.9780  177.9230  142.0170 C   0  0  0  0  0  3  0  0  0  0  0  0
  186.2560  178.2910  145.8300 C   0  0  0  0  0  0  0  0  0  0  0  0
  188.8500  177.5720  146.4450 C   0  0  0  0  0  0  0  0  0  0  0  0
  184.5780  178.7570  145.4390 S   0  0  0  0  0  0  0  0  0  0  0  0
  184.9500  178.8790  143.6570 C   0  0  0  0  0  2  0  0  0  0  0  0
  183.6980  179.1680  142.8210 C   0  0  2  0  0  3  0  0  0  0  0  0
  182.4590  178.8840  143.6670 C   0  0  0  0  0  1  0  0  0  0  0  0
  183.6830  178.4010  141.5660 N   0  0  0  0  0  0  0  0  0  0  0  0
  184.6200  179.0140  140.6350 C   0  0  0  0  0  1  0  0  0  0  0  0
  182.3760  178.5550  140.9410 C   0  0  0  0  0  1  0  0  0  0  0  0
  1 13  1  0  0  0  0
  1  2  2  0  0  0  0
  2 18  1  0  0  0  0
  3  6  1  0  0  0  0
  4  1  1  0  0  0  0
  5  8  2  0  0  0  0
  5 12  1  0  0  0  0
  7  4  2  0  0  0  0
  7 14  1  0  0  0  0
  8  7  1  0  0  0  0
  9 10  1  0  0  0  0
 11  2  1  0  0  0  0
 11 17  2  0  0  0  0
 12 16  2  0  0  0  0
 13  3  2  0  0  0  0
 14 13  1  0  0  0  0
 15  9  2  0  0  0  0
 16  4  1  0  0  0  0
 17 15  1  0  0  0  0
 18  6  2  0  0  0  0
 18  9  1  0  0  0  0
 19 17  1  0  0  0  0
 20 19  1  0  0  0  0
 21 20  1  0  0  0  0
 21 22  1  1  0  0  0
 23 21  1  0  0  0  0
 24 23  1  0  0  0  0
 25 23  1  0  0  0  0
M  END
>  <MODEL>
8

>  <REMARK>
 VINA RESULT:      -8.7      1.877      5.141
  Name = 
  4 active torsions:
  status: ('A' for Active; 'I' for Inactive)
    1  A    between atoms: N_2  and  C_21
    2  A    between atoms: S_6  and  C_15
    3  A    between atoms: S_6  and  C_23
    4  A    between atoms: C_15  and  C_21
                            x       y       z     vdW  Elec       q    Type
                         _______ _______ _______ _____ _____    ______ ____

>  <TORSDO>
F 4

$$$$
=
 OpenBabel10272400473D

 25 28  0  0  1  0  0  0  0  0999 V2000
  186.0580  178.4210  142.9610 C   0  0  0  0  0  0  0  0  0  0  0  0
  187.1020  178.1610  142.0550 C   0  0  0  0  0  0  0  0  0  0  0  0
  184.5710  179.0460  141.1290 C   0  0  0  0  0  3  0  0  0  0  0  0
  186.0740  178.3020  144.3610 C   0  0  0  0  0  0  0  0  0  0  0  0
  185.7260  178.1860  147.1300 C   0  0  0  0  0  3  0  0  0  0  0  0
  185.6050  178.7890  140.2200 C   0  0  0  0  0  3  0  0  0  0  0  0
  184.8560  178.6440  144.9440 C   0  0  0  0  0  0  0  0  0  0  0  0
  184.6550  178.5950  146.3210 C   0  0  0  0  0  3  0  0  0  0  0  0
  187.9200  178.0820  139.7800 C   0  0  0  0  0  0  0  0  0  0  0  0
  187.7610  178.2520  138.3060 C   0  0  0  0  0  1  0  0  0  0  0  0
  188.3200  177.7370  142.4800 N   0  0  0  0  0  0  0  0  0  0  0  0
  186.9620  177.8370  146.5560 C   0  0  0  0  0  3  0  0  0  0  0  0
  184.8210  178.8560  142.4850 C   0  0  0  0  0  0  0  0  0  0  0  0
  183.7440  179.0970  143.7610 S   0  0  0  0  0  0  0  0  0  0  0  0
  189.1170  177.6590  140.2650 N   0  0  0  0  0  0  0  0  0  0  0  0
  187.1430  177.8930  145.1650 C   0  0  0  0  0  3  0  0  0  0  0  0
  189.3210  177.4860  141.5970 C   0  0  0  0  0  0  0  0  0  0  0  0
  186.8670  178.3470  140.6700 C   0  0  0  0  0  0  0  0  0  0  0  0
  190.9100  176.9280  142.1900 S   0  0  0  0  0  0  0  0  0  0  0  0
  190.2690  176.6680  143.8790 C   0  0  0  0  0  2  0  0  0  0  0  0
  190.7540  177.7450  144.8560 C   0  0  2  0  0  3  0  0  0  0  0  0
  191.6070  178.7580  144.0960 C   0  0  0  0  0  1  0  0  0  0  0  0
  191.4840  177.1690  145.9950 N   0  0  0  0  0  0  0  0  0  0  0  0
  191.9820  175.8550  145.6120 C   0  0  0  0  0  1  0  0  0  0  0  0
  190.5390  176.9140  147.0740 C   0  0  0  0  0  1  0  0  0  0  0  0
  1  4  1  0  0  0  0
  2 11  1  0  0  0  0
  2  1  1  0  0  0  0
  3 13  1  0  0  0  0
  4  7  2  0  0  0  0
  4 16  1  0  0  0  0
  6 18  1  0  0  0  0
  6  3  2  0  0  0  0
  7  8  1  0  0  0  0
  8  5  2  0  0  0  0
  9 15  2  0  0  0  0
  9 18  1  0  0  0  0
 10  9  1  0  0  0  0
 12  5  1  0  0  0  0
 13  1  2  0  0  0  0
 13 14  1  0  0  0  0
 14  7  1  0  0  0  0
 15 17  1  0  0  0  0
 16 12  2  0  0  0  0
 17 19  1  0  0  0  0
 17 11  2  0  0  0  0
 18  2  2  0  0  0  0
 19 20  1  0  0  0  0
 20 21  1  0  0  0  0
 21 22  1  6  0  0  0
 21 23  1  0  0  0  0
 23 25  1  0  0  0  0
 24 23  1  0  0  0  0
M  END
>  <MODEL>
9

>  <REMARK>
 VINA RESULT:      -8.7      1.434      5.417
  Name = 
  4 active torsions:
  status: ('A' for Active; 'I' for Inactive)
    1  A    between atoms: N_2  and  C_21
    2  A    between atoms: S_6  and  C_15
    3  A    between atoms: S_6  and  C_23
    4  A    between atoms: C_15  and  C_21
                            x       y       z     vdW  Elec       q    Type
                         _______ _______ _______ _____ _____    ______ ____

>  <TORSDO>
F 4

$$$$
