=
 OpenBabel10272400563D

 25 28  0  0  1  0  0  0  0  0999 V2000
  187.8040  177.9800  143.0530 C   0  0  0  0  0  0  0  0  0  0  0  0
  187.5000  178.3920  141.6350 C   0  0  0  0  0  0  0  0  0  0  0  0
  185.3290  177.5620  143.3040 C   0  0  0  0  0  2  0  0  0  0  0  0
  189.1050  178.0250  143.6400 C   0  0  0  0  0  0  0  0  0  0  0  0
  188.2730  177.3650  139.5240 C   0  0  1  0  0  3  0  0  0  0  0  0
  185.1680  178.7520  142.3670 C   0  0  0  0  0  2  0  0  0  0  0  0
  189.2640  177.6160  144.9770 C   0  0  0  0  0  3  0  0  0  0  0  0
  188.1860  177.1640  145.7310 C   0  0  0  0  0  3  0  0  0  0  0  0
  185.7690  179.1060  139.9260 C   0  0  0  0  0  0  0  0  0  0  0  0
  184.7920  179.8960  139.8280 O   0  0  0  0  0  0  0  0  0  0  0  0
  188.5890  178.3640  140.6120 C   0  0  0  0  0  2  0  0  0  0  0  0
  186.7160  177.5630  143.8580 C   0  0  0  0  0  0  0  0  0  0  0  0
  186.9130  177.1420  145.1720 C   0  0  0  0  0  3  0  0  0  0  0  0
  186.2590  178.5030  138.7190 N   0  0  0  0  0  2  0  0  0  0  0  0
  187.6340  178.1400  138.4020 C   0  0  0  0  0  2  0  0  0  0  0  0
  186.2250  178.7210  141.2920 C   0  0  0  0  0  0  0  0  0  0  0  0
  190.7450  175.1280  137.6440 N   0  0  0  0  0  0  0  0  0  0  0  0
  190.7700  174.0960  136.6210 C   0  0  0  0  0  1  0  0  0  0  0  0
  191.9980  175.5110  138.2740 C   0  0  0  0  0  1  0  0  0  0  0  0
  189.5030  176.7570  139.0460 N   0  0  0  0  0  2  0  0  0  0  0  0
  188.4310  175.4040  137.4770 O   0  0  0  0  0  0  0  0  0  0  0  0
  189.5120  175.7470  138.0320 C   0  0  0  0  0  0  0  0  0  0  0  0
  191.5760  178.0170  143.4540 C   0  0  0  0  0  2  0  0  0  0  0  0
  191.2150  179.4460  143.7860 C   0  0  0  0  0  2  0  0  0  0  0  0
  190.2910  178.6130  142.9060 C   0  0  0  0  0  3  0  0  0  0  0  0
  1  4  2  0  0  0  0
  1 12  1  0  0  0  0
  2  1  1  0  0  0  0
  3 12  1  0  0  0  0
  4  7  1  0  0  0  0
  5 20  1  6  0  0  0
  5 11  1  0  0  0  0
  6  3  1  0  0  0  0
  7  8  2  0  0  0  0
  9 16  1  0  0  0  0
 10  9  2  0  0  0  0
 11  2  1  0  0  0  0
 12 13  2  0  0  0  0
 13  8  1  0  0  0  0
 14  9  1  0  0  0  0
 15 14  1  0  0  0  0
 15  5  1  0  0  0  0
 16  2  2  0  0  0  0
 16  6  1  0  0  0  0
 17 22  1  0  0  0  0
 17 19  1  0  0  0  0
 18 17  1  0  0  0  0
 21 22  2  0  0  0  0
 22 20  1  0  0  0  0
 23 24  1  0  0  0  0
 25 23  1  0  0  0  0
 25  4  1  0  0  0  0
 25 24  1  0  0  0  0
M  END
>  <MODEL>
1

>  <REMARK>
 VINA RESULT:      -8.1      0.000      0.000
  Name = 
  2 active torsions:
  status: ('A' for Active; 'I' for Inactive)
    1  A    between atoms: C_5  and  C_22
    2  A    between atoms: C_6  and  N_15
                            x       y       z     vdW  Elec       q    Type
                         _______ _______ _______ _____ _____    ______ ____

>  <TORSDO>
F 2

$$$$
=
 OpenBabel10272400563D

 25 28  0  0  1  0  0  0  0  0999 V2000
  187.4540  177.6430  142.3560 C   0  0  0  0  0  0  0  0  0  0  0  0
  186.1050  178.3140  142.4270 C   0  0  0  0  0  0  0  0  0  0  0  0
  186.9620  176.7460  144.6610 C   0  0  0  0  0  2  0  0  0  0  0  0
  188.3610  177.7810  141.2620 C   0  0  0  0  0  0  0  0  0  0  0  0
  184.1240  177.9610  140.9930 C   0  0  1  0  0  3  0  0  0  0  0  0
  186.2490  178.0740  144.8810 C   0  0  0  0  0  2  0  0  0  0  0  0
  189.5950  177.1060  141.3120 C   0  0  0  0  0  3  0  0  0  0  0  0
  189.9420  176.3070  142.3970 C   0  0  0  0  0  3  0  0  0  0  0  0
  184.1590  179.0880  143.8550 C   0  0  0  0  0  0  0  0  0  0  0  0
  183.9520  179.6930  144.9410 O   0  0  0  0  0  0  0  0  0  0  0  0
  185.4190  178.7190  141.1620 C   0  0  0  0  0  2  0  0  0  0  0  0
  187.8540  176.8640  143.4700 C   0  0  0  0  0  0  0  0  0  0  0  0
  189.0740  176.1900  143.4760 C   0  0  0  0  0  3  0  0  0  0  0  0
  183.0360  178.8790  142.9860 N   0  0  0  0  0  2  0  0  0  0  0  0
  183.0320  178.8500  141.5300 C   0  0  0  0  0  2  0  0  0  0  0  0
  185.5040  178.4820  143.6360 C   0  0  0  0  0  0  0  0  0  0  0  0
  182.8980  176.3900  137.7250 N   0  0  0  0  0  0  0  0  0  0  0  0
  182.0570  175.3050  137.2480 C   0  0  0  0  0  1  0  0  0  0  0  0
  183.5960  177.2090  136.7470 C   0  0  0  0  0  1  0  0  0  0  0  0
  183.8850  177.7090  139.5820 N   0  0  0  0  0  2  0  0  0  0  0  0
  182.4350  175.9230  139.9670 O   0  0  0  0  0  0  0  0  0  0  0  0
  183.0470  176.6420  139.1280 C   0  0  0  0  0  0  0  0  0  0  0  0
  187.8300  177.9230  138.8460 C   0  0  0  0  0  2  0  0  0  0  0  0
  189.1320  178.6730  139.0030 C   0  0  0  0  0  2  0  0  0  0  0  0
  188.0860  178.7240  140.1110 C   0  0  0  0  0  3  0  0  0  0  0  0
  1  2  1  0  0  0  0
  1 12  1  0  0  0  0
  2 16  2  0  0  0  0
  3  6  1  0  0  0  0
  4  7  1  0  0  0  0
  4  1  2  0  0  0  0
  5 20  1  6  0  0  0
  5 11  1  0  0  0  0
  5 15  1  0  0  0  0
  7  8  2  0  0  0  0
  8 13  1  0  0  0  0
  9 10  2  0  0  0  0
 11  2  1  0  0  0  0
 12 13  2  0  0  0  0
 12  3  1  0  0  0  0
 14  9  1  0  0  0  0
 15 14  1  0  0  0  0
 16  9  1  0  0  0  0
 16  6  1  0  0  0  0
 17 22  1  0  0  0  0
 18 17  1  0  0  0  0
 19 17  1  0  0  0  0
 22 20  1  0  0  0  0
 22 21  2  0  0  0  0
 23 24  1  0  0  0  0
 23 25  1  0  0  0  0
 24 25  1  0  0  0  0
 25  4  1  0  0  0  0
M  END
>  <MODEL>
2

>  <REMARK>
 VINA RESULT:      -7.7      3.228      4.959
  Name = 
  2 active torsions:
  status: ('A' for Active; 'I' for Inactive)
    1  A    between atoms: C_5  and  C_22
    2  A    between atoms: C_6  and  N_15
                            x       y       z     vdW  Elec       q    Type
                         _______ _______ _______ _____ _____    ______ ____

>  <TORSDO>
F 2

$$$$
=
 OpenBabel10272400563D

 25 28  0  0  1  0  0  0  0  0999 V2000
  189.3100  177.5250  145.8100 C   0  0  0  0  0  0  0  0  0  0  0  0
  188.0030  178.1030  145.3300 C   0  0  0  0  0  0  0  0  0  0  0  0
  187.9660  176.3530  147.5940 C   0  0  0  0  0  2  0  0  0  0  0  0
  190.5820  177.8360  145.2390 C   0  0  0  0  0  0  0  0  0  0  0  0
  186.8810  177.7900  143.1500 C   0  0  1  0  0  3  0  0  0  0  0  0
  187.0970  177.6030  147.5730 C   0  0  0  0  0  2  0  0  0  0  0  0
  191.7350  177.2350  145.7770 C   0  0  0  0  0  3  0  0  0  0  0  0
  191.6600  176.3440  146.8430 C   0  0  0  0  0  3  0  0  0  0  0  0
  185.5630  178.5970  145.8100 C   0  0  0  0  0  0  0  0  0  0  0  0
  184.8480  179.0660  146.7350 O   0  0  0  0  0  0  0  0  0  0  0  0
  187.8920  178.6020  143.9260 C   0  0  0  0  0  2  0  0  0  0  0  0
  189.2680  176.6540  146.9270 C   0  0  0  0  0  0  0  0  0  0  0  0
  190.4270  176.0580  147.4190 C   0  0  0  0  0  3  0  0  0  0  0  0
  184.9530  178.4180  144.5240 N   0  0  0  0  0  2  0  0  0  0  0  0
  185.5800  178.5490  143.2160 C   0  0  0  0  0  2  0  0  0  0  0  0
  186.9250  178.1010  146.1610 C   0  0  0  0  0  0  0  0  0  0  0  0
  188.9570  177.0800  140.0140 N   0  0  0  0  0  0  0  0  0  0  0  0
  190.2310  176.5040  139.6190 C   0  0  0  0  0  1  0  0  0  0  0  0
  188.1010  177.6450  138.9830 C   0  0  0  0  0  1  0  0  0  0  0  0
  187.3020  177.6810  141.7630 N   0  0  0  0  0  2  0  0  0  0  0  0
  189.3090  176.6090  142.2750 O   0  0  0  0  0  0  0  0  0  0  0  0
  188.5560  177.1020  141.3900 C   0  0  0  0  0  0  0  0  0  0  0  0
  191.9530  178.5600  143.3060 C   0  0  0  0  0  2  0  0  0  0  0  0
  192.0050  179.7170  144.2750 C   0  0  0  0  0  2  0  0  0  0  0  0
  190.7360  178.8820  144.1560 C   0  0  0  0  0  3  0  0  0  0  0  0
  1 12  1  0  0  0  0
  2  1  1  0  0  0  0
  2 16  2  0  0  0  0
  4  7  1  0  0  0  0
  4  1  2  0  0  0  0
  5 20  1  6  0  0  0
  5 15  1  0  0  0  0
  5 11  1  0  0  0  0
  6  3  1  0  0  0  0
  7  8  2  0  0  0  0
  8 13  1  0  0  0  0
  9 16  1  0  0  0  0
  9 10  2  0  0  0  0
 11  2  1  0  0  0  0
 12 13  2  0  0  0  0
 12  3  1  0  0  0  0
 14  9  1  0  0  0  0
 15 14  1  0  0  0  0
 16  6  1  0  0  0  0
 17 22  1  0  0  0  0
 18 17  1  0  0  0  0
 19 17  1  0  0  0  0
 22 20  1  0  0  0  0
 22 21  2  0  0  0  0
 23 25  1  0  0  0  0
 23 24  1  0  0  0  0
 25 24  1  0  0  0  0
 25  4  1  0  0  0  0
M  END
>  <MODEL>
3

>  <REMARK>
 VINA RESULT:      -7.5      2.684      4.220
  Name = 
  2 active torsions:
  status: ('A' for Active; 'I' for Inactive)
    1  A    between atoms: C_5  and  C_22
    2  A    between atoms: C_6  and  N_15
                            x       y       z     vdW  Elec       q    Type
                         _______ _______ _______ _____ _____    ______ ____

>  <TORSDO>
F 2

$$$$
=
 OpenBabel10272400563D

 25 28  0  0  1  0  0  0  0  0999 V2000
  189.2230  175.5850  137.5760 C   0  0  0  0  0  0  0  0  0  0  0  0
  190.3580  176.3400  138.2200 C   0  0  0  0  0  0  0  0  0  0  0  0
  190.9440  173.8700  136.8990 C   0  0  0  0  0  2  0  0  0  0  0  0
  187.8730  176.0480  137.5360 C   0  0  0  0  0  0  0  0  0  0  0  0
  190.6870  176.9030  140.6040 C   0  0  1  0  0  3  0  0  0  0  0  0
  191.8800  175.0620  136.7520 C   0  0  0  0  0  2  0  0  0  0  0  0
  186.8990  175.2540  136.9020 C   0  0  0  0  0  3  0  0  0  0  0  0
  187.2230  174.0310  136.3240 C   0  0  0  0  0  3  0  0  0  0  0  0
  192.8600  176.6910  138.4360 C   0  0  0  0  0  0  0  0  0  0  0  0
  193.8760  176.8000  137.7000 O   0  0  0  0  0  0  0  0  0  0  0  0
  190.0630  177.3330  139.2970 C   0  0  0  0  0  2  0  0  0  0  0  0
  189.5340  174.3600  136.9360 C   0  0  0  0  0  0  0  0  0  0  0  0
  188.5410  173.5870  136.3380 C   0  0  0  0  0  3  0  0  0  0  0  0
  193.0060  177.0270  139.8240 N   0  0  0  0  0  2  0  0  0  0  0  0
  192.0090  177.6210  140.7040 C   0  0  0  0  0  2  0  0  0  0  0  0
  191.6400  176.0590  137.8570 C   0  0  0  0  0  0  0  0  0  0  0  0
  189.2090  177.3080  144.1110 N   0  0  0  0  0  0  0  0  0  0  0  0
  189.4740  176.9340  145.4900 C   0  0  0  0  0  1  0  0  0  0  0  0
  187.9960  178.0520  143.8140 C   0  0  0  0  0  1  0  0  0  0  0  0
  189.8360  177.3100  141.7090 N   0  0  0  0  0  2  0  0  0  0  0  0
  191.1660  176.2940  143.3350 O   0  0  0  0  0  0  0  0  0  0  0  0
  190.1160  176.9410  143.0630 C   0  0  0  0  0  0  0  0  0  0  0  0
  186.1620  177.8370  137.4280 C   0  0  0  0  0  2  0  0  0  0  0  0
  187.4410  178.4940  136.9670 C   0  0  0  0  0  2  0  0  0  0  0  0
  187.4850  177.4190  138.0460 C   0  0  0  0  0  3  0  0  0  0  0  0
  1  2  1  0  0  0  0
  2 11  1  0  0  0  0
  3 12  1  0  0  0  0
  4  1  1  0  0  0  0
  4 25  1  0  0  0  0
  5 15  1  0  0  0  0
  5 20  1  1  0  0  0
  6  3  1  0  0  0  0
  6 16  1  0  0  0  0
  7  4  2  0  0  0  0
  8 13  2  0  0  0  0
  8  7  1  0  0  0  0
  9 14  1  0  0  0  0
 10  9  2  0  0  0  0
 11  5  1  0  0  0  0
 12  1  2  0  0  0  0
 13 12  1  0  0  0  0
 14 15  1  0  0  0  0
 16  2  2  0  0  0  0
 16  9  1  0  0  0  0
 17 18  1  0  0  0  0
 19 17  1  0  0  0  0
 20 22  1  0  0  0  0
 22 21  2  0  0  0  0
 22 17  1  0  0  0  0
 23 25  1  0  0  0  0
 24 23  1  0  0  0  0
 24 25  1  0  0  0  0
M  END
>  <MODEL>
4

>  <REMARK>
 VINA RESULT:      -6.9      2.946      7.301
  Name = 
  2 active torsions:
  status: ('A' for Active; 'I' for Inactive)
    1  A    between atoms: C_5  and  C_22
    2  A    between atoms: C_6  and  N_15
                            x       y       z     vdW  Elec       q    Type
                         _______ _______ _______ _____ _____    ______ ____

>  <TORSDO>
F 2

$$$$
=
 OpenBabel10272400563D

 25 28  0  0  1  0  0  0  0  0999 V2000
  188.3300  177.9140  145.0810 C   0  0  0  0  0  0  0  0  0  0  0  0
  187.4900  178.4130  143.9320 C   0  0  0  0  0  0  0  0  0  0  0  0
  186.1630  177.2120  146.1640 C   0  0  0  0  0  2  0  0  0  0  0  0
  189.7500  178.0480  145.1530 C   0  0  0  0  0  0  0  0  0  0  0  0
  187.4840  177.6630  141.5770 C   0  0  1  0  0  3  0  0  0  0  0  0
  185.5830  178.4550  145.5020 C   0  0  0  0  0  2  0  0  0  0  0  0
  190.4240  177.5420  146.2800 C   0  0  0  0  0  3  0  0  0  0  0  0
  189.7400  176.9140  147.3150 C   0  0  0  0  0  3  0  0  0  0  0  0
  185.2010  179.0830  143.0720 C   0  0  0  0  0  0  0  0  0  0  0  0
  184.2080  179.7690  143.4330 O   0  0  0  0  0  0  0  0  0  0  0  0
  188.1160  178.5920  142.5870 C   0  0  0  0  0  2  0  0  0  0  0  0
  187.6530  177.3140  146.1710 C   0  0  0  0  0  0  0  0  0  0  0  0
  188.3550  176.8030  147.2610 C   0  0  0  0  0  3  0  0  0  0  0  0
  185.2440  178.6440  141.7060 N   0  0  0  0  0  2  0  0  0  0  0  0
  186.4210  178.4600  140.8680 C   0  0  0  0  0  2  0  0  0  0  0  0
  186.1600  178.6320  144.1210 C   0  0  0  0  0  0  0  0  0  0  0  0
  189.5490  177.3180  138.3740 N   0  0  0  0  0  0  0  0  0  0  0  0
  189.6650  177.8980  137.0460 C   0  0  0  0  0  1  0  0  0  0  0  0
  190.4180  176.2060  138.7240 C   0  0  0  0  0  1  0  0  0  0  0  0
  188.4840  177.2350  140.6140 N   0  0  0  0  0  2  0  0  0  0  0  0
  187.8430  178.7880  138.9960 O   0  0  0  0  0  0  0  0  0  0  0  0
  188.5920  177.8220  139.3130 C   0  0  0  0  0  0  0  0  0  0  0  0
  191.6050  177.9280  143.5160 C   0  0  0  0  0  2  0  0  0  0  0  0
  191.9990  179.0310  144.4700 C   0  0  0  0  0  2  0  0  0  0  0  0
  190.5320  178.8210  144.1140 C   0  0  0  0  0  3  0  0  0  0  0  0
  1  4  2  0  0  0  0
  1 12  1  0  0  0  0
  2 16  2  0  0  0  0
  2  1  1  0  0  0  0
  3 12  1  0  0  0  0
  4  7  1  0  0  0  0
  5 20  1  6  0  0  0
  5 11  1  0  0  0  0
  6  3  1  0  0  0  0
  7  8  2  0  0  0  0
  9 10  2  0  0  0  0
  9 16  1  0  0  0  0
 11  2  1  0  0  0  0
 12 13  2  0  0  0  0
 13  8  1  0  0  0  0
 14  9  1  0  0  0  0
 15  5  1  0  0  0  0
 15 14  1  0  0  0  0
 16  6  1  0  0  0  0
 17 19  1  0  0  0  0
 17 22  1  0  0  0  0
 18 17  1  0  0  0  0
 21 22  2  0  0  0  0
 22 20  1  0  0  0  0
 23 25  1  0  0  0  0
 23 24  1  0  0  0  0
 25 24  1  0  0  0  0
 25  4  1  0  0  0  0
M  END
>  <MODEL>
5

>  <REMARK>
 VINA RESULT:      -6.9      1.740      2.561
  Name = 
  2 active torsions:
  status: ('A' for Active; 'I' for Inactive)
    1  A    between atoms: C_5  and  C_22
    2  A    between atoms: C_6  and  N_15
                            x       y       z     vdW  Elec       q    Type
                         _______ _______ _______ _____ _____    ______ ____

>  <TORSDO>
F 2

$$$$
=
 OpenBabel10272400563D

 25 28  0  0  1  0  0  0  0  0999 V2000
  188.0150  177.5420  143.0200 C   0  0  0  0  0  0  0  0  0  0  0  0
  186.7500  178.2410  143.4500 C   0  0  0  0  0  0  0  0  0  0  0  0
  188.1890  176.7160  145.3970 C   0  0  0  0  0  2  0  0  0  0  0  0
  188.5750  177.6330  141.7100 C   0  0  0  0  0  0  0  0  0  0  0  0
  184.4380  177.8890  142.6500 C   0  0  1  0  0  3  0  0  0  0  0  0
  187.5830  178.0630  145.7690 C   0  0  0  0  0  2  0  0  0  0  0  0
  189.7650  176.9360  141.4290 C   0  0  0  0  0  3  0  0  0  0  0  0
  190.3970  176.1590  142.3940 C   0  0  0  0  0  3  0  0  0  0  0  0
  185.3000  179.0900  145.3480 C   0  0  0  0  0  0  0  0  0  0  0  0
  185.4160  179.7280  146.4280 O   0  0  0  0  0  0  0  0  0  0  0  0
  185.7370  178.6260  142.4210 C   0  0  0  0  0  2  0  0  0  0  0  0
  188.7060  176.7850  143.9980 C   0  0  0  0  0  0  0  0  0  0  0  0
  189.8700  176.0880  143.6780 C   0  0  0  0  0  3  0  0  0  0  0  0
  183.9730  178.8810  144.8400 N   0  0  0  0  0  2  0  0  0  0  0  0
  183.5550  178.8140  143.4470 C   0  0  0  0  0  2  0  0  0  0  0  0
  186.5190  178.4530  144.7750 C   0  0  0  0  0  0  0  0  0  0  0  0
  183.0840  178.2550  139.0890 N   0  0  0  0  0  0  0  0  0  0  0  0
  183.0420  179.2140  137.9980 C   0  0  0  0  0  1  0  0  0  0  0  0
  182.3920  176.9870  138.9250 C   0  0  0  0  0  1  0  0  0  0  0  0
  183.8060  177.6040  141.3730 N   0  0  0  0  0  2  0  0  0  0  0  0
  184.3770  179.6620  140.4340 O   0  0  0  0  0  0  0  0  0  0  0  0
  183.7810  178.5560  140.3050 C   0  0  0  0  0  0  0  0  0  0  0  0
  187.6720  177.7510  139.4060 C   0  0  0  0  0  2  0  0  0  0  0  0
  188.8580  178.6860  139.4070 C   0  0  0  0  0  2  0  0  0  0  0  0
  187.9950  178.5510  140.6560 C   0  0  0  0  0  3  0  0  0  0  0  0
  1  2  1  0  0  0  0
  1 12  1  0  0  0  0
  2 16  2  0  0  0  0
  3  6  1  0  0  0  0
  4  1  2  0  0  0  0
  5 20  1  6  0  0  0
  5 15  1  0  0  0  0
  7  4  1  0  0  0  0
  7  8  2  0  0  0  0
  8 13  1  0  0  0  0
  9 10  2  0  0  0  0
 11  5  1  0  0  0  0
 11  2  1  0  0  0  0
 12  3  1  0  0  0  0
 13 12  2  0  0  0  0
 14  9  1  0  0  0  0
 15 14  1  0  0  0  0
 16  9  1  0  0  0  0
 16  6  1  0  0  0  0
 17 22  1  0  0  0  0
 18 17  1  0  0  0  0
 19 17  1  0  0  0  0
 22 21  2  0  0  0  0
 22 20  1  0  0  0  0
 23 24  1  0  0  0  0
 23 25  1  0  0  0  0
 24 25  1  0  0  0  0
 25  4  1  0  0  0  0
M  END
>  <MODEL>
6

>  <REMARK>
 VINA RESULT:      -6.8      3.223      5.449
  Name = 
  2 active torsions:
  status: ('A' for Active; 'I' for Inactive)
    1  A    between atoms: C_5  and  C_22
    2  A    between atoms: C_6  and  N_15
                            x       y       z     vdW  Elec       q    Type
                         _______ _______ _______ _____ _____    ______ ____

>  <TORSDO>
F 2

$$$$
=
 OpenBabel10272400563D

 25 28  0  0  1  0  0  0  0  0999 V2000
  187.8130  177.8300  145.8650 C   0  0  0  0  0  0  0  0  0  0  0  0
  189.0190  177.1440  145.2760 C   0  0  0  0  0  0  0  0  0  0  0  0
  189.2920  178.4280  147.8190 C   0  0  0  0  0  2  0  0  0  0  0  0
  186.5200  177.8380  145.2590 C   0  0  0  0  0  0  0  0  0  0  0  0
  190.2210  177.6580  143.1790 C   0  0  1  0  0  3  0  0  0  0  0  0
  189.9480  177.0770  147.5650 C   0  0  0  0  0  2  0  0  0  0  0  0
  185.4680  178.5120  145.9080 C   0  0  0  0  0  3  0  0  0  0  0  0
  185.6640  179.1720  147.1170 C   0  0  0  0  0  3  0  0  0  0  0  0
  191.3370  176.1820  145.6370 C   0  0  0  0  0  0  0  0  0  0  0  0
  191.9480  175.4440  146.4550 O   0  0  0  0  0  0  0  0  0  0  0  0
  189.0770  176.8950  143.8040 C   0  0  0  0  0  2  0  0  0  0  0  0
  187.9730  178.4670  147.1200 C   0  0  0  0  0  0  0  0  0  0  0  0
  186.9150  179.1450  147.7230 C   0  0  0  0  0  3  0  0  0  0  0  0
  191.9940  176.4880  144.3980 N   0  0  0  0  0  2  0  0  0  0  0  0
  191.3810  176.6990  143.0940 C   0  0  0  0  0  2  0  0  0  0  0  0
  190.0660  176.8210  146.0840 C   0  0  0  0  0  0  0  0  0  0  0  0
  189.6890  177.7180  139.3890 N   0  0  0  0  0  0  0  0  0  0  0  0
  189.8440  176.8680  138.2210 C   0  0  0  0  0  1  0  0  0  0  0  0
  189.2220  179.0810  139.1980 C   0  0  0  0  0  1  0  0  0  0  0  0
  189.8520  178.0820  141.8390 N   0  0  0  0  0  2  0  0  0  0  0  0
  190.4090  176.0440  140.8510 O   0  0  0  0  0  0  0  0  0  0  0  0
  190.0020  177.2300  140.7000 C   0  0  0  0  0  0  0  0  0  0  0  0
  186.5330  177.8880  142.7820 C   0  0  0  0  0  2  0  0  0  0  0  0
  185.0950  177.6230  143.1580 C   0  0  0  0  0  2  0  0  0  0  0  0
  186.2210  177.0440  144.0060 C   0  0  0  0  0  3  0  0  0  0  0  0
  1 12  1  0  0  0  0
  2  1  1  0  0  0  0
  2 16  2  0  0  0  0
  4  1  2  0  0  0  0
  4  7  1  0  0  0  0
  5 20  1  6  0  0  0
  5 11  1  0  0  0  0
  6  3  1  0  0  0  0
  7  8  2  0  0  0  0
  8 13  1  0  0  0  0
  9 16  1  0  0  0  0
  9 10  2  0  0  0  0
 11  2  1  0  0  0  0
 12 13  2  0  0  0  0
 12  3  1  0  0  0  0
 14  9  1  0  0  0  0
 15  5  1  0  0  0  0
 15 14  1  0  0  0  0
 16  6  1  0  0  0  0
 17 22  1  0  0  0  0
 18 17  1  0  0  0  0
 19 17  1  0  0  0  0
 22 21  2  0  0  0  0
 22 20  1  0  0  0  0
 23 24  1  0  0  0  0
 23 25  1  0  0  0  0
 24 25  1  0  0  0  0
 25  4  1  0  0  0  0
M  END
>  <MODEL>
7

>  <REMARK>
 VINA RESULT:      -6.8      2.965      5.318
  Name = 
  2 active torsions:
  status: ('A' for Active; 'I' for Inactive)
    1  A    between atoms: C_5  and  C_22
    2  A    between atoms: C_6  and  N_15
                            x       y       z     vdW  Elec       q    Type
                         _______ _______ _______ _____ _____    ______ ____

>  <TORSDO>
F 2

$$$$
=
 OpenBabel10272400563D

 25 28  0  0  1  0  0  0  0  0999 V2000
  182.3800  177.2930  140.1780 C   0  0  0  0  0  0  0  0  0  0  0  0
  183.7010  178.0220  140.1820 C   0  0  0  0  0  0  0  0  0  0  0  0
  183.3660  175.8230  138.3810 C   0  0  0  0  0  2  0  0  0  0  0  0
  181.2590  177.6620  140.9820 C   0  0  0  0  0  0  0  0  0  0  0  0
  185.3400  178.2460  142.0180 C   0  0  1  0  0  3  0  0  0  0  0  0
  184.0850  177.0870  137.9280 C   0  0  0  0  0  2  0  0  0  0  0  0
  180.0770  176.9050  140.8890 C   0  0  0  0  0  3  0  0  0  0  0  0
  179.9820  175.8070  140.0400 C   0  0  0  0  0  3  0  0  0  0  0  0
  185.8910  178.5120  139.0030 C   0  0  0  0  0  0  0  0  0  0  0  0
  186.3120  178.8000  137.8510 O   0  0  0  0  0  0  0  0  0  0  0  0
  184.0960  178.8200  141.3810 C   0  0  0  0  0  2  0  0  0  0  0  0
  182.2400  176.2020  139.2860 C   0  0  0  0  0  0  0  0  0  0  0  0
  181.0620  175.4600  139.2370 C   0  0  0  0  0  3  0  0  0  0  0  0
  186.8080  178.6470  140.0990 N   0  0  0  0  0  2  0  0  0  0  0  0
  186.5040  179.0310  141.4700 C   0  0  0  0  0  2  0  0  0  0  0  0
  184.5410  177.8890  139.1200 C   0  0  0  0  0  0  0  0  0  0  0  0
  186.1570  178.0650  145.7520 N   0  0  0  0  0  0  0  0  0  0  0  0
  187.1790  177.5600  146.6540 C   0  0  0  0  0  1  0  0  0  0  0  0
  184.9820  178.7040  146.3230 C   0  0  0  0  0  1  0  0  0  0  0  0
  185.2780  178.4230  143.4590 N   0  0  0  0  0  2  0  0  0  0  0  0
  187.3220  177.3690  143.8510 O   0  0  0  0  0  0  0  0  0  0  0  0
  186.2970  177.9270  144.3330 C   0  0  0  0  0  0  0  0  0  0  0  0
  180.0000  178.9640  142.6720 C   0  0  0  0  0  2  0  0  0  0  0  0
  180.1590  179.9010  141.4990 C   0  0  0  0  0  2  0  0  0  0  0  0
  181.2670  178.9110  141.8370 C   0  0  0  0  0  3  0  0  0  0  0  0
  1  2  1  0  0  0  0
  1  4  1  0  0  0  0
  2 11  1  0  0  0  0
  3 12  1  0  0  0  0
  4 25  1  0  0  0  0
  5 20  1  1  0  0  0
  6  3  1  0  0  0  0
  6 16  1  0  0  0  0
  7  4  2  0  0  0  0
  8  7  1  0  0  0  0
  9 16  1  0  0  0  0
  9 14  1  0  0  0  0
 10  9  2  0  0  0  0
 11  5  1  0  0  0  0
 12  1  2  0  0  0  0
 13 12  1  0  0  0  0
 13  8  2  0  0  0  0
 14 15  1  0  0  0  0
 15  5  1  0  0  0  0
 16  2  2  0  0  0  0
 17 19  1  0  0  0  0
 17 18  1  0  0  0  0
 20 22  1  0  0  0  0
 21 22  2  0  0  0  0
 22 17  1  0  0  0  0
 24 25  1  0  0  0  0
 24 23  1  0  0  0  0
 25 23  1  0  0  0  0
M  END
>  <MODEL>
8

>  <REMARK>
 VINA RESULT:      -6.8      3.985      7.471
  Name = 
  2 active torsions:
  status: ('A' for Active; 'I' for Inactive)
    1  A    between atoms: C_5  and  C_22
    2  A    between atoms: C_6  and  N_15
                            x       y       z     vdW  Elec       q    Type
                         _______ _______ _______ _____ _____    ______ ____

>  <TORSDO>
F 2

$$$$
=
 OpenBabel10272400563D

 25 28  0  0  1  0  0  0  0  0999 V2000
  181.9520  178.7720  139.4200 C   0  0  0  0  0  0  0  0  0  0  0  0
  182.1370  178.5950  140.9060 C   0  0  0  0  0  0  0  0  0  0  0  0
  180.3680  180.6490  139.9910 C   0  0  0  0  0  2  0  0  0  0  0  0
  182.5660  177.9430  138.4320 C   0  0  0  0  0  0  0  0  0  0  0  0
  184.1940  178.8490  142.2510 C   0  0  1  0  0  3  0  0  0  0  0  0
  179.9940  179.7910  141.1920 C   0  0  0  0  0  2  0  0  0  0  0  0
  182.3150  178.2060  137.0720 C   0  0  0  0  0  3  0  0  0  0  0  0
  181.4920  179.2540  136.6750 C   0  0  0  0  0  3  0  0  0  0  0  0
  181.2920  179.0640  143.2490 C   0  0  0  0  0  0  0  0  0  0  0  0
  180.2100  179.0530  143.8950 O   0  0  0  0  0  0  0  0  0  0  0  0
  183.3600  177.9060  141.4170 C   0  0  0  0  0  2  0  0  0  0  0  0
  181.0800  179.8010  138.9890 C   0  0  0  0  0  0  0  0  0  0  0  0
  180.8720  180.0480  137.6330 C   0  0  0  0  0  3  0  0  0  0  0  0
  182.5110  179.1920  143.9970 N   0  0  0  0  0  2  0  0  0  0  0  0
  183.8090  178.6070  143.6880 C   0  0  0  0  0  2  0  0  0  0  0  0
  181.2200  179.1230  141.7610 C   0  0  0  0  0  0  0  0  0  0  0  0
  187.6360  178.2950  140.6730 N   0  0  0  0  0  0  0  0  0  0  0  0
  188.3170  178.4180  139.3950 C   0  0  0  0  0  1  0  0  0  0  0  0
  188.3770  177.7640  141.8060 C   0  0  0  0  0  1  0  0  0  0  0  0
  185.6030  178.5420  142.0750 N   0  0  0  0  0  2  0  0  0  0  0  0
  185.6300  179.1350  139.8200 O   0  0  0  0  0  0  0  0  0  0  0  0
  186.2620  178.6770  140.8120 C   0  0  0  0  0  0  0  0  0  0  0  0
  183.4050  175.7510  137.6390 C   0  0  0  0  0  2  0  0  0  0  0  0
  182.5680  175.4300  138.8540 C   0  0  0  0  0  2  0  0  0  0  0  0
  183.3770  176.7220  138.8070 C   0  0  0  0  0  3  0  0  0  0  0  0
  1  2  1  0  0  0  0
  2 11  1  0  0  0  0
  2 16  2  0  0  0  0
  3  6  1  0  0  0  0
  4 25  1  0  0  0  0
  4  1  2  0  0  0  0
  5 20  1  1  0  0  0
  5 15  1  0  0  0  0
  6 16  1  0  0  0  0
  7  4  1  0  0  0  0
  8  7  2  0  0  0  0
  8 13  1  0  0  0  0
  9 10  2  0  0  0  0
  9 14  1  0  0  0  0
 11  5  1  0  0  0  0
 12  1  1  0  0  0  0
 12  3  1  0  0  0  0
 13 12  2  0  0  0  0
 15 14  1  0  0  0  0
 16  9  1  0  0  0  0
 17 22  1  0  0  0  0
 17 19  1  0  0  0  0
 18 17  1  0  0  0  0
 21 22  2  0  0  0  0
 22 20  1  0  0  0  0
 23 25  1  0  0  0  0
 23 24  1  0  0  0  0
 25 24  1  0  0  0  0
M  END
>  <MODEL>
9

>  <REMARK>
 VINA RESULT:      -6.7      4.035      7.276
  Name = 
  2 active torsions:
  status: ('A' for Active; 'I' for Inactive)
    1  A    between atoms: C_5  and  C_22
    2  A    between atoms: C_6  and  N_15
                            x       y       z     vdW  Elec       q    Type
                         _______ _______ _______ _____ _____    ______ ____

>  <TORSDO>
F 2

$$$$
