=
 OpenBabel10272400583D

 27 31  0  0  1  0  0  0  0  0999 V2000
  187.8380  176.6660  143.6830 C   0  0  0  0  0  2  0  0  0  0  0  0
  185.9550  178.2880  144.0520 C   0  0  0  0  0  0  0  0  0  0  0  0
  186.2440  177.7980  141.6260 O   0  0  0  0  0  0  0  0  0  0  0  0
  181.8860  179.0880  143.0500 C   0  0  0  0  0  2  0  0  0  0  0  0
  181.1230  177.5870  141.3500 O   0  0  0  0  0  1  0  0  0  0  0  0
  185.0820  178.7320  145.0720 C   0  0  0  0  0  3  0  0  0  0  0  0
  183.3770  178.3770  141.1980 C   0  0  1  0  0  3  0  0  0  0  0  0
  189.5130  178.3080  139.8280 C   0  0  0  0  0  2  0  0  0  0  0  0
  183.9020  179.4290  140.2390 C   0  0  0  0  0  1  0  0  0  0  0  0
  190.2990  177.0300  140.1080 C   0  0  0  0  0  2  0  0  0  0  0  0
  184.0990  178.4560  142.4950 C   0  0  0  0  0  0  0  0  0  0  0  0
  187.3960  177.9490  144.3860 C   0  0  1  0  0  3  0  0  0  0  0  0
  181.9230  178.7090  141.5630 C   0  0  2  0  0  3  0  0  0  0  0  0
  183.2700  178.8550  143.5100 C   0  0  0  0  0  0  0  0  0  0  0  0
  188.4430  176.9560  142.3130 C   0  0  2  0  0  3  0  0  0  0  0  0
  185.4540  178.1800  142.7210 C   0  0  0  0  0  0  0  0  0  0  0  0
  188.0310  178.0400  140.0510 C   0  0  0  0  0  2  0  0  0  0  0  0
  183.7390  179.0140  144.8080 C   0  0  0  0  0  3  0  0  0  0  0  0
  190.8000  176.9400  141.4850 N   0  0  0  0  0  2  0  0  0  0  0  0
  189.8760  177.4510  142.5040 C   0  0  0  0  0  2  0  0  0  0  0  0
  187.6490  178.0170  141.5300 C   0  0  1  0  0  3  0  0  0  0  0  0
  188.3250  177.7250  148.5830 C   0  0  0  0  0  3  0  0  0  0  0  0
  187.7010  177.8720  145.8560 C   0  0  0  0  0  0  0  0  0  0  0  0
  188.8970  177.2770  146.2730 C   0  0  0  0  0  3  0  0  0  0  0  0
  189.2080  177.2020  147.6340 C   0  0  0  0  0  3  0  0  0  0  0  0
  187.1300  178.3230  148.1740 C   0  0  0  0  0  3  0  0  0  0  0  0
  186.8180  178.3980  146.8140 C   0  0  0  0  0  3  0  0  0  0  0  0
  1 12  1  0  0  0  0
  2 12  1  0  0  0  0
  2  6  1  0  0  0  0
  3 16  1  0  0  0  0
  4 14  1  0  0  0  0
  7  9  1  6  0  0  0
  7 13  1  0  0  0  0
  7 11  1  0  0  0  0
  8 17  1  0  0  0  0
  8 10  1  0  0  0  0
 10 19  1  0  0  0  0
 11 16  1  0  0  0  0
 11 14  2  0  0  0  0
 12 23  1  1  0  0  0
 13  5  1  1  0  0  0
 13  4  1  0  0  0  0
 14 18  1  0  0  0  0
 15 20  1  1  0  0  0
 15  1  1  0  0  0  0
 16  2  2  0  0  0  0
 18  6  2  0  0  0  0
 19 20  1  0  0  0  0
 21 17  1  6  0  0  0
 21  3  1  0  0  0  0
 21 15  1  0  0  0  0
 23 24  2  0  0  0  0
 23 27  1  0  0  0  0
 24 25  1  0  0  0  0
 25 22  2  0  0  0  0
 26 22  1  0  0  0  0
 27 26  2  0  0  0  0
M  END
>  <MODEL>
1

>  <REMARK>
 VINA RESULT:     -11.3      0.000      0.000
  Name = 
  1 active torsions:
  status: ('A' for Active; 'I' for Inactive)
    1  A    between atoms: C_9  and  C_15
                            x       y       z     vdW  Elec       q    Type
                         _______ _______ _______ _____ _____    ______ ____

>  <TORSDO>
F 1

$$$$
=
 OpenBabel10272400583D

 27 31  0  0  1  0  0  0  0  0999 V2000
  187.2640  179.1690  141.7160 C   0  0  0  0  0  2  0  0  0  0  0  0
  187.3300  177.6500  143.7150 C   0  0  0  0  0  0  0  0  0  0  0  0
  189.5100  177.6280  142.5090 O   0  0  0  0  0  0  0  0  0  0  0  0
  189.6240  176.6410  147.1680 C   0  0  0  0  0  2  0  0  0  0  0  0
  191.7420  177.7530  147.1310 O   0  0  0  0  0  1  0  0  0  0  0  0
  186.6520  177.4240  144.9360 C   0  0  0  0  0  3  0  0  0  0  0  0
  190.8720  176.9610  145.0470 C   0  0  1  0  0  3  0  0  0  0  0  0
  189.7990  176.7720  138.8540 C   0  0  0  0  0  2  0  0  0  0  0  0
  191.3380  175.7340  144.2820 C   0  0  0  0  0  1  0  0  0  0  0  0
  189.4960  178.0850  138.1360 C   0  0  0  0  0  2  0  0  0  0  0  0
  189.4100  177.1550  144.8670 C   0  0  0  0  0  0  0  0  0  0  0  0
  186.5470  178.0580  142.4810 C   0  0  1  0  0  3  0  0  0  0  0  0
  191.0290  176.7040  146.5530 C   0  0  2  0  0  3  0  0  0  0  0  0
  188.7290  176.9710  146.0410 C   0  0  0  0  0  0  0  0  0  0  0  0
  188.2180  178.6050  140.6680 C   0  0  2  0  0  3  0  0  0  0  0  0
  188.7450  177.4790  143.6760 C   0  0  0  0  0  0  0  0  0  0  0  0
  190.2110  177.0740  140.2890 C   0  0  0  0  0  2  0  0  0  0  0  0
  187.3450  177.0860  146.1010 C   0  0  0  0  0  3  0  0  0  0  0  0
  188.0770  178.4610  138.1770 N   0  0  0  0  0  2  0  0  0  0  0  0
  187.4060  178.1680  139.4500 C   0  0  0  0  0  2  0  0  0  0  0  0
  189.0220  177.4010  141.1910 C   0  0  1  0  0  3  0  0  0  0  0  0
  182.4320  179.1100  143.1840 C   0  0  0  0  0  3  0  0  0  0  0  0
  185.1160  178.4400  142.7400 C   0  0  0  0  0  0  0  0  0  0  0  0
  184.1490  178.1530  141.7700 C   0  0  0  0  0  3  0  0  0  0  0  0
  182.8100  178.4880  141.9910 C   0  0  0  0  0  3  0  0  0  0  0  0
  183.3930  179.3970  144.1590 C   0  0  0  0  0  3  0  0  0  0  0  0
  184.7310  179.0630  143.9390 C   0  0  0  0  0  3  0  0  0  0  0  0
  1 12  1  0  0  0  0
  2  6  1  0  0  0  0
  3 16  1  0  0  0  0
  6 18  2  0  0  0  0
  7  9  1  6  0  0  0
  7 13  1  0  0  0  0
  8 17  1  0  0  0  0
 10 19  1  0  0  0  0
 10  8  1  0  0  0  0
 11  7  1  0  0  0  0
 11 14  2  0  0  0  0
 12 23  1  1  0  0  0
 12  2  1  0  0  0  0
 13  5  1  1  0  0  0
 13  4  1  0  0  0  0
 14 18  1  0  0  0  0
 14  4  1  0  0  0  0
 15 20  1  6  0  0  0
 15 21  1  0  0  0  0
 15  1  1  0  0  0  0
 16  2  2  0  0  0  0
 16 11  1  0  0  0  0
 19 20  1  0  0  0  0
 21 17  1  6  0  0  0
 21  3  1  0  0  0  0
 22 26  1  0  0  0  0
 23 27  1  0  0  0  0
 24 25  1  0  0  0  0
 24 23  2  0  0  0  0
 25 22  2  0  0  0  0
 27 26  2  0  0  0  0
M  END
>  <MODEL>
2

>  <REMARK>
 VINA RESULT:     -11.1      2.288      5.907
  Name = 
  1 active torsions:
  status: ('A' for Active; 'I' for Inactive)
    1  A    between atoms: C_9  and  C_15
                            x       y       z     vdW  Elec       q    Type
                         _______ _______ _______ _____ _____    ______ ____

>  <TORSDO>
F 1

$$$$
=
 OpenBabel10272400583D

 27 31  0  0  1  0  0  0  0  0999 V2000
  187.4040  176.6540  144.1950 C   0  0  0  0  0  2  0  0  0  0  0  0
  187.7510  177.9170  142.0510 C   0  0  0  0  0  0  0  0  0  0  0  0
  189.8710  176.8490  142.8080 O   0  0  0  0  0  0  0  0  0  0  0  0
  189.3990  177.6040  138.1290 C   0  0  0  0  0  2  0  0  0  0  0  0
  190.6490  175.5780  137.8950 O   0  0  0  0  0  1  0  0  0  0  0  0
  187.0140  178.4430  140.9640 C   0  0  0  0  0  3  0  0  0  0  0  0
  190.7730  176.7190  139.9950 C   0  0  1  0  0  3  0  0  0  0  0  0
  191.3570  177.4750  146.2100 C   0  0  0  0  0  2  0  0  0  0  0  0
  191.9370  177.5510  140.5030 C   0  0  0  0  0  1  0  0  0  0  0  0
  190.6220  176.5000  147.1260 C   0  0  0  0  0  2  0  0  0  0  0  0
  189.4860  177.2880  140.4730 C   0  0  0  0  0  0  0  0  0  0  0  0
  187.1690  177.9690  143.4520 C   0  0  1  0  0  3  0  0  0  0  0  0
  190.6910  176.8490  138.4670 C   0  0  2  0  0  3  0  0  0  0  0  0
  188.7370  177.7800  139.4370 C   0  0  0  0  0  0  0  0  0  0  0  0
  188.7200  176.6710  144.9660 C   0  0  2  0  0  3  0  0  0  0  0  0
  189.0360  177.3530  141.7990 C   0  0  0  0  0  0  0  0  0  0  0  0
  191.2330  176.9950  144.7700 C   0  0  0  0  0  2  0  0  0  0  0  0
  187.5010  178.3760  139.6560 C   0  0  0  0  0  3  0  0  0  0  0  0
  189.2330  176.8890  147.4020 N   0  0  0  0  0  2  0  0  0  0  0  0
  188.5240  177.4680  146.2550 C   0  0  0  0  0  2  0  0  0  0  0  0
  189.8680  177.3020  144.1580 C   0  0  1  0  0  3  0  0  0  0  0  0
  183.0270  179.1170  143.6870 C   0  0  0  0  0  3  0  0  0  0  0  0
  185.7180  178.3570  143.5190 C   0  0  0  0  0  0  0  0  0  0  0  0
  185.2090  178.8830  144.7110 C   0  0  0  0  0  3  0  0  0  0  0  0
  183.8660  179.2610  144.7960 C   0  0  0  0  0  3  0  0  0  0  0  0
  183.5300  178.5940  142.4910 C   0  0  0  0  0  3  0  0  0  0  0  0
  184.8730  178.2160  142.4060 C   0  0  0  0  0  3  0  0  0  0  0  0
  2 12  1  0  0  0  0
  3 21  1  0  0  0  0
  4 13  1  0  0  0  0
  4 14  1  0  0  0  0
  6  2  2  0  0  0  0
  7 11  1  0  0  0  0
  7  9  1  1  0  0  0
  8 10  1  0  0  0  0
 10 19  1  0  0  0  0
 11 16  2  0  0  0  0
 12 23  1  6  0  0  0
 12  1  1  0  0  0  0
 13  5  1  6  0  0  0
 13  7  1  0  0  0  0
 14 18  2  0  0  0  0
 14 11  1  0  0  0  0
 15  1  1  6  0  0  0
 15 20  1  0  0  0  0
 16  2  1  0  0  0  0
 16  3  1  0  0  0  0
 17  8  1  0  0  0  0
 18  6  1  0  0  0  0
 20 19  1  0  0  0  0
 21 17  1  1  0  0  0
 21 15  1  0  0  0  0
 22 25  1  0  0  0  0
 23 24  1  0  0  0  0
 24 25  2  0  0  0  0
 26 22  2  0  0  0  0
 27 26  1  0  0  0  0
 27 23  2  0  0  0  0
M  END
>  <MODEL>
3

>  <REMARK>
 VINA RESULT:     -10.8      2.521      6.030
  Name = 
  1 active torsions:
  status: ('A' for Active; 'I' for Inactive)
    1  A    between atoms: C_9  and  C_15
                            x       y       z     vdW  Elec       q    Type
                         _______ _______ _______ _____ _____    ______ ____

>  <TORSDO>
F 1

$$$$
=
 OpenBabel10272400583D

 27 31  0  0  1  0  0  0  0  0999 V2000
  189.1000  176.1640  143.1740 C   0  0  0  0  0  2  0  0  0  0  0  0
  187.7520  177.8040  144.5170 C   0  0  0  0  0  0  0  0  0  0  0  0
  186.9620  177.7270  142.1550 O   0  0  0  0  0  0  0  0  0  0  0  0
  183.7640  179.0010  145.4470 C   0  0  0  0  0  2  0  0  0  0  0  0
  182.1920  177.8660  144.0470 O   0  0  0  0  0  1  0  0  0  0  0  0
  187.4350  178.1130  145.8600 C   0  0  0  0  0  3  0  0  0  0  0  0
  184.2670  178.5370  143.0620 C   0  0  1  0  0  3  0  0  0  0  0  0
  189.2490  178.3500  139.2290 C   0  0  0  0  0  2  0  0  0  0  0  0
  184.4830  179.7080  142.1200 C   0  0  0  0  0  1  0  0  0  0  0  0
  189.9120  176.9990  138.9770 C   0  0  0  0  0  2  0  0  0  0  0  0
  185.4590  178.3470  143.9300 C   0  0  0  0  0  0  0  0  0  0  0  0
  189.1490  177.3280  144.1620 C   0  0  1  0  0  3  0  0  0  0  0  0
  183.1430  178.8850  144.0480 C   0  0  2  0  0  3  0  0  0  0  0  0
  185.1740  178.6120  145.2430 C   0  0  0  0  0  0  0  0  0  0  0  0
  189.1250  176.6510  141.7290 C   0  0  2  0  0  3  0  0  0  0  0  0
  186.7430  177.9570  143.5220 C   0  0  0  0  0  0  0  0  0  0  0  0
  187.9660  178.1330  140.0200 C   0  0  0  0  0  2  0  0  0  0  0  0
  186.1480  178.5160  146.2290 C   0  0  0  0  0  3  0  0  0  0  0  0
  190.9160  176.6410  139.9880 N   0  0  0  0  0  2  0  0  0  0  0  0
  190.5610  177.0200  141.3600 C   0  0  0  0  0  2  0  0  0  0  0  0
  188.2200  177.8760  141.5050 C   0  0  1  0  0  3  0  0  0  0  0  0
  191.6740  176.3250  147.5010 C   0  0  0  0  0  3  0  0  0  0  0  0
  190.0150  176.9790  145.3410 C   0  0  0  0  0  0  0  0  0  0  0  0
  191.2010  176.2680  145.1270 C   0  0  0  0  0  3  0  0  0  0  0  0
  192.0280  175.9400  146.2050 C   0  0  0  0  0  3  0  0  0  0  0  0
  190.4910  177.0380  147.7220 C   0  0  0  0  0  3  0  0  0  0  0  0
  189.6640  177.3660  146.6450 C   0  0  0  0  0  3  0  0  0  0  0  0
  1 12  1  0  0  0  0
  2  6  1  0  0  0  0
  3 16  1  0  0  0  0
  6 18  2  0  0  0  0
  7  9  1  6  0  0  0
  7 11  1  0  0  0  0
  7 13  1  0  0  0  0
  8 17  1  0  0  0  0
 10  8  1  0  0  0  0
 10 19  1  0  0  0  0
 11 14  2  0  0  0  0
 12  2  1  0  0  0  0
 12 23  1  1  0  0  0
 13  5  1  1  0  0  0
 13  4  1  0  0  0  0
 14  4  1  0  0  0  0
 14 18  1  0  0  0  0
 15 20  1  1  0  0  0
 15  1  1  0  0  0  0
 16 11  1  0  0  0  0
 16  2  2  0  0  0  0
 19 20  1  0  0  0  0
 21 17  1  6  0  0  0
 21 15  1  0  0  0  0
 21  3  1  0  0  0  0
 22 26  1  0  0  0  0
 23 27  1  0  0  0  0
 24 23  2  0  0  0  0
 24 25  1  0  0  0  0
 25 22  2  0  0  0  0
 27 26  2  0  0  0  0
M  END
>  <MODEL>
4

>  <REMARK>
 VINA RESULT:     -10.6      1.448      2.286
  Name = 
  1 active torsions:
  status: ('A' for Active; 'I' for Inactive)
    1  A    between atoms: C_9  and  C_15
                            x       y       z     vdW  Elec       q    Type
                         _______ _______ _______ _____ _____    ______ ____

>  <TORSDO>
F 1

$$$$
=
 OpenBabel10272400583D

 27 31  0  0  1  0  0  0  0  0999 V2000
  184.9200  179.5240  143.5940 C   0  0  0  0  0  2  0  0  0  0  0  0
  186.7270  178.1180  142.5620 C   0  0  0  0  0  0  0  0  0  0  0  0
  185.0350  178.7820  140.8580 O   0  0  0  0  0  0  0  0  0  0  0  0
  189.4440  177.9120  139.2790 C   0  0  0  0  0  2  0  0  0  0  0  0
  188.9820  179.6390  137.6890 O   0  0  0  0  0  1  0  0  0  0  0  0
  188.0550  177.6950  142.8080 C   0  0  0  0  0  3  0  0  0  0  0  0
  187.1150  178.5980  138.7650 C   0  0  1  0  0  3  0  0  0  0  0  0
  181.3640  178.0390  141.2460 C   0  0  0  0  0  2  0  0  0  0  0  0
  186.1720  177.5780  138.1510 C   0  0  0  0  0  1  0  0  0  0  0  0
  180.8390  179.1820  142.1100 C   0  0  0  0  0  2  0  0  0  0  0  0
  187.3060  178.3160  140.2120 C   0  0  0  0  0  0  0  0  0  0  0  0
  185.7510  178.2480  143.7170 C   0  0  1  0  0  3  0  0  0  0  0  0
  188.5160  178.4130  138.1640 C   0  0  2  0  0  3  0  0  0  0  0  0
  188.5930  177.9330  140.4850 C   0  0  0  0  0  0  0  0  0  0  0  0
  183.6350  179.2850  142.8080 C   0  0  2  0  0  3  0  0  0  0  0  0
  186.3370  178.4040  141.2210 C   0  0  0  0  0  0  0  0  0  0  0  0
  182.6760  178.4650  140.6020 C   0  0  0  0  0  2  0  0  0  0  0  0
  188.9920  177.6030  141.7750 C   0  0  0  0  0  3  0  0  0  0  0  0
  181.2480  179.0880  143.5180 N   0  0  0  0  0  2  0  0  0  0  0  0
  182.6180  178.6050  143.7230 C   0  0  0  0  0  2  0  0  0  0  0  0
  183.8590  178.4030  141.5670 C   0  0  1  0  0  3  0  0  0  0  0  0
  187.4820  178.0010  147.6500 C   0  0  0  0  0  3  0  0  0  0  0  0
  186.3730  178.1560  145.0820 C   0  0  0  0  0  0  0  0  0  0  0  0
  185.7960  178.8650  146.1420 C   0  0  0  0  0  3  0  0  0  0  0  0
  186.3490  178.7880  147.4230 C   0  0  0  0  0  3  0  0  0  0  0  0
  188.0620  177.2880  146.5960 C   0  0  0  0  0  3  0  0  0  0  0  0
  187.5090  177.3640  145.3150 C   0  0  0  0  0  3  0  0  0  0  0  0
  1 12  1  0  0  0  0
  2  6  1  0  0  0  0
  2 12  1  0  0  0  0
  3 16  1  0  0  0  0
  3 21  1  0  0  0  0
  4 14  1  0  0  0  0
  7  9  1  6  0  0  0
  7 11  1  0  0  0  0
  8 10  1  0  0  0  0
 10 19  1  0  0  0  0
 11 14  2  0  0  0  0
 11 16  1  0  0  0  0
 12 23  1  1  0  0  0
 13  5  1  1  0  0  0
 13  7  1  0  0  0  0
 13  4  1  0  0  0  0
 14 18  1  0  0  0  0
 15  1  1  1  0  0  0
 15 20  1  0  0  0  0
 16  2  2  0  0  0  0
 17  8  1  0  0  0  0
 18  6  2  0  0  0  0
 19 20  1  0  0  0  0
 21 17  1  6  0  0  0
 21 15  1  0  0  0  0
 23 27  2  0  0  0  0
 23 24  1  0  0  0  0
 24 25  2  0  0  0  0
 25 22  1  0  0  0  0
 26 22  2  0  0  0  0
 27 26  1  0  0  0  0
M  END
>  <MODEL>
5

>  <REMARK>
 VINA RESULT:     -10.2      2.465      5.465
  Name = 
  1 active torsions:
  status: ('A' for Active; 'I' for Inactive)
    1  A    between atoms: C_9  and  C_15
                            x       y       z     vdW  Elec       q    Type
                         _______ _______ _______ _____ _____    ______ ____

>  <TORSDO>
F 1

$$$$
=
 OpenBabel10272400583D

 27 31  0  0  1  0  0  0  0  0999 V2000
  187.4060  176.9130  143.5320 C   0  0  0  0  0  2  0  0  0  0  0  0
  186.6610  178.2940  141.5710 C   0  0  0  0  0  0  0  0  0  0  0  0
  188.9720  177.4290  141.2230 O   0  0  0  0  0  0  0  0  0  0  0  0
  186.4050  178.3270  137.3130 C   0  0  0  0  0  2  0  0  0  0  0  0
  187.5720  176.4570  136.3810 O   0  0  0  0  0  1  0  0  0  0  0  0
  185.4790  178.7840  140.9680 C   0  0  0  0  0  3  0  0  0  0  0  0
  188.5320  177.5150  138.3010 C   0  0  1  0  0  3  0  0  0  0  0  0
  191.7670  178.0660  143.6650 C   0  0  0  0  0  2  0  0  0  0  0  0
  189.7320  178.4450  138.3150 C   0  0  0  0  0  1  0  0  0  0  0  0
  191.5950  176.9800  144.7230 C   0  0  0  0  0  2  0  0  0  0  0  0
  187.5530  177.9230  139.3430 C   0  0  0  0  0  0  0  0  0  0  0  0
  186.7640  178.2250  143.0840 C   0  0  1  0  0  3  0  0  0  0  0  0
  187.7670  177.7000  136.9820 C   0  0  2  0  0  3  0  0  0  0  0  0
  186.3850  178.3750  138.7880 C   0  0  0  0  0  0  0  0  0  0  0  0
  188.9220  177.0380  143.6440 C   0  0  2  0  0  3  0  0  0  0  0  0
  187.7380  177.8830  140.7320 C   0  0  0  0  0  0  0  0  0  0  0  0
  191.0510  177.6360  142.3910 C   0  0  0  0  0  2  0  0  0  0  0  0
  185.3350  178.8250  139.5790 C   0  0  0  0  0  3  0  0  0  0  0  0
  190.4490  177.2050  145.6140 N   0  0  0  0  0  2  0  0  0  0  0  0
  189.2610  177.7540  144.9510 C   0  0  0  0  0  2  0  0  0  0  0  0
  189.5360  177.8220  142.4710 C   0  0  1  0  0  3  0  0  0  0  0  0
  183.0890  178.8990  145.2210 C   0  0  0  0  0  3  0  0  0  0  0  0
  185.4700  178.4520  143.8150 C   0  0  0  0  0  0  0  0  0  0  0  0
  185.4870  178.5670  145.2090 C   0  0  0  0  0  3  0  0  0  0  0  0
  184.2990  178.7880  145.9110 C   0  0  0  0  0  3  0  0  0  0  0  0
  183.0650  178.7880  143.8270 C   0  0  0  0  0  3  0  0  0  0  0  0
  184.2520  178.5670  143.1250 C   0  0  0  0  0  3  0  0  0  0  0  0
  2 12  1  0  0  0  0
  3 21  1  0  0  0  0
  4 14  1  0  0  0  0
  6  2  1  0  0  0  0
  7  9  1  6  0  0  0
  7 11  1  0  0  0  0
  8 10  1  0  0  0  0
 10 19  1  0  0  0  0
 11 16  1  0  0  0  0
 12  1  1  0  0  0  0
 12 23  1  1  0  0  0
 13  5  1  1  0  0  0
 13  4  1  0  0  0  0
 13  7  1  0  0  0  0
 14 11  2  0  0  0  0
 14 18  1  0  0  0  0
 15  1  1  6  0  0  0
 15 20  1  0  0  0  0
 16  3  1  0  0  0  0
 16  2  2  0  0  0  0
 17  8  1  0  0  0  0
 18  6  2  0  0  0  0
 20 19  1  0  0  0  0
 21 17  1  6  0  0  0
 21 15  1  0  0  0  0
 22 25  1  0  0  0  0
 23 24  1  0  0  0  0
 24 25  2  0  0  0  0
 26 22  2  0  0  0  0
 27 23  2  0  0  0  0
 27 26  1  0  0  0  0
M  END
>  <MODEL>
6

>  <REMARK>
 VINA RESULT:      -9.9      2.448      4.779
  Name = 
  1 active torsions:
  status: ('A' for Active; 'I' for Inactive)
    1  A    between atoms: C_9  and  C_15
                            x       y       z     vdW  Elec       q    Type
                         _______ _______ _______ _____ _____    ______ ____

>  <TORSDO>
F 1

$$$$
=
 OpenBabel10272400583D

 27 31  0  0  1  0  0  0  0  0999 V2000
  187.1560  176.9560  142.4110 C   0  0  0  0  0  2  0  0  0  0  0  0
  189.3870  177.5600  143.3950 C   0  0  0  0  0  0  0  0  0  0  0  0
  187.6400  177.4230  145.1670 O   0  0  0  0  0  0  0  0  0  0  0  0
  192.1310  176.5700  146.5080 C   0  0  0  0  0  2  0  0  0  0  0  0
  191.1500  175.0140  148.0370 O   0  0  0  0  0  1  0  0  0  0  0  0
  190.7660  177.5030  143.0870 C   0  0  0  0  0  3  0  0  0  0  0  0
  189.7340  176.7180  147.1320 C   0  0  1  0  0  3  0  0  0  0  0  0
  184.4630  179.4390  145.0460 C   0  0  0  0  0  2  0  0  0  0  0  0
  189.2430  177.9610  147.8530 C   0  0  0  0  0  1  0  0  0  0  0  0
  183.5300  178.6160  144.1620 C   0  0  0  0  0  2  0  0  0  0  0  0
  189.9530  177.0110  145.6920 C   0  0  0  0  0  0  0  0  0  0  0  0
  188.3810  177.8620  142.2990 C   0  0  1  0  0  3  0  0  0  0  0  0
  191.1320  176.3540  147.6530 C   0  0  2  0  0  3  0  0  0  0  0  0
  191.2790  176.9340  145.3580 C   0  0  0  0  0  0  0  0  0  0  0  0
  186.0740  177.5800  143.2870 C   0  0  2  0  0  3  0  0  0  0  0  0
  188.9760  177.3400  144.7420 C   0  0  0  0  0  0  0  0  0  0  0  0
  185.5620  178.5340  145.5860 C   0  0  0  0  0  2  0  0  0  0  0  0
  191.7160  177.1880  144.0630 C   0  0  0  0  0  3  0  0  0  0  0  0
  183.8870  178.6550  142.7380 N   0  0  0  0  0  2  0  0  0  0  0  0
  185.3300  178.6350  142.4710 C   0  0  0  0  0  2  0  0  0  0  0  0
  186.6490  178.2390  144.5530 C   0  0  1  0  0  3  0  0  0  0  0  0
  189.9920  177.6870  138.3110 C   0  0  0  0  0  3  0  0  0  0  0  0
  188.9390  177.8200  140.9030 C   0  0  0  0  0  0  0  0  0  0  0  0
  189.9030  176.8580  140.5840 C   0  0  0  0  0  3  0  0  0  0  0  0
  190.4300  176.7920  139.2910 C   0  0  0  0  0  3  0  0  0  0  0  0
  189.0270  178.6490  138.6220 C   0  0  0  0  0  3  0  0  0  0  0  0
  188.5000  178.7160  139.9140 C   0  0  0  0  0  3  0  0  0  0  0  0
  2 16  1  0  0  0  0
  4 13  1  0  0  0  0
  6  2  2  0  0  0  0
  6 18  1  0  0  0  0
  7 13  1  0  0  0  0
  7  9  1  1  0  0  0
  8 17  1  0  0  0  0
 10  8  1  0  0  0  0
 11  7  1  0  0  0  0
 12 23  1  6  0  0  0
 12  1  1  0  0  0  0
 12  2  1  0  0  0  0
 13  5  1  6  0  0  0
 14 11  1  0  0  0  0
 14  4  1  0  0  0  0
 15  1  1  6  0  0  0
 15 21  1  0  0  0  0
 16  3  1  0  0  0  0
 16 11  2  0  0  0  0
 18 14  2  0  0  0  0
 19 10  1  0  0  0  0
 20 19  1  0  0  0  0
 20 15  1  0  0  0  0
 21  3  1  0  0  0  0
 21 17  1  1  0  0  0
 22 26  2  0  0  0  0
 22 25  1  0  0  0  0
 24 23  1  0  0  0  0
 25 24  2  0  0  0  0
 26 27  1  0  0  0  0
 27 23  2  0  0  0  0
M  END
>  <MODEL>
7

>  <REMARK>
 VINA RESULT:      -9.8      2.646      7.396
  Name = 
  1 active torsions:
  status: ('A' for Active; 'I' for Inactive)
    1  A    between atoms: C_9  and  C_15
                            x       y       z     vdW  Elec       q    Type
                         _______ _______ _______ _____ _____    ______ ____

>  <TORSDO>
F 1

$$$$
=
 OpenBabel10272400583D

 27 31  0  0  1  0  0  0  0  0999 V2000
  186.6190  179.1730  140.4560 C   0  0  0  0  0  2  0  0  0  0  0  0
  185.1450  178.2930  142.2900 C   0  0  0  0  0  0  0  0  0  0  0  0
  187.5400  178.2480  142.9750 O   0  0  0  0  0  0  0  0  0  0  0  0
  184.3160  178.6170  146.4620 C   0  0  0  0  0  2  0  0  0  0  0  0
  185.9660  179.9640  147.5500 O   0  0  0  0  0  1  0  0  0  0  0  0
  183.7950  178.3200  142.7110 C   0  0  0  0  0  3  0  0  0  0  0  0
  186.7040  178.5100  145.7990 C   0  0  1  0  0  3  0  0  0  0  0  0
  190.1880  176.4630  140.9810 C   0  0  0  0  0  2  0  0  0  0  0  0
  187.4510  177.1990  145.9690 C   0  0  0  0  0  1  0  0  0  0  0  0
  190.5890  177.4680  139.9050 C   0  0  0  0  0  2  0  0  0  0  0  0
  185.7970  178.4370  144.6240 C   0  0  0  0  0  0  0  0  0  0  0  0
  185.4720  178.2280  140.8090 C   0  0  1  0  0  3  0  0  0  0  0  0
  185.7540  178.7050  146.9890 C   0  0  2  0  0  3  0  0  0  0  0  0
  184.4810  178.4910  145.0000 C   0  0  0  0  0  0  0  0  0  0  0  0
  187.9740  178.4820  140.5730 C   0  0  2  0  0  3  0  0  0  0  0  0
  186.1710  178.3200  143.2780 C   0  0  0  0  0  0  0  0  0  0  0  0
  189.5230  177.2060  142.1320 C   0  0  0  0  0  2  0  0  0  0  0  0
  183.4570  178.4200  144.0630 C   0  0  0  0  0  3  0  0  0  0  0  0
  189.5770  177.6350  138.8530 N   0  0  0  0  0  2  0  0  0  0  0  0
  188.1900  177.6140  139.3340 C   0  0  0  0  0  2  0  0  0  0  0  0
  188.0780  177.5980  141.8280 C   0  0  1  0  0  3  0  0  0  0  0  0
  182.1440  178.9400  138.1730 C   0  0  0  0  0  3  0  0  0  0  0  0
  184.3020  178.4580  139.8930 C   0  0  0  0  0  0  0  0  0  0  0  0
  183.9600  179.7690  139.5430 C   0  0  0  0  0  3  0  0  0  0  0  0
  182.8830  180.0100  138.6850 C   0  0  0  0  0  3  0  0  0  0  0  0
  182.4810  177.6280  138.5180 C   0  0  0  0  0  3  0  0  0  0  0  0
  183.5580  177.3860  139.3750 C   0  0  0  0  0  3  0  0  0  0  0  0
  1 15  1  0  0  0  0
  1 12  1  0  0  0  0
  2  6  2  0  0  0  0
  2 16  1  0  0  0  0
  3 16  1  0  0  0  0
  4 13  1  0  0  0  0
  6 18  1  0  0  0  0
  7  9  1  1  0  0  0
  7 13  1  0  0  0  0
  8 17  1  0  0  0  0
 10  8  1  0  0  0  0
 11 14  1  0  0  0  0
 11  7  1  0  0  0  0
 12 23  1  6  0  0  0
 12  2  1  0  0  0  0
 13  5  1  6  0  0  0
 14  4  1  0  0  0  0
 15 20  1  6  0  0  0
 15 21  1  0  0  0  0
 16 11  2  0  0  0  0
 18 14  2  0  0  0  0
 19 20  1  0  0  0  0
 19 10  1  0  0  0  0
 21 17  1  1  0  0  0
 21  3  1  0  0  0  0
 22 26  2  0  0  0  0
 22 25  1  0  0  0  0
 24 23  1  0  0  0  0
 25 24  2  0  0  0  0
 26 27  1  0  0  0  0
 27 23  2  0  0  0  0
M  END
>  <MODEL>
8

>  <REMARK>
 VINA RESULT:      -9.0      1.961      5.764
  Name = 
  1 active torsions:
  status: ('A' for Active; 'I' for Inactive)
    1  A    between atoms: C_9  and  C_15
                            x       y       z     vdW  Elec       q    Type
                         _______ _______ _______ _____ _____    ______ ____

>  <TORSDO>
F 1

$$$$
=
 OpenBabel10272400583D

 27 31  0  0  1  0  0  0  0  0999 V2000
  187.6200  178.8760  144.3580 C   0  0  0  0  0  2  0  0  0  0  0  0
  188.6490  177.4750  142.5440 C   0  0  0  0  0  0  0  0  0  0  0  0
  186.5760  178.5960  141.7350 O   0  0  0  0  0  0  0  0  0  0  0  0
  189.8600  177.5290  138.4540 C   0  0  0  0  0  2  0  0  0  0  0  0
  189.1280  179.5390  137.3820 O   0  0  0  0  0  1  0  0  0  0  0  0
  189.8820  176.8750  142.1960 C   0  0  0  0  0  3  0  0  0  0  0  0
  187.6570  178.5410  138.9840 C   0  0  1  0  0  3  0  0  0  0  0  0
  183.2510  178.2020  143.4570 C   0  0  0  0  0  2  0  0  0  0  0  0
  186.3980  177.7470  138.6820 C   0  0  0  0  0  1  0  0  0  0  0  0
  183.2860  179.2340  144.5810 C   0  0  0  0  0  2  0  0  0  0  0  0
  188.3280  178.0010  140.1950 C   0  0  0  0  0  0  0  0  0  0  0  0
  188.2130  177.5150  143.9980 C   0  0  1  0  0  3  0  0  0  0  0  0
  188.6780  178.3090  137.8610 C   0  0  2  0  0  3  0  0  0  0  0  0
  189.5400  177.4400  139.8920 C   0  0  0  0  0  0  0  0  0  0  0  0
  186.1140  178.9140  144.1220 C   0  0  2  0  0  3  0  0  0  0  0  0
  187.8370  178.0230  141.5080 C   0  0  0  0  0  0  0  0  0  0  0  0
  184.2760  178.5850  142.3980 C   0  0  0  0  0  2  0  0  0  0  0  0
  190.3330  176.8570  140.8740 C   0  0  0  0  0  3  0  0  0  0  0  0
  184.1710  178.8610  145.6920 N   0  0  0  0  0  2  0  0  0  0  0  0
  185.4180  178.2040  145.2830 C   0  0  0  0  0  2  0  0  0  0  0  0
  185.7070  178.2340  142.8040 C   0  0  1  0  0  3  0  0  0  0  0  0
  191.2210  176.3910  146.8650 C   0  0  0  0  0  3  0  0  0  0  0  0
  189.2780  177.1280  144.9860 C   0  0  0  0  0  0  0  0  0  0  0  0
  188.9570  177.0770  146.3470 C   0  0  0  0  0  3  0  0  0  0  0  0
  189.9260  176.7110  147.2850 C   0  0  0  0  0  3  0  0  0  0  0  0
  191.5470  176.4380  145.5070 C   0  0  0  0  0  3  0  0  0  0  0  0
  190.5790  176.8040  144.5680 C   0  0  0  0  0  3  0  0  0  0  0  0
  2 12  1  0  0  0  0
  3 21  1  0  0  0  0
  4 14  1  0  0  0  0
  6  2  1  0  0  0  0
  7  9  1  6  0  0  0
  7 11  1  0  0  0  0
  8 10  1  0  0  0  0
 10 19  1  0  0  0  0
 11 16  1  0  0  0  0
 12  1  1  0  0  0  0
 12 23  1  1  0  0  0
 13  5  1  1  0  0  0
 13  4  1  0  0  0  0
 13  7  1  0  0  0  0
 14 11  2  0  0  0  0
 14 18  1  0  0  0  0
 15  1  1  1  0  0  0
 15 20  1  0  0  0  0
 16  3  1  0  0  0  0
 16  2  2  0  0  0  0
 17  8  1  0  0  0  0
 18  6  2  0  0  0  0
 20 19  1  0  0  0  0
 21 17  1  6  0  0  0
 21 15  1  0  0  0  0
 22 25  1  0  0  0  0
 23 24  1  0  0  0  0
 24 25  2  0  0  0  0
 26 22  2  0  0  0  0
 27 23  2  0  0  0  0
 27 26  1  0  0  0  0
M  END
>  <MODEL>
9

>  <REMARK>
 VINA RESULT:      -8.9      2.280      5.420
  Name = 
  1 active torsions:
  status: ('A' for Active; 'I' for Inactive)
    1  A    between atoms: C_9  and  C_15
                            x       y       z     vdW  Elec       q    Type
                         _______ _______ _______ _____ _____    ______ ____

>  <TORSDO>
F 1

$$$$
