=
 OpenBabel10272413303D

 32 36  0  0  1  0  0  0  0  0999 V2000
  189.7230  177.6750  137.4290 C   0  0  1  0  0  3  0  0  0  0  0  0
  188.4120  177.0040  142.4020 C   0  0  0  0  0  0  0  0  0  0  0  0
  184.3010  179.5750  142.8260 C   0  0  0  0  0  3  0  0  0  0  0  0
  184.2080  179.2020  144.1680 C   0  0  0  0  0  3  0  0  0  0  0  0
  189.9010  177.3420  140.3990 C   0  0  2  0  0  3  0  0  0  0  0  0
  187.5850  178.2280  140.4030 C   0  0  0  0  0  3  0  0  0  0  0  0
  188.8250  178.5240  138.3340 C   0  0  0  0  0  2  0  0  0  0  0  0
  185.3660  179.1210  142.0460 C   0  0  0  0  0  3  0  0  0  0  0  0
  187.4350  177.8310  141.8190 C   0  0  0  0  0  0  0  0  0  0  0  0
  186.3520  178.2870  142.5970 C   0  0  0  0  0  0  0  0  0  0  0  0
  187.2440  177.0770  144.5270 C   0  0  0  0  0  0  0  0  0  0  0  0
  191.0290  177.3130  138.1380 C   0  0  0  0  0  2  0  0  0  0  0  0
  188.6900  177.9440  139.7100 C   0  0  0  0  0  0  0  0  0  0  0  0
  190.7540  176.5350  139.4240 C   0  0  0  0  0  2  0  0  0  0  0  0
  185.1800  178.3740  144.7330 C   0  0  0  0  0  3  0  0  0  0  0  0
  186.2580  177.9090  143.9630 C   0  0  0  0  0  0  0  0  0  0  0  0
  189.5120  176.4250  141.5640 C   0  0  0  0  0  2  0  0  0  0  0  0
  188.3060  176.6260  143.7400 C   0  0  0  0  0  3  0  0  0  0  0  0
  189.0040  176.4270  136.9310 C   0  0  0  0  0  2  0  0  0  0  0  0
  187.6970  176.8010  136.2530 C   0  0  0  0  0  2  0  0  0  0  0  0
  186.5560  176.2090  137.0000 C   0  0  0  0  0  0  0  0  0  0  0  0
  185.6610  176.9540  137.4770 O   0  0  0  0  0  1  0  0  0  0  0  0
  186.4960  174.8360  137.2040 O   0  0  0  0  0  0  0  0  0  0  0  0
  187.2130  176.6770  145.9700 C   0  0  0  0  0  2  0  0  0  0  0  0
  189.5140  176.9550  147.1120 C   0  0  1  0  0  3  0  0  0  0  0  0
  187.8270  178.3370  147.7700 C   0  0  0  0  0  0  0  0  0  0  0  0
  188.9100  178.4610  148.7120 C   0  0  0  0  0  3  0  0  0  0  0  0
  189.8730  177.6830  148.3360 N   0  0  0  0  0  0  0  0  0  0  0  0
  186.7110  178.9120  147.8570 O   0  0  0  0  0  0  0  0  0  0  0  0
  188.1880  177.4450  146.7350 N   0  0  0  0  0  0  0  0  0  0  0  0
  190.5400  177.2070  146.0070 C   0  0  0  0  0  2  0  0  0  0  0  0
  191.7960  176.3660  146.1810 C   0  0  0  0  0  1  0  0  0  0  0  0
  1 19  1  1  0  0  0
  1 12  1  0  0  0  0
  1  7  1  0  0  0  0
  2 18  1  0  0  0  0
  3  4  1  0  0  0  0
  4 15  2  0  0  0  0
  5 14  1  6  0  0  0
  5 17  1  0  0  0  0
  6  9  1  0  0  0  0
  7 13  1  0  0  0  0
  8 10  1  0  0  0  0
  8  3  2  0  0  0  0
  9  2  2  0  0  0  0
  9 10  1  0  0  0  0
 10 16  2  0  0  0  0
 11 24  1  0  0  0  0
 12 14  1  0  0  0  0
 13  5  1  0  0  0  0
 13  6  2  0  0  0  0
 16 11  1  0  0  0  0
 16 15  1  0  0  0  0
 17  2  1  0  0  0  0
 18 11  2  0  0  0  0
 20 19  1  0  0  0  0
 20 21  1  0  0  0  0
 21 23  2  0  0  0  0
 21 22  1  0  0  0  0
 24 30  1  0  0  0  0
 25 31  1  6  0  0  0
 25 28  1  0  0  0  0
 26 29  2  0  0  0  0
 26 27  1  0  0  0  0
 28 27  2  0  0  0  0
 30 25  1  0  0  0  0
 30 26  1  0  0  0  0
 31 32  1  0  0  0  0
M  END
>  <MODEL>
1

>  <REMARK>
 VINA RESULT:      -8.5      0.000      0.000
  Name = 
  6 active torsions:
  status: ('A' for Active; 'I' for Inactive)
    1  A    between atoms: C_1  and  C_10
    2  A    between atoms: C_2  and  C_24
    3  A    between atoms: C_6  and  C_7
    4  A    between atoms: C_10  and  C_24
    5  A    between atoms: C_16  and  C_27
    6  A    between atoms: C_27  and  N_32
                            x       y       z     vdW  Elec       q    Type
                         _______ _______ _______ _____ _____    ______ ____

>  <TORSDO>
F 6

$$$$
=
 OpenBabel10272413303D

 32 36  0  0  1  0  0  0  0  0999 V2000
  190.2650  177.5590  137.4660 C   0  0  1  0  0  3  0  0  0  0  0  0
  188.6480  176.9580  142.3570 C   0  0  0  0  0  0  0  0  0  0  0  0
  184.4540  179.4260  142.4550 C   0  0  0  0  0  3  0  0  0  0  0  0
  184.2830  179.0790  143.7960 C   0  0  0  0  0  3  0  0  0  0  0  0
  190.2570  177.2940  140.4480 C   0  0  2  0  0  3  0  0  0  0  0  0
  187.9230  178.1170  140.2820 C   0  0  0  0  0  3  0  0  0  0  0  0
  189.2890  178.4030  138.2910 C   0  0  0  0  0  2  0  0  0  0  0  0
  185.5790  178.9840  141.7560 C   0  0  0  0  0  3  0  0  0  0  0  0
  187.6910  177.7460  141.6940 C   0  0  0  0  0  0  0  0  0  0  0  0
  186.5480  178.1890  142.3890 C   0  0  0  0  0  0  0  0  0  0  0  0
  187.3420  177.0440  144.4000 C   0  0  0  0  0  0  0  0  0  0  0  0
  191.5300  177.2480  138.2670 C   0  0  0  0  0  2  0  0  0  0  0  0
  189.0780  177.8490  139.6680 C   0  0  0  0  0  0  0  0  0  0  0  0
  191.1920  176.4900  139.5490 C   0  0  0  0  0  2  0  0  0  0  0  0
  185.2370  178.2900  144.4420 C   0  0  0  0  0  3  0  0  0  0  0  0
  186.3740  177.8380  143.7540 C   0  0  0  0  0  0  0  0  0  0  0  0
  189.8150  176.3920  141.6060 C   0  0  0  0  0  2  0  0  0  0  0  0
  188.4650  176.6060  143.6940 C   0  0  0  0  0  3  0  0  0  0  0  0
  189.6120  176.2820  136.9510 C   0  0  0  0  0  2  0  0  0  0  0  0
  189.8760  176.1120  135.4650 C   0  0  0  0  0  2  0  0  0  0  0  0
  191.1380  175.3510  135.2640 C   0  0  0  0  0  0  0  0  0  0  0  0
  191.1520  174.1020  135.4200 O   0  0  0  0  0  1  0  0  0  0  0  0
  192.3100  176.0210  134.9380 O   0  0  0  0  0  0  0  0  0  0  0  0
  187.2270  176.6740  145.8460 C   0  0  0  0  0  2  0  0  0  0  0  0
  189.4500  176.9450  147.1350 C   0  0  1  0  0  3  0  0  0  0  0  0
  187.7560  178.3870  147.6240 C   0  0  0  0  0  0  0  0  0  0  0  0
  188.7740  178.5220  148.6350 C   0  0  0  0  0  3  0  0  0  0  0  0
  189.7420  177.7100  148.3540 N   0  0  0  0  0  0  0  0  0  0  0  0
  186.6510  178.9890  147.6130 O   0  0  0  0  0  0  0  0  0  0  0  0
  188.1650  177.4490  146.6500 N   0  0  0  0  0  0  0  0  0  0  0  0
  190.5560  177.1330  146.0950 C   0  0  0  0  0  2  0  0  0  0  0  0
  191.7770  176.2730  146.3870 C   0  0  0  0  0  1  0  0  0  0  0  0
  1 19  1  1  0  0  0
  1 12  1  0  0  0  0
  1  7  1  0  0  0  0
  2 18  1  0  0  0  0
  3  4  1  0  0  0  0
  4 15  2  0  0  0  0
  5 14  1  6  0  0  0
  5 17  1  0  0  0  0
  6  9  1  0  0  0  0
  7 13  1  0  0  0  0
  8 10  1  0  0  0  0
  8  3  2  0  0  0  0
  9  2  2  0  0  0  0
  9 10  1  0  0  0  0
 10 16  2  0  0  0  0
 11 24  1  0  0  0  0
 12 14  1  0  0  0  0
 13  6  2  0  0  0  0
 13  5  1  0  0  0  0
 16 11  1  0  0  0  0
 16 15  1  0  0  0  0
 17  2  1  0  0  0  0
 18 11  2  0  0  0  0
 20 19  1  0  0  0  0
 21 22  1  0  0  0  0
 21 20  1  0  0  0  0
 23 21  2  0  0  0  0
 24 30  1  0  0  0  0
 25 31  1  6  0  0  0
 25 28  1  0  0  0  0
 26 27  1  0  0  0  0
 28 27  2  0  0  0  0
 29 26  2  0  0  0  0
 30 25  1  0  0  0  0
 30 26  1  0  0  0  0
 31 32  1  0  0  0  0
M  END
>  <MODEL>
2

>  <REMARK>
 VINA RESULT:      -7.9      1.628      1.909
  Name = 
  6 active torsions:
  status: ('A' for Active; 'I' for Inactive)
    1  A    between atoms: C_1  and  C_10
    2  A    between atoms: C_2  and  C_24
    3  A    between atoms: C_6  and  C_7
    4  A    between atoms: C_10  and  C_24
    5  A    between atoms: C_16  and  C_27
    6  A    between atoms: C_27  and  N_32
                            x       y       z     vdW  Elec       q    Type
                         _______ _______ _______ _____ _____    ______ ____

>  <TORSDO>
F 6

$$$$
=
 OpenBabel10272413303D

 32 36  0  0  1  0  0  0  0  0999 V2000
  191.3610  177.7630  144.5010 C   0  0  1  0  0  3  0  0  0  0  0  0
  189.2080  177.2110  139.8160 C   0  0  0  0  0  0  0  0  0  0  0  0
  193.0020  176.1220  136.9680 C   0  0  0  0  0  3  0  0  0  0  0  0
  192.1470  176.0270  135.8680 C   0  0  0  0  0  3  0  0  0  0  0  0
  189.5980  178.1620  142.1150 C   0  0  2  0  0  3  0  0  0  0  0  0
  191.4640  177.1240  140.8530 C   0  0  0  0  0  3  0  0  0  0  0  0
  191.9930  177.8590  143.1100 C   0  0  0  0  0  2  0  0  0  0  0  0
  192.4890  176.4360  138.2270 C   0  0  0  0  0  3  0  0  0  0  0  0
  190.5880  176.9840  139.6710 C   0  0  0  0  0  0  0  0  0  0  0  0
  191.1140  176.6590  138.4050 C   0  0  0  0  0  0  0  0  0  0  0  0
  188.8640  176.7890  137.4510 C   0  0  0  0  0  0  0  0  0  0  0  0
  190.0590  178.5620  144.5660 C   0  0  0  0  0  2  0  0  0  0  0  0
  191.0040  177.5970  142.0140 C   0  0  0  0  0  0  0  0  0  0  0  0
  189.0530  178.0520  143.5370 C   0  0  0  0  0  2  0  0  0  0  0  0
  190.7770  176.2450  136.0260 C   0  0  0  0  0  3  0  0  0  0  0  0
  190.2450  176.5630  137.2860 C   0  0  0  0  0  0  0  0  0  0  0  0
  188.6180  177.4540  141.1720 C   0  0  0  0  0  2  0  0  0  0  0  0
  188.3580  177.1020  138.7140 C   0  0  0  0  0  3  0  0  0  0  0  0
  191.1400  176.3150  144.9230 C   0  0  0  0  0  2  0  0  0  0  0  0
  191.9810  175.9810  146.1420 C   0  0  0  0  0  2  0  0  0  0  0  0
  191.3780  176.6010  147.3520 C   0  0  0  0  0  0  0  0  0  0  0  0
  192.1180  177.0830  148.2480 O   0  0  0  0  0  1  0  0  0  0  0  0
  189.9980  176.6170  147.5110 O   0  0  0  0  0  0  0  0  0  0  0  0
  187.9090  176.7370  136.2990 C   0  0  0  0  0  2  0  0  0  0  0  0
  186.7610  174.4300  136.1130 C   0  0  1  0  0  3  0  0  0  0  0  0
  185.4650  176.2200  136.6620 C   0  0  0  0  0  0  0  0  0  0  0  0
  184.5990  175.1160  136.3340 C   0  0  0  0  0  3  0  0  0  0  0  0
  185.3340  174.0950  136.0300 N   0  0  0  0  0  0  0  0  0  0  0  0
  185.0870  177.3850  136.9540 O   0  0  0  0  0  0  0  0  0  0  0  0
  186.8160  175.8140  136.5820 N   0  0  0  0  0  0  0  0  0  0  0  0
  187.4880  173.4840  137.0700 C   0  0  0  0  0  2  0  0  0  0  0  0
  188.8870  173.1320  136.5860 C   0  0  0  0  0  1  0  0  0  0  0  0
  1 12  1  0  0  0  0
  1 19  1  6  0  0  0
  2 17  1  0  0  0  0
  3  8  2  0  0  0  0
  4 15  2  0  0  0  0
  4  3  1  0  0  0  0
  5 17  1  6  0  0  0
  5 14  1  0  0  0  0
  6 13  2  0  0  0  0
  7  1  1  0  0  0  0
  8 10  1  0  0  0  0
  9  2  1  0  0  0  0
  9  6  1  0  0  0  0
 10  9  2  0  0  0  0
 11 18  1  0  0  0  0
 13  5  1  0  0  0  0
 13  7  1  0  0  0  0
 14 12  1  0  0  0  0
 15 16  1  0  0  0  0
 16 11  2  0  0  0  0
 16 10  1  0  0  0  0
 18  2  2  0  0  0  0
 19 20  1  0  0  0  0
 20 21  1  0  0  0  0
 21 23  2  0  0  0  0
 21 22  1  0  0  0  0
 24 30  1  0  0  0  0
 24 11  1  0  0  0  0
 25 30  1  0  0  0  0
 25 31  1  1  0  0  0
 26 29  2  0  0  0  0
 27 26  1  0  0  0  0
 28 25  1  0  0  0  0
 28 27  2  0  0  0  0
 30 26  1  0  0  0  0
 32 31  1  0  0  0  0
M  END
>  <MODEL>
3

>  <REMARK>
 VINA RESULT:      -7.7      3.747      9.032
  Name = 
  6 active torsions:
  status: ('A' for Active; 'I' for Inactive)
    1  A    between atoms: C_1  and  C_10
    2  A    between atoms: C_2  and  C_24
    3  A    between atoms: C_6  and  C_7
    4  A    between atoms: C_10  and  C_24
    5  A    between atoms: C_16  and  C_27
    6  A    between atoms: C_27  and  N_32
                            x       y       z     vdW  Elec       q    Type
                         _______ _______ _______ _____ _____    ______ ____

>  <TORSDO>
F 6

$$$$
=
 OpenBabel10272413303D

 32 36  0  0  1  0  0  0  0  0999 V2000
  180.3410  178.7360  140.0410 C   0  0  1  0  0  3  0  0  0  0  0  0
  185.4100  178.7160  141.1360 C   0  0  0  0  0  0  0  0  0  0  0  0
  187.4850  178.0090  136.7910 C   0  0  0  0  0  3  0  0  0  0  0  0
  188.7460  178.0680  137.3850 C   0  0  0  0  0  3  0  0  0  0  0  0
  182.9490  178.2750  141.4370 C   0  0  2  0  0  3  0  0  0  0  0  0
  183.9270  178.4280  139.1630 C   0  0  0  0  0  3  0  0  0  0  0  0
  181.5150  178.1400  139.2590 C   0  0  0  0  0  2  0  0  0  0  0  0
  186.3370  178.1590  137.5700 C   0  0  0  0  0  3  0  0  0  0  0  0
  185.2800  178.5150  139.7500 C   0  0  0  0  0  0  0  0  0  0  0  0
  186.4340  178.3700  138.9550 C   0  0  0  0  0  0  0  0  0  0  0  0
  187.8270  178.6350  140.9480 C   0  0  0  0  0  0  0  0  0  0  0  0
  180.4250  178.3640  141.5220 C   0  0  0  0  0  2  0  0  0  0  0  0
  182.8330  178.3920  139.9280 C   0  0  0  0  0  0  0  0  0  0  0  0
  181.7290  178.8670  142.1380 C   0  0  0  0  0  2  0  0  0  0  0  0
  188.8630  178.2760  138.7610 C   0  0  0  0  0  3  0  0  0  0  0  0
  187.7180  178.4280  139.5590 C   0  0  0  0  0  0  0  0  0  0  0  0
  184.1990  178.9760  141.9800 C   0  0  0  0  0  2  0  0  0  0  0  0
  186.6740  178.7850  141.7210 C   0  0  0  0  0  3  0  0  0  0  0  0
  180.2490  180.2470  139.8580 C   0  0  0  0  0  2  0  0  0  0  0  0
  180.4660  180.6200  138.4020 C   0  0  0  0  0  2  0  0  0  0  0  0
  181.3600  181.8060  138.3160 C   0  0  0  0  0  0  0  0  0  0  0  0
  180.9280  182.8860  137.8370 O   0  0  0  0  0  0  0  0  0  0  0  0
  182.6820  181.7110  138.7310 O   0  0  0  0  0  1  0  0  0  0  0  0
  189.1540  178.6690  141.6420 C   0  0  0  0  0  2  0  0  0  0  0  0
  189.4030  177.4460  143.9040 C   0  0  1  0  0  3  0  0  0  0  0  0
  190.1650  176.3900  142.0370 C   0  0  0  0  0  0  0  0  0  0  0  0
  190.6530  175.6800  143.1910 C   0  0  0  0  0  3  0  0  0  0  0  0
  190.2140  176.2730  144.2540 N   0  0  0  0  0  0  0  0  0  0  0  0
  190.4410  176.1180  140.8390 O   0  0  0  0  0  0  0  0  0  0  0  0
  189.3440  177.4660  142.4430 N   0  0  0  0  0  0  0  0  0  0  0  0
  188.0070  177.3470  144.5220 C   0  0  0  0  0  2  0  0  0  0  0  0
  188.0190  177.5900  146.0230 C   0  0  0  0  0  1  0  0  0  0  0  0
  1 19  1  1  0  0  0
  1 12  1  0  0  0  0
  2 18  1  0  0  0  0
  2 17  1  0  0  0  0
  3  4  2  0  0  0  0
  3  8  1  0  0  0  0
  4 15  1  0  0  0  0
  5 17  1  1  0  0  0
  5 14  1  0  0  0  0
  6  9  1  0  0  0  0
  6 13  2  0  0  0  0
  7 13  1  0  0  0  0
  7  1  1  0  0  0  0
  8 10  2  0  0  0  0
  9  2  2  0  0  0  0
 10 16  1  0  0  0  0
 10  9  1  0  0  0  0
 11 24  1  0  0  0  0
 11 18  2  0  0  0  0
 12 14  1  0  0  0  0
 13  5  1  0  0  0  0
 15 16  2  0  0  0  0
 16 11  1  0  0  0  0
 20 19  1  0  0  0  0
 21 20  1  0  0  0  0
 21 23  1  0  0  0  0
 22 21  2  0  0  0  0
 24 30  1  0  0  0  0
 25 28  1  0  0  0  0
 25 31  1  1  0  0  0
 26 30  1  0  0  0  0
 26 27  1  0  0  0  0
 27 28  2  0  0  0  0
 29 26  2  0  0  0  0
 30 25  1  0  0  0  0
 31 32  1  0  0  0  0
M  END
>  <MODEL>
4

>  <REMARK>
 VINA RESULT:      -7.5      3.453      6.579
  Name = 
  6 active torsions:
  status: ('A' for Active; 'I' for Inactive)
    1  A    between atoms: C_1  and  C_10
    2  A    between atoms: C_2  and  C_24
    3  A    between atoms: C_6  and  C_7
    4  A    between atoms: C_10  and  C_24
    5  A    between atoms: C_16  and  C_27
    6  A    between atoms: C_27  and  N_32
                            x       y       z     vdW  Elec       q    Type
                         _______ _______ _______ _____ _____    ______ ____

>  <TORSDO>
F 6

$$$$
=
 OpenBabel10272413303D

 32 36  0  0  1  0  0  0  0  0999 V2000
  189.8120  176.7200  144.1370 C   0  0  1  0  0  3  0  0  0  0  0  0
  186.0240  178.5590  141.1110 C   0  0  0  0  0  0  0  0  0  0  0  0
  182.1820  178.7030  144.0960 C   0  0  0  0  0  3  0  0  0  0  0  0
  181.4000  179.2170  143.0610 C   0  0  0  0  0  3  0  0  0  0  0  0
  188.0680  177.2400  141.7600 C   0  0  2  0  0  3  0  0  0  0  0  0
  186.3250  177.7620  143.4450 C   0  0  0  0  0  3  0  0  0  0  0  0
  188.2910  176.6040  144.2830 C   0  0  0  0  0  2  0  0  0  0  0  0
  183.5300  178.4130  143.8760 C   0  0  0  0  0  3  0  0  0  0  0  0
  185.4710  178.3360  142.3840 C   0  0  0  0  0  0  0  0  0  0  0  0
  184.1130  178.6330  142.6180 C   0  0  0  0  0  0  0  0  0  0  0  0
  183.8890  179.3760  140.2970 C   0  0  0  0  0  0  0  0  0  0  0  0
  190.2510  176.3930  142.7100 C   0  0  0  0  0  2  0  0  0  0  0  0
  187.5570  177.3180  143.1870 C   0  0  0  0  0  0  0  0  0  0  0  0
  189.5910  177.3360  141.7060 C   0  0  0  0  0  2  0  0  0  0  0  0
  181.9620  179.4420  141.8040 C   0  0  0  0  0  3  0  0  0  0  0  0
  183.3160  179.1550  141.5650 C   0  0  0  0  0  0  0  0  0  0  0  0
  187.4880  178.3470  140.8740 C   0  0  0  0  0  2  0  0  0  0  0  0
  185.2380  179.0840  140.0850 C   0  0  0  0  0  3  0  0  0  0  0  0
  190.3180  178.0920  144.5680 C   0  0  0  0  0  2  0  0  0  0  0  0
  191.6070  177.9580  145.3600 C   0  0  0  0  0  2  0  0  0  0  0  0
  191.4470  176.9130  146.4060 C   0  0  0  0  0  0  0  0  0  0  0  0
  192.1840  175.8920  146.3940 O   0  0  0  0  0  0  0  0  0  0  0  0
  190.4620  177.0440  147.3750 O   0  0  0  0  0  1  0  0  0  0  0  0
  183.0860  179.8910  139.1430 C   0  0  0  0  0  2  0  0  0  0  0  0
  182.7390  177.8160  137.6440 C   0  0  1  0  0  3  0  0  0  0  0  0
  180.8960  179.0060  138.2520 C   0  0  0  0  0  0  0  0  0  0  0  0
  180.5190  178.0880  137.2070 C   0  0  0  0  0  3  0  0  0  0  0  0
  181.5630  177.4050  136.8660 N   0  0  0  0  0  0  0  0  0  0  0  0
  180.1390  179.8610  138.7830 O   0  0  0  0  0  0  0  0  0  0  0  0
  182.2580  178.8300  138.5820 N   0  0  0  0  0  0  0  0  0  0  0  0
  183.3540  176.6210  138.3750 C   0  0  0  0  0  2  0  0  0  0  0  0
  182.5160  176.1760  139.5640 C   0  0  0  0  0  1  0  0  0  0  0  0
  1  7  1  0  0  0  0
  1 19  1  6  0  0  0
  2  9  1  0  0  0  0
  4  3  1  0  0  0  0
  5 17  1  6  0  0  0
  5 13  1  0  0  0  0
  8  3  2  0  0  0  0
  9 10  2  0  0  0  0
  9  6  1  0  0  0  0
 10  8  1  0  0  0  0
 11 16  2  0  0  0  0
 12  1  1  0  0  0  0
 13  6  2  0  0  0  0
 13  7  1  0  0  0  0
 14  5  1  0  0  0  0
 14 12  1  0  0  0  0
 15  4  2  0  0  0  0
 16 15  1  0  0  0  0
 16 10  1  0  0  0  0
 17  2  1  0  0  0  0
 18 11  1  0  0  0  0
 18  2  2  0  0  0  0
 19 20  1  0  0  0  0
 20 21  1  0  0  0  0
 21 23  1  0  0  0  0
 22 21  2  0  0  0  0
 24 11  1  0  0  0  0
 25 31  1  1  0  0  0
 25 30  1  0  0  0  0
 26 30  1  0  0  0  0
 26 29  2  0  0  0  0
 27 26  1  0  0  0  0
 28 27  2  0  0  0  0
 28 25  1  0  0  0  0
 30 24  1  0  0  0  0
 31 32  1  0  0  0  0
M  END
>  <MODEL>
5

>  <REMARK>
 VINA RESULT:      -7.5      4.127      7.986
  Name = 
  6 active torsions:
  status: ('A' for Active; 'I' for Inactive)
    1  A    between atoms: C_1  and  C_10
    2  A    between atoms: C_2  and  C_24
    3  A    between atoms: C_6  and  C_7
    4  A    between atoms: C_10  and  C_24
    5  A    between atoms: C_16  and  C_27
    6  A    between atoms: C_27  and  N_32
                            x       y       z     vdW  Elec       q    Type
                         _______ _______ _______ _____ _____    ______ ____

>  <TORSDO>
F 6

$$$$
=
 OpenBabel10272413303D

 32 36  0  0  1  0  0  0  0  0999 V2000
  181.8850  180.3860  138.2080 C   0  0  1  0  0  3  0  0  0  0  0  0
  184.3250  178.3550  142.3100 C   0  0  0  0  0  0  0  0  0  0  0  0
  188.9570  178.1020  140.8380 C   0  0  0  0  0  3  0  0  0  0  0  0
  189.3200  177.5730  142.0770 C   0  0  0  0  0  3  0  0  0  0  0  0
  182.4910  178.7230  140.6220 C   0  0  2  0  0  3  0  0  0  0  0  0
  184.8620  179.1010  140.0010 C   0  0  0  0  0  3  0  0  0  0  0  0
  183.2220  179.6420  138.2900 C   0  0  0  0  0  2  0  0  0  0  0  0
  187.6260  178.4350  140.5820 C   0  0  0  0  0  3  0  0  0  0  0  0
  185.2910  178.5670  141.3110 C   0  0  0  0  0  0  0  0  0  0  0  0
  186.6390  178.2420  141.5630 C   0  0  0  0  0  0  0  0  0  0  0  0
  186.0270  177.5020  143.8130 C   0  0  0  0  0  0  0  0  0  0  0  0
  180.7990  179.6460  138.9900 C   0  0  0  0  0  2  0  0  0  0  0  0
  183.5710  179.2490  139.6940 C   0  0  0  0  0  0  0  0  0  0  0  0
  181.1870  179.5000  140.4590 C   0  0  0  0  0  2  0  0  0  0  0  0
  188.3530  177.3750  143.0640 C   0  0  0  0  0  3  0  0  0  0  0  0
  187.0090  177.7030  142.8230 C   0  0  0  0  0  0  0  0  0  0  0  0
  182.9070  178.7920  142.0960 C   0  0  0  0  0  2  0  0  0  0  0  0
  184.6970  177.8370  143.5500 C   0  0  0  0  0  3  0  0  0  0  0  0
  182.0130  181.8310  138.6770 C   0  0  0  0  0  2  0  0  0  0  0  0
  180.8910  182.6780  138.1030 C   0  0  0  0  0  2  0  0  0  0  0  0
  181.4630  183.7810  137.2860 C   0  0  0  0  0  0  0  0  0  0  0  0
  180.9340  184.0910  136.1870 O   0  0  0  0  0  0  0  0  0  0  0  0
  182.6020  184.4480  137.7190 O   0  0  0  0  0  1  0  0  0  0  0  0
  186.3560  176.9030  145.1450 C   0  0  0  0  0  2  0  0  0  0  0  0
  188.1530  177.7100  146.8170 C   0  0  1  0  0  3  0  0  0  0  0  0
  186.1580  178.8080  146.7900 C   0  0  0  0  0  0  0  0  0  0  0  0
  186.8870  179.2190  147.9630 C   0  0  0  0  0  3  0  0  0  0  0  0
  188.0240  178.6030  147.9760 N   0  0  0  0  0  0  0  0  0  0  0  0
  184.9910  179.1710  146.4880 O   0  0  0  0  0  0  0  0  0  0  0  0
  186.9360  177.9070  146.0290 N   0  0  0  0  0  0  0  0  0  0  0  0
  189.4070  178.0450  146.0070 C   0  0  0  0  0  2  0  0  0  0  0  0
  190.4870  176.9830  146.1470 C   0  0  0  0  0  1  0  0  0  0  0  0
  1  7  1  0  0  0  0
  1 19  1  1  0  0  0
  1 12  1  0  0  0  0
  2 18  1  0  0  0  0
  3  4  1  0  0  0  0
  4 15  2  0  0  0  0
  5 14  1  1  0  0  0
  5 17  1  0  0  0  0
  6  9  1  0  0  0  0
  7 13  1  0  0  0  0
  8  3  2  0  0  0  0
  8 10  1  0  0  0  0
  9 10  1  0  0  0  0
  9  2  2  0  0  0  0
 10 16  2  0  0  0  0
 11 24  1  0  0  0  0
 12 14  1  0  0  0  0
 13  6  2  0  0  0  0
 13  5  1  0  0  0  0
 16 15  1  0  0  0  0
 16 11  1  0  0  0  0
 17  2  1  0  0  0  0
 18 11  2  0  0  0  0
 20 19  1  0  0  0  0
 21 23  1  0  0  0  0
 21 20  1  0  0  0  0
 22 21  2  0  0  0  0
 24 30  1  0  0  0  0
 25 31  1  6  0  0  0
 25 28  1  0  0  0  0
 26 27  1  0  0  0  0
 27 28  2  0  0  0  0
 29 26  2  0  0  0  0
 30 26  1  0  0  0  0
 30 25  1  0  0  0  0
 31 32  1  0  0  0  0
M  END
>  <MODEL>
6

>  <REMARK>
 VINA RESULT:      -7.1      3.590      5.710
  Name = 
  6 active torsions:
  status: ('A' for Active; 'I' for Inactive)
    1  A    between atoms: C_1  and  C_10
    2  A    between atoms: C_2  and  C_24
    3  A    between atoms: C_6  and  C_7
    4  A    between atoms: C_10  and  C_24
    5  A    between atoms: C_16  and  C_27
    6  A    between atoms: C_27  and  N_32
                            x       y       z     vdW  Elec       q    Type
                         _______ _______ _______ _____ _____    ______ ____

>  <TORSDO>
F 6

$$$$
=
 OpenBabel10272413303D

 32 36  0  0  1  0  0  0  0  0999 V2000
  189.1430  176.9800  145.8280 C   0  0  1  0  0  3  0  0  0  0  0  0
  186.1490  178.3700  141.8280 C   0  0  0  0  0  0  0  0  0  0  0  0
  181.7260  178.7470  143.8250 C   0  0  0  0  0  3  0  0  0  0  0  0
  181.2010  179.1220  142.5870 C   0  0  0  0  0  3  0  0  0  0  0  0
  187.9900  177.1850  143.0730 C   0  0  2  0  0  3  0  0  0  0  0  0
  185.9070  177.8470  144.2460 C   0  0  0  0  0  3  0  0  0  0  0  0
  187.6290  176.8430  145.6370 C   0  0  0  0  0  2  0  0  0  0  0  0
  183.0880  178.4690  143.9520 C   0  0  0  0  0  3  0  0  0  0  0  0
  185.3190  178.2760  142.9590 C   0  0  0  0  0  0  0  0  0  0  0  0
  183.9440  178.5630  142.8420 C   0  0  0  0  0  0  0  0  0  0  0  0
  184.2570  179.0350  140.4620 C   0  0  0  0  0  0  0  0  0  0  0  0
  189.8970  176.5070  144.5850 C   0  0  0  0  0  2  0  0  0  0  0  0
  187.1660  177.4100  144.3280 C   0  0  0  0  0  0  0  0  0  0  0  0
  189.4840  177.3140  143.3560 C   0  0  0  0  0  2  0  0  0  0  0  0
  182.0360  179.2190  141.4730 C   0  0  0  0  0  3  0  0  0  0  0  0
  183.4090  178.9420  141.5830 C   0  0  0  0  0  0  0  0  0  0  0  0
  187.6290  178.1710  141.9560 C   0  0  0  0  0  2  0  0  0  0  0  0
  185.6190  178.7560  140.5970 C   0  0  0  0  0  3  0  0  0  0  0  0
  189.5380  178.4050  146.2020 C   0  0  0  0  0  2  0  0  0  0  0  0
  188.6020  178.9540  147.2640 C   0  0  0  0  0  2  0  0  0  0  0  0
  188.8240  178.2380  148.5480 C   0  0  0  0  0  0  0  0  0  0  0  0
  189.9640  178.2410  149.0820 O   0  0  0  0  0  0  0  0  0  0  0  0
  187.7840  177.5350  149.1420 O   0  0  0  0  0  1  0  0  0  0  0  0
  183.7390  179.3950  139.1040 C   0  0  0  0  0  2  0  0  0  0  0  0
  182.6510  177.1070  138.6050 C   0  0  1  0  0  3  0  0  0  0  0  0
  184.6290  177.5860  137.5850 C   0  0  0  0  0  0  0  0  0  0  0  0
  184.3530  176.1840  137.4030 C   0  0  0  0  0  3  0  0  0  0  0  0
  183.2250  175.9110  137.9740 N   0  0  0  0  0  0  0  0  0  0  0  0
  185.6700  178.1830  137.2030 O   0  0  0  0  0  0  0  0  0  0  0  0
  183.5680  178.2000  138.2870 N   0  0  0  0  0  0  0  0  0  0  0  0
  181.2430  177.3810  138.0730 C   0  0  0  0  0  2  0  0  0  0  0  0
  180.1650  177.0760  139.1030 C   0  0  0  0  0  1  0  0  0  0  0  0
  1 19  1  6  0  0  0
  2 17  1  0  0  0  0
  2  9  1  0  0  0  0
  3  8  2  0  0  0  0
  4  3  1  0  0  0  0
  5 17  1  6  0  0  0
  5 14  1  0  0  0  0
  5 13  1  0  0  0  0
  6 13  2  0  0  0  0
  7  1  1  0  0  0  0
  9  6  1  0  0  0  0
 10  9  2  0  0  0  0
 10  8  1  0  0  0  0
 11 18  1  0  0  0  0
 11 16  2  0  0  0  0
 12  1  1  0  0  0  0
 13  7  1  0  0  0  0
 14 12  1  0  0  0  0
 15 16  1  0  0  0  0
 15  4  2  0  0  0  0
 16 10  1  0  0  0  0
 18  2  2  0  0  0  0
 19 20  1  0  0  0  0
 20 21  1  0  0  0  0
 21 22  2  0  0  0  0
 21 23  1  0  0  0  0
 24 11  1  0  0  0  0
 25 31  1  6  0  0  0
 26 30  1  0  0  0  0
 27 26  1  0  0  0  0
 27 28  2  0  0  0  0
 28 25  1  0  0  0  0
 29 26  2  0  0  0  0
 30 25  1  0  0  0  0
 30 24  1  0  0  0  0
 31 32  1  0  0  0  0
M  END
>  <MODEL>
7

>  <REMARK>
 VINA RESULT:      -7.1      3.601      8.298
  Name = 
  6 active torsions:
  status: ('A' for Active; 'I' for Inactive)
    1  A    between atoms: C_1  and  C_10
    2  A    between atoms: C_2  and  C_24
    3  A    between atoms: C_6  and  C_7
    4  A    between atoms: C_10  and  C_24
    5  A    between atoms: C_16  and  C_27
    6  A    between atoms: C_27  and  N_32
                            x       y       z     vdW  Elec       q    Type
                         _______ _______ _______ _____ _____    ______ ____

>  <TORSDO>
F 6

$$$$
=
 OpenBabel10272413303D

 32 36  0  0  1  0  0  0  0  0999 V2000
  191.2900  178.0070  144.5440 C   0  0  1  0  0  3  0  0  0  0  0  0
  189.3870  177.0860  139.8080 C   0  0  0  0  0  0  0  0  0  0  0  0
  193.3740  176.2120  137.1560 C   0  0  0  0  0  3  0  0  0  0  0  0
  192.5770  176.0010  136.0300 C   0  0  0  0  0  3  0  0  0  0  0  0
  189.6000  178.1580  142.0770 C   0  0  2  0  0  3  0  0  0  0  0  0
  191.5980  177.2340  140.9330 C   0  0  0  0  0  3  0  0  0  0  0  0
  191.9690  178.1010  143.1740 C   0  0  0  0  0  2  0  0  0  0  0  0
  192.7850  176.5320  138.3800 C   0  0  0  0  0  3  0  0  0  0  0  0
  190.7870  176.9730  139.7260 C   0  0  0  0  0  0  0  0  0  0  0  0
  191.3900  176.6430  138.4950 C   0  0  0  0  0  0  0  0  0  0  0  0
  189.1790  176.5420  137.4530 C   0  0  0  0  0  0  0  0  0  0  0  0
  189.9240  178.6930  144.5240 C   0  0  0  0  0  2  0  0  0  0  0  0
  191.0510  177.7120  142.0540 C   0  0  0  0  0  0  0  0  0  0  0  0
  189.0080  178.0580  143.4800 C   0  0  0  0  0  2  0  0  0  0  0  0
  191.1880  176.1080  136.1250 C   0  0  0  0  0  3  0  0  0  0  0  0
  190.5790  176.4290  137.3500 C   0  0  0  0  0  0  0  0  0  0  0  0
  188.7240  177.3320  141.1290 C   0  0  0  0  0  2  0  0  0  0  0  0
  188.5960  176.8610  138.6810 C   0  0  0  0  0  3  0  0  0  0  0  0
  191.1740  176.5630  145.0180 C   0  0  0  0  0  2  0  0  0  0  0  0
  190.7960  176.5160  146.4880 C   0  0  0  0  0  2  0  0  0  0  0  0
  191.9880  176.1570  147.3020 C   0  0  0  0  0  0  0  0  0  0  0  0
  192.3520  176.9020  148.2490 O   0  0  0  0  0  1  0  0  0  0  0  0
  192.7220  175.0190  146.9950 O   0  0  0  0  0  0  0  0  0  0  0  0
  188.2800  176.3630  136.2690 C   0  0  0  0  0  2  0  0  0  0  0  0
  186.4390  174.8730  137.3010 C   0  0  1  0  0  3  0  0  0  0  0  0
  188.1440  173.8430  136.2000 C   0  0  0  0  0  0  0  0  0  0  0  0
  187.4050  172.8440  136.9280 C   0  0  0  0  0  3  0  0  0  0  0  0
  186.4300  173.4260  137.5490 N   0  0  0  0  0  0  0  0  0  0  0  0
  189.1880  173.6360  135.5270 O   0  0  0  0  0  0  0  0  0  0  0  0
  187.5420  175.1090  136.3710 N   0  0  0  0  0  0  0  0  0  0  0  0
  185.1030  175.3350  136.7180 C   0  0  0  0  0  2  0  0  0  0  0  0
  184.6760  176.6940  137.2520 C   0  0  0  0  0  1  0  0  0  0  0  0
  1 19  1  6  0  0  0
  2 17  1  0  0  0  0
  3  8  2  0  0  0  0
  4 15  2  0  0  0  0
  4  3  1  0  0  0  0
  5 17  1  6  0  0  0
  5 14  1  0  0  0  0
  6 13  2  0  0  0  0
  7  1  1  0  0  0  0
  8 10  1  0  0  0  0
  9  2  1  0  0  0  0
  9  6  1  0  0  0  0
 10  9  2  0  0  0  0
 11 18  1  0  0  0  0
 12  1  1  0  0  0  0
 13  5  1  0  0  0  0
 13  7  1  0  0  0  0
 14 12  1  0  0  0  0
 15 16  1  0  0  0  0
 16 11  2  0  0  0  0
 16 10  1  0  0  0  0
 18  2  2  0  0  0  0
 19 20  1  0  0  0  0
 20 21  1  0  0  0  0
 21 22  1  0  0  0  0
 23 21  2  0  0  0  0
 24 30  1  0  0  0  0
 24 11  1  0  0  0  0
 25 31  1  6  0  0  0
 25 28  1  0  0  0  0
 26 30  1  0  0  0  0
 26 27  1  0  0  0  0
 27 28  2  0  0  0  0
 29 26  2  0  0  0  0
 30 25  1  0  0  0  0
 31 32  1  0  0  0  0
M  END
>  <MODEL>
8

>  <REMARK>
 VINA RESULT:      -7.1      3.912      9.195
  Name = 
  6 active torsions:
  status: ('A' for Active; 'I' for Inactive)
    1  A    between atoms: C_1  and  C_10
    2  A    between atoms: C_2  and  C_24
    3  A    between atoms: C_6  and  C_7
    4  A    between atoms: C_10  and  C_24
    5  A    between atoms: C_16  and  C_27
    6  A    between atoms: C_27  and  N_32
                            x       y       z     vdW  Elec       q    Type
                         _______ _______ _______ _____ _____    ______ ____

>  <TORSDO>
F 6

$$$$
=
 OpenBabel10272413303D

 32 36  0  0  1  0  0  0  0  0999 V2000
  185.0380  179.3840  143.9210 C   0  0  1  0  0  3  0  0  0  0  0  0
  183.6480  177.5760  139.2630 C   0  0  0  0  0  0  0  0  0  0  0  0
  187.6220  178.3150  136.5510 C   0  0  0  0  0  3  0  0  0  0  0  0
  186.9740  177.7500  135.4510 C   0  0  0  0  0  3  0  0  0  0  0  0
  183.4180  178.7300  141.4900 C   0  0  2  0  0  3  0  0  0  0  0  0
  185.6100  178.6640  140.3320 C   0  0  0  0  0  3  0  0  0  0  0  0
  185.6080  179.6950  142.5340 C   0  0  0  0  0  2  0  0  0  0  0  0
  186.9620  178.4120  137.7780 C   0  0  0  0  0  3  0  0  0  0  0  0
  184.9700  178.0450  139.1530 C   0  0  0  0  0  0  0  0  0  0  0  0
  185.6460  177.9440  137.9210 C   0  0  0  0  0  0  0  0  0  0  0  0
  183.6650  176.9030  136.9320 C   0  0  0  0  0  0  0  0  0  0  0  0
  183.5100  179.4470  143.9110 C   0  0  0  0  0  2  0  0  0  0  0  0
  184.9240  178.9190  141.4490 C   0  0  0  0  0  0  0  0  0  0  0  0
  182.9290  178.4510  142.9090 C   0  0  0  0  0  2  0  0  0  0  0  0
  185.6650  177.2810  135.5750 C   0  0  0  0  0  3  0  0  0  0  0  0
  184.9870  177.3710  136.8010 C   0  0  0  0  0  0  0  0  0  0  0  0
  182.9520  177.5800  140.5900 C   0  0  0  0  0  2  0  0  0  0  0  0
  183.0120  177.0020  138.1630 C   0  0  0  0  0  3  0  0  0  0  0  0
  185.5300  178.0390  144.4460 C   0  0  0  0  0  2  0  0  0  0  0  0
  186.3950  178.2340  145.6780 C   0  0  0  0  0  2  0  0  0  0  0  0
  185.5700  178.7760  146.7910 C   0  0  0  0  0  0  0  0  0  0  0  0
  184.4820  178.2220  147.0950 O   0  0  0  0  0  0  0  0  0  0  0  0
  185.9820  179.9150  147.4710 O   0  0  0  0  0  1  0  0  0  0  0  0
  182.9110  176.3230  135.7760 C   0  0  0  0  0  2  0  0  0  0  0  0
  183.6120  173.8950  135.2400 C   0  0  1  0  0  3  0  0  0  0  0  0
  181.5290  174.2350  136.0950 C   0  0  0  0  0  0  0  0  0  0  0  0
  181.6040  172.8810  135.6090 C   0  0  0  0  0  3  0  0  0  0  0  0
  182.7900  172.6830  135.1300 N   0  0  0  0  0  0  0  0  0  0  0  0
  180.5040  174.7830  136.5780 O   0  0  0  0  0  0  0  0  0  0  0  0
  182.7740  174.8790  135.9250 N   0  0  0  0  0  0  0  0  0  0  0  0
  184.8980  173.6130  136.0170 C   0  0  0  0  0  2  0  0  0  0  0  0
  184.6370  173.3390  137.4910 C   0  0  0  0  0  1  0  0  0  0  0  0
  1 19  1  6  0  0  0
  2 17  1  0  0  0  0
  3  8  2  0  0  0  0
  4 15  2  0  0  0  0
  4  3  1  0  0  0  0
  5 17  1  6  0  0  0
  5 14  1  0  0  0  0
  6 13  2  0  0  0  0
  7  1  1  0  0  0  0
  8 10  1  0  0  0  0
  9  2  1  0  0  0  0
  9  6  1  0  0  0  0
 10  9  2  0  0  0  0
 11 18  1  0  0  0  0
 12  1  1  0  0  0  0
 13  5  1  0  0  0  0
 13  7  1  0  0  0  0
 14 12  1  0  0  0  0
 15 16  1  0  0  0  0
 16 11  2  0  0  0  0
 16 10  1  0  0  0  0
 18  2  2  0  0  0  0
 19 20  1  0  0  0  0
 20 21  1  0  0  0  0
 21 22  2  0  0  0  0
 21 23  1  0  0  0  0
 24 30  1  0  0  0  0
 24 11  1  0  0  0  0
 25 30  1  0  0  0  0
 25 31  1  1  0  0  0
 26 29  2  0  0  0  0
 27 26  1  0  0  0  0
 28 25  1  0  0  0  0
 28 27  2  0  0  0  0
 30 26  1  0  0  0  0
 31 32  1  0  0  0  0
M  END
>  <MODEL>
9

>  <REMARK>
 VINA RESULT:      -6.9      4.576      9.671
  Name = 
  6 active torsions:
  status: ('A' for Active; 'I' for Inactive)
    1  A    between atoms: C_1  and  C_10
    2  A    between atoms: C_2  and  C_24
    3  A    between atoms: C_6  and  C_7
    4  A    between atoms: C_10  and  C_24
    5  A    between atoms: C_16  and  C_27
    6  A    between atoms: C_27  and  N_32
                            x       y       z     vdW  Elec       q    Type
                         _______ _______ _______ _____ _____    ______ ____

>  <TORSDO>
F 6

$$$$
