=
 OpenBabel10272401343D

 55 63  0  0  1  0  0  0  0  0999 V2000
  187.1410  178.1790  139.1280 C   0  0  0  0  0  0  0  0  0  0  0  0
  190.5810  175.3480  138.4130 C   0  0  0  0  0  3  0  0  0  0  0  0
  191.5360  176.8350  141.9980 C   0  0  0  0  0  2  0  0  0  0  0  0
  191.5810  175.3370  135.1750 C   0  0  0  0  0  2  0  0  0  0  0  0
  191.3280  174.3180  136.3010 C   0  0  2  0  0  3  0  0  0  0  0  0
  190.3830  178.0280  144.4670 C   0  0  0  0  0  2  0  0  0  0  0  0
  184.3440  178.1420  141.7690 C   0  0  0  0  0  2  0  0  0  0  0  0
  190.1150  177.5700  145.8970 C   0  0  0  0  0  2  0  0  0  0  0  0
  187.8760  177.9300  144.1410 C   0  0  0  0  0  0  0  0  0  0  0  0
  187.6530  177.8250  145.6250 C   0  0  0  0  0  2  0  0  0  0  0  0
  190.7060  177.9040  141.5260 C   0  0  1  0  0  3  0  0  0  0  0  0
  188.8730  178.2810  146.4220 C   0  0  0  0  0  2  0  0  0  0  0  0
  186.7300  179.2180  136.8780 C   0  0  0  0  0  3  0  0  0  0  0  0
  189.1690  177.9020  143.5710 C   0  0  0  0  0  0  0  0  0  0  0  0
  188.4060  177.3250  135.6710 C   0  0  0  0  0  0  0  0  0  0  0  0
  188.2670  178.0790  139.9510 C   0  0  0  0  0  3  0  0  0  0  0  0
  188.1910  177.2890  137.0520 C   0  0  0  0  0  3  0  0  0  0  0  0
  183.3450  178.5320  139.5390 C   0  0  2  0  0  3  0  0  0  0  0  0
  186.8720  178.0070  141.9280 C   0  0  0  0  0  0  0  0  0  0  0  0
  185.8520  178.1840  139.7090 C   0  0  0  0  0  0  0  0  0  0  0  0
  191.7700  174.8700  137.6510 C   0  0  0  0  0  2  0  0  0  0  0  0
  186.7530  177.9580  143.3200 C   0  0  0  0  0  3  0  0  0  0  0  0
  190.7420  176.0040  139.5230 C   0  0  0  0  0  0  0  0  0  0  0  0
  184.6330  178.1410  138.8180 C   0  0  0  0  0  2  0  0  0  0  0  0
  190.9190  176.6740  140.6250 C   0  0  0  0  0  0  0  0  0  0  0  0
  186.9490  179.2590  135.4970 C   0  0  0  0  0  3  0  0  0  0  0  0
  187.3480  178.2290  137.6650 C   0  0  0  0  0  0  0  0  0  0  0  0
  189.3200  177.8900  142.1580 C   0  0  0  0  0  0  0  0  0  0  0  0
  183.2270  177.7290  140.8270 C   0  0  0  0  0  2  0  0  0  0  0  0
  188.1610  177.9880  141.3430 C   0  0  0  0  0  0  0  0  0  0  0  0
  190.7400  176.5930  135.3560 C   0  0  0  0  0  2  0  0  0  0  0  0
  185.7180  178.0790  141.1170 C   0  0  0  0  0  0  0  0  0  0  0  0
  189.2860  176.3060  135.0340 C   0  0  0  0  0  2  0  0  0  0  0  0
  187.7870  178.3130  134.8930 C   0  0  0  0  0  3  0  0  0  0  0  0
  182.1640  178.3450  138.6270 C   0  0  0  0  0  0  0  0  0  0  0  0
  182.3630  178.2370  137.3140 C   0  0  0  0  0  2  0  0  0  0  0  0
  180.7550  178.3020  139.1480 C   0  0  0  0  0  1  0  0  0  0  0  0
  191.4450  172.1980  134.8370 C   0  0  0  0  0  2  0  0  0  0  0  0
  192.8080  172.8710  134.8430 C   0  0  1  0  0  3  0  0  0  0  0  0
  191.9290  172.9120  136.0890 C   0  0  1  0  0  3  0  0  0  0  0  0
  193.8940  171.8110  134.9760 C   0  0  0  0  0  2  0  0  0  0  0  0
  198.2690  173.4020  136.4700 C   0  0  0  0  0  1  0  0  0  0  0  0
  195.3050  172.3610  134.7780 C   0  0  2  0  0  3  0  0  0  0  0  0
  196.3730  171.1710  136.5560 O   0  0  0  0  0  0  0  0  0  0  0  0
  196.1510  172.2400  136.0010 C   0  0  0  0  0  0  0  0  0  0  0  0
  196.7490  173.5300  136.4530 C   0  0  2  0  0  0  0  0  0  0  0  0
  195.2120  173.8620  134.5350 C   0  0  0  0  0  2  0  0  0  0  0  0
  196.3540  174.5070  135.3260 C   0  0  1  0  0  3  0  0  0  0  0  0
  197.0330  174.5980  138.7600 N   0  0  0  0  0  2  0  0  0  0  0  0
  196.5730  174.9560  140.0860 C   0  0  0  0  0  1  0  0  0  0  0  0
  196.2020  173.9100  137.8190 C   0  0  0  0  0  0  0  0  0  0  0  0
  194.9970  173.6670  138.1080 O   0  0  0  0  0  0  0  0  0  0  0  0
  196.0160  175.9400  135.7610 C   0  0  0  0  0  3  0  0  0  0  0  0
  195.1150  176.5210  134.8580 O   0  0  0  0  0  1  0  0  0  0  0  0
  197.1820  176.7080  135.8050 O   0  0  0  0  0  1  0  0  0  0  0  0
  1 20  2  0  0  0  0
  1 16  1  0  0  0  0
  2 23  2  0  0  0  0
  4 31  1  0  0  0  0
  5  4  1  6  0  0  0
  5 21  1  0  0  0  0
  6  8  1  0  0  0  0
  8 12  1  0  0  0  0
  9 10  1  0  0  0  0
 10 12  1  0  0  0  0
 11  3  1  1  0  0  0
 11 28  1  0  0  0  0
 13 27  1  0  0  0  0
 14  9  1  0  0  0  0
 14  6  1  0  0  0  0
 15 17  1  0  0  0  0
 16 30  2  0  0  0  0
 17 27  2  0  0  0  0
 18 35  1  6  0  0  0
 18 29  1  0  0  0  0
 19 22  1  0  0  0  0
 20 32  1  0  0  0  0
 21  2  1  0  0  0  0
 22  9  2  0  0  0  0
 23 25  2  0  0  0  0
 24 18  1  0  0  0  0
 24 20  1  0  0  0  0
 25 11  1  0  0  0  0
 25  3  1  0  0  0  0
 26 13  2  0  0  0  0
 27  1  1  0  0  0  0
 28 14  2  0  0  0  0
 29  7  1  0  0  0  0
 30 19  1  0  0  0  0
 30 28  1  0  0  0  0
 32  7  1  0  0  0  0
 32 19  2  0  0  0  0
 33 31  1  0  0  0  0
 33 15  1  0  0  0  0
 34 26  1  0  0  0  0
 34 15  2  0  0  0  0
 35 37  1  0  0  0  0
 36 35  2  0  0  0  0
 38 39  1  0  0  0  0
 39 41  1  1  0  0  0
 39 40  1  0  0  0  0
 40 38  1  6  0  0  0
 40  5  1  0  0  0  0
 43 41  1  1  0  0  0
 43 45  1  0  0  0  0
 45 46  1  0  0  0  0
 45 44  2  0  0  0  0
 46 42  1  1  0  0  0
 46 51  1  0  0  0  0
 47 43  1  0  0  0  0
 47 48  1  0  0  0  0
 48 53  1  1  0  0  0
 48 46  1  0  0  0  0
 49 50  1  0  0  0  0
 51 52  2  0  0  0  0
 51 49  1  0  0  0  0
 53 55  1  0  0  0  0
 54 53  1  0  0  0  0
M  END
>  <MODEL>
1

>  <REMARK>
 VINA RESULT:      -7.9      0.000      0.000
  Name = 
  6 active torsions:
  status: ('A' for Active; 'I' for Inactive)
    1  A    between atoms: C_1  and  C_53
    2  A    between atoms: C_6  and  C_20
    3  A    between atoms: C_8  and  C_43
    4  A    between atoms: C_10  and  C_32
    5  A    between atoms: C_20  and  C_42
    6  A    between atoms: C_29  and  C_38
                            x       y       z     vdW  Elec       q    Type
                         _______ _______ _______ _____ _____    ______ ____

>  <TORSDO>
F 6

$$$$
=
 OpenBabel10272401343D

 55 63  0  0  1  0  0  0  0  0999 V2000
  186.7000  178.3380  142.0780 C   0  0  0  0  0  0  0  0  0  0  0  0
  183.6850  176.8880  139.0500 C   0  0  0  0  0  3  0  0  0  0  0  0
  186.8820  177.4960  136.7280 C   0  0  0  0  0  2  0  0  0  0  0  0
  180.5720  178.0730  139.6700 C   0  0  0  0  0  2  0  0  0  0  0  0
  181.2320  176.7480  139.2490 C   0  0  2  0  0  3  0  0  0  0  0  0
  189.8560  177.5740  136.7400 C   0  0  0  0  0  2  0  0  0  0  0  0
  189.9970  176.7840  143.3060 C   0  0  0  0  0  2  0  0  0  0  0  0
  190.9880  176.6730  136.2580 C   0  0  0  0  0  2  0  0  0  0  0  0
  190.5260  176.8860  139.0810 C   0  0  0  0  0  0  0  0  0  0  0  0
  191.8200  176.3070  138.5760 C   0  0  0  0  0  2  0  0  0  0  0  0
  187.2140  178.3840  137.8040 C   0  0  1  0  0  3  0  0  0  0  0  0
  192.1830  176.8350  137.1900 C   0  0  0  0  0  2  0  0  0  0  0  0
  185.3640  179.8190  143.6060 C   0  0  0  0  0  3  0  0  0  0  0  0
  189.5310  177.3790  138.2060 C   0  0  0  0  0  0  0  0  0  0  0  0
  182.9810  178.8840  142.4670 C   0  0  0  0  0  0  0  0  0  0  0  0
  186.9120  178.3220  140.6960 C   0  0  0  0  0  3  0  0  0  0  0  0
  184.2110  178.4000  142.0110 C   0  0  0  0  0  3  0  0  0  0  0  0
  188.6640  177.5020  145.2630 C   0  0  2  0  0  3  0  0  0  0  0  0
  189.0910  177.3100  140.9960 C   0  0  0  0  0  0  0  0  0  0  0  0
  187.6940  177.8240  142.9410 C   0  0  0  0  0  0  0  0  0  0  0  0
  182.4000  176.9920  138.3010 C   0  0  0  0  0  2  0  0  0  0  0  0
  190.2880  176.8370  140.4510 C   0  0  0  0  0  3  0  0  0  0  0  0
  184.8020  177.2190  138.4730 C   0  0  0  0  0  0  0  0  0  0  0  0
  187.4070  177.7020  144.4200 C   0  0  0  0  0  2  0  0  0  0  0  0
  185.9100  177.5700  137.8870 C   0  0  0  0  0  0  0  0  0  0  0  0
  184.1340  180.3100  144.0580 C   0  0  0  0  0  3  0  0  0  0  0  0
  185.4100  178.8570  142.5800 C   0  0  0  0  0  0  0  0  0  0  0  0
  188.2810  177.8110  138.7270 C   0  0  0  0  0  0  0  0  0  0  0  0
  189.4890  176.3660  144.6740 C   0  0  0  0  0  2  0  0  0  0  0  0
  188.0880  177.8130  140.1340 C   0  0  0  0  0  0  0  0  0  0  0  0
  181.5270  178.9440  140.4760 C   0  0  0  0  0  2  0  0  0  0  0  0
  188.8890  177.2890  142.3940 C   0  0  0  0  0  0  0  0  0  0  0  0
  181.7170  178.3720  141.8670 C   0  0  0  0  0  2  0  0  0  0  0  0
  182.9430  179.8430  143.4880 C   0  0  0  0  0  3  0  0  0  0  0  0
  188.2900  177.2640  146.7000 C   0  0  0  0  0  0  0  0  0  0  0  0
  187.0580  177.5600  147.1130 C   0  0  0  0  0  2  0  0  0  0  0  0
  189.2740  176.7260  147.7000 C   0  0  0  0  0  1  0  0  0  0  0  0
  179.9820  175.8640  137.1740 C   0  0  0  0  0  2  0  0  0  0  0  0
  181.0090  174.8320  137.6100 C   0  0  1  0  0  3  0  0  0  0  0  0
  180.2890  175.6820  138.6510 C   0  0  1  0  0  3  0  0  0  0  0  0
  180.3950  173.4410  137.5210 C   0  0  0  0  0  2  0  0  0  0  0  0
  183.7990  170.6630  135.3770 C   0  0  0  0  0  1  0  0  0  0  0  0
  180.9750  172.5940  136.3890 C   0  0  2  0  0  3  0  0  0  0  0  0
  182.0950  170.9680  137.7400 O   0  0  0  0  0  0  0  0  0  0  0  0
  182.1460  171.7760  136.8210 C   0  0  0  0  0  0  0  0  0  0  0  0
  183.3700  171.9900  135.9930 C   0  0  2  0  0  0  0  0  0  0  0  0
  181.5400  173.5260  135.3250 C   0  0  0  0  0  2  0  0  0  0  0  0
  182.8660  172.9130  134.8640 C   0  0  1  0  0  3  0  0  0  0  0  0
  185.8290  172.1700  136.6730 N   0  0  0  0  0  2  0  0  0  0  0  0
  186.9160  172.6930  137.4740 C   0  0  0  0  0  1  0  0  0  0  0  0
  184.4740  172.5990  136.8410 C   0  0  0  0  0  0  0  0  0  0  0  0
  184.2080  173.5240  137.6590 O   0  0  0  0  0  0  0  0  0  0  0  0
  183.8530  173.9810  134.3730 C   0  0  0  0  0  3  0  0  0  0  0  0
  185.1560  173.4640  134.3500 O   0  0  0  0  0  1  0  0  0  0  0  0
  183.8130  175.0880  135.2240 O   0  0  0  0  0  1  0  0  0  0  0  0
  1 27  1  0  0  0  0
  1 20  1  0  0  0  0
  3 25  1  0  0  0  0
  4 31  1  0  0  0  0
  5 21  1  6  0  0  0
  5  4  1  0  0  0  0
  6 14  1  0  0  0  0
  7 29  1  0  0  0  0
  8  6  1  0  0  0  0
  8 12  1  0  0  0  0
  9 22  1  0  0  0  0
 10  9  1  0  0  0  0
 11  3  1  6  0  0  0
 11 25  1  0  0  0  0
 11 28  1  0  0  0  0
 12 10  1  0  0  0  0
 13 26  1  0  0  0  0
 14 28  1  0  0  0  0
 14  9  2  0  0  0  0
 15 34  1  0  0  0  0
 16  1  2  0  0  0  0
 17 15  2  0  0  0  0
 17 27  1  0  0  0  0
 18 35  1  1  0  0  0
 19 32  1  0  0  0  0
 20 24  1  0  0  0  0
 21  2  1  0  0  0  0
 22 19  2  0  0  0  0
 23  2  2  0  0  0  0
 24 18  1  0  0  0  0
 25 23  2  0  0  0  0
 27 13  2  0  0  0  0
 28 30  2  0  0  0  0
 29 18  1  0  0  0  0
 30 16  1  0  0  0  0
 30 19  1  0  0  0  0
 31 33  1  0  0  0  0
 32 20  2  0  0  0  0
 32  7  1  0  0  0  0
 33 15  1  0  0  0  0
 34 26  2  0  0  0  0
 35 36  2  0  0  0  0
 35 37  1  0  0  0  0
 38 39  1  0  0  0  0
 39 41  1  1  0  0  0
 39 40  1  0  0  0  0
 40 38  1  6  0  0  0
 40  5  1  0  0  0  0
 43 45  1  0  0  0  0
 43 41  1  1  0  0  0
 45 44  2  0  0  0  0
 46 42  1  6  0  0  0
 46 45  1  0  0  0  0
 46 51  1  0  0  0  0
 47 43  1  0  0  0  0
 48 53  1  1  0  0  0
 48 47  1  0  0  0  0
 48 46  1  0  0  0  0
 49 51  1  0  0  0  0
 49 50  1  0  0  0  0
 51 52  2  0  0  0  0
 53 55  1  0  0  0  0
 54 53  1  0  0  0  0
M  END
>  <MODEL>
2

>  <REMARK>
 VINA RESULT:      -7.7      4.539      9.681
  Name = 
  6 active torsions:
  status: ('A' for Active; 'I' for Inactive)
    1  A    between atoms: C_1  and  C_53
    2  A    between atoms: C_6  and  C_20
    3  A    between atoms: C_8  and  C_43
    4  A    between atoms: C_10  and  C_32
    5  A    between atoms: C_20  and  C_42
    6  A    between atoms: C_29  and  C_38
                            x       y       z     vdW  Elec       q    Type
                         _______ _______ _______ _____ _____    ______ ____

>  <TORSDO>
F 6

$$$$
=
 OpenBabel10272401343D

 55 63  0  0  1  0  0  0  0  0999 V2000
  187.0420  178.3010  139.5360 C   0  0  0  0  0  0  0  0  0  0  0  0
  190.6190  175.6320  138.8670 C   0  0  0  0  0  3  0  0  0  0  0  0
  191.3560  177.0050  142.5490 C   0  0  0  0  0  2  0  0  0  0  0  0
  191.7600  175.7910  135.6810 C   0  0  0  0  0  2  0  0  0  0  0  0
  191.4980  174.7180  136.7530 C   0  0  2  0  0  3  0  0  0  0  0  0
  190.0490  178.0520  145.0080 C   0  0  0  0  0  2  0  0  0  0  0  0
  184.1360  178.0520  142.0430 C   0  0  0  0  0  2  0  0  0  0  0  0
  189.7360  177.5270  146.4050 C   0  0  0  0  0  2  0  0  0  0  0  0
  187.5650  177.8740  144.5630 C   0  0  0  0  0  0  0  0  0  0  0  0
  187.2810  177.7010  146.0310 C   0  0  0  0  0  2  0  0  0  0  0  0
  190.5060  178.0610  142.0820 C   0  0  1  0  0  3  0  0  0  0  0  0
  188.4460  178.1680  146.8990 C   0  0  0  0  0  2  0  0  0  0  0  0
  186.6910  179.4160  137.3120 C   0  0  0  0  0  3  0  0  0  0  0  0
  188.8810  177.9180  144.0520 C   0  0  0  0  0  0  0  0  0  0  0  0
  188.4910  177.6380  136.1090 C   0  0  0  0  0  0  0  0  0  0  0  0
  188.1340  178.2100  140.4040 C   0  0  0  0  0  3  0  0  0  0  0  0
  188.2170  177.5380  137.4760 C   0  0  0  0  0  3  0  0  0  0  0  0
  183.2220  178.4960  139.7860 C   0  0  2  0  0  3  0  0  0  0  0  0
  186.6570  178.0050  142.3120 C   0  0  0  0  0  0  0  0  0  0  0  0
  185.7300  178.2350  140.0570 C   0  0  0  0  0  0  0  0  0  0  0  0
  191.8580  175.2300  138.1430 C   0  0  0  0  0  2  0  0  0  0  0  0
  186.4790  177.8950  143.6940 C   0  0  0  0  0  3  0  0  0  0  0  0
  190.7050  176.2480  140.0090 C   0  0  0  0  0  0  0  0  0  0  0  0
  184.5540  178.1830  139.1100 C   0  0  0  0  0  2  0  0  0  0  0  0
  190.8070  176.8780  141.1430 C   0  0  0  0  0  0  0  0  0  0  0  0
  186.9690  179.5220  135.9450 C   0  0  0  0  0  3  0  0  0  0  0  0
  187.3120  178.4190  138.0870 C   0  0  0  0  0  0  0  0  0  0  0  0
  189.0950  177.9700  142.6480 C   0  0  0  0  0  0  0  0  0  0  0  0
  183.0780  177.6370  141.0360 C   0  0  0  0  0  2  0  0  0  0  0  0
  187.9700  178.0570  141.7850 C   0  0  0  0  0  0  0  0  0  0  0  0
  190.8630  177.0070  135.8720 C   0  0  0  0  0  2  0  0  0  0  0  0
  185.5380  178.0670  141.4520 C   0  0  0  0  0  0  0  0  0  0  0  0
  189.4380  176.6790  135.4730 C   0  0  0  0  0  2  0  0  0  0  0  0
  187.8690  178.6330  135.3430 C   0  0  0  0  0  3  0  0  0  0  0  0
  182.0900  178.3030  138.8150 C   0  0  0  0  0  0  0  0  0  0  0  0
  181.8340  179.2500  137.9130 C   0  0  0  0  0  2  0  0  0  0  0  0
  181.2140  177.0820  138.8450 C   0  0  0  0  0  1  0  0  0  0  0  0
  191.7750  172.6730  135.2060 C   0  0  0  0  0  2  0  0  0  0  0  0
  193.1080  173.3930  135.3190 C   0  0  1  0  0  3  0  0  0  0  0  0
  192.1620  173.3450  136.5130 C   0  0  1  0  0  3  0  0  0  0  0  0
  194.2240  172.3670  135.4660 C   0  0  0  0  0  2  0  0  0  0  0  0
  198.9660  171.9490  134.3460 C   0  0  0  0  0  1  0  0  0  0  0  0
  195.5210  172.7780  134.7690 C   0  0  2  0  0  3  0  0  0  0  0  0
  196.3740  170.5840  134.3460 O   0  0  0  0  0  0  0  0  0  0  0  0
  196.5590  171.7060  134.8000 C   0  0  0  0  0  0  0  0  0  0  0  0
  197.8620  172.1440  135.3810 C   0  0  2  0  0  0  0  0  0  0  0  0
  196.1470  173.9280  135.5480 C   0  0  0  0  0  2  0  0  0  0  0  0
  197.6540  173.6570  135.5940 C   0  0  1  0  0  3  0  0  0  0  0  0
  199.4570  170.8460  136.9010 N   0  0  0  0  0  2  0  0  0  0  0  0
  199.7780  170.0780  138.0870 C   0  0  0  0  0  1  0  0  0  0  0  0
  198.1500  171.3740  136.6590 C   0  0  0  0  0  0  0  0  0  0  0  0
  197.2490  171.2450  137.5360 O   0  0  0  0  0  0  0  0  0  0  0  0
  198.3080  174.2600  136.8450 C   0  0  0  0  0  3  0  0  0  0  0  0
  197.5940  175.3890  137.2700 O   0  0  0  0  0  1  0  0  0  0  0  0
  199.6250  174.6310  136.5580 O   0  0  0  0  0  1  0  0  0  0  0  0
  1 20  2  0  0  0  0
  1 16  1  0  0  0  0
  2 23  2  0  0  0  0
  4 31  1  0  0  0  0
  5  4  1  6  0  0  0
  5 21  1  0  0  0  0
  6  8  1  0  0  0  0
  8 12  1  0  0  0  0
  9 10  1  0  0  0  0
 10 12  1  0  0  0  0
 11  3  1  1  0  0  0
 11 28  1  0  0  0  0
 13 27  1  0  0  0  0
 14  9  1  0  0  0  0
 14  6  1  0  0  0  0
 15 17  1  0  0  0  0
 16 30  2  0  0  0  0
 17 27  2  0  0  0  0
 18 35  1  6  0  0  0
 18 29  1  0  0  0  0
 19 22  1  0  0  0  0
 20 32  1  0  0  0  0
 21  2  1  0  0  0  0
 22  9  2  0  0  0  0
 23 25  2  0  0  0  0
 24 18  1  0  0  0  0
 24 20  1  0  0  0  0
 25 11  1  0  0  0  0
 25  3  1  0  0  0  0
 26 13  2  0  0  0  0
 27  1  1  0  0  0  0
 28 14  2  0  0  0  0
 29  7  1  0  0  0  0
 30 19  1  0  0  0  0
 30 28  1  0  0  0  0
 32  7  1  0  0  0  0
 32 19  2  0  0  0  0
 33 31  1  0  0  0  0
 33 15  1  0  0  0  0
 34 26  1  0  0  0  0
 34 15  2  0  0  0  0
 35 37  1  0  0  0  0
 36 35  2  0  0  0  0
 38 39  1  0  0  0  0
 39 41  1  1  0  0  0
 39 40  1  0  0  0  0
 40 38  1  6  0  0  0
 40  5  1  0  0  0  0
 43 45  1  0  0  0  0
 43 41  1  1  0  0  0
 43 47  1  0  0  0  0
 44 45  2  0  0  0  0
 45 46  1  0  0  0  0
 46 42  1  6  0  0  0
 46 48  1  0  0  0  0
 46 51  1  0  0  0  0
 47 48  1  0  0  0  0
 48 53  1  1  0  0  0
 49 50  1  0  0  0  0
 51 49  1  0  0  0  0
 51 52  2  0  0  0  0
 53 54  1  0  0  0  0
 55 53  1  0  0  0  0
M  END
>  <MODEL>
3

>  <REMARK>
 VINA RESULT:      -6.9      1.330      1.684
  Name = 
  6 active torsions:
  status: ('A' for Active; 'I' for Inactive)
    1  A    between atoms: C_1  and  C_53
    2  A    between atoms: C_6  and  C_20
    3  A    between atoms: C_8  and  C_43
    4  A    between atoms: C_10  and  C_32
    5  A    between atoms: C_20  and  C_42
    6  A    between atoms: C_29  and  C_38
                            x       y       z     vdW  Elec       q    Type
                         _______ _______ _______ _____ _____    ______ ____

>  <TORSDO>
F 6

$$$$
=
 OpenBabel10272401343D

 55 63  0  0  1  0  0  0  0  0999 V2000
  186.9760  178.2970  139.5690 C   0  0  0  0  0  0  0  0  0  0  0  0
  190.5240  175.6080  138.8330 C   0  0  0  0  0  3  0  0  0  0  0  0
  191.3280  176.9610  142.5070 C   0  0  0  0  0  2  0  0  0  0  0  0
  191.6150  175.7720  135.6300 C   0  0  0  0  0  2  0  0  0  0  0  0
  191.3630  174.6970  136.7010 C   0  0  2  0  0  3  0  0  0  0  0  0
  190.0680  178.0080  144.9910 C   0  0  0  0  0  2  0  0  0  0  0  0
  184.1080  178.0560  142.1210 C   0  0  0  0  0  2  0  0  0  0  0  0
  189.7740  177.4780  146.3910 C   0  0  0  0  0  2  0  0  0  0  0  0
  187.5750  177.8470  144.5850 C   0  0  0  0  0  0  0  0  0  0  0  0
  187.3140  177.6700  146.0570 C   0  0  0  0  0  2  0  0  0  0  0  0
  190.4780  178.0250  142.0580 C   0  0  1  0  0  3  0  0  0  0  0  0
  188.4960  178.1260  146.9090 C   0  0  0  0  0  2  0  0  0  0  0  0
  186.5960  179.4220  137.3560 C   0  0  0  0  0  3  0  0  0  0  0  0
  188.8840  177.8850  144.0540 C   0  0  0  0  0  0  0  0  0  0  0  0
  188.3650  177.6380  136.1170 C   0  0  0  0  0  0  0  0  0  0  0  0
  188.0810  178.1950  140.4200 C   0  0  0  0  0  3  0  0  0  0  0  0
  188.1120  177.5340  137.4880 C   0  0  0  0  0  3  0  0  0  0  0  0
  183.1610  178.5150  139.8810 C   0  0  2  0  0  3  0  0  0  0  0  0
  186.6330  177.9920  142.3500 C   0  0  0  0  0  0  0  0  0  0  0  0
  185.6710  178.2370  140.1110 C   0  0  0  0  0  0  0  0  0  0  0  0
  191.7490  175.2010  138.0880 C   0  0  0  0  0  2  0  0  0  0  0  0
  186.4760  177.8780  143.7340 C   0  0  0  0  0  3  0  0  0  0  0  0
  190.6320  176.2190  139.9760 C   0  0  0  0  0  0  0  0  0  0  0  0
  184.4800  178.1960  139.1830 C   0  0  0  0  0  2  0  0  0  0  0  0
  190.7560  176.8440  141.1110 C   0  0  0  0  0  0  0  0  0  0  0  0
  186.8530  179.5320  135.9840 C   0  0  0  0  0  3  0  0  0  0  0  0
  187.2230  178.4190  138.1170 C   0  0  0  0  0  0  0  0  0  0  0  0
  189.0760  177.9410  142.6470 C   0  0  0  0  0  0  0  0  0  0  0  0
  183.0320  177.6520  141.1300 C   0  0  0  0  0  2  0  0  0  0  0  0
  187.9380  178.0380  141.8030 C   0  0  0  0  0  0  0  0  0  0  0  0
  190.7290  176.9930  135.8400 C   0  0  0  0  0  2  0  0  0  0  0  0
  185.5000  178.0650  141.5080 C   0  0  0  0  0  0  0  0  0  0  0  0
  189.2960  176.6760  135.4620 C   0  0  0  0  0  2  0  0  0  0  0  0
  187.7370  178.6400  135.3650 C   0  0  0  0  0  3  0  0  0  0  0  0
  182.0120  178.3330  138.9280 C   0  0  0  0  0  0  0  0  0  0  0  0
  182.2590  178.2080  137.6240 C   0  0  0  0  0  2  0  0  0  0  0  0
  180.5840  178.3130  139.3950 C   0  0  0  0  0  1  0  0  0  0  0  0
  192.3560  173.0410  134.9920 C   0  0  0  0  0  2  0  0  0  0  0  0
  193.4490  173.4740  135.9540 C   0  0  1  0  0  3  0  0  0  0  0  0
  192.0140  173.3200  136.4460 C   0  0  1  0  0  3  0  0  0  0  0  0
  194.2910  172.2640  136.3390 C   0  0  0  0  0  2  0  0  0  0  0  0
  198.0930  174.6720  138.2500 C   0  0  0  0  0  1  0  0  0  0  0  0
  195.3350  172.5690  137.4120 C   0  0  2  0  0  3  0  0  0  0  0  0
  195.3940  174.9450  137.1440 O   0  0  0  0  0  0  0  0  0  0  0  0
  196.0060  173.8860  137.2090 C   0  0  0  0  0  0  0  0  0  0  0  0
  197.4950  173.8020  137.1490 C   0  0  2  0  0  0  0  0  0  0  0  0
  196.4630  171.5520  137.2960 C   0  0  0  0  0  2  0  0  0  0  0  0
  197.7720  172.3240  137.4900 C   0  0  1  0  0  3  0  0  0  0  0  0
  199.2050  174.9610  135.6410 N   0  0  0  0  0  2  0  0  0  0  0  0
  199.7040  175.4130  134.3580 C   0  0  0  0  0  1  0  0  0  0  0  0
  197.9870  174.2210  135.7740 C   0  0  0  0  0  0  0  0  0  0  0  0
  197.3510  173.8710  134.7400 O   0  0  0  0  0  0  0  0  0  0  0  0
  198.9420  171.6660  136.7470 C   0  0  0  0  0  3  0  0  0  0  0  0
  198.7320  170.2840  136.6370 O   0  0  0  0  0  1  0  0  0  0  0  0
  200.1320  171.8960  137.4430 O   0  0  0  0  0  1  0  0  0  0  0  0
  1 20  2  0  0  0  0
  1 16  1  0  0  0  0
  2 23  2  0  0  0  0
  4 31  1  0  0  0  0
  5  4  1  6  0  0  0
  5 21  1  0  0  0  0
  6  8  1  0  0  0  0
  8 12  1  0  0  0  0
  9 10  1  0  0  0  0
 10 12  1  0  0  0  0
 11  3  1  1  0  0  0
 11 28  1  0  0  0  0
 13 27  1  0  0  0  0
 14  9  1  0  0  0  0
 14  6  1  0  0  0  0
 15 17  1  0  0  0  0
 16 30  2  0  0  0  0
 17 27  2  0  0  0  0
 18 35  1  6  0  0  0
 18 29  1  0  0  0  0
 19 22  1  0  0  0  0
 20 32  1  0  0  0  0
 21  2  1  0  0  0  0
 22  9  2  0  0  0  0
 23 25  2  0  0  0  0
 24 18  1  0  0  0  0
 24 20  1  0  0  0  0
 25 11  1  0  0  0  0
 25  3  1  0  0  0  0
 26 13  2  0  0  0  0
 27  1  1  0  0  0  0
 28 14  2  0  0  0  0
 29  7  1  0  0  0  0
 30 19  1  0  0  0  0
 30 28  1  0  0  0  0
 32  7  1  0  0  0  0
 32 19  2  0  0  0  0
 33 31  1  0  0  0  0
 33 15  1  0  0  0  0
 34 26  1  0  0  0  0
 34 15  2  0  0  0  0
 35 37  1  0  0  0  0
 36 35  2  0  0  0  0
 38 39  1  0  0  0  0
 39 41  1  1  0  0  0
 39 40  1  0  0  0  0
 40 38  1  6  0  0  0
 40  5  1  0  0  0  0
 43 41  1  6  0  0  0
 44 45  2  0  0  0  0
 45 43  1  0  0  0  0
 46 45  1  0  0  0  0
 46 48  1  0  0  0  0
 46 42  1  1  0  0  0
 47 43  1  0  0  0  0
 47 48  1  0  0  0  0
 48 53  1  6  0  0  0
 49 51  1  0  0  0  0
 50 49  1  0  0  0  0
 51 46  1  0  0  0  0
 52 51  2  0  0  0  0
 53 55  1  0  0  0  0
 54 53  1  0  0  0  0
M  END
>  <MODEL>
4

>  <REMARK>
 VINA RESULT:      -6.7      1.291      2.232
  Name = 
  6 active torsions:
  status: ('A' for Active; 'I' for Inactive)
    1  A    between atoms: C_1  and  C_53
    2  A    between atoms: C_6  and  C_20
    3  A    between atoms: C_8  and  C_43
    4  A    between atoms: C_10  and  C_32
    5  A    between atoms: C_20  and  C_42
    6  A    between atoms: C_29  and  C_38
                            x       y       z     vdW  Elec       q    Type
                         _______ _______ _______ _____ _____    ______ ____

>  <TORSDO>
F 6

$$$$
=
 OpenBabel10272401343D

 55 63  0  0  1  0  0  0  0  0999 V2000
  185.8180  178.6320  141.7380 C   0  0  0  0  0  0  0  0  0  0  0  0
  188.4680  176.0950  139.1110 C   0  0  0  0  0  3  0  0  0  0  0  0
  190.9620  176.9680  142.1110 C   0  0  0  0  0  2  0  0  0  0  0  0
  187.9480  176.6840  135.8150 C   0  0  0  0  0  2  0  0  0  0  0  0
  188.1680  175.4760  136.7430 C   0  0  2  0  0  3  0  0  0  0  0  0
  191.0600  177.6720  145.0000 C   0  0  0  0  0  2  0  0  0  0  0  0
  184.4610  178.0350  145.2880 C   0  0  0  0  0  2  0  0  0  0  0  0
  191.4250  176.9620  146.3000 C   0  0  0  0  0  2  0  0  0  0  0  0
  188.6610  177.5410  145.7940 C   0  0  0  0  0  0  0  0  0  0  0  0
  189.1070  177.1720  147.1840 C   0  0  0  0  0  2  0  0  0  0  0  0
  190.0570  178.0730  142.2430 C   0  0  1  0  0  3  0  0  0  0  0  0
  190.5720  177.5250  147.4290 C   0  0  0  0  0  2  0  0  0  0  0  0
  184.5100  180.0310  140.1130 C   0  0  0  0  0  3  0  0  0  0  0  0
  189.5720  177.6600  144.7200 C   0  0  0  0  0  0  0  0  0  0  0  0
  185.4020  178.4390  137.9880 C   0  0  0  0  0  0  0  0  0  0  0  0
  187.1850  178.4310  141.9530 C   0  0  0  0  0  3  0  0  0  0  0  0
  185.8120  178.1560  139.2940 C   0  0  0  0  0  3  0  0  0  0  0  0
  182.6050  178.7710  143.8260 C   0  0  2  0  0  3  0  0  0  0  0  0
  186.7950  177.9660  144.2970 C   0  0  0  0  0  0  0  0  0  0  0  0
  184.9150  178.4900  142.8170 C   0  0  0  0  0  0  0  0  0  0  0  0
  189.1810  175.8000  137.8360 C   0  0  0  0  0  2  0  0  0  0  0  0
  187.2950  177.6710  145.5680 C   0  0  0  0  0  3  0  0  0  0  0  0
  189.1280  176.5530  140.1330 C   0  0  0  0  0  0  0  0  0  0  0  0
  183.4280  178.5590  142.5580 C   0  0  0  0  0  2  0  0  0  0  0  0
  189.7990  177.0270  141.1420 C   0  0  0  0  0  0  0  0  0  0  0  0
  184.1040  180.3210  138.8060 C   0  0  0  0  0  3  0  0  0  0  0  0
  185.3660  178.9440  140.3660 C   0  0  0  0  0  0  0  0  0  0  0  0
  189.0880  177.9000  143.4050 C   0  0  0  0  0  0  0  0  0  0  0  0
  183.0280  177.7530  144.8760 C   0  0  0  0  0  2  0  0  0  0  0  0
  187.6950  178.0950  143.2110 C   0  0  0  0  0  0  0  0  0  0  0  0
  187.3280  177.8590  136.5600 C   0  0  0  0  0  2  0  0  0  0  0  0
  185.4070  178.1360  144.1000 C   0  0  0  0  0  0  0  0  0  0  0  0
  185.8690  177.5790  136.8640 C   0  0  0  0  0  2  0  0  0  0  0  0
  184.5500  179.5250  137.7430 C   0  0  0  0  0  3  0  0  0  0  0  0
  181.1370  178.7030  143.5080 C   0  0  0  0  0  0  0  0  0  0  0  0
  180.6510  179.4340  142.5050 C   0  0  0  0  0  2  0  0  0  0  0  0
  180.1880  177.8550  144.3060 C   0  0  0  0  0  1  0  0  0  0  0  0
  188.9440  173.0300  137.0010 C   0  0  0  0  0  2  0  0  0  0  0  0
  187.5550  173.0460  136.3850 C   0  0  1  0  0  3  0  0  0  0  0  0
  188.5520  174.1510  136.0510 C   0  0  1  0  0  3  0  0  0  0  0  0
  187.4880  172.0160  135.2650 C   0  0  0  0  0  2  0  0  0  0  0  0
  182.9360  173.5460  134.3460 C   0  0  0  0  0  1  0  0  0  0  0  0
  186.1340  171.9770  134.5580 C   0  0  2  0  0  3  0  0  0  0  0  0
  185.7540  174.3370  134.4510 O   0  0  0  0  0  0  0  0  0  0  0  0
  185.3400  173.2260  134.7590 C   0  0  0  0  0  0  0  0  0  0  0  0
  183.9750  172.9910  135.3140 C   0  0  2  0  0  0  0  0  0  0  0  0
  185.2830  170.8870  135.1960 C   0  0  0  0  0  2  0  0  0  0  0  0
  183.8650  171.4530  135.3210 C   0  0  1  0  0  3  0  0  0  0  0  0
  182.9580  174.7190  136.9010 N   0  0  0  0  0  2  0  0  0  0  0  0
  182.8260  175.3810  138.1830 C   0  0  0  0  0  1  0  0  0  0  0  0
  183.8550  173.6250  136.6900 C   0  0  0  0  0  0  0  0  0  0  0  0
  184.5070  173.1520  137.6640 O   0  0  0  0  0  0  0  0  0  0  0  0
  183.1010  170.8350  136.5000 C   0  0  0  0  0  3  0  0  0  0  0  0
  183.3730  169.4620  136.5890 O   0  0  0  0  0  1  0  0  0  0  0  0
  181.7270  171.0210  136.3230 O   0  0  0  0  0  1  0  0  0  0  0  0
  1 16  2  0  0  0  0
  1 20  1  0  0  0  0
  2 23  2  0  0  0  0
  4 31  1  0  0  0  0
  5  4  1  6  0  0  0
  5 21  1  0  0  0  0
  6  8  1  0  0  0  0
  8 12  1  0  0  0  0
  9 10  1  0  0  0  0
 10 12  1  0  0  0  0
 11  3  1  1  0  0  0
 11 28  1  0  0  0  0
 13 27  1  0  0  0  0
 14  6  1  0  0  0  0
 14  9  2  0  0  0  0
 15 17  1  0  0  0  0
 16 30  1  0  0  0  0
 17 27  2  0  0  0  0
 18 35  1  6  0  0  0
 18 29  1  0  0  0  0
 19 22  2  0  0  0  0
 20 32  2  0  0  0  0
 21  2  1  0  0  0  0
 22  9  1  0  0  0  0
 23 25  2  0  0  0  0
 24 20  1  0  0  0  0
 24 18  1  0  0  0  0
 25  3  1  0  0  0  0
 25 11  1  0  0  0  0
 26 13  2  0  0  0  0
 27  1  1  0  0  0  0
 28 14  1  0  0  0  0
 29  7  1  0  0  0  0
 30 28  2  0  0  0  0
 30 19  1  0  0  0  0
 31 33  1  0  0  0  0
 32 19  1  0  0  0  0
 32  7  1  0  0  0  0
 33 15  1  0  0  0  0
 34 15  2  0  0  0  0
 34 26  1  0  0  0  0
 35 37  1  0  0  0  0
 36 35  2  0  0  0  0
 39 41  1  6  0  0  0
 39 38  1  0  0  0  0
 40 39  1  0  0  0  0
 40  5  1  0  0  0  0
 40 38  1  1  0  0  0
 43 45  1  0  0  0  0
 43 47  1  0  0  0  0
 43 41  1  1  0  0  0
 44 45  2  0  0  0  0
 45 46  1  0  0  0  0
 46 42  1  6  0  0  0
 46 48  1  0  0  0  0
 46 51  1  0  0  0  0
 47 48  1  0  0  0  0
 48 53  1  1  0  0  0
 49 50  1  0  0  0  0
 51 49  1  0  0  0  0
 51 52  2  0  0  0  0
 53 54  1  0  0  0  0
 55 53  1  0  0  0  0
M  END
>  <MODEL>
5

>  <REMARK>
 VINA RESULT:      -6.6      4.929      7.142
  Name = 
  6 active torsions:
  status: ('A' for Active; 'I' for Inactive)
    1  A    between atoms: C_1  and  C_53
    2  A    between atoms: C_6  and  C_20
    3  A    between atoms: C_8  and  C_43
    4  A    between atoms: C_10  and  C_32
    5  A    between atoms: C_20  and  C_42
    6  A    between atoms: C_29  and  C_38
                            x       y       z     vdW  Elec       q    Type
                         _______ _______ _______ _____ _____    ______ ____

>  <TORSDO>
F 6

$$$$
=
 OpenBabel10272401343D

 55 63  0  0  1  0  0  0  0  0999 V2000
  183.7350  177.0310  138.3740 C   0  0  0  0  0  0  0  0  0  0  0  0
  187.8750  175.7030  137.1680 C   0  0  0  0  0  3  0  0  0  0  0  0
  185.7500  172.4090  136.3900 C   0  0  0  0  0  2  0  0  0  0  0  0
  190.2650  176.9100  139.2450 C   0  0  0  0  0  2  0  0  0  0  0  0
  190.0530  176.7120  137.7340 C   0  0  2  0  0  3  0  0  0  0  0  0
  183.0290  171.4420  135.6710 C   0  0  0  0  0  2  0  0  0  0  0  0
  180.5370  177.5380  136.2970 C   0  0  0  0  0  2  0  0  0  0  0  0
  182.3380  170.9120  134.4190 C   0  0  0  0  0  2  0  0  0  0  0  0
  181.6480  173.5370  135.3480 C   0  0  0  0  0  0  0  0  0  0  0  0
  180.7630  172.8380  134.3500 C   0  0  0  0  0  2  0  0  0  0  0  0
  184.8860  173.0070  137.3660 C   0  0  1  0  0  3  0  0  0  0  0  0
  180.8710  171.3190  134.4520 C   0  0  0  0  0  2  0  0  0  0  0  0
  184.1130  178.3960  140.4490 C   0  0  0  0  0  3  0  0  0  0  0  0
  182.8000  172.9230  135.8880 C   0  0  0  0  0  0  0  0  0  0  0  0
  186.8720  178.4120  139.9630 C   0  0  0  0  0  0  0  0  0  0  0  0
  184.0710  175.7240  138.0070 C   0  0  0  0  0  3  0  0  0  0  0  0
  186.0110  177.7510  139.0830 C   0  0  0  0  0  3  0  0  0  0  0  0
  180.8820  179.5140  137.7460 C   0  0  2  0  0  3  0  0  0  0  0  0
  182.1500  175.5950  136.5380 C   0  0  0  0  0  0  0  0  0  0  0  0
  182.5910  177.6410  137.8100 C   0  0  0  0  0  0  0  0  0  0  0  0
  189.3100  175.4110  137.4490 C   0  0  0  0  0  2  0  0  0  0  0  0
  181.3510  174.8600  135.6580 C   0  0  0  0  0  3  0  0  0  0  0  0
  187.0230  174.7280  137.0580 C   0  0  0  0  0  0  0  0  0  0  0  0
  182.3100  179.0990  138.0890 C   0  0  0  0  0  2  0  0  0  0  0  0
  186.1790  173.7410  136.9660 C   0  0  0  0  0  0  0  0  0  0  0  0
  184.9750  179.0520  141.3360 C   0  0  0  0  0  3  0  0  0  0  0  0
  184.6270  177.7430  139.3140 C   0  0  0  0  0  0  0  0  0  0  0  0
  183.6630  173.6640  136.7400 C   0  0  0  0  0  0  0  0  0  0  0  0
  180.5510  179.0550  136.3320 C   0  0  0  0  0  2  0  0  0  0  0  0
  183.3040  174.9920  137.0950 C   0  0  0  0  0  0  0  0  0  0  0  0
  188.9410  177.0700  139.9820 C   0  0  0  0  0  2  0  0  0  0  0  0
  181.8050  176.9240  136.8720 C   0  0  0  0  0  0  0  0  0  0  0  0
  188.3370  178.4300  139.6910 C   0  0  0  0  0  2  0  0  0  0  0  0
  186.3540  179.0600  141.0930 C   0  0  0  0  0  3  0  0  0  0  0  0
  180.7150  180.9970  137.9290 C   0  0  0  0  0  0  0  0  0  0  0  0
  180.4920  181.4830  139.1500 C   0  0  0  0  0  2  0  0  0  0  0  0
  180.7620  181.9540  136.7720 C   0  0  0  0  0  1  0  0  0  0  0  0
  192.6300  176.7200  137.6260 C   0  0  0  0  0  2  0  0  0  0  0  0
  192.1080  175.4870  136.9060 C   0  0  1  0  0  3  0  0  0  0  0  0
  191.3200  176.7920  136.8560 C   0  0  1  0  0  3  0  0  0  0  0  0
  192.9010  175.2790  135.6230 C   0  0  0  0  0  2  0  0  0  0  0  0
  195.8300  172.0760  137.8740 C   0  0  0  0  0  1  0  0  0  0  0  0
  193.8540  174.0860  135.6860 C   0  0  2  0  0  3  0  0  0  0  0  0
  193.1270  173.1990  137.7850 O   0  0  0  0  0  0  0  0  0  0  0  0
  194.0500  173.5760  137.0750 C   0  0  0  0  0  0  0  0  0  0  0  0
  195.4800  173.5120  137.4990 C   0  0  2  0  0  0  0  0  0  0  0  0
  195.2400  174.5480  135.2570 C   0  0  0  0  0  2  0  0  0  0  0  0
  196.2390  173.8790  136.2070 C   0  0  1  0  0  3  0  0  0  0  0  0
  196.8770  174.3080  139.4870 N   0  0  0  0  0  2  0  0  0  0  0  0
  197.1450  175.1720  140.6180 C   0  0  0  0  0  1  0  0  0  0  0  0
  195.7260  174.4700  138.6520 C   0  0  0  0  0  0  0  0  0  0  0  0
  194.9450  175.4430  138.8450 O   0  0  0  0  0  0  0  0  0  0  0  0
  197.5120  174.7170  136.3850 C   0  0  0  0  0  3  0  0  0  0  0  0
  197.2500  176.0650  136.1010 O   0  0  0  0  0  1  0  0  0  0  0  0
  198.5100  174.2510  135.5240 O   0  0  0  0  0  1  0  0  0  0  0  0
  1 27  1  0  0  0  0
  2 21  1  0  0  0  0
  3 25  1  0  0  0  0
  4 31  1  0  0  0  0
  5 21  1  1  0  0  0
  5  4  1  0  0  0  0
  6 14  1  0  0  0  0
  7 29  1  0  0  0  0
  7 32  1  0  0  0  0
  8 12  1  0  0  0  0
  8  6  1  0  0  0  0
  9 22  2  0  0  0  0
  9 14  1  0  0  0  0
 10 12  1  0  0  0  0
 10  9  1  0  0  0  0
 11  3  1  6  0  0  0
 13 26  1  0  0  0  0
 14 28  2  0  0  0  0
 15 34  1  0  0  0  0
 16  1  1  0  0  0  0
 17 27  1  0  0  0  0
 17 15  2  0  0  0  0
 18 35  1  6  0  0  0
 18 24  1  0  0  0  0
 19 32  2  0  0  0  0
 19 30  1  0  0  0  0
 20 24  1  0  0  0  0
 20  1  2  0  0  0  0
 22 19  1  0  0  0  0
 23  2  2  0  0  0  0
 25 23  2  0  0  0  0
 25 11  1  0  0  0  0
 27 13  2  0  0  0  0
 28 30  1  0  0  0  0
 28 11  1  0  0  0  0
 29 18  1  0  0  0  0
 30 16  2  0  0  0  0
 32 20  1  0  0  0  0
 33 15  1  0  0  0  0
 33 31  1  0  0  0  0
 34 26  2  0  0  0  0
 35 36  2  0  0  0  0
 37 35  1  0  0  0  0
 39 41  1  6  0  0  0
 39 38  1  0  0  0  0
 40 39  1  0  0  0  0
 40 38  1  1  0  0  0
 40  5  1  0  0  0  0
 43 41  1  1  0  0  0
 43 45  1  0  0  0  0
 45 46  1  0  0  0  0
 45 44  2  0  0  0  0
 46 42  1  1  0  0  0
 46 51  1  0  0  0  0
 47 43  1  0  0  0  0
 47 48  1  0  0  0  0
 48 53  1  1  0  0  0
 48 46  1  0  0  0  0
 49 50  1  0  0  0  0
 51 52  2  0  0  0  0
 51 49  1  0  0  0  0
 54 53  1  0  0  0  0
 55 53  1  0  0  0  0
M  END
>  <MODEL>
6

>  <REMARK>
 VINA RESULT:      -5.9      3.103      6.383
  Name = 
  6 active torsions:
  status: ('A' for Active; 'I' for Inactive)
    1  A    between atoms: C_1  and  C_53
    2  A    between atoms: C_6  and  C_20
    3  A    between atoms: C_8  and  C_43
    4  A    between atoms: C_10  and  C_32
    5  A    between atoms: C_20  and  C_42
    6  A    between atoms: C_29  and  C_38
                            x       y       z     vdW  Elec       q    Type
                         _______ _______ _______ _____ _____    ______ ____

>  <TORSDO>
F 6

$$$$
=
 OpenBabel10272401343D

 55 63  0  0  1  0  0  0  0  0999 V2000
  186.4810  174.3890  136.3310 C   0  0  0  0  0  0  0  0  0  0  0  0
  188.8280  176.8520  139.2960 C   0  0  0  0  0  3  0  0  0  0  0  0
  185.5200  179.0610  138.9040 C   0  0  0  0  0  2  0  0  0  0  0  0
  192.1460  176.8680  138.6080 C   0  0  0  0  0  2  0  0  0  0  0  0
  191.2310  176.7480  139.8390 C   0  0  2  0  0  3  0  0  0  0  0  0
  182.6220  178.9170  138.2430 C   0  0  0  0  0  2  0  0  0  0  0  0
  183.1440  172.5090  136.6870 C   0  0  0  0  0  2  0  0  0  0  0  0
  181.3070  178.9810  139.0120 C   0  0  0  0  0  2  0  0  0  0  0  0
  182.1350  176.4530  137.9390 C   0  0  0  0  0  0  0  0  0  0  0  0
  180.7120  176.6450  138.3890 C   0  0  0  0  0  2  0  0  0  0  0  0
  185.4710  178.3600  137.6540 C   0  0  1  0  0  3  0  0  0  0  0  0
  180.2770  178.1060  138.3090 C   0  0  0  0  0  2  0  0  0  0  0  0
  188.2170  173.5710  134.7100 C   0  0  0  0  0  3  0  0  0  0  0  0
  183.0850  177.4990  137.9830 C   0  0  0  0  0  0  0  0  0  0  0  0
  190.2580  174.4250  136.4280 C   0  0  0  0  0  0  0  0  0  0  0  0
  186.1040  175.6600  136.7780 C   0  0  0  0  0  3  0  0  0  0  0  0
  188.9200  174.6080  136.7870 C   0  0  0  0  0  3  0  0  0  0  0  0
  184.8040  171.0160  135.6190 C   0  0  2  0  0  3  0  0  0  0  0  0
  183.8400  174.8990  137.1750 C   0  0  0  0  0  0  0  0  0  0  0  0
  185.5270  173.3470  136.3110 C   0  0  0  0  0  0  0  0  0  0  0  0
  190.0130  177.6560  139.7100 C   0  0  0  0  0  2  0  0  0  0  0  0
  182.5250  175.1720  137.5610 C   0  0  0  0  0  3  0  0  0  0  0  0
  187.7200  177.4480  138.9700 C   0  0  0  0  0  0  0  0  0  0  0  0
  185.9660  171.9410  135.9720 C   0  0  0  0  0  2  0  0  0  0  0  0
  186.6230  178.0600  138.6300 C   0  0  0  0  0  0  0  0  0  0  0  0
  189.5560  173.3930  134.3460 C   0  0  0  0  0  3  0  0  0  0  0  0
  187.8900  174.1790  135.9360 C   0  0  0  0  0  0  0  0  0  0  0  0
  184.4420  177.2370  137.6530 C   0  0  0  0  0  0  0  0  0  0  0  0
  183.7380  171.1120  136.7020 C   0  0  0  0  0  2  0  0  0  0  0  0
  184.8020  175.9370  137.2070 C   0  0  0  0  0  0  0  0  0  0  0  0
  191.4520  176.3800  137.3430 C   0  0  0  0  0  2  0  0  0  0  0  0
  184.2030  173.6000  136.7540 C   0  0  0  0  0  0  0  0  0  0  0  0
  191.3390  174.8680  137.3540 C   0  0  0  0  0  2  0  0  0  0  0  0
  190.5770  173.8200  135.2050 C   0  0  0  0  0  3  0  0  0  0  0  0
  185.3030  169.6120  135.4180 C   0  0  0  0  0  0  0  0  0  0  0  0
  186.5480  169.4170  134.9830 C   0  0  0  0  0  2  0  0  0  0  0  0
  184.4310  168.4130  135.6650 C   0  0  0  0  0  1  0  0  0  0  0  0
  191.9690  178.4250  141.6540 C   0  0  0  0  0  2  0  0  0  0  0  0
  190.9090  177.5030  142.2340 C   0  0  1  0  0  3  0  0  0  0  0  0
  191.9060  176.9720  141.2090 C   0  0  1  0  0  3  0  0  0  0  0  0
  191.3110  177.0980  143.6460 C   0  0  0  0  0  2  0  0  0  0  0  0
  186.6840  175.7520  144.4790 C   0  0  0  0  0  1  0  0  0  0  0  0
  190.1940  176.3920  144.4140 C   0  0  2  0  0  3  0  0  0  0  0  0
  188.8740  175.7270  142.5330 O   0  0  0  0  0  0  0  0  0  0  0  0
  188.9320  176.2780  143.6260 C   0  0  0  0  0  0  0  0  0  0  0  0
  187.7350  176.8450  144.3150 C   0  0  2  0  0  0  0  0  0  0  0  0
  189.8100  177.2500  145.6130 C   0  0  0  0  0  2  0  0  0  0  0  0
  188.2820  177.2090  145.7110 C   0  0  1  0  0  3  0  0  0  0  0  0
  185.7840  178.2150  143.3920 N   0  0  0  0  0  2  0  0  0  0  0  0
  185.2150  179.3090  142.6330 C   0  0  0  0  0  1  0  0  0  0  0  0
  187.1950  178.0310  143.5340 C   0  0  0  0  0  0  0  0  0  0  0  0
  187.9900  178.8870  143.0540 O   0  0  0  0  0  0  0  0  0  0  0  0
  187.7130  178.4850  146.3480 C   0  0  0  0  0  3  0  0  0  0  0  0
  188.4050  178.7880  147.5280 O   0  0  0  0  0  1  0  0  0  0  0  0
  186.3590  178.3010  146.6430 O   0  0  0  0  0  1  0  0  0  0  0  0
  1 16  1  0  0  0  0
  2 21  1  0  0  0  0
  5  4  1  6  0  0  0
  5 40  1  0  0  0  0
  6  8  1  0  0  0  0
  7 29  1  0  0  0  0
  7 32  1  0  0  0  0
  9 14  1  0  0  0  0
  9 10  1  0  0  0  0
 11 25  1  0  0  0  0
 11  3  1  1  0  0  0
 12 10  1  0  0  0  0
 12  8  1  0  0  0  0
 13 27  1  0  0  0  0
 14  6  1  0  0  0  0
 15 17  1  0  0  0  0
 15 33  1  0  0  0  0
 16 30  2  0  0  0  0
 18 35  1  1  0  0  0
 18 24  1  0  0  0  0
 18 29  1  0  0  0  0
 19 30  1  0  0  0  0
 19 22  1  0  0  0  0
 20  1  2  0  0  0  0
 20 32  1  0  0  0  0
 21  5  1  0  0  0  0
 22  9  2  0  0  0  0
 23  2  2  0  0  0  0
 24 20  1  0  0  0  0
 25  3  1  0  0  0  0
 25 23  2  0  0  0  0
 26 13  2  0  0  0  0
 26 34  1  0  0  0  0
 27  1  1  0  0  0  0
 27 17  2  0  0  0  0
 28 11  1  0  0  0  0
 28 14  2  0  0  0  0
 30 28  1  0  0  0  0
 31 33  1  0  0  0  0
 31  4  1  0  0  0  0
 32 19  2  0  0  0  0
 34 15  2  0  0  0  0
 35 37  1  0  0  0  0
 36 35  2  0  0  0  0
 38 39  1  0  0  0  0
 39 41  1  1  0  0  0
 40 38  1  6  0  0  0
 40 39  1  0  0  0  0
 43 41  1  6  0  0  0
 43 47  1  0  0  0  0
 44 45  2  0  0  0  0
 45 46  1  0  0  0  0
 45 43  1  0  0  0  0
 46 42  1  1  0  0  0
 46 48  1  0  0  0  0
 47 48  1  0  0  0  0
 48 53  1  6  0  0  0
 49 51  1  0  0  0  0
 50 49  1  0  0  0  0
 51 46  1  0  0  0  0
 52 51  2  0  0  0  0
 53 55  1  0  0  0  0
 53 54  1  0  0  0  0
M  END
>  <MODEL>
7

>  <REMARK>
 VINA RESULT:      -5.0      4.547      8.940
  Name = 
  6 active torsions:
  status: ('A' for Active; 'I' for Inactive)
    1  A    between atoms: C_1  and  C_53
    2  A    between atoms: C_6  and  C_20
    3  A    between atoms: C_8  and  C_43
    4  A    between atoms: C_10  and  C_32
    5  A    between atoms: C_20  and  C_42
    6  A    between atoms: C_29  and  C_38
                            x       y       z     vdW  Elec       q    Type
                         _______ _______ _______ _____ _____    ______ ____

>  <TORSDO>
F 6

$$$$
=
 OpenBabel10272401343D

 55 63  0  0  1  0  0  0  0  0999 V2000
  188.5040  174.3920  136.2910 C   0  0  0  0  0  0  0  0  0  0  0  0
  189.6500  176.9090  139.8570 C   0  0  0  0  0  3  0  0  0  0  0  0
  186.1780  178.5890  138.8080 C   0  0  0  0  0  2  0  0  0  0  0  0
  192.9810  177.5180  139.9790 C   0  0  0  0  0  2  0  0  0  0  0  0
  191.8490  177.1390  140.9490 C   0  0  2  0  0  3  0  0  0  0  0  0
  183.5760  178.0480  137.4710 C   0  0  0  0  0  2  0  0  0  0  0  0
  185.5590  171.9780  135.7430 C   0  0  0  0  0  2  0  0  0  0  0  0
  182.1320  177.8290  137.9080 C   0  0  0  0  0  2  0  0  0  0  0  0
  183.6130  175.5770  136.9280 C   0  0  0  0  0  0  0  0  0  0  0  0
  182.1150  175.4970  137.0370 C   0  0  0  0  0  2  0  0  0  0  0  0
  186.5360  178.0090  137.5470 C   0  0  1  0  0  3  0  0  0  0  0  0
  181.4580  176.8710  136.9340 C   0  0  0  0  0  2  0  0  0  0  0  0
  190.6770  174.0150  135.0880 C   0  0  0  0  0  3  0  0  0  0  0  0
  184.3280  176.7520  137.2530 C   0  0  0  0  0  0  0  0  0  0  0  0
  192.0950  175.0190  137.2860 C   0  0  0  0  0  0  0  0  0  0  0  0
  187.8180  175.5390  136.7030 C   0  0  0  0  0  3  0  0  0  0  0  0
  190.6990  174.9530  137.3250 C   0  0  0  0  0  3  0  0  0  0  0  0
  187.6540  170.8750  135.0220 C   0  0  2  0  0  3  0  0  0  0  0  0
  185.6940  174.3920  136.5100 C   0  0  0  0  0  0  0  0  0  0  0  0
  187.7790  173.2170  135.9900 C   0  0  0  0  0  0  0  0  0  0  0  0
  190.5500  177.8500  140.5830 C   0  0  0  0  0  2  0  0  0  0  0  0
  184.2980  174.4160  136.5860 C   0  0  0  0  0  3  0  0  0  0  0  0
  188.5570  177.3490  139.3090 C   0  0  0  0  0  0  0  0  0  0  0  0
  188.5240  171.9370  135.6900 C   0  0  0  0  0  2  0  0  0  0  0  0
  187.4730  177.8080  138.7510 C   0  0  0  0  0  0  0  0  0  0  0  0
  192.0730  174.0880  135.0440 C   0  0  0  0  0  3  0  0  0  0  0  0
  189.9800  174.4460  136.2320 C   0  0  0  0  0  0  0  0  0  0  0  0
  185.7500  176.7420  137.2420 C   0  0  0  0  0  0  0  0  0  0  0  0
  186.3720  170.6990  135.8240 C   0  0  0  0  0  2  0  0  0  0  0  0
  186.4240  175.5640  136.8240 C   0  0  0  0  0  0  0  0  0  0  0  0
  192.6870  177.0460  138.5610 C   0  0  0  0  0  2  0  0  0  0  0  0
  186.3660  173.2130  136.1190 C   0  0  0  0  0  0  0  0  0  0  0  0
  192.8440  175.5410  138.4640 C   0  0  0  0  0  2  0  0  0  0  0  0
  192.7830  174.5900  136.1430 C   0  0  0  0  0  3  0  0  0  0  0  0
  188.4260  169.5940  134.8710 C   0  0  0  0  0  0  0  0  0  0  0  0
  189.6870  169.6370  134.4420 C   0  0  0  0  0  2  0  0  0  0  0  0
  187.8110  168.2540  135.1610 C   0  0  0  0  0  1  0  0  0  0  0  0
  192.0280  178.7770  142.9340 C   0  0  0  0  0  2  0  0  0  0  0  0
  190.9020  177.7930  143.2040 C   0  0  1  0  0  3  0  0  0  0  0  0
  192.1480  177.3400  142.4510 C   0  0  1  0  0  3  0  0  0  0  0  0
  190.9550  177.3530  144.6610 C   0  0  0  0  0  2  0  0  0  0  0  0
  186.3540  175.7590  144.2120 C   0  0  0  0  0  1  0  0  0  0  0  0
  189.7010  176.6070  145.1150 C   0  0  2  0  0  3  0  0  0  0  0  0
  189.0080  175.8010  142.9720 O   0  0  0  0  0  0  0  0  0  0  0  0
  188.7240  176.3900  144.0070 C   0  0  0  0  0  0  0  0  0  0  0  0
  187.3550  176.9070  144.3000 C   0  0  2  0  0  0  0  0  0  0  0  0
  188.9500  177.4800  146.1110 C   0  0  0  0  0  2  0  0  0  0  0  0
  187.4610  177.3510  145.7730 C   0  0  1  0  0  3  0  0  0  0  0  0
  185.6350  178.3120  143.0310 N   0  0  0  0  0  2  0  0  0  0  0  0
  185.2450  179.3510  142.1000 C   0  0  0  0  0  1  0  0  0  0  0  0
  187.0040  178.0320  143.3400 C   0  0  0  0  0  0  0  0  0  0  0  0
  187.9170  178.7570  142.8540 O   0  0  0  0  0  0  0  0  0  0  0  0
  186.6720  178.6100  146.1590 C   0  0  0  0  0  3  0  0  0  0  0  0
  187.1790  179.1550  147.3470 O   0  0  0  0  0  1  0  0  0  0  0  0
  185.3250  178.2860  146.3400 O   0  0  0  0  0  1  0  0  0  0  0  0
  1 16  1  0  0  0  0
  2 21  1  0  0  0  0
  5  4  1  6  0  0  0
  5 40  1  0  0  0  0
  6  8  1  0  0  0  0
  7 29  1  0  0  0  0
  7 32  1  0  0  0  0
  9 10  1  0  0  0  0
  9 14  1  0  0  0  0
 11 25  1  0  0  0  0
 11  3  1  1  0  0  0
 12 10  1  0  0  0  0
 12  8  1  0  0  0  0
 13 27  1  0  0  0  0
 14  6  1  0  0  0  0
 15 17  1  0  0  0  0
 15 33  1  0  0  0  0
 16 30  2  0  0  0  0
 18 35  1  1  0  0  0
 18 24  1  0  0  0  0
 18 29  1  0  0  0  0
 19 22  1  0  0  0  0
 19 30  1  0  0  0  0
 20 32  1  0  0  0  0
 20  1  2  0  0  0  0
 21  5  1  0  0  0  0
 22  9  2  0  0  0  0
 23  2  2  0  0  0  0
 24 20  1  0  0  0  0
 25  3  1  0  0  0  0
 25 23  2  0  0  0  0
 26 13  2  0  0  0  0
 26 34  1  0  0  0  0
 27  1  1  0  0  0  0
 27 17  2  0  0  0  0
 28 14  2  0  0  0  0
 28 11  1  0  0  0  0
 30 28  1  0  0  0  0
 31  4  1  0  0  0  0
 32 19  2  0  0  0  0
 33 31  1  0  0  0  0
 34 15  2  0  0  0  0
 35 37  1  0  0  0  0
 36 35  2  0  0  0  0
 38 39  1  0  0  0  0
 39 41  1  1  0  0  0
 40 38  1  6  0  0  0
 40 39  1  0  0  0  0
 43 41  1  6  0  0  0
 43 47  1  0  0  0  0
 44 45  2  0  0  0  0
 45 46  1  0  0  0  0
 45 43  1  0  0  0  0
 46 42  1  6  0  0  0
 46 48  1  0  0  0  0
 48 47  1  0  0  0  0
 48 53  1  6  0  0  0
 49 51  1  0  0  0  0
 50 49  1  0  0  0  0
 51 46  1  0  0  0  0
 52 51  2  0  0  0  0
 53 55  1  0  0  0  0
 53 54  1  0  0  0  0
M  END
>  <MODEL>
8

>  <REMARK>
 VINA RESULT:      -5.0      4.249      9.427
  Name = 
  6 active torsions:
  status: ('A' for Active; 'I' for Inactive)
    1  A    between atoms: C_1  and  C_53
    2  A    between atoms: C_6  and  C_20
    3  A    between atoms: C_8  and  C_43
    4  A    between atoms: C_10  and  C_32
    5  A    between atoms: C_20  and  C_42
    6  A    between atoms: C_29  and  C_38
                            x       y       z     vdW  Elec       q    Type
                         _______ _______ _______ _____ _____    ______ ____

>  <TORSDO>
F 6

$$$$
