=
 OpenBabel10272413363D

 32 37  0  0  1  0  0  0  0  0999 V2000
  188.9960  177.2820  146.4950 C   0  0  0  0  0  0  0  0  0  0  0  0
  185.8250  178.7690  142.7990 C   0  0  2  0  0  3  0  0  0  0  0  0
  188.3260  177.7830  138.7040 N   0  0  0  0  0  0  0  0  0  0  0  0
  187.1410  177.9340  137.9130 C   0  0  0  0  0  3  0  0  0  0  0  0
  183.2890  178.8360  142.6110 C   0  0  0  0  0  0  0  0  0  0  0  0
  182.1560  178.7770  141.8090 C   0  0  0  0  0  0  0  0  0  0  0  0
  186.7780  177.9000  144.9000 C   0  0  0  0  0  0  0  0  0  0  0  0
  188.2780  178.3850  142.9320 C   0  0  0  0  0  2  0  0  0  0  0  0
  180.9090  178.6240  139.9740 N   0  0  0  0  0  0  0  0  0  0  0  0
  189.1810  177.6560  145.1590 C   0  0  0  0  0  3  0  0  0  0  0  0
  188.3520  178.0670  139.9720 C   0  0  0  0  0  3  0  0  0  0  0  0
  187.0220  178.1160  142.0970 C   0  0  2  0  0  3  0  0  0  0  0  0
  187.1510  178.6550  140.6740 C   0  0  2  0  0  3  0  0  0  0  0  0
  184.6270  178.5220  140.5690 C   0  0  0  0  0  0  0  0  0  0  0  0
  179.9820  178.8360  141.0190 N   0  0  0  0  0  0  0  0  0  0  0  0
  187.7040  177.2050  147.0270 C   0  0  0  0  0  3  0  0  0  0  0  0
  188.0760  177.9560  144.3560 C   0  0  0  0  0  0  0  0  0  0  0  0
  180.7940  178.9280  142.1770 N   0  0  0  0  0  0  0  0  0  0  0  0
  186.5970  177.5160  146.2310 C   0  0  0  0  0  3  0  0  0  0  0  0
  185.9800  178.2250  138.4920 C   0  0  0  0  0  3  0  0  0  0  0  0
  185.9110  178.4120  139.9160 N   0  0  0  0  0  0  0  0  0  0  0  0
  183.4370  178.4760  139.8060 C   0  0  0  0  0  3  0  0  0  0  0  0
  185.6700  178.2000  144.1010 O   0  0  0  0  0  0  0  0  0  0  0  0
  183.1670  179.0650  143.9440 F   0  0  0  0  0  0  0  0  0  0  0  0
  180.5360  178.5700  138.5720 C   0  0  0  0  0  1  0  0  0  0  0  0
  184.5520  178.6700  141.9890 C   0  0  0  0  0  0  0  0  0  0  0  0
  182.2270  178.5980  140.4800 C   0  0  0  0  0  0  0  0  0  0  0  0
  190.1720  176.9390  147.3400 C   0  0  0  0  0  2  0  0  0  0  0  0
  191.4030  176.7520  146.4720 C   0  0  0  0  0  2  0  0  0  0  0  0
  192.3470  175.8110  147.1320 C   0  0  0  0  0  0  0  0  0  0  0  0
  192.8310  176.0910  148.4040 O   0  0  0  0  0  1  0  0  0  0  0  0
  192.7320  174.7770  146.5270 O   0  0  0  0  0  0  0  0  0  0  0  0
  1 16  1  0  0  0  0
  1 28  1  0  0  0  0
  2 26  1  6  0  0  0
  2 23  1  0  0  0  0
  3 11  2  0  0  0  0
  4 20  2  0  0  0  0
  4  3  1  0  0  0  0
  5 24  1  0  0  0  0
  6 18  1  0  0  0  0
  6  5  2  0  0  0  0
  7 19  1  0  0  0  0
  8 17  1  0  0  0  0
  9 27  1  0  0  0  0
  9 15  1  0  0  0  0
 10  1  2  0  0  0  0
 12  2  1  0  0  0  0
 12  8  1  1  0  0  0
 13 11  1  6  0  0  0
 13 12  1  0  0  0  0
 14 26  2  0  0  0  0
 15 18  2  0  0  0  0
 17  7  2  0  0  0  0
 17 10  1  0  0  0  0
 19 16  2  0  0  0  0
 20 21  1  0  0  0  0
 21 14  1  0  0  0  0
 21 13  1  0  0  0  0
 22 27  2  0  0  0  0
 22 14  1  0  0  0  0
 23  7  1  0  0  0  0
 25  9  1  0  0  0  0
 26  5  1  0  0  0  0
 27  6  1  0  0  0  0
 29 30  1  0  0  0  0
 29 28  1  0  0  0  0
 30 31  1  0  0  0  0
 32 30  2  0  0  0  0
M  END
>  <MODEL>
1

>  <REMARK>
 VINA RESULT:      -9.9      0.000      0.000
  Name = 
  3 active torsions:
  status: ('A' for Active; 'I' for Inactive)
    1  A    between atoms: C_1  and  C_10
    2  A    between atoms: C_2  and  C_24
    3  A    between atoms: C_10  and  C_24
                            x       y       z     vdW  Elec       q    Type
                         _______ _______ _______ _____ _____    ______ ____

>  <TORSDO>
F 3

$$$$
=
 OpenBabel10272413363D

 32 37  0  0  1  0  0  0  0  0999 V2000
  189.0140  177.2380  146.0840 C   0  0  0  0  0  0  0  0  0  0  0  0
  186.5390  178.6710  141.8720 C   0  0  2  0  0  3  0  0  0  0  0  0
  189.6120  177.4050  138.2740 N   0  0  0  0  0  0  0  0  0  0  0  0
  188.5760  177.5640  137.2970 C   0  0  0  0  0  3  0  0  0  0  0  0
  184.0700  178.8230  141.2770 C   0  0  0  0  0  0  0  0  0  0  0  0
  183.0770  178.7700  140.3070 C   0  0  0  0  0  0  0  0  0  0  0  0
  187.1070  177.8640  144.1320 C   0  0  0  0  0  0  0  0  0  0  0  0
  188.9200  178.2020  142.4120 C   0  0  0  0  0  2  0  0  0  0  0  0
  182.1320  178.5790  138.3030 N   0  0  0  0  0  0  0  0  0  0  0  0
  189.4250  177.5430  144.7820 C   0  0  0  0  0  3  0  0  0  0  0  0
  189.4490  177.7460  139.5170 C   0  0  0  0  0  3  0  0  0  0  0  0
  187.8020  177.9420  141.3970 C   0  0  2  0  0  3  0  0  0  0  0  0
  188.1790  178.4100  139.9940 C   0  0  2  0  0  3  0  0  0  0  0  0
  185.7000  178.3670  139.4900 C   0  0  0  0  0  0  0  0  0  0  0  0
  181.0610  178.8730  139.1760 N   0  0  0  0  0  0  0  0  0  0  0  0
  187.6520  177.2330  146.4050 C   0  0  0  0  0  3  0  0  0  0  0  0
  188.4760  177.8470  143.8010 C   0  0  0  0  0  0  0  0  0  0  0  0
  181.6820  178.9880  140.4450 N   0  0  0  0  0  0  0  0  0  0  0  0
  186.7000  177.5480  145.4300 C   0  0  0  0  0  3  0  0  0  0  0  0
  187.3510  177.9240  137.6710 C   0  0  0  0  0  3  0  0  0  0  0  0
  187.0650  178.1790  139.0560 N   0  0  0  0  0  0  0  0  0  0  0  0
  184.6450  178.3300  138.5480 C   0  0  0  0  0  3  0  0  0  0  0  0
  186.1540  178.1680  143.1540 O   0  0  0  0  0  0  0  0  0  0  0  0
  183.7480  179.1170  142.5630 F   0  0  0  0  0  0  0  0  0  0  0  0
  181.9840  178.4740  136.8620 C   0  0  0  0  0  1  0  0  0  0  0  0
  185.4070  178.5820  140.8730 C   0  0  0  0  0  0  0  0  0  0  0  0
  183.3500  178.5270  139.0140 C   0  0  0  0  0  0  0  0  0  0  0  0
  190.0240  176.8900  147.1200 C   0  0  0  0  0  2  0  0  0  0  0  0
  191.4220  176.9540  146.5300 C   0  0  0  0  0  2  0  0  0  0  0  0
  192.2050  175.7650  146.9590 C   0  0  0  0  0  0  0  0  0  0  0  0
  192.7430  175.7130  148.2390 O   0  0  0  0  0  1  0  0  0  0  0  0
  192.4070  174.8190  146.1540 O   0  0  0  0  0  0  0  0  0  0  0  0
  1 16  1  0  0  0  0
  1 28  1  0  0  0  0
  2 26  1  6  0  0  0
  2 23  1  0  0  0  0
  3 11  2  0  0  0  0
  4 20  2  0  0  0  0
  4  3  1  0  0  0  0
  5 24  1  0  0  0  0
  6 18  1  0  0  0  0
  6  5  2  0  0  0  0
  7 19  1  0  0  0  0
  8 17  1  0  0  0  0
  9 27  1  0  0  0  0
  9 15  1  0  0  0  0
 10  1  2  0  0  0  0
 12  2  1  0  0  0  0
 12  8  1  1  0  0  0
 13 11  1  6  0  0  0
 13 12  1  0  0  0  0
 14 26  2  0  0  0  0
 15 18  2  0  0  0  0
 17  7  2  0  0  0  0
 17 10  1  0  0  0  0
 19 16  2  0  0  0  0
 20 21  1  0  0  0  0
 21 14  1  0  0  0  0
 21 13  1  0  0  0  0
 22 27  2  0  0  0  0
 22 14  1  0  0  0  0
 23  7  1  0  0  0  0
 25  9  1  0  0  0  0
 26  5  1  0  0  0  0
 27  6  1  0  0  0  0
 29 30  1  0  0  0  0
 29 28  1  0  0  0  0
 30 31  1  0  0  0  0
 32 30  2  0  0  0  0
M  END
>  <MODEL>
2

>  <REMARK>
 VINA RESULT:      -9.9      1.072      1.325
  Name = 
  3 active torsions:
  status: ('A' for Active; 'I' for Inactive)
    1  A    between atoms: C_1  and  C_10
    2  A    between atoms: C_2  and  C_24
    3  A    between atoms: C_10  and  C_24
                            x       y       z     vdW  Elec       q    Type
                         _______ _______ _______ _____ _____    ______ ____

>  <TORSDO>
F 3

$$$$
=
 OpenBabel10272413363D

 32 37  0  0  1  0  0  0  0  0999 V2000
  190.1260  176.7910  136.7750 C   0  0  0  0  0  0  0  0  0  0  0  0
  189.1360  178.0170  141.6160 C   0  0  2  0  0  3  0  0  0  0  0  0
  184.2720  178.5920  141.6610 N   0  0  0  0  0  0  0  0  0  0  0  0
  184.2540  178.5550  143.0930 C   0  0  0  0  0  3  0  0  0  0  0  0
  190.2430  177.4030  143.8230 C   0  0  0  0  0  0  0  0  0  0  0  0
  190.1250  177.1860  145.1900 C   0  0  0  0  0  0  0  0  0  0  0  0
  190.1070  177.0580  139.5620 C   0  0  0  0  0  0  0  0  0  0  0  0
  187.9250  178.3200  139.4660 C   0  0  0  0  0  2  0  0  0  0  0  0
  189.1930  177.0490  147.2050 N   0  0  0  0  0  0  0  0  0  0  0  0
  189.0660  177.4550  137.4040 C   0  0  0  0  0  3  0  0  0  0  0  0
  185.3800  178.6190  140.9830 C   0  0  0  0  0  3  0  0  0  0  0  0
  187.7740  177.8770  140.9250 C   0  0  2  0  0  3  0  0  0  0  0  0
  186.7230  178.6970  141.6690 C   0  0  2  0  0  3  0  0  0  0  0  0
  187.8290  177.8830  143.7940 C   0  0  0  0  0  0  0  0  0  0  0  0
  190.5630  176.7840  147.4270 N   0  0  0  0  0  0  0  0  0  0  0  0
  191.1660  176.2520  137.5410 C   0  0  0  0  0  3  0  0  0  0  0  0
  189.0470  177.5830  138.7950 C   0  0  0  0  0  0  0  0  0  0  0  0
  191.1370  176.8730  146.1340 N   0  0  0  0  0  0  0  0  0  0  0  0
  191.1570  176.3870  138.9320 C   0  0  0  0  0  3  0  0  0  0  0  0
  185.3850  178.3890  143.7740 C   0  0  0  0  0  3  0  0  0  0  0  0
  186.6350  178.2680  143.0760 N   0  0  0  0  0  0  0  0  0  0  0  0
  187.7750  177.6530  145.1890 C   0  0  0  0  0  3  0  0  0  0  0  0
  190.0920  177.1850  140.9550 O   0  0  0  0  0  0  0  0  0  0  0  0
  191.4590  177.3240  143.2250 F   0  0  0  0  0  0  0  0  0  0  0  0
  188.2170  177.1660  148.2730 C   0  0  0  0  0  1  0  0  0  0  0  0
  189.0680  177.7240  143.0980 C   0  0  0  0  0  0  0  0  0  0  0  0
  188.9520  177.2960  145.8350 C   0  0  0  0  0  0  0  0  0  0  0  0
  190.1320  176.6340  135.2950 C   0  0  0  0  0  2  0  0  0  0  0  0
  188.8200  176.0290  134.8280 C   0  0  0  0  0  2  0  0  0  0  0  0
  188.8090  174.5700  135.1130 C   0  0  0  0  0  0  0  0  0  0  0  0
  187.9300  174.0530  136.0570 O   0  0  0  0  0  1  0  0  0  0  0  0
  189.6170  173.8060  134.5230 O   0  0  0  0  0  0  0  0  0  0  0  0
  1 10  2  0  0  0  0
  1 16  1  0  0  0  0
  2 23  1  6  0  0  0
  2 26  1  0  0  0  0
  3  4  1  0  0  0  0
  4 20  2  0  0  0  0
  5  6  1  0  0  0  0
  6 27  2  0  0  0  0
  6 18  1  0  0  0  0
  7 23  1  0  0  0  0
  9 15  1  0  0  0  0
  9 25  1  0  0  0  0
 10 17  1  0  0  0  0
 11  3  2  0  0  0  0
 12  8  1  6  0  0  0
 12  2  1  0  0  0  0
 12 13  1  0  0  0  0
 13 11  1  6  0  0  0
 13 21  1  0  0  0  0
 14 22  2  0  0  0  0
 16 19  2  0  0  0  0
 17  8  1  0  0  0  0
 17  7  2  0  0  0  0
 18 15  2  0  0  0  0
 19  7  1  0  0  0  0
 21 20  1  0  0  0  0
 21 14  1  0  0  0  0
 22 27  1  0  0  0  0
 24  5  1  0  0  0  0
 26 14  1  0  0  0  0
 26  5  2  0  0  0  0
 27  9  1  0  0  0  0
 28  1  1  0  0  0  0
 29 30  1  0  0  0  0
 29 28  1  0  0  0  0
 30 31  1  0  0  0  0
 32 30  2  0  0  0  0
M  END
>  <MODEL>
3

>  <REMARK>
 VINA RESULT:      -9.1      4.563      8.458
  Name = 
  3 active torsions:
  status: ('A' for Active; 'I' for Inactive)
    1  A    between atoms: C_1  and  C_10
    2  A    between atoms: C_2  and  C_24
    3  A    between atoms: C_10  and  C_24
                            x       y       z     vdW  Elec       q    Type
                         _______ _______ _______ _____ _____    ______ ____

>  <TORSDO>
F 3

$$$$
=
 OpenBabel10272413363D

 32 37  0  0  1  0  0  0  0  0999 V2000
  189.3310  177.3960  145.5760 C   0  0  0  0  0  0  0  0  0  0  0  0
  187.9020  178.2150  140.7580 C   0  0  2  0  0  3  0  0  0  0  0  0
  191.6260  176.3880  138.1520 N   0  0  0  0  0  0  0  0  0  0  0  0
  190.8360  176.4120  136.9580 C   0  0  0  0  0  3  0  0  0  0  0  0
  185.6320  178.3070  139.6130 C   0  0  0  0  0  0  0  0  0  0  0  0
  184.8740  178.1220  138.4640 C   0  0  0  0  0  0  0  0  0  0  0  0
  187.9260  177.7470  143.1790 C   0  0  0  0  0  0  0  0  0  0  0  0
  190.0840  177.8020  141.8760 C   0  0  0  0  0  2  0  0  0  0  0  0
  184.3810  177.6450  136.3480 N   0  0  0  0  0  0  0  0  0  0  0  0
  190.0300  177.4980  144.3670 C   0  0  0  0  0  3  0  0  0  0  0  0
  191.2110  176.9130  139.2660 C   0  0  0  0  0  3  0  0  0  0  0  0
  189.2040  177.4070  140.6850 C   0  0  2  0  0  3  0  0  0  0  0  0
  189.9000  177.6560  139.3490 C   0  0  2  0  0  3  0  0  0  0  0  0
  187.5910  177.5690  138.3180 C   0  0  0  0  0  0  0  0  0  0  0  0
  183.1590  178.0800  136.9100 N   0  0  0  0  0  0  0  0  0  0  0  0
  187.9330  177.4560  145.5820 C   0  0  0  0  0  3  0  0  0  0  0  0
  189.3330  177.6640  143.1670 C   0  0  0  0  0  0  0  0  0  0  0  0
  183.4940  178.3750  138.2560 N   0  0  0  0  0  0  0  0  0  0  0  0
  187.2320  177.6330  144.3850 C   0  0  0  0  0  3  0  0  0  0  0  0
  189.5770  176.8390  136.9940 C   0  0  0  0  0  3  0  0  0  0  0  0
  189.0080  177.3010  138.2300 N   0  0  0  0  0  0  0  0  0  0  0  0
  186.7660  177.4050  137.1800 C   0  0  0  0  0  3  0  0  0  0  0  0
  187.2250  177.9130  141.9800 O   0  0  0  0  0  0  0  0  0  0  0  0
  185.0510  178.7930  140.7390 F   0  0  0  0  0  0  0  0  0  0  0  0
  184.5470  177.3290  134.9410 C   0  0  0  0  0  1  0  0  0  0  0  0
  187.0130  177.9920  139.5560 C   0  0  0  0  0  0  0  0  0  0  0  0
  185.4110  177.6850  137.3130 C   0  0  0  0  0  0  0  0  0  0  0  0
  190.0740  177.1940  146.8490 C   0  0  0  0  0  2  0  0  0  0  0  0
  191.5050  176.7770  146.5590 C   0  0  0  0  0  2  0  0  0  0  0  0
  192.1910  176.4140  147.8280 C   0  0  0  0  0  0  0  0  0  0  0  0
  192.6100  175.1070  148.0420 O   0  0  0  0  0  0  0  0  0  0  0  0
  192.3640  177.2830  148.7220 O   0  0  0  0  0  1  0  0  0  0  0  0
  1 16  1  0  0  0  0
  1 28  1  0  0  0  0
  2 26  1  6  0  0  0
  2 23  1  0  0  0  0
  3 11  2  0  0  0  0
  4 20  2  0  0  0  0
  4  3  1  0  0  0  0
  5 24  1  0  0  0  0
  6  5  2  0  0  0  0
  7 19  1  0  0  0  0
  8 17  1  0  0  0  0
  9 15  1  0  0  0  0
  9 27  1  0  0  0  0
 10  1  2  0  0  0  0
 12  2  1  0  0  0  0
 12  8  1  1  0  0  0
 13 11  1  1  0  0  0
 13 12  1  0  0  0  0
 14 26  2  0  0  0  0
 15 18  2  0  0  0  0
 17  7  2  0  0  0  0
 17 10  1  0  0  0  0
 18  6  1  0  0  0  0
 19 16  2  0  0  0  0
 20 21  1  0  0  0  0
 21 14  1  0  0  0  0
 21 13  1  0  0  0  0
 22 27  2  0  0  0  0
 22 14  1  0  0  0  0
 23  7  1  0  0  0  0
 25  9  1  0  0  0  0
 26  5  1  0  0  0  0
 27  6  1  0  0  0  0
 29 28  1  0  0  0  0
 29 30  1  0  0  0  0
 30 31  2  0  0  0  0
 30 32  1  0  0  0  0
M  END
>  <MODEL>
4

>  <REMARK>
 VINA RESULT:      -8.6      2.384      3.357
  Name = 
  3 active torsions:
  status: ('A' for Active; 'I' for Inactive)
    1  A    between atoms: C_1  and  C_10
    2  A    between atoms: C_2  and  C_24
    3  A    between atoms: C_10  and  C_24
                            x       y       z     vdW  Elec       q    Type
                         _______ _______ _______ _____ _____    ______ ____

>  <TORSDO>
F 3

$$$$
=
 OpenBabel10272413363D

 32 37  0  0  1  0  0  0  0  0999 V2000
  182.3170  178.6680  138.4920 C   0  0  0  0  0  0  0  0  0  0  0  0
  186.1760  178.8160  141.8110 C   0  0  2  0  0  3  0  0  0  0  0  0
  183.9320  178.5680  146.1580 N   0  0  0  0  0  0  0  0  0  0  0  0
  185.1720  178.2690  146.8110 C   0  0  0  0  0  3  0  0  0  0  0  0
  188.5840  178.0010  141.7100 C   0  0  0  0  0  0  0  0  0  0  0  0
  189.7040  177.5230  142.3780 C   0  0  0  0  0  0  0  0  0  0  0  0
  184.7660  178.4180  139.8270 C   0  0  0  0  0  0  0  0  0  0  0  0
  183.7420  179.3010  141.9550 C   0  0  0  0  0  2  0  0  0  0  0  0
  191.0070  176.8720  144.0590 N   0  0  0  0  0  0  0  0  0  0  0  0
  182.4140  179.0240  139.8420 C   0  0  0  0  0  3  0  0  0  0  0  0
  183.8730  178.8980  144.9030 C   0  0  0  0  0  3  0  0  0  0  0  0
  184.9080  178.5820  142.6410 C   0  0  2  0  0  3  0  0  0  0  0  0
  185.1220  179.0700  144.0720 C   0  0  2  0  0  3  0  0  0  0  0  0
  187.4410  178.0760  143.8890 C   0  0  0  0  0  0  0  0  0  0  0  0
  191.8350  176.7990  142.9160 N   0  0  0  0  0  0  0  0  0  0  0  0
  183.4400  178.1760  137.8160 C   0  0  0  0  0  3  0  0  0  0  0  0
  183.6320  178.8920  140.5160 C   0  0  0  0  0  0  0  0  0  0  0  0
  190.9880  177.2140  141.8590 N   0  0  0  0  0  0  0  0  0  0  0  0
  184.6630  178.0540  138.4830 C   0  0  0  0  0  3  0  0  0  0  0  0
  186.2950  178.1700  146.1040 C   0  0  0  0  0  3  0  0  0  0  0  0
  186.2750  178.3840  144.6840 N   0  0  0  0  0  0  0  0  0  0  0  0
  188.6160  177.5920  144.5120 C   0  0  0  0  0  3  0  0  0  0  0  0
  185.9870  178.2850  140.4970 O   0  0  0  0  0  0  0  0  0  0  0  0
  188.6370  178.2330  140.3730 F   0  0  0  0  0  0  0  0  0  0  0  0
  191.4830  176.6320  145.4090 C   0  0  0  0  0  1  0  0  0  0  0  0
  187.4130  178.2510  142.4700 C   0  0  0  0  0  0  0  0  0  0  0  0
  189.7150  177.3210  143.7060 C   0  0  0  0  0  0  0  0  0  0  0  0
  181.0140  178.7860  137.7840 C   0  0  0  0  0  2  0  0  0  0  0  0
  180.3150  180.0720  138.1860 C   0  0  0  0  0  2  0  0  0  0  0  0
  180.8860  181.2150  137.4240 C   0  0  0  0  0  0  0  0  0  0  0  0
  180.8310  181.2210  136.0360 O   0  0  0  0  0  0  0  0  0  0  0  0
  181.4470  182.1610  138.0350 O   0  0  0  0  0  1  0  0  0  0  0  0
  1 10  1  0  0  0  0
  2 23  1  6  0  0  0
  2 26  1  0  0  0  0
  2 12  1  0  0  0  0
  3  4  1  0  0  0  0
  5  6  2  0  0  0  0
  5 26  1  0  0  0  0
  6 27  1  0  0  0  0
  7 23  1  0  0  0  0
  7 17  1  0  0  0  0
  9 25  1  0  0  0  0
 10 17  2  0  0  0  0
 11  3  2  0  0  0  0
 12  8  1  6  0  0  0
 12 13  1  0  0  0  0
 13 21  1  0  0  0  0
 13 11  1  1  0  0  0
 14 22  1  0  0  0  0
 14 21  1  0  0  0  0
 15  9  1  0  0  0  0
 16 19  1  0  0  0  0
 16  1  2  0  0  0  0
 17  8  1  0  0  0  0
 18  6  1  0  0  0  0
 18 15  2  0  0  0  0
 19  7  2  0  0  0  0
 20  4  2  0  0  0  0
 21 20  1  0  0  0  0
 24  5  1  0  0  0  0
 26 14  2  0  0  0  0
 27  9  1  0  0  0  0
 27 22  2  0  0  0  0
 28 29  1  0  0  0  0
 28  1  1  0  0  0  0
 30 32  1  0  0  0  0
 30 29  1  0  0  0  0
 31 30  2  0  0  0  0
M  END
>  <MODEL>
5

>  <REMARK>
 VINA RESULT:      -8.6      3.814      9.354
  Name = 
  3 active torsions:
  status: ('A' for Active; 'I' for Inactive)
    1  A    between atoms: C_1  and  C_10
    2  A    between atoms: C_2  and  C_24
    3  A    between atoms: C_10  and  C_24
                            x       y       z     vdW  Elec       q    Type
                         _______ _______ _______ _____ _____    ______ ____

>  <TORSDO>
F 3

$$$$
=
 OpenBabel10272413363D

 32 37  0  0  1  0  0  0  0  0999 V2000
  183.3810  178.8940  143.4800 C   0  0  0  0  0  0  0  0  0  0  0  0
  188.0230  178.3720  141.4540 C   0  0  2  0  0  3  0  0  0  0  0  0
  190.6630  176.5300  145.1460 N   0  0  0  0  0  0  0  0  0  0  0  0
  191.7170  176.1670  144.2460 C   0  0  0  0  0  3  0  0  0  0  0  0
  188.8420  177.8810  139.0960 C   0  0  0  0  0  0  0  0  0  0  0  0
  189.8120  177.3320  138.2660 C   0  0  0  0  0  0  0  0  0  0  0  0
  185.5840  178.4840  141.8010 C   0  0  0  0  0  0  0  0  0  0  0  0
  187.1510  178.5360  143.7760 C   0  0  0  0  0  2  0  0  0  0  0  0
  191.6910  176.3170  137.6470 N   0  0  0  0  0  0  0  0  0  0  0  0
  184.6670  178.8110  144.0260 C   0  0  0  0  0  3  0  0  0  0  0  0
  189.6400  177.2340  144.7640 C   0  0  0  0  0  3  0  0  0  0  0  0
  188.0990  177.7590  142.8570 C   0  0  2  0  0  3  0  0  0  0  0  0
  189.5400  177.7870  143.3630 C   0  0  2  0  0  3  0  0  0  0  0  0
  190.2050  177.1440  141.0090 C   0  0  0  0  0  0  0  0  0  0  0  0
  191.0740  176.6960  136.4340 N   0  0  0  0  0  0  0  0  0  0  0  0
  183.1980  178.7590  142.0990 C   0  0  0  0  0  3  0  0  0  0  0  0
  185.7690  178.5970  143.1930 C   0  0  0  0  0  0  0  0  0  0  0  0
  189.8800  177.3360  136.8500 N   0  0  0  0  0  0  0  0  0  0  0  0
  184.2980  178.5560  141.2600 C   0  0  0  0  0  3  0  0  0  0  0  0
  191.6020  176.4120  142.9430 C   0  0  0  0  0  3  0  0  0  0  0  0
  190.4260  177.0630  142.4340 N   0  0  0  0  0  0  0  0  0  0  0  0
  191.1590  176.6080  140.1110 C   0  0  0  0  0  3  0  0  0  0  0  0
  186.6850  178.2700  140.9630 O   0  0  0  0  0  0  0  0  0  0  0  0
  187.7770  178.5290  138.5590 F   0  0  0  0  0  0  0  0  0  0  0  0
  193.0080  175.7110  137.7200 C   0  0  0  0  0  1  0  0  0  0  0  0
  189.0180  177.7570  140.4970 C   0  0  0  0  0  0  0  0  0  0  0  0
  190.9060  176.7210  138.7490 C   0  0  0  0  0  0  0  0  0  0  0  0
  182.2070  179.0970  144.3710 C   0  0  0  0  0  2  0  0  0  0  0  0
  180.9540  179.3200  143.5430 C   0  0  0  0  0  2  0  0  0  0  0  0
  180.2930  178.0160  143.2700 C   0  0  0  0  0  0  0  0  0  0  0  0
  179.9860  177.6530  141.9650 O   0  0  0  0  0  0  0  0  0  0  0  0
  179.9820  177.2550  144.2240 O   0  0  0  0  0  1  0  0  0  0  0  0
  1 10  1  0  0  0  0
  1 28  1  0  0  0  0
  2 26  1  6  0  0  0
  2 12  1  0  0  0  0
  4  3  1  0  0  0  0
  5 26  1  0  0  0  0
  6 27  1  0  0  0  0
  6  5  2  0  0  0  0
  7 17  1  0  0  0  0
  9 25  1  0  0  0  0
  9 27  1  0  0  0  0
 11  3  2  0  0  0  0
 12 13  1  0  0  0  0
 12  8  1  1  0  0  0
 13 11  1  1  0  0  0
 14 21  1  0  0  0  0
 15 18  2  0  0  0  0
 15  9  1  0  0  0  0
 16  1  2  0  0  0  0
 17  8  1  0  0  0  0
 17 10  2  0  0  0  0
 18  6  1  0  0  0  0
 19  7  2  0  0  0  0
 19 16  1  0  0  0  0
 20  4  2  0  0  0  0
 21 20  1  0  0  0  0
 21 13  1  0  0  0  0
 22 14  1  0  0  0  0
 23  2  1  0  0  0  0
 23  7  1  0  0  0  0
 24  5  1  0  0  0  0
 26 14  2  0  0  0  0
 27 22  2  0  0  0  0
 29 28  1  0  0  0  0
 30 29  1  0  0  0  0
 30 32  1  0  0  0  0
 31 30  2  0  0  0  0
M  END
>  <MODEL>
6

>  <REMARK>
 VINA RESULT:      -8.2      4.557      8.084
  Name = 
  3 active torsions:
  status: ('A' for Active; 'I' for Inactive)
    1  A    between atoms: C_1  and  C_10
    2  A    between atoms: C_2  and  C_24
    3  A    between atoms: C_10  and  C_24
                            x       y       z     vdW  Elec       q    Type
                         _______ _______ _______ _____ _____    ______ ____

>  <TORSDO>
F 3

$$$$
=
 OpenBabel10272413363D

 32 37  0  0  1  0  0  0  0  0999 V2000
  191.0290  177.4400  140.3290 C   0  0  0  0  0  0  0  0  0  0  0  0
  186.3600  177.5160  142.3570 C   0  0  2  0  0  3  0  0  0  0  0  0
  187.2170  178.1840  147.1330 N   0  0  0  0  0  0  0  0  0  0  0  0
  185.8420  178.5180  147.3600 C   0  0  0  0  0  3  0  0  0  0  0  0
  184.0970  178.2770  141.4760 C   0  0  0  0  0  0  0  0  0  0  0  0
  182.8340  178.7920  141.7370 C   0  0  0  0  0  0  0  0  0  0  0  0
  188.2970  177.7630  140.8520 C   0  0  0  0  0  0  0  0  0  0  0  0
  188.6370  177.0880  143.2580 C   0  0  0  0  0  2  0  0  0  0  0  0
  181.0980  179.5660  142.8920 N   0  0  0  0  0  0  0  0  0  0  0  0
  190.5340  177.2020  141.6160 C   0  0  0  0  0  3  0  0  0  0  0  0
  187.6420  177.7460  145.9870 C   0  0  0  0  0  3  0  0  0  0  0  0
  187.3270  177.8450  143.5010 C   0  0  2  0  0  3  0  0  0  0  0  0
  186.6940  177.4800  144.8420 C   0  0  2  0  0  3  0  0  0  0  0  0
  184.5420  178.4130  143.8930 C   0  0  0  0  0  0  0  0  0  0  0  0
  180.6460  179.5230  141.5540 N   0  0  0  0  0  0  0  0  0  0  0  0
  190.1620  177.8500  139.3110 C   0  0  0  0  0  3  0  0  0  0  0  0
  189.1720  177.3710  141.8850 C   0  0  0  0  0  0  0  0  0  0  0  0
  181.7650  179.0320  140.8360 N   0  0  0  0  0  0  0  0  0  0  0  0
  188.7970  178.0100  139.5720 C   0  0  0  0  0  3  0  0  0  0  0  0
  184.9790  178.5350  146.3480 C   0  0  0  0  0  3  0  0  0  0  0  0
  185.4180  178.1970  145.0220 N   0  0  0  0  0  0  0  0  0  0  0  0
  183.2400  178.9300  144.0950 C   0  0  0  0  0  3  0  0  0  0  0  0
  186.9340  177.9330  141.1160 O   0  0  0  0  0  0  0  0  0  0  0  0
  184.4410  177.9280  140.2100 F   0  0  0  0  0  0  0  0  0  0  0  0
  180.2460  179.9150  144.0150 C   0  0  0  0  0  1  0  0  0  0  0  0
  184.9880  178.1150  142.5680 C   0  0  0  0  0  0  0  0  0  0  0  0
  182.4320  179.1100  142.9790 C   0  0  0  0  0  0  0  0  0  0  0  0
  192.4830  177.2830  140.0520 C   0  0  0  0  0  2  0  0  0  0  0  0
  192.7190  177.1500  138.5580 C   0  0  0  0  0  2  0  0  0  0  0  0
  193.0470  175.7390  138.2240 C   0  0  0  0  0  0  0  0  0  0  0  0
  192.0300  174.8010  138.0960 O   0  0  0  0  0  1  0  0  0  0  0  0
  194.2470  175.3860  138.0880 O   0  0  0  0  0  0  0  0  0  0  0  0
  1 10  1  0  0  0  0
  2 23  1  6  0  0  0
  2 26  1  0  0  0  0
  2 12  1  0  0  0  0
  3  4  1  0  0  0  0
  5  6  2  0  0  0  0
  5 26  1  0  0  0  0
  6 27  1  0  0  0  0
  7 23  1  0  0  0  0
  7 17  1  0  0  0  0
  9 27  1  0  0  0  0
  9 25  1  0  0  0  0
 10 17  2  0  0  0  0
 11  3  2  0  0  0  0
 12  8  1  6  0  0  0
 12 13  1  0  0  0  0
 13 21  1  0  0  0  0
 13 11  1  1  0  0  0
 14 22  1  0  0  0  0
 14 21  1  0  0  0  0
 15  9  1  0  0  0  0
 16 19  1  0  0  0  0
 16  1  2  0  0  0  0
 17  8  1  0  0  0  0
 18 15  2  0  0  0  0
 18  6  1  0  0  0  0
 19  7  2  0  0  0  0
 20  4  2  0  0  0  0
 21 20  1  0  0  0  0
 24  5  1  0  0  0  0
 26 14  2  0  0  0  0
 27 22  2  0  0  0  0
 28  1  1  0  0  0  0
 29 28  1  0  0  0  0
 30 29  1  0  0  0  0
 31 30  1  0  0  0  0
 32 30  2  0  0  0  0
M  END
>  <MODEL>
7

>  <REMARK>
 VINA RESULT:      -8.1      3.448      5.620
  Name = 
  3 active torsions:
  status: ('A' for Active; 'I' for Inactive)
    1  A    between atoms: C_1  and  C_10
    2  A    between atoms: C_2  and  C_24
    3  A    between atoms: C_10  and  C_24
                            x       y       z     vdW  Elec       q    Type
                         _______ _______ _______ _____ _____    ______ ____

>  <TORSDO>
F 3

$$$$
=
 OpenBabel10272413363D

 32 37  0  0  1  0  0  0  0  0999 V2000
  181.3510  179.3900  141.5510 C   0  0  0  0  0  0  0  0  0  0  0  0
  185.6080  177.6810  143.7610 C   0  0  2  0  0  3  0  0  0  0  0  0
  188.9810  178.1780  140.2440 N   0  0  0  0  0  0  0  0  0  0  0  0
  190.0370  177.9980  141.1950 C   0  0  0  0  0  3  0  0  0  0  0  0
  186.4410  177.6950  146.1650 C   0  0  0  0  0  0  0  0  0  0  0  0
  187.5110  177.7200  147.0510 C   0  0  0  0  0  0  0  0  0  0  0  0
  183.4100  178.7090  143.3230 C   0  0  0  0  0  0  0  0  0  0  0  0
  184.8750  177.9820  141.4050 C   0  0  0  0  0  2  0  0  0  0  0  0
  189.6130  177.7470  147.7780 N   0  0  0  0  0  0  0  0  0  0  0  0
  182.5580  178.8840  141.0550 C   0  0  0  0  0  3  0  0  0  0  0  0
  187.7310  178.0150  140.5600 C   0  0  0  0  0  3  0  0  0  0  0  0
  186.0270  178.2190  142.3880 C   0  0  2  0  0  3  0  0  0  0  0  0
  187.3180  177.5420  141.9330 C   0  0  2  0  0  3  0  0  0  0  0  0
  188.0840  177.7610  144.3340 C   0  0  0  0  0  0  0  0  0  0  0  0
  188.8300  177.6700  148.9510 N   0  0  0  0  0  0  0  0  0  0  0  0
  181.1800  179.5670  142.9290 C   0  0  0  0  0  3  0  0  0  0  0  0
  183.5920  178.5520  141.9350 C   0  0  0  0  0  0  0  0  0  0  0  0
  187.4980  177.6580  148.4680 N   0  0  0  0  0  0  0  0  0  0  0  0
  182.2080  179.2250  143.8140 C   0  0  0  0  0  3  0  0  0  0  0  0
  189.7570  177.8080  142.4820 C   0  0  0  0  0  3  0  0  0  0  0  0
  188.3900  177.7600  142.9220 N   0  0  0  0  0  0  0  0  0  0  0  0
  189.1310  177.7810  145.2860 C   0  0  0  0  0  3  0  0  0  0  0  0
  184.4420  178.3770  144.2080 O   0  0  0  0  0  0  0  0  0  0  0  0
  185.1710  177.5980  146.6370 F   0  0  0  0  0  0  0  0  0  0  0  0
  191.0630  177.6820  147.7770 C   0  0  0  0  0  1  0  0  0  0  0  0
  186.7250  177.7520  144.7770 C   0  0  0  0  0  0  0  0  0  0  0  0
  188.7860  177.7700  146.6330 C   0  0  0  0  0  0  0  0  0  0  0  0
  180.2610  179.7660  140.6100 C   0  0  0  0  0  2  0  0  0  0  0  0
  180.7970  179.8420  139.1920 C   0  0  0  0  0  2  0  0  0  0  0  0
  181.0370  181.2610  138.8190 C   0  0  0  0  0  0  0  0  0  0  0  0
  179.9860  182.1690  138.8280 O   0  0  0  0  0  1  0  0  0  0  0  0
  182.1860  181.6340  138.4650 O   0  0  0  0  0  0  0  0  0  0  0  0
  1 16  1  0  0  0  0
  2 23  1  1  0  0  0
  2 26  1  0  0  0  0
  3 11  2  0  0  0  0
  3  4  1  0  0  0  0
  4 20  2  0  0  0  0
  5 24  1  0  0  0  0
  5  6  1  0  0  0  0
  6 18  1  0  0  0  0
  7 19  1  0  0  0  0
  7 23  1  0  0  0  0
  8 17  1  0  0  0  0
  9 15  1  0  0  0  0
 10  1  2  0  0  0  0
 10 17  1  0  0  0  0
 12  8  1  6  0  0  0
 12  2  1  0  0  0  0
 13 11  1  6  0  0  0
 13 12  1  0  0  0  0
 13 21  1  0  0  0  0
 14 26  1  0  0  0  0
 14 22  2  0  0  0  0
 16 19  2  0  0  0  0
 17  7  2  0  0  0  0
 18 15  2  0  0  0  0
 20 21  1  0  0  0  0
 21 14  1  0  0  0  0
 22 27  1  0  0  0  0
 25  9  1  0  0  0  0
 26  5  2  0  0  0  0
 27  6  2  0  0  0  0
 27  9  1  0  0  0  0
 28  1  1  0  0  0  0
 29 28  1  0  0  0  0
 30 31  1  0  0  0  0
 30 29  1  0  0  0  0
 32 30  2  0  0  0  0
M  END
>  <MODEL>
8

>  <REMARK>
 VINA RESULT:      -8.0      3.737      8.451
  Name = 
  3 active torsions:
  status: ('A' for Active; 'I' for Inactive)
    1  A    between atoms: C_1  and  C_10
    2  A    between atoms: C_2  and  C_24
    3  A    between atoms: C_10  and  C_24
                            x       y       z     vdW  Elec       q    Type
                         _______ _______ _______ _____ _____    ______ ____

>  <TORSDO>
F 3

$$$$
=
 OpenBabel10272413363D

 32 37  0  0  1  0  0  0  0  0999 V2000
  185.8110  178.3650  145.7740 C   0  0  0  0  0  0  0  0  0  0  0  0
  184.5710  179.0040  140.8770 C   0  0  2  0  0  3  0  0  0  0  0  0
  188.4100  177.1190  138.4890 N   0  0  0  0  0  0  0  0  0  0  0  0
  187.6690  177.0950  137.2630 C   0  0  0  0  0  3  0  0  0  0  0  0
  182.3490  179.0370  139.6390 C   0  0  0  0  0  0  0  0  0  0  0  0
  181.6390  178.8050  138.4680 C   0  0  0  0  0  0  0  0  0  0  0  0
  184.5010  178.6210  143.3120 C   0  0  0  0  0  0  0  0  0  0  0  0
  186.7100  178.6490  142.0950 C   0  0  0  0  0  2  0  0  0  0  0  0
  181.2350  178.2510  136.3520 N   0  0  0  0  0  0  0  0  0  0  0  0
  186.5570  178.4310  144.5920 C   0  0  0  0  0  3  0  0  0  0  0  0
  187.9470  177.6780  139.5660 C   0  0  0  0  0  3  0  0  0  0  0  0
  185.8810  178.2050  140.8850 C   0  0  2  0  0  3  0  0  0  0  0  0
  186.6280  178.4130  139.5690 C   0  0  2  0  0  3  0  0  0  0  0  0
  184.3640  178.2700  138.4500 C   0  0  0  0  0  0  0  0  0  0  0  0
  179.9890  178.6950  136.8490 N   0  0  0  0  0  0  0  0  0  0  0  0
  184.4130  178.4140  145.7220 C   0  0  0  0  0  3  0  0  0  0  0  0
  185.9070  178.5490  143.3590 C   0  0  0  0  0  0  0  0  0  0  0  0
  180.2670  179.0390  138.1950 N   0  0  0  0  0  0  0  0  0  0  0  0
  183.7590  178.5430  144.4930 C   0  0  0  0  0  3  0  0  0  0  0  0
  186.4060  177.5120  137.2330 C   0  0  0  0  0  3  0  0  0  0  0  0
  185.7850  178.0120  138.4290 N   0  0  0  0  0  0  0  0  0  0  0  0
  183.5860  178.0600  137.2870 C   0  0  0  0  0  3  0  0  0  0  0  0
  183.8470  178.7390  142.0810 O   0  0  0  0  0  0  0  0  0  0  0  0
  181.7190  179.5570  140.7240 F   0  0  0  0  0  0  0  0  0  0  0  0
  181.4600  177.8870  134.9650 C   0  0  0  0  0  1  0  0  0  0  0  0
  183.7330  178.7310  139.6480 C   0  0  0  0  0  0  0  0  0  0  0  0
  182.2250  178.3340  137.3550 C   0  0  0  0  0  0  0  0  0  0  0  0
  186.5030  178.2140  147.0820 C   0  0  0  0  0  2  0  0  0  0  0  0
  187.8330  177.5080  146.8920 C   0  0  0  0  0  2  0  0  0  0  0  0
  188.7150  177.7710  148.0600 C   0  0  0  0  0  0  0  0  0  0  0  0
  190.0950  177.6730  147.9240 O   0  0  0  0  0  0  0  0  0  0  0  0
  188.2120  178.0530  149.1790 O   0  0  0  0  0  1  0  0  0  0  0  0
  1 28  1  0  0  0  0
  2 26  1  6  0  0  0
  2 12  1  0  0  0  0
  2 23  1  0  0  0  0
  3 11  2  0  0  0  0
  4  3  1  0  0  0  0
  5 26  1  0  0  0  0
  5 24  1  0  0  0  0
  6  5  2  0  0  0  0
  7 17  2  0  0  0  0
  7 19  1  0  0  0  0
  8 17  1  0  0  0  0
  9 15  1  0  0  0  0
  9 27  1  0  0  0  0
 10  1  2  0  0  0  0
 12  8  1  1  0  0  0
 13 11  1  1  0  0  0
 13 12  1  0  0  0  0
 14 26  2  0  0  0  0
 15 18  2  0  0  0  0
 16  1  1  0  0  0  0
 17 10  1  0  0  0  0
 18  6  1  0  0  0  0
 19 16  2  0  0  0  0
 20  4  2  0  0  0  0
 20 21  1  0  0  0  0
 21 14  1  0  0  0  0
 21 13  1  0  0  0  0
 22 27  2  0  0  0  0
 22 14  1  0  0  0  0
 23  7  1  0  0  0  0
 25  9  1  0  0  0  0
 27  6  1  0  0  0  0
 29 28  1  0  0  0  0
 29 30  1  0  0  0  0
 30 32  1  0  0  0  0
 31 30  2  0  0  0  0
M  END
>  <MODEL>
9

>  <REMARK>
 VINA RESULT:      -7.9      2.106      3.087
  Name = 
  3 active torsions:
  status: ('A' for Active; 'I' for Inactive)
    1  A    between atoms: C_1  and  C_10
    2  A    between atoms: C_2  and  C_24
    3  A    between atoms: C_10  and  C_24
                            x       y       z     vdW  Elec       q    Type
                         _______ _______ _______ _____ _____    ______ ____

>  <TORSDO>
F 3

$$$$
