=
 OpenBabel10272415213D

 34 39  0  0  1  0  0  0  0  0999 V2000
  187.4460  177.6680  144.9500 N   0  0  0  0  0  0  0  0  0  0  0  0
  190.9000  178.0400  143.7350 C   0  0  0  0  0  2  0  0  0  0  0  0
  190.1090  177.7630  145.8610 N   0  0  0  0  0  0  0  0  0  0  0  0
  186.8980  177.6840  147.3100 N   0  0  0  0  0  0  0  0  0  0  0  0
  187.7000  177.7060  148.4090 C   0  0  0  0  0  3  0  0  0  0  0  0
  189.0780  177.6960  146.7220 C   0  0  0  0  0  0  0  0  0  0  0  0
  187.7470  177.6890  146.2720 C   0  0  0  0  0  0  0  0  0  0  0  0
  189.0670  177.7230  148.0920 C   0  0  0  0  0  3  0  0  0  0  0  0
  190.8420  178.3950  142.2890 C   0  0  0  0  0  2  0  0  0  0  0  0
  190.3030  177.2890  141.4560 C   0  0  0  0  0  0  0  0  0  0  0  0
  189.0680  176.8370  141.6610 C   0  0  0  0  0  3  0  0  0  0  0  0
  189.8530  177.7600  144.5180 C   0  0  0  0  0  0  0  0  0  0  0  0
  188.1850  177.1920  142.7860 C   0  0  0  0  0  2  0  0  0  0  0  0
  188.4900  177.5880  144.0420 C   0  0  0  0  0  0  0  0  0  0  0  0
  191.0600  176.8230  140.3300 N   0  0  0  0  0  0  0  0  0  0  0  0
  192.3340  177.2940  140.1100 O   0  0  0  0  0  0  0  0  0  0  0  0
  190.5800  175.9830  139.5400 O   0  0  0  0  0  0  0  0  0  0  0  0
  186.0360  177.6810  144.5290 C   0  0  0  0  0  2  0  0  0  0  0  0
  180.9630  178.4000  143.0950 C   0  0  0  0  0  3  0  0  0  0  0  0
  183.6340  178.9800  142.5090 C   0  0  0  0  0  0  0  0  0  0  0  0
  181.0760  177.5430  139.4930 C   0  0  0  0  0  0  0  0  0  0  0  0
  185.5360  179.0900  144.1590 C   0  0  1  0  0  3  0  0  0  0  0  0
  180.5930  177.7470  140.7890 C   0  0  0  0  0  3  0  0  0  0  0  0
  181.4450  178.2190  141.7910 C   0  0  0  0  0  0  0  0  0  0  0  0
  185.3820  179.3000  142.3450 S   0  0  0  0  0  0  0  0  0  0  0  0
  184.1920  179.4310  144.8130 C   0  0  0  0  0  2  0  0  0  0  0  0
  183.2810  178.2880  140.1920 C   0  0  0  0  0  3  0  0  0  0  0  0
  182.8010  178.4990  141.4910 C   0  0  0  0  0  0  0  0  0  0  0  0
  182.4220  177.8120  139.1980 C   0  0  0  0  0  3  0  0  0  0  0  0
  183.1560  179.1180  143.7990 C   0  0  0  0  0  0  0  0  0  0  0  0
  181.8240  178.8390  144.1080 C   0  0  0  0  0  3  0  0  0  0  0  0
  180.1430  177.0420  138.4380 C   0  0  2  0  0  3  0  0  0  0  0  0
  180.1300  175.6470  138.4220 O   0  0  0  0  0  1  0  0  0  0  0  0
  180.5380  177.5720  137.0720 C   0  0  0  0  0  1  0  0  0  0  0  0
  1  7  1  0  0  0  0
  2 12  1  0  0  0  0
  3  6  2  0  0  0  0
  4  5  1  0  0  0  0
  6  8  1  0  0  0  0
  7  6  1  0  0  0  0
  7  4  2  0  0  0  0
  8  5  2  0  0  0  0
  9  2  1  0  0  0  0
 10 11  2  0  0  0  0
 10  9  1  0  0  0  0
 11 13  1  0  0  0  0
 12  3  1  0  0  0  0
 13 14  1  0  0  0  0
 14 12  2  0  0  0  0
 14  1  1  0  0  0  0
 15 10  1  0  0  0  0
 16 15  2  0  0  0  0
 17 15  2  0  0  0  0
 18  1  1  0  0  0  0
 19 31  1  0  0  0  0
 20 30  1  0  0  0  0
 21 23  2  0  0  0  0
 22 18  1  6  0  0  0
 22 26  1  0  0  0  0
 23 24  1  0  0  0  0
 24 19  2  0  0  0  0
 25 20  1  0  0  0  0
 25 22  1  0  0  0  0
 27 28  1  0  0  0  0
 28 24  1  0  0  0  0
 28 20  2  0  0  0  0
 29 21  1  0  0  0  0
 29 27  2  0  0  0  0
 30 31  2  0  0  0  0
 30 26  1  0  0  0  0
 32 34  1  6  0  0  0
 32 21  1  0  0  0  0
 33 32  1  0  0  0  0
M  END
>  <MODEL>
1

>  <REMARK>
 VINA RESULT:      -9.1      0.000      0.000
  Name = 
  4 active torsions:
  status: ('A' for Active; 'I' for Inactive)
    1  A    between atoms: N_1  and  C_9
    2  A    between atoms: N_3  and  C_25
    3  A    between atoms: C_7  and  C_11
    4  A    between atoms: C_8  and  C_9
                            x       y       z     vdW  Elec       q    Type
                         _______ _______ _______ _____ _____    ______ ____

>  <TORSDO>
F 4

$$$$
=
 OpenBabel10272415213D

 34 39  0  0  1  0  0  0  0  0999 V2000
  184.9060  178.1360  143.1090 N   0  0  0  0  0  0  0  0  0  0  0  0
  185.4290  179.1000  146.6230 C   0  0  0  0  0  2  0  0  0  0  0  0
  183.5150  179.0650  145.3750 N   0  0  0  0  0  0  0  0  0  0  0  0
  182.7940  178.4860  141.9750 N   0  0  0  0  0  0  0  0  0  0  0  0
  181.5940  178.9230  142.4440 C   0  0  0  0  0  3  0  0  0  0  0  0
  182.8980  178.9180  144.1880 C   0  0  0  0  0  0  0  0  0  0  0  0
  183.5990  178.4940  143.0460 C   0  0  0  0  0  0  0  0  0  0  0  0
  181.6130  179.2140  143.8170 C   0  0  0  0  0  3  0  0  0  0  0  0
  186.8970  179.1350  146.8750 C   0  0  0  0  0  2  0  0  0  0  0  0
  187.5170  177.7880  146.7930 C   0  0  0  0  0  0  0  0  0  0  0  0
  187.4660  177.0950  145.6570 C   0  0  0  0  0  3  0  0  0  0  0  0
  184.8360  178.7320  145.4820 C   0  0  0  0  0  0  0  0  0  0  0  0
  186.6770  177.4370  144.4620 C   0  0  0  0  0  2  0  0  0  0  0  0
  185.5260  178.1370  144.3480 C   0  0  0  0  0  0  0  0  0  0  0  0
  188.3070  177.3080  147.8920 N   0  0  0  0  0  0  0  0  0  0  0  0
  189.4090  176.5180  147.6590 O   0  0  0  0  0  0  0  0  0  0  0  0
  188.0100  177.6040  149.0690 O   0  0  0  0  0  0  0  0  0  0  0  0
  185.6010  177.7180  141.8810 C   0  0  0  0  0  2  0  0  0  0  0  0
  187.9560  176.8570  137.1880 C   0  0  0  0  0  3  0  0  0  0  0  0
  188.0920  178.2150  139.6280 C   0  0  0  0  0  0  0  0  0  0  0  0
  191.4190  176.0520  138.2270 C   0  0  0  0  0  0  0  0  0  0  0  0
  186.1410  178.9060  141.0660 C   0  0  1  0  0  3  0  0  0  0  0  0
  190.2450  176.1080  137.4700 C   0  0  0  0  0  3  0  0  0  0  0  0
  189.1390  176.8230  137.9390 C   0  0  0  0  0  0  0  0  0  0  0  0
  187.9630  179.0490  141.2010 S   0  0  0  0  0  0  0  0  0  0  0  0
  185.7590  178.8280  139.5830 C   0  0  0  0  0  2  0  0  0  0  0  0
  190.3870  177.4340  139.9390 C   0  0  0  0  0  3  0  0  0  0  0  0
  189.2100  177.4980  139.1820 C   0  0  0  0  0  0  0  0  0  0  0  0
  191.4860  176.7150  139.4630 C   0  0  0  0  0  3  0  0  0  0  0  0
  186.9200  178.2100  138.8970 C   0  0  0  0  0  0  0  0  0  0  0  0
  186.8350  177.5430  137.6740 C   0  0  0  0  0  3  0  0  0  0  0  0
  192.5890  175.2850  137.7010 C   0  0  2  0  0  3  0  0  0  0  0  0
  193.7790  175.9450  138.0040 O   0  0  0  0  0  1  0  0  0  0  0  0
  192.4740  175.0870  136.2000 C   0  0  0  0  0  1  0  0  0  0  0  0
  1 14  1  0  0  0  0
  2  9  1  0  0  0  0
  3 12  1  0  0  0  0
  4  5  1  0  0  0  0
  4  7  2  0  0  0  0
  5  8  2  0  0  0  0
  6  3  2  0  0  0  0
  7  1  1  0  0  0  0
  7  6  1  0  0  0  0
  8  6  1  0  0  0  0
 10  9  1  0  0  0  0
 10 15  1  0  0  0  0
 11 10  2  0  0  0  0
 12  2  1  0  0  0  0
 13 11  1  0  0  0  0
 14 13  1  0  0  0  0
 14 12  2  0  0  0  0
 15 17  2  0  0  0  0
 16 15  2  0  0  0  0
 18  1  1  0  0  0  0
 19 31  2  0  0  0  0
 19 24  1  0  0  0  0
 20 25  1  0  0  0  0
 21 29  1  0  0  0  0
 22 25  1  0  0  0  0
 22 18  1  1  0  0  0
 23 24  1  0  0  0  0
 23 21  2  0  0  0  0
 24 28  2  0  0  0  0
 26 22  1  0  0  0  0
 28 20  1  0  0  0  0
 28 27  1  0  0  0  0
 29 27  2  0  0  0  0
 30 26  1  0  0  0  0
 30 20  2  0  0  0  0
 31 30  1  0  0  0  0
 32 34  1  6  0  0  0
 32 33  1  0  0  0  0
 32 21  1  0  0  0  0
M  END
>  <MODEL>
2

>  <REMARK>
 VINA RESULT:      -8.8      3.671      7.628
  Name = 
  4 active torsions:
  status: ('A' for Active; 'I' for Inactive)
    1  A    between atoms: N_1  and  C_9
    2  A    between atoms: N_3  and  C_25
    3  A    between atoms: C_7  and  C_11
    4  A    between atoms: C_8  and  C_9
                            x       y       z     vdW  Elec       q    Type
                         _______ _______ _______ _____ _____    ______ ____

>  <TORSDO>
F 4

$$$$
=
 OpenBabel10272415213D

 34 39  0  0  1  0  0  0  0  0999 V2000
  188.1870  177.2100  144.4390 N   0  0  0  0  0  0  0  0  0  0  0  0
  191.5880  177.4170  143.0470 C   0  0  0  0  0  2  0  0  0  0  0  0
  190.8940  177.0420  145.1930 N   0  0  0  0  0  0  0  0  0  0  0  0
  187.7720  177.0920  146.8230 N   0  0  0  0  0  0  0  0  0  0  0  0
  188.6320  176.9740  147.8710 C   0  0  0  0  0  3  0  0  0  0  0  0
  189.9100  176.9870  146.1080 C   0  0  0  0  0  0  0  0  0  0  0  0
  188.5600  177.1110  145.7390 C   0  0  0  0  0  0  0  0  0  0  0  0
  189.9770  176.9140  147.4740 C   0  0  0  0  0  3  0  0  0  0  0  0
  191.4780  177.8810  141.6360 C   0  0  0  0  0  2  0  0  0  0  0  0
  190.8100  176.8830  140.7620 C   0  0  0  0  0  0  0  0  0  0  0  0
  189.5570  176.5090  141.0090 C   0  0  0  0  0  3  0  0  0  0  0  0
  190.5660  177.1580  143.8710 C   0  0  0  0  0  0  0  0  0  0  0  0
  188.7670  176.8430  142.2070 C   0  0  0  0  0  2  0  0  0  0  0  0
  189.1700  177.1210  143.4670 C   0  0  0  0  0  0  0  0  0  0  0  0
  191.4660  176.4470  139.5620 N   0  0  0  0  0  0  0  0  0  0  0  0
  190.8660  175.5170  138.7450 O   0  0  0  0  0  0  0  0  0  0  0  0
  192.5830  176.9060  139.2410 O   0  0  0  0  0  0  0  0  0  0  0  0
  186.7610  177.3580  144.1060 C   0  0  0  0  0  2  0  0  0  0  0  0
  181.6320  178.5880  143.4000 C   0  0  0  0  0  3  0  0  0  0  0  0
  184.2490  178.9850  142.5000 C   0  0  0  0  0  0  0  0  0  0  0  0
  181.2090  177.9730  139.7720 C   0  0  0  0  0  0  0  0  0  0  0  0
  186.3480  178.8250  143.8870 C   0  0  1  0  0  3  0  0  0  0  0  0
  180.9160  178.1270  141.1300 C   0  0  0  0  0  3  0  0  0  0  0  0
  181.9270  178.4570  142.0360 C   0  0  0  0  0  0  0  0  0  0  0  0
  185.9840  179.1710  142.1250 S   0  0  0  0  0  0  0  0  0  0  0  0
  185.1340  179.2290  144.7320 C   0  0  0  0  0  2  0  0  0  0  0  0
  183.5430  178.4850  140.2150 C   0  0  0  0  0  3  0  0  0  0  0  0
  183.2530  178.6450  141.5750 C   0  0  0  0  0  0  0  0  0  0  0  0
  182.5260  178.1510  139.3170 C   0  0  0  0  0  3  0  0  0  0  0  0
  183.9530  179.0730  143.8470 C   0  0  0  0  0  0  0  0  0  0  0  0
  182.6510  178.8840  144.3140 C   0  0  0  0  0  3  0  0  0  0  0  0
  180.1090  177.6230  138.8230 C   0  0  2  0  0  3  0  0  0  0  0  0
  180.3340  176.3690  138.2570 O   0  0  0  0  0  1  0  0  0  0  0  0
  179.9850  178.6700  137.7310 C   0  0  0  0  0  1  0  0  0  0  0  0
  1  7  1  0  0  0  0
  2 12  1  0  0  0  0
  3  6  2  0  0  0  0
  4  5  1  0  0  0  0
  6  8  1  0  0  0  0
  7  6  1  0  0  0  0
  7  4  2  0  0  0  0
  8  5  2  0  0  0  0
  9  2  1  0  0  0  0
 10 11  2  0  0  0  0
 10  9  1  0  0  0  0
 11 13  1  0  0  0  0
 12  3  1  0  0  0  0
 13 14  1  0  0  0  0
 14 12  2  0  0  0  0
 14  1  1  0  0  0  0
 15 10  1  0  0  0  0
 16 15  2  0  0  0  0
 17 15  2  0  0  0  0
 18  1  1  0  0  0  0
 19 31  1  0  0  0  0
 20 30  1  0  0  0  0
 21 23  2  0  0  0  0
 22 18  1  6  0  0  0
 22 26  1  0  0  0  0
 23 24  1  0  0  0  0
 24 19  2  0  0  0  0
 25 20  1  0  0  0  0
 25 22  1  0  0  0  0
 27 28  1  0  0  0  0
 28 24  1  0  0  0  0
 28 20  2  0  0  0  0
 29 21  1  0  0  0  0
 29 27  2  0  0  0  0
 30 31  2  0  0  0  0
 30 26  1  0  0  0  0
 32 34  1  6  0  0  0
 32 21  1  0  0  0  0
 33 32  1  0  0  0  0
M  END
>  <MODEL>
3

>  <REMARK>
 VINA RESULT:      -8.7      0.906      1.090
  Name = 
  4 active torsions:
  status: ('A' for Active; 'I' for Inactive)
    1  A    between atoms: N_1  and  C_9
    2  A    between atoms: N_3  and  C_25
    3  A    between atoms: C_7  and  C_11
    4  A    between atoms: C_8  and  C_9
                            x       y       z     vdW  Elec       q    Type
                         _______ _______ _______ _____ _____    ______ ____

>  <TORSDO>
F 4

$$$$
=
 OpenBabel10272415213D

 34 39  0  0  1  0  0  0  0  0999 V2000
  189.0480  176.8270  143.8540 N   0  0  0  0  0  0  0  0  0  0  0  0
  186.5190  177.7180  146.3750 C   0  0  0  0  0  2  0  0  0  0  0  0
  188.7810  177.4690  146.5830 N   0  0  0  0  0  0  0  0  0  0  0  0
  191.3490  176.3500  144.4450 N   0  0  0  0  0  0  0  0  0  0  0  0
  192.0000  176.4490  145.6360 C   0  0  0  0  0  3  0  0  0  0  0  0
  189.9660  177.1010  146.0650 C   0  0  0  0  0  0  0  0  0  0  0  0
  190.0950  176.7410  144.7120 C   0  0  0  0  0  0  0  0  0  0  0  0
  191.1760  176.9040  146.6770 C   0  0  0  0  0  3  0  0  0  0  0  0
  185.1740  177.5420  145.7570 C   0  0  0  0  0  2  0  0  0  0  0  0
  184.9230  178.5130  144.6620 C   0  0  0  0  0  0  0  0  0  0  0  0
  185.7040  178.5230  143.5830 C   0  0  0  0  0  3  0  0  0  0  0  0
  187.6940  177.5540  145.7580 C   0  0  0  0  0  0  0  0  0  0  0  0
  186.9590  177.7730  143.4090 C   0  0  0  0  0  2  0  0  0  0  0  0
  187.8530  177.3440  144.3290 C   0  0  0  0  0  0  0  0  0  0  0  0
  183.7430  179.3290  144.7010 N   0  0  0  0  0  0  0  0  0  0  0  0
  183.5050  180.2490  143.7060 O   0  0  0  0  0  0  0  0  0  0  0  0
  182.9160  179.2130  145.6310 O   0  0  0  0  0  0  0  0  0  0  0  0
  189.2280  176.4190  142.4510 C   0  0  0  0  0  2  0  0  0  0  0  0
  188.4180  176.2150  137.1960 C   0  0  0  0  0  3  0  0  0  0  0  0
  190.2590  176.7470  139.2320 C   0  0  0  0  0  0  0  0  0  0  0  0
  191.2870  174.1580  136.0780 C   0  0  0  0  0  0  0  0  0  0  0  0
  189.7250  177.5680  141.5540 C   0  0  1  0  0  3  0  0  0  0  0  0
  190.0300  174.7680  136.1080 C   0  0  0  0  0  3  0  0  0  0  0  0
  189.6870  175.6240  137.1580 C   0  0  0  0  0  0  0  0  0  0  0  0
  191.2600  177.1160  140.6620 S   0  0  0  0  0  0  0  0  0  0  0  0
  188.6730  178.0180  140.5330 C   0  0  0  0  0  2  0  0  0  0  0  0
  191.8770  175.2610  138.1610 C   0  0  0  0  0  3  0  0  0  0  0  0
  190.6210  175.8780  138.1930 C   0  0  0  0  0  0  0  0  0  0  0  0
  192.2090  174.4040  137.1080 C   0  0  0  0  0  3  0  0  0  0  0  0
  188.9910  177.2930  139.2780 C   0  0  0  0  0  0  0  0  0  0  0  0
  188.0600  177.0440  138.2670 C   0  0  0  0  0  3  0  0  0  0  0  0
  191.6300  173.2510  134.9400 C   0  0  2  0  0  3  0  0  0  0  0  0
  190.4740  172.6930  134.3960 O   0  0  0  0  0  1  0  0  0  0  0  0
  192.5730  172.1510  135.3920 C   0  0  0  0  0  1  0  0  0  0  0  0
  1 14  1  0  0  0  0
  1  7  1  0  0  0  0
  4  7  2  0  0  0  0
  4  5  1  0  0  0  0
  5  8  2  0  0  0  0
  6  3  2  0  0  0  0
  6  8  1  0  0  0  0
  7  6  1  0  0  0  0
  9  2  1  0  0  0  0
 10 15  1  0  0  0  0
 10  9  1  0  0  0  0
 11 10  2  0  0  0  0
 12  2  1  0  0  0  0
 12  3  1  0  0  0  0
 13 11  1  0  0  0  0
 13 14  1  0  0  0  0
 14 12  2  0  0  0  0
 15 17  2  0  0  0  0
 16 15  2  0  0  0  0
 18  1  1  0  0  0  0
 19 31  1  0  0  0  0
 20 30  1  0  0  0  0
 20 25  1  0  0  0  0
 21 23  2  0  0  0  0
 21 29  1  0  0  0  0
 22 18  1  6  0  0  0
 23 24  1  0  0  0  0
 24 19  2  0  0  0  0
 24 28  1  0  0  0  0
 25 22  1  0  0  0  0
 26 22  1  0  0  0  0
 27 28  1  0  0  0  0
 28 20  2  0  0  0  0
 29 27  2  0  0  0  0
 30 26  1  0  0  0  0
 31 30  2  0  0  0  0
 32 34  1  1  0  0  0
 32 21  1  0  0  0  0
 33 32  1  0  0  0  0
M  END
>  <MODEL>
4

>  <REMARK>
 VINA RESULT:      -8.6      4.199      7.686
  Name = 
  4 active torsions:
  status: ('A' for Active; 'I' for Inactive)
    1  A    between atoms: N_1  and  C_9
    2  A    between atoms: N_3  and  C_25
    3  A    between atoms: C_7  and  C_11
    4  A    between atoms: C_8  and  C_9
                            x       y       z     vdW  Elec       q    Type
                         _______ _______ _______ _____ _____    ______ ____

>  <TORSDO>
F 4

$$$$
=
 OpenBabel10272415213D

 34 39  0  0  1  0  0  0  0  0999 V2000
  190.2210  176.1440  137.3420 N   0  0  0  0  0  0  0  0  0  0  0  0
  192.7090  174.8030  134.9840 C   0  0  0  0  0  2  0  0  0  0  0  0
  190.8550  176.0840  134.6000 N   0  0  0  0  0  0  0  0  0  0  0  0
  188.1890  177.2310  136.5960 N   0  0  0  0  0  0  0  0  0  0  0  0
  187.7720  177.5780  135.3480 C   0  0  0  0  0  3  0  0  0  0  0  0
  189.7250  176.6620  135.0420 C   0  0  0  0  0  0  0  0  0  0  0  0
  189.3850  176.6580  136.4060 C   0  0  0  0  0  0  0  0  0  0  0  0
  188.6930  177.2340  134.3460 C   0  0  0  0  0  3  0  0  0  0  0  0
  193.5920  173.8670  135.7340 C   0  0  0  0  0  2  0  0  0  0  0  0
  194.4230  174.5630  136.7490 C   0  0  0  0  0  0  0  0  0  0  0  0
  193.8440  175.2270  137.7470 C   0  0  0  0  0  3  0  0  0  0  0  0
  191.7210  175.5380  135.5060 C   0  0  0  0  0  0  0  0  0  0  0  0
  192.4080  175.5230  137.8790 C   0  0  0  0  0  2  0  0  0  0  0  0
  191.4580  175.6750  136.9290 C   0  0  0  0  0  0  0  0  0  0  0  0
  195.8470  174.3830  136.7380 N   0  0  0  0  0  0  0  0  0  0  0  0
  196.6830  175.4750  136.7830 O   0  0  0  0  0  0  0  0  0  0  0  0
  196.3460  173.2380  136.6920 O   0  0  0  0  0  0  0  0  0  0  0  0
  189.8110  176.1450  138.7560 C   0  0  0  0  0  2  0  0  0  0  0  0
  188.4480  176.8310  143.8530 C   0  0  0  0  0  3  0  0  0  0  0  0
  188.6740  178.0330  141.3400 C   0  0  0  0  0  0  0  0  0  0  0  0
  185.0960  178.3730  143.5290 C   0  0  0  0  0  0  0  0  0  0  0  0
  190.2920  177.3940  139.5160 C   0  0  1  0  0  3  0  0  0  0  0  0
  186.1830  177.6720  144.0590 C   0  0  0  0  0  3  0  0  0  0  0  0
  187.3690  177.5550  143.3290 C   0  0  0  0  0  0  0  0  0  0  0  0
  188.9590  178.6410  139.6860 S   0  0  0  0  0  0  0  0  0  0  0  0
  190.8410  177.0640  140.9100 C   0  0  0  0  0  2  0  0  0  0  0  0
  186.3790  178.8530  141.5220 C   0  0  0  0  0  3  0  0  0  0  0  0
  187.4720  178.1560  142.0500 C   0  0  0  0  0  0  0  0  0  0  0  0
  185.1960  178.9610  142.2580 C   0  0  0  0  0  3  0  0  0  0  0  0
  189.7160  177.2850  141.8510 C   0  0  0  0  0  0  0  0  0  0  0  0
  189.6240  176.6830  143.1070 C   0  0  0  0  0  3  0  0  0  0  0  0
  183.8410  178.4870  144.3330 C   0  0  2  0  0  3  0  0  0  0  0  0
  183.0280  179.5000  143.8250 O   0  0  0  0  0  1  0  0  0  0  0  0
  184.1570  178.7590  145.7920 C   0  0  0  0  0  1  0  0  0  0  0  0
  1 18  1  0  0  0  0
  2 12  1  0  0  0  0
  2  9  1  0  0  0  0
  3  6  2  0  0  0  0
  3 12  1  0  0  0  0
  5  4  1  0  0  0  0
  6  7  1  0  0  0  0
  7  4  2  0  0  0  0
  7  1  1  0  0  0  0
  8  6  1  0  0  0  0
  8  5  2  0  0  0  0
  9 10  1  0  0  0  0
 10 11  2  0  0  0  0
 11 13  1  0  0  0  0
 12 14  2  0  0  0  0
 14  1  1  0  0  0  0
 14 13  1  0  0  0  0
 15 10  1  0  0  0  0
 15 16  2  0  0  0  0
 17 15  2  0  0  0  0
 20 30  2  0  0  0  0
 20 28  1  0  0  0  0
 21 23  1  0  0  0  0
 21 32  1  0  0  0  0
 22 18  1  1  0  0  0
 22 25  1  0  0  0  0
 22 26  1  0  0  0  0
 24 19  1  0  0  0  0
 24 23  2  0  0  0  0
 25 20  1  0  0  0  0
 26 30  1  0  0  0  0
 27 28  2  0  0  0  0
 27 29  1  0  0  0  0
 28 24  1  0  0  0  0
 29 21  2  0  0  0  0
 30 31  1  0  0  0  0
 31 19  2  0  0  0  0
 32 34  1  1  0  0  0
 33 32  1  0  0  0  0
M  END
>  <MODEL>
5

>  <REMARK>
 VINA RESULT:      -8.5      4.630      8.095
  Name = 
  4 active torsions:
  status: ('A' for Active; 'I' for Inactive)
    1  A    between atoms: N_1  and  C_9
    2  A    between atoms: N_3  and  C_25
    3  A    between atoms: C_7  and  C_11
    4  A    between atoms: C_8  and  C_9
                            x       y       z     vdW  Elec       q    Type
                         _______ _______ _______ _____ _____    ______ ____

>  <TORSDO>
F 4

$$$$
=
 OpenBabel10272415213D

 34 39  0  0  1  0  0  0  0  0999 V2000
  190.1300  175.7480  137.7920 N   0  0  0  0  0  0  0  0  0  0  0  0
  192.3810  174.1790  135.3390 C   0  0  0  0  0  2  0  0  0  0  0  0
  190.3360  175.1560  135.0470 N   0  0  0  0  0  0  0  0  0  0  0  0
  187.8800  176.4410  137.2220 N   0  0  0  0  0  0  0  0  0  0  0  0
  187.2330  176.4650  136.0250 C   0  0  0  0  0  3  0  0  0  0  0  0
  189.2190  175.7020  135.5620 C   0  0  0  0  0  0  0  0  0  0  0  0
  189.0980  175.9610  136.9380 C   0  0  0  0  0  0  0  0  0  0  0  0
  188.0250  176.0050  134.9620 C   0  0  0  0  0  3  0  0  0  0  0  0
  193.4870  173.5200  136.0880 C   0  0  0  0  0  2  0  0  0  0  0  0
  194.3640  174.4990  136.7800 C   0  0  0  0  0  0  0  0  0  0  0  0
  193.8620  175.3040  137.7150 C   0  0  0  0  0  3  0  0  0  0  0  0
  191.3960  174.9090  135.8740 C   0  0  0  0  0  0  0  0  0  0  0  0
  192.4370  175.4790  138.0410 C   0  0  0  0  0  2  0  0  0  0  0  0
  191.3400  175.3250  137.2650 C   0  0  0  0  0  0  0  0  0  0  0  0
  195.7800  174.4620  136.5490 N   0  0  0  0  0  0  0  0  0  0  0  0
  196.2860  173.7940  135.4580 O   0  0  0  0  0  0  0  0  0  0  0  0
  196.5700  175.0380  137.3280 O   0  0  0  0  0  0  0  0  0  0  0  0
  189.9470  176.0170  139.2280 C   0  0  0  0  0  2  0  0  0  0  0  0
  190.9550  177.3380  144.2820 C   0  0  0  0  0  3  0  0  0  0  0  0
  189.5100  177.9670  141.9730 C   0  0  0  0  0  0  0  0  0  0  0  0
  187.5350  177.6300  145.6740 C   0  0  0  0  0  0  0  0  0  0  0  0
  190.2040  177.4880  139.5980 C   0  0  1  0  0  3  0  0  0  0  0  0
  188.9180  177.4430  145.5930 C   0  0  0  0  0  3  0  0  0  0  0  0
  189.5720  177.5500  144.3630 C   0  0  0  0  0  0  0  0  0  0  0  0
  188.7390  178.2540  140.3890 S   0  0  0  0  0  0  0  0  0  0  0  0
  191.4140  177.6630  140.5230 C   0  0  0  0  0  2  0  0  0  0  0  0
  187.4460  178.0380  143.2800 C   0  0  0  0  0  3  0  0  0  0  0  0
  188.8320  177.8560  143.1940 C   0  0  0  0  0  0  0  0  0  0  0  0
  186.8010  177.9250  144.5140 C   0  0  0  0  0  3  0  0  0  0  0  0
  190.8670  177.7190  141.9010 C   0  0  0  0  0  0  0  0  0  0  0  0
  191.6060  177.4100  143.0440 C   0  0  0  0  0  3  0  0  0  0  0  0
  186.8610  177.5150  147.0030 C   0  0  2  0  0  3  0  0  0  0  0  0
  185.8310  178.4490  147.1080 O   0  0  0  0  0  1  0  0  0  0  0  0
  187.8560  177.7120  148.1320 C   0  0  0  0  0  1  0  0  0  0  0  0
  1 18  1  0  0  0  0
  2 12  1  0  0  0  0
  2  9  1  0  0  0  0
  3  6  2  0  0  0  0
  3 12  1  0  0  0  0
  5  4  1  0  0  0  0
  6  7  1  0  0  0  0
  7  4  2  0  0  0  0
  7  1  1  0  0  0  0
  8  6  1  0  0  0  0
  8  5  2  0  0  0  0
  9 10  1  0  0  0  0
 10 11  2  0  0  0  0
 11 13  1  0  0  0  0
 12 14  2  0  0  0  0
 14  1  1  0  0  0  0
 14 13  1  0  0  0  0
 15 10  1  0  0  0  0
 15 17  2  0  0  0  0
 16 15  2  0  0  0  0
 19 24  1  0  0  0  0
 20 28  1  0  0  0  0
 21 32  1  0  0  0  0
 22 18  1  1  0  0  0
 22 25  1  0  0  0  0
 22 26  1  0  0  0  0
 23 21  1  0  0  0  0
 24 23  2  0  0  0  0
 25 20  1  0  0  0  0
 26 30  1  0  0  0  0
 27 29  1  0  0  0  0
 28 27  2  0  0  0  0
 28 24  1  0  0  0  0
 29 21  2  0  0  0  0
 30 20  2  0  0  0  0
 30 31  1  0  0  0  0
 31 19  2  0  0  0  0
 32 33  1  0  0  0  0
 32 34  1  1  0  0  0
M  END
>  <MODEL>
6

>  <REMARK>
 VINA RESULT:      -8.4      5.123      8.846
  Name = 
  4 active torsions:
  status: ('A' for Active; 'I' for Inactive)
    1  A    between atoms: N_1  and  C_9
    2  A    between atoms: N_3  and  C_25
    3  A    between atoms: C_7  and  C_11
    4  A    between atoms: C_8  and  C_9
                            x       y       z     vdW  Elec       q    Type
                         _______ _______ _______ _____ _____    ______ ____

>  <TORSDO>
F 4

$$$$
=
 OpenBabel10272415213D

 34 39  0  0  1  0  0  0  0  0999 V2000
  189.7850  176.1240  137.1650 N   0  0  0  0  0  0  0  0  0  0  0  0
  187.5330  177.1410  134.4370 C   0  0  0  0  0  2  0  0  0  0  0  0
  189.7210  176.4840  134.3730 N   0  0  0  0  0  0  0  0  0  0  0  0
  192.1550  175.7610  136.8160 N   0  0  0  0  0  0  0  0  0  0  0  0
  192.8950  175.7570  135.6740 C   0  0  0  0  0  3  0  0  0  0  0  0
  190.8610  176.1600  135.0090 C   0  0  0  0  0  0  0  0  0  0  0  0
  190.9050  176.0200  136.4070 C   0  0  0  0  0  0  0  0  0  0  0  0
  192.1330  176.0110  134.5240 C   0  0  0  0  0  3  0  0  0  0  0  0
  186.2800  177.6650  135.0480 C   0  0  0  0  0  2  0  0  0  0  0  0
  185.5090  176.6090  135.7540 C   0  0  0  0  0  0  0  0  0  0  0  0
  186.0480  175.9620  136.7840 C   0  0  0  0  0  3  0  0  0  0  0  0
  188.5700  176.6160  135.0990 C   0  0  0  0  0  0  0  0  0  0  0  0
  187.4520  176.0400  137.2250 C   0  0  0  0  0  2  0  0  0  0  0  0
  188.5730  176.3120  136.5200 C   0  0  0  0  0  0  0  0  0  0  0  0
  184.1280  176.4040  135.4200 N   0  0  0  0  0  0  0  0  0  0  0  0
  183.4270  175.3630  135.9850 O   0  0  0  0  0  0  0  0  0  0  0  0
  183.5440  177.1660  134.6200 O   0  0  0  0  0  0  0  0  0  0  0  0
  189.8860  175.9890  138.6270 C   0  0  0  0  0  2  0  0  0  0  0  0
  188.7980  176.8670  143.7610 C   0  0  0  0  0  3  0  0  0  0  0  0
  188.8780  177.9710  141.1940 C   0  0  0  0  0  0  0  0  0  0  0  0
  185.4230  178.3800  143.5610 C   0  0  0  0  0  0  0  0  0  0  0  0
  190.4000  177.2690  139.3110 C   0  0  1  0  0  3  0  0  0  0  0  0
  186.5420  177.7050  144.0570 C   0  0  0  0  0  3  0  0  0  0  0  0
  187.6870  177.5650  143.2680 C   0  0  0  0  0  0  0  0  0  0  0  0
  189.0700  178.5150  139.5050 S   0  0  0  0  0  0  0  0  0  0  0  0
  191.0250  176.9950  140.6840 C   0  0  0  0  0  2  0  0  0  0  0  0
  186.5920  178.7880  141.4690 C   0  0  0  0  0  3  0  0  0  0  0  0
  187.7160  178.1160  141.9630 C   0  0  0  0  0  0  0  0  0  0  0  0
  185.4500  178.9190  142.2640 C   0  0  0  0  0  3  0  0  0  0  0  0
  189.9520  177.2480  141.6770 C   0  0  0  0  0  0  0  0  0  0  0  0
  189.9320  176.6950  142.9580 C   0  0  0  0  0  3  0  0  0  0  0  0
  184.2130  178.5200  144.4270 C   0  0  2  0  0  3  0  0  0  0  0  0
  183.3960  179.5490  143.9590 O   0  0  0  0  0  1  0  0  0  0  0  0
  184.6080  178.7870  145.8670 C   0  0  0  0  0  1  0  0  0  0  0  0
  1 18  1  0  0  0  0
  2  9  1  0  0  0  0
  2 12  1  0  0  0  0
  3  6  2  0  0  0  0
  3 12  1  0  0  0  0
  5  4  1  0  0  0  0
  6  7  1  0  0  0  0
  7  4  2  0  0  0  0
  7  1  1  0  0  0  0
  8  6  1  0  0  0  0
  8  5  2  0  0  0  0
  9 10  1  0  0  0  0
 10 11  2  0  0  0  0
 11 13  1  0  0  0  0
 12 14  2  0  0  0  0
 14  1  1  0  0  0  0
 14 13  1  0  0  0  0
 15 10  1  0  0  0  0
 15 16  2  0  0  0  0
 17 15  2  0  0  0  0
 20 30  2  0  0  0  0
 20 28  1  0  0  0  0
 21 23  1  0  0  0  0
 21 32  1  0  0  0  0
 22 18  1  1  0  0  0
 22 25  1  0  0  0  0
 22 26  1  0  0  0  0
 24 19  1  0  0  0  0
 24 23  2  0  0  0  0
 25 20  1  0  0  0  0
 26 30  1  0  0  0  0
 27 28  2  0  0  0  0
 27 29  1  0  0  0  0
 28 24  1  0  0  0  0
 29 21  2  0  0  0  0
 30 31  1  0  0  0  0
 31 19  2  0  0  0  0
 32 34  1  1  0  0  0
 33 32  1  0  0  0  0
M  END
>  <MODEL>
7

>  <REMARK>
 VINA RESULT:      -8.4      4.652      8.542
  Name = 
  4 active torsions:
  status: ('A' for Active; 'I' for Inactive)
    1  A    between atoms: N_1  and  C_9
    2  A    between atoms: N_3  and  C_25
    3  A    between atoms: C_7  and  C_11
    4  A    between atoms: C_8  and  C_9
                            x       y       z     vdW  Elec       q    Type
                         _______ _______ _______ _____ _____    ______ ____

>  <TORSDO>
F 4

$$$$
=
 OpenBabel10272415213D

 34 39  0  0  1  0  0  0  0  0999 V2000
  188.0070  177.3590  144.4190 N   0  0  0  0  0  0  0  0  0  0  0  0
  189.3430  178.0390  147.7810 C   0  0  0  0  0  2  0  0  0  0  0  0
  187.1950  178.1220  147.0050 N   0  0  0  0  0  0  0  0  0  0  0  0
  185.7040  177.8200  143.8270 N   0  0  0  0  0  0  0  0  0  0  0  0
  184.6550  178.2320  144.5900 C   0  0  0  0  0  3  0  0  0  0  0  0
  186.3210  178.0760  145.9840 C   0  0  0  0  0  0  0  0  0  0  0  0
  186.7310  177.7350  144.6840 C   0  0  0  0  0  0  0  0  0  0  0  0
  184.9940  178.4140  145.9390 C   0  0  0  0  0  3  0  0  0  0  0  0
  190.8300  178.0380  147.6920 C   0  0  0  0  0  2  0  0  0  0  0  0
  191.3780  176.6950  147.3710 C   0  0  0  0  0  0  0  0  0  0  0  0
  191.0500  176.0940  146.2290 C   0  0  0  0  0  3  0  0  0  0  0  0
  188.4970  177.7680  146.7820 C   0  0  0  0  0  0  0  0  0  0  0  0
  190.0190  176.5370  145.2750 C   0  0  0  0  0  2  0  0  0  0  0  0
  188.8930  177.2570  145.4800 C   0  0  0  0  0  0  0  0  0  0  0  0
  192.3820  176.1220  148.2210 N   0  0  0  0  0  0  0  0  0  0  0  0
  193.1070  176.9240  149.0720 O   0  0  0  0  0  0  0  0  0  0  0  0
  192.6080  174.8930  148.2060 O   0  0  0  0  0  0  0  0  0  0  0  0
  188.3930  177.0300  143.0370 C   0  0  0  0  0  2  0  0  0  0  0  0
  187.9340  177.2930  137.7430 C   0  0  0  0  0  3  0  0  0  0  0  0
  189.6460  177.5980  139.9320 C   0  0  0  0  0  0  0  0  0  0  0  0
  190.8250  175.2550  136.6410 C   0  0  0  0  0  0  0  0  0  0  0  0
  188.9750  178.2350  142.2770 C   0  0  1  0  0  3  0  0  0  0  0  0
  189.5830  175.8970  136.6410 C   0  0  0  0  0  3  0  0  0  0  0  0
  189.1900  176.6710  137.7370 C   0  0  0  0  0  0  0  0  0  0  0  0
  190.5570  177.8160  141.4510 S   0  0  0  0  0  0  0  0  0  0  0  0
  188.0060  178.8000  141.2310 C   0  0  0  0  0  2  0  0  0  0  0  0
  191.2980  176.1620  138.8460 C   0  0  0  0  0  3  0  0  0  0  0  0
  190.0570  176.8100  138.8490 C   0  0  0  0  0  0  0  0  0  0  0  0
  191.6800  175.3880  137.7470 C   0  0  0  0  0  3  0  0  0  0  0  0
  188.3900  178.1750  139.9420 C   0  0  0  0  0  0  0  0  0  0  0  0
  187.5250  178.0380  138.8550 C   0  0  0  0  0  3  0  0  0  0  0  0
  191.2230  174.4380  135.4540 C   0  0  2  0  0  3  0  0  0  0  0  0
  190.1110  174.1580  134.6610 O   0  0  0  0  0  1  0  0  0  0  0  0
  191.8890  173.1460  135.8880 C   0  0  0  0  0  1  0  0  0  0  0  0
  1  7  1  0  0  0  0
  1 14  1  0  0  0  0
  4  5  1  0  0  0  0
  4  7  2  0  0  0  0
  5  8  2  0  0  0  0
  6  3  2  0  0  0  0
  7  6  1  0  0  0  0
  8  6  1  0  0  0  0
  9  2  1  0  0  0  0
 10  9  1  0  0  0  0
 10 15  1  0  0  0  0
 11 10  2  0  0  0  0
 12  3  1  0  0  0  0
 12  2  1  0  0  0  0
 13 14  1  0  0  0  0
 13 11  1  0  0  0  0
 14 12  2  0  0  0  0
 15 16  2  0  0  0  0
 17 15  2  0  0  0  0
 18  1  1  0  0  0  0
 19 31  1  0  0  0  0
 20 30  1  0  0  0  0
 20 25  1  0  0  0  0
 21 23  2  0  0  0  0
 21 29  1  0  0  0  0
 22 18  1  6  0  0  0
 23 24  1  0  0  0  0
 24 19  2  0  0  0  0
 24 28  1  0  0  0  0
 25 22  1  0  0  0  0
 26 22  1  0  0  0  0
 27 28  1  0  0  0  0
 28 20  2  0  0  0  0
 29 27  2  0  0  0  0
 30 26  1  0  0  0  0
 31 30  2  0  0  0  0
 32 34  1  1  0  0  0
 32 21  1  0  0  0  0
 33 32  1  0  0  0  0
M  END
>  <MODEL>
8

>  <REMARK>
 VINA RESULT:      -8.3      4.086      6.999
  Name = 
  4 active torsions:
  status: ('A' for Active; 'I' for Inactive)
    1  A    between atoms: N_1  and  C_9
    2  A    between atoms: N_3  and  C_25
    3  A    between atoms: C_7  and  C_11
    4  A    between atoms: C_8  and  C_9
                            x       y       z     vdW  Elec       q    Type
                         _______ _______ _______ _____ _____    ______ ____

>  <TORSDO>
F 4

$$$$
=
 OpenBabel10272415213D

 34 39  0  0  1  0  0  0  0  0999 V2000
  189.4870  175.7330  137.7120 N   0  0  0  0  0  0  0  0  0  0  0  0
  188.0730  176.2660  134.3560 C   0  0  0  0  0  2  0  0  0  0  0  0
  189.9870  175.1930  134.9950 N   0  0  0  0  0  0  0  0  0  0  0  0
  191.6990  174.8040  138.0490 N   0  0  0  0  0  0  0  0  0  0  0  0
  192.5910  174.2880  137.1610 C   0  0  0  0  0  3  0  0  0  0  0  0
  190.8770  174.8630  135.9470 C   0  0  0  0  0  0  0  0  0  0  0  0
  190.6490  175.1680  137.3000 C   0  0  0  0  0  0  0  0  0  0  0  0
  192.1260  174.3120  135.8370 C   0  0  0  0  0  3  0  0  0  0  0  0
  186.9200  177.2010  134.4880 C   0  0  0  0  0  2  0  0  0  0  0  0
  185.7900  176.6040  135.2450 C   0  0  0  0  0  0  0  0  0  0  0  0
  185.9590  176.2220  136.5090 C   0  0  0  0  0  3  0  0  0  0  0  0
  188.8080  175.7800  135.3620 C   0  0  0  0  0  0  0  0  0  0  0  0
  187.2390  176.1480  137.2340 C   0  0  0  0  0  2  0  0  0  0  0  0
  188.4930  175.9480  136.7710 C   0  0  0  0  0  0  0  0  0  0  0  0
  184.4800  176.5880  134.6590 N   0  0  0  0  0  0  0  0  0  0  0  0
  183.8760  175.3920  134.3460 O   0  0  0  0  0  0  0  0  0  0  0  0
  183.8690  177.6540  134.4310 O   0  0  0  0  0  0  0  0  0  0  0  0
  189.3040  176.0520  139.1380 C   0  0  0  0  0  2  0  0  0  0  0  0
  191.0980  177.2330  144.0050 C   0  0  0  0  0  3  0  0  0  0  0  0
  189.3720  177.9750  141.9350 C   0  0  0  0  0  0  0  0  0  0  0  0
  187.9350  177.6800  145.8800 C   0  0  0  0  0  0  0  0  0  0  0  0
  189.6910  177.5010  139.4810 C   0  0  1  0  0  3  0  0  0  0  0  0
  189.2800  177.4220  145.5980 C   0  0  0  0  0  3  0  0  0  0  0  0
  189.7550  177.5150  144.2870 C   0  0  0  0  0  0  0  0  0  0  0  0
  188.3990  178.3300  140.4820 S   0  0  0  0  0  0  0  0  0  0  0  0
  191.0290  177.5970  140.2230 C   0  0  0  0  0  2  0  0  0  0  0  0
  187.5250  178.1330  143.5270 C   0  0  0  0  0  3  0  0  0  0  0  0
  188.8720  177.8800  143.2410 C   0  0  0  0  0  0  0  0  0  0  0  0
  187.0580  178.0330  144.8410 C   0  0  0  0  0  3  0  0  0  0  0  0
  190.6890  177.6570  141.6660 C   0  0  0  0  0  0  0  0  0  0  0  0
  191.5670  177.2910  142.6870 C   0  0  0  0  0  3  0  0  0  0  0  0
  187.4530  177.5790  147.2910 C   0  0  2  0  0  3  0  0  0  0  0  0
  186.3370  178.3910  147.4840 O   0  0  0  0  0  1  0  0  0  0  0  0
  188.5510  177.9660  148.2650 C   0  0  0  0  0  1  0  0  0  0  0  0
  1 18  1  0  0  0  0
  2  9  1  0  0  0  0
  2 12  1  0  0  0  0
  3 12  1  0  0  0  0
  3  6  2  0  0  0  0
  5  4  1  0  0  0  0
  6  7  1  0  0  0  0
  7  1  1  0  0  0  0
  7  4  2  0  0  0  0
  8  6  1  0  0  0  0
  8  5  2  0  0  0  0
  9 10  1  0  0  0  0
 10 11  2  0  0  0  0
 11 13  1  0  0  0  0
 12 14  2  0  0  0  0
 14 13  1  0  0  0  0
 14  1  1  0  0  0  0
 15 10  1  0  0  0  0
 16 15  2  0  0  0  0
 17 15  2  0  0  0  0
 19 24  1  0  0  0  0
 20 28  1  0  0  0  0
 21 32  1  0  0  0  0
 22 18  1  1  0  0  0
 22 26  1  0  0  0  0
 22 25  1  0  0  0  0
 23 21  1  0  0  0  0
 24 23  2  0  0  0  0
 25 20  1  0  0  0  0
 26 30  1  0  0  0  0
 27 29  1  0  0  0  0
 28 27  2  0  0  0  0
 28 24  1  0  0  0  0
 29 21  2  0  0  0  0
 30 20  2  0  0  0  0
 30 31  1  0  0  0  0
 31 19  2  0  0  0  0
 32 33  1  0  0  0  0
 32 34  1  1  0  0  0
M  END
>  <MODEL>
9

>  <REMARK>
 VINA RESULT:      -8.1      4.989      9.190
  Name = 
  4 active torsions:
  status: ('A' for Active; 'I' for Inactive)
    1  A    between atoms: N_1  and  C_9
    2  A    between atoms: N_3  and  C_25
    3  A    between atoms: C_7  and  C_11
    4  A    between atoms: C_8  and  C_9
                            x       y       z     vdW  Elec       q    Type
                         _______ _______ _______ _____ _____    ______ ____

>  <TORSDO>
F 4

$$$$
