=
 OpenBabel10272414563D

 37 39  0  0  1  0  0  0  0  0999 V2000
  182.8390  178.7000  137.3330 C   0  0  0  0  0  2  0  0  0  0  0  0
  185.6230  178.6350  138.9170 O   0  0  0  0  0  0  0  0  0  0  0  0
  181.5420  175.2390  136.0120 C   0  0  0  0  0  2  0  0  0  0  0  0
  183.2980  178.1290  138.6860 C   0  0  2  0  0  3  0  0  0  0  0  0
  182.1010  176.2710  137.0050 C   0  0  1  0  0  3  0  0  0  0  0  0
  184.1300  180.3690  139.0540 O   0  0  0  0  0  1  0  0  0  0  0  0
  182.5080  177.8210  135.0520 C   0  0  0  0  0  1  0  0  0  0  0  0
  183.5420  175.9020  137.4150 C   0  0  2  0  0  3  0  0  0  0  0  0
  183.3260  173.7200  136.8610 C   0  0  0  0  0  2  0  0  0  0  0  0
  181.9950  177.7280  136.4870 C   0  0  2  0  0  0  0  0  0  0  0  0
  183.5830  174.5940  137.9300 O   0  0  0  0  0  0  0  0  0  0  0  0
  184.3390  179.0210  139.3630 C   0  0  2  0  0  0  0  0  0  0  0  0
  184.0870  176.8670  138.4810 C   0  0  1  0  0  3  0  0  0  0  0  0
  181.8550  173.8090  136.4500 C   0  0  1  0  0  3  0  0  0  0  0  0
  185.5220  177.3630  138.3030 C   0  0  1  0  0  3  0  0  0  0  0  0
  180.8800  172.0620  137.3990 C   0  0  0  0  0  1  0  0  0  0  0  0
  181.0340  173.4440  137.5200 O   0  0  0  0  0  0  0  0  0  0  0  0
  180.3180  179.6010  136.9390 C   0  0  0  0  0  1  0  0  0  0  0  0
  180.5210  178.1440  136.5430 C   0  0  0  0  0  2  0  0  0  0  0  0
  185.9830  177.4470  136.8290 C   0  0  2  0  0  3  0  0  0  0  0  0
  187.0640  175.3260  137.1530 O   0  0  0  0  0  1  0  0  0  0  0  0
  186.6580  175.9160  134.9770 O   0  0  0  0  0  0  0  0  0  0  0  0
  186.5900  176.1660  136.3410 C   0  0  0  0  0  0  0  0  0  0  0  0
  186.9130  178.6320  136.5420 C   0  0  0  0  0  2  0  0  0  0  0  0
  188.3870  178.2480  136.6150 C   0  0  0  0  0  2  0  0  0  0  0  0
  188.9990  178.7490  137.9100 C   0  0  0  0  0  2  0  0  0  0  0  0
  188.8950  177.9590  140.2530 C   0  0  0  0  0  1  0  0  0  0  0  0
  189.2900  177.5860  138.8400 C   0  0  0  0  0  2  0  0  0  0  0  0
  184.2950  178.8560  140.8870 C   0  0  0  0  0  2  0  0  0  0  0  0
  185.6200  179.1930  141.5600 C   0  0  0  0  0  2  0  0  0  0  0  0
  184.3250  178.2760  143.3380 O   0  0  0  0  0  1  0  0  0  0  0  0
  185.6100  178.6960  142.9970 C   0  0  1  0  0  3  0  0  0  0  0  0
  186.5790  177.5370  143.1650 C   0  0  0  0  0  2  0  0  0  0  0  0
  187.4680  177.7340  144.3940 C   0  0  0  0  0  2  0  0  0  0  0  0
  186.7590  177.5860  145.7140 C   0  0  0  0  0  3  0  0  0  0  0  0
  187.3630  177.5810  146.8730 C   0  0  0  0  0  0  0  0  0  0  0  0
  187.9340  177.5720  147.9700 O   0  0  0  0  0  0  0  0  0  0  0  0
  2 12  1  0  0  0  0
  3 14  1  0  0  0  0
  4  1  1  6  0  0  0
  4 12  1  0  0  0  0
  5  3  1  6  0  0  0
  5  8  1  0  0  0  0
  8 11  1  1  0  0  0
  8 13  1  0  0  0  0
  9 11  1  0  0  0  0
 10  7  1  6  0  0  0
 10 19  1  0  0  0  0
 10  5  1  0  0  0  0
 10  1  1  0  0  0  0
 12  6  1  6  0  0  0
 12 29  1  0  0  0  0
 13  4  1  0  0  0  0
 14  9  1  0  0  0  0
 14 17  1  0  0  0  0
 15 13  1  0  0  0  0
 15  2  1  0  0  0  0
 16 17  1  0  0  0  0
 19 18  1  0  0  0  0
 20 15  1  0  0  0  0
 22 23  2  0  0  0  0
 23 20  1  0  0  0  0
 23 21  1  0  0  0  0
 24 25  1  0  0  0  0
 24 20  1  0  0  0  0
 25 26  1  0  0  0  0
 26 28  1  0  0  0  0
 28 27  1  0  0  0  0
 29 30  1  0  0  0  0
 30 32  1  0  0  0  0
 32 33  1  0  0  0  0
 32 31  1  0  0  0  0
 33 34  1  0  0  0  0
 34 35  1  0  0  0  0
 35 36  2  0  0  0  0
 36 37  2  0  0  0  0
M  END
>  <MODEL>
1

>  <REMARK>
 VINA RESULT:      -5.6      0.000      0.000
  Name = 
  14 active torsions:
  status: ('A' for Active; 'I' for Inactive)
    1  A    between atoms: C_1  and  C_23
    2  A    between atoms: C_1  and  C_33
    3  A    between atoms: C_1  and  C_36
    4  A    between atoms: C_6  and  C_8
    5  A    between atoms: C_6  and  C_31
    6  A    between atoms: C_8  and  C_19
    7  A    between atoms: C_15  and  C_19
    8  A    between atoms: C_17  and  C_26
    9  A    between atoms: C_17  and  C_33
   10  A    between atoms: C_24  and  C_28
   11  A    between atoms: C_26  and  C_34
   12  A    between atoms: C_27  and  C_37
   13  A    between atoms: O_30  and  C_32
   14  A    between atoms: C_31  and  C_37
                            x       y       z     vdW  Elec       q    Type
                         _______ _______ _______ _____ _____    ______ ____

>  <TORSDO>
F 14

$$$$
=
 OpenBabel10272414563D

 37 39  0  0  1  0  0  0  0  0999 V2000
  189.5310  177.5270  136.9500 C   0  0  0  0  0  2  0  0  0  0  0  0
  191.6360  175.8900  138.7250 O   0  0  0  0  0  0  0  0  0  0  0  0
  187.1840  175.3730  134.6580 C   0  0  0  0  0  2  0  0  0  0  0  0
  189.4180  176.5670  138.1470 C   0  0  2  0  0  3  0  0  0  0  0  0
  187.9140  175.8230  135.9340 C   0  0  1  0  0  3  0  0  0  0  0  0
  191.0290  178.0560  139.1610 O   0  0  0  0  0  1  0  0  0  0  0  0
  189.3300  177.3460  134.4980 C   0  0  0  0  0  1  0  0  0  0  0  0
  188.9440  174.7620  136.3720 C   0  0  2  0  0  3  0  0  0  0  0  0
  187.9390  173.0730  135.2520 C   0  0  0  0  0  2  0  0  0  0  0  0
  188.5460  177.2320  135.8040 C   0  0  2  0  0  0  0  0  0  0  0  0
  188.3200  173.5120  136.5320 O   0  0  0  0  0  0  0  0  0  0  0  0
  190.5770  176.7330  139.1290 C   0  0  2  0  0  0  0  0  0  0  0  0
  189.6190  175.1470  137.6990 C   0  0  1  0  0  3  0  0  0  0  0  0
  186.7630  173.9060  134.7380 C   0  0  1  0  0  3  0  0  0  0  0  0
  191.1310  174.9480  137.7940 C   0  0  1  0  0  3  0  0  0  0  0  0
  185.1800  172.4830  135.3470 C   0  0  0  0  0  1  0  0  0  0  0  0
  185.6650  173.7680  135.5930 O   0  0  0  0  0  0  0  0  0  0  0  0
  186.4860  178.1240  137.0250 C   0  0  0  0  0  1  0  0  0  0  0  0
  187.4110  178.2630  135.8220 C   0  0  0  0  0  2  0  0  0  0  0  0
  191.8740  175.0850  136.4450 C   0  0  2  0  0  3  0  0  0  0  0  0
  191.8990  173.1830  134.9770 O   0  0  0  0  0  0  0  0  0  0  0  0
  193.5060  173.2030  136.6090 O   0  0  0  0  0  1  0  0  0  0  0  0
  192.4240  173.7790  135.9560 C   0  0  0  0  0  0  0  0  0  0  0  0
  192.9610  176.1660  136.4470 C   0  0  0  0  0  2  0  0  0  0  0  0
  193.6910  176.2600  135.1120 C   0  0  0  0  0  2  0  0  0  0  0  0
  195.1400  176.6570  135.3290 C   0  0  0  0  0  2  0  0  0  0  0  0
  196.6220  174.9500  136.3360 C   0  0  0  0  0  1  0  0  0  0  0  0
  196.0560  175.4840  135.0370 C   0  0  0  0  0  2  0  0  0  0  0  0
  190.1590  176.3250  140.5470 C   0  0  0  0  0  2  0  0  0  0  0  0
  190.4940  177.3810  141.5930 C   0  0  0  0  0  2  0  0  0  0  0  0
  188.3580  178.4320  141.4900 O   0  0  0  0  0  1  0  0  0  0  0  0
  189.2360  177.7740  142.3510 C   0  0  1  0  0  3  0  0  0  0  0  0
  188.5530  176.5430  142.9230 C   0  0  0  0  0  2  0  0  0  0  0  0
  187.7100  176.8980  144.1490 C   0  0  0  0  0  2  0  0  0  0  0  0
  188.4350  177.6920  145.2020 C   0  0  0  0  0  3  0  0  0  0  0  0
  188.9940  177.1660  146.2600 C   0  0  0  0  0  0  0  0  0  0  0  0
  189.5210  176.6690  147.2630 O   0  0  0  0  0  0  0  0  0  0  0  0
  2 12  1  0  0  0  0
  3 14  1  0  0  0  0
  4  1  1  6  0  0  0
  4 12  1  0  0  0  0
  5  3  1  6  0  0  0
  5  8  1  0  0  0  0
  8 11  1  1  0  0  0
  8 13  1  0  0  0  0
  9 11  1  0  0  0  0
 10  7  1  6  0  0  0
 10 19  1  0  0  0  0
 10  5  1  0  0  0  0
 10  1  1  0  0  0  0
 12  6  1  1  0  0  0
 12 29  1  0  0  0  0
 13 15  1  0  0  0  0
 13  4  1  0  0  0  0
 14  9  1  0  0  0  0
 14 17  1  0  0  0  0
 15  2  1  0  0  0  0
 16 17  1  0  0  0  0
 19 18  1  0  0  0  0
 20 24  1  0  0  0  0
 20 15  1  0  0  0  0
 21 23  2  0  0  0  0
 23 20  1  0  0  0  0
 23 22  1  0  0  0  0
 25 26  1  0  0  0  0
 25 24  1  0  0  0  0
 28 26  1  0  0  0  0
 28 27  1  0  0  0  0
 29 30  1  0  0  0  0
 30 32  1  0  0  0  0
 31 32  1  0  0  0  0
 32 33  1  0  0  0  0
 33 34  1  0  0  0  0
 34 35  1  0  0  0  0
 35 36  2  0  0  0  0
 36 37  2  0  0  0  0
M  END
>  <MODEL>
2

>  <REMARK>
 VINA RESULT:      -4.9      3.835      5.849
  Name = 
  14 active torsions:
  status: ('A' for Active; 'I' for Inactive)
    1  A    between atoms: C_1  and  C_23
    2  A    between atoms: C_1  and  C_33
    3  A    between atoms: C_1  and  C_36
    4  A    between atoms: C_6  and  C_8
    5  A    between atoms: C_6  and  C_31
    6  A    between atoms: C_8  and  C_19
    7  A    between atoms: C_15  and  C_19
    8  A    between atoms: C_17  and  C_26
    9  A    between atoms: C_17  and  C_33
   10  A    between atoms: C_24  and  C_28
   11  A    between atoms: C_26  and  C_34
   12  A    between atoms: C_27  and  C_37
   13  A    between atoms: O_30  and  C_32
   14  A    between atoms: C_31  and  C_37
                            x       y       z     vdW  Elec       q    Type
                         _______ _______ _______ _____ _____    ______ ____

>  <TORSDO>
F 14

$$$$
=
 OpenBabel10272414563D

 37 39  0  0  1  0  0  0  0  0999 V2000
  187.4630  177.3350  136.6650 C   0  0  0  0  0  2  0  0  0  0  0  0
  190.2730  176.7890  138.1020 O   0  0  0  0  0  0  0  0  0  0  0  0
  185.4200  174.1460  135.6350 C   0  0  0  0  0  2  0  0  0  0  0  0
  187.8840  176.7530  138.0250 C   0  0  2  0  0  3  0  0  0  0  0  0
  186.2360  175.0930  136.5300 C   0  0  1  0  0  3  0  0  0  0  0  0
  189.1680  178.7940  138.2060 O   0  0  0  0  0  1  0  0  0  0  0  0
  186.8180  176.4250  134.4640 C   0  0  0  0  0  1  0  0  0  0  0  0
  187.5970  174.4610  136.8870 C   0  0  2  0  0  3  0  0  0  0  0  0
  186.9150  172.3420  136.4840 C   0  0  0  0  0  2  0  0  0  0  0  0
  186.3900  176.5120  135.9270 C   0  0  2  0  0  0  0  0  0  0  0  0
  187.4100  173.2000  137.4810 O   0  0  0  0  0  0  0  0  0  0  0  0
  189.1230  177.4490  138.5890 C   0  0  2  0  0  0  0  0  0  0  0  0
  188.3910  175.3480  137.8600 C   0  0  1  0  0  3  0  0  0  0  0  0
  185.4690  172.7060  136.1460 C   0  0  1  0  0  3  0  0  0  0  0  0
  189.8820  175.5340  137.5750 C   0  0  1  0  0  3  0  0  0  0  0  0
  183.4130  172.1900  136.7860 C   0  0  0  0  0  1  0  0  0  0  0  0
  184.6610  172.5710  137.2790 O   0  0  0  0  0  0  0  0  0  0  0  0
  184.3400  177.0020  137.3720 C   0  0  0  0  0  1  0  0  0  0  0  0
  185.0350  177.2210  136.0340 C   0  0  0  0  0  2  0  0  0  0  0  0
  190.2550  175.4460  136.0770 C   0  0  2  0  0  3  0  0  0  0  0  0
  191.1390  173.2420  136.4400 O   0  0  0  0  0  1  0  0  0  0  0  0
  190.3030  173.6480  134.3460 O   0  0  0  0  0  0  0  0  0  0  0  0
  190.5840  174.0480  135.6460 C   0  0  0  0  0  0  0  0  0  0  0  0
  191.3650  176.4180  135.6620 C   0  0  0  0  0  2  0  0  0  0  0  0
  192.7380  175.7550  135.6290 C   0  0  0  0  0  2  0  0  0  0  0  0
  193.6150  176.3010  136.7410 C   0  0  0  0  0  2  0  0  0  0  0  0
  194.6240  174.0990  137.2490 C   0  0  0  0  0  1  0  0  0  0  0  0
  193.8190  175.2490  137.8150 C   0  0  0  0  0  2  0  0  0  0  0  0
  189.1450  177.3760  140.1210 C   0  0  0  0  0  2  0  0  0  0  0  0
  190.5320  177.0860  140.6820 C   0  0  0  0  0  2  0  0  0  0  0  0
  191.5790  178.0570  142.5900 O   0  0  0  0  0  1  0  0  0  0  0  0
  190.5190  177.2420  142.1950 C   0  0  1  0  0  3  0  0  0  0  0  0
  189.2100  177.8620  142.6540 C   0  0  0  0  0  2  0  0  0  0  0  0
  188.6780  177.1650  143.9080 C   0  0  0  0  0  2  0  0  0  0  0  0
  189.0720  177.8180  145.2050 C   0  0  0  0  0  3  0  0  0  0  0  0
  189.1220  177.1950  146.3540 C   0  0  0  0  0  0  0  0  0  0  0  0
  189.1660  176.6070  147.4410 O   0  0  0  0  0  0  0  0  0  0  0  0
  2 12  1  0  0  0  0
  3 14  1  0  0  0  0
  4  1  1  6  0  0  0
  4 12  1  0  0  0  0
  5  3  1  6  0  0  0
  5  8  1  0  0  0  0
  8 11  1  1  0  0  0
  8 13  1  0  0  0  0
  9 11  1  0  0  0  0
 10  7  1  6  0  0  0
 10 19  1  0  0  0  0
 10  5  1  0  0  0  0
 10  1  1  0  0  0  0
 12  6  1  6  0  0  0
 12 29  1  0  0  0  0
 13  4  1  0  0  0  0
 14  9  1  0  0  0  0
 14 17  1  0  0  0  0
 15 13  1  0  0  0  0
 15  2  1  0  0  0  0
 16 17  1  0  0  0  0
 19 18  1  0  0  0  0
 20 15  1  0  0  0  0
 22 23  2  0  0  0  0
 23 20  1  0  0  0  0
 23 21  1  0  0  0  0
 24 20  1  0  0  0  0
 25 24  1  0  0  0  0
 25 26  1  0  0  0  0
 26 28  1  0  0  0  0
 27 28  1  0  0  0  0
 29 30  1  0  0  0  0
 30 32  1  0  0  0  0
 32 31  1  0  0  0  0
 32 33  1  0  0  0  0
 33 34  1  0  0  0  0
 34 35  1  0  0  0  0
 35 36  2  0  0  0  0
 36 37  2  0  0  0  0
M  END
>  <MODEL>
3

>  <REMARK>
 VINA RESULT:      -4.8      3.176      4.602
  Name = 
  14 active torsions:
  status: ('A' for Active; 'I' for Inactive)
    1  A    between atoms: C_1  and  C_23
    2  A    between atoms: C_1  and  C_33
    3  A    between atoms: C_1  and  C_36
    4  A    between atoms: C_6  and  C_8
    5  A    between atoms: C_6  and  C_31
    6  A    between atoms: C_8  and  C_19
    7  A    between atoms: C_15  and  C_19
    8  A    between atoms: C_17  and  C_26
    9  A    between atoms: C_17  and  C_33
   10  A    between atoms: C_24  and  C_28
   11  A    between atoms: C_26  and  C_34
   12  A    between atoms: C_27  and  C_37
   13  A    between atoms: O_30  and  C_32
   14  A    between atoms: C_31  and  C_37
                            x       y       z     vdW  Elec       q    Type
                         _______ _______ _______ _____ _____    ______ ____

>  <TORSDO>
F 14

$$$$
=
 OpenBabel10272414563D

 37 39  0  0  1  0  0  0  0  0999 V2000
  187.2230  177.4980  136.4430 C   0  0  0  0  0  2  0  0  0  0  0  0
  190.0650  177.1520  137.8800 O   0  0  0  0  0  0  0  0  0  0  0  0
  185.2440  174.1810  135.7460 C   0  0  0  0  0  2  0  0  0  0  0  0
  187.6770  177.0550  137.8450 C   0  0  2  0  0  3  0  0  0  0  0  0
  186.0490  175.2250  136.5370 C   0  0  1  0  0  3  0  0  0  0  0  0
  188.9130  179.1330  137.8150 O   0  0  0  0  0  1  0  0  0  0  0  0
  186.5700  176.3730  134.3470 C   0  0  0  0  0  1  0  0  0  0  0  0
  187.4300  174.6610  136.9290 C   0  0  2  0  0  3  0  0  0  0  0  0
  186.7940  172.4990  136.7350 C   0  0  0  0  0  2  0  0  0  0  0  0
  186.1600  176.5850  135.8020 C   0  0  2  0  0  0  0  0  0  0  0  0
  187.2810  173.4570  137.6400 O   0  0  0  0  0  0  0  0  0  0  0  0
  188.9060  177.8280  138.3220 C   0  0  2  0  0  0  0  0  0  0  0  0
  188.2150  175.6530  137.8020 C   0  0  1  0  0  3  0  0  0  0  0  0
  185.3350  172.7960  136.3880 C   0  0  1  0  0  3  0  0  0  0  0  0
  189.6970  175.8450  137.4780 C   0  0  1  0  0  3  0  0  0  0  0  0
  183.2400  172.9380  137.0900 C   0  0  0  0  0  1  0  0  0  0  0  0
  184.5460  172.7490  137.5410 O   0  0  0  0  0  0  0  0  0  0  0  0
  184.2560  177.4300  137.2820 C   0  0  0  0  0  1  0  0  0  0  0  0
  184.7900  177.2700  135.8640 C   0  0  0  0  0  2  0  0  0  0  0  0
  190.0520  175.6270  135.9880 C   0  0  2  0  0  3  0  0  0  0  0  0
  190.9060  173.4400  136.4970 O   0  0  0  0  0  1  0  0  0  0  0  0
  189.9620  173.6840  134.4230 O   0  0  0  0  0  0  0  0  0  0  0  0
  190.3250  174.1890  135.6650 C   0  0  0  0  0  0  0  0  0  0  0  0
  191.1920  176.5220  135.4900 C   0  0  0  0  0  2  0  0  0  0  0  0
  192.3890  175.7180  134.9930 C   0  0  0  0  0  2  0  0  0  0  0  0
  193.6390  176.0990  135.7650 C   0  0  0  0  0  2  0  0  0  0  0  0
  194.2250  175.0180  137.9130 C   0  0  0  0  0  1  0  0  0  0  0  0
  193.3640  176.0760  137.2570 C   0  0  0  0  0  2  0  0  0  0  0  0
  188.9510  177.8990  139.8530 C   0  0  0  0  0  2  0  0  0  0  0  0
  187.6180  178.3020  140.4700 C   0  0  0  0  0  2  0  0  0  0  0  0
  186.4100  178.0450  142.5080 O   0  0  0  0  0  1  0  0  0  0  0  0
  187.6940  178.1900  141.9840 C   0  0  1  0  0  3  0  0  0  0  0  0
  188.5400  176.9940  142.3870 C   0  0  0  0  0  2  0  0  0  0  0  0
  189.4910  177.3500  143.5310 C   0  0  0  0  0  2  0  0  0  0  0  0
  190.9290  176.9690  143.2950 C   0  0  0  0  0  3  0  0  0  0  0  0
  191.5860  177.2350  142.1970 C   0  0  0  0  0  0  0  0  0  0  0  0
  192.2070  177.4820  141.1560 O   0  0  0  0  0  0  0  0  0  0  0  0
  2 12  1  0  0  0  0
  3 14  1  0  0  0  0
  4  1  1  6  0  0  0
  4 12  1  0  0  0  0
  5  3  1  6  0  0  0
  5  8  1  0  0  0  0
  8 11  1  1  0  0  0
  8 13  1  0  0  0  0
  9 11  1  0  0  0  0
 10  7  1  6  0  0  0
 10 19  1  0  0  0  0
 10  1  1  0  0  0  0
 10  5  1  0  0  0  0
 12  6  1  6  0  0  0
 12 29  1  0  0  0  0
 13  4  1  0  0  0  0
 14  9  1  0  0  0  0
 14 17  1  0  0  0  0
 15 13  1  0  0  0  0
 15  2  1  0  0  0  0
 16 17  1  0  0  0  0
 19 18  1  0  0  0  0
 20 15  1  0  0  0  0
 22 23  2  0  0  0  0
 23 20  1  0  0  0  0
 23 21  1  0  0  0  0
 24 20  1  0  0  0  0
 25 24  1  0  0  0  0
 25 26  1  0  0  0  0
 26 28  1  0  0  0  0
 28 27  1  0  0  0  0
 29 30  1  0  0  0  0
 30 32  1  0  0  0  0
 32 33  1  0  0  0  0
 32 31  1  0  0  0  0
 33 34  1  0  0  0  0
 35 34  1  0  0  0  0
 36 35  2  0  0  0  0
 37 36  2  0  0  0  0
M  END
>  <MODEL>
4

>  <REMARK>
 VINA RESULT:      -4.7      3.133      4.472
  Name = 
  14 active torsions:
  status: ('A' for Active; 'I' for Inactive)
    1  A    between atoms: C_1  and  C_23
    2  A    between atoms: C_1  and  C_33
    3  A    between atoms: C_1  and  C_36
    4  A    between atoms: C_6  and  C_8
    5  A    between atoms: C_6  and  C_31
    6  A    between atoms: C_8  and  C_19
    7  A    between atoms: C_15  and  C_19
    8  A    between atoms: C_17  and  C_26
    9  A    between atoms: C_17  and  C_33
   10  A    between atoms: C_24  and  C_28
   11  A    between atoms: C_26  and  C_34
   12  A    between atoms: C_27  and  C_37
   13  A    between atoms: O_30  and  C_32
   14  A    between atoms: C_31  and  C_37
                            x       y       z     vdW  Elec       q    Type
                         _______ _______ _______ _____ _____    ______ ____

>  <TORSDO>
F 14

$$$$
=
 OpenBabel10272414563D

 37 39  0  0  1  0  0  0  0  0999 V2000
  189.3130  177.3360  136.7680 C   0  0  0  0  0  2  0  0  0  0  0  0
  191.1870  175.9640  138.9740 O   0  0  0  0  0  0  0  0  0  0  0  0
  187.3120  174.8760  134.4540 C   0  0  0  0  0  2  0  0  0  0  0  0
  189.0550  176.5120  138.0410 C   0  0  2  0  0  3  0  0  0  0  0  0
  187.8630  175.4860  135.7530 C   0  0  1  0  0  3  0  0  0  0  0  0
  190.5020  178.1490  139.0780 O   0  0  0  0  0  1  0  0  0  0  0  0
  189.4360  176.8760  134.3470 C   0  0  0  0  0  1  0  0  0  0  0  0
  188.8400  174.5080  136.4380 C   0  0  2  0  0  3  0  0  0  0  0  0
  188.0100  172.6790  135.3990 C   0  0  0  0  0  2  0  0  0  0  0  0
  188.4890  176.8880  135.5450 C   0  0  2  0  0  0  0  0  0  0  0  0
  188.2150  173.2680  136.6580 O   0  0  0  0  0  0  0  0  0  0  0  0
  190.0740  176.8180  139.1390 C   0  0  2  0  0  0  0  0  0  0  0  0
  189.3300  175.0570  137.7880 C   0  0  1  0  0  3  0  0  0  0  0  0
  186.9020  173.4170  134.6460 C   0  0  1  0  0  3  0  0  0  0  0  0
  190.8200  174.9110  138.1000 C   0  0  1  0  0  3  0  0  0  0  0  0
  185.2450  172.0430  135.1650 C   0  0  0  0  0  1  0  0  0  0  0  0
  185.7030  173.3450  135.3630 O   0  0  0  0  0  0  0  0  0  0  0  0
  187.1700  178.8880  136.4310 C   0  0  0  0  0  1  0  0  0  0  0  0
  187.3500  177.8840  135.3000 C   0  0  0  0  0  2  0  0  0  0  0  0
  191.7310  174.9160  136.8500 C   0  0  2  0  0  3  0  0  0  0  0  0
  192.0190  172.6970  135.9750 O   0  0  0  0  0  0  0  0  0  0  0  0
  193.6960  173.4570  137.3390 O   0  0  0  0  0  1  0  0  0  0  0  0
  192.4850  173.6310  136.6820 C   0  0  0  0  0  0  0  0  0  0  0  0
  192.6820  176.1160  136.7860 C   0  0  0  0  0  2  0  0  0  0  0  0
  193.2930  176.3030  135.4020 C   0  0  0  0  0  2  0  0  0  0  0  0
  194.7540  176.6960  135.5180 C   0  0  0  0  0  2  0  0  0  0  0  0
  196.5350  175.0490  136.0060 C   0  0  0  0  0  1  0  0  0  0  0  0
  195.6390  175.6160  134.9250 C   0  0  0  0  0  2  0  0  0  0  0  0
  189.4790  176.5600  140.5290 C   0  0  0  0  0  2  0  0  0  0  0  0
  190.5350  176.4910  141.6250 C   0  0  0  0  0  2  0  0  0  0  0  0
  190.6630  176.4620  144.0050 O   0  0  0  0  0  1  0  0  0  0  0  0
  189.9010  176.0200  142.9240 C   0  0  1  0  0  3  0  0  0  0  0  0
  188.4860  176.5590  143.0510 C   0  0  0  0  0  2  0  0  0  0  0  0
  188.2090  177.0560  144.4710 C   0  0  0  0  0  2  0  0  0  0  0  0
  186.7580  177.3070  144.7780 C   0  0  0  0  0  3  0  0  0  0  0  0
  185.9450  177.9620  143.9910 C   0  0  0  0  0  0  0  0  0  0  0  0
  185.1770  178.5850  143.2480 O   0  0  0  0  0  0  0  0  0  0  0  0
  2 12  1  0  0  0  0
  3 14  1  0  0  0  0
  4  1  1  6  0  0  0
  4 12  1  0  0  0  0
  5  3  1  6  0  0  0
  5  8  1  0  0  0  0
  8 11  1  1  0  0  0
  8 13  1  0  0  0  0
  9 11  1  0  0  0  0
 10  7  1  6  0  0  0
 10  5  1  0  0  0  0
 10  1  1  0  0  0  0
 12  6  1  6  0  0  0
 12 29  1  0  0  0  0
 13  4  1  0  0  0  0
 13 15  1  0  0  0  0
 14 17  1  0  0  0  0
 14  9  1  0  0  0  0
 15  2  1  0  0  0  0
 16 17  1  0  0  0  0
 19 10  1  0  0  0  0
 19 18  1  0  0  0  0
 20 15  1  0  0  0  0
 21 23  2  0  0  0  0
 23 20  1  0  0  0  0
 23 22  1  0  0  0  0
 24 20  1  0  0  0  0
 25 26  1  0  0  0  0
 25 24  1  0  0  0  0
 28 26  1  0  0  0  0
 28 27  1  0  0  0  0
 29 30  1  0  0  0  0
 30 32  1  0  0  0  0
 32 33  1  0  0  0  0
 32 31  1  0  0  0  0
 33 34  1  0  0  0  0
 34 35  1  0  0  0  0
 36 35  2  0  0  0  0
 37 36  2  0  0  0  0
M  END
>  <MODEL>
5

>  <REMARK>
 VINA RESULT:      -4.7      3.822      5.928
  Name = 
  14 active torsions:
  status: ('A' for Active; 'I' for Inactive)
    1  A    between atoms: C_1  and  C_23
    2  A    between atoms: C_1  and  C_33
    3  A    between atoms: C_1  and  C_36
    4  A    between atoms: C_6  and  C_8
    5  A    between atoms: C_6  and  C_31
    6  A    between atoms: C_8  and  C_19
    7  A    between atoms: C_15  and  C_19
    8  A    between atoms: C_17  and  C_26
    9  A    between atoms: C_17  and  C_33
   10  A    between atoms: C_24  and  C_28
   11  A    between atoms: C_26  and  C_34
   12  A    between atoms: C_27  and  C_37
   13  A    between atoms: O_30  and  C_32
   14  A    between atoms: C_31  and  C_37
                            x       y       z     vdW  Elec       q    Type
                         _______ _______ _______ _____ _____    ______ ____

>  <TORSDO>
F 14

$$$$
=
 OpenBabel10272414563D

 37 39  0  0  1  0  0  0  0  0999 V2000
  182.3900  177.9050  137.0980 C   0  0  0  0  0  2  0  0  0  0  0  0
  183.6490  177.9610  140.0430 O   0  0  0  0  0  0  0  0  0  0  0  0
  180.1610  180.9880  136.1320 C   0  0  0  0  0  2  0  0  0  0  0  0
  183.4560  178.7640  137.8000 C   0  0  2  0  0  3  0  0  0  0  0  0
  181.3790  180.2160  136.6660 C   0  0  1  0  0  3  0  0  0  0  0  0
  184.4380  176.6260  138.3550 O   0  0  0  0  0  1  0  0  0  0  0  0
  179.9820  178.1120  136.6030 C   0  0  0  0  0  1  0  0  0  0  0  0
  181.5380  180.4390  138.1840 C   0  0  2  0  0  3  0  0  0  0  0  0
  180.3480  182.3630  138.2010 C   0  0  0  0  0  2  0  0  0  0  0  0
  181.3520  178.7120  136.2950 C   0  0  2  0  0  0  0  0  0  0  0  0
  181.6140  181.8140  138.4700 O   0  0  0  0  0  0  0  0  0  0  0  0
  184.2930  177.9490  138.7860 C   0  0  2  0  0  0  0  0  0  0  0  0
  182.8050  179.7550  138.7220 C   0  0  1  0  0  3  0  0  0  0  0  0
  180.1040  182.4090  136.6920 C   0  0  1  0  0  3  0  0  0  0  0  0
  182.6770  178.9920  140.0410 C   0  0  1  0  0  3  0  0  0  0  0  0
  180.7030  184.5180  136.3860 C   0  0  0  0  0  1  0  0  0  0  0  0
  181.0680  183.2080  136.0720 O   0  0  0  0  0  0  0  0  0  0  0  0
  182.2290  177.2340  134.4040 C   0  0  0  0  0  1  0  0  0  0  0  0
  181.6510  178.5880  134.7970 C   0  0  0  0  0  2  0  0  0  0  0  0
  181.2720  178.3980  140.2940 C   0  0  2  0  0  3  0  0  0  0  0  0
  180.2890  178.2710  142.4820 O   0  0  0  0  0  1  0  0  0  0  0  0
  180.3020  180.3470  141.5150 O   0  0  0  0  0  0  0  0  0  0  0  0
  180.6040  178.9920  141.4980 C   0  0  0  0  0  0  0  0  0  0  0  0
  181.2540  176.8670  140.3630 C   0  0  0  0  0  2  0  0  0  0  0  0
  179.9820  176.2710  139.7700 C   0  0  0  0  0  2  0  0  0  0  0  0
  180.2270  174.8420  139.3220 C   0  0  0  0  0  2  0  0  0  0  0  0
  181.3870  174.1710  137.2420 C   0  0  0  0  0  1  0  0  0  0  0  0
  180.1040  174.7360  137.8130 C   0  0  0  0  0  2  0  0  0  0  0  0
  185.6880  178.5620  138.9600 C   0  0  0  0  0  2  0  0  0  0  0  0
  186.5760  178.3760  137.7360 C   0  0  0  0  0  2  0  0  0  0  0  0
  188.2130  178.5220  139.4620 O   0  0  0  0  0  1  0  0  0  0  0  0
  187.9930  178.0380  138.1730 C   0  0  1  0  0  3  0  0  0  0  0  0
  188.2110  176.5350  138.1560 C   0  0  0  0  0  2  0  0  0  0  0  0
  187.5750  175.8970  136.9200 C   0  0  0  0  0  2  0  0  0  0  0  0
  187.0480  174.5030  137.1300 C   0  0  0  0  0  3  0  0  0  0  0  0
  185.8790  174.0910  136.7150 C   0  0  0  0  0  0  0  0  0  0  0  0
  184.7720  173.7020  136.3250 O   0  0  0  0  0  0  0  0  0  0  0  0
  3 14  1  0  0  0  0
  4  1  1  1  0  0  0
  4 13  1  0  0  0  0
  4 12  1  0  0  0  0
  5  3  1  1  0  0  0
  5  8  1  0  0  0  0
  8 11  1  6  0  0  0
  8 13  1  0  0  0  0
  9 11  1  0  0  0  0
 10  7  1  1  0  0  0
 10  5  1  0  0  0  0
 10  1  1  0  0  0  0
 12  6  1  6  0  0  0
 12 29  1  0  0  0  0
 12  2  1  0  0  0  0
 13 15  1  0  0  0  0
 14  9  1  0  0  0  0
 15  2  1  0  0  0  0
 15 20  1  0  0  0  0
 17 16  1  0  0  0  0
 17 14  1  0  0  0  0
 18 19  1  0  0  0  0
 19 10  1  0  0  0  0
 20 24  1  0  0  0  0
 20 23  1  0  0  0  0
 23 22  2  0  0  0  0
 23 21  1  0  0  0  0
 25 24  1  0  0  0  0
 26 25  1  0  0  0  0
 27 28  1  0  0  0  0
 28 26  1  0  0  0  0
 30 32  1  0  0  0  0
 30 29  1  0  0  0  0
 32 31  1  0  0  0  0
 33 32  1  0  0  0  0
 34 35  1  0  0  0  0
 34 33  1  0  0  0  0
 36 35  2  0  0  0  0
 37 36  2  0  0  0  0
M  END
>  <MODEL>
6

>  <REMARK>
 VINA RESULT:      -4.5      3.194      7.073
  Name = 
  14 active torsions:
  status: ('A' for Active; 'I' for Inactive)
    1  A    between atoms: C_1  and  C_23
    2  A    between atoms: C_1  and  C_33
    3  A    between atoms: C_1  and  C_36
    4  A    between atoms: C_6  and  C_8
    5  A    between atoms: C_6  and  C_31
    6  A    between atoms: C_8  and  C_19
    7  A    between atoms: C_15  and  C_19
    8  A    between atoms: C_17  and  C_26
    9  A    between atoms: C_17  and  C_33
   10  A    between atoms: C_24  and  C_28
   11  A    between atoms: C_26  and  C_34
   12  A    between atoms: C_27  and  C_37
   13  A    between atoms: O_30  and  C_32
   14  A    between atoms: C_31  and  C_37
                            x       y       z     vdW  Elec       q    Type
                         _______ _______ _______ _____ _____    ______ ____

>  <TORSDO>
F 14

$$$$
=
 OpenBabel10272414563D

 37 39  0  0  1  0  0  0  0  0999 V2000
  182.9960  179.1880  139.1130 C   0  0  0  0  0  2  0  0  0  0  0  0
  186.0790  178.4370  139.5500 O   0  0  0  0  0  0  0  0  0  0  0  0
  180.7670  176.3920  137.4950 C   0  0  0  0  0  2  0  0  0  0  0  0
  183.7480  178.2050  140.0270 C   0  0  2  0  0  3  0  0  0  0  0  0
  181.7800  177.0330  138.4570 C   0  0  1  0  0  3  0  0  0  0  0  0
  185.0310  180.1610  140.6370 O   0  0  0  0  0  1  0  0  0  0  0  0
  181.8180  179.0590  136.9490 C   0  0  0  0  0  1  0  0  0  0  0  0
  183.1890  176.4480  138.2290 C   0  0  2  0  0  3  0  0  0  0  0  0
  182.4330  174.5550  137.2490 C   0  0  0  0  0  2  0  0  0  0  0  0
  181.7730  178.5820  138.3980 C   0  0  2  0  0  0  0  0  0  0  0  0
  183.1610  175.0470  138.3460 O   0  0  0  0  0  0  0  0  0  0  0  0
  185.0880  178.7700  140.5000 C   0  0  2  0  0  0  0  0  0  0  0  0
  184.2000  177.0050  139.2440 C   0  0  1  0  0  3  0  0  0  0  0  0
  180.9470  174.8760  137.4160 C   0  0  1  0  0  3  0  0  0  0  0  0
  185.5700  177.4190  138.7070 C   0  0  1  0  0  3  0  0  0  0  0  0
  179.9920  173.0220  138.1610 C   0  0  0  0  0  1  0  0  0  0  0  0
  180.4510  174.2730  138.5760 O   0  0  0  0  0  0  0  0  0  0  0  0
  180.7400  179.9320  140.3050 C   0  0  0  0  0  1  0  0  0  0  0  0
  180.4870  179.0750  139.0710 C   0  0  0  0  0  2  0  0  0  0  0  0
  185.5540  177.9030  137.2380 C   0  0  2  0  0  3  0  0  0  0  0  0
  186.0700  175.6780  136.4950 O   0  0  0  0  0  1  0  0  0  0  0  0
  184.8020  176.9380  135.0630 O   0  0  0  0  0  0  0  0  0  0  0  0
  185.4880  176.7700  136.2590 C   0  0  0  0  0  0  0  0  0  0  0  0
  186.7050  178.8540  136.8920 C   0  0  0  0  0  2  0  0  0  0  0  0
  188.0440  178.1340  136.7840 C   0  0  0  0  0  2  0  0  0  0  0  0
  189.0800  178.8090  137.6640 C   0  0  0  0  0  2  0  0  0  0  0  0
  189.2630  176.4010  138.2070 C   0  0  0  0  0  1  0  0  0  0  0  0
  189.8580  177.7720  138.4510 C   0  0  0  0  0  2  0  0  0  0  0  0
  185.4960  178.1620  141.8470 C   0  0  0  0  0  2  0  0  0  0  0  0
  184.3800  178.2100  142.8830 C   0  0  0  0  0  2  0  0  0  0  0  0
  183.7190  179.9090  144.4190 O   0  0  0  0  0  1  0  0  0  0  0  0
  184.7920  179.1000  144.0450 C   0  0  1  0  0  3  0  0  0  0  0  0
  185.2250  178.2580  145.2330 C   0  0  0  0  0  2  0  0  0  0  0  0
  186.7290  178.3870  145.4840 C   0  0  0  0  0  2  0  0  0  0  0  0
  187.5670  177.3070  144.8540 C   0  0  0  0  0  3  0  0  0  0  0  0
  188.8730  177.2730  144.9020 C   0  0  0  0  0  0  0  0  0  0  0  0
  190.1090  177.2420  144.9430 O   0  0  0  0  0  0  0  0  0  0  0  0
  2 12  1  0  0  0  0
  4  1  1  6  0  0  0
  4 12  1  0  0  0  0
  5  3  1  6  0  0  0
  8 11  1  1  0  0  0
  8  5  1  0  0  0  0
  8 13  1  0  0  0  0
  9 14  1  0  0  0  0
  9 11  1  0  0  0  0
 10  7  1  6  0  0  0
 10  5  1  0  0  0  0
 10 19  1  0  0  0  0
 10  1  1  0  0  0  0
 12  6  1  1  0  0  0
 12 29  1  0  0  0  0
 13  4  1  0  0  0  0
 14  3  1  0  0  0  0
 14 17  1  0  0  0  0
 15 13  1  0  0  0  0
 15  2  1  0  0  0  0
 16 17  1  0  0  0  0
 19 18  1  0  0  0  0
 20 15  1  0  0  0  0
 22 23  2  0  0  0  0
 23 21  1  0  0  0  0
 23 20  1  0  0  0  0
 24 20  1  0  0  0  0
 25 24  1  0  0  0  0
 25 26  1  0  0  0  0
 26 28  1  0  0  0  0
 27 28  1  0  0  0  0
 29 30  1  0  0  0  0
 30 32  1  0  0  0  0
 32 31  1  0  0  0  0
 32 33  1  0  0  0  0
 33 34  1  0  0  0  0
 35 36  2  0  0  0  0
 35 34  1  0  0  0  0
 36 37  2  0  0  0  0
M  END
>  <MODEL>
7

>  <REMARK>
 VINA RESULT:      -4.2      1.501      1.788
  Name = 
  14 active torsions:
  status: ('A' for Active; 'I' for Inactive)
    1  A    between atoms: C_1  and  C_23
    2  A    between atoms: C_1  and  C_33
    3  A    between atoms: C_1  and  C_36
    4  A    between atoms: C_6  and  C_8
    5  A    between atoms: C_6  and  C_31
    6  A    between atoms: C_8  and  C_19
    7  A    between atoms: C_15  and  C_19
    8  A    between atoms: C_17  and  C_26
    9  A    between atoms: C_17  and  C_33
   10  A    between atoms: C_24  and  C_28
   11  A    between atoms: C_26  and  C_34
   12  A    between atoms: C_27  and  C_37
   13  A    between atoms: O_30  and  C_32
   14  A    between atoms: C_31  and  C_37
                            x       y       z     vdW  Elec       q    Type
                         _______ _______ _______ _____ _____    ______ ____

>  <TORSDO>
F 14

$$$$
=
 OpenBabel10272414563D

 37 39  0  0  1  0  0  0  0  0999 V2000
  184.5460  175.2180  137.7510 C   0  0  0  0  0  2  0  0  0  0  0  0
  186.7830  177.5110  137.7840 O   0  0  0  0  0  0  0  0  0  0  0  0
  180.9380  176.3630  136.7160 C   0  0  0  0  0  2  0  0  0  0  0  0
  185.2390  176.0660  136.6700 C   0  0  2  0  0  3  0  0  0  0  0  0
  182.4660  176.2100  136.6380 C   0  0  1  0  0  3  0  0  0  0  0  0
  187.2680  175.2720  137.7170 O   0  0  0  0  0  1  0  0  0  0  0  0
  182.4220  175.3190  139.0020 C   0  0  0  0  0  1  0  0  0  0  0  0
  183.1570  177.5750  136.8320 C   0  0  2  0  0  3  0  0  0  0  0  0
  181.3350  178.7780  136.2420 C   0  0  0  0  0  2  0  0  0  0  0  0
  183.0150  175.1330  137.6070 C   0  0  2  0  0  0  0  0  0  0  0  0
  182.6700  178.5070  135.8980 O   0  0  0  0  0  0  0  0  0  0  0  0
  186.7060  176.3360  137.0040 C   0  0  2  0  0  0  0  0  0  0  0  0
  184.6810  177.4620  136.6630 C   0  0  1  0  0  3  0  0  0  0  0  0
  180.4520  177.5720  135.9160 C   0  0  1  0  0  3  0  0  0  0  0  0
  185.5510  178.2030  137.6790 C   0  0  1  0  0  3  0  0  0  0  0  0
  179.9980  176.0000  134.4250 C   0  0  0  0  0  1  0  0  0  0  0  0
  180.5030  177.2940  134.5470 O   0  0  0  0  0  0  0  0  0  0  0  0
  182.6790  173.6780  135.5340 C   0  0  0  0  0  1  0  0  0  0  0  0
  182.6260  173.7570  137.0550 C   0  0  0  0  0  2  0  0  0  0  0  0
  184.9050  178.3530  139.0760 C   0  0  2  0  0  3  0  0  0  0  0  0
  184.3050  180.6700  138.8620 O   0  0  0  0  0  0  0  0  0  0  0  0
  182.6310  179.2660  139.5500 O   0  0  0  0  0  1  0  0  0  0  0  0
  183.9380  179.4970  139.1430 C   0  0  0  0  0  0  0  0  0  0  0  0
  185.9230  178.4340  140.2190 C   0  0  0  0  0  2  0  0  0  0  0  0
  185.3070  178.9600  141.5110 C   0  0  0  0  0  2  0  0  0  0  0  0
  186.0930  178.4640  142.7110 C   0  0  0  0  0  2  0  0  0  0  0  0
  184.3380  179.5010  144.1140 C   0  0  0  0  0  1  0  0  0  0  0  0
  185.1700  178.2550  143.8960 C   0  0  0  0  0  2  0  0  0  0  0  0
  187.5270  176.5580  135.7280 C   0  0  0  0  0  2  0  0  0  0  0  0
  188.8050  177.3500  135.9730 C   0  0  0  0  0  2  0  0  0  0  0  0
  190.7130  176.5590  134.7840 O   0  0  0  0  0  1  0  0  0  0  0  0
  190.0020  176.4120  135.9750 C   0  0  1  0  0  3  0  0  0  0  0  0
  190.9160  176.7190  137.1490 C   0  0  0  0  0  2  0  0  0  0  0  0
  190.2830  176.2840  138.4720 C   0  0  0  0  0  2  0  0  0  0  0  0
  189.9350  177.4130  139.4040 C   0  0  0  0  0  3  0  0  0  0  0  0
  189.7080  177.2640  140.6820 C   0  0  0  0  0  0  0  0  0  0  0  0
  189.4890  177.1230  141.8920 O   0  0  0  0  0  0  0  0  0  0  0  0
  4 12  1  0  0  0  0
  4  1  1  1  0  0  0
  5  3  1  1  0  0  0
  5  8  1  0  0  0  0
  5 10  1  0  0  0  0
  8 11  1  6  0  0  0
 10  1  1  0  0  0  0
 10  7  1  1  0  0  0
 11  9  1  0  0  0  0
 12  6  1  1  0  0  0
 12  2  1  0  0  0  0
 13  4  1  0  0  0  0
 13  8  1  0  0  0  0
 13 15  1  0  0  0  0
 14  9  1  0  0  0  0
 14  3  1  0  0  0  0
 15  2  1  0  0  0  0
 15 20  1  0  0  0  0
 16 17  1  0  0  0  0
 17 14  1  0  0  0  0
 18 19  1  0  0  0  0
 19 10  1  0  0  0  0
 20 23  1  0  0  0  0
 20 24  1  0  0  0  0
 21 23  2  0  0  0  0
 23 22  1  0  0  0  0
 24 25  1  0  0  0  0
 25 26  1  0  0  0  0
 26 28  1  0  0  0  0
 28 27  1  0  0  0  0
 29 30  1  0  0  0  0
 29 12  1  0  0  0  0
 30 32  1  0  0  0  0
 31 32  1  0  0  0  0
 32 33  1  0  0  0  0
 33 34  1  0  0  0  0
 34 35  1  0  0  0  0
 35 36  2  0  0  0  0
 36 37  2  0  0  0  0
M  END
>  <MODEL>
8

>  <REMARK>
 VINA RESULT:      -4.1      2.199      5.464
  Name = 
  14 active torsions:
  status: ('A' for Active; 'I' for Inactive)
    1  A    between atoms: C_1  and  C_23
    2  A    between atoms: C_1  and  C_33
    3  A    between atoms: C_1  and  C_36
    4  A    between atoms: C_6  and  C_8
    5  A    between atoms: C_6  and  C_31
    6  A    between atoms: C_8  and  C_19
    7  A    between atoms: C_15  and  C_19
    8  A    between atoms: C_17  and  C_26
    9  A    between atoms: C_17  and  C_33
   10  A    between atoms: C_24  and  C_28
   11  A    between atoms: C_26  and  C_34
   12  A    between atoms: C_27  and  C_37
   13  A    between atoms: O_30  and  C_32
   14  A    between atoms: C_31  and  C_37
                            x       y       z     vdW  Elec       q    Type
                         _______ _______ _______ _____ _____    ______ ____

>  <TORSDO>
F 14

$$$$
=
 OpenBabel10272414563D

 37 39  0  0  1  0  0  0  0  0999 V2000
  184.5780  176.5050  138.1810 C   0  0  0  0  0  2  0  0  0  0  0  0
  187.2170  178.0400  139.1500 O   0  0  0  0  0  0  0  0  0  0  0  0
  181.2040  178.4640  138.6100 C   0  0  0  0  0  2  0  0  0  0  0  0
  185.3520  177.7380  137.6860 C   0  0  2  0  0  3  0  0  0  0  0  0
  182.6640  178.2050  138.2050 C   0  0  1  0  0  3  0  0  0  0  0  0
  187.2500  176.2410  137.7310 O   0  0  0  0  0  1  0  0  0  0  0  0
  182.5980  176.0970  139.5970 C   0  0  0  0  0  1  0  0  0  0  0  0
  183.6200  179.0920  139.0280 C   0  0  2  0  0  3  0  0  0  0  0  0
  182.0340  180.6180  139.5490 C   0  0  0  0  0  2  0  0  0  0  0  0
  183.0530  176.7060  138.2720 C   0  0  2  0  0  0  0  0  0  0  0  0
  183.2660  180.4460  138.8950 O   0  0  0  0  0  0  0  0  0  0  0  0
  186.8620  177.5780  137.8630 C   0  0  2  0  0  0  0  0  0  0  0  0
  185.0790  178.9190  138.5740 C   0  0  1  0  0  3  0  0  0  0  0  0
  180.9140  179.9590  138.7430 C   0  0  1  0  0  3  0  0  0  0  0  0
  186.1400  178.8010  139.6680 C   0  0  1  0  0  3  0  0  0  0  0  0
  180.2370  181.7910  137.7010 C   0  0  0  0  0  1  0  0  0  0  0  0
  180.8230  180.5450  137.4770 O   0  0  0  0  0  0  0  0  0  0  0  0
  181.5580  174.7700  137.5340 C   0  0  0  0  0  1  0  0  0  0  0  0
  182.3690  175.9860  137.1040 C   0  0  0  0  0  2  0  0  0  0  0  0
  185.6260  178.1680  140.9820 C   0  0  2  0  0  3  0  0  0  0  0  0
  185.5300  180.2260  142.2180 O   0  0  0  0  0  0  0  0  0  0  0  0
  183.6690  178.8960  142.3500 O   0  0  0  0  0  1  0  0  0  0  0  0
  184.9450  179.1640  141.8730 C   0  0  0  0  0  0  0  0  0  0  0  0
  186.7000  177.3930  141.7540 C   0  0  0  0  0  2  0  0  0  0  0  0
  186.6850  177.7060  143.2460 C   0  0  0  0  0  2  0  0  0  0  0  0
  187.7550  176.9040  143.9650 C   0  0  0  0  0  2  0  0  0  0  0  0
  186.7950  177.6750  146.1120 C   0  0  0  0  0  1  0  0  0  0  0  0
  188.0710  177.5330  145.3080 C   0  0  0  0  0  2  0  0  0  0  0  0
  187.6280  178.4140  136.8300 C   0  0  0  0  0  2  0  0  0  0  0  0
  189.0980  178.5960  137.1850 C   0  0  0  0  0  2  0  0  0  0  0  0
  190.3670  176.9920  135.9630 O   0  0  0  0  0  1  0  0  0  0  0  0
  189.7950  177.2450  137.2090 C   0  0  1  0  0  3  0  0  0  0  0  0
  190.8790  177.2240  138.2740 C   0  0  0  0  0  2  0  0  0  0  0  0
  190.3880  176.5380  139.5490 C   0  0  0  0  0  2  0  0  0  0  0  0
  190.2800  177.4410  140.7480 C   0  0  0  0  0  3  0  0  0  0  0  0
  190.9630  177.2790  141.8510 C   0  0  0  0  0  0  0  0  0  0  0  0
  191.6070  177.1250  142.8960 O   0  0  0  0  0  0  0  0  0  0  0  0
  1 10  1  0  0  0  0
  2 15  1  0  0  0  0
  3 14  1  0  0  0  0
  4 12  1  0  0  0  0
  4  1  1  1  0  0  0
  4 13  1  0  0  0  0
  5 10  1  0  0  0  0
  5  3  1  1  0  0  0
  5  8  1  0  0  0  0
  8 11  1  6  0  0  0
 10  7  1  1  0  0  0
 11  9  1  0  0  0  0
 12  6  1  6  0  0  0
 12  2  1  0  0  0  0
 13  8  1  0  0  0  0
 13 15  1  0  0  0  0
 14  9  1  0  0  0  0
 15 20  1  0  0  0  0
 17 16  1  0  0  0  0
 17 14  1  0  0  0  0
 19 18  1  0  0  0  0
 19 10  1  0  0  0  0
 20 24  1  0  0  0  0
 20 23  1  0  0  0  0
 23 21  2  0  0  0  0
 23 22  1  0  0  0  0
 24 25  1  0  0  0  0
 25 26  1  0  0  0  0
 26 28  1  0  0  0  0
 28 27  1  0  0  0  0
 29 30  1  0  0  0  0
 29 12  1  0  0  0  0
 30 32  1  0  0  0  0
 31 32  1  0  0  0  0
 32 33  1  0  0  0  0
 33 34  1  0  0  0  0
 34 35  1  0  0  0  0
 35 36  2  0  0  0  0
 36 37  2  0  0  0  0
M  END
>  <MODEL>
9

>  <REMARK>
 VINA RESULT:      -3.8      2.190      5.754
  Name = 
  14 active torsions:
  status: ('A' for Active; 'I' for Inactive)
    1  A    between atoms: C_1  and  C_23
    2  A    between atoms: C_1  and  C_33
    3  A    between atoms: C_1  and  C_36
    4  A    between atoms: C_6  and  C_8
    5  A    between atoms: C_6  and  C_31
    6  A    between atoms: C_8  and  C_19
    7  A    between atoms: C_15  and  C_19
    8  A    between atoms: C_17  and  C_26
    9  A    between atoms: C_17  and  C_33
   10  A    between atoms: C_24  and  C_28
   11  A    between atoms: C_26  and  C_34
   12  A    between atoms: C_27  and  C_37
   13  A    between atoms: O_30  and  C_32
   14  A    between atoms: C_31  and  C_37
                            x       y       z     vdW  Elec       q    Type
                         _______ _______ _______ _____ _____    ______ ____

>  <TORSDO>
F 14

$$$$
