=
 OpenBabel10272400223D

 31 35  0  0  1  0  0  0  0  0999 V2000
  189.5590  177.6280  147.1150 C   0  0  0  0  0  0  0  0  0  0  0  0
  187.9170  177.8800  143.6620 C   0  0  0  0  0  0  0  0  0  0  0  0
  186.5550  178.2710  143.8580 C   0  0  0  0  0  0  0  0  0  0  0  0
  184.5680  177.7750  145.3510 C   0  0  0  0  0  2  0  0  0  0  0  0
  188.8520  177.5160  144.7830 C   0  0  0  0  0  0  0  0  0  0  0  0
  190.6950  176.8760  146.8170 C   0  0  0  0  0  3  0  0  0  0  0  0
  185.9850  178.3170  145.2570 C   0  0  0  0  0  2  0  0  0  0  0  0
  189.8660  177.3890  142.0970 C   0  0  2  0  0  3  0  0  0  0  0  0
  189.3140  178.0870  148.5060 C   0  0  0  0  0  1  0  0  0  0  0  0
  186.3360  178.6290  141.4550 C   0  0  0  0  0  3  0  0  0  0  0  0
  183.5510  178.8970  145.1530 C   0  0  0  0  0  2  0  0  0  0  0  0
  190.2940  176.3200  143.1000 C   0  0  0  0  0  2  0  0  0  0  0  0
  188.4300  177.8050  142.3400 C   0  0  0  0  0  0  0  0  0  0  0  0
  188.6500  177.9500  146.1040 C   0  0  0  0  0  3  0  0  0  0  0  0
  183.9120  179.8290  143.9960 C   0  0  0  0  0  2  0  0  0  0  0  0
  190.0250  176.7850  144.4930 C   0  0  0  0  0  0  0  0  0  0  0  0
  190.9280  176.4550  145.5070 C   0  0  0  0  0  3  0  0  0  0  0  0
  187.6430  178.2100  141.2610 C   0  0  0  0  0  3  0  0  0  0  0  0
  185.7780  178.6710  142.7290 C   0  0  0  0  0  0  0  0  0  0  0  0
  184.3140  179.0310  142.7670 C   0  0  0  0  0  2  0  0  0  0  0  0
  192.1990  177.7490  140.5030 O   0  0  0  0  0  0  0  0  0  0  0  0
  191.2550  177.0850  139.9950 C   0  0  0  0  0  0  0  0  0  0  0  0
  190.0510  176.8810  140.7420 N   0  0  0  0  0  2  0  0  0  0  0  0
  191.5100  175.4350  136.0390 C   0  0  0  0  0  0  0  0  0  0  0  0
  190.2080  176.1800  137.9340 C   0  0  0  0  0  3  0  0  0  0  0  0
  193.8210  176.6170  138.6490 O   0  0  0  0  0  1  0  0  0  0  0  0
  191.5740  174.9140  134.7910 F   0  0  0  0  0  0  0  0  0  0  0  0
  190.2720  175.6430  136.6460 C   0  0  0  0  0  3  0  0  0  0  0  0
  192.6280  176.3040  138.0070 C   0  0  0  0  0  0  0  0  0  0  0  0
  191.3780  176.5180  138.6320 C   0  0  0  0  0  0  0  0  0  0  0  0
  192.6840  175.7650  136.7180 C   0  0  0  0  0  3  0  0  0  0  0  0
  1  9  1  0  0  0  0
  2  3  1  0  0  0  0
  2  5  1  0  0  0  0
  3  7  1  0  0  0  0
  5 14  1  0  0  0  0
  6  1  1  0  0  0  0
  7  4  1  0  0  0  0
  8 23  1  6  0  0  0
  8 13  1  0  0  0  0
  8 12  1  0  0  0  0
 10 19  1  0  0  0  0
 11  4  1  0  0  0  0
 12 16  1  0  0  0  0
 13  2  2  0  0  0  0
 14  1  2  0  0  0  0
 15 11  1  0  0  0  0
 16  5  2  0  0  0  0
 16 17  1  0  0  0  0
 17  6  2  0  0  0  0
 18 10  2  0  0  0  0
 18 13  1  0  0  0  0
 19 20  1  0  0  0  0
 19  3  2  0  0  0  0
 20 15  1  0  0  0  0
 22 21  2  0  0  0  0
 22 23  1  0  0  0  0
 24 28  2  0  0  0  0
 24 31  1  0  0  0  0
 25 30  2  0  0  0  0
 27 24  1  0  0  0  0
 28 25  1  0  0  0  0
 29 30  1  0  0  0  0
 29 26  1  0  0  0  0
 30 22  1  0  0  0  0
 31 29  2  0  0  0  0
M  END
>  <MODEL>
1

>  <REMARK>
 VINA RESULT:     -11.2      0.000      0.000
  Name = 
  2 active torsions:
  status: ('A' for Active; 'I' for Inactive)
    1  A    between atoms: C_9  and  C_22
    2  A    between atoms: C_15  and  N_23
                            x       y       z     vdW  Elec       q    Type
                         _______ _______ _______ _____ _____    ______ ____

>  <TORSDO>
F 2

$$$$
=
 OpenBabel10272400223D

 31 35  0  0  1  0  0  0  0  0999 V2000
  190.2280  177.4290  146.8970 C   0  0  0  0  0  0  0  0  0  0  0  0
  188.3150  177.7020  143.5890 C   0  0  0  0  0  0  0  0  0  0  0  0
  186.9800  178.1170  143.8930 C   0  0  0  0  0  0  0  0  0  0  0  0
  185.1130  177.6590  145.5460 C   0  0  0  0  0  2  0  0  0  0  0  0
  189.3320  177.3240  144.6310 C   0  0  0  0  0  0  0  0  0  0  0  0
  191.3230  176.6560  146.5100 C   0  0  0  0  0  3  0  0  0  0  0  0
  186.5270  178.1760  145.3350 C   0  0  0  0  0  2  0  0  0  0  0  0
  190.1210  177.1730  141.8720 C   0  0  2  0  0  3  0  0  0  0  0  0
  190.1050  177.8950  148.3020 C   0  0  0  0  0  1  0  0  0  0  0  0
  186.5720  178.4730  141.5150 C   0  0  0  0  0  3  0  0  0  0  0  0
  184.1030  178.7980  145.4270 C   0  0  0  0  0  2  0  0  0  0  0  0
  190.6110  176.0990  142.8410 C   0  0  0  0  0  2  0  0  0  0  0  0
  188.7170  177.6140  142.2300 C   0  0  0  0  0  0  0  0  0  0  0  0
  189.2460  177.7640  145.9630 C   0  0  0  0  0  3  0  0  0  0  0  0
  184.3850  179.7210  144.2410 C   0  0  0  0  0  2  0  0  0  0  0  0
  190.4640  176.5710  144.2490 C   0  0  0  0  0  0  0  0  0  0  0  0
  191.4410  176.2280  145.1880 C   0  0  0  0  0  3  0  0  0  0  0  0
  187.8510  178.0310  141.2170 C   0  0  0  0  0  3  0  0  0  0  0  0
  186.1200  178.5280  142.8300 C   0  0  0  0  0  0  0  0  0  0  0  0
  184.6710  178.9140  142.9860 C   0  0  0  0  0  2  0  0  0  0  0  0
  192.2730  177.5860  140.0530 O   0  0  0  0  0  0  0  0  0  0  0  0
  191.3040  176.8900  139.6440 C   0  0  0  0  0  0  0  0  0  0  0  0
  190.1860  176.6590  140.5080 N   0  0  0  0  0  2  0  0  0  0  0  0
  191.3840  175.1530  135.7190 C   0  0  0  0  0  0  0  0  0  0  0  0
  192.1160  175.1960  138.0220 C   0  0  0  0  0  3  0  0  0  0  0  0
  189.7130  177.9570  137.4200 O   0  0  0  0  0  1  0  0  0  0  0  0
  191.4200  174.5930  134.4860 F   0  0  0  0  0  0  0  0  0  0  0  0
  192.1540  174.6170  136.7520 C   0  0  0  0  0  3  0  0  0  0  0  0
  190.5310  176.8490  137.2270 C   0  0  0  0  0  0  0  0  0  0  0  0
  191.3080  176.3160  138.2800 C   0  0  0  0  0  0  0  0  0  0  0  0
  190.5750  176.2640  135.9570 C   0  0  0  0  0  3  0  0  0  0  0  0
  1  9  1  0  0  0  0
  2  3  1  0  0  0  0
  2  5  1  0  0  0  0
  3  7  1  0  0  0  0
  5 14  1  0  0  0  0
  6  1  1  0  0  0  0
  7  4  1  0  0  0  0
  8 23  1  6  0  0  0
  8 13  1  0  0  0  0
  8 12  1  0  0  0  0
 10 19  1  0  0  0  0
 11  4  1  0  0  0  0
 12 16  1  0  0  0  0
 13  2  2  0  0  0  0
 14  1  2  0  0  0  0
 15 11  1  0  0  0  0
 16  5  2  0  0  0  0
 16 17  1  0  0  0  0
 17  6  2  0  0  0  0
 18 10  2  0  0  0  0
 18 13  1  0  0  0  0
 19 20  1  0  0  0  0
 19  3  2  0  0  0  0
 20 15  1  0  0  0  0
 22 21  2  0  0  0  0
 22 23  1  0  0  0  0
 24 31  2  0  0  0  0
 24 28  1  0  0  0  0
 25 30  1  0  0  0  0
 27 24  1  0  0  0  0
 28 25  2  0  0  0  0
 29 26  1  0  0  0  0
 29 30  2  0  0  0  0
 30 22  1  0  0  0  0
 31 29  1  0  0  0  0
M  END
>  <MODEL>
2

>  <REMARK>
 VINA RESULT:     -11.0      0.948      1.232
  Name = 
  2 active torsions:
  status: ('A' for Active; 'I' for Inactive)
    1  A    between atoms: C_9  and  C_22
    2  A    between atoms: C_15  and  N_23
                            x       y       z     vdW  Elec       q    Type
                         _______ _______ _______ _____ _____    ______ ____

>  <TORSDO>
F 2

$$$$
=
 OpenBabel10272400223D

 31 35  0  0  1  0  0  0  0  0999 V2000
  187.3550  177.6450  147.2440 C   0  0  0  0  0  0  0  0  0  0  0  0
  187.3230  178.1500  143.4460 C   0  0  0  0  0  0  0  0  0  0  0  0
  188.6630  177.9790  142.9750 C   0  0  0  0  0  0  0  0  0  0  0  0
  191.0450  178.6080  143.5710 C   0  0  0  0  0  2  0  0  0  0  0  0
  186.9470  178.1910  144.9020 C   0  0  0  0  0  0  0  0  0  0  0  0
  186.1350  178.2210  147.6010 C   0  0  0  0  0  3  0  0  0  0  0  0
  189.7920  177.8450  143.9710 C   0  0  0  0  0  2  0  0  0  0  0  0
  184.8460  178.5010  142.9660 C   0  0  2  0  0  3  0  0  0  0  0  0
  188.2310  177.0520  148.2870 C   0  0  0  0  0  1  0  0  0  0  0  0
  187.8340  177.9920  140.6810 C   0  0  0  0  0  3  0  0  0  0  0  0
  191.9760  177.7180  142.7500 C   0  0  0  0  0  2  0  0  0  0  0  0
  184.8010  179.3340  144.2450 C   0  0  0  0  0  2  0  0  0  0  0  0
  186.2750  178.3120  142.5020 C   0  0  0  0  0  0  0  0  0  0  0  0
  187.7520  177.6250  145.9050 C   0  0  0  0  0  3  0  0  0  0  0  0
  191.2350  176.9010  141.6910 C   0  0  0  0  0  2  0  0  0  0  0  0
  185.7000  178.7390  145.2770 C   0  0  0  0  0  0  0  0  0  0  0  0
  185.3090  178.7670  146.6190 C   0  0  0  0  0  3  0  0  0  0  0  0
  186.5420  178.1990  141.1360 C   0  0  0  0  0  3  0  0  0  0  0  0
  188.8980  177.8770  141.5710 C   0  0  0  0  0  0  0  0  0  0  0  0
  190.2570  177.7750  140.9240 C   0  0  0  0  0  2  0  0  0  0  0  0
  183.2110  177.1520  141.0630 O   0  0  0  0  0  0  0  0  0  0  0  0
  183.2210  178.4120  141.0180 C   0  0  0  0  0  0  0  0  0  0  0  0
  184.0340  179.1470  141.9400 N   0  0  0  0  0  2  0  0  0  0  0  0
  180.7690  180.4780  138.1630 C   0  0  0  0  0  0  0  0  0  0  0  0
  181.0100  178.9750  140.0400 C   0  0  0  0  0  3  0  0  0  0  0  0
  184.3480  180.1920  138.9750 O   0  0  0  0  0  1  0  0  0  0  0  0
  179.9820  181.1220  137.2690 F   0  0  0  0  0  0  0  0  0  0  0  0
  180.1970  179.6390  139.1200 C   0  0  0  0  0  3  0  0  0  0  0  0
  182.9740  179.9910  139.0460 C   0  0  0  0  0  0  0  0  0  0  0  0
  182.4040  179.1390  140.0190 C   0  0  0  0  0  0  0  0  0  0  0  0
  182.1530  180.6530  138.1270 C   0  0  0  0  0  3  0  0  0  0  0  0
  1  6  1  0  0  0  0
  1  9  1  0  0  0  0
  2  5  1  0  0  0  0
  3  2  1  0  0  0  0
  3  7  1  0  0  0  0
  4  7  1  0  0  0  0
  5 16  2  0  0  0  0
  5 14  1  0  0  0  0
  8 23  1  6  0  0  0
  8 12  1  0  0  0  0
 10 18  2  0  0  0  0
 10 19  1  0  0  0  0
 11  4  1  0  0  0  0
 12 16  1  0  0  0  0
 13  8  1  0  0  0  0
 13  2  2  0  0  0  0
 14  1  2  0  0  0  0
 15 11  1  0  0  0  0
 16 17  1  0  0  0  0
 17  6  2  0  0  0  0
 18 13  1  0  0  0  0
 19  3  2  0  0  0  0
 20 19  1  0  0  0  0
 20 15  1  0  0  0  0
 22 21  2  0  0  0  0
 22 23  1  0  0  0  0
 24 28  1  0  0  0  0
 26 29  1  0  0  0  0
 27 24  1  0  0  0  0
 28 25  2  0  0  0  0
 29 30  2  0  0  0  0
 30 25  1  0  0  0  0
 30 22  1  0  0  0  0
 31 24  2  0  0  0  0
 31 29  1  0  0  0  0
M  END
>  <MODEL>
3

>  <REMARK>
 VINA RESULT:      -9.8      4.231      7.212
  Name = 
  2 active torsions:
  status: ('A' for Active; 'I' for Inactive)
    1  A    between atoms: C_9  and  C_22
    2  A    between atoms: C_15  and  N_23
                            x       y       z     vdW  Elec       q    Type
                         _______ _______ _______ _____ _____    ______ ____

>  <TORSDO>
F 2

$$$$
=
 OpenBabel10272400223D

 31 35  0  0  1  0  0  0  0  0999 V2000
  186.9890  178.1850  137.0850 C   0  0  0  0  0  0  0  0  0  0  0  0
  185.0990  178.5320  140.4000 C   0  0  0  0  0  0  0  0  0  0  0  0
  183.7560  178.9170  140.0940 C   0  0  0  0  0  0  0  0  0  0  0  0
  182.4630  180.4890  138.5830 C   0  0  0  0  0  2  0  0  0  0  0  0
  186.1990  178.4520  139.3770 C   0  0  0  0  0  0  0  0  0  0  0  0
  188.3120  178.2160  137.5260 C   0  0  0  0  0  3  0  0  0  0  0  0
  183.3900  179.2880  138.6740 C   0  0  0  0  0  2  0  0  0  0  0  0
  186.8530  177.8150  142.1020 C   0  0  2  0  0  3  0  0  0  0  0  0
  186.6910  178.0360  135.6370 C   0  0  0  0  0  1  0  0  0  0  0  0
  183.1380  178.5260  142.4210 C   0  0  0  0  0  3  0  0  0  0  0  0
  181.0030  180.0410  138.5940 C   0  0  0  0  0  2  0  0  0  0  0  0
  187.8660  178.5890  141.2600 C   0  0  0  0  0  2  0  0  0  0  0  0
  185.4390  178.2220  141.7430 C   0  0  0  0  0  0  0  0  0  0  0  0
  185.9440  178.2960  138.0040 C   0  0  0  0  0  3  0  0  0  0  0  0
  180.7190  178.9640  139.6400 C   0  0  0  0  0  2  0  0  0  0  0  0
  187.5440  178.4470  139.8100 C   0  0  0  0  0  0  0  0  0  0  0  0
  188.5890  178.3460  138.8870 C   0  0  0  0  0  3  0  0  0  0  0  0
  184.4480  178.1930  142.7260 C   0  0  0  0  0  3  0  0  0  0  0  0
  182.7710  178.8840  141.1270 C   0  0  0  0  0  0  0  0  0  0  0  0
  181.3400  179.3350  140.9770 C   0  0  0  0  0  2  0  0  0  0  0  0
  188.4080  176.1120  143.7730 O   0  0  0  0  0  0  0  0  0  0  0  0
  187.9300  177.1510  144.3020 C   0  0  0  0  0  0  0  0  0  0  0  0
  187.1280  178.0400  143.5170 N   0  0  0  0  0  2  0  0  0  0  0  0
  188.5730  178.0700  148.4470 C   0  0  0  0  0  0  0  0  0  0  0  0
  187.1190  177.9080  146.5230 C   0  0  0  0  0  3  0  0  0  0  0  0
  190.5570  176.8800  145.5830 O   0  0  0  0  0  1  0  0  0  0  0  0
  188.7600  178.3630  149.7560 F   0  0  0  0  0  0  0  0  0  0  0  0
  187.3100  178.2110  147.8730 C   0  0  0  0  0  3  0  0  0  0  0  0
  189.4620  177.3190  146.3190 C   0  0  0  0  0  0  0  0  0  0  0  0
  188.1860  177.4590  145.7280 C   0  0  0  0  0  0  0  0  0  0  0  0
  189.6450  177.6250  147.6720 C   0  0  0  0  0  3  0  0  0  0  0  0
  1  6  2  0  0  0  0
  1 14  1  0  0  0  0
  2 13  1  0  0  0  0
  3  2  2  0  0  0  0
  3 19  1  0  0  0  0
  4 11  1  0  0  0  0
  4  7  1  0  0  0  0
  5 16  1  0  0  0  0
  5  2  1  0  0  0  0
  6 17  1  0  0  0  0
  7  3  1  0  0  0  0
  8 23  1  1  0  0  0
  9  1  1  0  0  0  0
 10 18  1  0  0  0  0
 11 15  1  0  0  0  0
 12  8  1  0  0  0  0
 13  8  1  0  0  0  0
 13 18  2  0  0  0  0
 14  5  2  0  0  0  0
 15 20  1  0  0  0  0
 16 12  1  0  0  0  0
 17 16  2  0  0  0  0
 19 10  2  0  0  0  0
 20 19  1  0  0  0  0
 21 22  2  0  0  0  0
 22 30  1  0  0  0  0
 23 22  1  0  0  0  0
 24 27  1  0  0  0  0
 25 28  2  0  0  0  0
 26 29  1  0  0  0  0
 28 24  1  0  0  0  0
 29 31  1  0  0  0  0
 30 29  2  0  0  0  0
 30 25  1  0  0  0  0
 31 24  2  0  0  0  0
M  END
>  <MODEL>
4

>  <REMARK>
 VINA RESULT:      -9.8      4.099      7.886
  Name = 
  2 active torsions:
  status: ('A' for Active; 'I' for Inactive)
    1  A    between atoms: C_9  and  C_22
    2  A    between atoms: C_15  and  N_23
                            x       y       z     vdW  Elec       q    Type
                         _______ _______ _______ _____ _____    ______ ____

>  <TORSDO>
F 2

$$$$
=
 OpenBabel10272400223D

 31 35  0  0  1  0  0  0  0  0999 V2000
  186.0760  178.5740  146.3480 C   0  0  0  0  0  0  0  0  0  0  0  0
  184.8120  178.6290  142.7310 C   0  0  0  0  0  0  0  0  0  0  0  0
  183.3920  178.7960  142.7710 C   0  0  0  0  0  0  0  0  0  0  0  0
  181.3550  177.9630  144.0290 C   0  0  0  0  0  2  0  0  0  0  0  0
  185.6620  178.3970  143.9500 C   0  0  0  0  0  0  0  0  0  0  0  0
  187.3440  178.0170  146.1800 C   0  0  0  0  0  3  0  0  0  0  0  0
  182.6690  178.7240  144.0970 C   0  0  0  0  0  2  0  0  0  0  0  0
  186.9770  178.4820  141.3970 C   0  0  2  0  0  3  0  0  0  0  0  0
  185.6070  178.9620  147.7030 C   0  0  0  0  0  1  0  0  0  0  0  0
  183.3890  179.1610  140.3590 C   0  0  0  0  0  3  0  0  0  0  0  0
  180.2000  178.9130  143.7170 C   0  0  0  0  0  2  0  0  0  0  0  0
  187.4550  177.4760  142.4410 C   0  0  0  0  0  2  0  0  0  0  0  0
  185.4750  178.6610  141.4760 C   0  0  0  0  0  0  0  0  0  0  0  0
  185.2470  178.7670  145.2400 C   0  0  0  0  0  3  0  0  0  0  0  0
  180.5360  179.9130  142.6100 C   0  0  0  0  0  2  0  0  0  0  0  0
  186.9610  177.8650  143.7940 C   0  0  0  0  0  0  0  0  0  0  0  0
  187.7860  177.6630  144.9050 C   0  0  0  0  0  3  0  0  0  0  0  0
  184.7590  178.9580  140.3140 C   0  0  0  0  0  3  0  0  0  0  0  0
  182.6920  179.0890  141.5610 C   0  0  0  0  0  0  0  0  0  0  0  0
  181.1950  179.2130  141.4340 C   0  0  0  0  0  2  0  0  0  0  0  0
  189.6700  178.1340  140.5380 O   0  0  0  0  0  0  0  0  0  0  0  0
  188.7640  177.8680  139.7020 C   0  0  0  0  0  0  0  0  0  0  0  0
  187.3910  178.0360  140.0710 N   0  0  0  0  0  2  0  0  0  0  0  0
  189.7770  176.3840  135.8040 C   0  0  0  0  0  0  0  0  0  0  0  0
  189.5320  176.0580  138.1860 C   0  0  0  0  0  3  0  0  0  0  0  0
  188.6080  179.5380  137.2950 O   0  0  0  0  0  1  0  0  0  0  0  0
  190.1010  175.9000  134.5800 F   0  0  0  0  0  0  0  0  0  0  0  0
  189.8640  175.5590  136.9250 C   0  0  0  0  0  3  0  0  0  0  0  0
  189.0210  178.2150  137.2010 C   0  0  0  0  0  0  0  0  0  0  0  0
  189.1060  177.3870  138.3440 C   0  0  0  0  0  0  0  0  0  0  0  0
  189.3570  177.7060  135.9420 C   0  0  0  0  0  3  0  0  0  0  0  0
  1  9  1  0  0  0  0
  2  3  1  0  0  0  0
  2  5  1  0  0  0  0
  3  7  1  0  0  0  0
  4  7  1  0  0  0  0
  5 14  1  0  0  0  0
  6  1  1  0  0  0  0
  8 23  1  6  0  0  0
  8 13  1  0  0  0  0
  8 12  1  0  0  0  0
 10 19  1  0  0  0  0
 11  4  1  0  0  0  0
 12 16  1  0  0  0  0
 13  2  2  0  0  0  0
 14  1  2  0  0  0  0
 15 11  1  0  0  0  0
 16  5  2  0  0  0  0
 16 17  1  0  0  0  0
 17  6  2  0  0  0  0
 18 10  2  0  0  0  0
 18 13  1  0  0  0  0
 19  3  2  0  0  0  0
 20 19  1  0  0  0  0
 20 15  1  0  0  0  0
 22 23  1  0  0  0  0
 22 21  2  0  0  0  0
 24 31  2  0  0  0  0
 24 28  1  0  0  0  0
 25 30  1  0  0  0  0
 27 24  1  0  0  0  0
 28 25  2  0  0  0  0
 29 26  1  0  0  0  0
 29 30  2  0  0  0  0
 30 22  1  0  0  0  0
 31 29  1  0  0  0  0
M  END
>  <MODEL>
5

>  <REMARK>
 VINA RESULT:      -9.6      2.199      3.322
  Name = 
  2 active torsions:
  status: ('A' for Active; 'I' for Inactive)
    1  A    between atoms: C_9  and  C_22
    2  A    between atoms: C_15  and  N_23
                            x       y       z     vdW  Elec       q    Type
                         _______ _______ _______ _____ _____    ______ ____

>  <TORSDO>
F 2

$$$$
=
 OpenBabel10272400223D

 31 35  0  0  1  0  0  0  0  0999 V2000
  192.4970  177.2080  140.8600 C   0  0  0  0  0  0  0  0  0  0  0  0
  189.9290  177.2490  143.7040 C   0  0  0  0  0  0  0  0  0  0  0  0
  190.5880  176.7930  144.8890 C   0  0  0  0  0  0  0  0  0  0  0  0
  192.2070  175.0050  145.6670 C   0  0  0  0  0  2  0  0  0  0  0  0
  190.5550  177.2230  142.3360 C   0  0  0  0  0  0  0  0  0  0  0  0
  191.6620  177.2690  139.7440 C   0  0  0  0  0  3  0  0  0  0  0  0
  191.9890  176.2310  144.7950 C   0  0  0  0  0  2  0  0  0  0  0  0
  187.8720  178.2260  142.5630 C   0  0  2  0  0  3  0  0  0  0  0  0
  193.9710  177.1590  140.6840 C   0  0  0  0  0  1  0  0  0  0  0  0
  188.6460  177.4690  146.2010 C   0  0  0  0  0  3  0  0  0  0  0  0
  192.7160  175.4130  147.0480 C   0  0  0  0  0  2  0  0  0  0  0  0
  188.2430  177.3750  141.3500 C   0  0  0  0  0  2  0  0  0  0  0  0
  188.6010  177.7410  143.7990 C   0  0  0  0  0  0  0  0  0  0  0  0
  191.9460  177.1920  142.1440 C   0  0  0  0  0  3  0  0  0  0  0  0
  191.9630  176.6100  147.6280 C   0  0  0  0  0  2  0  0  0  0  0  0
  189.7260  177.3190  141.1960 C   0  0  0  0  0  0  0  0  0  0  0  0
  190.2780  177.3250  139.9120 C   0  0  0  0  0  3  0  0  0  0  0  0
  187.9920  177.8730  145.0480 C   0  0  0  0  0  3  0  0  0  0  0  0
  189.9310  176.9360  146.1480 C   0  0  0  0  0  0  0  0  0  0  0  0
  190.4630  176.4330  147.4660 C   0  0  0  0  0  2  0  0  0  0  0  0
  185.9810  179.7690  141.0940 O   0  0  0  0  0  0  0  0  0  0  0  0
  185.5240  178.9870  141.9700 C   0  0  0  0  0  0  0  0  0  0  0  0
  186.4250  178.1950  142.7510 N   0  0  0  0  0  2  0  0  0  0  0  0
  181.3090  178.7150  142.7420 C   0  0  0  0  0  0  0  0  0  0  0  0
  183.5620  179.1880  143.4780 C   0  0  0  0  0  3  0  0  0  0  0  0
  183.5980  178.1730  139.9110 O   0  0  0  0  0  1  0  0  0  0  0  0
  179.9820  178.6340  143.0010 F   0  0  0  0  0  0  0  0  0  0  0  0
  182.1940  179.1060  143.7470 C   0  0  0  0  0  3  0  0  0  0  0  0
  183.1600  178.4890  141.1920 C   0  0  0  0  0  0  0  0  0  0  0  0
  184.0650  178.8830  142.2030 C   0  0  0  0  0  0  0  0  0  0  0  0
  181.7910  178.4080  141.4690 C   0  0  0  0  0  3  0  0  0  0  0  0
  1 14  1  0  0  0  0
  2 13  2  0  0  0  0
  2  3  1  0  0  0  0
  3 19  2  0  0  0  0
  4 11  1  0  0  0  0
  5  2  1  0  0  0  0
  6 17  1  0  0  0  0
  6  1  2  0  0  0  0
  7  3  1  0  0  0  0
  7  4  1  0  0  0  0
  8 23  1  1  0  0  0
  8 13  1  0  0  0  0
  9  1  1  0  0  0  0
 11 15  1  0  0  0  0
 12  8  1  0  0  0  0
 13 18  1  0  0  0  0
 14  5  2  0  0  0  0
 16 12  1  0  0  0  0
 16  5  1  0  0  0  0
 17 16  2  0  0  0  0
 18 10  2  0  0  0  0
 19 10  1  0  0  0  0
 19 20  1  0  0  0  0
 20 15  1  0  0  0  0
 21 22  2  0  0  0  0
 22 30  1  0  0  0  0
 22 23  1  0  0  0  0
 24 27  1  0  0  0  0
 24 28  1  0  0  0  0
 25 28  2  0  0  0  0
 26 29  1  0  0  0  0
 29 31  1  0  0  0  0
 29 30  2  0  0  0  0
 30 25  1  0  0  0  0
 31 24  2  0  0  0  0
M  END
>  <MODEL>
6

>  <REMARK>
 VINA RESULT:      -9.4      3.785      7.749
  Name = 
  2 active torsions:
  status: ('A' for Active; 'I' for Inactive)
    1  A    between atoms: C_9  and  C_22
    2  A    between atoms: C_15  and  N_23
                            x       y       z     vdW  Elec       q    Type
                         _______ _______ _______ _____ _____    ______ ____

>  <TORSDO>
F 2

$$$$
=
 OpenBabel10272400223D

 31 35  0  0  1  0  0  0  0  0999 V2000
  185.8170  178.3790  145.2800 C   0  0  0  0  0  0  0  0  0  0  0  0
  185.9960  178.2770  141.4540 C   0  0  0  0  0  0  0  0  0  0  0  0
  184.6870  178.5600  140.9510 C   0  0  0  0  0  0  0  0  0  0  0  0
  182.2560  177.9860  141.3810 C   0  0  0  0  0  2  0  0  0  0  0  0
  186.3050  178.0650  142.9100 C   0  0  0  0  0  0  0  0  0  0  0  0
  186.9930  177.7110  145.6210 C   0  0  0  0  0  3  0  0  0  0  0  0
  183.5210  178.6420  141.9100 C   0  0  0  0  0  2  0  0  0  0  0  0
  188.4750  177.8620  141.0370 C   0  0  2  0  0  3  0  0  0  0  0  0
  184.9210  178.8990  146.3440 C   0  0  0  0  0  1  0  0  0  0  0  0
  185.6150  178.7500  138.7040 C   0  0  0  0  0  3  0  0  0  0  0  0
  181.4020  179.0010  140.6240 C   0  0  0  0  0  2  0  0  0  0  0  0
  188.4260  176.8970  142.2200 C   0  0  0  0  0  2  0  0  0  0  0  0
  187.0770  178.1660  140.5400 C   0  0  0  0  0  0  0  0  0  0  0  0
  185.4810  178.5590  143.9360 C   0  0  0  0  0  3  0  0  0  0  0  0
  182.2230  179.8890  139.6890 C   0  0  0  0  0  2  0  0  0  0  0  0
  187.5080  177.4210  143.2740 C   0  0  0  0  0  0  0  0  0  0  0  0
  187.8380  177.2330  144.6190 C   0  0  0  0  0  3  0  0  0  0  0  0
  186.8760  178.4350  139.1840 C   0  0  0  0  0  3  0  0  0  0  0  0
  184.5190  178.8210  139.5580 C   0  0  0  0  0  0  0  0  0  0  0  0
  183.1960  179.0550  138.8730 C   0  0  0  0  0  2  0  0  0  0  0  0
  191.2990  177.5160  141.1590 O   0  0  0  0  0  0  0  0  0  0  0  0
  190.7200  177.1300  140.1070 C   0  0  0  0  0  0  0  0  0  0  0  0
  189.3030  177.2900  139.9810 N   0  0  0  0  0  2  0  0  0  0  0  0
  192.8700  175.3150  136.8650 C   0  0  0  0  0  0  0  0  0  0  0  0
  190.8130  175.7170  138.0690 C   0  0  0  0  0  3  0  0  0  0  0  0
  193.6080  177.4940  139.7370 O   0  0  0  0  0  1  0  0  0  0  0  0
  193.5330  174.7360  135.8360 F   0  0  0  0  0  0  0  0  0  0  0  0
  191.4960  175.1190  137.0070 C   0  0  0  0  0  3  0  0  0  0  0  0
  192.8830  176.7120  138.8460 C   0  0  0  0  0  0  0  0  0  0  0  0
  191.4910  176.5190  139.0010 C   0  0  0  0  0  0  0  0  0  0  0  0
  193.5600  176.1100  137.7810 C   0  0  0  0  0  3  0  0  0  0  0  0
  1  6  1  0  0  0  0
  1  9  1  0  0  0  0
  2  5  1  0  0  0  0
  3  2  1  0  0  0  0
  3  7  1  0  0  0  0
  4  7  1  0  0  0  0
  5 16  2  0  0  0  0
  5 14  1  0  0  0  0
  8 23  1  6  0  0  0
  8 12  1  0  0  0  0
 10 18  2  0  0  0  0
 10 19  1  0  0  0  0
 11  4  1  0  0  0  0
 12 16  1  0  0  0  0
 13  8  1  0  0  0  0
 13  2  2  0  0  0  0
 14  1  2  0  0  0  0
 15 11  1  0  0  0  0
 16 17  1  0  0  0  0
 17  6  2  0  0  0  0
 18 13  1  0  0  0  0
 19  3  2  0  0  0  0
 20 19  1  0  0  0  0
 20 15  1  0  0  0  0
 22 21  2  0  0  0  0
 23 22  1  0  0  0  0
 24 28  2  0  0  0  0
 24 31  1  0  0  0  0
 25 30  2  0  0  0  0
 27 24  1  0  0  0  0
 28 25  1  0  0  0  0
 29 30  1  0  0  0  0
 29 26  1  0  0  0  0
 30 22  1  0  0  0  0
 31 29  2  0  0  0  0
M  END
>  <MODEL>
7

>  <REMARK>
 VINA RESULT:      -9.2      1.795      3.011
  Name = 
  2 active torsions:
  status: ('A' for Active; 'I' for Inactive)
    1  A    between atoms: C_9  and  C_22
    2  A    between atoms: C_15  and  N_23
                            x       y       z     vdW  Elec       q    Type
                         _______ _______ _______ _____ _____    ______ ____

>  <TORSDO>
F 2

$$$$
=
 OpenBabel10272400223D

 31 35  0  0  1  0  0  0  0  0999 V2000
  183.8430  179.3730  139.9660 C   0  0  0  0  0  0  0  0  0  0  0  0
  187.4070  178.0140  140.3210 C   0  0  0  0  0  0  0  0  0  0  0  0
  187.9140  177.7790  139.0050 C   0  0  0  0  0  0  0  0  0  0  0  0
  187.2010  176.8120  136.7730 C   0  0  0  0  0  2  0  0  0  0  0  0
  185.9820  178.3960  140.6130 C   0  0  0  0  0  0  0  0  0  0  0  0
  183.3490  179.1710  141.2560 C   0  0  0  0  0  3  0  0  0  0  0  0
  186.9880  177.8970  137.8160 C   0  0  0  0  0  2  0  0  0  0  0  0
  187.7720  178.1000  142.8410 C   0  0  2  0  0  3  0  0  0  0  0  0
  182.9790  179.9900  138.9280 C   0  0  0  0  0  1  0  0  0  0  0  0
  190.1330  177.4090  139.9490 C   0  0  0  0  0  3  0  0  0  0  0  0
  188.2180  177.2660  135.7280 C   0  0  0  0  0  2  0  0  0  0  0  0
  186.3300  177.6180  142.9820 C   0  0  0  0  0  2  0  0  0  0  0  0
  188.2780  177.8640  141.4330 C   0  0  0  0  0  0  0  0  0  0  0  0
  185.1490  178.9940  139.6520 C   0  0  0  0  0  3  0  0  0  0  0  0
  189.4380  177.9510  136.3440 C   0  0  0  0  0  2  0  0  0  0  0  0
  185.4770  178.2300  141.9220 C   0  0  0  0  0  0  0  0  0  0  0  0
  184.1660  178.6000  142.2320 C   0  0  0  0  0  3  0  0  0  0  0  0
  189.6330  177.5960  141.2280 C   0  0  0  0  0  3  0  0  0  0  0  0
  189.3040  177.4980  138.8350 C   0  0  0  0  0  0  0  0  0  0  0  0
  189.9650  177.1530  137.5240 C   0  0  0  0  0  2  0  0  0  0  0  0
  190.1080  179.1880  144.0540 O   0  0  0  0  0  0  0  0  0  0  0  0
  189.7660  178.0280  144.4110 C   0  0  0  0  0  0  0  0  0  0  0  0
  188.6080  177.4220  143.8270 N   0  0  0  0  0  2  0  0  0  0  0  0
  191.9920  175.9280  147.4210 C   0  0  0  0  0  0  0  0  0  0  0  0
  190.3150  177.5470  146.7830 C   0  0  0  0  0  3  0  0  0  0  0  0
  191.8070  176.0270  143.7470 O   0  0  0  0  0  1  0  0  0  0  0  0
  192.6860  175.2740  148.3830 F   0  0  0  0  0  0  0  0  0  0  0  0
  191.0290  176.8730  147.7760 C   0  0  0  0  0  3  0  0  0  0  0  0
  191.5280  176.3270  145.0750 C   0  0  0  0  0  0  0  0  0  0  0  0
  190.5510  177.2870  145.4240 C   0  0  0  0  0  0  0  0  0  0  0  0
  192.2400  175.6560  146.0760 C   0  0  0  0  0  3  0  0  0  0  0  0
  1  6  1  0  0  0  0
  2  5  1  0  0  0  0
  2 13  1  0  0  0  0
  3  2  2  0  0  0  0
  4  7  1  0  0  0  0
  5 16  2  0  0  0  0
  6 17  2  0  0  0  0
  7  3  1  0  0  0  0
  8 12  1  0  0  0  0
  8 23  1  1  0  0  0
  9  1  1  0  0  0  0
 10 18  1  0  0  0  0
 11 15  1  0  0  0  0
 11  4  1  0  0  0  0
 13  8  1  0  0  0  0
 14  1  2  0  0  0  0
 14  5  1  0  0  0  0
 15 20  1  0  0  0  0
 16 17  1  0  0  0  0
 16 12  1  0  0  0  0
 18 13  2  0  0  0  0
 19  3  1  0  0  0  0
 19 10  2  0  0  0  0
 20 19  1  0  0  0  0
 21 22  2  0  0  0  0
 22 30  1  0  0  0  0
 23 22  1  0  0  0  0
 24 28  1  0  0  0  0
 24 27  1  0  0  0  0
 25 28  2  0  0  0  0
 26 29  1  0  0  0  0
 29 30  2  0  0  0  0
 29 31  1  0  0  0  0
 30 25  1  0  0  0  0
 31 24  2  0  0  0  0
M  END
>  <MODEL>
8

>  <REMARK>
 VINA RESULT:      -9.2      3.259      7.611
  Name = 
  2 active torsions:
  status: ('A' for Active; 'I' for Inactive)
    1  A    between atoms: C_9  and  C_22
    2  A    between atoms: C_15  and  N_23
                            x       y       z     vdW  Elec       q    Type
                         _______ _______ _______ _____ _____    ______ ____

>  <TORSDO>
F 2

$$$$
=
 OpenBabel10272400223D

 31 35  0  0  1  0  0  0  0  0999 V2000
  182.4380  179.0750  140.5720 C   0  0  0  0  0  0  0  0  0  0  0  0
  186.1710  178.3210  140.1540 C   0  0  0  0  0  0  0  0  0  0  0  0
  186.4230  178.1410  138.7570 C   0  0  0  0  0  0  0  0  0  0  0  0
  185.4260  177.0210  136.7140 C   0  0  0  0  0  2  0  0  0  0  0  0
  184.7960  178.4730  140.7430 C   0  0  0  0  0  0  0  0  0  0  0  0
  182.2650  178.8250  141.9340 C   0  0  0  0  0  3  0  0  0  0  0  0
  185.2610  178.0800  137.7910 C   0  0  0  0  0  2  0  0  0  0  0  0
  187.0360  178.5220  142.5420 C   0  0  2  0  0  3  0  0  0  0  0  0
  181.2870  179.5200  139.7460 C   0  0  0  0  0  1  0  0  0  0  0  0
  188.8190  178.1570  139.2100 C   0  0  0  0  0  3  0  0  0  0  0  0
  186.1140  177.6090  135.4840 C   0  0  0  0  0  2  0  0  0  0  0  0
  185.7550  177.8160  142.9770 C   0  0  0  0  0  2  0  0  0  0  0  0
  187.2680  178.3390  141.0560 C   0  0  0  0  0  0  0  0  0  0  0  0
  183.6940  178.9060  139.9860 C   0  0  0  0  0  3  0  0  0  0  0  0
  187.3060  178.4970  135.8380 C   0  0  0  0  0  2  0  0  0  0  0  0
  184.6100  178.2570  142.1270 C   0  0  0  0  0  0  0  0  0  0  0  0
  183.3500  178.4170  142.7100 C   0  0  0  0  0  3  0  0  0  0  0  0
  188.5750  178.2890  140.5670 C   0  0  0  0  0  3  0  0  0  0  0  0
  187.7730  178.0860  138.2960 C   0  0  0  0  0  0  0  0  0  0  0  0
  188.1920  177.8220  136.8720 C   0  0  0  0  0  2  0  0  0  0  0  0
  187.1380  178.3670  145.3830 O   0  0  0  0  0  0  0  0  0  0  0  0
  188.1440  177.9470  144.7520 C   0  0  0  0  0  0  0  0  0  0  0  0
  188.1590  178.0110  143.3210 N   0  0  0  0  0  2  0  0  0  0  0  0
  191.5840  176.3410  146.7570 C   0  0  0  0  0  0  0  0  0  0  0  0
  190.4990  177.1600  144.7580 C   0  0  0  0  0  3  0  0  0  0  0  0
  188.1340  177.2950  147.6130 O   0  0  0  0  0  1  0  0  0  0  0  0
  192.6780  175.8350  147.3750 F   0  0  0  0  0  0  0  0  0  0  0  0
  191.6270  176.6390  145.3950 C   0  0  0  0  0  3  0  0  0  0  0  0
  189.2790  177.0880  146.8530 C   0  0  0  0  0  0  0  0  0  0  0  0
  189.3120  177.3920  145.4730 C   0  0  0  0  0  0  0  0  0  0  0  0
  190.4140  176.5660  147.4830 C   0  0  0  0  0  3  0  0  0  0  0  0
  1  6  1  0  0  0  0
  2  5  1  0  0  0  0
  2 13  1  0  0  0  0
  3  2  2  0  0  0  0
  4  7  1  0  0  0  0
  5 16  2  0  0  0  0
  6 17  2  0  0  0  0
  7  3  1  0  0  0  0
  8 12  1  0  0  0  0
  8 23  1  1  0  0  0
  9  1  1  0  0  0  0
 10 18  1  0  0  0  0
 11 15  1  0  0  0  0
 11  4  1  0  0  0  0
 13  8  1  0  0  0  0
 14  1  2  0  0  0  0
 14  5  1  0  0  0  0
 15 20  1  0  0  0  0
 16 17  1  0  0  0  0
 16 12  1  0  0  0  0
 18 13  2  0  0  0  0
 19  3  1  0  0  0  0
 19 10  2  0  0  0  0
 20 19  1  0  0  0  0
 22 21  2  0  0  0  0
 22 30  1  0  0  0  0
 23 22  1  0  0  0  0
 24 27  1  0  0  0  0
 24 31  1  0  0  0  0
 25 28  1  0  0  0  0
 25 30  2  0  0  0  0
 28 24  2  0  0  0  0
 29 31  2  0  0  0  0
 29 26  1  0  0  0  0
 30 29  1  0  0  0  0
M  END
>  <MODEL>
9

>  <REMARK>
 VINA RESULT:      -9.2      3.838      7.816
  Name = 
  2 active torsions:
  status: ('A' for Active; 'I' for Inactive)
    1  A    between atoms: C_9  and  C_22
    2  A    between atoms: C_15  and  N_23
                            x       y       z     vdW  Elec       q    Type
                         _______ _______ _______ _____ _____    ______ ____

>  <TORSDO>
F 2

$$$$
