=
 OpenBabel10272401493D

 28 31  0  0  0  0  0  0  0  0999 V2000
  187.6670  177.6290  145.3690 C   0  0  0  0  0  0  0  0  0  0  0  0
  191.2840  176.7080  147.5200 C   0  0  0  0  0  1  0  0  0  0  0  0
  189.9560  177.3510  142.5100 C   0  0  0  0  0  0  0  0  0  0  0  0
  190.0560  177.1010  145.3430 C   0  0  0  0  0  0  0  0  0  0  0  0
  188.8660  177.4510  143.2130 N   0  0  0  0  0  0  0  0  0  0  0  0
  188.8680  177.2640  147.4510 C   0  0  0  0  0  3  0  0  0  0  0  0
  191.3010  176.7520  144.5710 C   0  0  0  0  0  2  0  0  0  0  0  0
  190.0500  177.0350  146.7480 C   0  0  0  0  0  0  0  0  0  0  0  0
  191.2120  177.1690  143.1760 N   0  0  0  0  0  2  0  0  0  0  0  0
  187.6880  177.5570  146.7680 C   0  0  0  0  0  3  0  0  0  0  0  0
  188.8620  177.3970  144.6490 C   0  0  0  0  0  0  0  0  0  0  0  0
  190.8920  176.8600  140.3360 C   0  0  0  0  0  3  0  0  0  0  0  0
  188.2030  177.8070  139.2260 C   0  0  0  0  0  3  0  0  0  0  0  0
  189.8360  176.2220  138.2140 C   0  0  0  0  0  0  0  0  0  0  0  0
  189.9060  177.4420  141.0320 C   0  0  0  0  0  0  0  0  0  0  0  0
  188.2650  179.2550  141.0080 F   0  0  0  0  0  0  0  0  0  0  0  0
  188.5930  176.6830  138.3540 C   0  0  0  0  0  3  0  0  0  0  0  0
  188.7950  178.1840  140.3690 C   0  0  0  0  0  0  0  0  0  0  0  0
  190.0820  175.0690  137.3100 C   0  0  0  0  0  1  0  0  0  0  0  0
  191.0020  176.9040  138.8500 C   0  0  0  0  0  2  0  0  0  0  0  0
  186.3950  177.9670  144.6900 C   0  0  0  0  0  0  0  0  0  0  0  0
  186.3020  177.8700  143.2940 C   0  0  0  0  0  3  0  0  0  0  0  0
  184.0930  178.7620  144.7510 C   0  0  0  0  0  0  0  0  0  0  0  0
  185.1200  178.2080  142.6330 C   0  0  0  0  0  3  0  0  0  0  0  0
  185.3250  178.5200  146.7730 F   0  0  0  0  0  0  0  0  0  0  0  0
  185.2780  178.4250  145.4190 C   0  0  0  0  0  0  0  0  0  0  0  0
  183.0150  179.1920  145.4510 F   0  0  0  0  0  0  0  0  0  0  0  0
  184.0160  178.6520  143.3610 C   0  0  0  0  0  3  0  0  0  0  0  0
  1 10  1  0  0  0  0
  3  9  1  0  0  0  0
  3  5  2  0  0  0  0
  4  8  2  0  0  0  0
  5 11  1  0  0  0  0
  7  4  1  0  0  0  0
  8  6  1  0  0  0  0
  8  2  1  0  0  0  0
  9  7  1  0  0  0  0
 10  6  2  0  0  0  0
 11  4  1  0  0  0  0
 11  1  2  0  0  0  0
 12 15  2  0  0  0  0
 13 18  2  0  0  0  0
 14 17  2  0  0  0  0
 14 20  1  0  0  0  0
 15  3  1  0  0  0  0
 17 13  1  0  0  0  0
 18 16  1  0  0  0  0
 18 15  1  0  0  0  0
 19 14  1  0  0  0  0
 20 12  1  0  0  0  0
 21  1  1  0  0  0  0
 21 26  1  0  0  0  0
 22 21  2  0  0  0  0
 23 26  2  0  0  0  0
 23 27  1  0  0  0  0
 24 22  1  0  0  0  0
 24 28  2  0  0  0  0
 26 25  1  0  0  0  0
 28 23  1  0  0  0  0
M  END
>  <MODEL>
1

>  <REMARK>
 VINA RESULT:     -11.7      0.000      0.000
  Name = 
  2 active torsions:
  status: ('A' for Active; 'I' for Inactive)
    1  A    between atoms: C_1  and  C_2
    2  A    between atoms: C_10  and  C_13
                            x       y       z     vdW  Elec       q    Type
                         _______ _______ _______ _____ _____    ______ ____

>  <TORSDO>
F 2

$$$$
=
 OpenBabel10272401493D

 28 31  0  0  0  0  0  0  0  0999 V2000
  187.4590  177.5760  144.2900 C   0  0  0  0  0  0  0  0  0  0  0  0
  183.4610  179.0790  144.8430 C   0  0  0  0  0  1  0  0  0  0  0  0
  186.6850  178.3850  140.7930 C   0  0  0  0  0  0  0  0  0  0  0  0
  185.4240  178.5440  143.3390 C   0  0  0  0  0  0  0  0  0  0  0  0
  187.3400  178.0570  141.8670 N   0  0  0  0  0  0  0  0  0  0  0  0
  185.5570  178.0810  145.7160 C   0  0  0  0  0  3  0  0  0  0  0  0
  184.6980  179.1490  142.1670 C   0  0  0  0  0  2  0  0  0  0  0  0
  184.8390  178.5550  144.6180 C   0  0  0  0  0  0  0  0  0  0  0  0
  185.3090  178.7750  140.8960 N   0  0  0  0  0  2  0  0  0  0  0  0
  186.8540  177.5970  145.5540 C   0  0  0  0  0  3  0  0  0  0  0  0
  186.7380  178.0540  143.1720 C   0  0  0  0  0  0  0  0  0  0  0  0
  188.6770  178.4950  139.4290 C   0  0  0  0  0  3  0  0  0  0  0  0
  186.9060  177.4290  137.1740 C   0  0  0  0  0  3  0  0  0  0  0  0
  189.3710  177.2150  137.4530 C   0  0  0  0  0  0  0  0  0  0  0  0
  187.3470  178.3430  139.4680 C   0  0  0  0  0  0  0  0  0  0  0  0
  185.2750  178.6720  138.2100 F   0  0  0  0  0  0  0  0  0  0  0  0
  188.2120  176.7750  136.9660 C   0  0  0  0  0  3  0  0  0  0  0  0
  186.5300  178.1600  138.2340 C   0  0  0  0  0  0  0  0  0  0  0  0
  190.6110  176.4440  137.1770 C   0  0  0  0  0  1  0  0  0  0  0  0
  189.4770  178.5190  138.1710 C   0  0  0  0  0  2  0  0  0  0  0  0
  188.8310  177.0290  144.1650 C   0  0  0  0  0  0  0  0  0  0  0  0
  189.1250  176.1130  143.1450 C   0  0  0  0  0  3  0  0  0  0  0  0
  191.1270  176.8360  144.9530 C   0  0  0  0  0  0  0  0  0  0  0  0
  190.4050  175.5680  143.0250 C   0  0  0  0  0  3  0  0  0  0  0  0
  189.6010  178.2790  146.0710 F   0  0  0  0  0  0  0  0  0  0  0  0
  189.8440  177.3850  145.0790 C   0  0  0  0  0  0  0  0  0  0  0  0
  192.1060  177.1830  145.8240 F   0  0  0  0  0  0  0  0  0  0  0  0
  191.4050  175.9300  143.9270 C   0  0  0  0  0  3  0  0  0  0  0  0
  1 10  1  0  0  0  0
  3  9  1  0  0  0  0
  3  5  2  0  0  0  0
  4  8  2  0  0  0  0
  5 11  1  0  0  0  0
  7  4  1  0  0  0  0
  8  2  1  0  0  0  0
  8  6  1  0  0  0  0
  9  7  1  0  0  0  0
 10  6  2  0  0  0  0
 11  4  1  0  0  0  0
 11  1  2  0  0  0  0
 12 15  2  0  0  0  0
 13 18  2  0  0  0  0
 14 20  1  0  0  0  0
 15  3  1  0  0  0  0
 16 18  1  0  0  0  0
 17 13  1  0  0  0  0
 17 14  2  0  0  0  0
 18 15  1  0  0  0  0
 19 14  1  0  0  0  0
 20 12  1  0  0  0  0
 21  1  1  0  0  0  0
 21 26  1  0  0  0  0
 22 21  2  0  0  0  0
 23 26  2  0  0  0  0
 23 27  1  0  0  0  0
 24 22  1  0  0  0  0
 24 28  2  0  0  0  0
 26 25  1  0  0  0  0
 28 23  1  0  0  0  0
M  END
>  <MODEL>
2

>  <REMARK>
 VINA RESULT:     -11.2      2.344      4.768
  Name = 
  2 active torsions:
  status: ('A' for Active; 'I' for Inactive)
    1  A    between atoms: C_1  and  C_2
    2  A    between atoms: C_10  and  C_13
                            x       y       z     vdW  Elec       q    Type
                         _______ _______ _______ _____ _____    ______ ____

>  <TORSDO>
F 2

$$$$
=
 OpenBabel10272401493D

 28 31  0  0  0  0  0  0  0  0999 V2000
  187.4050  177.9270  144.3670 C   0  0  0  0  0  0  0  0  0  0  0  0
  183.2610  179.0280  144.7740 C   0  0  0  0  0  1  0  0  0  0  0  0
  186.6100  178.4080  140.8150 C   0  0  0  0  0  0  0  0  0  0  0  0
  185.2960  178.6040  143.3310 C   0  0  0  0  0  0  0  0  0  0  0  0
  187.2770  178.2250  141.9150 N   0  0  0  0  0  0  0  0  0  0  0  0
  185.4360  178.3220  145.7350 C   0  0  0  0  0  3  0  0  0  0  0  0
  184.5300  179.0460  142.1120 C   0  0  0  0  0  2  0  0  0  0  0  0
  184.6910  178.6400  144.6000 C   0  0  0  0  0  0  0  0  0  0  0  0
  185.1990  178.6540  140.8770 N   0  0  0  0  0  2  0  0  0  0  0  0
  186.7800  177.9690  145.6200 C   0  0  0  0  0  3  0  0  0  0  0  0
  186.6570  178.2480  143.2110 C   0  0  0  0  0  0  0  0  0  0  0  0
  188.6270  178.4840  139.4860 C   0  0  0  0  0  3  0  0  0  0  0  0
  186.8860  177.4160  137.2090 C   0  0  0  0  0  3  0  0  0  0  0  0
  189.3440  177.1780  137.5350 C   0  0  0  0  0  0  0  0  0  0  0  0
  187.2950  178.3460  139.5020 C   0  0  0  0  0  0  0  0  0  0  0  0
  185.2510  178.6850  138.2040 F   0  0  0  0  0  0  0  0  0  0  0  0
  188.1890  176.7460  137.0300 C   0  0  0  0  0  3  0  0  0  0  0  0
  186.4990  178.1600  138.2550 C   0  0  0  0  0  0  0  0  0  0  0  0
  190.5800  176.3910  137.2880 C   0  0  0  0  0  1  0  0  0  0  0  0
  189.4500  178.4880  138.2430 C   0  0  0  0  0  2  0  0  0  0  0  0
  188.8290  177.5230  144.2930 C   0  0  0  0  0  0  0  0  0  0  0  0
  189.8230  178.3820  144.7850 C   0  0  0  0  0  3  0  0  0  0  0  0
  190.5670  175.9540  143.6230 C   0  0  0  0  0  0  0  0  0  0  0  0
  191.1720  178.0310  144.7030 C   0  0  0  0  0  3  0  0  0  0  0  0
  188.2780  175.4380  143.2270 F   0  0  0  0  0  0  0  0  0  0  0  0
  189.2120  176.3010  143.7020 C   0  0  0  0  0  0  0  0  0  0  0  0
  190.9370  174.7750  143.0650 F   0  0  0  0  0  0  0  0  0  0  0  0
  191.5430  176.8170  144.1240 C   0  0  0  0  0  3  0  0  0  0  0  0
  1 10  1  0  0  0  0
  3  9  1  0  0  0  0
  3  5  2  0  0  0  0
  4  8  2  0  0  0  0
  5 11  1  0  0  0  0
  7  4  1  0  0  0  0
  8  2  1  0  0  0  0
  8  6  1  0  0  0  0
  9  7  1  0  0  0  0
 10  6  2  0  0  0  0
 11  4  1  0  0  0  0
 11  1  2  0  0  0  0
 12 15  2  0  0  0  0
 13 18  2  0  0  0  0
 14 20  1  0  0  0  0
 15  3  1  0  0  0  0
 16 18  1  0  0  0  0
 17 13  1  0  0  0  0
 17 14  2  0  0  0  0
 18 15  1  0  0  0  0
 19 14  1  0  0  0  0
 20 12  1  0  0  0  0
 21  1  1  0  0  0  0
 21 22  1  0  0  0  0
 23 26  1  0  0  0  0
 23 28  2  0  0  0  0
 24 22  2  0  0  0  0
 25 26  1  0  0  0  0
 26 21  2  0  0  0  0
 27 23  1  0  0  0  0
 28 24  1  0  0  0  0
M  END
>  <MODEL>
3

>  <REMARK>
 VINA RESULT:     -11.1      2.517      4.883
  Name = 
  2 active torsions:
  status: ('A' for Active; 'I' for Inactive)
    1  A    between atoms: C_1  and  C_2
    2  A    between atoms: C_10  and  C_13
                            x       y       z     vdW  Elec       q    Type
                         _______ _______ _______ _____ _____    ______ ____

>  <TORSDO>
F 2

$$$$
=
 OpenBabel10272401493D

 28 31  0  0  0  0  0  0  0  0999 V2000
  186.4120  177.9930  144.9370 C   0  0  0  0  0  0  0  0  0  0  0  0
  189.5500  177.3590  147.8180 C   0  0  0  0  0  1  0  0  0  0  0  0
  189.2300  177.6230  142.6120 C   0  0  0  0  0  0  0  0  0  0  0  0
  188.7700  177.5610  145.4190 C   0  0  0  0  0  0  0  0  0  0  0  0
  188.0200  177.7240  143.0770 N   0  0  0  0  0  0  0  0  0  0  0  0
  187.1830  177.8120  147.2350 C   0  0  0  0  0  3  0  0  0  0  0  0
  190.1530  177.2140  144.9350 C   0  0  0  0  0  2  0  0  0  0  0  0
  188.4870  177.5860  146.7970 C   0  0  0  0  0  0  0  0  0  0  0  0
  190.3320  177.5350  143.5230 N   0  0  0  0  0  2  0  0  0  0  0  0
  186.1550  178.0130  146.3140 C   0  0  0  0  0  3  0  0  0  0  0  0
  187.7320  177.7640  144.4850 C   0  0  0  0  0  0  0  0  0  0  0  0
  190.6000  177.0440  140.7070 C   0  0  0  0  0  3  0  0  0  0  0  0
  188.1520  177.7720  139.0230 C   0  0  0  0  0  3  0  0  0  0  0  0
  190.0170  176.2160  138.4720 C   0  0  0  0  0  0  0  0  0  0  0  0
  189.4730  177.6160  141.1500 C   0  0  0  0  0  0  0  0  0  0  0  0
  187.7990  179.3330  140.6710 F   0  0  0  0  0  0  0  0  0  0  0  0
  188.7540  176.6160  138.3300 C   0  0  0  0  0  3  0  0  0  0  0  0
  188.4880  178.2530  140.2290 C   0  0  0  0  0  0  0  0  0  0  0  0
  190.4850  175.0220  137.7210 C   0  0  0  0  0  1  0  0  0  0  0  0
  191.0040  176.9980  139.2720 C   0  0  0  0  0  2  0  0  0  0  0  0
  185.2910  178.2350  143.9980 C   0  0  0  0  0  0  0  0  0  0  0  0
  185.5020  178.1200  142.6170 C   0  0  0  0  0  3  0  0  0  0  0  0
  182.9810  178.8660  143.5570 C   0  0  0  0  0  0  0  0  0  0  0  0
  184.4660  178.3680  141.7150 C   0  0  0  0  0  3  0  0  0  0  0  0
  183.7710  178.7280  145.7970 F   0  0  0  0  0  0  0  0  0  0  0  0
  184.0170  178.6190  144.4660 C   0  0  0  0  0  0  0  0  0  0  0  0
  181.7520  179.2250  144.0050 F   0  0  0  0  0  0  0  0  0  0  0  0
  183.2060  178.7400  142.1850 C   0  0  0  0  0  3  0  0  0  0  0  0
  1 10  1  0  0  0  0
  3  5  2  0  0  0  0
  3  9  1  0  0  0  0
  4  8  2  0  0  0  0
  5 11  1  0  0  0  0
  7  4  1  0  0  0  0
  8  6  1  0  0  0  0
  8  2  1  0  0  0  0
  9  7  1  0  0  0  0
 10  6  2  0  0  0  0
 11  1  2  0  0  0  0
 11  4  1  0  0  0  0
 12 15  2  0  0  0  0
 13 18  2  0  0  0  0
 14 20  1  0  0  0  0
 15  3  1  0  0  0  0
 17 14  2  0  0  0  0
 17 13  1  0  0  0  0
 18 16  1  0  0  0  0
 18 15  1  0  0  0  0
 19 14  1  0  0  0  0
 20 12  1  0  0  0  0
 21 26  1  0  0  0  0
 21  1  1  0  0  0  0
 22 21  2  0  0  0  0
 23 27  1  0  0  0  0
 23 26  2  0  0  0  0
 24 28  2  0  0  0  0
 24 22  1  0  0  0  0
 26 25  1  0  0  0  0
 28 23  1  0  0  0  0
M  END
>  <MODEL>
4

>  <REMARK>
 VINA RESULT:     -11.0      0.890      1.221
  Name = 
  2 active torsions:
  status: ('A' for Active; 'I' for Inactive)
    1  A    between atoms: C_1  and  C_2
    2  A    between atoms: C_10  and  C_13
                            x       y       z     vdW  Elec       q    Type
                         _______ _______ _______ _____ _____    ______ ____

>  <TORSDO>
F 2

$$$$
=
 OpenBabel10272401493D

 28 31  0  0  0  0  0  0  0  0999 V2000
  187.9530  177.6430  144.1780 C   0  0  0  0  0  0  0  0  0  0  0  0
  184.0020  178.9730  143.0950 C   0  0  0  0  0  1  0  0  0  0  0  0
  188.4370  177.9180  140.5490 C   0  0  0  0  0  0  0  0  0  0  0  0
  186.3690  178.3510  142.4540 C   0  0  0  0  0  0  0  0  0  0  0  0
  188.6800  177.7790  141.8180 N   0  0  0  0  0  0  0  0  0  0  0  0
  185.6700  178.2280  144.7720 C   0  0  0  0  0  3  0  0  0  0  0  0
  186.0920  178.7460  141.0280 C   0  0  0  0  0  2  0  0  0  0  0  0
  185.3750  178.5040  143.4380 C   0  0  0  0  0  0  0  0  0  0  0  0
  187.1100  178.2380  140.1140 N   0  0  0  0  0  2  0  0  0  0  0  0
  186.9450  177.8030  145.1390 C   0  0  0  0  0  3  0  0  0  0  0  0
  187.6620  177.9210  142.8220 C   0  0  0  0  0  0  0  0  0  0  0  0
  190.5990  177.0340  139.9270 C   0  0  0  0  0  3  0  0  0  0  0  0
  189.8060  177.7520  137.0610 C   0  0  0  0  0  3  0  0  0  0  0  0
  191.4040  176.0110  137.8460 C   0  0  0  0  0  0  0  0  0  0  0  0
  189.5200  177.7320  139.5530 C   0  0  0  0  0  0  0  0  0  0  0  0
  188.7200  179.5070  138.0710 F   0  0  0  0  0  0  0  0  0  0  0  0
  190.5550  176.4860  136.9370 C   0  0  0  0  0  3  0  0  0  0  0  0
  189.3930  178.3360  138.1960 C   0  0  0  0  0  0  0  0  0  0  0  0
  192.0780  174.7110  137.5960 C   0  0  0  0  0  1  0  0  0  0  0  0
  191.7850  176.8010  139.0540 C   0  0  0  0  0  2  0  0  0  0  0  0
  189.2860  177.1650  144.6140 C   0  0  0  0  0  0  0  0  0  0  0  0
  190.1040  176.4690  143.7130 C   0  0  0  0  0  3  0  0  0  0  0  0
  190.9910  176.8810  146.3290 C   0  0  0  0  0  0  0  0  0  0  0  0
  191.3540  175.9890  144.1110 C   0  0  0  0  0  3  0  0  0  0  0  0
  188.9770  178.0450  146.8320 F   0  0  0  0  0  0  0  0  0  0  0  0
  189.7360  177.3640  145.9350 C   0  0  0  0  0  0  0  0  0  0  0  0
  191.4310  177.0800  147.5960 F   0  0  0  0  0  0  0  0  0  0  0  0
  191.7970  176.1960  145.4170 C   0  0  0  0  0  3  0  0  0  0  0  0
  1 21  1  0  0  0  0
  1 10  1  0  0  0  0
  2  8  1  0  0  0  0
  3  5  2  0  0  0  0
  4 11  1  0  0  0  0
  4  8  2  0  0  0  0
  5 11  1  0  0  0  0
  6 10  2  0  0  0  0
  7  4  1  0  0  0  0
  8  6  1  0  0  0  0
  9  3  1  0  0  0  0
  9  7  1  0  0  0  0
 11  1  2  0  0  0  0
 13 18  2  0  0  0  0
 14 20  1  0  0  0  0
 15 12  2  0  0  0  0
 15  3  1  0  0  0  0
 16 18  1  0  0  0  0
 17 13  1  0  0  0  0
 17 14  2  0  0  0  0
 18 15  1  0  0  0  0
 19 14  1  0  0  0  0
 20 12  1  0  0  0  0
 21 26  1  0  0  0  0
 22 24  1  0  0  0  0
 22 21  2  0  0  0  0
 23 27  1  0  0  0  0
 24 28  2  0  0  0  0
 26 23  2  0  0  0  0
 26 25  1  0  0  0  0
 28 23  1  0  0  0  0
M  END
>  <MODEL>
5

>  <REMARK>
 VINA RESULT:     -10.9      1.995      4.598
  Name = 
  2 active torsions:
  status: ('A' for Active; 'I' for Inactive)
    1  A    between atoms: C_1  and  C_2
    2  A    between atoms: C_10  and  C_13
                            x       y       z     vdW  Elec       q    Type
                         _______ _______ _______ _____ _____    ______ ____

>  <TORSDO>
F 2

$$$$
=
 OpenBabel10272401493D

 28 31  0  0  0  0  0  0  0  0999 V2000
  189.2170  177.4310  144.6110 C   0  0  0  0  0  0  0  0  0  0  0  0
  188.0870  177.6630  148.7610 C   0  0  0  0  0  1  0  0  0  0  0  0
  185.6950  178.3730  144.1740 C   0  0  0  0  0  0  0  0  0  0  0  0
  187.5120  177.8800  146.3070 C   0  0  0  0  0  0  0  0  0  0  0  0
  186.9460  178.1260  143.9210 N   0  0  0  0  0  0  0  0  0  0  0  0
  189.7460  177.2120  146.9740 C   0  0  0  0  0  3  0  0  0  0  0  0
  186.1390  178.3810  146.6680 C   0  0  0  0  0  2  0  0  0  0  0  0
  188.4460  177.5810  147.3160 C   0  0  0  0  0  0  0  0  0  0  0  0
  185.2280  178.3410  145.5290 N   0  0  0  0  0  2  0  0  0  0  0  0
  190.1280  177.1380  145.6350 C   0  0  0  0  0  3  0  0  0  0  0  0
  187.8970  177.8070  144.9510 C   0  0  0  0  0  0  0  0  0  0  0  0
  185.1880  178.5100  141.8150 C   0  0  0  0  0  3  0  0  0  0  0  0
  182.2730  178.7970  142.6990 C   0  0  0  0  0  3  0  0  0  0  0  0
  183.1700  177.9250  140.5450 C   0  0  0  0  0  0  0  0  0  0  0  0
  184.7510  178.6690  143.0710 C   0  0  0  0  0  0  0  0  0  0  0  0
  183.1910  179.9130  144.4850 F   0  0  0  0  0  0  0  0  0  0  0  0
  182.2140  177.9800  141.4710 C   0  0  0  0  0  3  0  0  0  0  0  0
  183.3740  179.1510  143.3790 C   0  0  0  0  0  0  0  0  0  0  0  0
  182.9820  177.0440  139.3640 C   0  0  0  0  0  1  0  0  0  0  0  0
  184.3710  178.8090  140.6040 C   0  0  0  0  0  2  0  0  0  0  0  0
  189.6630  177.3140  143.2030 C   0  0  0  0  0  0  0  0  0  0  0  0
  188.7260  177.0510  142.1950 C   0  0  0  0  0  3  0  0  0  0  0  0
  191.4250  177.2880  141.5230 C   0  0  0  0  0  0  0  0  0  0  0  0
  189.1290  176.9130  140.8650 C   0  0  0  0  0  3  0  0  0  0  0  0
  191.9620  177.6940  143.8050 F   0  0  0  0  0  0  0  0  0  0  0  0
  191.0260  177.4260  142.8580 C   0  0  0  0  0  0  0  0  0  0  0  0
  192.7340  177.4060  141.1870 F   0  0  0  0  0  0  0  0  0  0  0  0
  190.4780  177.0330  140.5290 C   0  0  0  0  0  3  0  0  0  0  0  0
  1 11  2  0  0  0  0
  1 10  1  0  0  0  0
  3  9  1  0  0  0  0
  4  7  1  0  0  0  0
  4  8  2  0  0  0  0
  5  3  2  0  0  0  0
  5 11  1  0  0  0  0
  6  8  1  0  0  0  0
  8  2  1  0  0  0  0
  9  7  1  0  0  0  0
 10  6  2  0  0  0  0
 11  4  1  0  0  0  0
 12 15  2  0  0  0  0
 13 18  2  0  0  0  0
 14 20  1  0  0  0  0
 14 17  2  0  0  0  0
 15 18  1  0  0  0  0
 15  3  1  0  0  0  0
 17 13  1  0  0  0  0
 18 16  1  0  0  0  0
 19 14  1  0  0  0  0
 20 12  1  0  0  0  0
 21  1  1  0  0  0  0
 22 21  2  0  0  0  0
 23 26  2  0  0  0  0
 24 22  1  0  0  0  0
 26 21  1  0  0  0  0
 26 25  1  0  0  0  0
 27 23  1  0  0  0  0
 28 24  2  0  0  0  0
 28 23  1  0  0  0  0
M  END
>  <MODEL>
6

>  <REMARK>
 VINA RESULT:     -10.7      2.147      5.731
  Name = 
  2 active torsions:
  status: ('A' for Active; 'I' for Inactive)
    1  A    between atoms: C_1  and  C_2
    2  A    between atoms: C_10  and  C_13
                            x       y       z     vdW  Elec       q    Type
                         _______ _______ _______ _____ _____    ______ ____

>  <TORSDO>
F 2

$$$$
=
 OpenBabel10272401493D

 28 31  0  0  0  0  0  0  0  0999 V2000
  189.4090  177.4830  143.7450 C   0  0  0  0  0  0  0  0  0  0  0  0
  191.9270  177.2490  140.2590 C   0  0  0  0  0  1  0  0  0  0  0  0
  186.9500  178.5050  141.2180 C   0  0  0  0  0  0  0  0  0  0  0  0
  189.6790  177.7070  141.3250 C   0  0  0  0  0  0  0  0  0  0  0  0
  187.4750  178.1260  142.3450 N   0  0  0  0  0  0  0  0  0  0  0  0
  191.5660  177.0630  142.7050 C   0  0  0  0  0  3  0  0  0  0  0  0
  189.0700  177.9140  139.9640 C   0  0  0  0  0  2  0  0  0  0  0  0
  191.0330  177.3490  141.4480 C   0  0  0  0  0  0  0  0  0  0  0  0
  187.7680  178.5690  140.0430 N   0  0  0  0  0  2  0  0  0  0  0  0
  190.7620  177.1290  143.8420 C   0  0  0  0  0  3  0  0  0  0  0  0
  188.8620  177.7740  142.4740 C   0  0  0  0  0  0  0  0  0  0  0  0
  184.9500  178.9540  139.9360 C   0  0  0  0  0  3  0  0  0  0  0  0
  183.4910  178.8600  142.6230 C   0  0  0  0  0  3  0  0  0  0  0  0
  182.5940  178.4010  140.3460 C   0  0  0  0  0  0  0  0  0  0  0  0
  185.5190  178.8840  141.1470 C   0  0  0  0  0  0  0  0  0  0  0  0
  185.4430  179.7660  143.4270 F   0  0  0  0  0  0  0  0  0  0  0  0
  182.5560  178.2360  141.6670 C   0  0  0  0  0  3  0  0  0  0  0  0
  184.7690  179.1970  142.3970 C   0  0  0  0  0  0  0  0  0  0  0  0
  181.5960  177.6960  139.5000 C   0  0  0  0  0  1  0  0  0  0  0  0
  183.5360  179.3630  139.7020 C   0  0  0  0  0  2  0  0  0  0  0  0
  188.6020  177.5620  144.9850 C   0  0  0  0  0  0  0  0  0  0  0  0
  187.2020  177.5320  144.9080 C   0  0  0  0  0  3  0  0  0  0  0  0
  188.4270  177.8030  147.4020 C   0  0  0  0  0  0  0  0  0  0  0  0
  186.4220  177.6300  146.0620 C   0  0  0  0  0  3  0  0  0  0  0  0
  190.5670  177.7270  146.3630 F   0  0  0  0  0  0  0  0  0  0  0  0
  189.2140  177.7060  146.2470 C   0  0  0  0  0  0  0  0  0  0  0  0
  189.0140  177.9320  148.6170 F   0  0  0  0  0  0  0  0  0  0  0  0
  187.0340  177.7640  147.3080 C   0  0  0  0  0  3  0  0  0  0  0  0
  1 10  1  0  0  0  0
  1 21  1  0  0  0  0
  2  8  1  0  0  0  0
  3  5  2  0  0  0  0
  4  8  2  0  0  0  0
  4 11  1  0  0  0  0
  5 11  1  0  0  0  0
  6 10  2  0  0  0  0
  7  9  1  0  0  0  0
  7  4  1  0  0  0  0
  8  6  1  0  0  0  0
  9  3  1  0  0  0  0
 11  1  2  0  0  0  0
 12 15  2  0  0  0  0
 14 17  2  0  0  0  0
 15  3  1  0  0  0  0
 15 18  1  0  0  0  0
 17 13  1  0  0  0  0
 18 13  2  0  0  0  0
 18 16  1  0  0  0  0
 19 14  1  0  0  0  0
 20 12  1  0  0  0  0
 20 14  1  0  0  0  0
 21 26  1  0  0  0  0
 22 21  2  0  0  0  0
 22 24  1  0  0  0  0
 23 27  1  0  0  0  0
 24 28  2  0  0  0  0
 26 25  1  0  0  0  0
 26 23  2  0  0  0  0
 28 23  1  0  0  0  0
M  END
>  <MODEL>
7

>  <REMARK>
 VINA RESULT:     -10.6      2.343      5.280
  Name = 
  2 active torsions:
  status: ('A' for Active; 'I' for Inactive)
    1  A    between atoms: C_1  and  C_2
    2  A    between atoms: C_10  and  C_13
                            x       y       z     vdW  Elec       q    Type
                         _______ _______ _______ _____ _____    ______ ____

>  <TORSDO>
F 2

$$$$
=
 OpenBabel10272401493D

 28 31  0  0  0  0  0  0  0  0999 V2000
  185.6490  178.3090  144.9590 C   0  0  0  0  0  0  0  0  0  0  0  0
  188.6270  177.9640  148.0520 C   0  0  0  0  0  1  0  0  0  0  0  0
  188.5520  177.5350  142.8480 C   0  0  0  0  0  0  0  0  0  0  0  0
  187.9640  177.8670  145.6120 C   0  0  0  0  0  0  0  0  0  0  0  0
  187.3270  177.7380  143.2350 N   0  0  0  0  0  0  0  0  0  0  0  0
  186.3080  178.4140  147.2960 C   0  0  0  0  0  3  0  0  0  0  0  0
  189.3520  177.4110  145.2480 C   0  0  0  0  0  2  0  0  0  0  0  0
  187.6200  178.0870  146.9580 C   0  0  0  0  0  0  0  0  0  0  0  0
  189.6080  177.5340  143.8170 N   0  0  0  0  0  2  0  0  0  0  0  0
  185.3320  178.5230  146.3070 C   0  0  0  0  0  3  0  0  0  0  0  0
  186.9780  177.9770  144.6080 C   0  0  0  0  0  0  0  0  0  0  0  0
  187.9330  177.6800  140.5160 C   0  0  0  0  0  3  0  0  0  0  0  0
  190.8740  177.0650  139.9410 C   0  0  0  0  0  3  0  0  0  0  0  0
  189.2300  178.2820  138.5200 C   0  0  0  0  0  0  0  0  0  0  0  0
  188.8600  177.3220  141.4140 C   0  0  0  0  0  0  0  0  0  0  0  0
  190.7160  175.7880  141.8440 F   0  0  0  0  0  0  0  0  0  0  0  0
  190.4840  178.0330  138.8980 C   0  0  0  0  0  3  0  0  0  0  0  0
  190.1570  176.7040  141.0160 C   0  0  0  0  0  0  0  0  0  0  0  0
  188.9820  179.2980  137.4650 C   0  0  0  0  0  1  0  0  0  0  0  0
  188.0800  177.4880  139.0450 C   0  0  0  0  0  2  0  0  0  0  0  0
  184.5820  178.4610  143.9420 C   0  0  0  0  0  0  0  0  0  0  0  0
  184.8620  178.1940  142.5940 C   0  0  0  0  0  3  0  0  0  0  0  0
  182.3080  179.0650  143.3130 C   0  0  0  0  0  0  0  0  0  0  0  0
  183.8780  178.3540  141.6170 C   0  0  0  0  0  3  0  0  0  0  0  0
  182.9800  179.1620  145.5940 F   0  0  0  0  0  0  0  0  0  0  0  0
  183.2930  178.9070  144.2980 C   0  0  0  0  0  0  0  0  0  0  0  0
  181.0650  179.4840  143.6540 F   0  0  0  0  0  0  0  0  0  0  0  0
  182.6020  178.7880  141.9760 C   0  0  0  0  0  3  0  0  0  0  0  0
  1 10  1  0  0  0  0
  3  5  2  0  0  0  0
  3  9  1  0  0  0  0
  4  8  2  0  0  0  0
  5 11  1  0  0  0  0
  7  4  1  0  0  0  0
  8  6  1  0  0  0  0
  8  2  1  0  0  0  0
  9  7  1  0  0  0  0
 10  6  2  0  0  0  0
 11  1  2  0  0  0  0
 11  4  1  0  0  0  0
 12 15  2  0  0  0  0
 13 18  2  0  0  0  0
 14 17  2  0  0  0  0
 14 20  1  0  0  0  0
 15  3  1  0  0  0  0
 17 13  1  0  0  0  0
 18 15  1  0  0  0  0
 18 16  1  0  0  0  0
 19 14  1  0  0  0  0
 20 12  1  0  0  0  0
 21 26  1  0  0  0  0
 21  1  1  0  0  0  0
 22 21  2  0  0  0  0
 23 27  1  0  0  0  0
 23 26  2  0  0  0  0
 24 28  2  0  0  0  0
 24 22  1  0  0  0  0
 26 25  1  0  0  0  0
 28 23  1  0  0  0  0
M  END
>  <MODEL>
8

>  <REMARK>
 VINA RESULT:     -10.5      1.649      2.504
  Name = 
  2 active torsions:
  status: ('A' for Active; 'I' for Inactive)
    1  A    between atoms: C_1  and  C_2
    2  A    between atoms: C_10  and  C_13
                            x       y       z     vdW  Elec       q    Type
                         _______ _______ _______ _____ _____    ______ ____

>  <TORSDO>
F 2

$$$$
=
 OpenBabel10272401493D

 28 31  0  0  0  0  0  0  0  0999 V2000
  186.0110  178.2010  144.6430 C   0  0  0  0  0  0  0  0  0  0  0  0
  181.9110  179.1860  143.7640 C   0  0  0  0  0  1  0  0  0  0  0  0
  186.2650  178.4140  140.9860 C   0  0  0  0  0  0  0  0  0  0  0  0
  184.2800  178.7350  142.9990 C   0  0  0  0  0  0  0  0  0  0  0  0
  186.5900  178.3290  142.2420 N   0  0  0  0  0  0  0  0  0  0  0  0
  183.7260  178.6210  145.3570 C   0  0  0  0  0  3  0  0  0  0  0  0
  183.8920  179.0680  141.5830 C   0  0  0  0  0  2  0  0  0  0  0  0
  183.3350  178.8360  144.0360 C   0  0  0  0  0  0  0  0  0  0  0  0
  184.8930  178.6160  140.6230 N   0  0  0  0  0  2  0  0  0  0  0  0
  185.0510  178.3070  145.6570 C   0  0  0  0  0  3  0  0  0  0  0  0
  185.6230  178.4180  143.3010 C   0  0  0  0  0  0  0  0  0  0  0  0
  188.5830  178.3860  140.3030 C   0  0  0  0  0  3  0  0  0  0  0  0
  187.5420  177.2880  137.6440 C   0  0  0  0  0  3  0  0  0  0  0  0
  189.7870  176.9930  138.6790 C   0  0  0  0  0  0  0  0  0  0  0  0
  187.3000  178.2860  139.9330 C   0  0  0  0  0  0  0  0  0  0  0  0
  185.7350  178.6370  138.0860 F   0  0  0  0  0  0  0  0  0  0  0  0
  188.8140  176.5760  137.8710 C   0  0  0  0  0  3  0  0  0  0  0  0
  186.8950  178.0790  138.5120 C   0  0  0  0  0  0  0  0  0  0  0  0
  191.0110  176.1630  138.8240 C   0  0  0  0  0  1  0  0  0  0  0  0
  189.7320  178.3230  139.3540 C   0  0  0  0  0  2  0  0  0  0  0  0
  187.4010  177.8420  145.0100 C   0  0  0  0  0  0  0  0  0  0  0  0
  188.2580  177.2970  144.0430 C   0  0  0  0  0  3  0  0  0  0  0  0
  189.1830  177.6330  146.6560 C   0  0  0  0  0  0  0  0  0  0  0  0
  189.5640  176.9290  144.3740 C   0  0  0  0  0  3  0  0  0  0  0  0
  187.0760  178.5390  147.2890 F   0  0  0  0  0  0  0  0  0  0  0  0
  187.8720  178.0030  146.3290 C   0  0  0  0  0  0  0  0  0  0  0  0
  189.6420  177.7960  147.9210 F   0  0  0  0  0  0  0  0  0  0  0  0
  190.0260  177.0980  145.6800 C   0  0  0  0  0  3  0  0  0  0  0  0
  1 21  1  0  0  0  0
  1 10  1  0  0  0  0
  2  8  1  0  0  0  0
  3  5  2  0  0  0  0
  4 11  1  0  0  0  0
  4  8  2  0  0  0  0
  5 11  1  0  0  0  0
  6 10  2  0  0  0  0
  7  4  1  0  0  0  0
  8  6  1  0  0  0  0
  9  3  1  0  0  0  0
  9  7  1  0  0  0  0
 11  1  2  0  0  0  0
 13 17  1  0  0  0  0
 13 18  2  0  0  0  0
 14 19  1  0  0  0  0
 14 20  1  0  0  0  0
 15 12  2  0  0  0  0
 15  3  1  0  0  0  0
 16 18  1  0  0  0  0
 17 14  2  0  0  0  0
 18 15  1  0  0  0  0
 20 12  1  0  0  0  0
 21 26  1  0  0  0  0
 22 24  1  0  0  0  0
 22 21  2  0  0  0  0
 23 27  1  0  0  0  0
 24 28  2  0  0  0  0
 26 23  2  0  0  0  0
 26 25  1  0  0  0  0
 28 23  1  0  0  0  0
M  END
>  <MODEL>
9

>  <REMARK>
 VINA RESULT:     -10.2      1.898      4.723
  Name = 
  2 active torsions:
  status: ('A' for Active; 'I' for Inactive)
    1  A    between atoms: C_1  and  C_2
    2  A    between atoms: C_10  and  C_13
                            x       y       z     vdW  Elec       q    Type
                         _______ _______ _______ _____ _____    ______ ____

>  <TORSDO>
F 2

$$$$
