=
 OpenBabel10272413443D

 30 32  0  0  1  0  0  0  0  0999 V2000
  184.8640  178.2390  143.0250 C   0  0  0  0  0  0  0  0  0  0  0  0
  183.7620  178.7370  143.7220 C   0  0  0  0  0  3  0  0  0  0  0  0
  184.7550  178.0240  141.6890 F   0  0  0  0  0  0  0  0  0  0  0  0
  186.1580  178.1900  145.0980 C   0  0  0  0  0  0  0  0  0  0  0  0
  183.8440  178.9530  145.0960 C   0  0  0  0  0  3  0  0  0  0  0  0
  186.0640  177.9530  143.7000 C   0  0  0  0  0  0  0  0  0  0  0  0
  185.0310  178.6800  145.7750 C   0  0  0  0  0  3  0  0  0  0  0  0
  188.3630  176.8360  147.9050 C   0  0  0  0  0  3  0  0  0  0  0  0
  189.5680  176.8180  147.3150 C   0  0  0  0  0  3  0  0  0  0  0  0
  187.2860  177.7630  147.3960 C   0  0  1  0  0  3  0  0  0  0  0  0
  188.6020  177.9210  145.3200 C   0  0  0  0  0  3  0  0  0  0  0  0
  187.4080  178.9960  148.0120 F   0  0  0  0  0  0  0  0  0  0  0  0
  189.8440  177.7350  146.1490 C   0  0  2  0  0  3  0  0  0  0  0  0
  187.3870  177.9340  145.8940 C   0  0  0  0  0  0  0  0  0  0  0  0
  190.9750  177.1990  145.2840 C   0  0  0  0  0  2  0  0  0  0  0  0
  191.7870  179.0980  144.0800 O   0  0  0  0  0  1  0  0  0  0  0  0
  191.0420  177.9260  143.9500 C   0  0  1  0  0  3  0  0  0  0  0  0
  191.6980  177.0310  142.9220 C   0  0  0  0  0  1  0  0  0  0  0  0
  187.1980  177.3690  142.9160 C   0  0  0  0  0  2  0  0  0  0  0  0
  187.7460  178.3710  142.0180 N   0  0  0  0  0  2  0  0  0  0  0  0
  188.5520  177.6580  141.0450 C   0  0  0  0  0  2  0  0  0  0  0  0
  188.4510  178.3360  139.6850 C   0  0  2  0  0  3  0  0  0  0  0  0
  187.0140  178.2350  139.1960 C   0  0  0  0  0  1  0  0  0  0  0  0
  191.3240  175.9770  138.5230 C   0  0  0  0  0  2  0  0  0  0  0  0
  189.4100  177.6830  138.6850 C   0  0  2  0  0  3  0  0  0  0  0  0
  189.9270  176.2620  136.4300 C   0  0  2  0  0  3  0  0  0  0  0  0
  188.5230  176.5180  137.5880 S   0  0  0  0  0  0  0  0  0  0  0  0
  190.5480  176.9520  139.4130 C   0  0  0  0  0  2  0  0  0  0  0  0
  189.8030  174.8930  135.7910 C   0  0  0  0  0  1  0  0  0  0  0  0
  191.3150  176.4170  137.0640 C   0  0  0  0  0  2  0  0  0  0  0  0
  1  6  2  0  0  0  0
  1  2  1  0  0  0  0
  2  5  2  0  0  0  0
  3  1  1  0  0  0  0
  4  7  2  0  0  0  0
  4 14  1  0  0  0  0
  5  7  1  0  0  0  0
  6  4  1  0  0  0  0
  9  8  2  0  0  0  0
 10  8  1  0  0  0  0
 10 12  1  1  0  0  0
 11 14  2  0  0  0  0
 11 13  1  0  0  0  0
 13 15  1  6  0  0  0
 13  9  1  0  0  0  0
 14 10  1  0  0  0  0
 17 18  1  6  0  0  0
 17 16  1  0  0  0  0
 17 15  1  0  0  0  0
 19  6  1  0  0  0  0
 20 19  1  0  0  0  0
 21 20  1  0  0  0  0
 22 23  1  6  0  0  0
 22 21  1  0  0  0  0
 24 28  1  0  0  0  0
 25 28  1  0  0  0  0
 25 22  1  1  0  0  0
 26 29  1  1  0  0  0
 26 30  1  0  0  0  0
 26 27  1  0  0  0  0
 27 25  1  0  0  0  0
 30 24  1  0  0  0  0
M  END
>  <MODEL>
1

>  <REMARK>
 VINA RESULT:      -9.3      0.000      0.000
  Name = 
  8 active torsions:
  status: ('A' for Active; 'I' for Inactive)
    1  A    between atoms: N_1  and  C_4
    2  A    between atoms: N_1  and  C_5
    3  A    between atoms: C_4  and  C_27
    4  A    between atoms: C_5  and  C_22
    5  A    between atoms: C_8  and  C_27
    6  A    between atoms: C_15  and  C_16
    7  A    between atoms: C_16  and  C_25
    8  A    between atoms: C_19  and  C_29
                            x       y       z     vdW  Elec       q    Type
                         _______ _______ _______ _____ _____    ______ ____

>  <TORSDO>
F 8

$$$$
=
 OpenBabel10272413443D

 30 32  0  0  1  0  0  0  0  0999 V2000
  189.9870  176.9730  146.4050 C   0  0  0  0  0  0  0  0  0  0  0  0
  189.9540  177.2750  147.7670 C   0  0  0  0  0  3  0  0  0  0  0  0
  191.1100  176.4190  145.8810 F   0  0  0  0  0  0  0  0  0  0  0  0
  187.7110  177.8280  146.1570 C   0  0  0  0  0  0  0  0  0  0  0  0
  188.8190  177.8570  148.3270 C   0  0  0  0  0  3  0  0  0  0  0  0
  188.8780  177.2520  145.5870 C   0  0  0  0  0  0  0  0  0  0  0  0
  187.7100  178.1310  147.5270 C   0  0  0  0  0  3  0  0  0  0  0  0
  184.5310  179.6650  145.1120 C   0  0  0  0  0  3  0  0  0  0  0  0
  184.4390  179.3280  143.8170 C   0  0  0  0  0  3  0  0  0  0  0  0
  185.3000  178.7860  146.0690 C   0  0  1  0  0  3  0  0  0  0  0  0
  186.3740  177.8060  144.0810 C   0  0  0  0  0  3  0  0  0  0  0  0
  184.4640  177.8020  146.5670 F   0  0  0  0  0  0  0  0  0  0  0  0
  185.1000  178.0640  143.3240 C   0  0  2  0  0  3  0  0  0  0  0  0
  186.4850  178.1430  145.3770 C   0  0  0  0  0  0  0  0  0  0  0  0
  185.3850  178.1390  141.8310 C   0  0  0  0  0  2  0  0  0  0  0  0
  184.8130  179.6150  140.0390 O   0  0  0  0  0  1  0  0  0  0  0  0
  184.2780  178.8750  141.0940 C   0  0  1  0  0  3  0  0  0  0  0  0
  183.2870  177.8720  140.5440 C   0  0  0  0  0  1  0  0  0  0  0  0
  188.9850  176.9600  144.1230 C   0  0  0  0  0  2  0  0  0  0  0  0
  189.8110  177.9660  143.4770 N   0  0  0  0  0  2  0  0  0  0  0  0
  189.3910  178.0170  142.0880 C   0  0  0  0  0  2  0  0  0  0  0  0
  190.3300  177.1830  141.2270 C   0  0  2  0  0  3  0  0  0  0  0  0
  191.7640  177.4970  141.6260 C   0  0  0  0  0  1  0  0  0  0  0  0
  189.8400  176.3350  137.4570 C   0  0  0  0  0  2  0  0  0  0  0  0
  190.1050  177.4810  139.7410 C   0  0  2  0  0  3  0  0  0  0  0  0
  188.6910  178.5790  137.7000 C   0  0  2  0  0  3  0  0  0  0  0  0
  188.3980  178.0670  139.4400 S   0  0  0  0  0  0  0  0  0  0  0  0
  190.3900  176.2400  138.8840 C   0  0  0  0  0  2  0  0  0  0  0  0
  187.3880  178.4950  136.9290 C   0  0  0  0  0  1  0  0  0  0  0  0
  189.7790  177.7790  136.9730 C   0  0  0  0  0  2  0  0  0  0  0  0
  1  2  1  0  0  0  0
  2  5  2  0  0  0  0
  3  1  1  0  0  0  0
  4  7  2  0  0  0  0
  6  4  1  0  0  0  0
  6  1  2  0  0  0  0
  7  5  1  0  0  0  0
  8 10  1  0  0  0  0
  9  8  2  0  0  0  0
 10 12  1  6  0  0  0
 11 14  2  0  0  0  0
 13 15  1  6  0  0  0
 13  9  1  0  0  0  0
 13 11  1  0  0  0  0
 14 10  1  0  0  0  0
 14  4  1  0  0  0  0
 16 17  1  0  0  0  0
 17 18  1  6  0  0  0
 17 15  1  0  0  0  0
 19  6  1  0  0  0  0
 20 19  1  0  0  0  0
 21 20  1  0  0  0  0
 22 23  1  1  0  0  0
 22 21  1  0  0  0  0
 24 28  1  0  0  0  0
 25 22  1  1  0  0  0
 26 29  1  6  0  0  0
 26 27  1  0  0  0  0
 27 25  1  0  0  0  0
 28 25  1  0  0  0  0
 30 24  1  0  0  0  0
 30 26  1  0  0  0  0
M  END
>  <MODEL>
2

>  <REMARK>
 VINA RESULT:      -9.2      2.298      4.786
  Name = 
  8 active torsions:
  status: ('A' for Active; 'I' for Inactive)
    1  A    between atoms: N_1  and  C_4
    2  A    between atoms: N_1  and  C_5
    3  A    between atoms: C_4  and  C_27
    4  A    between atoms: C_5  and  C_22
    5  A    between atoms: C_8  and  C_27
    6  A    between atoms: C_15  and  C_16
    7  A    between atoms: C_16  and  C_25
    8  A    between atoms: C_19  and  C_29
                            x       y       z     vdW  Elec       q    Type
                         _______ _______ _______ _____ _____    ______ ____

>  <TORSDO>
F 8

$$$$
=
 OpenBabel10272413443D

 30 32  0  0  1  0  0  0  0  0999 V2000
  184.8590  178.2690  142.9480 C   0  0  0  0  0  0  0  0  0  0  0  0
  183.6900  178.7140  143.5690 C   0  0  0  0  0  3  0  0  0  0  0  0
  184.8540  178.0640  141.6060 F   0  0  0  0  0  0  0  0  0  0  0  0
  186.0030  178.2520  145.1070 C   0  0  0  0  0  0  0  0  0  0  0  0
  183.6650  178.9180  144.9460 C   0  0  0  0  0  3  0  0  0  0  0  0
  186.0190  178.0260  143.7050 C   0  0  0  0  0  0  0  0  0  0  0  0
  184.8110  178.6880  145.7070 C   0  0  0  0  0  3  0  0  0  0  0  0
  188.0040  177.2080  148.1870 C   0  0  0  0  0  3  0  0  0  0  0  0
  189.2220  177.0100  147.6610 C   0  0  0  0  0  3  0  0  0  0  0  0
  187.0200  178.1180  147.4920 C   0  0  1  0  0  3  0  0  0  0  0  0
  188.4100  177.8460  145.4780 C   0  0  0  0  0  3  0  0  0  0  0  0
  187.2180  179.4210  147.9120 F   0  0  0  0  0  0  0  0  0  0  0  0
  189.6070  177.7070  146.3790 C   0  0  2  0  0  3  0  0  0  0  0  0
  187.1820  178.0390  145.9880 C   0  0  0  0  0  0  0  0  0  0  0  0
  190.7190  176.9590  145.6590 C   0  0  0  0  0  2  0  0  0  0  0  0
  191.7740  178.6330  144.3180 O   0  0  0  0  0  1  0  0  0  0  0  0
  190.9430  177.5140  144.2620 C   0  0  1  0  0  3  0  0  0  0  0  0
  191.5930  176.4550  143.3990 C   0  0  0  0  0  1  0  0  0  0  0  0
  187.2280  177.4980  142.9990 C   0  0  0  0  0  2  0  0  0  0  0  0
  187.4430  178.2350  141.7660 N   0  0  0  0  0  2  0  0  0  0  0  0
  188.8550  178.1140  141.4510 C   0  0  0  0  0  2  0  0  0  0  0  0
  189.0530  177.1210  140.3130 C   0  0  2  0  0  3  0  0  0  0  0  0
  190.5450  176.9080  140.1080 C   0  0  0  0  0  1  0  0  0  0  0  0
  188.8460  179.1080  136.9700 C   0  0  0  0  0  2  0  0  0  0  0  0
  188.3990  177.6370  139.0280 C   0  0  2  0  0  3  0  0  0  0  0  0
  187.1500  177.2540  136.6480 C   0  0  2  0  0  3  0  0  0  0  0  0
  188.2110  176.2940  137.8010 S   0  0  0  0  0  0  0  0  0  0  0  0
  189.2140  178.7890  138.4220 C   0  0  0  0  0  2  0  0  0  0  0  0
  187.3360  176.7240  135.2400 C   0  0  0  0  0  1  0  0  0  0  0  0
  187.3910  178.7690  136.6700 C   0  0  0  0  0  2  0  0  0  0  0  0
  1  2  2  0  0  0  0
  1  6  1  0  0  0  0
  2  5  1  0  0  0  0
  3  1  1  0  0  0  0
  4  7  1  0  0  0  0
  4 14  1  0  0  0  0
  5  7  2  0  0  0  0
  6  4  2  0  0  0  0
  9  8  2  0  0  0  0
 10 12  1  1  0  0  0
 10  8  1  0  0  0  0
 11 14  2  0  0  0  0
 11 13  1  0  0  0  0
 13 15  1  6  0  0  0
 13  9  1  0  0  0  0
 14 10  1  0  0  0  0
 17 18  1  6  0  0  0
 17 16  1  0  0  0  0
 17 15  1  0  0  0  0
 19  6  1  0  0  0  0
 20 19  1  0  0  0  0
 21 20  1  0  0  0  0
 22 23  1  6  0  0  0
 22 21  1  0  0  0  0
 24 28  1  0  0  0  0
 25 22  1  1  0  0  0
 26 29  1  6  0  0  0
 26 30  1  0  0  0  0
 26 27  1  0  0  0  0
 27 25  1  0  0  0  0
 28 25  1  0  0  0  0
 30 24  1  0  0  0  0
M  END
>  <MODEL>
3

>  <REMARK>
 VINA RESULT:      -9.2      1.166      1.695
  Name = 
  8 active torsions:
  status: ('A' for Active; 'I' for Inactive)
    1  A    between atoms: N_1  and  C_4
    2  A    between atoms: N_1  and  C_5
    3  A    between atoms: C_4  and  C_27
    4  A    between atoms: C_5  and  C_22
    5  A    between atoms: C_8  and  C_27
    6  A    between atoms: C_15  and  C_16
    7  A    between atoms: C_16  and  C_25
    8  A    between atoms: C_19  and  C_29
                            x       y       z     vdW  Elec       q    Type
                         _______ _______ _______ _____ _____    ______ ____

>  <TORSDO>
F 8

$$$$
=
 OpenBabel10272413443D

 30 32  0  0  1  0  0  0  0  0999 V2000
  189.8190  177.0460  146.5430 C   0  0  0  0  0  0  0  0  0  0  0  0
  189.6950  177.2820  147.9140 C   0  0  0  0  0  3  0  0  0  0  0  0
  190.9810  176.5340  146.0660 F   0  0  0  0  0  0  0  0  0  0  0  0
  187.5480  177.8800  146.1910 C   0  0  0  0  0  0  0  0  0  0  0  0
  188.5170  177.8200  148.4270 C   0  0  0  0  0  3  0  0  0  0  0  0
  188.7580  177.3490  145.6700 C   0  0  0  0  0  0  0  0  0  0  0  0
  187.4560  178.1160  147.5720 C   0  0  0  0  0  3  0  0  0  0  0  0
  184.5040  179.8140  144.9390 C   0  0  0  0  0  3  0  0  0  0  0  0
  184.4420  179.4180  143.6590 C   0  0  0  0  0  3  0  0  0  0  0  0
  185.1930  178.9480  145.9650 C   0  0  1  0  0  3  0  0  0  0  0  0
  186.2870  177.8200  144.0690 C   0  0  0  0  0  3  0  0  0  0  0  0
  184.2920  178.0310  146.4780 F   0  0  0  0  0  0  0  0  0  0  0  0
  185.0560  178.1010  143.2520 C   0  0  2  0  0  3  0  0  0  0  0  0
  186.3690  178.2150  145.3510 C   0  0  0  0  0  0  0  0  0  0  0  0
  185.3980  178.0880  141.7700 C   0  0  0  0  0  2  0  0  0  0  0  0
  184.9720  179.6130  139.9780 O   0  0  0  0  0  1  0  0  0  0  0  0
  184.3520  178.8330  140.9550 C   0  0  1  0  0  3  0  0  0  0  0  0
  183.4330  177.8350  140.2860 C   0  0  0  0  0  1  0  0  0  0  0  0
  188.9620  177.1290  144.2040 C   0  0  0  0  0  2  0  0  0  0  0  0
  189.8100  178.1760  143.6600 N   0  0  0  0  0  2  0  0  0  0  0  0
  189.5000  178.2660  142.2450 C   0  0  0  0  0  2  0  0  0  0  0  0
  190.1590  177.1180  141.4910 C   0  0  2  0  0  3  0  0  0  0  0  0
  191.6360  177.4390  141.3110 C   0  0  0  0  0  1  0  0  0  0  0  0
  188.0840  178.1170  138.3500 C   0  0  0  0  0  2  0  0  0  0  0  0
  189.4810  176.9070  140.1330 C   0  0  2  0  0  3  0  0  0  0  0  0
  189.5270  176.2130  137.5090 C   0  0  2  0  0  3  0  0  0  0  0  0
  190.7210  176.7540  138.7970 S   0  0  0  0  0  0  0  0  0  0  0  0
  188.5130  178.0550  139.8190 C   0  0  0  0  0  2  0  0  0  0  0  0
  190.0470  176.6210  136.1440 C   0  0  0  0  0  1  0  0  0  0  0  0
  188.0990  176.7380  137.7010 C   0  0  0  0  0  2  0  0  0  0  0  0
  1  2  1  0  0  0  0
  2  5  2  0  0  0  0
  3  1  1  0  0  0  0
  4  7  2  0  0  0  0
  6  4  1  0  0  0  0
  6  1  2  0  0  0  0
  7  5  1  0  0  0  0
  8 10  1  0  0  0  0
  9  8  2  0  0  0  0
 10 12  1  6  0  0  0
 11 14  2  0  0  0  0
 13 15  1  6  0  0  0
 13  9  1  0  0  0  0
 13 11  1  0  0  0  0
 14 10  1  0  0  0  0
 14  4  1  0  0  0  0
 16 17  1  0  0  0  0
 17 18  1  6  0  0  0
 17 15  1  0  0  0  0
 19  6  1  0  0  0  0
 20 19  1  0  0  0  0
 21 20  1  0  0  0  0
 22 23  1  6  0  0  0
 22 21  1  0  0  0  0
 24 28  1  0  0  0  0
 25 22  1  1  0  0  0
 26 29  1  6  0  0  0
 26 30  1  0  0  0  0
 26 27  1  0  0  0  0
 27 25  1  0  0  0  0
 28 25  1  0  0  0  0
 30 24  1  0  0  0  0
M  END
>  <MODEL>
4

>  <REMARK>
 VINA RESULT:      -9.1      2.268      4.772
  Name = 
  8 active torsions:
  status: ('A' for Active; 'I' for Inactive)
    1  A    between atoms: N_1  and  C_4
    2  A    between atoms: N_1  and  C_5
    3  A    between atoms: C_4  and  C_27
    4  A    between atoms: C_5  and  C_22
    5  A    between atoms: C_8  and  C_27
    6  A    between atoms: C_15  and  C_16
    7  A    between atoms: C_16  and  C_25
    8  A    between atoms: C_19  and  C_29
                            x       y       z     vdW  Elec       q    Type
                         _______ _______ _______ _____ _____    ______ ____

>  <TORSDO>
F 8

$$$$
=
 OpenBabel10272413443D

 30 32  0  0  1  0  0  0  0  0999 V2000
  191.3870  176.8220  144.9010 C   0  0  0  0  0  0  0  0  0  0  0  0
  192.0340  176.2450  145.9950 C   0  0  0  0  0  3  0  0  0  0  0  0
  192.0470  176.9100  143.7180 F   0  0  0  0  0  0  0  0  0  0  0  0
  189.4030  177.2100  146.2740 C   0  0  0  0  0  0  0  0  0  0  0  0
  191.3840  176.1560  147.2240 C   0  0  0  0  0  3  0  0  0  0  0  0
  190.0770  177.3160  145.0280 C   0  0  0  0  0  0  0  0  0  0  0  0
  190.0810  176.6350  147.3600 C   0  0  0  0  0  3  0  0  0  0  0  0
  186.5580  179.3870  147.5960 C   0  0  0  0  0  3  0  0  0  0  0  0
  185.6010  179.1610  146.6850 C   0  0  0  0  0  3  0  0  0  0  0  0
  187.6590  178.3740  147.8040 C   0  0  1  0  0  3  0  0  0  0  0  0
  187.0410  177.4640  145.6010 C   0  0  0  0  0  3  0  0  0  0  0  0
  187.2500  177.4290  148.7280 F   0  0  0  0  0  0  0  0  0  0  0  0
  185.6240  177.8870  145.8760 C   0  0  2  0  0  3  0  0  0  0  0  0
  188.0140  177.6880  146.5000 C   0  0  0  0  0  0  0  0  0  0  0  0
  184.8650  178.0530  144.5670 C   0  0  0  0  0  2  0  0  0  0  0  0
  184.3740  180.2630  143.7970 O   0  0  0  0  0  1  0  0  0  0  0  0
  183.9150  179.2390  144.6260 C   0  0  1  0  0  3  0  0  0  0  0  0
  182.5410  178.8050  144.1660 C   0  0  0  0  0  1  0  0  0  0  0  0
  189.4500  177.9750  143.8390 C   0  0  0  0  0  2  0  0  0  0  0  0
  189.1760  176.9860  142.8120 N   0  0  0  0  0  2  0  0  0  0  0  0
  189.1720  177.6940  141.5450 C   0  0  0  0  0  2  0  0  0  0  0  0
  189.9880  176.9260  140.5140 C   0  0  2  0  0  3  0  0  0  0  0  0
  191.4270  177.4170  140.5680 C   0  0  0  0  0  1  0  0  0  0  0  0
  188.9590  178.9120  137.3250 C   0  0  0  0  0  2  0  0  0  0  0  0
  189.4030  177.1200  139.1110 C   0  0  2  0  0  3  0  0  0  0  0  0
  189.2880  176.5550  136.4580 C   0  0  2  0  0  3  0  0  0  0  0  0
  190.4890  176.3800  137.8380 S   0  0  0  0  0  0  0  0  0  0  0  0
  189.1830  178.6090  138.8100 C   0  0  0  0  0  2  0  0  0  0  0  0
  190.0450  176.6660  135.1500 C   0  0  0  0  0  1  0  0  0  0  0  0
  188.3180  177.7340  136.6010 C   0  0  0  0  0  2  0  0  0  0  0  0
  1  6  2  0  0  0  0
  1  2  1  0  0  0  0
  2  5  2  0  0  0  0
  3  1  1  0  0  0  0
  4 14  1  0  0  0  0
  4  7  2  0  0  0  0
  5  7  1  0  0  0  0
  6  4  1  0  0  0  0
  8 10  1  0  0  0  0
  9  8  2  0  0  0  0
 10 12  1  1  0  0  0
 11 13  1  0  0  0  0
 11 14  2  0  0  0  0
 13 15  1  6  0  0  0
 13  9  1  0  0  0  0
 14 10  1  0  0  0  0
 15 17  1  0  0  0  0
 16 17  1  0  0  0  0
 17 18  1  6  0  0  0
 19  6  1  0  0  0  0
 20 19  1  0  0  0  0
 21 20  1  0  0  0  0
 22 23  1  6  0  0  0
 22 21  1  0  0  0  0
 24 28  1  0  0  0  0
 25 22  1  1  0  0  0
 26 29  1  6  0  0  0
 26 30  1  0  0  0  0
 26 27  1  0  0  0  0
 27 25  1  0  0  0  0
 28 25  1  0  0  0  0
 30 24  1  0  0  0  0
M  END
>  <MODEL>
5

>  <REMARK>
 VINA RESULT:      -8.9      2.408      4.798
  Name = 
  8 active torsions:
  status: ('A' for Active; 'I' for Inactive)
    1  A    between atoms: N_1  and  C_4
    2  A    between atoms: N_1  and  C_5
    3  A    between atoms: C_4  and  C_27
    4  A    between atoms: C_5  and  C_22
    5  A    between atoms: C_8  and  C_27
    6  A    between atoms: C_15  and  C_16
    7  A    between atoms: C_16  and  C_25
    8  A    between atoms: C_19  and  C_29
                            x       y       z     vdW  Elec       q    Type
                         _______ _______ _______ _____ _____    ______ ____

>  <TORSDO>
F 8

$$$$
=
 OpenBabel10272413443D

 30 32  0  0  1  0  0  0  0  0999 V2000
  186.6980  178.0820  147.2260 C   0  0  0  0  0  0  0  0  0  0  0  0
  187.4230  178.2170  148.4110 C   0  0  0  0  0  3  0  0  0  0  0  0
  185.3500  178.2300  147.2590 F   0  0  0  0  0  0  0  0  0  0  0  0
  188.7690  177.6380  146.0060 C   0  0  0  0  0  0  0  0  0  0  0  0
  188.8070  178.0560  148.4070 C   0  0  0  0  0  3  0  0  0  0  0  0
  187.3560  177.7850  146.0190 C   0  0  0  0  0  0  0  0  0  0  0  0
  189.4710  177.7690  147.2150 C   0  0  0  0  0  3  0  0  0  0  0  0
  191.2610  175.8710  143.7150 C   0  0  0  0  0  3  0  0  0  0  0  0
  190.7760  176.1780  142.5030 C   0  0  0  0  0  3  0  0  0  0  0  0
  190.9440  176.7500  144.9010 C   0  0  1  0  0  3  0  0  0  0  0  0
  189.0860  177.6480  143.5580 C   0  0  0  0  0  3  0  0  0  0  0  0
  191.8750  177.7710  144.9840 F   0  0  0  0  0  0  0  0  0  0  0  0
  189.9210  177.4100  142.3290 C   0  0  2  0  0  3  0  0  0  0  0  0
  189.5530  177.3400  144.7790 C   0  0  0  0  0  0  0  0  0  0  0  0
  189.0270  177.2900  141.1040 C   0  0  0  0  0  2  0  0  0  0  0  0
  190.0390  176.4140  139.1230 O   0  0  0  0  0  1  0  0  0  0  0  0
  189.7940  177.5930  139.8280 C   0  0  1  0  0  3  0  0  0  0  0  0
  188.9800  178.5290  138.9620 C   0  0  0  0  0  1  0  0  0  0  0  0
  186.5270  177.5960  144.7870 C   0  0  0  0  0  2  0  0  0  0  0  0
  185.9110  178.8560  144.4080 N   0  0  0  0  0  2  0  0  0  0  0  0
  184.6880  178.5220  143.7010 C   0  0  0  0  0  2  0  0  0  0  0  0
  185.0040  178.1420  142.2610 C   0  0  2  0  0  3  0  0  0  0  0  0
  185.9770  179.1630  141.6900 C   0  0  0  0  0  1  0  0  0  0  0  0
  181.3170  178.9870  141.3340 C   0  0  0  0  0  2  0  0  0  0  0  0
  183.7220  178.0890  141.4240 C   0  0  2  0  0  3  0  0  0  0  0  0
  182.3570  178.4080  139.0990 C   0  0  2  0  0  3  0  0  0  0  0  0
  183.9260  178.9990  139.8510 S   0  0  0  0  0  0  0  0  0  0  0  0
  182.5320  178.6610  142.2080 C   0  0  0  0  0  2  0  0  0  0  0  0
  181.8630  179.4370  138.1010 C   0  0  0  0  0  1  0  0  0  0  0  0
  181.2470  178.0850  140.1070 C   0  0  0  0  0  2  0  0  0  0  0  0
  1  3  1  0  0  0  0
  1  2  1  0  0  0  0
  4  6  1  0  0  0  0
  4  7  2  0  0  0  0
  5  2  2  0  0  0  0
  6  1  2  0  0  0  0
  7  5  1  0  0  0  0
  8 10  1  0  0  0  0
  9  8  2  0  0  0  0
 10 12  1  6  0  0  0
 11 14  2  0  0  0  0
 13 15  1  6  0  0  0
 13  9  1  0  0  0  0
 13 11  1  0  0  0  0
 14 10  1  0  0  0  0
 14  4  1  0  0  0  0
 16 17  1  0  0  0  0
 17 18  1  6  0  0  0
 17 15  1  0  0  0  0
 19  6  1  0  0  0  0
 20 19  1  0  0  0  0
 21 20  1  0  0  0  0
 22 23  1  6  0  0  0
 22 21  1  0  0  0  0
 24 28  1  0  0  0  0
 25 28  1  0  0  0  0
 25 22  1  1  0  0  0
 26 29  1  6  0  0  0
 26 27  1  0  0  0  0
 26 30  1  0  0  0  0
 27 25  1  0  0  0  0
 30 24  1  0  0  0  0
M  END
>  <MODEL>
6

>  <REMARK>
 VINA RESULT:      -8.6      2.761      5.740
  Name = 
  8 active torsions:
  status: ('A' for Active; 'I' for Inactive)
    1  A    between atoms: N_1  and  C_4
    2  A    between atoms: N_1  and  C_5
    3  A    between atoms: C_4  and  C_27
    4  A    between atoms: C_5  and  C_22
    5  A    between atoms: C_8  and  C_27
    6  A    between atoms: C_15  and  C_16
    7  A    between atoms: C_16  and  C_25
    8  A    between atoms: C_19  and  C_29
                            x       y       z     vdW  Elec       q    Type
                         _______ _______ _______ _____ _____    ______ ____

>  <TORSDO>
F 8

$$$$
=
 OpenBabel10272413443D

 30 32  0  0  1  0  0  0  0  0999 V2000
  190.3660  177.1830  145.9410 C   0  0  0  0  0  0  0  0  0  0  0  0
  190.2550  176.8590  147.2940 C   0  0  0  0  0  3  0  0  0  0  0  0
  191.5830  177.1100  145.3450 F   0  0  0  0  0  0  0  0  0  0  0  0
  187.9700  177.6560  145.8540 C   0  0  0  0  0  0  0  0  0  0  0  0
  189.0200  176.9400  147.9330 C   0  0  0  0  0  3  0  0  0  0  0  0
  189.2350  177.5910  145.2110 C   0  0  0  0  0  0  0  0  0  0  0  0
  187.8900  177.3360  147.2180 C   0  0  0  0  0  3  0  0  0  0  0  0
  184.8980  179.7530  144.9900 C   0  0  0  0  0  3  0  0  0  0  0  0
  184.6660  179.3790  143.7230 C   0  0  0  0  0  3  0  0  0  0  0  0
  185.6600  178.8400  145.9200 C   0  0  1  0  0  3  0  0  0  0  0  0
  186.4650  177.6880  143.8970 C   0  0  0  0  0  3  0  0  0  0  0  0
  184.7820  177.9600  146.5280 F   0  0  0  0  0  0  0  0  0  0  0  0
  185.1600  178.0390  143.2350 C   0  0  2  0  0  3  0  0  0  0  0  0
  186.7170  178.0600  145.1640 C   0  0  0  0  0  0  0  0  0  0  0  0
  185.3230  178.0310  141.7230 C   0  0  0  0  0  2  0  0  0  0  0  0
  184.7960  179.5500  139.9520 O   0  0  0  0  0  1  0  0  0  0  0  0
  184.2540  178.8760  141.0480 C   0  0  1  0  0  3  0  0  0  0  0  0
  183.1310  177.9810  140.5750 C   0  0  0  0  0  1  0  0  0  0  0  0
  189.4190  177.9800  143.7780 C   0  0  0  0  0  2  0  0  0  0  0  0
  189.4270  176.7930  142.9410 N   0  0  0  0  0  2  0  0  0  0  0  0
  190.5840  176.9070  142.0720 C   0  0  0  0  0  2  0  0  0  0  0  0
  190.1720  177.4870  140.7250 C   0  0  2  0  0  3  0  0  0  0  0  0
  188.6580  177.6390  140.7040 C   0  0  0  0  0  1  0  0  0  0  0  0
  190.2320  176.0660  137.0990 C   0  0  0  0  0  2  0  0  0  0  0  0
  190.6410  176.5810  139.5820 C   0  0  2  0  0  3  0  0  0  0  0  0
  192.5650  175.5720  137.9530 C   0  0  2  0  0  3  0  0  0  0  0  0
  192.3190  177.0470  139.0210 S   0  0  0  0  0  0  0  0  0  0  0  0
  189.6610  176.6350  138.4020 C   0  0  0  0  0  2  0  0  0  0  0  0
  193.5280  175.9200  136.8360 C   0  0  0  0  0  1  0  0  0  0  0  0
  191.2740  174.9870  137.3660 C   0  0  0  0  0  2  0  0  0  0  0  0
  1  2  1  0  0  0  0
  2  5  2  0  0  0  0
  3  1  1  0  0  0  0
  4  7  2  0  0  0  0
  6  4  1  0  0  0  0
  6  1  2  0  0  0  0
  7  5  1  0  0  0  0
  8 10  1  0  0  0  0
  9  8  2  0  0  0  0
 10 12  1  6  0  0  0
 11 14  2  0  0  0  0
 13 15  1  6  0  0  0
 13  9  1  0  0  0  0
 13 11  1  0  0  0  0
 14  4  1  0  0  0  0
 14 10  1  0  0  0  0
 16 17  1  0  0  0  0
 17 18  1  6  0  0  0
 17 15  1  0  0  0  0
 19  6  1  0  0  0  0
 20 19  1  0  0  0  0
 21 20  1  0  0  0  0
 22 23  1  1  0  0  0
 22 21  1  0  0  0  0
 24 30  1  0  0  0  0
 24 28  1  0  0  0  0
 25 22  1  1  0  0  0
 26 29  1  6  0  0  0
 26 27  1  0  0  0  0
 27 25  1  0  0  0  0
 28 25  1  0  0  0  0
 30 26  1  0  0  0  0
M  END
>  <MODEL>
7

>  <REMARK>
 VINA RESULT:      -8.4      2.370      4.767
  Name = 
  8 active torsions:
  status: ('A' for Active; 'I' for Inactive)
    1  A    between atoms: N_1  and  C_4
    2  A    between atoms: N_1  and  C_5
    3  A    between atoms: C_4  and  C_27
    4  A    between atoms: C_5  and  C_22
    5  A    between atoms: C_8  and  C_27
    6  A    between atoms: C_15  and  C_16
    7  A    between atoms: C_16  and  C_25
    8  A    between atoms: C_19  and  C_29
                            x       y       z     vdW  Elec       q    Type
                         _______ _______ _______ _____ _____    ______ ____

>  <TORSDO>
F 8

$$$$
=
 OpenBabel10272413443D

 30 32  0  0  1  0  0  0  0  0999 V2000
  183.1180  178.5740  142.0580 C   0  0  0  0  0  0  0  0  0  0  0  0
  181.9480  178.8720  142.7590 C   0  0  0  0  0  3  0  0  0  0  0  0
  183.0590  178.4320  140.7090 F   0  0  0  0  0  0  0  0  0  0  0  0
  184.3750  178.5670  144.1530 C   0  0  0  0  0  0  0  0  0  0  0  0
  181.9790  179.0090  144.1440 C   0  0  0  0  0  3  0  0  0  0  0  0
  184.3350  178.4100  142.7420 C   0  0  0  0  0  0  0  0  0  0  0  0
  183.1820  178.8560  144.8330 C   0  0  0  0  0  3  0  0  0  0  0  0
  186.5850  178.0310  147.2210 C   0  0  0  0  0  3  0  0  0  0  0  0
  187.7190  177.5850  146.6600 C   0  0  0  0  0  3  0  0  0  0  0  0
  185.6190  178.8630  146.4130 C   0  0  1  0  0  3  0  0  0  0  0  0
  186.7620  177.9910  144.4130 C   0  0  0  0  0  3  0  0  0  0  0  0
  185.9750  180.1980  146.4960 F   0  0  0  0  0  0  0  0  0  0  0  0
  188.0290  177.9280  145.2230 C   0  0  2  0  0  3  0  0  0  0  0  0
  185.6150  178.4290  144.9610 C   0  0  0  0  0  0  0  0  0  0  0  0
  188.9890  176.9180  144.6120 C   0  0  0  0  0  2  0  0  0  0  0  0
  190.3200  178.9040  144.6140 O   0  0  0  0  0  1  0  0  0  0  0  0
  190.3640  177.5280  144.3900 C   0  0  1  0  0  3  0  0  0  0  0  0
  191.3530  176.8990  145.3480 C   0  0  0  0  0  1  0  0  0  0  0  0
  185.5490  178.0360  141.9500 C   0  0  0  0  0  2  0  0  0  0  0  0
  185.9580  179.1520  141.1150 N   0  0  0  0  0  2  0  0  0  0  0  0
  186.6890  178.5860  139.9960 C   0  0  0  0  0  2  0  0  0  0  0  0
  187.9170  177.8390  140.4970 C   0  0  2  0  0  3  0  0  0  0  0  0
  188.7680  178.7960  141.3180 C   0  0  0  0  0  1  0  0  0  0  0  0
  189.7280  177.9240  137.0500 C   0  0  0  0  0  2  0  0  0  0  0  0
  188.7200  177.2730  139.3220 C   0  0  2  0  0  3  0  0  0  0  0  0
  190.9040  176.0450  138.2750 C   0  0  2  0  0  3  0  0  0  0  0  0
  190.4600  176.9690  139.8000 S   0  0  0  0  0  0  0  0  0  0  0  0
  188.6680  178.2220  138.1150 C   0  0  0  0  0  2  0  0  0  0  0  0
  192.3880  176.2040  138.0100 C   0  0  0  0  0  1  0  0  0  0  0  0
  190.1050  176.4480  137.0290 C   0  0  0  0  0  2  0  0  0  0  0  0
  1  6  2  0  0  0  0
  1  2  1  0  0  0  0
  2  5  2  0  0  0  0
  3  1  1  0  0  0  0
  4  7  2  0  0  0  0
  4 14  1  0  0  0  0
  5  7  1  0  0  0  0
  6  4  1  0  0  0  0
  9  8  2  0  0  0  0
 10 12  1  6  0  0  0
 10  8  1  0  0  0  0
 11 14  2  0  0  0  0
 11 13  1  0  0  0  0
 13 15  1  6  0  0  0
 13  9  1  0  0  0  0
 14 10  1  0  0  0  0
 17 15  1  0  0  0  0
 17 16  1  0  0  0  0
 17 18  1  1  0  0  0
 19  6  1  0  0  0  0
 20 19  1  0  0  0  0
 21 22  1  0  0  0  0
 21 20  1  0  0  0  0
 22 23  1  6  0  0  0
 24 28  1  0  0  0  0
 25 27  1  0  0  0  0
 25 22  1  1  0  0  0
 26 29  1  6  0  0  0
 26 27  1  0  0  0  0
 28 25  1  0  0  0  0
 30 24  1  0  0  0  0
 30 26  1  0  0  0  0
M  END
>  <MODEL>
8

>  <REMARK>
 VINA RESULT:      -8.2      1.436      2.189
  Name = 
  8 active torsions:
  status: ('A' for Active; 'I' for Inactive)
    1  A    between atoms: N_1  and  C_4
    2  A    between atoms: N_1  and  C_5
    3  A    between atoms: C_4  and  C_27
    4  A    between atoms: C_5  and  C_22
    5  A    between atoms: C_8  and  C_27
    6  A    between atoms: C_15  and  C_16
    7  A    between atoms: C_16  and  C_25
    8  A    between atoms: C_19  and  C_29
                            x       y       z     vdW  Elec       q    Type
                         _______ _______ _______ _____ _____    ______ ____

>  <TORSDO>
F 8

$$$$
=
 OpenBabel10272413443D

 30 32  0  0  1  0  0  0  0  0999 V2000
  184.7750  178.4870  143.4960 C   0  0  0  0  0  0  0  0  0  0  0  0
  184.0660  178.8100  144.6550 C   0  0  0  0  0  3  0  0  0  0  0  0
  184.1570  178.6020  142.2930 F   0  0  0  0  0  0  0  0  0  0  0  0
  186.7340  177.9300  144.8460 C   0  0  0  0  0  0  0  0  0  0  0  0
  184.6730  178.6870  145.9020 C   0  0  0  0  0  3  0  0  0  0  0  0
  186.1050  178.0380  143.5770 C   0  0  0  0  0  0  0  0  0  0  0  0
  185.9940  178.2500  145.9950 C   0  0  0  0  0  3  0  0  0  0  0  0
  190.4410  177.4240  144.0800 C   0  0  0  0  0  3  0  0  0  0  0  0
  190.9500  177.2620  145.3110 C   0  0  0  0  0  3  0  0  0  0  0  0
  188.9830  177.1320  143.8210 C   0  0  1  0  0  3  0  0  0  0  0  0
  188.6620  177.3060  146.2570 C   0  0  0  0  0  3  0  0  0  0  0  0
  188.8250  175.7910  143.5170 F   0  0  0  0  0  0  0  0  0  0  0  0
  190.0610  176.7790  146.4310 C   0  0  2  0  0  3  0  0  0  0  0  0
  188.1390  177.4800  145.0310 C   0  0  0  0  0  0  0  0  0  0  0  0
  190.6110  177.1950  147.7870 C   0  0  0  0  0  2  0  0  0  0  0  0
  192.6080  177.4300  149.0810 O   0  0  0  0  0  1  0  0  0  0  0  0
  192.1010  176.9100  147.8900 C   0  0  1  0  0  3  0  0  0  0  0  0
  192.3290  175.4140  147.8640 C   0  0  0  0  0  1  0  0  0  0  0  0
  186.8020  177.6540  142.3090 C   0  0  0  0  0  2  0  0  0  0  0  0
  186.9570  178.8190  141.4570 N   0  0  0  0  0  2  0  0  0  0  0  0
  188.3190  178.7880  140.9560 C   0  0  0  0  0  2  0  0  0  0  0  0
  188.5800  177.4750  140.2300 C   0  0  2  0  0  3  0  0  0  0  0  0
  190.0420  177.0980  140.4150 C   0  0  0  0  0  1  0  0  0  0  0  0
  188.9780  178.7890  136.5850 C   0  0  0  0  0  2  0  0  0  0  0  0
  188.2390  177.6050  138.7420 C   0  0  2  0  0  3  0  0  0  0  0  0
  187.8240  176.5560  136.2730 C   0  0  2  0  0  3  0  0  0  0  0  0
  188.6670  176.0770  137.8330 S   0  0  0  0  0  0  0  0  0  0  0  0
  188.9640  178.8050  138.1170 C   0  0  0  0  0  2  0  0  0  0  0  0
  188.5020  175.8660  135.1060 C   0  0  0  0  0  1  0  0  0  0  0  0
  187.7610  178.0680  136.0190 C   0  0  0  0  0  2  0  0  0  0  0  0
  1  6  2  0  0  0  0
  1  2  1  0  0  0  0
  2  5  2  0  0  0  0
  3  1  1  0  0  0  0
  4 14  1  0  0  0  0
  4  7  2  0  0  0  0
  5  7  1  0  0  0  0
  6  4  1  0  0  0  0
  8  9  2  0  0  0  0
  9 13  1  0  0  0  0
 10 12  1  1  0  0  0
 10  8  1  0  0  0  0
 10 14  1  0  0  0  0
 11 13  1  0  0  0  0
 13 15  1  1  0  0  0
 14 11  2  0  0  0  0
 15 17  1  0  0  0  0
 17 18  1  1  0  0  0
 17 16  1  0  0  0  0
 19  6  1  0  0  0  0
 20 19  1  0  0  0  0
 21 20  1  0  0  0  0
 22 23  1  6  0  0  0
 22 21  1  0  0  0  0
 24 28  1  0  0  0  0
 25 22  1  1  0  0  0
 26 29  1  6  0  0  0
 26 27  1  0  0  0  0
 27 25  1  0  0  0  0
 28 25  1  0  0  0  0
 30 26  1  0  0  0  0
 30 24  1  0  0  0  0
M  END
>  <MODEL>
9

>  <REMARK>
 VINA RESULT:      -8.1      1.930      2.767
  Name = 
  8 active torsions:
  status: ('A' for Active; 'I' for Inactive)
    1  A    between atoms: N_1  and  C_4
    2  A    between atoms: N_1  and  C_5
    3  A    between atoms: C_4  and  C_27
    4  A    between atoms: C_5  and  C_22
    5  A    between atoms: C_8  and  C_27
    6  A    between atoms: C_15  and  C_16
    7  A    between atoms: C_16  and  C_25
    8  A    between atoms: C_19  and  C_29
                            x       y       z     vdW  Elec       q    Type
                         _______ _______ _______ _____ _____    ______ ____

>  <TORSDO>
F 8

$$$$
