=
 OpenBabel10262423583D

 34 39  0  0  1  0  0  0  0  0999 V2000
  187.7860  177.7090  139.1750 C   0  0  0  0  0  0  0  0  0  0  0  0
  188.3010  177.7550  141.6320 N   0  0  0  0  0  0  0  0  0  0  0  0
  183.2480  178.6720  138.9660 C   0  0  0  0  0  0  0  0  0  0  0  0
  182.6990  177.6990  139.8540 N   0  0  0  0  0  2  0  0  0  0  0  0
  190.0160  177.6900  140.0230 O   0  0  0  0  0  0  0  0  0  0  0  0
  184.9310  179.3380  140.8090 C   0  0  1  0  0  3  0  0  0  0  0  0
  183.3980  177.3480  141.0800 C   0  0  0  0  0  2  0  0  0  0  0  0
  186.6420  178.3400  139.4760 C   0  0  0  0  0  0  0  0  0  0  0  0
  184.5430  179.3620  139.2910 C   0  0  1  0  0  3  0  0  0  0  0  0
  187.0400  178.4060  141.8550 C   0  0  0  0  0  3  0  0  0  0  0  0
  183.9290  178.6190  141.7270 C   0  0  0  0  0  2  0  0  0  0  0  0
  186.2610  178.6690  140.8140 C   0  0  0  0  0  0  0  0  0  0  0  0
  182.6480  178.9470  137.8960 O   0  0  0  0  0  0  0  0  0  0  0  0
  188.7120  177.2690  140.2990 C   0  0  0  0  0  0  0  0  0  0  0  0
  185.6360  178.7230  138.5570 N   0  0  0  0  0  2  0  0  0  0  0  0
  188.7050  178.2210  136.8740 C   0  0  0  0  0  0  0  0  0  0  0  0
  187.8310  176.0110  137.3700 C   0  0  0  0  0  3  0  0  0  0  0  0
  188.7020  176.5000  135.1670 C   0  0  0  0  0  3  0  0  0  0  0  0
  187.8510  174.3350  135.6770 F   0  0  0  0  0  0  0  0  0  0  0  0
  188.1050  177.3230  137.7830 C   0  0  0  0  0  0  0  0  0  0  0  0
  188.9960  177.8030  135.5720 C   0  0  0  0  0  3  0  0  0  0  0  0
  189.0620  179.5420  137.2730 N   0  0  0  0  0  1  0  0  0  0  0  0
  188.1240  175.6030  136.0660 C   0  0  0  0  0  0  0  0  0  0  0  0
  189.1080  177.3900  142.7880 C   0  0  0  0  0  2  0  0  0  0  0  0
  190.9170  178.5030  144.2770 C   0  0  1  0  0  3  0  0  0  0  0  0
  191.5240  177.4270  143.3910 C   0  0  0  0  0  2  0  0  0  0  0  0
  190.3700  178.2520  142.8600 C   0  0  1  0  0  3  0  0  0  0  0  0
  192.0010  176.8110  146.3040 F   0  0  0  0  0  0  0  0  0  0  0  0
  190.0820  177.9270  145.3950 C   0  0  0  0  0  0  0  0  0  0  0  0
  190.6730  177.0830  146.3510 C   0  0  0  0  0  0  0  0  0  0  0  0
  188.5250  176.7810  147.4310 C   0  0  0  0  0  3  0  0  0  0  0  0
  187.9270  177.6070  146.4770 C   0  0  0  0  0  3  0  0  0  0  0  0
  188.7000  178.1710  145.4590 C   0  0  0  0  0  3  0  0  0  0  0  0
  189.8960  176.5190  147.3660 C   0  0  0  0  0  3  0  0  0  0  0  0
  1  8  2  0  0  0  0
  1 14  1  0  0  0  0
  2 10  1  0  0  0  0
  2 24  1  0  0  0  0
  3  9  1  0  0  0  0
  3  4  1  0  0  0  0
  4  7  1  0  0  0  0
  5 14  2  0  0  0  0
  6 12  1  0  0  0  0
  6 11  1  1  0  0  0
  7 11  1  0  0  0  0
  8 12  1  0  0  0  0
  9 15  1  6  0  0  0
  9  6  1  0  0  0  0
 12 10  2  0  0  0  0
 13  3  2  0  0  0  0
 14  2  1  0  0  0  0
 15  8  1  0  0  0  0
 16 22  1  0  0  0  0
 16 20  1  0  0  0  0
 17 20  2  0  0  0  0
 18 21  1  0  0  0  0
 18 23  2  0  0  0  0
 19 23  1  0  0  0  0
 20  1  1  0  0  0  0
 21 16  2  0  0  0  0
 23 17  1  0  0  0  0
 25 29  1  1  0  0  0
 26 25  1  0  0  0  0
 27 24  1  1  0  0  0
 27 26  1  0  0  0  0
 27 25  1  0  0  0  0
 28 30  1  0  0  0  0
 29 33  2  0  0  0  0
 29 30  1  0  0  0  0
 30 34  2  0  0  0  0
 32 31  2  0  0  0  0
 33 32  1  0  0  0  0
 34 31  1  0  0  0  0
M  END
>  <MODEL>
1

>  <REMARK>
 VINA RESULT:      -9.3      0.000      0.000
  Name = 
  4 active torsions:
  status: ('A' for Active; 'I' for Inactive)
    1  A    between atoms: C_3  and  C_13
    2  A    between atoms: C_4  and  C_15
    3  A    between atoms: N_5  and  C_18
    4  A    between atoms: C_18  and  C_29
                            x       y       z     vdW  Elec       q    Type
                         _______ _______ _______ _____ _____    ______ ____

>  <TORSDO>
F 4

$$$$
=
 OpenBabel10262423583D

 34 39  0  0  1  0  0  0  0  0999 V2000
  187.4810  177.9520  139.1060 C   0  0  0  0  0  0  0  0  0  0  0  0
  187.5670  178.5750  141.5370 N   0  0  0  0  0  0  0  0  0  0  0  0
  182.9410  177.8590  138.1360 C   0  0  0  0  0  0  0  0  0  0  0  0
  182.4430  176.9770  139.1430 N   0  0  0  0  0  2  0  0  0  0  0  0
  189.5060  178.5740  140.2040 O   0  0  0  0  0  0  0  0  0  0  0  0
  184.1450  179.2090  139.9800 C   0  0  1  0  0  3  0  0  0  0  0  0
  182.9830  177.0250  140.4920 C   0  0  0  0  0  2  0  0  0  0  0  0
  186.2070  178.3670  139.1190 C   0  0  0  0  0  0  0  0  0  0  0  0
  184.0140  178.8600  138.4580 C   0  0  1  0  0  3  0  0  0  0  0  0
  186.1890  178.9690  141.4550 C   0  0  0  0  0  3  0  0  0  0  0  0
  183.1550  178.4790  140.9040 C   0  0  0  0  0  2  0  0  0  0  0  0
  185.5560  178.8550  140.2950 C   0  0  0  0  0  0  0  0  0  0  0  0
  182.4850  177.7900  136.9670 O   0  0  0  0  0  0  0  0  0  0  0  0
  188.2750  177.9440  140.4040 C   0  0  0  0  0  0  0  0  0  0  0  0
  185.3130  178.3440  138.0220 N   0  0  0  0  0  2  0  0  0  0  0  0
  188.7680  178.1910  136.9410 C   0  0  0  0  0  0  0  0  0  0  0  0
  188.0190  176.0010  137.6750 C   0  0  0  0  0  3  0  0  0  0  0  0
  189.2420  176.2260  135.6010 C   0  0  0  0  0  3  0  0  0  0  0  0
  188.5090  174.0860  136.3450 F   0  0  0  0  0  0  0  0  0  0  0  0
  188.0910  177.3860  137.8830 C   0  0  0  0  0  0  0  0  0  0  0  0
  189.3360  177.6040  135.8050 C   0  0  0  0  0  3  0  0  0  0  0  0
  188.9220  179.5920  137.1470 N   0  0  0  0  0  1  0  0  0  0  0  0
  188.5880  175.4240  136.5370 C   0  0  0  0  0  0  0  0  0  0  0  0
  188.2260  178.6180  142.8350 C   0  0  0  0  0  2  0  0  0  0  0  0
  188.6640  176.6370  144.4510 C   0  0  1  0  0  3  0  0  0  0  0  0
  187.9960  176.1620  143.1700 C   0  0  0  0  0  2  0  0  0  0  0  0
  188.9770  177.3120  143.1040 C   0  0  1  0  0  3  0  0  0  0  0  0
  189.4110  177.5910  147.0360 F   0  0  0  0  0  0  0  0  0  0  0  0
  187.7190  177.4030  145.3450 C   0  0  0  0  0  0  0  0  0  0  0  0
  188.1430  177.8280  146.6160 C   0  0  0  0  0  0  0  0  0  0  0  0
  185.9480  178.7560  147.0520 C   0  0  0  0  0  3  0  0  0  0  0  0
  185.5140  178.3250  145.7970 C   0  0  0  0  0  3  0  0  0  0  0  0
  186.3930  177.6450  144.9500 C   0  0  0  0  0  3  0  0  0  0  0  0
  187.2600  178.5050  147.4610 C   0  0  0  0  0  3  0  0  0  0  0  0
  1  8  2  0  0  0  0
  1 14  1  0  0  0  0
  2 24  1  0  0  0  0
  3  9  1  0  0  0  0
  3  4  1  0  0  0  0
  4  7  1  0  0  0  0
  5 14  2  0  0  0  0
  6 12  1  0  0  0  0
  6 11  1  1  0  0  0
  7 11  1  0  0  0  0
  8 12  1  0  0  0  0
  9 15  1  1  0  0  0
  9  6  1  0  0  0  0
 10  2  1  0  0  0  0
 12 10  2  0  0  0  0
 13  3  2  0  0  0  0
 14  2  1  0  0  0  0
 15  8  1  0  0  0  0
 16 22  1  0  0  0  0
 16 20  1  0  0  0  0
 17 20  2  0  0  0  0
 18 21  1  0  0  0  0
 18 23  2  0  0  0  0
 19 23  1  0  0  0  0
 20  1  1  0  0  0  0
 21 16  2  0  0  0  0
 23 17  1  0  0  0  0
 25 29  1  1  0  0  0
 26 25  1  0  0  0  0
 27 24  1  1  0  0  0
 27 26  1  0  0  0  0
 27 25  1  0  0  0  0
 29 30  1  0  0  0  0
 30 28  1  0  0  0  0
 30 34  2  0  0  0  0
 31 34  1  0  0  0  0
 32 31  2  0  0  0  0
 33 29  2  0  0  0  0
 33 32  1  0  0  0  0
M  END
>  <MODEL>
2

>  <REMARK>
 VINA RESULT:      -9.3      1.331      1.718
  Name = 
  4 active torsions:
  status: ('A' for Active; 'I' for Inactive)
    1  A    between atoms: C_3  and  C_13
    2  A    between atoms: C_4  and  C_15
    3  A    between atoms: N_5  and  C_18
    4  A    between atoms: C_18  and  C_29
                            x       y       z     vdW  Elec       q    Type
                         _______ _______ _______ _____ _____    ______ ____

>  <TORSDO>
F 4

$$$$
=
 OpenBabel10262423583D

 34 39  0  0  1  0  0  0  0  0999 V2000
  187.0720  177.9910  139.0840 C   0  0  0  0  0  0  0  0  0  0  0  0
  186.7670  178.6140  141.4980 N   0  0  0  0  0  0  0  0  0  0  0  0
  182.7350  177.5670  137.4820 C   0  0  0  0  0  0  0  0  0  0  0  0
  182.1640  176.6490  138.4150 N   0  0  0  0  0  2  0  0  0  0  0  0
  188.8700  178.7580  140.4530 O   0  0  0  0  0  0  0  0  0  0  0  0
  183.5630  178.9980  139.4670 C   0  0  1  0  0  3  0  0  0  0  0  0
  182.5020  176.7330  139.8260 C   0  0  0  0  0  2  0  0  0  0  0  0
  185.7820  178.3120  138.9130 C   0  0  0  0  0  0  0  0  0  0  0  0
  183.6750  178.6440  137.9440 C   0  0  1  0  0  3  0  0  0  0  0  0
  185.3890  178.9060  141.2180 C   0  0  0  0  0  3  0  0  0  0  0  0
  182.5080  178.1960  140.2470 C   0  0  0  0  0  2  0  0  0  0  0  0
  184.9370  178.7480  139.9810 C   0  0  0  0  0  0  0  0  0  0  0  0
  182.4550  177.4670  136.2600 O   0  0  0  0  0  0  0  0  0  0  0  0
  187.6720  178.0390  140.4820 C   0  0  0  0  0  0  0  0  0  0  0  0
  185.0570  178.2250  137.7010 N   0  0  0  0  0  2  0  0  0  0  0  0
  188.6500  178.3260  137.1360 C   0  0  0  0  0  0  0  0  0  0  0  0
  187.9290  176.0890  137.7460 C   0  0  0  0  0  3  0  0  0  0  0  0
  189.4330  176.4060  135.8780 C   0  0  0  0  0  3  0  0  0  0  0  0
  188.7230  174.2200  136.5000 F   0  0  0  0  0  0  0  0  0  0  0  0
  187.8890  177.4740  137.9650 C   0  0  0  0  0  0  0  0  0  0  0  0
  189.4140  177.7850  136.0970 C   0  0  0  0  0  3  0  0  0  0  0  0
  188.6910  179.7310  137.3650 N   0  0  0  0  0  1  0  0  0  0  0  0
  188.6940  175.5580  136.7050 C   0  0  0  0  0  0  0  0  0  0  0  0
  187.2300  178.7030  142.8760 C   0  0  0  0  0  2  0  0  0  0  0  0
  187.1440  176.9540  144.7900 C   0  0  1  0  0  3  0  0  0  0  0  0
  186.5400  178.2780  145.2300 C   0  0  0  0  0  2  0  0  0  0  0  0
  186.3670  177.8330  143.7930 C   0  0  1  0  0  3  0  0  0  0  0  0
  188.5830  175.6010  142.7290 F   0  0  0  0  0  0  0  0  0  0  0  0
  188.6470  177.0200  144.6620 C   0  0  0  0  0  0  0  0  0  0  0  0
  189.2960  176.3130  143.6360 C   0  0  0  0  0  0  0  0  0  0  0  0
  191.4470  177.0640  144.4630 C   0  0  0  0  0  3  0  0  0  0  0  0
  190.8100  177.7570  145.4940 C   0  0  0  0  0  3  0  0  0  0  0  0
  189.4170  177.7290  145.5980 C   0  0  0  0  0  3  0  0  0  0  0  0
  190.6900  176.3410  143.5370 C   0  0  0  0  0  3  0  0  0  0  0  0
  1 14  1  0  0  0  0
  2 24  1  0  0  0  0
  3  4  1  0  0  0  0
  4  7  1  0  0  0  0
  5 14  2  0  0  0  0
  6 12  1  0  0  0  0
  6 11  1  1  0  0  0
  7 11  1  0  0  0  0
  8  1  2  0  0  0  0
  8 12  1  0  0  0  0
  9  3  1  1  0  0  0
  9  6  1  0  0  0  0
 10  2  1  0  0  0  0
 12 10  2  0  0  0  0
 13  3  2  0  0  0  0
 14  2  1  0  0  0  0
 15  9  1  0  0  0  0
 15  8  1  0  0  0  0
 16 22  1  0  0  0  0
 16 20  1  0  0  0  0
 17 20  2  0  0  0  0
 18 21  1  0  0  0  0
 18 23  2  0  0  0  0
 19 23  1  0  0  0  0
 20  1  1  0  0  0  0
 21 16  2  0  0  0  0
 23 17  1  0  0  0  0
 25 29  1  6  0  0  0
 25 26  1  0  0  0  0
 27 24  1  6  0  0  0
 27 25  1  0  0  0  0
 27 26  1  0  0  0  0
 28 30  1  0  0  0  0
 29 33  1  0  0  0  0
 30 29  2  0  0  0  0
 31 32  1  0  0  0  0
 32 33  2  0  0  0  0
 34 30  1  0  0  0  0
 34 31  2  0  0  0  0
M  END
>  <MODEL>
3

>  <REMARK>
 VINA RESULT:      -9.3      1.556      2.405
  Name = 
  4 active torsions:
  status: ('A' for Active; 'I' for Inactive)
    1  A    between atoms: C_3  and  C_13
    2  A    between atoms: C_4  and  C_15
    3  A    between atoms: N_5  and  C_18
    4  A    between atoms: C_18  and  C_29
                            x       y       z     vdW  Elec       q    Type
                         _______ _______ _______ _____ _____    ______ ____

>  <TORSDO>
F 4

$$$$
=
 OpenBabel10262423583D

 34 39  0  0  1  0  0  0  0  0999 V2000
  187.0480  178.0110  139.0750 C   0  0  0  0  0  0  0  0  0  0  0  0
  186.7880  178.6470  141.4910 N   0  0  0  0  0  0  0  0  0  0  0  0
  182.6820  177.6250  137.5440 C   0  0  0  0  0  0  0  0  0  0  0  0
  182.1170  176.7180  138.4900 N   0  0  0  0  0  2  0  0  0  0  0  0
  188.8750  178.7650  140.4120 O   0  0  0  0  0  0  0  0  0  0  0  0
  183.5560  179.0560  139.5090 C   0  0  1  0  0  3  0  0  0  0  0  0
  182.4780  176.8040  139.8950 C   0  0  0  0  0  2  0  0  0  0  0  0
  185.7590  178.3450  138.9230 C   0  0  0  0  0  0  0  0  0  0  0  0
  183.6400  178.6940  137.9870 C   0  0  1  0  0  3  0  0  0  0  0  0
  185.4090  178.9520  141.2320 C   0  0  0  0  0  3  0  0  0  0  0  0
  182.5060  178.2680  140.3100 C   0  0  0  0  0  2  0  0  0  0  0  0
  184.9360  178.7940  140.0030 C   0  0  0  0  0  0  0  0  0  0  0  0
  182.3820  177.5230  136.3270 O   0  0  0  0  0  0  0  0  0  0  0  0
  187.6710  178.0580  140.4630 C   0  0  0  0  0  0  0  0  0  0  0  0
  185.0140  178.2600  137.7230 N   0  0  0  0  0  2  0  0  0  0  0  0
  188.6130  178.3190  137.1120 C   0  0  0  0  0  0  0  0  0  0  0  0
  187.8490  176.0960  137.7200 C   0  0  0  0  0  3  0  0  0  0  0  0
  189.3400  176.3880  135.8380 C   0  0  0  0  0  3  0  0  0  0  0  0
  188.5890  174.2150  136.4590 F   0  0  0  0  0  0  0  0  0  0  0  0
  187.8420  177.4810  137.9450 C   0  0  0  0  0  0  0  0  0  0  0  0
  189.3540  177.7670  136.0620 C   0  0  0  0  0  3  0  0  0  0  0  0
  188.6870  179.7230  137.3460 N   0  0  0  0  0  1  0  0  0  0  0  0
  188.5910  175.5530  136.6690 C   0  0  0  0  0  0  0  0  0  0  0  0
  187.2740  178.7370  142.8600 C   0  0  0  0  0  2  0  0  0  0  0  0
  187.1090  176.9140  144.6990 C   0  0  1  0  0  3  0  0  0  0  0  0
  186.7100  178.2780  145.2420 C   0  0  0  0  0  2  0  0  0  0  0  0
  186.3780  177.9330  143.8060 C   0  0  1  0  0  3  0  0  0  0  0  0
  189.0550  178.0370  146.4600 F   0  0  0  0  0  0  0  0  0  0  0  0
  188.5950  176.8020  144.4560 C   0  0  0  0  0  0  0  0  0  0  0  0
  189.5000  177.3950  145.3520 C   0  0  0  0  0  0  0  0  0  0  0  0
  191.3570  176.6730  143.9730 C   0  0  0  0  0  3  0  0  0  0  0  0
  190.4630  176.0940  143.0700 C   0  0  0  0  0  3  0  0  0  0  0  0
  189.0880  176.1640  143.3060 C   0  0  0  0  0  3  0  0  0  0  0  0
  190.8750  177.3250  145.1110 C   0  0  0  0  0  3  0  0  0  0  0  0
  1 14  1  0  0  0  0
  2 24  1  0  0  0  0
  3  4  1  0  0  0  0
  4  7  1  0  0  0  0
  5 14  2  0  0  0  0
  6 12  1  0  0  0  0
  6 11  1  1  0  0  0
  7 11  1  0  0  0  0
  8  1  2  0  0  0  0
  8 12  1  0  0  0  0
  9  3  1  1  0  0  0
  9  6  1  0  0  0  0
 10  2  1  0  0  0  0
 12 10  2  0  0  0  0
 13  3  2  0  0  0  0
 14  2  1  0  0  0  0
 15  9  1  0  0  0  0
 15  8  1  0  0  0  0
 16 22  1  0  0  0  0
 16 20  1  0  0  0  0
 17 20  2  0  0  0  0
 18 21  1  0  0  0  0
 18 23  2  0  0  0  0
 19 23  1  0  0  0  0
 20  1  1  0  0  0  0
 21 16  2  0  0  0  0
 23 17  1  0  0  0  0
 25 29  1  6  0  0  0
 25 26  1  0  0  0  0
 27 24  1  6  0  0  0
 27 25  1  0  0  0  0
 27 26  1  0  0  0  0
 29 30  1  0  0  0  0
 30 28  1  0  0  0  0
 31 34  1  0  0  0  0
 32 33  1  0  0  0  0
 32 31  2  0  0  0  0
 33 29  2  0  0  0  0
 34 30  2  0  0  0  0
M  END
>  <MODEL>
4

>  <REMARK>
 VINA RESULT:      -9.0      1.408      2.325
  Name = 
  4 active torsions:
  status: ('A' for Active; 'I' for Inactive)
    1  A    between atoms: C_3  and  C_13
    2  A    between atoms: C_4  and  C_15
    3  A    between atoms: N_5  and  C_18
    4  A    between atoms: C_18  and  C_29
                            x       y       z     vdW  Elec       q    Type
                         _______ _______ _______ _____ _____    ______ ____

>  <TORSDO>
F 4

$$$$
=
 OpenBabel10262423583D

 34 39  0  0  1  0  0  0  0  0999 V2000
  190.8530  176.7660  138.4840 C   0  0  0  0  0  0  0  0  0  0  0  0
  189.9840  177.7680  140.6170 N   0  0  0  0  0  0  0  0  0  0  0  0
  187.2360  177.0040  135.5820 C   0  0  0  0  0  0  0  0  0  0  0  0
  186.2100  176.3600  136.3370 N   0  0  0  0  0  2  0  0  0  0  0  0
  192.2770  177.3390  140.3100 O   0  0  0  0  0  0  0  0  0  0  0  0
  187.7340  178.5020  137.6270 C   0  0  1  0  0  3  0  0  0  0  0  0
  186.1130  176.5700  137.7720 C   0  0  0  0  0  2  0  0  0  0  0  0
  189.7900  177.3130  137.8780 C   0  0  0  0  0  0  0  0  0  0  0  0
  188.2170  177.9240  136.2530 C   0  0  1  0  0  3  0  0  0  0  0  0
  188.8660  178.2900  139.8820 C   0  0  0  0  0  3  0  0  0  0  0  0
  186.3350  178.0460  138.0710 C   0  0  0  0  0  2  0  0  0  0  0  0
  188.7880  178.0550  138.5790 C   0  0  0  0  0  0  0  0  0  0  0  0
  187.3260  176.7930  134.3460 O   0  0  0  0  0  0  0  0  0  0  0  0
  190.9930  176.8860  139.9940 C   0  0  0  0  0  0  0  0  0  0  0  0
  189.4680  177.2050  136.5040 N   0  0  0  0  0  2  0  0  0  0  0  0
  191.5640  174.6000  137.3890 C   0  0  0  0  0  0  0  0  0  0  0  0
  193.0290  176.5350  137.3210 C   0  0  0  0  0  3  0  0  0  0  0  0
  193.7160  174.4620  136.2800 C   0  0  0  0  0  3  0  0  0  0  0  0
  195.1330  176.3750  136.2130 F   0  0  0  0  0  0  0  0  0  0  0  0
  191.8260  175.9440  137.7310 C   0  0  0  0  0  0  0  0  0  0  0  0
  192.5140  173.8680  136.6680 C   0  0  0  0  0  3  0  0  0  0  0  0
  190.3270  173.9810  137.7290 N   0  0  0  0  0  1  0  0  0  0  0  0
  193.9720  175.7960  136.6020 C   0  0  0  0  0  0  0  0  0  0  0  0
  190.0140  177.9540  142.0600 C   0  0  0  0  0  2  0  0  0  0  0  0
  190.2490  176.2640  144.0150 C   0  0  1  0  0  3  0  0  0  0  0  0
  190.1020  175.5440  142.6830 C   0  0  0  0  0  2  0  0  0  0  0  0
  190.8500  176.8600  142.7290 C   0  0  1  0  0  3  0  0  0  0  0  0
  190.0250  177.7240  146.4570 F   0  0  0  0  0  0  0  0  0  0  0  0
  188.9590  176.9010  144.4720 C   0  0  0  0  0  0  0  0  0  0  0  0
  188.9110  177.5900  145.6960 C   0  0  0  0  0  0  0  0  0  0  0  0
  186.5480  178.0200  145.3750 C   0  0  0  0  0  3  0  0  0  0  0  0
  186.5840  177.3250  144.1640 C   0  0  0  0  0  3  0  0  0  0  0  0
  187.7820  176.7610  143.7180 C   0  0  0  0  0  3  0  0  0  0  0  0
  187.7090  178.1500  146.1400 C   0  0  0  0  0  3  0  0  0  0  0  0
  1 14  1  0  0  0  0
  2 24  1  0  0  0  0
  3  4  1  0  0  0  0
  4  7  1  0  0  0  0
  6 11  1  1  0  0  0
  6 12  1  0  0  0  0
  7 11  1  0  0  0  0
  8  1  2  0  0  0  0
  8 12  1  0  0  0  0
  9  3  1  1  0  0  0
  9 15  1  0  0  0  0
  9  6  1  0  0  0  0
 10  2  1  0  0  0  0
 12 10  2  0  0  0  0
 13  3  2  0  0  0  0
 14  5  2  0  0  0  0
 14  2  1  0  0  0  0
 15  8  1  0  0  0  0
 16 22  1  0  0  0  0
 16 20  1  0  0  0  0
 17 20  2  0  0  0  0
 18 23  2  0  0  0  0
 18 21  1  0  0  0  0
 19 23  1  0  0  0  0
 20  1  1  0  0  0  0
 21 16  2  0  0  0  0
 23 17  1  0  0  0  0
 25 29  1  6  0  0  0
 26 27  1  0  0  0  0
 26 25  1  0  0  0  0
 27 24  1  6  0  0  0
 27 25  1  0  0  0  0
 29 30  1  0  0  0  0
 30 34  2  0  0  0  0
 30 28  1  0  0  0  0
 31 34  1  0  0  0  0
 32 31  2  0  0  0  0
 33 32  1  0  0  0  0
 33 29  2  0  0  0  0
M  END
>  <MODEL>
5

>  <REMARK>
 VINA RESULT:      -8.8      3.211      4.075
  Name = 
  4 active torsions:
  status: ('A' for Active; 'I' for Inactive)
    1  A    between atoms: C_3  and  C_13
    2  A    between atoms: C_4  and  C_15
    3  A    between atoms: N_5  and  C_18
    4  A    between atoms: C_18  and  C_29
                            x       y       z     vdW  Elec       q    Type
                         _______ _______ _______ _____ _____    ______ ____

>  <TORSDO>
F 4

$$$$
=
 OpenBabel10262423583D

 34 39  0  0  1  0  0  0  0  0999 V2000
  184.8970  178.6500  139.9020 C   0  0  0  0  0  0  0  0  0  0  0  0
  186.5560  178.5830  141.7850 N   0  0  0  0  0  0  0  0  0  0  0  0
  187.5010  178.1120  136.0960 C   0  0  0  0  0  0  0  0  0  0  0  0
  188.4770  179.1410  136.2590 N   0  0  0  0  0  2  0  0  0  0  0  0
  184.2410  178.4710  142.1890 O   0  0  0  0  0  0  0  0  0  0  0  0
  188.0130  177.3120  138.4990 C   0  0  1  0  0  3  0  0  0  0  0  0
  189.0170  179.4390  137.5750 C   0  0  0  0  0  2  0  0  0  0  0  0
  185.8610  178.1320  139.1290 C   0  0  0  0  0  0  0  0  0  0  0  0
  187.0330  177.3070  137.2760 C   0  0  1  0  0  3  0  0  0  0  0  0
  187.5290  178.0550  140.8700 C   0  0  0  0  0  3  0  0  0  0  0  0
  189.2990  178.1310  138.3000 C   0  0  0  0  0  2  0  0  0  0  0  0
  187.1800  177.8550  139.6060 C   0  0  0  0  0  0  0  0  0  0  0  0
  187.0220  177.8810  134.9570 O   0  0  0  0  0  0  0  0  0  0  0  0
  185.2130  179.0140  141.3450 C   0  0  0  0  0  0  0  0  0  0  0  0
  185.7520  177.8340  137.7500 N   0  0  0  0  0  2  0  0  0  0  0  0
  182.5360  178.0340  139.2340 C   0  0  0  0  0  0  0  0  0  0  0  0
  183.3230  180.3130  138.9520 C   0  0  0  0  0  3  0  0  0  0  0  0
  181.0680  179.7250  138.3050 C   0  0  0  0  0  3  0  0  0  0  0  0
  181.8550  181.9580  138.0480 F   0  0  0  0  0  0  0  0  0  0  0  0
  183.5680  178.9900  139.3470 C   0  0  0  0  0  0  0  0  0  0  0  0
  181.2940  178.4080  138.7110 C   0  0  0  0  0  3  0  0  0  0  0  0
  182.7200  176.6950  139.6850 N   0  0  0  0  0  1  0  0  0  0  0  0
  182.0800  180.6780  138.4290 C   0  0  0  0  0  0  0  0  0  0  0  0
  186.9750  178.8840  143.1470 C   0  0  0  0  0  2  0  0  0  0  0  0
  187.5920  176.9470  144.7580 C   0  0  1  0  0  3  0  0  0  0  0  0
  186.9730  178.1120  145.5140 C   0  0  0  0  0  2  0  0  0  0  0  0
  186.4870  177.8030  144.1140 C   0  0  1  0  0  3  0  0  0  0  0  0
  188.9300  175.3680  142.7910 F   0  0  0  0  0  0  0  0  0  0  0  0
  188.9930  177.2480  144.2810 C   0  0  0  0  0  0  0  0  0  0  0  0
  189.6020  176.4180  143.3240 C   0  0  0  0  0  0  0  0  0  0  0  0
  191.6260  177.7460  143.4450 C   0  0  0  0  0  3  0  0  0  0  0  0
  191.0330  178.5660  144.4070 C   0  0  0  0  0  3  0  0  0  0  0  0
  189.7250  178.3140  144.8290 C   0  0  0  0  0  3  0  0  0  0  0  0
  190.9120  176.6720  142.9070 C   0  0  0  0  0  3  0  0  0  0  0  0
  1 14  1  0  0  0  0
  2 24  1  0  0  0  0
  3  4  1  0  0  0  0
  4  7  1  0  0  0  0
  6 11  1  6  0  0  0
  6 12  1  0  0  0  0
  7 11  1  0  0  0  0
  8 12  1  0  0  0  0
  8  1  2  0  0  0  0
  9  3  1  6  0  0  0
  9 15  1  0  0  0  0
  9  6  1  0  0  0  0
 10  2  1  0  0  0  0
 12 10  2  0  0  0  0
 13  3  2  0  0  0  0
 14  2  1  0  0  0  0
 14  5  2  0  0  0  0
 15  8  1  0  0  0  0
 16 20  1  0  0  0  0
 16 22  1  0  0  0  0
 17 20  2  0  0  0  0
 18 23  2  0  0  0  0
 18 21  1  0  0  0  0
 19 23  1  0  0  0  0
 20  1  1  0  0  0  0
 21 16  2  0  0  0  0
 23 17  1  0  0  0  0
 25 29  1  6  0  0  0
 25 26  1  0  0  0  0
 27 24  1  6  0  0  0
 27 25  1  0  0  0  0
 27 26  1  0  0  0  0
 28 30  1  0  0  0  0
 29 33  1  0  0  0  0
 30 29  2  0  0  0  0
 31 32  1  0  0  0  0
 32 33  2  0  0  0  0
 34 30  1  0  0  0  0
 34 31  2  0  0  0  0
M  END
>  <MODEL>
6

>  <REMARK>
 VINA RESULT:      -8.7      2.614      5.276
  Name = 
  4 active torsions:
  status: ('A' for Active; 'I' for Inactive)
    1  A    between atoms: C_3  and  C_13
    2  A    between atoms: C_4  and  C_15
    3  A    between atoms: N_5  and  C_18
    4  A    between atoms: C_18  and  C_29
                            x       y       z     vdW  Elec       q    Type
                         _______ _______ _______ _____ _____    ______ ____

>  <TORSDO>
F 4

$$$$
=
 OpenBabel10262423583D

 34 39  0  0  1  0  0  0  0  0999 V2000
  185.2770  178.5330  139.8580 C   0  0  0  0  0  0  0  0  0  0  0  0
  187.1840  178.3420  141.4800 N   0  0  0  0  0  0  0  0  0  0  0  0
  187.2760  177.9460  135.7080 C   0  0  0  0  0  0  0  0  0  0  0  0
  188.3180  178.9210  135.7420 N   0  0  0  0  0  2  0  0  0  0  0  0
  184.9480  178.3380  142.2130 O   0  0  0  0  0  0  0  0  0  0  0  0
  188.0840  177.0700  138.0000 C   0  0  1  0  0  3  0  0  0  0  0  0
  189.0560  179.1630  136.9710 C   0  0  0  0  0  2  0  0  0  0  0  0
  186.0910  177.9840  138.9460 C   0  0  0  0  0  0  0  0  0  0  0  0
  186.9400  177.1410  136.9320 C   0  0  1  0  0  3  0  0  0  0  0  0
  187.9860  177.7850  140.4270 C   0  0  0  0  0  3  0  0  0  0  0  0
  189.3700  177.8280  137.6290 C   0  0  0  0  0  2  0  0  0  0  0  0
  187.4490  177.6300  139.2240 C   0  0  0  0  0  0  0  0  0  0  0  0
  186.6270  177.7650  134.6470 O   0  0  0  0  0  0  0  0  0  0  0  0
  185.8170  178.8490  141.2450 C   0  0  0  0  0  0  0  0  0  0  0  0
  185.7700  177.7210  137.5930 N   0  0  0  0  0  2  0  0  0  0  0  0
  182.8120  178.0550  139.5490 C   0  0  0  0  0  0  0  0  0  0  0  0
  183.6770  180.2890  139.1490 C   0  0  0  0  0  3  0  0  0  0  0  0
  181.3210  179.8340  138.8450 C   0  0  0  0  0  3  0  0  0  0  0  0
  182.1880  182.0200  138.4700 F   0  0  0  0  0  0  0  0  0  0  0  0
  183.9020  178.9510  139.5050 C   0  0  0  0  0  0  0  0  0  0  0  0
  181.5300  178.5040  139.2150 C   0  0  0  0  0  3  0  0  0  0  0  0
  182.9850  176.7060  139.9700 N   0  0  0  0  0  1  0  0  0  0  0  0
  182.3930  180.7270  138.8160 C   0  0  0  0  0  0  0  0  0  0  0  0
  187.8100  178.5920  142.7710 C   0  0  0  0  0  2  0  0  0  0  0  0
  188.7220  176.9140  144.5260 C   0  0  1  0  0  3  0  0  0  0  0  0
  188.0970  176.1860  143.3460 C   0  0  0  0  0  2  0  0  0  0  0  0
  188.8210  177.4930  143.1040 C   0  0  1  0  0  3  0  0  0  0  0  0
  189.3570  178.0370  147.0730 F   0  0  0  0  0  0  0  0  0  0  0  0
  187.6890  177.5690  145.4120 C   0  0  0  0  0  0  0  0  0  0  0  0
  188.0650  178.0850  146.6640 C   0  0  0  0  0  0  0  0  0  0  0  0
  185.7670  178.7160  147.1050 C   0  0  0  0  0  3  0  0  0  0  0  0
  185.3840  178.1930  145.8690 C   0  0  0  0  0  3  0  0  0  0  0  0
  186.3390  177.6150  145.0290 C   0  0  0  0  0  3  0  0  0  0  0  0
  187.1050  178.6600  147.5030 C   0  0  0  0  0  3  0  0  0  0  0  0
  1 14  1  0  0  0  0
  2 24  1  0  0  0  0
  3  4  1  0  0  0  0
  4  7  1  0  0  0  0
  6 11  1  6  0  0  0
  6 12  1  0  0  0  0
  7 11  1  0  0  0  0
  8 12  1  0  0  0  0
  8  1  2  0  0  0  0
  9  3  1  6  0  0  0
  9 15  1  0  0  0  0
  9  6  1  0  0  0  0
 10  2  1  0  0  0  0
 12 10  2  0  0  0  0
 13  3  2  0  0  0  0
 14  2  1  0  0  0  0
 14  5  2  0  0  0  0
 15  8  1  0  0  0  0
 16 22  1  0  0  0  0
 17 20  2  0  0  0  0
 18 21  1  0  0  0  0
 19 23  1  0  0  0  0
 20 16  1  0  0  0  0
 20  1  1  0  0  0  0
 21 16  2  0  0  0  0
 23 18  2  0  0  0  0
 23 17  1  0  0  0  0
 25 29  1  1  0  0  0
 26 25  1  0  0  0  0
 27 24  1  1  0  0  0
 27 26  1  0  0  0  0
 27 25  1  0  0  0  0
 29 30  1  0  0  0  0
 30 28  1  0  0  0  0
 30 34  2  0  0  0  0
 31 34  1  0  0  0  0
 32 31  2  0  0  0  0
 33 29  2  0  0  0  0
 33 32  1  0  0  0  0
M  END
>  <MODEL>
7

>  <REMARK>
 VINA RESULT:      -8.5      2.644      5.039
  Name = 
  4 active torsions:
  status: ('A' for Active; 'I' for Inactive)
    1  A    between atoms: C_3  and  C_13
    2  A    between atoms: C_4  and  C_15
    3  A    between atoms: N_5  and  C_18
    4  A    between atoms: C_18  and  C_29
                            x       y       z     vdW  Elec       q    Type
                         _______ _______ _______ _____ _____    ______ ____

>  <TORSDO>
F 4

$$$$
=
 OpenBabel10262423583D

 34 39  0  0  1  0  0  0  0  0999 V2000
  189.3960  176.8520  138.3080 C   0  0  0  0  0  0  0  0  0  0  0  0
  191.8740  176.4640  138.4330 N   0  0  0  0  0  0  0  0  0  0  0  0
  188.1160  177.3370  142.7450 C   0  0  0  0  0  0  0  0  0  0  0  0
  188.6490  176.1530  143.3360 N   0  0  0  0  0  2  0  0  0  0  0  0
  190.8060  176.9080  136.3840 O   0  0  0  0  0  0  0  0  0  0  0  0
  190.4320  177.8020  141.6990 C   0  0  1  0  0  3  0  0  0  0  0  0
  189.9450  175.6430  142.9180 C   0  0  0  0  0  2  0  0  0  0  0  0
  189.4720  177.2820  139.5750 C   0  0  0  0  0  0  0  0  0  0  0  0
  188.8900  178.0860  141.6970 C   0  0  1  0  0  3  0  0  0  0  0  0
  191.8470  176.9160  139.7960 C   0  0  0  0  0  3  0  0  0  0  0  0
  190.9110  176.8100  142.7720 C   0  0  0  0  0  2  0  0  0  0  0  0
  190.6900  177.2940  140.3240 C   0  0  0  0  0  0  0  0  0  0  0  0
  186.9820  177.7530  143.0960 O   0  0  0  0  0  0  0  0  0  0  0  0
  190.6430  176.3010  137.6320 C   0  0  0  0  0  0  0  0  0  0  0  0
  188.3890  177.7290  140.3690 N   0  0  0  0  0  2  0  0  0  0  0  0
  187.4890  177.9360  137.0470 C   0  0  0  0  0  0  0  0  0  0  0  0
  187.4830  175.5390  137.4370 C   0  0  0  0  0  3  0  0  0  0  0  0
  185.6540  176.5730  136.2380 C   0  0  0  0  0  3  0  0  0  0  0  0
  185.6730  174.2220  136.6210 F   0  0  0  0  0  0  0  0  0  0  0  0
  188.1010  176.7880  137.5960 C   0  0  0  0  0  0  0  0  0  0  0  0
  186.2680  177.8190  136.3750 C   0  0  0  0  0  3  0  0  0  0  0  0
  188.1150  179.2130  137.1270 N   0  0  0  0  0  1  0  0  0  0  0  0
  186.2630  175.4330  136.7650 C   0  0  0  0  0  0  0  0  0  0  0  0
  193.1310  175.9670  137.8910 C   0  0  0  0  0  2  0  0  0  0  0  0
  193.9260  174.0990  136.2760 C   0  0  1  0  0  3  0  0  0  0  0  0
  194.2400  173.7440  137.7210 C   0  0  0  0  0  2  0  0  0  0  0  0
  192.9780  174.5210  137.4120 C   0  0  1  0  0  3  0  0  0  0  0  0
  192.9830  176.1430  134.5190 F   0  0  0  0  0  0  0  0  0  0  0  0
  194.8160  175.1980  135.7460 C   0  0  0  0  0  0  0  0  0  0  0  0
  194.2940  176.1630  134.8680 C   0  0  0  0  0  0  0  0  0  0  0  0
  196.4780  177.1970  134.6860 C   0  0  0  0  0  3  0  0  0  0  0  0
  197.0070  176.2340  135.5470 C   0  0  0  0  0  3  0  0  0  0  0  0
  196.1830  175.2340  136.0680 C   0  0  0  0  0  3  0  0  0  0  0  0
  195.1230  177.1600  134.3460 C   0  0  0  0  0  3  0  0  0  0  0  0
  1  8  2  0  0  0  0
  2 10  1  0  0  0  0
  3 13  2  0  0  0  0
  3  4  1  0  0  0  0
  5 14  2  0  0  0  0
  6 11  1  1  0  0  0
  7  4  1  0  0  0  0
  8 12  1  0  0  0  0
  8 15  1  0  0  0  0
  9 15  1  6  0  0  0
  9  6  1  0  0  0  0
  9  3  1  0  0  0  0
 10 12  2  0  0  0  0
 11  7  1  0  0  0  0
 12  6  1  0  0  0  0
 14  1  1  0  0  0  0
 14  2  1  0  0  0  0
 16 22  1  0  0  0  0
 16 20  1  0  0  0  0
 17 20  2  0  0  0  0
 18 21  1  0  0  0  0
 18 23  2  0  0  0  0
 19 23  1  0  0  0  0
 20  1  1  0  0  0  0
 21 16  2  0  0  0  0
 23 17  1  0  0  0  0
 24  2  1  0  0  0  0
 25 29  1  1  0  0  0
 25 27  1  0  0  0  0
 25 26  1  0  0  0  0
 27 26  1  0  0  0  0
 27 24  1  1  0  0  0
 28 30  1  0  0  0  0
 29 33  1  0  0  0  0
 30 29  2  0  0  0  0
 31 32  1  0  0  0  0
 32 33  2  0  0  0  0
 34 31  2  0  0  0  0
 34 30  1  0  0  0  0
M  END
>  <MODEL>
8

>  <REMARK>
 VINA RESULT:      -8.4      4.095      7.445
  Name = 
  4 active torsions:
  status: ('A' for Active; 'I' for Inactive)
    1  A    between atoms: C_3  and  C_13
    2  A    between atoms: C_4  and  C_15
    3  A    between atoms: N_5  and  C_18
    4  A    between atoms: C_18  and  C_29
                            x       y       z     vdW  Elec       q    Type
                         _______ _______ _______ _____ _____    ______ ____

>  <TORSDO>
F 4

$$$$
=
 OpenBabel10262423583D

 34 39  0  0  1  0  0  0  0  0999 V2000
  188.0030  178.2020  141.3270 C   0  0  0  0  0  0  0  0  0  0  0  0
  185.8380  178.6470  140.1340 N   0  0  0  0  0  0  0  0  0  0  0  0
  190.6270  176.0910  138.1310 C   0  0  0  0  0  0  0  0  0  0  0  0
  189.7800  175.0200  137.7150 N   0  0  0  0  0  2  0  0  0  0  0  0
  186.3050  179.6180  142.2250 O   0  0  0  0  0  0  0  0  0  0  0  0
  188.6670  177.7290  137.7480 C   0  0  1  0  0  3  0  0  0  0  0  0
  188.3480  175.2290  137.5780 C   0  0  0  0  0  2  0  0  0  0  0  0
  188.5400  177.9840  140.1190 C   0  0  0  0  0  0  0  0  0  0  0  0
  190.0580  177.4520  138.4150 C   0  0  1  0  0  3  0  0  0  0  0  0
  186.5000  178.3670  138.8900 C   0  0  0  0  0  3  0  0  0  0  0  0
  188.1060  176.5720  136.9050 C   0  0  0  0  0  2  0  0  0  0  0  0
  187.7870  178.0450  138.9060 C   0  0  0  0  0  0  0  0  0  0  0  0
  191.8610  175.8910  138.2710 O   0  0  0  0  0  0  0  0  0  0  0  0
  186.5110  178.4810  141.4390 C   0  0  0  0  0  0  0  0  0  0  0  0
  189.8830  177.6180  139.8600 N   0  0  0  0  0  2  0  0  0  0  0  0
  188.5810  177.0050  143.4790 C   0  0  0  0  0  0  0  0  0  0  0  0
  189.8370  178.9710  142.8060 C   0  0  0  0  0  3  0  0  0  0  0  0
  190.3880  177.8340  144.8680 C   0  0  0  0  0  3  0  0  0  0  0  0
  191.6150  179.7560  144.1830 F   0  0  0  0  0  0  0  0  0  0  0  0
  188.8040  178.0550  142.5620 C   0  0  0  0  0  0  0  0  0  0  0  0
  189.3740  176.9050  144.6280 C   0  0  0  0  0  3  0  0  0  0  0  0
  187.5870  176.0140  143.2370 N   0  0  0  0  0  1  0  0  0  0  0  0
  190.6230  178.8630  143.9560 C   0  0  0  0  0  0  0  0  0  0  0  0
  184.4060  178.9100  140.1150 C   0  0  0  0  0  2  0  0  0  0  0  0
  182.1380  177.6700  140.3270 C   0  0  1  0  0  3  0  0  0  0  0  0
  183.1550  176.8260  139.5740 C   0  0  0  0  0  2  0  0  0  0  0  0
  183.6310  177.7250  140.6950 C   0  0  1  0  0  3  0  0  0  0  0  0
  180.7720  179.8950  141.4820 F   0  0  0  0  0  0  0  0  0  0  0  0
  181.6380  178.8370  139.5100 C   0  0  0  0  0  0  0  0  0  0  0  0
  180.9550  179.8930  140.1380 C   0  0  0  0  0  0  0  0  0  0  0  0
  180.6300  180.9740  137.9940 C   0  0  0  0  0  3  0  0  0  0  0  0
  181.2940  179.9220  137.3610 C   0  0  0  0  0  3  0  0  0  0  0  0
  181.7900  178.8540  138.1140 C   0  0  0  0  0  3  0  0  0  0  0  0
  180.4580  180.9570  139.3800 C   0  0  0  0  0  3  0  0  0  0  0  0
  1 14  1  0  0  0  0
  1 20  1  0  0  0  0
  2 14  1  0  0  0  0
  3 13  2  0  0  0  0
  4  3  1  0  0  0  0
  6 11  1  1  0  0  0
  6  9  1  0  0  0  0
  6 12  1  0  0  0  0
  7  4  1  0  0  0  0
  8  1  2  0  0  0  0
  9  3  1  1  0  0  0
  9 15  1  0  0  0  0
 10 12  2  0  0  0  0
 10  2  1  0  0  0  0
 11  7  1  0  0  0  0
 12  8  1  0  0  0  0
 14  5  2  0  0  0  0
 15  8  1  0  0  0  0
 16 21  1  0  0  0  0
 17 23  2  0  0  0  0
 20 17  1  0  0  0  0
 20 16  2  0  0  0  0
 21 18  2  0  0  0  0
 22 16  1  0  0  0  0
 23 19  1  0  0  0  0
 23 18  1  0  0  0  0
 24  2  1  0  0  0  0
 25 29  1  6  0  0  0
 25 27  1  0  0  0  0
 26 25  1  0  0  0  0
 26 27  1  0  0  0  0
 27 24  1  6  0  0  0
 29 30  1  0  0  0  0
 30 28  1  0  0  0  0
 31 34  1  0  0  0  0
 32 31  2  0  0  0  0
 32 33  1  0  0  0  0
 33 29  2  0  0  0  0
 34 30  2  0  0  0  0
M  END
>  <MODEL>
9

>  <REMARK>
 VINA RESULT:      -8.4      2.829      8.100
  Name = 
  4 active torsions:
  status: ('A' for Active; 'I' for Inactive)
    1  A    between atoms: C_3  and  C_13
    2  A    between atoms: C_4  and  C_15
    3  A    between atoms: N_5  and  C_18
    4  A    between atoms: C_18  and  C_29
                            x       y       z     vdW  Elec       q    Type
                         _______ _______ _______ _____ _____    ______ ____

>  <TORSDO>
F 4

$$$$
