=
 OpenBabel10272413223D

 32 36  0  0  1  0  0  0  0  0999 V2000
  191.0730  175.4630  135.6560 C   0  0  0  0  0  2  0  0  0  0  0  0
  186.4460  177.5740  137.5610 C   0  0  0  0  0  2  0  0  0  0  0  0
  191.1030  177.2030  139.9570 C   0  0  0  0  0  3  0  0  0  0  0  0
  190.2340  176.8080  140.9680 C   0  0  0  0  0  3  0  0  0  0  0  0
  184.5110  178.0800  139.1100 C   0  0  0  0  0  0  0  0  0  0  0  0
  184.0870  178.4430  140.4610 C   0  0  0  0  0  0  0  0  0  0  0  0
  187.9900  175.9870  136.5280 C   0  0  1  0  0  3  0  0  0  0  0  0
  188.7840  178.2360  136.0770 C   0  0  0  0  0  2  0  0  0  0  0  0
  184.1990  178.9410  142.5950 C   0  0  0  0  0  0  0  0  0  0  0  0
  189.9780  176.4520  135.2640 C   0  0  0  0  0  2  0  0  0  0  0  0
  190.6340  177.9920  138.9100 C   0  0  0  0  0  3  0  0  0  0  0  0
  188.8630  179.4640  137.4670 S   0  0  0  0  0  0  0  0  0  0  0  0
  189.2910  178.3840  138.8440 C   0  0  0  0  0  0  0  0  0  0  0  0
  186.9290  178.3560  139.9650 C   0  0  0  0  0  0  0  0  0  0  0  0
  182.8130  178.7770  142.3110 N   0  0  0  0  0  0  0  0  0  0  0  0
  189.2190  173.9600  135.9470 O   0  0  0  0  0  0  0  0  0  0  0  0
  189.1900  176.8660  136.4230 N   0  0  2  0  0  0  0  0  0  0  0  0
  182.7420  178.4790  141.0480 C   0  0  0  0  0  3  0  0  0  0  0  0
  188.3790  174.5480  136.8990 C   0  0  0  0  0  2  0  0  0  0  0  0
  190.5110  174.2550  136.3970 C   0  0  1  0  0  3  0  0  0  0  0  0
  188.8990  177.2080  140.9330 C   0  0  0  0  0  3  0  0  0  0  0  0
  188.3900  178.0050  139.8880 C   0  0  0  0  0  0  0  0  0  0  0  0
  186.4180  178.6070  141.1910 C   0  0  0  0  0  3  0  0  0  0  0  0
  187.1380  176.4460  137.6670 C   0  0  0  0  0  2  0  0  0  0  0  0
  183.6780  177.6780  138.2540 O   0  0  0  0  0  0  0  0  0  0  0  0
  184.6620  179.2080  143.7350 O   0  0  0  0  0  0  0  0  0  0  0  0
  185.9620  178.3200  138.7590 C   0  0  1  0  0  3  0  0  0  0  0  0
  184.9670  178.7350  141.3910 C   0  0  0  0  0  0  0  0  0  0  0  0
  191.4270  173.0610  136.2000 C   0  0  0  0  0  2  0  0  0  0  0  0
  193.0530  173.5990  135.5800 S   0  0  0  0  0  0  0  0  0  0  0  0
  194.0320  174.9070  137.7730 C   0  0  0  0  0  1  0  0  0  0  0  0
  193.8340  173.5110  137.2190 C   0  0  0  0  0  2  0  0  0  0  0  0
  1 20  1  0  0  0  0
  2 24  1  0  0  0  0
  3  4  1  0  0  0  0
  5  6  1  0  0  0  0
  6 18  1  0  0  0  0
  6 28  2  0  0  0  0
  7 19  1  1  0  0  0
  7 24  1  0  0  0  0
  8 17  1  0  0  0  0
  8 12  1  0  0  0  0
  9 26  2  0  0  0  0
 10  1  1  0  0  0  0
 11  3  2  0  0  0  0
 12 13  1  0  0  0  0
 13 11  1  0  0  0  0
 13 22  2  0  0  0  0
 14 23  2  0  0  0  0
 15  9  1  0  0  0  0
 16 20  1  0  0  0  0
 16 19  1  0  0  0  0
 17 10  1  6  0  0  0
 17  7  1  0  0  0  0
 18 15  2  0  0  0  0
 20 29  1  6  0  0  0
 21  4  2  0  0  0  0
 22 14  1  0  0  0  0
 22 21  1  0  0  0  0
 23 28  1  0  0  0  0
 25  5  2  0  0  0  0
 27  2  1  6  0  0  0
 27  5  1  0  0  0  0
 27 14  1  0  0  0  0
 28  9  1  0  0  0  0
 30 29  1  0  0  0  0
 30 32  1  0  0  0  0
 32 31  1  0  0  0  0
M  END
>  <MODEL>
1

>  <REMARK>
 VINA RESULT:      -6.2      0.000      0.000
  Name = 
  3 active torsions:
  status: ('A' for Active; 'I' for Inactive)
    1  A    between atoms: S_1  and  C_10
    2  A    between atoms: S_1  and  C_20
    3  A    between atoms: C_10  and  C_24
                            x       y       z     vdW  Elec       q    Type
                         _______ _______ _______ _____ _____    ______ ____

>  <TORSDO>
F 3

$$$$
=
 OpenBabel10272413223D

 32 36  0  0  1  0  0  0  0  0999 V2000
  191.0280  175.4820  135.1400 C   0  0  0  0  0  2  0  0  0  0  0  0
  185.7130  175.4100  136.2500 C   0  0  0  0  0  2  0  0  0  0  0  0
  189.3540  178.8100  137.9050 C   0  0  0  0  0  3  0  0  0  0  0  0
  188.6390  178.5720  139.0740 C   0  0  0  0  0  3  0  0  0  0  0  0
  183.5410  175.4900  137.5470 C   0  0  0  0  0  0  0  0  0  0  0  0
  182.7470  176.1780  138.5630 C   0  0  0  0  0  0  0  0  0  0  0  0
  188.0140  174.6300  135.9920 C   0  0  1  0  0  3  0  0  0  0  0  0
  187.6090  176.3810  134.3620 C   0  0  0  0  0  2  0  0  0  0  0  0
  182.1850  177.6290  140.1090 C   0  0  0  0  0  0  0  0  0  0  0  0
  189.6770  175.3880  134.4360 C   0  0  0  0  0  2  0  0  0  0  0  0
  188.7530  178.5900  136.6690 C   0  0  0  0  0  3  0  0  0  0  0  0
  186.7840  177.9530  134.9070 S   0  0  0  0  0  0  0  0  0  0  0  0
  187.4390  178.1130  136.5770 C   0  0  0  0  0  0  0  0  0  0  0  0
  185.2650  177.3870  137.8360 C   0  0  0  0  0  0  0  0  0  0  0  0
  181.1620  176.6390  140.1220 N   0  0  0  0  0  0  0  0  0  0  0  0
  190.1910  173.6020  136.3840 O   0  0  0  0  0  0  0  0  0  0  0  0
  188.5870  175.8230  135.3070 N   0  0  2  0  0  0  0  0  0  0  0  0
  181.4920  175.7750  139.2080 C   0  0  0  0  0  3  0  0  0  0  0  0
  189.0080  174.0270  136.9960 C   0  0  0  0  0  2  0  0  0  0  0  0
  191.0380  174.7140  136.4570 C   0  0  1  0  0  3  0  0  0  0  0  0
  187.3220  178.1200  139.0040 C   0  0  0  0  0  3  0  0  0  0  0  0
  186.6830  177.8850  137.7700 C   0  0  0  0  0  0  0  0  0  0  0  0
  184.4780  177.8900  138.8140 C   0  0  0  0  0  3  0  0  0  0  0  0
  186.8510  175.0530  136.8310 C   0  0  0  0  0  2  0  0  0  0  0  0
  183.2100  174.3480  137.1270 O   0  0  0  0  0  0  0  0  0  0  0  0
  182.2220  178.6190  140.8850 O   0  0  0  0  0  0  0  0  0  0  0  0
  184.7000  176.2550  136.9470 C   0  0  1  0  0  3  0  0  0  0  0  0
  183.1600  177.3040  139.0960 C   0  0  0  0  0  0  0  0  0  0  0  0
  192.4550  174.2810  136.7870 C   0  0  0  0  0  2  0  0  0  0  0  0
  193.3290  175.5980  137.6930 S   0  0  0  0  0  0  0  0  0  0  0  0
  192.1870  177.1290  139.6500 C   0  0  0  0  0  1  0  0  0  0  0  0
  191.8220  176.1860  138.5220 C   0  0  0  0  0  2  0  0  0  0  0  0
  1 20  1  0  0  0  0
  2 24  1  0  0  0  0
  3  4  1  0  0  0  0
  5  6  1  0  0  0  0
  6 28  2  0  0  0  0
  6 18  1  0  0  0  0
  7 24  1  1  0  0  0
  7 19  1  0  0  0  0
  8 12  1  0  0  0  0
  9 15  1  0  0  0  0
  9 26  2  0  0  0  0
 10  1  1  0  0  0  0
 10 17  1  0  0  0  0
 11  3  2  0  0  0  0
 12 13  1  0  0  0  0
 13 11  1  0  0  0  0
 13 22  2  0  0  0  0
 14 23  2  0  0  0  0
 16 20  1  0  0  0  0
 16 19  1  0  0  0  0
 17  8  1  6  0  0  0
 17  7  1  0  0  0  0
 18 15  2  0  0  0  0
 20 29  1  6  0  0  0
 21  4  2  0  0  0  0
 22 14  1  0  0  0  0
 22 21  1  0  0  0  0
 23 28  1  0  0  0  0
 25  5  2  0  0  0  0
 27  2  1  1  0  0  0
 27  5  1  0  0  0  0
 27 14  1  0  0  0  0
 28  9  1  0  0  0  0
 29 30  1  0  0  0  0
 30 32  1  0  0  0  0
 32 31  1  0  0  0  0
M  END
>  <MODEL>
2

>  <REMARK>
 VINA RESULT:      -5.8      2.020      2.790
  Name = 
  3 active torsions:
  status: ('A' for Active; 'I' for Inactive)
    1  A    between atoms: S_1  and  C_10
    2  A    between atoms: S_1  and  C_20
    3  A    between atoms: C_10  and  C_24
                            x       y       z     vdW  Elec       q    Type
                         _______ _______ _______ _____ _____    ______ ____

>  <TORSDO>
F 3

$$$$
=
 OpenBabel10272413223D

 32 36  0  0  1  0  0  0  0  0999 V2000
  186.4810  178.4880  137.4560 C   0  0  0  0  0  2  0  0  0  0  0  0
  191.5080  176.5700  136.7210 C   0  0  0  0  0  2  0  0  0  0  0  0
  186.9430  173.9990  136.3790 C   0  0  0  0  0  3  0  0  0  0  0  0
  187.7210  173.0980  137.0960 C   0  0  0  0  0  3  0  0  0  0  0  0
  193.5410  175.0720  136.8830 C   0  0  0  0  0  0  0  0  0  0  0  0
  194.0670  173.7100  136.8190 C   0  0  0  0  0  0  0  0  0  0  0  0
  189.6210  177.7210  137.7610 C   0  0  1  0  0  3  0  0  0  0  0  0
  189.3510  177.8270  135.3520 C   0  0  0  0  0  2  0  0  0  0  0  0
  194.1180  171.5260  136.6150 C   0  0  0  0  0  0  0  0  0  0  0  0
  187.7640  178.8030  136.6910 C   0  0  0  0  0  2  0  0  0  0  0  0
  187.5570  174.9560  135.5750 C   0  0  0  0  0  3  0  0  0  0  0  0
  189.5850  176.2830  134.3460 S   0  0  0  0  0  0  0  0  0  0  0  0
  188.9520  175.0410  135.4860 C   0  0  0  0  0  0  0  0  0  0  0  0
  191.2690  174.0610  136.1990 C   0  0  0  0  0  0  0  0  0  0  0  0
  195.4230  171.9020  137.0420 N   0  0  0  0  0  0  0  0  0  0  0  0
  187.9500  178.4990  139.3600 O   0  0  0  0  0  0  0  0  0  0  0  0
  188.6520  177.6440  136.6310 N   0  0  2  0  0  0  0  0  0  0  0  0
  195.3970  173.1960  137.1670 C   0  0  0  0  0  3  0  0  0  0  0  0
  188.9220  177.5240  139.1160 C   0  0  0  0  0  2  0  0  0  0  0  0
  186.7690  177.9460  138.8510 C   0  0  1  0  0  3  0  0  0  0  0  0
  189.1110  173.1500  137.0030 C   0  0  0  0  0  3  0  0  0  0  0  0
  189.7650  174.1060  136.2000 C   0  0  0  0  0  0  0  0  0  0  0  0
  191.8510  172.8410  136.2440 C   0  0  0  0  0  3  0  0  0  0  0  0
  190.5790  176.5780  137.6690 C   0  0  0  0  0  2  0  0  0  0  0  0
  194.2420  176.0170  137.3360 O   0  0  0  0  0  0  0  0  0  0  0  0
  193.7530  170.3380  136.4160 O   0  0  0  0  0  0  0  0  0  0  0  0
  192.1760  175.3110  136.2790 C   0  0  1  0  0  3  0  0  0  0  0  0
  193.2970  172.7040  136.4720 C   0  0  0  0  0  0  0  0  0  0  0  0
  185.6010  178.2500  139.7710 C   0  0  0  0  0  2  0  0  0  0  0  0
  186.1980  178.8570  141.3810 S   0  0  0  0  0  0  0  0  0  0  0  0
  184.6350  178.5210  143.6000 C   0  0  0  0  0  1  0  0  0  0  0  0
  184.5390  178.8550  142.1260 C   0  0  0  0  0  2  0  0  0  0  0  0
  1 20  1  0  0  0  0
  2 24  1  0  0  0  0
  3  4  1  0  0  0  0
  5 25  2  0  0  0  0
  6  5  1  0  0  0  0
  6 18  1  0  0  0  0
  7 24  1  6  0  0  0
  7 19  1  0  0  0  0
  9 15  1  0  0  0  0
 10  1  1  0  0  0  0
 11  3  2  0  0  0  0
 12  8  1  0  0  0  0
 12 13  1  0  0  0  0
 13 11  1  0  0  0  0
 13 22  2  0  0  0  0
 14 22  1  0  0  0  0
 14 23  2  0  0  0  0
 14 27  1  0  0  0  0
 15 18  2  0  0  0  0
 17  8  1  6  0  0  0
 17 10  1  0  0  0  0
 17  7  1  0  0  0  0
 19 16  1  0  0  0  0
 20 16  1  0  0  0  0
 20 29  1  1  0  0  0
 21  4  2  0  0  0  0
 22 21  1  0  0  0  0
 23 28  1  0  0  0  0
 26  9  2  0  0  0  0
 27  2  1  1  0  0  0
 27  5  1  0  0  0  0
 28  9  1  0  0  0  0
 28  6  2  0  0  0  0
 29 30  1  0  0  0  0
 30 32  1  0  0  0  0
 32 31  1  0  0  0  0
M  END
>  <MODEL>
3

>  <REMARK>
 VINA RESULT:      -5.6      2.752      8.574
  Name = 
  3 active torsions:
  status: ('A' for Active; 'I' for Inactive)
    1  A    between atoms: S_1  and  C_10
    2  A    between atoms: S_1  and  C_20
    3  A    between atoms: C_10  and  C_24
                            x       y       z     vdW  Elec       q    Type
                         _______ _______ _______ _____ _____    ______ ____

>  <TORSDO>
F 3

$$$$
=
 OpenBabel10272413223D

 32 36  0  0  1  0  0  0  0  0999 V2000
  180.3830  180.3340  137.5130 C   0  0  0  0  0  2  0  0  0  0  0  0
  184.8260  178.5550  140.0800 C   0  0  0  0  0  2  0  0  0  0  0  0
  179.9830  179.2150  141.9980 C   0  0  0  0  0  3  0  0  0  0  0  0
  180.7650  179.7550  143.0130 C   0  0  0  0  0  3  0  0  0  0  0  0
  186.6210  178.2890  141.8430 C   0  0  0  0  0  0  0  0  0  0  0  0
  186.9280  178.1230  143.2620 C   0  0  0  0  0  0  0  0  0  0  0  0
  183.3790  179.9670  138.7070 C   0  0  1  0  0  3  0  0  0  0  0  0
  182.6210  177.6700  138.5110 C   0  0  0  0  0  2  0  0  0  0  0  0
  186.6340  177.9280  145.4280 C   0  0  0  0  0  0  0  0  0  0  0  0
  181.5050  179.3110  137.3580 C   0  0  0  0  0  2  0  0  0  0  0  0
  180.5370  178.2910  141.1160 C   0  0  0  0  0  3  0  0  0  0  0  0
  182.4210  176.6480  140.0480 S   0  0  0  0  0  0  0  0  0  0  0  0
  181.8800  177.9060  141.2190 C   0  0  0  0  0  0  0  0  0  0  0  0
  184.1390  178.1130  142.5210 C   0  0  0  0  0  0  0  0  0  0  0  0
  188.0390  178.0640  145.2420 N   0  0  0  0  0  0  0  0  0  0  0  0
  182.2100  181.8810  137.7460 O   0  0  0  0  0  0  0  0  0  0  0  0
  182.1910  179.0700  138.6260 N   0  0  2  0  0  0  0  0  0  0  0  0
  188.2180  178.1830  143.9600 C   0  0  0  0  0  3  0  0  0  0  0  0
  182.9640  181.4410  138.8380 C   0  0  0  0  0  2  0  0  0  0  0  0
  180.8840  181.6390  138.1220 C   0  0  1  0  0  3  0  0  0  0  0  0
  182.0960  179.3670  143.1470 C   0  0  0  0  0  3  0  0  0  0  0  0
  182.6900  178.4360  142.2720 C   0  0  0  0  0  0  0  0  0  0  0  0
  184.5430  178.0420  143.8090 C   0  0  0  0  0  3  0  0  0  0  0  0
  184.1300  179.6800  139.9670 C   0  0  0  0  0  2  0  0  0  0  0  0
  187.5250  178.5750  141.0130 O   0  0  0  0  0  0  0  0  0  0  0  0
  186.0750  177.8200  146.5500 O   0  0  0  0  0  0  0  0  0  0  0  0
  185.2040  177.9890  141.4070 C   0  0  1  0  0  3  0  0  0  0  0  0
  185.9710  177.9560  144.1460 C   0  0  0  0  0  0  0  0  0  0  0  0
  179.9910  182.7860  137.6830 C   0  0  0  0  0  2  0  0  0  0  0  0
  180.5520  183.4550  136.0840 S   0  0  0  0  0  0  0  0  0  0  0  0
  179.9900  185.5690  137.7250 C   0  0  0  0  0  1  0  0  0  0  0  0
  181.0690  185.0440  136.8000 C   0  0  0  0  0  2  0  0  0  0  0  0
  1 20  1  0  0  0  0
  3  4  1  0  0  0  0
  4 21  2  0  0  0  0
  5  6  1  0  0  0  0
  6 18  1  0  0  0  0
  6 28  2  0  0  0  0
  7 19  1  1  0  0  0
  7 24  1  0  0  0  0
  8 17  1  0  0  0  0
  8 12  1  0  0  0  0
  9 26  2  0  0  0  0
 10  1  1  0  0  0  0
 11 13  1  0  0  0  0
 11  3  2  0  0  0  0
 12 13  1  0  0  0  0
 13 22  2  0  0  0  0
 14 23  2  0  0  0  0
 15  9  1  0  0  0  0
 16 20  1  0  0  0  0
 16 19  1  0  0  0  0
 17 10  1  6  0  0  0
 17  7  1  0  0  0  0
 18 15  2  0  0  0  0
 20 29  1  6  0  0  0
 22 14  1  0  0  0  0
 22 21  1  0  0  0  0
 23 28  1  0  0  0  0
 24  2  1  0  0  0  0
 25  5  2  0  0  0  0
 27  2  1  6  0  0  0
 27  5  1  0  0  0  0
 27 14  1  0  0  0  0
 28  9  1  0  0  0  0
 30 32  1  0  0  0  0
 30 29  1  0  0  0  0
 32 31  1  0  0  0  0
M  END
>  <MODEL>
4

>  <REMARK>
 VINA RESULT:      -5.5      5.666      8.991
  Name = 
  3 active torsions:
  status: ('A' for Active; 'I' for Inactive)
    1  A    between atoms: S_1  and  C_10
    2  A    between atoms: S_1  and  C_20
    3  A    between atoms: C_10  and  C_24
                            x       y       z     vdW  Elec       q    Type
                         _______ _______ _______ _____ _____    ______ ____

>  <TORSDO>
F 3

$$$$
=
 OpenBabel10272413223D

 32 36  0  0  1  0  0  0  0  0999 V2000
  185.7850  177.6630  136.2620 C   0  0  0  0  0  2  0  0  0  0  0  0
  191.0870  177.0290  137.2500 C   0  0  0  0  0  2  0  0  0  0  0  0
  187.6760  173.5290  135.3340 C   0  0  0  0  0  3  0  0  0  0  0  0
  188.3760  172.7630  136.2580 C   0  0  0  0  0  3  0  0  0  0  0  0
  193.2620  176.0290  138.0700 C   0  0  0  0  0  0  0  0  0  0  0  0
  194.1020  174.8360  138.1660 C   0  0  0  0  0  0  0  0  0  0  0  0
  188.7400  177.6080  137.6040 C   0  0  1  0  0  3  0  0  0  0  0  0
  189.2530  177.8890  135.2490 C   0  0  0  0  0  2  0  0  0  0  0  0
  194.7590  172.7530  137.9560 C   0  0  0  0  0  0  0  0  0  0  0  0
  187.1260  178.3380  135.9840 C   0  0  0  0  0  2  0  0  0  0  0  0
  188.2590  174.6750  134.8020 C   0  0  0  0  0  3  0  0  0  0  0  0
  190.1780  176.5480  134.3580 S   0  0  0  0  0  0  0  0  0  0  0  0
  189.5390  175.0870  135.1950 C   0  0  0  0  0  0  0  0  0  0  0  0
  191.6650  174.5970  136.6370 C   0  0  0  0  0  0  0  0  0  0  0  0
  195.7160  173.3740  138.8080 N   0  0  0  0  0  0  0  0  0  0  0  0
  186.5020  177.8190  138.5520 O   0  0  0  0  0  0  0  0  0  0  0  0
  188.2440  177.4240  136.2110 N   0  0  2  0  0  0  0  0  0  0  0  0
  195.3300  174.6090  138.9370 C   0  0  0  0  0  3  0  0  0  0  0  0
  187.7110  177.1220  138.6370 C   0  0  0  0  0  2  0  0  0  0  0  0
  185.7290  177.0640  137.6630 C   0  0  1  0  0  3  0  0  0  0  0  0
  189.6610  173.1410  136.6440 C   0  0  0  0  0  3  0  0  0  0  0  0
  190.2810  174.2960  136.1280 C   0  0  0  0  0  0  0  0  0  0  0  0
  192.4840  173.5440  136.8580 C   0  0  0  0  0  3  0  0  0  0  0  0
  189.9300  176.7300  137.8260 C   0  0  0  0  0  2  0  0  0  0  0  0
  193.5180  177.0590  138.7490 O   0  0  0  0  0  0  0  0  0  0  0  0
  194.7870  171.5390  137.6250 O   0  0  0  0  0  0  0  0  0  0  0  0
  192.1540  176.0070  137.0400 C   0  0  1  0  0  3  0  0  0  0  0  0
  193.7630  173.7200  137.5620 C   0  0  0  0  0  0  0  0  0  0  0  0
  184.2870  177.0000  138.1360 C   0  0  0  0  0  2  0  0  0  0  0  0
  183.6720  175.2870  138.0760 S   0  0  0  0  0  0  0  0  0  0  0  0
  181.5920  177.0270  138.4280 C   0  0  0  0  0  1  0  0  0  0  0  0
  182.1160  175.6950  138.9230 C   0  0  0  0  0  2  0  0  0  0  0  0
  1 20  1  0  0  0  0
  2 24  1  0  0  0  0
  3  4  1  0  0  0  0
  4 21  2  0  0  0  0
  5  6  1  0  0  0  0
  5 25  2  0  0  0  0
  6 18  1  0  0  0  0
  7 24  1  6  0  0  0
  7 19  1  0  0  0  0
  9 15  1  0  0  0  0
 10 17  1  0  0  0  0
 10  1  1  0  0  0  0
 11 13  1  0  0  0  0
 11  3  2  0  0  0  0
 12 13  1  0  0  0  0
 12  8  1  0  0  0  0
 13 22  2  0  0  0  0
 14 23  2  0  0  0  0
 14 27  1  0  0  0  0
 15 18  2  0  0  0  0
 16 19  1  0  0  0  0
 17  8  1  6  0  0  0
 17  7  1  0  0  0  0
 20 29  1  1  0  0  0
 20 16  1  0  0  0  0
 22 14  1  0  0  0  0
 22 21  1  0  0  0  0
 23 28  1  0  0  0  0
 26  9  2  0  0  0  0
 27  2  1  1  0  0  0
 27  5  1  0  0  0  0
 28  9  1  0  0  0  0
 28  6  2  0  0  0  0
 30 29  1  0  0  0  0
 30 32  1  0  0  0  0
 31 32  1  0  0  0  0
M  END
>  <MODEL>
5

>  <REMARK>
 VINA RESULT:      -5.0      3.069      8.301
  Name = 
  3 active torsions:
  status: ('A' for Active; 'I' for Inactive)
    1  A    between atoms: S_1  and  C_10
    2  A    between atoms: S_1  and  C_20
    3  A    between atoms: C_10  and  C_24
                            x       y       z     vdW  Elec       q    Type
                         _______ _______ _______ _____ _____    ______ ____

>  <TORSDO>
F 3

$$$$
=
 OpenBabel10272413223D

 32 36  0  0  1  0  0  0  0  0999 V2000
  188.1260  178.7470  137.3840 C   0  0  0  0  0  2  0  0  0  0  0  0
  185.6110  174.4870  135.1430 C   0  0  0  0  0  2  0  0  0  0  0  0
  183.7730  177.8610  138.7210 C   0  0  0  0  0  3  0  0  0  0  0  0
  183.3440  176.6430  139.2350 C   0  0  0  0  0  3  0  0  0  0  0  0
  184.2520  172.3650  134.9120 C   0  0  0  0  0  0  0  0  0  0  0  0
  183.0360  171.6440  135.2820 C   0  0  0  0  0  0  0  0  0  0  0  0
  187.3340  175.8020  136.2710 C   0  0  1  0  0  3  0  0  0  0  0  0
  186.1160  177.2630  134.7640 C   0  0  0  0  0  2  0  0  0  0  0  0
  181.1130  171.1970  136.2390 C   0  0  0  0  0  0  0  0  0  0  0  0
  187.8300  178.1370  136.0160 C   0  0  0  0  0  2  0  0  0  0  0  0
  184.0540  177.9780  137.3620 C   0  0  0  0  0  3  0  0  0  0  0  0
  184.2600  177.2160  134.7610 S   0  0  0  0  0  0  0  0  0  0  0  0
  183.9310  176.8810  136.5000 C   0  0  0  0  0  0  0  0  0  0  0  0
  183.2740  174.3660  136.2140 C   0  0  0  0  0  0  0  0  0  0  0  0
  181.5250  169.9830  135.6190 N   0  0  0  0  0  0  0  0  0  0  0  0
  189.0360  176.5690  137.8430 O   0  0  0  0  0  0  0  0  0  0  0  0
  186.7460  177.1600  136.0880 N   0  0  2  0  0  0  0  0  0  0  0  0
  182.6660  170.2420  135.0520 C   0  0  0  0  0  3  0  0  0  0  0  0
  187.9940  175.6560  137.6510 C   0  0  0  0  0  2  0  0  0  0  0  0
  188.4200  177.6790  138.4310 C   0  0  1  0  0  3  0  0  0  0  0  0
  183.1910  175.5460  138.3900 C   0  0  0  0  0  3  0  0  0  0  0  0
  183.4680  175.6270  137.0110 C   0  0  0  0  0  0  0  0  0  0  0  0
  182.2310  173.5760  136.5530 C   0  0  0  0  0  3  0  0  0  0  0  0
  186.2390  174.7850  136.2740 C   0  0  0  0  0  2  0  0  0  0  0  0
  185.2100  171.7740  134.3460 O   0  0  0  0  0  0  0  0  0  0  0  0
  180.0590  171.3250  136.9150 O   0  0  0  0  0  0  0  0  0  0  0  0
  184.2570  173.8620  135.1320 C   0  0  1  0  0  3  0  0  0  0  0  0
  182.0930  172.2260  135.9870 C   0  0  0  0  0  0  0  0  0  0  0  0
  189.3020  178.2590  139.5220 C   0  0  0  0  0  2  0  0  0  0  0  0
  188.7480  177.6910  141.1610 S   0  0  0  0  0  0  0  0  0  0  0  0
  190.2910  176.1700  142.8310 C   0  0  0  0  0  1  0  0  0  0  0  0
  190.1580  176.5640  141.3740 C   0  0  0  0  0  2  0  0  0  0  0  0
  1 20  1  0  0  0  0
  2 24  1  0  0  0  0
  3  4  1  0  0  0  0
  5 27  1  0  0  0  0
  5  6  1  0  0  0  0
  6 28  2  0  0  0  0
  7 24  1  1  0  0  0
  7 19  1  0  0  0  0
  9 26  2  0  0  0  0
 10 17  1  0  0  0  0
 10  1  1  0  0  0  0
 11  3  2  0  0  0  0
 12  8  1  0  0  0  0
 12 13  1  0  0  0  0
 13 22  2  0  0  0  0
 13 11  1  0  0  0  0
 14 23  2  0  0  0  0
 14 22  1  0  0  0  0
 15  9  1  0  0  0  0
 16 20  1  0  0  0  0
 17  8  1  6  0  0  0
 17  7  1  0  0  0  0
 18  6  1  0  0  0  0
 18 15  2  0  0  0  0
 19 16  1  0  0  0  0
 20 29  1  1  0  0  0
 21  4  2  0  0  0  0
 22 21  1  0  0  0  0
 25  5  2  0  0  0  0
 27  2  1  1  0  0  0
 27 14  1  0  0  0  0
 28  9  1  0  0  0  0
 28 23  1  0  0  0  0
 29 30  1  0  0  0  0
 30 32  1  0  0  0  0
 32 31  1  0  0  0  0
M  END
>  <MODEL>
6

>  <REMARK>
 VINA RESULT:      -4.9      4.421      6.757
  Name = 
  3 active torsions:
  status: ('A' for Active; 'I' for Inactive)
    1  A    between atoms: S_1  and  C_10
    2  A    between atoms: S_1  and  C_20
    3  A    between atoms: C_10  and  C_24
                            x       y       z     vdW  Elec       q    Type
                         _______ _______ _______ _____ _____    ______ ____

>  <TORSDO>
F 3

$$$$
=
 OpenBabel10272413223D

 32 36  0  0  1  0  0  0  0  0999 V2000
  188.7600  178.8990  138.1440 C   0  0  0  0  0  2  0  0  0  0  0  0
  188.2940  174.0890  135.6660 C   0  0  0  0  0  2  0  0  0  0  0  0
  184.4930  177.1760  137.5580 C   0  0  0  0  0  3  0  0  0  0  0  0
  184.0850  175.9230  138.0020 C   0  0  0  0  0  3  0  0  0  0  0  0
  187.5650  171.7170  135.1700 C   0  0  0  0  0  0  0  0  0  0  0  0
  186.4530  170.7740  135.0720 C   0  0  0  0  0  0  0  0  0  0  0  0
  189.0670  175.7990  137.2310 C   0  0  1  0  0  3  0  0  0  0  0  0
  188.4460  176.8850  135.1520 C   0  0  0  0  0  2  0  0  0  0  0  0
  184.4100  169.9770  135.1470 C   0  0  0  0  0  0  0  0  0  0  0  0
  189.2270  178.1690  136.8870 C   0  0  0  0  0  2  0  0  0  0  0  0
  185.3390  177.2790  136.4570 C   0  0  0  0  0  3  0  0  0  0  0  0
  186.8320  176.4440  134.3460 S   0  0  0  0  0  0  0  0  0  0  0  0
  185.8070  176.1370  135.7950 C   0  0  0  0  0  0  0  0  0  0  0  0
  185.7820  173.5280  135.6140 C   0  0  0  0  0  0  0  0  0  0  0  0
  185.2550  168.8490  134.9490 N   0  0  0  0  0  0  0  0  0  0  0  0
  189.7090  176.9920  139.2600 O   0  0  0  0  0  0  0  0  0  0  0  0
  188.4100  176.9880  136.6170 N   0  0  2  0  0  0  0  0  0  0  0  0
  186.4680  169.3150  134.9070 C   0  0  0  0  0  3  0  0  0  0  0  0
  189.0380  175.8690  138.7660 C   0  0  0  0  0  2  0  0  0  0  0  0
  188.7170  177.9740  139.3550 C   0  0  1  0  0  3  0  0  0  0  0  0
  184.5210  174.7760  137.3420 C   0  0  0  0  0  3  0  0  0  0  0  0
  185.3790  174.8420  136.2260 C   0  0  0  0  0  0  0  0  0  0  0  0
  184.8470  172.5530  135.5730 C   0  0  0  0  0  3  0  0  0  0  0  0
  188.2770  174.5730  136.9020 C   0  0  0  0  0  2  0  0  0  0  0  0
  188.7590  171.3150  135.1710 O   0  0  0  0  0  0  0  0  0  0  0  0
  183.1590  169.9130  135.2690 O   0  0  0  0  0  0  0  0  0  0  0  0
  187.2190  173.1900  135.1540 C   0  0  1  0  0  3  0  0  0  0  0  0
  185.2100  171.1770  135.2030 C   0  0  0  0  0  0  0  0  0  0  0  0
  188.8940  178.7860  140.6260 C   0  0  0  0  0  2  0  0  0  0  0  0
  188.0560  177.9720  142.0240 S   0  0  0  0  0  0  0  0  0  0  0  0
  190.2240  176.4150  142.6230 C   0  0  0  0  0  1  0  0  0  0  0  0
  189.5960  177.7500  142.9660 C   0  0  0  0  0  2  0  0  0  0  0  0
  1 20  1  0  0  0  0
  2 24  1  0  0  0  0
  3  4  1  0  0  0  0
  5 25  2  0  0  0  0
  6  5  1  0  0  0  0
  6 28  2  0  0  0  0
  7 24  1  1  0  0  0
  7 19  1  0  0  0  0
  9 28  1  0  0  0  0
  9 26  2  0  0  0  0
 10  1  1  0  0  0  0
 11  3  2  0  0  0  0
 12  8  1  0  0  0  0
 12 13  1  0  0  0  0
 13 22  2  0  0  0  0
 13 11  1  0  0  0  0
 14 22  1  0  0  0  0
 15  9  1  0  0  0  0
 16 20  1  0  0  0  0
 17  8  1  6  0  0  0
 17 10  1  0  0  0  0
 17  7  1  0  0  0  0
 18 15  2  0  0  0  0
 18  6  1  0  0  0  0
 19 16  1  0  0  0  0
 20 29  1  1  0  0  0
 21  4  2  0  0  0  0
 22 21  1  0  0  0  0
 23 14  2  0  0  0  0
 27  5  1  0  0  0  0
 27 14  1  0  0  0  0
 27  2  1  1  0  0  0
 28 23  1  0  0  0  0
 29 30  1  0  0  0  0
 30 32  1  0  0  0  0
 31 32  1  0  0  0  0
M  END
>  <MODEL>
7

>  <REMARK>
 VINA RESULT:      -4.6      3.683      7.271
  Name = 
  3 active torsions:
  status: ('A' for Active; 'I' for Inactive)
    1  A    between atoms: S_1  and  C_10
    2  A    between atoms: S_1  and  C_20
    3  A    between atoms: C_10  and  C_24
                            x       y       z     vdW  Elec       q    Type
                         _______ _______ _______ _____ _____    ______ ____

>  <TORSDO>
F 3

$$$$
