=
 OpenBabel10272400033D

 34 39  0  0  1  0  0  0  0  0999 V2000
  181.9110  180.2400  139.4660 C   0  0  2  0  0  3  0  0  0  0  0  0
  181.4100  177.7710  139.8940 C   0  0  1  0  0  3  0  0  0  0  0  0
  183.4570  178.8790  140.8490 C   0  0  0  0  0  0  0  0  0  0  0  0
  185.2270  178.6570  142.4690 C   0  0  0  0  0  0  0  0  0  0  0  0
  179.9820  179.0890  138.3210 C   0  0  0  0  0  2  0  0  0  0  0  0
  179.9910  178.0040  139.3890 C   0  0  0  0  0  2  0  0  0  0  0  0
  182.9150  178.8510  143.1790 C   0  0  0  0  0  3  0  0  0  0  0  0
  182.0080  179.0690  140.4700 C   0  0  1  0  0  3  0  0  0  0  0  0
  183.3170  178.7670  144.5130 C   0  0  0  0  0  3  0  0  0  0  0  0
  185.6200  178.5730  143.8070 C   0  0  0  0  0  3  0  0  0  0  0  0
  180.4970  180.3980  138.9090 C   0  0  0  0  0  2  0  0  0  0  0  0
  184.4400  178.8440  139.6960 C   0  0  2  0  0  3  0  0  0  0  0  0
  182.9430  180.1020  138.3380 C   0  0  0  0  0  2  0  0  0  0  0  0
  181.3710  176.6790  140.9490 C   0  0  0  0  0  1  0  0  0  0  0  0
  186.1670  178.6050  141.5270 C   0  0  0  0  0  3  0  0  0  0  0  0
  185.8290  178.6890  140.1340 N   0  0  0  0  0  0  0  0  0  0  0  0
  184.6750  178.6270  144.8340 C   0  0  0  0  0  0  0  0  0  0  0  0
  183.8570  178.7950  142.1370 C   0  0  0  0  0  0  0  0  0  0  0  0
  184.2960  180.0620  138.8940 N   0  0  0  0  0  2  0  0  0  0  0  0
  187.6010  177.1780  137.1570 C   0  0  0  0  0  0  0  0  0  0  0  0
  188.9250  177.3440  137.5840 O   0  0  0  0  0  0  0  0  0  0  0  0
  186.8700  178.5480  139.1190 C   0  0  2  0  0  3  0  0  0  0  0  0
  189.2750  178.1910  138.6770 C   0  0  0  0  0  2  0  0  0  0  0  0
  186.4540  177.5310  138.0550 C   0  0  0  0  0  2  0  0  0  0  0  0
  188.2020  178.1660  139.7560 C   0  0  0  0  0  2  0  0  0  0  0  0
  187.3650  176.6240  136.0160 N   0  0  0  0  0  2  0  0  0  0  0  0
  185.1100  178.5420  146.1590 O   0  0  0  0  0  0  0  0  0  0  0  0
  186.0200  177.5450  146.6060 C   0  0  0  0  0  2  0  0  0  0  0  0
  189.0530  177.8380  144.9620 C   0  0  0  0  0  1  0  0  0  0  0  0
  188.4550  177.2200  146.2100 C   0  0  2  0  0  3  0  0  0  0  0  0
  189.2090  178.0630  148.3630 C   0  0  0  0  0  2  0  0  0  0  0  0
  187.7230  178.3080  148.2530 C   0  0  0  0  0  2  0  0  0  0  0  0
  187.4010  178.1500  146.7820 C   0  0  2  0  0  3  0  0  0  0  0  0
  189.5320  177.0660  147.2700 C   0  0  0  0  0  2  0  0  0  0  0  0
  1 13  1  6  0  0  0
  1  8  1  0  0  0  0
  2  8  1  0  0  0  0
  2 14  1  1  0  0  0
  3 18  2  0  0  0  0
  4 10  1  0  0  0  0
  5 11  1  0  0  0  0
  5  6  1  0  0  0  0
  6  2  1  0  0  0  0
  7  9  2  0  0  0  0
  8  3  1  6  0  0  0
  9 17  1  0  0  0  0
 10 17  2  0  0  0  0
 11  1  1  0  0  0  0
 12 19  1  1  0  0  0
 12 16  1  0  0  0  0
 12  3  1  0  0  0  0
 13 19  1  0  0  0  0
 15  4  2  0  0  0  0
 16 15  1  0  0  0  0
 17 27  1  0  0  0  0
 18  4  1  0  0  0  0
 18  7  1  0  0  0  0
 20 21  1  0  0  0  0
 20 24  1  0  0  0  0
 21 23  1  0  0  0  0
 22 24  1  6  0  0  0
 22 25  1  0  0  0  0
 22 16  1  0  0  0  0
 23 25  1  0  0  0  0
 26 20  2  0  0  0  0
 27 28  1  0  0  0  0
 30 29  1  6  0  0  0
 30 33  1  0  0  0  0
 30 34  1  0  0  0  0
 32 31  1  0  0  0  0
 33 28  1  1  0  0  0
 33 32  1  0  0  0  0
 34 31  1  0  0  0  0
M  END
>  <MODEL>
1

>  <REMARK>
 VINA RESULT:      -9.1      0.000      0.000
  Name = 
  4 active torsions:
  status: ('A' for Active; 'I' for Inactive)
    1  A    between atoms: O_3  and  C_13
    2  A    between atoms: O_3  and  C_29
    3  A    between atoms: C_12  and  N_28
    4  A    between atoms: C_13  and  C_33
                            x       y       z     vdW  Elec       q    Type
                         _______ _______ _______ _____ _____    ______ ____

>  <TORSDO>
F 4

$$$$
=
 OpenBabel10272400033D

 34 39  0  0  1  0  0  0  0  0999 V2000
  186.4500  176.2280  136.7950 C   0  0  2  0  0  3  0  0  0  0  0  0
  187.8260  178.3230  136.3010 C   0  0  1  0  0  3  0  0  0  0  0  0
  187.0390  177.7890  138.6300 C   0  0  0  0  0  0  0  0  0  0  0  0
  187.3270  178.3190  140.9620 C   0  0  0  0  0  0  0  0  0  0  0  0
  187.0390  176.8670  134.4270 C   0  0  0  0  0  2  0  0  0  0  0  0
  188.1810  177.7310  134.9420 C   0  0  0  0  0  2  0  0  0  0  0  0
  189.1280  177.3060  139.6910 C   0  0  0  0  0  3  0  0  0  0  0  0
  187.5200  177.2100  137.3210 C   0  0  1  0  0  3  0  0  0  0  0  0
  189.9370  177.3170  140.8270 C   0  0  0  0  0  3  0  0  0  0  0  0
  188.1450  178.3260  142.0950 C   0  0  0  0  0  3  0  0  0  0  0  0
  186.7860  175.7150  135.3940 C   0  0  0  0  0  2  0  0  0  0  0  0
  185.6120  178.2990  138.6380 C   0  0  2  0  0  3  0  0  0  0  0  0
  185.0460  176.8460  136.8400 C   0  0  0  0  0  2  0  0  0  0  0  0
  188.9880  179.1820  136.7690 C   0  0  0  0  0  1  0  0  0  0  0  0
  186.0900  178.8010  141.0700 C   0  0  0  0  0  3  0  0  0  0  0  0
  185.1980  178.8180  139.9450 N   0  0  0  0  0  0  0  0  0  0  0  0
  189.4490  177.8290  142.0380 C   0  0  0  0  0  0  0  0  0  0  0  0
  187.8150  177.8070  139.7350 C   0  0  0  0  0  0  0  0  0  0  0  0
  184.7080  177.2280  138.2110 N   0  0  0  0  0  2  0  0  0  0  0  0
  181.5110  178.9850  140.7570 C   0  0  0  0  0  0  0  0  0  0  0  0
  181.0920  179.8040  139.7010 O   0  0  0  0  0  0  0  0  0  0  0  0
  183.8760  179.4250  140.0680 C   0  0  2  0  0  3  0  0  0  0  0  0
  182.0100  180.5430  138.8960 C   0  0  0  0  0  2  0  0  0  0  0  0
  182.9290  178.5070  140.8430 C   0  0  0  0  0  2  0  0  0  0  0  0
  183.3070  179.7730  138.6970 C   0  0  0  0  0  2  0  0  0  0  0  0
  180.6450  178.5570  141.6120 N   0  0  0  0  0  2  0  0  0  0  0  0
  190.2330  177.8530  143.1940 O   0  0  0  0  0  0  0  0  0  0  0  0
  189.8000  178.4620  144.4030 C   0  0  0  0  0  2  0  0  0  0  0  0
  186.6370  177.2550  145.1240 C   0  0  0  0  0  1  0  0  0  0  0  0
  187.7850  177.9900  145.7850 C   0  0  2  0  0  3  0  0  0  0  0  0
  188.9440  176.8750  147.6080 C   0  0  0  0  0  2  0  0  0  0  0  0
  189.9390  177.1310  146.5020 C   0  0  0  0  0  2  0  0  0  0  0  0
  189.1030  177.4360  145.2770 C   0  0  2  0  0  3  0  0  0  0  0  0
  187.7510  177.7490  147.2840 C   0  0  0  0  0  2  0  0  0  0  0  0
  1 11  1  6  0  0  0
  1 13  1  0  0  0  0
  1  8  1  0  0  0  0
  2 14  1  1  0  0  0
  2  8  1  0  0  0  0
  3 12  1  0  0  0  0
  3 18  2  0  0  0  0
  4 15  2  0  0  0  0
  4 10  1  0  0  0  0
  5  6  1  0  0  0  0
  5 11  1  0  0  0  0
  6  2  1  0  0  0  0
  7 18  1  0  0  0  0
  7  9  2  0  0  0  0
  8  3  1  1  0  0  0
  9 17  1  0  0  0  0
 12 19  1  1  0  0  0
 12 16  1  0  0  0  0
 13 19  1  0  0  0  0
 16 22  1  0  0  0  0
 16 15  1  0  0  0  0
 17 10  2  0  0  0  0
 17 27  1  0  0  0  0
 18  4  1  0  0  0  0
 20 24  1  0  0  0  0
 20 26  2  0  0  0  0
 21 20  1  0  0  0  0
 22 25  1  6  0  0  0
 22 24  1  0  0  0  0
 23 21  1  0  0  0  0
 25 23  1  0  0  0  0
 27 28  1  0  0  0  0
 30 29  1  6  0  0  0
 30 34  1  0  0  0  0
 32 31  1  0  0  0  0
 33 28  1  6  0  0  0
 33 30  1  0  0  0  0
 33 32  1  0  0  0  0
 34 31  1  0  0  0  0
M  END
>  <MODEL>
2

>  <REMARK>
 VINA RESULT:      -8.6      2.349      5.667
  Name = 
  4 active torsions:
  status: ('A' for Active; 'I' for Inactive)
    1  A    between atoms: O_3  and  C_13
    2  A    between atoms: O_3  and  C_29
    3  A    between atoms: C_12  and  N_28
    4  A    between atoms: C_13  and  C_33
                            x       y       z     vdW  Elec       q    Type
                         _______ _______ _______ _____ _____    ______ ____

>  <TORSDO>
F 4

$$$$
=
 OpenBabel10272400033D

 34 39  0  0  1  0  0  0  0  0999 V2000
  192.6970  176.8800  137.9000 C   0  0  2  0  0  3  0  0  0  0  0  0
  191.4470  174.6600  137.7080 C   0  0  1  0  0  3  0  0  0  0  0  0
  190.3840  176.6760  138.7720 C   0  0  0  0  0  0  0  0  0  0  0  0
  188.2970  177.6270  139.5110 C   0  0  0  0  0  0  0  0  0  0  0  0
  193.8520  174.8100  137.0380 C   0  0  0  0  0  2  0  0  0  0  0  0
  192.5000  174.1890  136.7120 C   0  0  0  0  0  2  0  0  0  0  0  0
  188.6860  177.1690  137.1610 C   0  0  0  0  0  3  0  0  0  0  0  0
  191.3270  176.1960  137.6960 C   0  0  1  0  0  3  0  0  0  0  0  0
  187.4130  177.6530  136.8550 C   0  0  0  0  0  3  0  0  0  0  0  0
  187.0240  178.1090  139.1950 C   0  0  0  0  0  3  0  0  0  0  0  0
  193.7580  176.3290  136.9470 C   0  0  0  0  0  2  0  0  0  0  0  0
  190.9310  176.6510  140.1850 C   0  0  2  0  0  3  0  0  0  0  0  0
  193.1590  176.7900  139.3610 C   0  0  0  0  0  2  0  0  0  0  0  0
  190.1220  174.0100  137.3490 C   0  0  0  0  0  1  0  0  0  0  0  0
  188.6810  177.6370  140.7860 C   0  0  0  0  0  3  0  0  0  0  0  0
  189.9780  177.1600  141.1760 N   0  0  0  0  0  0  0  0  0  0  0  0
  186.5740  178.1260  137.8740 C   0  0  0  0  0  0  0  0  0  0  0  0
  189.1490  177.1450  138.4880 C   0  0  0  0  0  0  0  0  0  0  0  0
  192.1760  177.4220  140.2410 N   0  0  0  0  0  2  0  0  0  0  0  0
  189.4400  177.2910  144.9140 C   0  0  0  0  0  0  0  0  0  0  0  0
  190.6270  177.9340  145.2830 O   0  0  0  0  0  0  0  0  0  0  0  0
  190.3440  177.1060  142.5880 C   0  0  2  0  0  3  0  0  0  0  0  0
  191.7320  178.0700  144.3910 C   0  0  0  0  0  2  0  0  0  0  0  0
  189.0950  177.0830  143.4700 C   0  0  0  0  0  2  0  0  0  0  0  0
  191.2580  178.2690  142.9580 C   0  0  0  0  0  2  0  0  0  0  0  0
  188.5870  176.9590  145.8240 N   0  0  0  0  0  2  0  0  0  0  0  0
  185.2950  178.6180  137.6010 O   0  0  0  0  0  0  0  0  0  0  0  0
  184.1120  177.9870  138.0740 C   0  0  0  0  0  2  0  0  0  0  0  0
  184.1540  178.2250  141.5270 C   0  0  0  0  0  1  0  0  0  0  0  0
  183.2060  177.9030  140.3900 C   0  0  2  0  0  3  0  0  0  0  0  0
  181.3330  179.4080  140.0180 C   0  0  0  0  0  2  0  0  0  0  0  0
  182.1910  179.4050  138.7760 C   0  0  0  0  0  2  0  0  0  0  0  0
  183.5110  178.8010  139.2050 C   0  0  2  0  0  3  0  0  0  0  0  0
  181.7790  178.2000  140.8150 C   0  0  0  0  0  2  0  0  0  0  0  0
  1 11  1  6  0  0  0
  1 13  1  0  0  0  0
  2 14  1  6  0  0  0
  4 15  2  0  0  0  0
  6  5  1  0  0  0  0
  6  2  1  0  0  0  0
  7 18  1  0  0  0  0
  8  2  1  0  0  0  0
  8  1  1  0  0  0  0
  8  3  1  1  0  0  0
  9  7  2  0  0  0  0
  9 17  1  0  0  0  0
 10  4  1  0  0  0  0
 11  5  1  0  0  0  0
 12  3  1  6  0  0  0
 12 19  1  0  0  0  0
 12 16  1  0  0  0  0
 13 19  1  0  0  0  0
 15 16  1  0  0  0  0
 17 10  2  0  0  0  0
 18  3  2  0  0  0  0
 18  4  1  0  0  0  0
 20 21  1  0  0  0  0
 20 26  2  0  0  0  0
 22 16  1  6  0  0  0
 22 25  1  0  0  0  0
 22 24  1  0  0  0  0
 23 21  1  0  0  0  0
 24 20  1  0  0  0  0
 25 23  1  0  0  0  0
 27 17  1  0  0  0  0
 27 28  1  0  0  0  0
 30 34  1  0  0  0  0
 30 29  1  1  0  0  0
 31 34  1  0  0  0  0
 32 33  1  0  0  0  0
 32 31  1  0  0  0  0
 33 28  1  6  0  0  0
 33 30  1  0  0  0  0
M  END
>  <MODEL>
3

>  <REMARK>
 VINA RESULT:      -7.6      3.308      8.851
  Name = 
  4 active torsions:
  status: ('A' for Active; 'I' for Inactive)
    1  A    between atoms: O_3  and  C_13
    2  A    between atoms: O_3  and  C_29
    3  A    between atoms: C_12  and  N_28
    4  A    between atoms: C_13  and  C_33
                            x       y       z     vdW  Elec       q    Type
                         _______ _______ _______ _____ _____    ______ ____

>  <TORSDO>
F 4

$$$$
=
 OpenBabel10272400033D

 34 39  0  0  1  0  0  0  0  0999 V2000
  187.9820  178.1540  135.7460 C   0  0  2  0  0  3  0  0  0  0  0  0
  186.5620  176.2280  136.6410 C   0  0  1  0  0  3  0  0  0  0  0  0
  188.5410  177.1040  137.9230 C   0  0  0  0  0  0  0  0  0  0  0  0
  189.6360  177.1100  140.0690 C   0  0  0  0  0  0  0  0  0  0  0  0
  186.1430  177.1390  134.3500 C   0  0  0  0  0  2  0  0  0  0  0  0
  185.4970  176.5750  135.6080 C   0  0  0  0  0  2  0  0  0  0  0  0
  187.4350  178.0960  139.7980 C   0  0  0  0  0  3  0  0  0  0  0  0
  187.4010  177.4680  137.0030 C   0  0  1  0  0  3  0  0  0  0  0  0
  187.4210  178.4370  141.1510 C   0  0  0  0  0  3  0  0  0  0  0  0
  189.6110  177.4550  141.4230 C   0  0  0  0  0  3  0  0  0  0  0  0
  186.9090  178.4140  134.6900 C   0  0  0  0  0  2  0  0  0  0  0  0
  189.7150  176.4020  137.2700 C   0  0  2  0  0  3  0  0  0  0  0  0
  189.1580  177.3580  135.1630 C   0  0  0  0  0  2  0  0  0  0  0  0
  185.8720  175.6630  137.8710 C   0  0  0  0  0  1  0  0  0  0  0  0
  190.7100  176.4840  139.5930 C   0  0  0  0  0  3  0  0  0  0  0  0
  190.7990  176.1060  138.2110 N   0  0  0  0  0  0  0  0  0  0  0  0
  188.5110  178.1170  141.9720 C   0  0  0  0  0  0  0  0  0  0  0  0
  188.5360  177.4270  139.2350 C   0  0  0  0  0  0  0  0  0  0  0  0
  190.2180  177.2180  136.1620 N   0  0  0  0  0  2  0  0  0  0  0  0
  194.0610  175.5170  136.3960 C   0  0  0  0  0  0  0  0  0  0  0  0
  193.8120  174.2260  135.9120 O   0  0  0  0  0  0  0  0  0  0  0  0
  191.9520  175.3490  137.7320 C   0  0  2  0  0  3  0  0  0  0  0  0
  192.7360  173.4240  136.3950 C   0  0  0  0  0  2  0  0  0  0  0  0
  192.9990  176.2840  137.1240 C   0  0  0  0  0  2  0  0  0  0  0  0
  191.5230  174.2790  136.7340 C   0  0  0  0  0  2  0  0  0  0  0  0
  195.1860  176.0900  136.1290 N   0  0  0  0  0  2  0  0  0  0  0  0
  188.5280  178.4450  143.3300 O   0  0  0  0  0  0  0  0  0  0  0  0
  188.5190  177.4630  144.3580 C   0  0  0  0  0  2  0  0  0  0  0  0
  191.8580  178.3660  144.4840 C   0  0  0  0  0  1  0  0  0  0  0  0
  190.9460  177.2130  144.8480 C   0  0  2  0  0  3  0  0  0  0  0  0
  190.7050  176.6600  147.2040 C   0  0  0  0  0  2  0  0  0  0  0  0
  189.3470  177.0450  146.6680 C   0  0  0  0  0  2  0  0  0  0  0  0
  189.6220  177.7540  145.3580 C   0  0  2  0  0  3  0  0  0  0  0  0
  191.5630  176.4110  145.9810 C   0  0  0  0  0  2  0  0  0  0  0  0
  1 11  1  6  0  0  0
  1  8  1  0  0  0  0
  2  8  1  0  0  0  0
  2 14  1  1  0  0  0
  3 18  2  0  0  0  0
  4 10  1  0  0  0  0
  5 11  1  0  0  0  0
  5  6  1  0  0  0  0
  6  2  1  0  0  0  0
  7  9  2  0  0  0  0
  8  3  1  1  0  0  0
  9 17  1  0  0  0  0
 10 17  2  0  0  0  0
 12 19  1  6  0  0  0
 12  3  1  0  0  0  0
 12 16  1  0  0  0  0
 13  1  1  0  0  0  0
 13 19  1  0  0  0  0
 15  4  2  0  0  0  0
 16 15  1  0  0  0  0
 17 27  1  0  0  0  0
 18  7  1  0  0  0  0
 18  4  1  0  0  0  0
 20 24  1  0  0  0  0
 21 23  1  0  0  0  0
 21 20  1  0  0  0  0
 22 25  1  6  0  0  0
 22 16  1  0  0  0  0
 23 25  1  0  0  0  0
 24 22  1  0  0  0  0
 26 20  2  0  0  0  0
 27 28  1  0  0  0  0
 30 29  1  1  0  0  0
 30 33  1  0  0  0  0
 30 34  1  0  0  0  0
 32 31  1  0  0  0  0
 33 28  1  6  0  0  0
 33 32  1  0  0  0  0
 34 31  1  0  0  0  0
M  END
>  <MODEL>
4

>  <REMARK>
 VINA RESULT:      -7.5      4.191      5.752
  Name = 
  4 active torsions:
  status: ('A' for Active; 'I' for Inactive)
    1  A    between atoms: O_3  and  C_13
    2  A    between atoms: O_3  and  C_29
    3  A    between atoms: C_12  and  N_28
    4  A    between atoms: C_13  and  C_33
                            x       y       z     vdW  Elec       q    Type
                         _______ _______ _______ _____ _____    ______ ____

>  <TORSDO>
F 4

$$$$
=
 OpenBabel10272400033D

 34 39  0  0  1  0  0  0  0  0999 V2000
  185.3140  179.4510  144.3550 C   0  0  2  0  0  3  0  0  0  0  0  0
  186.3190  177.1020  144.3590 C   0  0  1  0  0  3  0  0  0  0  0  0
  185.7730  178.2920  142.2110 C   0  0  0  0  0  0  0  0  0  0  0  0
  186.1250  178.2880  139.8280 C   0  0  0  0  0  0  0  0  0  0  0  0
  185.6450  178.1840  146.5100 C   0  0  0  0  0  2  0  0  0  0  0  0
  186.6730  177.2900  145.8300 C   0  0  0  0  0  2  0  0  0  0  0  0
  187.9750  178.6630  141.3520 C   0  0  0  0  0  3  0  0  0  0  0  0
  186.2530  178.4590  143.6320 C   0  0  1  0  0  3  0  0  0  0  0  0
  188.8440  178.7890  140.2670 C   0  0  0  0  0  3  0  0  0  0  0  0
  187.0040  178.4140  138.7480 C   0  0  0  0  0  3  0  0  0  0  0  0
  185.6340  179.5570  145.8460 C   0  0  0  0  0  2  0  0  0  0  0  0
  184.2880  178.0390  142.0430 C   0  0  2  0  0  3  0  0  0  0  0  0
  183.8380  179.0990  144.1250 C   0  0  0  0  0  2  0  0  0  0  0  0
  187.3640  176.2000  143.7260 C   0  0  0  0  0  1  0  0  0  0  0  0
  184.8390  178.0540  139.5750 C   0  0  0  0  0  3  0  0  0  0  0  0
  183.8850  177.9180  140.6390 N   0  0  0  0  0  0  0  0  0  0  0  0
  188.3620  178.6640  138.9570 C   0  0  0  0  0  0  0  0  0  0  0  0
  186.6060  178.4090  141.1540 C   0  0  0  0  0  0  0  0  0  0  0  0
  183.5330  179.1120  142.6940 N   0  0  0  0  0  2  0  0  0  0  0  0
  181.0350  176.0110  139.0510 C   0  0  0  0  0  0  0  0  0  0  0  0
  180.1650  177.0810  138.8060 O   0  0  0  0  0  0  0  0  0  0  0  0
  182.4960  177.5820  140.3380 C   0  0  2  0  0  3  0  0  0  0  0  0
  180.3480  178.3650  139.4000 C   0  0  0  0  0  2  0  0  0  0  0  0
  182.4110  176.2470  139.5960 C   0  0  0  0  0  2  0  0  0  0  0  0
  181.8260  178.6980  139.5430 C   0  0  0  0  0  2  0  0  0  0  0  0
  180.6840  174.8160  138.7120 N   0  0  0  0  0  2  0  0  0  0  0  0
  189.2050  178.7850  137.8500 O   0  0  0  0  0  0  0  0  0  0  0  0
  189.4810  177.7020  136.9720 C   0  0  0  0  0  2  0  0  0  0  0  0
  191.8340  176.8530  139.3650 C   0  0  0  0  0  1  0  0  0  0  0  0
  191.4810  176.5650  137.9190 C   0  0  2  0  0  3  0  0  0  0  0  0
  190.8190  174.2970  137.3460 C   0  0  0  0  0  2  0  0  0  0  0  0
  189.6680  175.2200  137.0280 C   0  0  0  0  0  2  0  0  0  0  0  0
  189.9720  176.5060  137.7660 C   0  0  2  0  0  3  0  0  0  0  0  0
  192.0210  175.2020  137.5240 C   0  0  0  0  0  2  0  0  0  0  0  0
  1 13  1  1  0  0  0
  1 11  1  0  0  0  0
  2 14  1  6  0  0  0
  2  6  1  0  0  0  0
  4 18  1  0  0  0  0
  6  5  1  0  0  0  0
  8  3  1  6  0  0  0
  8  1  1  0  0  0  0
  8  2  1  0  0  0  0
  9  7  2  0  0  0  0
 10 17  2  0  0  0  0
 10  4  1  0  0  0  0
 11  5  1  0  0  0  0
 12  3  1  6  0  0  0
 12 19  1  0  0  0  0
 15  4  2  0  0  0  0
 15 16  1  0  0  0  0
 16 12  1  0  0  0  0
 17  9  1  0  0  0  0
 18  7  1  0  0  0  0
 18  3  2  0  0  0  0
 19 13  1  0  0  0  0
 20 24  1  0  0  0  0
 21 20  1  0  0  0  0
 21 23  1  0  0  0  0
 22 25  1  6  0  0  0
 22 16  1  0  0  0  0
 23 25  1  0  0  0  0
 24 22  1  0  0  0  0
 26 20  2  0  0  0  0
 27 17  1  0  0  0  0
 28 27  1  0  0  0  0
 30 29  1  1  0  0  0
 31 34  1  0  0  0  0
 32 31  1  0  0  0  0
 32 33  1  0  0  0  0
 33 28  1  6  0  0  0
 33 30  1  0  0  0  0
 34 30  1  0  0  0  0
M  END
>  <MODEL>
5

>  <REMARK>
 VINA RESULT:      -7.3      2.665      7.248
  Name = 
  4 active torsions:
  status: ('A' for Active; 'I' for Inactive)
    1  A    between atoms: O_3  and  C_13
    2  A    between atoms: O_3  and  C_29
    3  A    between atoms: C_12  and  N_28
    4  A    between atoms: C_13  and  C_33
                            x       y       z     vdW  Elec       q    Type
                         _______ _______ _______ _____ _____    ______ ____

>  <TORSDO>
F 4

$$$$
=
 OpenBabel10272400033D

 34 39  0  0  1  0  0  0  0  0999 V2000
  192.6110  176.7590  137.5150 C   0  0  2  0  0  3  0  0  0  0  0  0
  191.4270  174.4960  137.5920 C   0  0  1  0  0  3  0  0  0  0  0  0
  190.3130  176.5890  138.4320 C   0  0  0  0  0  0  0  0  0  0  0  0
  188.2050  177.5580  139.0840 C   0  0  0  0  0  0  0  0  0  0  0  0
  193.8200  174.6380  136.8800 C   0  0  0  0  0  2  0  0  0  0  0  0
  192.4850  173.9450  136.6430 C   0  0  0  0  0  2  0  0  0  0  0  0
  188.5860  176.8450  136.7960 C   0  0  0  0  0  3  0  0  0  0  0  0
  191.2600  176.0160  137.4060 C   0  0  1  0  0  3  0  0  0  0  0  0
  187.2970  177.2550  136.4530 C   0  0  0  0  0  3  0  0  0  0  0  0
  186.9150  177.9630  138.7310 C   0  0  0  0  0  3  0  0  0  0  0  0
  193.6790  176.1340  136.6180 C   0  0  0  0  0  2  0  0  0  0  0  0
  190.8730  176.7410  139.8320 C   0  0  2  0  0  3  0  0  0  0  0  0
  193.0890  176.8490  138.9700 C   0  0  0  0  0  2  0  0  0  0  0  0
  190.1190  173.7720  137.3250 C   0  0  0  0  0  1  0  0  0  0  0  0
  188.6000  177.7240  140.3450 C   0  0  0  0  0  3  0  0  0  0  0  0
  189.9140  177.3320  140.7700 N   0  0  0  0  0  0  0  0  0  0  0  0
  186.4530  177.8160  137.4210 C   0  0  0  0  0  0  0  0  0  0  0  0
  189.0620  176.9860  138.1120 C   0  0  0  0  0  0  0  0  0  0  0  0
  192.0940  177.5490  139.7850 N   0  0  0  0  0  2  0  0  0  0  0  0
  191.1230  176.1630  144.1550 C   0  0  0  0  0  0  0  0  0  0  0  0
  190.3020  176.9560  144.9660 O   0  0  0  0  0  0  0  0  0  0  0  0
  190.2930  177.4490  142.1750 C   0  0  2  0  0  3  0  0  0  0  0  0
  189.5690  178.0690  144.4550 C   0  0  0  0  0  2  0  0  0  0  0  0
  190.9630  176.1650  142.6640 C   0  0  0  0  0  2  0  0  0  0  0  0
  189.0860  177.8030  143.0370 C   0  0  0  0  0  2  0  0  0  0  0  0
  191.9610  175.3490  144.7020 N   0  0  0  0  0  2  0  0  0  0  0  0
  185.1580  178.2370  137.1100 O   0  0  0  0  0  0  0  0  0  0  0  0
  184.0880  177.3280  136.8840 C   0  0  0  0  0  2  0  0  0  0  0  0
  181.6920  179.6280  137.8580 C   0  0  0  0  0  1  0  0  0  0  0  0
  182.9670  178.9850  138.3630 C   0  0  2  0  0  3  0  0  0  0  0  0
  182.8160  177.5580  140.3260 C   0  0  0  0  0  2  0  0  0  0  0  0
  183.3220  176.7250  139.1740 C   0  0  0  0  0  2  0  0  0  0  0  0
  183.0090  177.5310  137.9310 C   0  0  2  0  0  3  0  0  0  0  0  0
  182.9790  178.9970  139.8820 C   0  0  0  0  0  2  0  0  0  0  0  0
  1 11  1  6  0  0  0
  1 13  1  0  0  0  0
  2 14  1  6  0  0  0
  4 15  2  0  0  0  0
  6  5  1  0  0  0  0
  6  2  1  0  0  0  0
  7 18  1  0  0  0  0
  8  1  1  0  0  0  0
  8  2  1  0  0  0  0
  8  3  1  1  0  0  0
  9  7  2  0  0  0  0
  9 17  1  0  0  0  0
 10  4  1  0  0  0  0
 11  5  1  0  0  0  0
 12  3  1  6  0  0  0
 12 16  1  0  0  0  0
 13 19  1  0  0  0  0
 15 16  1  0  0  0  0
 17 10  2  0  0  0  0
 18  3  2  0  0  0  0
 18  4  1  0  0  0  0
 19 12  1  0  0  0  0
 20 26  2  0  0  0  0
 20 21  1  0  0  0  0
 22 16  1  6  0  0  0
 22 24  1  0  0  0  0
 22 25  1  0  0  0  0
 23 21  1  0  0  0  0
 24 20  1  0  0  0  0
 25 23  1  0  0  0  0
 27 17  1  0  0  0  0
 28 27  1  0  0  0  0
 30 29  1  1  0  0  0
 30 34  1  0  0  0  0
 32 31  1  0  0  0  0
 33 28  1  6  0  0  0
 33 30  1  0  0  0  0
 33 32  1  0  0  0  0
 34 31  1  0  0  0  0
M  END
>  <MODEL>
6

>  <REMARK>
 VINA RESULT:      -7.2      3.523      9.055
  Name = 
  4 active torsions:
  status: ('A' for Active; 'I' for Inactive)
    1  A    between atoms: O_3  and  C_13
    2  A    between atoms: O_3  and  C_29
    3  A    between atoms: C_12  and  N_28
    4  A    between atoms: C_13  and  C_33
                            x       y       z     vdW  Elec       q    Type
                         _______ _______ _______ _____ _____    ______ ____

>  <TORSDO>
F 4

$$$$
=
 OpenBabel10272400033D

 34 39  0  0  1  0  0  0  0  0999 V2000
  185.2880  179.4850  144.5540 C   0  0  2  0  0  3  0  0  0  0  0  0
  186.2320  177.1110  144.5470 C   0  0  1  0  0  3  0  0  0  0  0  0
  185.6970  178.3170  142.4050 C   0  0  0  0  0  0  0  0  0  0  0  0
  186.0270  178.3050  140.0180 C   0  0  0  0  0  0  0  0  0  0  0  0
  185.6070  178.2080  146.7050 C   0  0  0  0  0  2  0  0  0  0  0  0
  186.6040  177.2880  146.0140 C   0  0  0  0  0  2  0  0  0  0  0  0
  187.9000  178.6310  141.5260 C   0  0  0  0  0  3  0  0  0  0  0  0
  186.1940  178.4700  143.8220 C   0  0  1  0  0  3  0  0  0  0  0  0
  188.7620  178.7350  140.4330 C   0  0  0  0  0  3  0  0  0  0  0  0
  186.8980  178.4100  138.9310 C   0  0  0  0  0  3  0  0  0  0  0  0
  185.6250  179.5810  146.0420 C   0  0  0  0  0  2  0  0  0  0  0  0
  184.2050  178.1030  142.2500 C   0  0  2  0  0  3  0  0  0  0  0  0
  183.8020  179.1730  144.3380 C   0  0  0  0  0  2  0  0  0  0  0  0
  187.2460  176.1820  143.9030 C   0  0  0  0  0  1  0  0  0  0  0  0
  184.7320  178.1060  139.7770 C   0  0  0  0  0  3  0  0  0  0  0  0
  183.7850  177.9940  140.8500 N   0  0  0  0  0  0  0  0  0  0  0  0
  188.2640  178.6240  139.1270 C   0  0  0  0  0  0  0  0  0  0  0  0
  186.5230  178.4130  141.3400 C   0  0  0  0  0  0  0  0  0  0  0  0
  183.4840  179.1950  142.9090 N   0  0  0  0  0  2  0  0  0  0  0  0
  180.8690  176.1190  139.3460 C   0  0  0  0  0  0  0  0  0  0  0  0
  180.0390  177.2070  139.0500 O   0  0  0  0  0  0  0  0  0  0  0  0
  182.3850  177.6950  140.5620 C   0  0  2  0  0  3  0  0  0  0  0  0
  180.2680  178.5100  139.5840 C   0  0  0  0  0  2  0  0  0  0  0  0
  182.2520  176.3310  139.8830 C   0  0  0  0  0  2  0  0  0  0  0  0
  181.7570  178.7960  139.7150 C   0  0  0  0  0  2  0  0  0  0  0  0
  180.4750  174.9230  139.0630 N   0  0  0  0  0  2  0  0  0  0  0  0
  189.1000  178.7240  138.0120 O   0  0  0  0  0  0  0  0  0  0  0  0
  190.1050  177.7630  137.7170 C   0  0  0  0  0  2  0  0  0  0  0  0
  189.3250  177.6360  134.3470 C   0  0  0  0  0  1  0  0  0  0  0  0
  188.6640  177.5110  135.7050 C   0  0  2  0  0  3  0  0  0  0  0  0
  187.7110  175.3560  136.3050 C   0  0  0  0  0  2  0  0  0  0  0  0
  188.7920  175.6900  137.3040 C   0  0  0  0  0  2  0  0  0  0  0  0
  189.6010  176.7970  136.6620 C   0  0  2  0  0  3  0  0  0  0  0  0
  187.4140  176.6560  135.5870 C   0  0  0  0  0  2  0  0  0  0  0  0
  1 13  1  1  0  0  0
  1 11  1  0  0  0  0
  2 14  1  6  0  0  0
  2  6  1  0  0  0  0
  4 18  1  0  0  0  0
  6  5  1  0  0  0  0
  8  3  1  6  0  0  0
  8  2  1  0  0  0  0
  8  1  1  0  0  0  0
  9  7  2  0  0  0  0
 10 17  2  0  0  0  0
 10  4  1  0  0  0  0
 11  5  1  0  0  0  0
 12  3  1  6  0  0  0
 12 19  1  0  0  0  0
 15  4  2  0  0  0  0
 15 16  1  0  0  0  0
 16 12  1  0  0  0  0
 17  9  1  0  0  0  0
 18  7  1  0  0  0  0
 18  3  2  0  0  0  0
 19 13  1  0  0  0  0
 20 24  1  0  0  0  0
 21 20  1  0  0  0  0
 21 23  1  0  0  0  0
 22 25  1  6  0  0  0
 22 16  1  0  0  0  0
 23 25  1  0  0  0  0
 24 22  1  0  0  0  0
 26 20  2  0  0  0  0
 27 17  1  0  0  0  0
 28 27  1  0  0  0  0
 30 29  1  6  0  0  0
 30 33  1  0  0  0  0
 31 32  1  0  0  0  0
 33 32  1  0  0  0  0
 33 28  1  1  0  0  0
 34 30  1  0  0  0  0
 34 31  1  0  0  0  0
M  END
>  <MODEL>
7

>  <REMARK>
 VINA RESULT:      -6.9      2.472      7.593
  Name = 
  4 active torsions:
  status: ('A' for Active; 'I' for Inactive)
    1  A    between atoms: O_3  and  C_13
    2  A    between atoms: O_3  and  C_29
    3  A    between atoms: C_12  and  N_28
    4  A    between atoms: C_13  and  C_33
                            x       y       z     vdW  Elec       q    Type
                         _______ _______ _______ _____ _____    ______ ____

>  <TORSDO>
F 4

$$$$
=
 OpenBabel10272400033D

 34 39  0  0  1  0  0  0  0  0999 V2000
  190.7230  177.9210  145.2260 C   0  0  2  0  0  3  0  0  0  0  0  0
  190.5870  175.5400  144.3110 C   0  0  1  0  0  3  0  0  0  0  0  0
  189.2570  177.4150  143.2900 C   0  0  0  0  0  0  0  0  0  0  0  0
  187.9710  178.0800  141.3640 C   0  0  0  0  0  0  0  0  0  0  0  0
  191.8830  176.0120  146.3960 C   0  0  0  0  0  2  0  0  0  0  0  0
  191.8360  175.1940  145.1130 C   0  0  0  0  0  2  0  0  0  0  0  0
  190.3420  177.6070  141.1670 C   0  0  0  0  0  3  0  0  0  0  0  0
  190.5530  177.0410  143.9670 C   0  0  1  0  0  3  0  0  0  0  0  0
  190.2860  177.8940  139.8020 C   0  0  0  0  0  3  0  0  0  0  0  0
  187.9250  178.3640  139.9970 C   0  0  0  0  0  3  0  0  0  0  0  0
  191.9320  177.4990  146.0590 C   0  0  0  0  0  2  0  0  0  0  0  0
  188.0460  177.5140  144.1950 C   0  0  2  0  0  3  0  0  0  0  0  0
  189.4430  177.9450  146.0730 C   0  0  0  0  0  2  0  0  0  0  0  0
  190.5780  174.6960  143.0480 C   0  0  0  0  0  1  0  0  0  0  0  0
  186.8480  178.1850  142.0720 C   0  0  0  0  0  3  0  0  0  0  0  0
  186.8290  177.9110  143.4810 N   0  0  0  0  0  0  0  0  0  0  0  0
  189.0740  178.2730  139.2090 C   0  0  0  0  0  0  0  0  0  0  0  0
  189.1910  177.6920  141.9690 C   0  0  0  0  0  0  0  0  0  0  0  0
  188.3240  178.4570  145.2820 N   0  0  0  0  0  2  0  0  0  0  0  0
  183.2310  178.8420  144.1640 C   0  0  0  0  0  0  0  0  0  0  0  0
  183.3160  179.0440  145.5470 O   0  0  0  0  0  0  0  0  0  0  0  0
  185.5700  177.9550  144.2180 C   0  0  2  0  0  3  0  0  0  0  0  0
  184.4370  178.6080  146.3150 C   0  0  0  0  0  2  0  0  0  0  0  0
  184.4560  178.5470  143.3530 C   0  0  0  0  0  2  0  0  0  0  0  0
  185.7280  178.7330  145.5200 C   0  0  0  0  0  2  0  0  0  0  0  0
  182.1000  179.0080  143.5660 N   0  0  0  0  0  2  0  0  0  0  0  0
  188.9850  178.5680  137.8460 O   0  0  0  0  0  0  0  0  0  0  0  0
  189.4840  177.6980  136.8380 C   0  0  0  0  0  2  0  0  0  0  0  0
  186.7920  178.0730  134.6940 C   0  0  0  0  0  1  0  0  0  0  0  0
  187.0950  177.7620  136.1460 C   0  0  2  0  0  3  0  0  0  0  0  0
  186.4980  175.5580  136.9810 C   0  0  0  0  0  2  0  0  0  0  0  0
  187.9920  175.7260  137.1180 C   0  0  0  0  0  2  0  0  0  0  0  0
  188.3430  176.9030  136.2320 C   0  0  2  0  0  3  0  0  0  0  0  0
  185.9570  176.9530  136.7440 C   0  0  0  0  0  2  0  0  0  0  0  0
  1 11  1  1  0  0  0
  1 13  1  0  0  0  0
  2 14  1  6  0  0  0
  2  6  1  0  0  0  0
  4 18  1  0  0  0  0
  4 15  2  0  0  0  0
  6  5  1  0  0  0  0
  7 18  1  0  0  0  0
  8  3  1  1  0  0  0
  8  2  1  0  0  0  0
  8  1  1  0  0  0  0
  9  7  2  0  0  0  0
 10  4  1  0  0  0  0
 11  5  1  0  0  0  0
 12  3  1  6  0  0  0
 12 19  1  0  0  0  0
 15 16  1  0  0  0  0
 16 12  1  0  0  0  0
 16 22  1  0  0  0  0
 17  9  1  0  0  0  0
 17 10  2  0  0  0  0
 18  3  2  0  0  0  0
 19 13  1  0  0  0  0
 20 21  1  0  0  0  0
 21 23  1  0  0  0  0
 22 24  1  6  0  0  0
 22 25  1  0  0  0  0
 24 20  1  0  0  0  0
 25 23  1  0  0  0  0
 26 20  2  0  0  0  0
 27 17  1  0  0  0  0
 28 27  1  0  0  0  0
 30 29  1  6  0  0  0
 30 33  1  0  0  0  0
 30 34  1  0  0  0  0
 31 32  1  0  0  0  0
 33 28  1  1  0  0  0
 33 32  1  0  0  0  0
 34 31  1  0  0  0  0
M  END
>  <MODEL>
8

>  <REMARK>
 VINA RESULT:      -6.7      3.332      9.160
  Name = 
  4 active torsions:
  status: ('A' for Active; 'I' for Inactive)
    1  A    between atoms: O_3  and  C_13
    2  A    between atoms: O_3  and  C_29
    3  A    between atoms: C_12  and  N_28
    4  A    between atoms: C_13  and  C_33
                            x       y       z     vdW  Elec       q    Type
                         _______ _______ _______ _____ _____    ______ ____

>  <TORSDO>
F 4

$$$$
=
 OpenBabel10272400033D

 34 39  0  0  1  0  0  0  0  0999 V2000
  187.5080  176.6300  146.5550 C   0  0  2  0  0  3  0  0  0  0  0  0
  187.2950  179.1200  147.0900 C   0  0  1  0  0  3  0  0  0  0  0  0
  186.4000  178.1570  144.9450 C   0  0  0  0  0  0  0  0  0  0  0  0
  184.9600  178.5810  143.0610 C   0  0  0  0  0  0  0  0  0  0  0  0
  188.6060  177.6180  148.6000 C   0  0  0  0  0  2  0  0  0  0  0  0
  187.6580  178.8080  148.5370 C   0  0  0  0  0  2  0  0  0  0  0  0
  184.0490  178.4160  145.3040 C   0  0  0  0  0  3  0  0  0  0  0  0
  186.6400  177.9010  146.4130 C   0  0  1  0  0  3  0  0  0  0  0  0
  182.7680  178.6450  144.8010 C   0  0  0  0  0  3  0  0  0  0  0  0
  183.6730  178.8110  142.5670 C   0  0  0  0  0  3  0  0  0  0  0  0
  187.9310  176.3870  148.0030 C   0  0  0  0  0  2  0  0  0  0  0  0
  187.6260  178.0920  144.0560 C   0  0  2  0  0  3  0  0  0  0  0  0
  188.7240  176.6710  145.6190 C   0  0  0  0  0  2  0  0  0  0  0  0
  186.3570  180.3140  147.0770 C   0  0  0  0  0  1  0  0  0  0  0  0
  185.9740  178.5530  142.1990 C   0  0  0  0  0  3  0  0  0  0  0  0
  187.3190  178.3190  142.6420 N   0  0  0  0  0  0  0  0  0  0  0  0
  182.5730  178.8450  143.4270 C   0  0  0  0  0  0  0  0  0  0  0  0
  185.1640  178.3820  144.4480 C   0  0  0  0  0  0  0  0  0  0  0  0
  188.2860  176.7950  144.2280 N   0  0  0  0  0  2  0  0  0  0  0  0
  188.9820  178.4130  139.2490 C   0  0  0  0  0  0  0  0  0  0  0  0
  190.1010  177.6190  139.5320 O   0  0  0  0  0  0  0  0  0  0  0  0
  188.4240  178.3740  141.6880 C   0  0  2  0  0  3  0  0  0  0  0  0
  190.4860  177.2890  140.8650 C   0  0  0  0  0  2  0  0  0  0  0  0
  187.9030  178.6120  140.2700 C   0  0  0  0  0  2  0  0  0  0  0  0
  189.2680  177.1060  141.7590 C   0  0  0  0  0  2  0  0  0  0  0  0
  188.8320  178.9000  138.0640 N   0  0  0  0  0  2  0  0  0  0  0  0
  181.3030  179.0750  142.8920 O   0  0  0  0  0  0  0  0  0  0  0  0
  180.4840  178.0300  142.3810 C   0  0  0  0  0  2  0  0  0  0  0  0
  180.7590  176.1210  139.5060 C   0  0  0  0  0  1  0  0  0  0  0  0
  181.4280  177.2900  140.2010 C   0  0  2  0  0  3  0  0  0  0  0  0
  181.3450  179.4570  139.1030 C   0  0  0  0  0  2  0  0  0  0  0  0
  180.6490  179.5770  140.4370 C   0  0  0  0  0  2  0  0  0  0  0  0
  180.3750  178.1530  140.8720 C   0  0  2  0  0  3  0  0  0  0  0  0
  182.1270  178.1630  139.1730 C   0  0  0  0  0  2  0  0  0  0  0  0
  1 13  1  6  0  0  0
  1 11  1  0  0  0  0
  2 14  1  1  0  0  0
  2  6  1  0  0  0  0
  4 18  1  0  0  0  0
  6  5  1  0  0  0  0
  8  3  1  6  0  0  0
  8  1  1  0  0  0  0
  8  2  1  0  0  0  0
  9  7  2  0  0  0  0
 10  4  1  0  0  0  0
 10 17  2  0  0  0  0
 11  5  1  0  0  0  0
 12 19  1  6  0  0  0
 12  3  1  0  0  0  0
 15 16  1  0  0  0  0
 15  4  2  0  0  0  0
 16 12  1  0  0  0  0
 17  9  1  0  0  0  0
 18  3  2  0  0  0  0
 18  7  1  0  0  0  0
 19 13  1  0  0  0  0
 20 21  1  0  0  0  0
 20 24  1  0  0  0  0
 21 23  1  0  0  0  0
 22 24  1  6  0  0  0
 22 25  1  0  0  0  0
 22 16  1  0  0  0  0
 23 25  1  0  0  0  0
 26 20  2  0  0  0  0
 27 17  1  0  0  0  0
 28 27  1  0  0  0  0
 30 29  1  6  0  0  0
 30 33  1  0  0  0  0
 31 34  1  0  0  0  0
 31 32  1  0  0  0  0
 32 33  1  0  0  0  0
 33 28  1  1  0  0  0
 34 30  1  0  0  0  0
M  END
>  <MODEL>
9

>  <REMARK>
 VINA RESULT:      -6.6      1.967      7.325
  Name = 
  4 active torsions:
  status: ('A' for Active; 'I' for Inactive)
    1  A    between atoms: O_3  and  C_13
    2  A    between atoms: O_3  and  C_29
    3  A    between atoms: C_12  and  N_28
    4  A    between atoms: C_13  and  C_33
                            x       y       z     vdW  Elec       q    Type
                         _______ _______ _______ _____ _____    ______ ____

>  <TORSDO>
F 4

$$$$
