=
 OpenBabel10272400573D

 27 31  0  0  1  0  0  0  0  0999 V2000
  190.8500  177.8550  144.9290 C   0  0  0  0  0  3  0  0  0  0  0  0
  188.6820  177.7710  146.1470 C   0  0  0  0  0  0  0  0  0  0  0  0
  188.0910  177.1970  143.7390 C   0  0  0  0  0  3  0  0  0  0  0  0
  184.7460  178.9090  146.5940 N   0  0  0  0  0  0  0  0  0  0  0  0
  183.0390  178.8800  144.8520 N   0  0  0  0  0  1  0  0  0  0  0  0
  188.2520  178.2160  147.4220 C   0  0  0  0  0  3  0  0  0  0  0  0
  185.3630  178.1930  144.5290 N   0  0  0  0  0  0  0  0  0  0  0  0
  190.3920  177.1420  140.8840 C   0  0  0  0  0  0  0  0  0  0  0  0
  185.2620  177.8520  143.1170 C   0  0  0  0  0  1  0  0  0  0  0  0
  190.2280  177.2310  139.6800 O   0  0  0  0  0  0  0  0  0  0  0  0
  186.4360  178.1370  145.3420 C   0  0  0  0  0  0  0  0  0  0  0  0
  190.0400  177.3290  145.9870 N   0  0  0  0  0  0  0  0  0  0  0  0
  184.3680  178.6610  145.3170 C   0  0  0  0  0  0  0  0  0  0  0  0
  186.0510  178.5720  146.5830 C   0  0  0  0  0  0  0  0  0  0  0  0
  190.4980  177.8590  143.6450 C   0  0  0  0  0  0  0  0  0  0  0  0
  187.7580  177.7350  145.0690 C   0  0  0  0  0  0  0  0  0  0  0  0
  189.3040  176.5780  141.7510 C   0  0  0  0  0  2  0  0  0  0  0  0
  186.9310  178.6260  147.6520 C   0  0  0  0  0  3  0  0  0  0  0  0
  191.7050  177.5220  141.4920 C   0  0  0  0  0  2  0  0  0  0  0  0
  191.4690  178.4570  142.6730 C   0  0  0  0  0  2  0  0  0  0  0  0
  189.2680  177.2160  143.1120 C   0  0  0  0  0  0  0  0  0  0  0  0
  193.0520  176.0020  148.5360 O   0  0  0  0  0  0  0  0  0  0  0  0
  190.7110  176.6840  147.1170 C   0  0  2  0  0  3  0  0  0  0  0  0
  191.4110  177.7090  148.0130 C   0  0  0  0  0  2  0  0  0  0  0  0
  192.1610  176.9610  149.1110 C   0  0  0  0  0  2  0  0  0  0  0  0
  192.7450  175.3080  147.3570 C   0  0  0  0  0  3  0  0  0  0  0  0
  191.6590  175.6130  146.6450 C   0  0  0  0  0  3  0  0  0  0  0  0
  1 12  1  0  0  0  0
  2  6  1  0  0  0  0
  3 16  1  0  0  0  0
  5 13  1  0  0  0  0
  6 18  2  0  0  0  0
  7 13  1  0  0  0  0
  7 11  1  0  0  0  0
  8 19  1  0  0  0  0
  8 17  1  0  0  0  0
  9  7  1  0  0  0  0
 10  8  2  0  0  0  0
 11 14  2  0  0  0  0
 12  2  1  0  0  0  0
 13  4  2  0  0  0  0
 14  4  1  0  0  0  0
 14 18  1  0  0  0  0
 15  1  2  0  0  0  0
 16 11  1  0  0  0  0
 16  2  2  0  0  0  0
 17 21  1  0  0  0  0
 19 20  1  0  0  0  0
 20 15  1  0  0  0  0
 21 15  1  0  0  0  0
 21  3  2  0  0  0  0
 22 25  1  0  0  0  0
 23 12  1  6  0  0  0
 23 24  1  0  0  0  0
 24 25  1  0  0  0  0
 26 22  1  0  0  0  0
 27 23  1  0  0  0  0
 27 26  2  0  0  0  0
M  END
>  <MODEL>
1

>  <REMARK>
 VINA RESULT:      -8.5      0.000      0.000
  Name = 
  1 active torsions:
  status: ('A' for Active; 'I' for Inactive)
    1  A    between atoms: C_9  and  N_15
                            x       y       z     vdW  Elec       q    Type
                         _______ _______ _______ _____ _____    ______ ____

>  <TORSDO>
F 1

$$$$
=
 OpenBabel10272400573D

 27 31  0  0  1  0  0  0  0  0999 V2000
  185.0520  179.1000  144.5020 C   0  0  0  0  0  3  0  0  0  0  0  0
  185.9750  178.3530  142.3140 C   0  0  0  0  0  0  0  0  0  0  0  0
  187.5410  177.3500  144.0520 C   0  0  0  0  0  3  0  0  0  0  0  0
  189.0920  178.0010  139.6420 N   0  0  0  0  0  0  0  0  0  0  0  0
  191.3260  177.1610  140.1480 N   0  0  0  0  0  1  0  0  0  0  0  0
  185.7530  178.7400  140.9690 C   0  0  0  0  0  3  0  0  0  0  0  0
  189.5110  177.3490  141.7760 N   0  0  0  0  0  0  0  0  0  0  0  0
  187.3750  177.8450  147.6810 C   0  0  0  0  0  0  0  0  0  0  0  0
  190.2450  176.8480  142.9300 C   0  0  0  0  0  1  0  0  0  0  0  0
  188.1950  177.7400  148.5750 O   0  0  0  0  0  0  0  0  0  0  0  0
  188.2370  177.7790  141.7010 C   0  0  0  0  0  0  0  0  0  0  0  0
  184.8840  178.4270  143.2470 N   0  0  0  0  0  0  0  0  0  0  0  0
  189.9920  177.4980  140.5210 C   0  0  0  0  0  0  0  0  0  0  0  0
  187.9970  178.1690  140.4100 C   0  0  0  0  0  0  0  0  0  0  0  0
  186.0280  178.8380  145.3690 C   0  0  0  0  0  0  0  0  0  0  0  0
  187.2510  177.8650  142.7020 C   0  0  0  0  0  0  0  0  0  0  0  0
  187.5060  177.0150  146.4380 C   0  0  0  0  0  2  0  0  0  0  0  0
  186.7660  178.6570  140.0030 C   0  0  0  0  0  3  0  0  0  0  0  0
  186.1910  178.7440  147.8520 C   0  0  0  0  0  2  0  0  0  0  0  0
  186.0540  179.6450  146.6310 C   0  0  0  0  0  2  0  0  0  0  0  0
  187.0120  177.7350  145.2140 C   0  0  0  0  0  0  0  0  0  0  0  0
  181.0100  179.1600  141.9100 O   0  0  0  0  0  0  0  0  0  0  0  0
  183.5220  178.1980  142.7620 C   0  0  2  0  0  3  0  0  0  0  0  0
  183.3320  178.7470  141.3450 C   0  0  0  0  0  2  0  0  0  0  0  0
  181.8720  178.5560  140.9440 C   0  0  0  0  0  2  0  0  0  0  0  0
  181.3200  179.1840  143.2780 C   0  0  0  0  0  3  0  0  0  0  0  0
  182.5040  178.7580  143.7200 C   0  0  0  0  0  3  0  0  0  0  0  0
  1 15  2  0  0  0  0
  2 16  1  0  0  0  0
  2 12  1  0  0  0  0
  3 21  2  0  0  0  0
  4 14  1  0  0  0  0
  4 13  2  0  0  0  0
  5 13  1  0  0  0  0
  6  2  2  0  0  0  0
  7  9  1  0  0  0  0
  8 19  1  0  0  0  0
  8 10  2  0  0  0  0
 11  7  1  0  0  0  0
 11 16  2  0  0  0  0
 12  1  1  0  0  0  0
 13  7  1  0  0  0  0
 14 11  1  0  0  0  0
 15 20  1  0  0  0  0
 16  3  1  0  0  0  0
 17  8  1  0  0  0  0
 18 14  2  0  0  0  0
 18  6  1  0  0  0  0
 20 19  1  0  0  0  0
 21 15  1  0  0  0  0
 21 17  1  0  0  0  0
 22 26  1  0  0  0  0
 23 24  1  6  0  0  0
 23 12  1  0  0  0  0
 23 27  1  0  0  0  0
 25 24  1  0  0  0  0
 25 22  1  0  0  0  0
 26 27  2  0  0  0  0
M  END
>  <MODEL>
2

>  <REMARK>
 VINA RESULT:      -7.8      3.338      7.872
  Name = 
  1 active torsions:
  status: ('A' for Active; 'I' for Inactive)
    1  A    between atoms: C_9  and  N_15
                            x       y       z     vdW  Elec       q    Type
                         _______ _______ _______ _____ _____    ______ ____

>  <TORSDO>
F 1

$$$$
=
 OpenBabel10272400573D

 27 31  0  0  1  0  0  0  0  0999 V2000
  184.7950  179.1640  141.7980 C   0  0  0  0  0  3  0  0  0  0  0  0
  186.5440  178.2800  140.2630 C   0  0  0  0  0  0  0  0  0  0  0  0
  187.2850  177.5380  142.5830 C   0  0  0  0  0  3  0  0  0  0  0  0
  190.4860  177.8810  139.1310 N   0  0  0  0  0  0  0  0  0  0  0  0
  192.3350  177.2310  140.5840 N   0  0  0  0  0  1  0  0  0  0  0  0
  186.8830  178.5300  138.9100 C   0  0  0  0  0  3  0  0  0  0  0  0
  190.0120  177.4520  141.3110 N   0  0  0  0  0  0  0  0  0  0  0  0
  185.6430  178.3490  145.7590 C   0  0  0  0  0  0  0  0  0  0  0  0
  190.2200  177.1040  142.7090 C   0  0  0  0  0  1  0  0  0  0  0  0
  186.0300  178.3760  146.9140 O   0  0  0  0  0  0  0  0  0  0  0  0
  188.8710  177.7940  140.6810 C   0  0  0  0  0  0  0  0  0  0  0  0
  185.1670  178.3710  140.6630 N   0  0  0  0  0  0  0  0  0  0  0  0
  190.9590  177.5160  140.3480 C   0  0  0  0  0  0  0  0  0  0  0  0
  189.1710  178.0500  139.3690 C   0  0  0  0  0  0  0  0  0  0  0  0
  185.3370  179.0430  143.0080 C   0  0  0  0  0  0  0  0  0  0  0  0
  187.5610  177.9090  141.1840 C   0  0  0  0  0  0  0  0  0  0  0  0
  186.2870  177.4190  144.7720 C   0  0  0  0  0  2  0  0  0  0  0  0
  188.2030  178.4220  138.4500 C   0  0  0  0  0  3  0  0  0  0  0  0
  184.4760  179.1850  145.3400 C   0  0  0  0  0  2  0  0  0  0  0  0
  184.8310  179.9610  144.0770 C   0  0  0  0  0  2  0  0  0  0  0  0
  186.3210  177.9930  143.3830 C   0  0  0  0  0  0  0  0  0  0  0  0
  181.4350  178.0360  138.8470 O   0  0  0  0  0  0  0  0  0  0  0  0
  184.1260  178.0150  139.6980 C   0  0  2  0  0  3  0  0  0  0  0  0
  183.5200  179.2590  139.0410 C   0  0  0  0  0  2  0  0  0  0  0  0
  182.3860  178.8180  138.1200 C   0  0  0  0  0  2  0  0  0  0  0  0
  181.8130  177.1740  139.8870 C   0  0  0  0  0  3  0  0  0  0  0  0
  183.0700  177.1490  140.3320 C   0  0  0  0  0  3  0  0  0  0  0  0
  1 15  2  0  0  0  0
  2 12  1  0  0  0  0
  2 16  1  0  0  0  0
  3 21  2  0  0  0  0
  4 14  1  0  0  0  0
  4 13  2  0  0  0  0
  6  2  2  0  0  0  0
  7  9  1  0  0  0  0
  8 10  2  0  0  0  0
 11 16  2  0  0  0  0
 11  7  1  0  0  0  0
 12  1  1  0  0  0  0
 13  5  1  0  0  0  0
 13  7  1  0  0  0  0
 14 11  1  0  0  0  0
 15 21  1  0  0  0  0
 15 20  1  0  0  0  0
 16  3  1  0  0  0  0
 17  8  1  0  0  0  0
 18  6  1  0  0  0  0
 18 14  2  0  0  0  0
 19  8  1  0  0  0  0
 20 19  1  0  0  0  0
 21 17  1  0  0  0  0
 22 26  1  0  0  0  0
 23 24  1  1  0  0  0
 23 27  1  0  0  0  0
 23 12  1  0  0  0  0
 25 22  1  0  0  0  0
 25 24  1  0  0  0  0
 26 27  2  0  0  0  0
M  END
>  <MODEL>
3

>  <REMARK>
 VINA RESULT:      -7.6      3.982      8.649
  Name = 
  1 active torsions:
  status: ('A' for Active; 'I' for Inactive)
    1  A    between atoms: C_9  and  N_15
                            x       y       z     vdW  Elec       q    Type
                         _______ _______ _______ _____ _____    ______ ____

>  <TORSDO>
F 1

$$$$
=
 OpenBabel10272400573D

 27 31  0  0  1  0  0  0  0  0999 V2000
  190.8080  175.9470  143.1020 C   0  0  0  0  0  3  0  0  0  0  0  0
  188.7750  177.3630  142.8710 C   0  0  0  0  0  0  0  0  0  0  0  0
  189.4290  177.5690  145.3220 C   0  0  0  0  0  3  0  0  0  0  0  0
  184.9710  178.4350  144.0380 N   0  0  0  0  0  0  0  0  0  0  0  0
  184.2460  178.8840  146.3240 N   0  0  0  0  0  1  0  0  0  0  0  0
  187.7790  177.4990  141.8720 C   0  0  0  0  0  3  0  0  0  0  0  0
  186.5200  178.2500  145.6880 N   0  0  0  0  0  0  0  0  0  0  0  0
  192.1820  175.8200  146.9970 C   0  0  0  0  0  0  0  0  0  0  0  0
  187.0950  178.2540  147.0260 C   0  0  0  0  0  1  0  0  0  0  0  0
  192.4080  175.5430  148.1620 O   0  0  0  0  0  0  0  0  0  0  0  0
  187.1090  177.9640  144.5110 C   0  0  0  0  0  0  0  0  0  0  0  0
  190.1160  177.0340  142.4750 N   0  0  0  0  0  0  0  0  0  0  0  0
  185.2370  178.5280  145.3640 C   0  0  0  0  0  0  0  0  0  0  0  0
  186.1650  178.0780  143.5260 C   0  0  0  0  0  0  0  0  0  0  0  0
  190.9610  175.8140  144.4180 C   0  0  0  0  0  0  0  0  0  0  0  0
  188.4380  177.5920  144.2320 C   0  0  0  0  0  0  0  0  0  0  0  0
  191.3610  177.0290  146.6580 C   0  0  0  0  0  2  0  0  0  0  0  0
  186.4600  177.8530  142.1910 C   0  0  0  0  0  3  0  0  0  0  0  0
  192.7890  175.0020  145.9020 C   0  0  0  0  0  2  0  0  0  0  0  0
  191.7080  174.6090  144.9010 C   0  0  0  0  0  2  0  0  0  0  0  0
  190.5360  176.8300  145.4170 C   0  0  0  0  0  0  0  0  0  0  0  0
  192.1180  177.1500  138.8250 O   0  0  0  0  0  0  0  0  0  0  0  0
  190.6090  177.5130  141.1830 C   0  0  2  0  0  3  0  0  0  0  0  0
  190.0670  176.6680  140.0270 C   0  0  0  0  0  2  0  0  0  0  0  0
  190.6920  177.1660  138.7270 C   0  0  0  0  0  2  0  0  0  0  0  0
  192.7880  177.4240  140.0270 C   0  0  0  0  0  3  0  0  0  0  0  0
  192.1130  177.5820  141.1670 C   0  0  0  0  0  3  0  0  0  0  0  0
  1 15  2  0  0  0  0
  2 16  1  0  0  0  0
  3 21  2  0  0  0  0
  4 13  2  0  0  0  0
  6 18  1  0  0  0  0
  6  2  2  0  0  0  0
  7  9  1  0  0  0  0
  8 10  2  0  0  0  0
 11  7  1  0  0  0  0
 12  2  1  0  0  0  0
 12  1  1  0  0  0  0
 13  7  1  0  0  0  0
 13  5  1  0  0  0  0
 14  4  1  0  0  0  0
 14 11  1  0  0  0  0
 15 20  1  0  0  0  0
 15 21  1  0  0  0  0
 16 11  2  0  0  0  0
 16  3  1  0  0  0  0
 17  8  1  0  0  0  0
 18 14  2  0  0  0  0
 19  8  1  0  0  0  0
 20 19  1  0  0  0  0
 21 17  1  0  0  0  0
 22 26  1  0  0  0  0
 23 24  1  6  0  0  0
 23 12  1  0  0  0  0
 25 22  1  0  0  0  0
 25 24  1  0  0  0  0
 26 27  2  0  0  0  0
 27 23  1  0  0  0  0
M  END
>  <MODEL>
4

>  <REMARK>
 VINA RESULT:      -7.6      1.474      5.278
  Name = 
  1 active torsions:
  status: ('A' for Active; 'I' for Inactive)
    1  A    between atoms: C_9  and  N_15
                            x       y       z     vdW  Elec       q    Type
                         _______ _______ _______ _____ _____    ______ ____

>  <TORSDO>
F 1

$$$$
=
 OpenBabel10272400573D

 27 31  0  0  1  0  0  0  0  0999 V2000
  187.8340  178.4010  140.8580 C   0  0  0  0  0  3  0  0  0  0  0  0
  189.6720  177.4130  142.2150 C   0  0  0  0  0  0  0  0  0  0  0  0
  187.6080  177.2340  143.6940 C   0  0  0  0  0  3  0  0  0  0  0  0
  191.8890  177.2060  145.6820 N   0  0  0  0  0  0  0  0  0  0  0  0
  190.9960  177.0570  147.9470 N   0  0  0  0  0  1  0  0  0  0  0  0
  191.0850  177.4190  142.1090 C   0  0  0  0  0  3  0  0  0  0  0  0
  189.6310  177.1780  145.9220 N   0  0  0  0  0  0  0  0  0  0  0  0
  184.2530  178.4930  142.9190 C   0  0  0  0  0  0  0  0  0  0  0  0
  188.3290  177.1420  146.5740 C   0  0  0  0  0  1  0  0  0  0  0  0
  183.2940  178.7920  143.6090 O   0  0  0  0  0  0  0  0  0  0  0  0
  189.9220  177.2650  144.6100 C   0  0  0  0  0  0  0  0  0  0  0  0
  188.8850  177.4390  141.0120 N   0  0  0  0  0  0  0  0  0  0  0  0
  190.8370  177.1450  146.5340 C   0  0  0  0  0  0  0  0  0  0  0  0
  191.2860  177.2820  144.4790 C   0  0  0  0  0  0  0  0  0  0  0  0
  186.8480  178.5830  141.7340 C   0  0  0  0  0  0  0  0  0  0  0  0
  189.0640  177.3430  143.4970 C   0  0  0  0  0  0  0  0  0  0  0  0
  185.2280  177.4550  143.3940 C   0  0  0  0  0  2  0  0  0  0  0  0
  191.9070  177.3580  143.2430 C   0  0  0  0  0  3  0  0  0  0  0  0
  184.4180  179.1010  141.5620 C   0  0  0  0  0  2  0  0  0  0  0  0
  185.8360  179.6400  141.4140 C   0  0  0  0  0  2  0  0  0  0  0  0
  186.6320  177.7390  142.9380 C   0  0  0  0  0  0  0  0  0  0  0  0
  190.2820  176.8940  137.1280 O   0  0  0  0  0  0  0  0  0  0  0  0
  189.4100  176.7900  139.8100 C   0  0  2  0  0  3  0  0  0  0  0  0
  190.8080  177.3070  139.4590 C   0  0  0  0  0  2  0  0  0  0  0  0
  191.2510  176.6570  138.1520 C   0  0  0  0  0  2  0  0  0  0  0  0
  188.9070  176.9580  137.4000 C   0  0  0  0  0  3  0  0  0  0  0  0
  188.4550  176.9340  138.6550 C   0  0  0  0  0  3  0  0  0  0  0  0
  1 12  1  0  0  0  0
  1 15  2  0  0  0  0
  2 16  1  0  0  0  0
  4 13  2  0  0  0  0
  6  2  2  0  0  0  0
  6 18  1  0  0  0  0
  7 13  1  0  0  0  0
  7  9  1  0  0  0  0
  8 17  1  0  0  0  0
  8 10  2  0  0  0  0
 11  7  1  0  0  0  0
 12  2  1  0  0  0  0
 13  5  1  0  0  0  0
 14 11  1  0  0  0  0
 14  4  1  0  0  0  0
 15 21  1  0  0  0  0
 16  3  1  0  0  0  0
 16 11  2  0  0  0  0
 18 14  2  0  0  0  0
 19  8  1  0  0  0  0
 20 19  1  0  0  0  0
 20 15  1  0  0  0  0
 21 17  1  0  0  0  0
 21  3  2  0  0  0  0
 22 26  1  0  0  0  0
 22 25  1  0  0  0  0
 23 27  1  6  0  0  0
 23 12  1  0  0  0  0
 24 23  1  0  0  0  0
 25 24  1  0  0  0  0
 26 27  2  0  0  0  0
M  END
>  <MODEL>
5

>  <REMARK>
 VINA RESULT:      -7.6      3.272      6.799
  Name = 
  1 active torsions:
  status: ('A' for Active; 'I' for Inactive)
    1  A    between atoms: C_9  and  N_15
                            x       y       z     vdW  Elec       q    Type
                         _______ _______ _______ _____ _____    ______ ____

>  <TORSDO>
F 1

$$$$
=
 OpenBabel10272400573D

 27 31  0  0  1  0  0  0  0  0999 V2000
  189.1770  176.7790  141.3790 C   0  0  0  0  0  3  0  0  0  0  0  0
  187.0410  178.0480  141.5310 C   0  0  0  0  0  0  0  0  0  0  0  0
  188.0760  178.2450  143.8490 C   0  0  0  0  0  3  0  0  0  0  0  0
  183.4190  178.8130  143.3390 N   0  0  0  0  0  0  0  0  0  0  0  0
  183.0530  179.1560  145.7270 N   0  0  0  0  0  1  0  0  0  0  0  0
  185.8870  178.1330  140.7130 C   0  0  0  0  0  3  0  0  0  0  0  0
  185.2280  178.7040  144.7070 N   0  0  0  0  0  0  0  0  0  0  0  0
  191.1800  176.6630  144.9910 C   0  0  0  0  0  0  0  0  0  0  0  0
  186.0140  178.7190  145.9330 C   0  0  0  0  0  1  0  0  0  0  0  0
  191.6130  176.3760  146.0940 O   0  0  0  0  0  0  0  0  0  0  0  0
  185.6330  178.4880  143.4410 C   0  0  0  0  0  0  0  0  0  0  0  0
  188.3180  177.8260  140.9100 N   0  0  0  0  0  0  0  0  0  0  0  0
  183.8930  178.8950  144.6060 C   0  0  0  0  0  0  0  0  0  0  0  0
  184.5330  178.5560  142.6270 C   0  0  0  0  0  0  0  0  0  0  0  0
  189.5530  176.6270  142.6470 C   0  0  0  0  0  0  0  0  0  0  0  0
  186.9200  178.2200  142.9360 C   0  0  0  0  0  0  0  0  0  0  0  0
  190.2340  177.8170  144.8320 C   0  0  0  0  0  2  0  0  0  0  0  0
  184.6190  178.3840  141.2550 C   0  0  0  0  0  3  0  0  0  0  0  0
  191.6520  175.9170  143.7840 C   0  0  0  0  0  2  0  0  0  0  0  0
  190.4500  175.4690  142.9590 C   0  0  0  0  0  2  0  0  0  0  0  0
  189.2310  177.5870  143.7360 C   0  0  0  0  0  0  0  0  0  0  0  0
  189.0510  178.0180  136.8160 O   0  0  0  0  0  0  0  0  0  0  0  0
  188.5570  178.3700  139.5720 C   0  0  2  0  0  3  0  0  0  0  0  0
  187.4200  178.0130  138.6110 C   0  0  0  0  0  2  0  0  0  0  0  0
  187.7800  178.5310  137.2210 C   0  0  0  0  0  2  0  0  0  0  0  0
  190.0940  177.7980  137.7280 C   0  0  0  0  0  3  0  0  0  0  0  0
  189.8970  177.9320  139.0400 C   0  0  0  0  0  3  0  0  0  0  0  0
  1 15  2  0  0  0  0
  2 16  1  0  0  0  0
  4 13  2  0  0  0  0
  6 18  1  0  0  0  0
  6  2  2  0  0  0  0
  7  9  1  0  0  0  0
  8 10  2  0  0  0  0
 11  7  1  0  0  0  0
 12  1  1  0  0  0  0
 12  2  1  0  0  0  0
 13  7  1  0  0  0  0
 13  5  1  0  0  0  0
 14  4  1  0  0  0  0
 14 11  1  0  0  0  0
 15 20  1  0  0  0  0
 15 21  1  0  0  0  0
 16 11  2  0  0  0  0
 16  3  1  0  0  0  0
 17  8  1  0  0  0  0
 18 14  2  0  0  0  0
 19  8  1  0  0  0  0
 20 19  1  0  0  0  0
 21  3  2  0  0  0  0
 21 17  1  0  0  0  0
 22 25  1  0  0  0  0
 22 26  1  0  0  0  0
 23 24  1  6  0  0  0
 23 12  1  0  0  0  0
 25 24  1  0  0  0  0
 26 27  2  0  0  0  0
 27 23  1  0  0  0  0
M  END
>  <MODEL>
6

>  <REMARK>
 VINA RESULT:      -7.3      2.260      6.012
  Name = 
  1 active torsions:
  status: ('A' for Active; 'I' for Inactive)
    1  A    between atoms: C_9  and  N_15
                            x       y       z     vdW  Elec       q    Type
                         _______ _______ _______ _____ _____    ______ ____

>  <TORSDO>
F 1

$$$$
=
 OpenBabel10272400573D

 27 31  0  0  1  0  0  0  0  0999 V2000
  184.4620  177.8770  142.5120 C   0  0  0  0  0  3  0  0  0  0  0  0
  186.9500  177.8380  142.4420 C   0  0  0  0  0  0  0  0  0  0  0  0
  186.2560  178.7880  140.1850 C   0  0  0  0  0  3  0  0  0  0  0  0
  190.4930  176.7590  140.6360 N   0  0  0  0  0  0  0  0  0  0  0  0
  191.0680  177.1020  138.2890 N   0  0  0  0  0  1  0  0  0  0  0  0
  187.9460  177.2160  143.2350 C   0  0  0  0  0  3  0  0  0  0  0  0
  188.9470  177.7630  139.3090 N   0  0  0  0  0  0  0  0  0  0  0  0
  182.8260  179.2100  138.9590 C   0  0  0  0  0  0  0  0  0  0  0  0
  188.3300  178.3170  138.1130 C   0  0  0  0  0  1  0  0  0  0  0  0
  182.3460  179.3100  137.8430 O   0  0  0  0  0  0  0  0  0  0  0  0
  188.4450  177.6630  140.5550 C   0  0  0  0  0  0  0  0  0  0  0  0
  185.7270  178.2600  143.0680 N   0  0  0  0  0  0  0  0  0  0  0  0
  190.1780  177.2090  139.3970 C   0  0  0  0  0  0  0  0  0  0  0  0
  189.3860  177.0560  141.3440 C   0  0  0  0  0  0  0  0  0  0  0  0
  184.1080  178.0790  141.2450 C   0  0  0  0  0  0  0  0  0  0  0  0
  187.1930  178.0640  141.0610 C   0  0  0  0  0  0  0  0  0  0  0  0
  184.2320  179.6670  139.2160 C   0  0  0  0  0  2  0  0  0  0  0  0
  189.1750  176.8140  142.6920 C   0  0  0  0  0  3  0  0  0  0  0  0
  181.9910  178.7040  140.0910 C   0  0  0  0  0  2  0  0  0  0  0  0
  182.7460  177.6080  140.8330 C   0  0  0  0  0  2  0  0  0  0  0  0
  184.9250  178.8300  140.2560 C   0  0  0  0  0  0  0  0  0  0  0  0
  185.1010  178.3610  147.1830 O   0  0  0  0  0  0  0  0  0  0  0  0
  185.7630  178.7060  144.4610 C   0  0  2  0  0  3  0  0  0  0  0  0
  186.5490  177.7300  145.3420 C   0  0  0  0  0  2  0  0  0  0  0  0
  186.4670  178.2090  146.7880 C   0  0  0  0  0  2  0  0  0  0  0  0
  184.1080  178.7880  146.2890 C   0  0  0  0  0  3  0  0  0  0  0  0
  184.3740  178.9440  144.9910 C   0  0  0  0  0  3  0  0  0  0  0  0
  1 12  1  0  0  0  0
  2 12  1  0  0  0  0
  2  6  1  0  0  0  0
  3 21  2  0  0  0  0
  3 16  1  0  0  0  0
  4 14  1  0  0  0  0
  5 13  1  0  0  0  0
  7 13  1  0  0  0  0
  7 11  1  0  0  0  0
  8 17  1  0  0  0  0
  8 19  1  0  0  0  0
  9  7  1  0  0  0  0
 10  8  2  0  0  0  0
 11 16  1  0  0  0  0
 11 14  2  0  0  0  0
 13  4  2  0  0  0  0
 14 18  1  0  0  0  0
 15  1  2  0  0  0  0
 16  2  2  0  0  0  0
 17 21  1  0  0  0  0
 18  6  2  0  0  0  0
 19 20  1  0  0  0  0
 20 15  1  0  0  0  0
 21 15  1  0  0  0  0
 23 12  1  6  0  0  0
 23 27  1  0  0  0  0
 23 24  1  0  0  0  0
 24 25  1  0  0  0  0
 25 22  1  0  0  0  0
 26 22  1  0  0  0  0
 27 26  2  0  0  0  0
M  END
>  <MODEL>
7

>  <REMARK>
 VINA RESULT:      -7.2      3.890      7.039
  Name = 
  1 active torsions:
  status: ('A' for Active; 'I' for Inactive)
    1  A    between atoms: C_9  and  N_15
                            x       y       z     vdW  Elec       q    Type
                         _______ _______ _______ _____ _____    ______ ____

>  <TORSDO>
F 1

$$$$
=
 OpenBabel10272400573D

 27 31  0  0  1  0  0  0  0  0999 V2000
  190.5640  176.3620  141.3820 C   0  0  0  0  0  3  0  0  0  0  0  0
  189.0250  177.4830  139.7790 C   0  0  0  0  0  0  0  0  0  0  0  0
  188.4170  178.4600  142.0490 C   0  0  0  0  0  3  0  0  0  0  0  0
  185.2380  178.5560  138.5620 N   0  0  0  0  0  0  0  0  0  0  0  0
  183.5310  179.6090  139.9510 N   0  0  0  0  0  1  0  0  0  0  0  0
  188.6580  177.2370  138.4320 C   0  0  0  0  0  3  0  0  0  0  0  0
  185.7660  178.9930  140.7270 N   0  0  0  0  0  0  0  0  0  0  0  0
  189.8500  177.5090  145.2870 C   0  0  0  0  0  0  0  0  0  0  0  0
  185.6140  179.4390  142.1050 C   0  0  0  0  0  1  0  0  0  0  0  0
  189.4560  177.6090  146.4350 O   0  0  0  0  0  0  0  0  0  0  0  0
  186.8280  178.4140  140.1340 C   0  0  0  0  0  0  0  0  0  0  0  0
  190.3580  177.1550  140.2060 N   0  0  0  0  0  0  0  0  0  0  0  0
  184.8310  179.0610  139.7520 C   0  0  0  0  0  0  0  0  0  0  0  0
  186.4960  178.1560  138.8300 C   0  0  0  0  0  0  0  0  0  0  0  0
  190.0450  176.6400  142.5750 C   0  0  0  0  0  0  0  0  0  0  0  0
  188.0890  178.0800  140.6640 C   0  0  0  0  0  0  0  0  0  0  0  0
  189.4010  178.4940  144.2480 C   0  0  0  0  0  2  0  0  0  0  0  0
  187.3850  177.5670  137.9450 C   0  0  0  0  0  3  0  0  0  0  0  0
  190.8440  176.4500  144.9260 C   0  0  0  0  0  2  0  0  0  0  0  0
  190.3610  175.6950  143.6940 C   0  0  0  0  0  2  0  0  0  0  0  0
  189.2720  177.8710  142.8860 C   0  0  0  0  0  0  0  0  0  0  0  0
  193.9050  176.3540  138.1780 O   0  0  0  0  0  0  0  0  0  0  0  0
  191.4560  177.2640  139.2440 C   0  0  2  0  0  3  0  0  0  0  0  0
  191.5020  176.0540  138.3060 C   0  0  0  0  0  2  0  0  0  0  0  0
  192.7190  176.1920  137.3960 C   0  0  0  0  0  2  0  0  0  0  0  0
  193.9090  177.0500  139.3950 C   0  0  0  0  0  3  0  0  0  0  0  0
  192.7710  177.4790  139.9440 C   0  0  0  0  0  3  0  0  0  0  0  0
  1 15  2  0  0  0  0
  2 12  1  0  0  0  0
  2 16  1  0  0  0  0
  3 21  2  0  0  0  0
  4 14  1  0  0  0  0
  4 13  2  0  0  0  0
  6  2  2  0  0  0  0
  7  9  1  0  0  0  0
  8 10  2  0  0  0  0
 11 16  2  0  0  0  0
 11  7  1  0  0  0  0
 12  1  1  0  0  0  0
 13  5  1  0  0  0  0
 13  7  1  0  0  0  0
 14 11  1  0  0  0  0
 15 21  1  0  0  0  0
 15 20  1  0  0  0  0
 16  3  1  0  0  0  0
 17  8  1  0  0  0  0
 18  6  1  0  0  0  0
 18 14  2  0  0  0  0
 19  8  1  0  0  0  0
 20 19  1  0  0  0  0
 21 17  1  0  0  0  0
 22 26  1  0  0  0  0
 23 24  1  1  0  0  0
 23 27  1  0  0  0  0
 23 12  1  0  0  0  0
 25 22  1  0  0  0  0
 25 24  1  0  0  0  0
 26 27  2  0  0  0  0
M  END
>  <MODEL>
8

>  <REMARK>
 VINA RESULT:      -7.1      3.263      6.513
  Name = 
  1 active torsions:
  status: ('A' for Active; 'I' for Inactive)
    1  A    between atoms: C_9  and  N_15
                            x       y       z     vdW  Elec       q    Type
                         _______ _______ _______ _____ _____    ______ ____

>  <TORSDO>
F 1

$$$$
=
 OpenBabel10272400573D

 27 31  0  0  1  0  0  0  0  0999 V2000
  191.6470  177.0740  139.3080 C   0  0  0  0  0  3  0  0  0  0  0  0
  189.1660  177.2520  139.2430 C   0  0  0  0  0  0  0  0  0  0  0  0
  189.7190  175.3550  137.6380 C   0  0  0  0  0  3  0  0  0  0  0  0
  185.6300  177.6640  137.1660 N   0  0  0  0  0  0  0  0  0  0  0  0
  184.9510  176.3600  135.2200 N   0  0  0  0  0  1  0  0  0  0  0  0
  188.2380  178.2280  139.6840 C   0  0  0  0  0  3  0  0  0  0  0  0
  187.0650  176.0720  136.4140 N   0  0  0  0  0  0  0  0  0  0  0  0
  193.0710  174.1960  136.7060 C   0  0  0  0  0  0  0  0  0  0  0  0
  187.6040  175.0040  135.5840 C   0  0  0  0  0  1  0  0  0  0  0  0
  193.5030  173.5790  135.7480 O   0  0  0  0  0  0  0  0  0  0  0  0
  187.6170  176.6780  137.4840 C   0  0  0  0  0  0  0  0  0  0  0  0
  190.3830  177.0660  139.9830 N   0  0  0  0  0  0  0  0  0  0  0  0
  185.8730  176.6910  136.2540 C   0  0  0  0  0  0  0  0  0  0  0  0
  186.7430  177.6350  137.9270 C   0  0  0  0  0  0  0  0  0  0  0  0
  191.9430  176.3080  138.2600 C   0  0  0  0  0  0  0  0  0  0  0  0
  188.8590  176.4550  138.1070 C   0  0  0  0  0  0  0  0  0  0  0  0
  191.6500  173.9990  137.1480 C   0  0  0  0  0  2  0  0  0  0  0  0
  187.0170  178.4330  139.0260 C   0  0  0  0  0  3  0  0  0  0  0  0
  193.9760  175.0910  137.4920 C   0  0  0  0  0  2  0  0  0  0  0  0
  193.3140  176.4520  137.6740 C   0  0  0  0  0  2  0  0  0  0  0  0
  191.0470  175.2560  137.7130 C   0  0  0  0  0  0  0  0  0  0  0  0
  191.0860  176.5220  144.0510 O   0  0  0  0  0  0  0  0  0  0  0  0
  190.3710  177.2860  141.4300 C   0  0  2  0  0  3  0  0  0  0  0  0
  191.7790  177.5540  141.9690 C   0  0  0  0  0  2  0  0  0  0  0  0
  191.7010  177.6830  143.4870 C   0  0  0  0  0  2  0  0  0  0  0  0
  190.0610  175.8250  143.3950 C   0  0  0  0  0  3  0  0  0  0  0  0
  189.7070  176.1410  142.1480 C   0  0  0  0  0  3  0  0  0  0  0  0
  1 12  1  0  0  0  0
  2  6  1  0  0  0  0
  2 12  1  0  0  0  0
  3 21  2  0  0  0  0
  3 16  1  0  0  0  0
  4 14  1  0  0  0  0
  5 13  1  0  0  0  0
  7 11  1  0  0  0  0
  8 17  1  0  0  0  0
  8 19  1  0  0  0  0
  9  7  1  0  0  0  0
 10  8  2  0  0  0  0
 11 14  2  0  0  0  0
 11 16  1  0  0  0  0
 13  7  1  0  0  0  0
 13  4  2  0  0  0  0
 14 18  1  0  0  0  0
 15  1  2  0  0  0  0
 16  2  2  0  0  0  0
 17 21  1  0  0  0  0
 18  6  2  0  0  0  0
 19 20  1  0  0  0  0
 20 15  1  0  0  0  0
 21 15  1  0  0  0  0
 23 12  1  6  0  0  0
 23 24  1  0  0  0  0
 23 27  1  0  0  0  0
 24 25  1  0  0  0  0
 25 22  1  0  0  0  0
 26 22  1  0  0  0  0
 27 26  2  0  0  0  0
M  END
>  <MODEL>
9

>  <REMARK>
 VINA RESULT:      -7.1      4.822      6.999
  Name = 
  1 active torsions:
  status: ('A' for Active; 'I' for Inactive)
    1  A    between atoms: C_9  and  N_15
                            x       y       z     vdW  Elec       q    Type
                         _______ _______ _______ _____ _____    ______ ____

>  <TORSDO>
F 1

$$$$
