=
 OpenBabel10272401233D

 55 59  0  0  1  0  0  0  0  0999 V2000
  186.1790  179.4270  138.9390 C   0  0  0  0  0  2  0  0  0  0  0  0
  186.3540  175.0300  134.3460 O   0  0  0  0  0  0  0  0  0  0  0  0
  183.5660  172.8110  135.0810 N   0  0  0  0  0  2  0  0  0  0  0  0
  181.2520  172.2430  136.9620 C   0  0  0  0  0  3  0  0  0  0  0  0
  180.0460  172.5700  137.5860 C   0  0  0  0  0  3  0  0  0  0  0  0
  182.3420  174.1100  138.0730 C   0  0  0  0  0  0  0  0  0  0  0  0
  181.1240  174.4280  138.6960 C   0  0  0  0  0  3  0  0  0  0  0  0
  184.1350  171.2430  136.8730 C   0  0  0  0  0  1  0  0  0  0  0  0
  179.9820  173.6620  138.4540 C   0  0  0  0  0  3  0  0  0  0  0  0
  182.4070  173.0040  137.2070 C   0  0  0  0  0  0  0  0  0  0  0  0
  187.2160  179.4930  136.8360 C   0  0  1  0  0  3  0  0  0  0  0  0
  185.0060  177.6660  140.3130 C   0  0  0  0  0  2  0  0  0  0  0  0
  186.7330  179.4420  135.3870 C   0  0  0  0  0  2  0  0  0  0  0  0
  184.9230  176.5140  139.3170 C   0  0  0  0  0  2  0  0  0  0  0  0
  186.9250  178.0800  134.7240 C   0  0  0  0  0  2  0  0  0  0  0  0
  183.4930  174.8800  138.2960 O   0  0  0  0  0  0  0  0  0  0  0  0
  184.9970  174.6860  134.4690 C   0  0  0  0  0  2  0  0  0  0  0  0
  184.8740  173.1760  134.5580 C   0  0  0  0  0  2  0  0  0  0  0  0
  186.6750  175.9740  135.3470 C   0  0  1  0  0  3  0  0  0  0  0  0
  184.8830  179.0190  139.6230 C   0  0  0  0  0  2  0  0  0  0  0  0
  183.6980  172.6580  136.5250 C   0  0  2  0  0  3  0  0  0  0  0  0
  186.3540  178.6920  137.6940 N   0  0  0  0  0  2  0  0  0  0  0  0
  185.9690  177.1700  135.1780 O   0  0  0  0  0  0  0  0  0  0  0  0
  183.4840  176.1270  138.9880 C   0  0  2  0  0  3  0  0  0  0  0  0
  182.1470  180.4490  137.2170 C   0  0  0  0  0  2  0  0  0  0  0  0
  182.8220  177.1680  138.1400 C   0  0  0  0  0  0  0  0  0  0  0  0
  179.9840  180.4870  138.4350 C   0  0  0  0  0  1  0  0  0  0  0  0
  181.7020  179.0140  137.3650 C   0  0  2  0  0  0  0  0  0  0  0  0
  182.7990  177.1150  136.8130 C   0  0  0  0  0  3  0  0  0  0  0  0
  182.1270  178.2090  136.2900 O   0  0  0  0  0  0  0  0  0  0  0  0
  180.6640  180.0970  137.1360 C   0  0  2  0  0  3  0  0  0  0  0  0
  182.1240  178.3800  138.6750 C   0  0  0  0  0  2  0  0  0  0  0  0
  186.5000  175.4270  136.7620 C   0  0  0  0  0  2  0  0  0  0  0  0
  187.6190  175.9070  137.6710 C   0  0  0  0  0  2  0  0  0  0  0  0
  189.5420  175.7220  135.0050 C   0  0  0  0  0  1  0  0  0  0  0  0
  189.8150  175.2920  138.3690 C   0  0  0  0  0  2  0  0  0  0  0  0
  189.8120  173.6620  136.2540 C   0  0  2  0  0  3  0  0  0  0  0  0
  188.4710  174.7880  138.0580 N   0  0  0  0  0  0  0  0  0  0  0  0
  188.4640  173.7850  136.9780 C   0  0  0  0  0  2  0  0  0  0  0  0
  190.3980  174.9740  135.9190 N   0  0  0  0  0  0  0  0  0  0  0  0
  190.5720  175.8040  137.1210 C   0  0  2  0  0  3  0  0  0  0  0  0
  188.9450  171.4390  135.4400 C   0  0  0  0  0  1  0  0  0  0  0  0
  191.1930  172.1980  134.6730 C   0  0  0  0  0  1  0  0  0  0  0  0
  189.8040  172.6440  135.1030 C   0  0  0  0  0  3  0  0  0  0  0  0
  191.9320  175.9230  137.4130 O   0  0  0  0  0  0  0  0  0  0  0  0
  192.5830  175.1680  136.4330 C   0  0  0  0  0  2  0  0  0  0  0  0
  194.0930  175.3240  136.5510 C   0  0  2  0  0  3  0  0  0  0  0  0
  194.5910  175.9930  135.4310 O   0  0  0  0  0  1  0  0  0  0  0  0
  194.7030  174.0710  136.6600 O   0  0  0  0  0  0  0  0  0  0  0  0
  195.9480  173.4830  138.5980 C   0  0  0  0  0  1  0  0  0  0  0  0
  194.5740  173.7260  138.0060 C   0  0  0  0  0  2  0  0  0  0  0  0
  188.6750  179.0530  136.9550 C   0  0  0  0  0  2  0  0  0  0  0  0
  189.2640  179.5470  138.1490 O   0  0  0  0  0  0  0  0  0  0  0  0
  189.6950  178.0120  140.1100 N   0  0  0  0  0  0  0  0  0  0  0  0
  189.4980  178.7160  139.2120 C   0  0  0  0  0  0  0  0  0  0  0  0
  1 20  1  0  0  0  0
  2 17  1  0  0  0  0
  2 19  1  0  0  0  0
  3 21  1  0  0  0  0
  4 10  2  0  0  0  0
  4  5  1  0  0  0  0
  5  9  2  0  0  0  0
  6 16  1  0  0  0  0
  6  7  2  0  0  0  0
  9  7  1  0  0  0  0
 10  6  1  0  0  0  0
 11 52  1  6  0  0  0
 11 22  1  0  0  0  0
 13 11  1  0  0  0  0
 14 12  1  0  0  0  0
 15 23  1  0  0  0  0
 15 13  1  0  0  0  0
 16 24  1  0  0  0  0
 17 18  1  0  0  0  0
 18  3  1  0  0  0  0
 19 33  1  1  0  0  0
 20 12  1  0  0  0  0
 21  8  1  6  0  0  0
 21 10  1  0  0  0  0
 22  1  1  0  0  0  0
 23 19  1  0  0  0  0
 24 26  1  6  0  0  0
 24 14  1  0  0  0  0
 26 32  1  0  0  0  0
 28 25  1  6  0  0  0
 28 32  1  0  0  0  0
 29 26  2  0  0  0  0
 30 29  1  0  0  0  0
 30 28  1  0  0  0  0
 31 25  1  0  0  0  0
 31 28  1  0  0  0  0
 31 27  1  1  0  0  0
 33 34  1  0  0  0  0
 34 38  1  0  0  0  0
 35 40  1  0  0  0  0
 37 44  1  6  0  0  0
 37 39  1  0  0  0  0
 38 36  1  0  0  0  0
 39 38  1  0  0  0  0
 40 37  1  0  0  0  0
 40 41  1  0  0  0  0
 41 45  1  1  0  0  0
 41 36  1  0  0  0  0
 43 44  1  0  0  0  0
 44 42  1  0  0  0  0
 46 47  1  0  0  0  0
 46 45  1  0  0  0  0
 47 48  1  6  0  0  0
 47 49  1  0  0  0  0
 49 51  1  0  0  0  0
 51 50  1  0  0  0  0
 52 53  1  0  0  0  0
 53 55  1  0  0  0  0
 55 54  3  0  0  0  0
M  END
>  <MODEL>
1

>  <REMARK>
 VINA RESULT:       0.9      0.000      0.000
  Name = 
  13 active torsions:
  status: ('A' for Active; 'I' for Inactive)
    1  A    between atoms: C_3  and  C_6
    2  A    between atoms: C_3  and  O_21
    3  A    between atoms: C_6  and  O_25
    4  A    between atoms: C_8  and  N_20
    5  A    between atoms: C_8  and  C_22
    6  A    between atoms: C_12  and  C_50
    7  A    between atoms: C_13  and  C_52
    8  A    between atoms: O_21  and  C_53
    9  A    between atoms: C_22  and  C_43
   10  A    between atoms: O_25  and  C_38
   11  A    between atoms: C_27  and  C_54
   12  A    between atoms: C_41  and  O_55
   13  A    between atoms: C_54  and  O_55
                            x       y       z     vdW  Elec       q    Type
                         _______ _______ _______ _____ _____    ______ ____

>  <TORSDO>
F 13

$$$$
=
 OpenBabel10272401233D

 55 59  0  0  1  0  0  0  0  0999 V2000
  184.4160  178.1770  138.5280 C   0  0  0  0  0  2  0  0  0  0  0  0
  188.6160  175.1560  134.8300 O   0  0  0  0  0  0  0  0  0  0  0  0
  187.2190  171.8280  134.3670 N   0  0  0  0  0  2  0  0  0  0  0  0
  184.9070  169.9750  135.0250 C   0  0  0  0  0  3  0  0  0  0  0  0
  183.5580  169.6130  135.0090 C   0  0  0  0  0  3  0  0  0  0  0  0
  184.3770  171.9230  136.3790 C   0  0  0  0  0  0  0  0  0  0  0  0
  183.0230  171.5480  136.3570 C   0  0  0  0  0  3  0  0  0  0  0  0
  187.6330  170.4170  136.3250 C   0  0  0  0  0  1  0  0  0  0  0  0
  182.6160  170.3990  135.6760 C   0  0  0  0  0  3  0  0  0  0  0  0
  185.3250  171.1240  135.7150 C   0  0  0  0  0  0  0  0  0  0  0  0
  186.0820  179.0490  137.1280 C   0  0  1  0  0  3  0  0  0  0  0  0
  183.7640  175.8770  139.3360 C   0  0  0  0  0  2  0  0  0  0  0  0
  186.3580  179.0230  135.6240 C   0  0  0  0  0  2  0  0  0  0  0  0
  184.6770  174.9930  138.4930 C   0  0  0  0  0  2  0  0  0  0  0  0
  187.4390  178.0260  135.2160 C   0  0  0  0  0  2  0  0  0  0  0  0
  184.7970  173.0810  137.0480 O   0  0  0  0  0  0  0  0  0  0  0  0
  187.6870  174.2200  134.3460 C   0  0  0  0  0  2  0  0  0  0  0  0
  188.2730  172.8260  134.4720 C   0  0  0  0  0  2  0  0  0  0  0  0
  187.9840  175.9640  135.8000 C   0  0  1  0  0  3  0  0  0  0  0  0
  183.3220  177.1210  138.5750 C   0  0  0  0  0  2  0  0  0  0  0  0
  186.7730  171.5170  135.7200 C   0  0  2  0  0  3  0  0  0  0  0  0
  185.4340  177.8160  137.5530 N   0  0  0  0  0  2  0  0  0  0  0  0
  186.9440  176.7210  135.2480 O   0  0  0  0  0  0  0  0  0  0  0  0
  183.8990  174.0570  137.5730 C   0  0  2  0  0  3  0  0  0  0  0  0
  182.3100  177.7190  134.8040 C   0  0  0  0  0  2  0  0  0  0  0  0
  183.2590  174.8090  136.4470 C   0  0  0  0  0  0  0  0  0  0  0  0
  179.9830  177.6010  135.6590 C   0  0  0  0  0  1  0  0  0  0  0  0
  182.0490  176.2770  135.1660 C   0  0  2  0  0  0  0  0  0  0  0  0
  183.4780  174.5240  135.1680 C   0  0  0  0  0  3  0  0  0  0  0  0
  182.7630  175.3820  134.3460 O   0  0  0  0  0  0  0  0  0  0  0  0
  180.9280  177.1130  134.5780 C   0  0  2  0  0  3  0  0  0  0  0  0
  182.3170  175.9590  136.6240 C   0  0  0  0  0  2  0  0  0  0  0  0
  187.5020  175.1730  137.0150 C   0  0  0  0  0  2  0  0  0  0  0  0
  187.9630  175.8290  138.3050 C   0  0  0  0  0  2  0  0  0  0  0  0
  190.4590  177.7180  137.2860 C   0  0  0  0  0  1  0  0  0  0  0  0
  189.6350  175.8470  140.0060 C   0  0  0  0  0  2  0  0  0  0  0  0
  191.3860  175.5960  138.0040 C   0  0  2  0  0  3  0  0  0  0  0  0
  189.0830  175.0880  138.8760 N   0  0  0  0  0  0  0  0  0  0  0  0
  190.0730  174.8230  137.8170 C   0  0  0  0  0  2  0  0  0  0  0  0
  191.1660  177.0130  138.3500 N   0  0  0  0  0  0  0  0  0  0  0  0
  190.3510  177.1470  139.5680 C   0  0  2  0  0  3  0  0  0  0  0  0
  192.3440  173.9250  136.3790 C   0  0  0  0  0  1  0  0  0  0  0  0
  193.8360  175.7090  137.2760 C   0  0  0  0  0  1  0  0  0  0  0  0
  192.4100  175.3540  136.8860 C   0  0  0  0  0  3  0  0  0  0  0  0
  191.1480  177.6190  140.6130 O   0  0  0  0  0  0  0  0  0  0  0  0
  190.8920  176.7580  141.6840 C   0  0  0  0  0  2  0  0  0  0  0  0
  190.8700  177.5280  142.9970 C   0  0  2  0  0  3  0  0  0  0  0  0
  191.9070  177.0890  143.8240 O   0  0  0  0  0  1  0  0  0  0  0  0
  189.6450  177.3480  143.6450 O   0  0  0  0  0  0  0  0  0  0  0  0
  188.8880  177.2810  145.8980 C   0  0  0  0  0  1  0  0  0  0  0  0
  189.8110  177.9450  144.8970 C   0  0  0  0  0  2  0  0  0  0  0  0
  187.3600  179.3040  137.9260 C   0  0  0  0  0  2  0  0  0  0  0  0
  187.4730  178.3990  139.0160 O   0  0  0  0  0  0  0  0  0  0  0  0
  186.4600  178.9460  141.2660 N   0  0  0  0  0  0  0  0  0  0  0  0
  186.9250  178.6970  140.2340 C   0  0  0  0  0  0  0  0  0  0  0  0
  1 20  1  0  0  0  0
  2 19  1  0  0  0  0
  3 18  1  0  0  0  0
  3 21  1  0  0  0  0
  4 10  1  0  0  0  0
  5  4  2  0  0  0  0
  5  9  1  0  0  0  0
  6 16  1  0  0  0  0
  7  6  1  0  0  0  0
  9  7  2  0  0  0  0
 10 21  1  0  0  0  0
 10  6  2  0  0  0  0
 11 22  1  0  0  0  0
 11 52  1  1  0  0  0
 13 11  1  0  0  0  0
 14 12  1  0  0  0  0
 15 23  1  0  0  0  0
 15 13  1  0  0  0  0
 16 24  1  0  0  0  0
 17 18  1  0  0  0  0
 17  2  1  0  0  0  0
 19 33  1  1  0  0  0
 20 12  1  0  0  0  0
 21  8  1  6  0  0  0
 22  1  1  0  0  0  0
 23 19  1  0  0  0  0
 24 26  1  6  0  0  0
 24 14  1  0  0  0  0
 26 32  1  0  0  0  0
 28 25  1  6  0  0  0
 28 32  1  0  0  0  0
 29 26  2  0  0  0  0
 30 28  1  0  0  0  0
 30 29  1  0  0  0  0
 31 25  1  0  0  0  0
 31 28  1  0  0  0  0
 31 27  1  1  0  0  0
 33 34  1  0  0  0  0
 34 38  1  0  0  0  0
 35 40  1  0  0  0  0
 37 44  1  6  0  0  0
 37 40  1  0  0  0  0
 38 36  1  0  0  0  0
 39 37  1  0  0  0  0
 39 38  1  0  0  0  0
 40 41  1  0  0  0  0
 41 36  1  0  0  0  0
 41 45  1  1  0  0  0
 42 44  1  0  0  0  0
 44 43  1  0  0  0  0
 45 46  1  0  0  0  0
 46 47  1  0  0  0  0
 47 49  1  0  0  0  0
 47 48  1  1  0  0  0
 49 51  1  0  0  0  0
 51 50  1  0  0  0  0
 52 53  1  0  0  0  0
 53 55  1  0  0  0  0
 55 54  3  0  0  0  0
M  END
>  <MODEL>
2

>  <REMARK>
 VINA RESULT:       1.5      2.598      4.119
  Name = 
  13 active torsions:
  status: ('A' for Active; 'I' for Inactive)
    1  A    between atoms: C_3  and  C_6
    2  A    between atoms: C_3  and  O_21
    3  A    between atoms: C_6  and  O_25
    4  A    between atoms: C_8  and  N_20
    5  A    between atoms: C_8  and  C_22
    6  A    between atoms: C_12  and  C_50
    7  A    between atoms: C_13  and  C_52
    8  A    between atoms: O_21  and  C_53
    9  A    between atoms: C_22  and  C_43
   10  A    between atoms: O_25  and  C_38
   11  A    between atoms: C_27  and  C_54
   12  A    between atoms: C_41  and  O_55
   13  A    between atoms: C_54  and  O_55
                            x       y       z     vdW  Elec       q    Type
                         _______ _______ _______ _____ _____    ______ ____

>  <TORSDO>
F 13

$$$$
