=
 OpenBabel10272400093D

 34 38  0  0  1  0  0  0  0  0999 V2000
  189.6550  177.4950  146.8340 C   0  0  2  0  0  3  0  0  0  0  0  0
  187.2020  178.1730  146.7070 C   0  0  1  0  0  3  0  0  0  0  0  0
  188.4850  177.0670  144.7200 C   0  0  2  0  0  3  0  0  0  0  0  0
  188.2970  177.7430  148.9350 C   0  0  0  0  0  2  0  0  0  0  0  0
  189.7580  175.7960  142.6330 S   0  0  1  0  0  0  0  0  0  0  0  0
  190.7550  175.8420  140.2270 F   0  0  0  0  0  0  0  0  0  0  0  0
  187.1480  177.3440  147.9880 C   0  0  0  0  0  2  0  0  0  0  0  0
  185.9950  176.9830  144.8100 C   0  0  0  0  0  2  0  0  0  0  0  0
  191.8400  178.1540  140.3230 F   0  0  0  0  0  0  0  0  0  0  0  0
  188.5350  178.0140  145.9300 C   0  0  2  0  0  3  0  0  0  0  0  0
  192.4960  177.9080  142.4520 F   0  0  0  0  0  0  0  0  0  0  0  0
  189.6000  178.1370  148.2130 C   0  0  0  0  0  2  0  0  0  0  0  0
  189.8140  177.1110  143.9160 C   0  0  1  0  0  0  0  0  0  0  0  0
  191.1120  176.2150  141.5120 C   0  0  1  0  0  3  0  0  0  0  0  0
  190.9900  177.6620  146.1300 C   0  0  0  0  0  2  0  0  0  0  0  0
  185.9270  178.0810  145.8680 C   0  0  0  0  0  2  0  0  0  0  0  0
  190.2290  178.5150  142.0260 C   0  0  0  0  0  2  0  0  0  0  0  0
  191.4480  177.7090  141.5720 C   0  0  0  0  0  0  0  0  0  0  0  0
  190.0250  178.4370  143.4230 O   0  0  0  0  0  0  0  0  0  0  0  0
  190.2320  174.5250  143.3270 O   0  0  0  0  0  0  0  0  0  0  0  0
  187.1980  177.1890  143.8920 C   0  0  1  0  0  3  0  0  0  0  0  0
  190.9830  176.7860  144.8720 C   0  0  0  0  0  2  0  0  0  0  0  0
  187.1040  178.5050  143.1210 C   0  0  0  0  0  2  0  0  0  0  0  0
  185.8650  178.5160  142.2380 C   0  0  1  0  0  3  0  0  0  0  0  0
  184.8530  179.5190  142.7660 C   0  0  0  0  0  1  0  0  0  0  0  0
  187.1760  178.1330  140.1630 C   0  0  0  0  0  3  0  0  0  0  0  0
  186.2180  178.8040  140.8110 C   0  0  0  0  0  3  0  0  0  0  0  0
  185.6680  177.3730  137.6350 O   0  0  0  0  0  0  0  0  0  0  0  0
  187.5080  178.4470  138.7390 C   0  0  2  0  0  3  0  0  0  0  0  0
  186.9150  177.4180  137.8070 C   0  0  0  0  0  0  0  0  0  0  0  0
  189.0500  176.5650  137.1630 C   0  0  0  0  0  3  0  0  0  0  0  0
  189.7150  177.6550  137.8910 C   0  0  0  0  0  3  0  0  0  0  0  0
  189.0050  178.5350  138.5990 C   0  0  0  0  0  3  0  0  0  0  0  0
  187.7550  176.4760  137.1290 N   0  0  0  0  0  0  0  0  0  0  0  0
  1 15  1  6  0  0  0
  1 12  1  0  0  0  0
  2 16  1  6  0  0  0
  2  7  1  0  0  0  0
  3 10  1  0  0  0  0
  5 20  2  0  0  0  0
  5 13  1  0  0  0  0
  6 14  1  0  0  0  0
  7  4  1  0  0  0  0
  8 16  1  0  0  0  0
  9 18  1  0  0  0  0
 10  2  1  0  0  0  0
 10  1  1  0  0  0  0
 12  4  1  0  0  0  0
 13  3  1  0  0  0  0
 13 22  1  0  0  0  0
 14 18  1  0  0  0  0
 14  5  1  0  0  0  0
 17 19  1  0  0  0  0
 18 17  1  0  0  0  0
 18 11  1  0  0  0  0
 19 13  1  0  0  0  0
 21  3  1  0  0  0  0
 21  8  1  0  0  0  0
 22 15  1  0  0  0  0
 23 21  1  0  0  0  0
 24 25  1  0  0  0  0
 24 23  1  0  0  0  0
 26 27  2  0  0  0  0
 27 24  1  0  0  0  0
 28 30  2  0  0  0  0
 29 26  1  0  0  0  0
 30 29  1  0  0  0  0
 31 32  1  0  0  0  0
 32 33  2  0  0  0  0
 33 29  1  0  0  0  0
 34 31  2  0  0  0  0
 34 30  1  0  0  0  0
M  END
>  <MODEL>
1

>  <REMARK>
 VINA RESULT:      -7.1      0.000      0.000
  Name = 
  4 active torsions:
  status: ('A' for Active; 'I' for Inactive)
    1  A    between atoms: C_3  and  C_13
    2  A    between atoms: C_5  and  C_18
    3  A    between atoms: C_5  and  C_31
    4  A    between atoms: C_17  and  C_18
                            x       y       z     vdW  Elec       q    Type
                         _______ _______ _______ _____ _____    ______ ____

>  <TORSDO>
F 4

$$$$
=
 OpenBabel10272400093D

 34 38  0  0  1  0  0  0  0  0999 V2000
  189.9660  177.7260  146.5540 C   0  0  2  0  0  3  0  0  0  0  0  0
  187.4940  178.1430  147.0110 C   0  0  1  0  0  3  0  0  0  0  0  0
  188.3810  177.1000  144.7880 C   0  0  2  0  0  3  0  0  0  0  0  0
  189.1260  177.9120  148.9160 C   0  0  0  0  0  2  0  0  0  0  0  0
  189.2540  175.8890  142.4720 S   0  0  1  0  0  0  0  0  0  0  0  0
  189.6410  175.9460  139.8960 F   0  0  0  0  0  0  0  0  0  0  0  0
  187.8350  177.3620  148.2770 C   0  0  0  0  0  2  0  0  0  0  0  0
  186.0090  176.7630  145.4740 C   0  0  0  0  0  2  0  0  0  0  0  0
  190.4580  178.3600  139.7010 F   0  0  0  0  0  0  0  0  0  0  0  0
  188.6140  178.0920  145.9390 C   0  0  2  0  0  3  0  0  0  0  0  0
  191.6230  178.2640  141.6140 F   0  0  0  0  0  0  0  0  0  0  0  0
  190.1690  178.4110  147.8980 C   0  0  0  0  0  2  0  0  0  0  0  0
  189.4680  177.2510  143.6880 C   0  0  1  0  0  0  0  0  0  0  0  0
  190.2490  176.4030  141.0530 C   0  0  1  0  0  3  0  0  0  0  0  0
  191.0690  178.0030  145.5490 C   0  0  0  0  0  2  0  0  0  0  0  0
  186.0740  177.8880  146.5040 C   0  0  0  0  0  2  0  0  0  0  0  0
  189.2680  178.6170  141.7370 C   0  0  0  0  0  2  0  0  0  0  0  0
  190.4250  177.9250  141.0130 C   0  0  0  0  0  0  0  0  0  0  0  0
  189.4100  178.5720  143.1430 O   0  0  0  0  0  0  0  0  0  0  0  0
  190.0140  174.7010  143.0470 O   0  0  0  0  0  0  0  0  0  0  0  0
  186.9290  177.0570  144.2910 C   0  0  1  0  0  3  0  0  0  0  0  0
  190.8600  177.0850  144.3390 C   0  0  0  0  0  2  0  0  0  0  0  0
  186.5120  178.3270  143.5490 C   0  0  0  0  0  2  0  0  0  0  0  0
  184.9970  178.4660  143.5460 C   0  0  1  0  0  3  0  0  0  0  0  0
  184.5950  179.8460  144.0370 C   0  0  0  0  0  1  0  0  0  0  0  0
  184.8960  178.7850  141.0840 C   0  0  0  0  0  3  0  0  0  0  0  0
  184.4300  178.1890  142.1860 C   0  0  0  0  0  3  0  0  0  0  0  0
  184.2230  180.7100  138.8300 O   0  0  0  0  0  0  0  0  0  0  0  0
  184.3050  178.4920  139.7420 C   0  0  2  0  0  3  0  0  0  0  0  0
  183.5740  179.6970  139.2000 C   0  0  0  0  0  0  0  0  0  0  0  0
  181.4360  178.6450  139.3570 C   0  0  0  0  0  3  0  0  0  0  0  0
  182.0780  177.3700  139.7050 C   0  0  0  0  0  3  0  0  0  0  0  0
  183.4020  177.2930  139.8610 C   0  0  0  0  0  3  0  0  0  0  0  0
  182.1430  179.7080  139.1200 N   0  0  0  0  0  0  0  0  0  0  0  0
  1 15  1  6  0  0  0
  1 12  1  0  0  0  0
  2 16  1  6  0  0  0
  2  7  1  0  0  0  0
  3 10  1  0  0  0  0
  5 20  2  0  0  0  0
  5 13  1  0  0  0  0
  6 14  1  0  0  0  0
  7  4  1  0  0  0  0
  8 16  1  0  0  0  0
  9 18  1  0  0  0  0
 10  1  1  0  0  0  0
 10  2  1  0  0  0  0
 12  4  1  0  0  0  0
 13 22  1  0  0  0  0
 13  3  1  0  0  0  0
 14  5  1  0  0  0  0
 17 19  1  0  0  0  0
 18 14  1  0  0  0  0
 18 11  1  0  0  0  0
 18 17  1  0  0  0  0
 19 13  1  0  0  0  0
 21  3  1  0  0  0  0
 21  8  1  0  0  0  0
 22 15  1  0  0  0  0
 23 21  1  0  0  0  0
 24 23  1  0  0  0  0
 24 25  1  0  0  0  0
 26 27  2  0  0  0  0
 27 24  1  0  0  0  0
 28 30  2  0  0  0  0
 29 33  1  0  0  0  0
 29 26  1  0  0  0  0
 30 29  1  0  0  0  0
 31 32  1  0  0  0  0
 32 33  2  0  0  0  0
 34 30  1  0  0  0  0
 34 31  2  0  0  0  0
M  END
>  <MODEL>
2

>  <REMARK>
 VINA RESULT:      -7.1      2.125      2.892
  Name = 
  4 active torsions:
  status: ('A' for Active; 'I' for Inactive)
    1  A    between atoms: C_3  and  C_13
    2  A    between atoms: C_5  and  C_18
    3  A    between atoms: C_5  and  C_31
    4  A    between atoms: C_17  and  C_18
                            x       y       z     vdW  Elec       q    Type
                         _______ _______ _______ _____ _____    ______ ____

>  <TORSDO>
F 4

$$$$
=
 OpenBabel10272400093D

 34 38  0  0  1  0  0  0  0  0999 V2000
  190.5170  177.6170  139.4170 C   0  0  2  0  0  3  0  0  0  0  0  0
  187.9800  177.8430  139.3370 C   0  0  1  0  0  3  0  0  0  0  0  0
  189.3640  178.0410  141.5420 C   0  0  2  0  0  3  0  0  0  0  0  0
  189.3670  178.2540  137.2750 C   0  0  0  0  0  2  0  0  0  0  0  0
  190.7860  178.3740  143.8790 S   0  0  1  0  0  0  0  0  0  0  0  0
  191.4690  177.5410  146.2510 F   0  0  0  0  0  0  0  0  0  0  0  0
  188.3380  178.8560  138.2520 C   0  0  0  0  0  2  0  0  0  0  0  0
  187.0760  179.0190  141.4040 C   0  0  0  0  0  2  0  0  0  0  0  0
  191.6990  175.0520  145.7130 F   0  0  0  0  0  0  0  0  0  0  0  0
  189.2050  177.3750  140.1660 C   0  0  2  0  0  3  0  0  0  0  0  0
  192.6030  175.4320  143.6970 F   0  0  0  0  0  0  0  0  0  0  0  0
  190.3790  177.2980  137.9360 C   0  0  0  0  0  2  0  0  0  0  0  0
  190.5120  177.3820  142.3560 C   0  0  1  0  0  0  0  0  0  0  0  0
  191.7990  177.3050  144.9260 C   0  0  1  0  0  3  0  0  0  0  0  0
  191.6380  176.8620  140.1080 C   0  0  0  0  0  2  0  0  0  0  0  0
  186.7380  178.2280  140.1430 C   0  0  0  0  0  2  0  0  0  0  0  0
  190.2360  175.6040  143.9290 C   0  0  0  0  0  2  0  0  0  0  0  0
  191.6060  175.8270  144.5710 C   0  0  0  0  0  0  0  0  0  0  0  0
  190.2070  176.0010  142.5730 O   0  0  0  0  0  0  0  0  0  0  0  0
  191.7320  179.4980  143.4720 O   0  0  0  0  0  0  0  0  0  0  0  0
  188.0390  178.2360  142.2930 C   0  0  1  0  0  3  0  0  0  0  0  0
  191.8100  177.4380  141.5180 C   0  0  0  0  0  2  0  0  0  0  0  0
  187.4250  176.9220  142.7760 C   0  0  0  0  0  2  0  0  0  0  0  0
  186.6840  177.1330  144.0870 C   0  0  1  0  0  3  0  0  0  0  0  0
  187.6640  177.4840  145.1940 C   0  0  0  0  0  1  0  0  0  0  0  0
  184.5430  178.0130  143.1860 C   0  0  0  0  0  3  0  0  0  0  0  0
  185.6260  178.1860  143.9490 C   0  0  0  0  0  3  0  0  0  0  0  0
  182.9300  179.3700  145.3760 O   0  0  0  0  0  0  0  0  0  0  0  0
  183.5070  179.0850  143.0640 C   0  0  2  0  0  3  0  0  0  0  0  0
  182.5420  179.0360  144.2260 C   0  0  0  0  0  0  0  0  0  0  0  0
  180.7040  178.3720  142.8550 C   0  0  0  0  0  3  0  0  0  0  0  0
  181.5170  178.5800  141.6480 C   0  0  0  0  0  3  0  0  0  0  0  0
  182.8020  178.9300  141.7420 C   0  0  0  0  0  3  0  0  0  0  0  0
  181.1920  178.5950  144.0360 N   0  0  0  0  0  0  0  0  0  0  0  0
  1 12  1  6  0  0  0
  1 15  1  0  0  0  0
  1 10  1  0  0  0  0
  2  7  1  1  0  0  0
  2 16  1  0  0  0  0
  2 10  1  0  0  0  0
  3 21  1  0  0  0  0
  3 13  1  0  0  0  0
  4 12  1  0  0  0  0
  4  7  1  0  0  0  0
  5 14  1  0  0  0  0
  8 21  1  0  0  0  0
 10  3  1  0  0  0  0
 11 18  1  0  0  0  0
 13 19  1  0  0  0  0
 13  5  1  0  0  0  0
 14  6  1  0  0  0  0
 15 22  1  0  0  0  0
 16  8  1  0  0  0  0
 17 18  1  0  0  0  0
 18 14  1  0  0  0  0
 18  9  1  0  0  0  0
 19 17  1  0  0  0  0
 20  5  2  0  0  0  0
 21 23  1  0  0  0  0
 22 13  1  0  0  0  0
 23 24  1  0  0  0  0
 24 25  1  0  0  0  0
 26 27  2  0  0  0  0
 27 24  1  0  0  0  0
 29 26  1  0  0  0  0
 29 30  1  0  0  0  0
 30 28  2  0  0  0  0
 31 34  2  0  0  0  0
 32 33  2  0  0  0  0
 32 31  1  0  0  0  0
 33 29  1  0  0  0  0
 34 30  1  0  0  0  0
M  END
>  <MODEL>
3

>  <REMARK>
 VINA RESULT:      -6.9      2.906      6.250
  Name = 
  4 active torsions:
  status: ('A' for Active; 'I' for Inactive)
    1  A    between atoms: C_3  and  C_13
    2  A    between atoms: C_5  and  C_18
    3  A    between atoms: C_5  and  C_31
    4  A    between atoms: C_17  and  C_18
                            x       y       z     vdW  Elec       q    Type
                         _______ _______ _______ _____ _____    ______ ____

>  <TORSDO>
F 4

$$$$
=
 OpenBabel10272400093D

 34 38  0  0  1  0  0  0  0  0999 V2000
  191.2990  175.4570  135.4010 C   0  0  2  0  0  3  0  0  0  0  0  0
  192.4010  176.5290  137.4330 C   0  0  1  0  0  3  0  0  0  0  0  0
  189.8580  175.9460  137.3260 C   0  0  2  0  0  3  0  0  0  0  0  0
  193.7730  175.2180  135.7770 C   0  0  0  0  0  2  0  0  0  0  0  0
  187.1940  175.2440  137.3110 S   0  0  1  0  0  0  0  0  0  0  0  0
  184.6770  175.9160  137.2830 F   0  0  0  0  0  0  0  0  0  0  0  0
  193.3480  175.3460  137.2530 C   0  0  0  0  0  2  0  0  0  0  0  0
  190.9870  176.2430  139.5290 C   0  0  0  0  0  2  0  0  0  0  0  0
  184.8350  177.8590  135.6290 F   0  0  0  0  0  0  0  0  0  0  0  0
  191.1130  176.4200  136.5750 C   0  0  2  0  0  3  0  0  0  0  0  0
  186.3530  176.8220  134.3460 F   0  0  0  0  0  0  0  0  0  0  0  0
  192.6750  175.6100  134.7690 C   0  0  0  0  0  2  0  0  0  0  0  0
  188.5960  176.0360  136.4240 C   0  0  1  0  0  0  0  0  0  0  0  0
  185.7320  175.7820  136.3950 C   0  0  1  0  0  3  0  0  0  0  0  0
  190.1510  175.6270  134.4230 C   0  0  0  0  0  2  0  0  0  0  0  0
  192.1960  176.9280  138.8960 C   0  0  0  0  0  2  0  0  0  0  0  0
  187.0970  177.8950  136.3410 C   0  0  0  0  0  2  0  0  0  0  0  0
  185.9890  177.0970  135.6520 C   0  0  0  0  0  0  0  0  0  0  0  0
  188.3850  177.3970  136.0400 O   0  0  0  0  0  0  0  0  0  0  0  0
  187.2980  173.7560  136.9990 O   0  0  0  0  0  0  0  0  0  0  0  0
  189.7170  176.5410  138.7340 C   0  0  1  0  0  3  0  0  0  0  0  0
  188.8510  175.2280  135.1320 C   0  0  0  0  0  2  0  0  0  0  0  0
  189.3920  178.0350  138.7240 C   0  0  0  0  0  2  0  0  0  0  0  0
  188.6120  178.4170  139.9720 C   0  0  1  0  0  3  0  0  0  0  0  0
  187.1210  178.2550  139.7300 C   0  0  0  0  0  1  0  0  0  0  0  0
  188.2440  177.3430  142.1820 C   0  0  0  0  0  3  0  0  0  0  0  0
  189.0570  177.6140  141.1570 C   0  0  0  0  0  3  0  0  0  0  0  0
  187.8310  177.8650  145.1490 O   0  0  0  0  0  0  0  0  0  0  0  0
  188.7190  176.5430  143.3530 C   0  0  2  0  0  3  0  0  0  0  0  0
  188.8590  177.4140  144.5800 C   0  0  0  0  0  0  0  0  0  0  0  0
  191.2370  177.2010  144.6310 C   0  0  0  0  0  3  0  0  0  0  0  0
  191.1790  176.1940  143.5620 C   0  0  0  0  0  3  0  0  0  0  0  0
  190.0180  175.8740  142.9880 C   0  0  0  0  0  3  0  0  0  0  0  0
  190.1540  177.7480  145.0930 N   0  0  0  0  0  0  0  0  0  0  0  0
  1 15  1  6  0  0  0
  1 10  1  0  0  0  0
  2  7  1  1  0  0  0
  2 16  1  0  0  0  0
  3 21  1  0  0  0  0
  4  7  1  0  0  0  0
  9 18  1  0  0  0  0
 10  3  1  0  0  0  0
 10  2  1  0  0  0  0
 11 18  1  0  0  0  0
 12  1  1  0  0  0  0
 12  4  1  0  0  0  0
 13  5  1  0  0  0  0
 13  3  1  0  0  0  0
 14  6  1  0  0  0  0
 14  5  1  0  0  0  0
 15 22  1  0  0  0  0
 16  8  1  0  0  0  0
 18 17  1  0  0  0  0
 18 14  1  0  0  0  0
 19 17  1  0  0  0  0
 19 13  1  0  0  0  0
 20  5  2  0  0  0  0
 21  8  1  0  0  0  0
 22 13  1  0  0  0  0
 23 21  1  0  0  0  0
 23 24  1  0  0  0  0
 24 27  1  0  0  0  0
 25 24  1  0  0  0  0
 26 29  1  0  0  0  0
 27 26  2  0  0  0  0
 29 30  1  0  0  0  0
 30 34  1  0  0  0  0
 30 28  2  0  0  0  0
 31 34  2  0  0  0  0
 32 31  1  0  0  0  0
 33 29  1  0  0  0  0
 33 32  2  0  0  0  0
M  END
>  <MODEL>
4

>  <REMARK>
 VINA RESULT:      -6.7      3.778      8.365
  Name = 
  4 active torsions:
  status: ('A' for Active; 'I' for Inactive)
    1  A    between atoms: C_3  and  C_13
    2  A    between atoms: C_5  and  C_18
    3  A    between atoms: C_5  and  C_31
    4  A    between atoms: C_17  and  C_18
                            x       y       z     vdW  Elec       q    Type
                         _______ _______ _______ _____ _____    ______ ____

>  <TORSDO>
F 4

$$$$
=
 OpenBabel10272400093D

 34 38  0  0  1  0  0  0  0  0999 V2000
  188.7970  178.1560  141.6600 C   0  0  2  0  0  3  0  0  0  0  0  0
  191.0870  177.0810  141.9650 C   0  0  1  0  0  3  0  0  0  0  0  0
  190.0940  177.6910  139.6290 C   0  0  2  0  0  3  0  0  0  0  0  0
  190.0170  178.3700  143.8460 C   0  0  0  0  0  2  0  0  0  0  0  0
  189.1440  178.4220  137.1480 S   0  0  1  0  0  0  0  0  0  0  0  0
  188.2340  177.7770  134.7940 F   0  0  0  0  0  0  0  0  0  0  0  0
  191.2510  178.2530  142.9290 C   0  0  0  0  0  2  0  0  0  0  0  0
  192.5520  177.3920  139.9090 C   0  0  0  0  0  2  0  0  0  0  0  0
  186.7410  175.8260  135.4990 F   0  0  0  0  0  0  0  0  0  0  0  0
  189.8310  177.2010  141.0620 C   0  0  2  0  0  3  0  0  0  0  0  0
  186.0730  176.8410  137.3830 F   0  0  0  0  0  0  0  0  0  0  0  0
  188.6880  177.9860  143.1680 C   0  0  0  0  0  2  0  0  0  0  0  0
  188.8060  177.6110  138.7620 C   0  0  1  0  0  0  0  0  0  0  0  0
  187.7730  177.8960  136.0940 C   0  0  1  0  0  3  0  0  0  0  0  0
  187.4780  177.9940  140.9260 C   0  0  0  0  0  2  0  0  0  0  0  0
  192.3840  176.6910  141.2550 C   0  0  0  0  0  2  0  0  0  0  0  0
  188.2020  175.7680  137.3670 C   0  0  0  0  0  2  0  0  0  0  0  0
  187.1670  176.5750  136.5810 C   0  0  0  0  0  0  0  0  0  0  0  0
  188.3720  176.2510  138.6840 O   0  0  0  0  0  0  0  0  0  0  0  0
  188.8890  179.9080  137.3720 O   0  0  0  0  0  0  0  0  0  0  0  0
  191.3630  177.1040  138.9960 C   0  0  1  0  0  3  0  0  0  0  0  0
  187.6850  178.4100  139.4650 C   0  0  0  0  0  2  0  0  0  0  0  0
  191.2390  175.6140  138.6780 C   0  0  0  0  0  2  0  0  0  0  0  0
  191.9850  175.2810  137.3950 C   0  0  1  0  0  3  0  0  0  0  0  0
  192.4100  176.5570  136.6880 C   0  0  0  0  0  1  0  0  0  0  0  0
  194.3720  174.8850  137.9570 C   0  0  0  0  0  3  0  0  0  0  0  0
  193.1630  174.3950  137.6660 C   0  0  0  0  0  3  0  0  0  0  0  0
  196.4880  175.0580  140.1340 O   0  0  0  0  0  0  0  0  0  0  0  0
  195.5300  173.9750  138.2180 C   0  0  2  0  0  3  0  0  0  0  0  0
  196.6400  174.7070  138.9340 C   0  0  0  0  0  0  0  0  0  0  0  0
  198.1250  174.5670  137.0700 C   0  0  0  0  0  3  0  0  0  0  0  0
  197.1800  173.6840  136.3710 C   0  0  0  0  0  3  0  0  0  0  0  0
  195.9940  173.3930  136.9090 C   0  0  0  0  0  3  0  0  0  0  0  0
  197.8620  175.0230  138.2560 N   0  0  0  0  0  0  0  0  0  0  0  0
  1 15  1  6  0  0  0
  1 12  1  0  0  0  0
  2 16  1  6  0  0  0
  2  7  1  0  0  0  0
  3 10  1  0  0  0  0
  5 20  2  0  0  0  0
  5 13  1  0  0  0  0
  6 14  1  0  0  0  0
  7  4  1  0  0  0  0
  8 16  1  0  0  0  0
  9 18  1  0  0  0  0
 10  1  1  0  0  0  0
 10  2  1  0  0  0  0
 12  4  1  0  0  0  0
 13 22  1  0  0  0  0
 13  3  1  0  0  0  0
 14 18  1  0  0  0  0
 14  5  1  0  0  0  0
 17 19  1  0  0  0  0
 18 17  1  0  0  0  0
 18 11  1  0  0  0  0
 19 13  1  0  0  0  0
 21  3  1  0  0  0  0
 21  8  1  0  0  0  0
 22 15  1  0  0  0  0
 23 21  1  0  0  0  0
 24 27  1  0  0  0  0
 24 23  1  0  0  0  0
 25 24  1  0  0  0  0
 26 29  1  0  0  0  0
 27 26  2  0  0  0  0
 29 30  1  0  0  0  0
 30 28  2  0  0  0  0
 31 34  2  0  0  0  0
 32 33  2  0  0  0  0
 32 31  1  0  0  0  0
 33 29  1  0  0  0  0
 34 30  1  0  0  0  0
M  END
>  <MODEL>
5

>  <REMARK>
 VINA RESULT:      -6.5      4.558      7.565
  Name = 
  4 active torsions:
  status: ('A' for Active; 'I' for Inactive)
    1  A    between atoms: C_3  and  C_13
    2  A    between atoms: C_5  and  C_18
    3  A    between atoms: C_5  and  C_31
    4  A    between atoms: C_17  and  C_18
                            x       y       z     vdW  Elec       q    Type
                         _______ _______ _______ _____ _____    ______ ____

>  <TORSDO>
F 4

$$$$
=
 OpenBabel10272400093D

 34 38  0  0  1  0  0  0  0  0999 V2000
  186.1650  173.7410  135.6090 C   0  0  2  0  0  3  0  0  0  0  0  0
  183.7640  174.2820  136.2700 C   0  0  1  0  0  3  0  0  0  0  0  0
  185.6550  176.0790  136.1530 C   0  0  2  0  0  3  0  0  0  0  0  0
  184.2840  172.2300  134.9060 C   0  0  0  0  0  2  0  0  0  0  0  0
  187.5840  178.0340  135.9320 S   0  0  1  0  0  0  0  0  0  0  0  0
  189.1620  179.7900  137.0330 F   0  0  0  0  0  0  0  0  0  0  0  0
  183.4840  173.5460  134.9620 C   0  0  0  0  0  2  0  0  0  0  0  0
  183.2610  176.7650  136.0330 C   0  0  0  0  0  2  0  0  0  0  0  0
  189.8730  178.4180  139.0700 F   0  0  0  0  0  0  0  0  0  0  0  0
  185.2630  174.6270  136.4710 C   0  0  2  0  0  3  0  0  0  0  0  0
  189.9750  176.5010  137.9130 F   0  0  0  0  0  0  0  0  0  0  0  0
  185.6680  172.3030  135.5800 C   0  0  0  0  0  2  0  0  0  0  0  0
  187.1310  176.3630  136.5490 C   0  0  1  0  0  0  0  0  0  0  0  0
  189.1180  178.4250  136.8040 C   0  0  1  0  0  3  0  0  0  0  0  0
  187.6040  173.8850  136.0710 C   0  0  0  0  0  2  0  0  0  0  0  0
  182.7760  175.4150  136.5540 C   0  0  0  0  0  2  0  0  0  0  0  0
  187.8400  177.2750  138.6410 C   0  0  0  0  0  2  0  0  0  0  0  0
  189.2290  177.6470  138.1200 C   0  0  0  0  0  0  0  0  0  0  0  0
  187.2890  176.1670  137.9570 O   0  0  0  0  0  0  0  0  0  0  0  0
  188.0210  177.8340  134.4860 O   0  0  0  0  0  0  0  0  0  0  0  0
  184.6250  177.1150  136.6240 C   0  0  1  0  0  3  0  0  0  0  0  0
  188.0410  175.3360  135.8390 C   0  0  0  0  0  2  0  0  0  0  0  0
  184.5660  177.2520  138.1450 C   0  0  0  0  0  2  0  0  0  0  0  0
  184.0100  178.6140  138.5350 C   0  0  1  0  0  3  0  0  0  0  0  0
  182.5310  178.5030  138.8610 C   0  0  0  0  0  1  0  0  0  0  0  0
  184.7850  178.6450  140.8950 C   0  0  0  0  0  3  0  0  0  0  0  0
  184.7740  179.2040  139.6810 C   0  0  0  0  0  3  0  0  0  0  0  0
  187.7380  178.3760  141.5670 O   0  0  0  0  0  0  0  0  0  0  0  0
  185.5540  179.2610  142.0200 C   0  0  2  0  0  3  0  0  0  0  0  0
  186.7650  178.4280  142.3650 C   0  0  0  0  0  0  0  0  0  0  0  0
  185.9030  177.8060  144.5030 C   0  0  0  0  0  3  0  0  0  0  0  0
  184.7830  178.7430  144.3340 C   0  0  0  0  0  3  0  0  0  0  0  0
  184.6330  179.4300  143.2000 C   0  0  0  0  0  3  0  0  0  0  0  0
  186.8130  177.6800  143.5860 N   0  0  0  0  0  0  0  0  0  0  0  0
  1 12  1  1  0  0  0
  1 15  1  0  0  0  0
  1 10  1  0  0  0  0
  2  7  1  6  0  0  0
  2 10  1  0  0  0  0
  2 16  1  0  0  0  0
  3 10  1  0  0  0  0
  3 13  1  0  0  0  0
  3 21  1  0  0  0  0
  4  7  1  0  0  0  0
  4 12  1  0  0  0  0
  5 13  1  0  0  0  0
  5 14  1  0  0  0  0
  8 16  1  0  0  0  0
  8 21  1  0  0  0  0
 11 18  1  0  0  0  0
 13 19  1  0  0  0  0
 14  6  1  0  0  0  0
 14 18  1  0  0  0  0
 18 17  1  0  0  0  0
 18  9  1  0  0  0  0
 19 17  1  0  0  0  0
 20  5  2  0  0  0  0
 21 23  1  0  0  0  0
 22 15  1  0  0  0  0
 22 13  1  0  0  0  0
 23 24  1  0  0  0  0
 24 25  1  0  0  0  0
 24 27  1  0  0  0  0
 26 29  1  0  0  0  0
 27 26  2  0  0  0  0
 28 30  2  0  0  0  0
 29 30  1  0  0  0  0
 29 33  1  0  0  0  0
 30 34  1  0  0  0  0
 32 31  1  0  0  0  0
 33 32  2  0  0  0  0
 34 31  2  0  0  0  0
M  END
>  <MODEL>
6

>  <REMARK>
 VINA RESULT:      -6.5      3.599      8.294
  Name = 
  4 active torsions:
  status: ('A' for Active; 'I' for Inactive)
    1  A    between atoms: C_3  and  C_13
    2  A    between atoms: C_5  and  C_18
    3  A    between atoms: C_5  and  C_31
    4  A    between atoms: C_17  and  C_18
                            x       y       z     vdW  Elec       q    Type
                         _______ _______ _______ _____ _____    ______ ____

>  <TORSDO>
F 4

$$$$
=
 OpenBabel10272400093D

 34 38  0  0  1  0  0  0  0  0999 V2000
  187.3130  177.8890  146.4130 C   0  0  2  0  0  3  0  0  0  0  0  0
  185.2950  178.9610  145.2860 C   0  0  1  0  0  3  0  0  0  0  0  0
  187.1120  177.6120  143.9830 C   0  0  2  0  0  3  0  0  0  0  0  0
  185.2440  178.4080  147.7420 C   0  0  0  0  0  2  0  0  0  0  0  0
  188.9370  176.0990  142.5790 S   0  0  1  0  0  0  0  0  0  0  0  0
  190.8640  175.9220  140.8340 F   0  0  0  0  0  0  0  0  0  0  0  0
  184.5650  178.1830  146.3770 C   0  0  0  0  0  2  0  0  0  0  0  0
  184.8470  177.9430  142.9980 C   0  0  0  0  0  2  0  0  0  0  0  0
  192.1560  178.0250  141.5010 F   0  0  0  0  0  0  0  0  0  0  0  0
  186.7880  178.5650  145.1450 C   0  0  2  0  0  3  0  0  0  0  0  0
  191.7850  177.7230  143.6910 F   0  0  0  0  0  0  0  0  0  0  0  0
  186.7750  178.5640  147.6670 C   0  0  0  0  0  2  0  0  0  0  0  0
  188.6460  177.4160  143.8270 C   0  0  1  0  0  0  0  0  0  0  0  0
  190.6890  176.2620  142.1650 C   0  0  1  0  0  3  0  0  0  0  0  0
  188.8280  177.8160  146.3560 C   0  0  0  0  0  2  0  0  0  0  0  0
  184.5070  179.0630  143.9790 C   0  0  0  0  0  2  0  0  0  0  0  0
  190.0500  178.6870  142.3690 C   0  0  0  0  0  2  0  0  0  0  0  0
  191.2000  177.6800  142.4390 C   0  0  0  0  0  0  0  0  0  0  0  0
  189.2560  178.6770  143.5390 O   0  0  0  0  0  0  0  0  0  0  0  0
  188.8570  174.7830  143.3430 O   0  0  0  0  0  0  0  0  0  0  0  0
  186.3430  177.9260  142.6920 C   0  0  1  0  0  3  0  0  0  0  0  0
  189.2230  176.9250  145.1730 C   0  0  0  0  0  2  0  0  0  0  0  0
  186.8000  179.2210  142.0220 C   0  0  0  0  0  2  0  0  0  0  0  0
  186.6500  179.1190  140.5120 C   0  0  1  0  0  3  0  0  0  0  0  0
  187.5780  178.0490  139.9630 C   0  0  0  0  0  1  0  0  0  0  0  0
  184.8480  178.7080  138.8520 C   0  0  0  0  0  3  0  0  0  0  0  0
  185.2270  178.8510  140.1250 C   0  0  0  0  0  3  0  0  0  0  0  0
  182.5500  180.6800  138.5870 O   0  0  0  0  0  0  0  0  0  0  0  0
  183.4190  178.4450  138.4980 C   0  0  2  0  0  3  0  0  0  0  0  0
  182.5170  179.5160  139.0650 C   0  0  0  0  0  0  0  0  0  0  0  0
  181.4620  178.0160  140.5940 C   0  0  0  0  0  3  0  0  0  0  0  0
  182.1560  176.8790  139.9720 C   0  0  0  0  0  3  0  0  0  0  0  0
  183.0410  177.0730  138.9920 C   0  0  0  0  0  3  0  0  0  0  0  0
  181.6360  179.2260  140.1560 N   0  0  0  0  0  0  0  0  0  0  0  0
  1 15  1  1  0  0  0
  1 12  1  0  0  0  0
  2 16  1  6  0  0  0
  2  7  1  0  0  0  0
  3 10  1  0  0  0  0
  5 20  2  0  0  0  0
  5 13  1  0  0  0  0
  6 14  1  0  0  0  0
  7  4  1  0  0  0  0
  8 16  1  0  0  0  0
  9 18  1  0  0  0  0
 10  2  1  0  0  0  0
 10  1  1  0  0  0  0
 12  4  1  0  0  0  0
 13  3  1  0  0  0  0
 13 22  1  0  0  0  0
 14 18  1  0  0  0  0
 14  5  1  0  0  0  0
 17 18  1  0  0  0  0
 17 19  1  0  0  0  0
 18 11  1  0  0  0  0
 19 13  1  0  0  0  0
 21  8  1  0  0  0  0
 21  3  1  0  0  0  0
 22 15  1  0  0  0  0
 23 21  1  0  0  0  0
 24 23  1  0  0  0  0
 25 24  1  0  0  0  0
 26 27  2  0  0  0  0
 27 24  1  0  0  0  0
 28 30  2  0  0  0  0
 29 26  1  0  0  0  0
 29 33  1  0  0  0  0
 29 30  1  0  0  0  0
 30 34  1  0  0  0  0
 32 31  1  0  0  0  0
 33 32  2  0  0  0  0
 34 31  2  0  0  0  0
M  END
>  <MODEL>
7

>  <REMARK>
 VINA RESULT:      -6.3      2.408      3.442
  Name = 
  4 active torsions:
  status: ('A' for Active; 'I' for Inactive)
    1  A    between atoms: C_3  and  C_13
    2  A    between atoms: C_5  and  C_18
    3  A    between atoms: C_5  and  C_31
    4  A    between atoms: C_17  and  C_18
                            x       y       z     vdW  Elec       q    Type
                         _______ _______ _______ _____ _____    ______ ____

>  <TORSDO>
F 4

$$$$
=
 OpenBabel10272400093D

 34 38  0  0  1  0  0  0  0  0999 V2000
  187.9540  175.8700  134.9670 C   0  0  2  0  0  3  0  0  0  0  0  0
  187.3480  177.1440  137.0890 C   0  0  1  0  0  3  0  0  0  0  0  0
  189.8020  176.5350  136.4380 C   0  0  2  0  0  3  0  0  0  0  0  0
  185.7840  177.1290  135.1150 C   0  0  0  0  0  2  0  0  0  0  0  0
  192.4180  176.0210  135.7410 S   0  0  1  0  0  0  0  0  0  0  0  0
  194.6610  174.7590  136.1450 F   0  0  0  0  0  0  0  0  0  0  0  0
  186.6030  178.0110  136.0770 C   0  0  0  0  0  2  0  0  0  0  0  0
  189.3510  178.3890  138.0420 C   0  0  0  0  0  2  0  0  0  0  0  0
  193.6920  172.4660  136.7240 F   0  0  0  0  0  0  0  0  0  0  0  0
  188.3190  176.1300  136.4300 C   0  0  2  0  0  3  0  0  0  0  0  0
  192.0560  172.6210  135.2000 F   0  0  0  0  0  0  0  0  0  0  0  0
  186.4470  175.7800  134.7770 C   0  0  0  0  0  2  0  0  0  0  0  0
  190.7030  175.3830  135.9140 C   0  0  1  0  0  0  0  0  0  0  0  0
  193.4270  174.5330  135.5590 C   0  0  1  0  0  3  0  0  0  0  0  0
  188.7120  174.6540  134.4660 C   0  0  0  0  0  2  0  0  0  0  0  0
  187.9120  177.9350  138.2700 C   0  0  0  0  0  2  0  0  0  0  0  0
  191.7740  173.7440  137.2840 C   0  0  0  0  0  2  0  0  0  0  0  0
  192.7430  173.3120  136.1820 C   0  0  0  0  0  0  0  0  0  0  0  0
  190.5580  174.2430  136.7650 O   0  0  0  0  0  0  0  0  0  0  0  0
  192.4760  176.6790  134.3680 O   0  0  0  0  0  0  0  0  0  0  0  0
  190.2560  177.1950  137.7480 C   0  0  1  0  0  3  0  0  0  0  0  0
  190.2120  174.9700  134.5080 C   0  0  0  0  0  2  0  0  0  0  0  0
  190.3080  176.2190  138.9240 C   0  0  0  0  0  2  0  0  0  0  0  0
  191.3650  176.6540  139.9280 C   0  0  1  0  0  3  0  0  0  0  0  0
  192.5460  177.2800  139.2080 C   0  0  0  0  0  1  0  0  0  0  0  0
  190.3260  177.1690  142.1250 C   0  0  0  0  0  3  0  0  0  0  0  0
  190.7920  177.5920  140.9460 C   0  0  0  0  0  3  0  0  0  0  0  0
  191.7580  178.7580  144.2850 O   0  0  0  0  0  0  0  0  0  0  0  0
  189.7570  178.1300  143.1190 C   0  0  2  0  0  3  0  0  0  0  0  0
  190.6270  178.2100  144.3510 C   0  0  0  0  0  0  0  0  0  0  0  0
  188.9790  177.1990  145.7520 C   0  0  0  0  0  3  0  0  0  0  0  0
  187.9990  177.2580  144.6580 C   0  0  0  0  0  3  0  0  0  0  0  0
  188.3500  177.7070  143.4510 C   0  0  0  0  0  3  0  0  0  0  0  0
  190.1850  177.6500  145.5950 N   0  0  0  0  0  0  0  0  0  0  0  0
  1 15  1  1  0  0  0
  1 10  1  0  0  0  0
  2  7  1  6  0  0  0
  2 16  1  0  0  0  0
  3 21  1  0  0  0  0
  4  7  1  0  0  0  0
  5 13  1  0  0  0  0
  8 16  1  0  0  0  0
 10  3  1  0  0  0  0
 10  2  1  0  0  0  0
 11 18  1  0  0  0  0
 12  1  1  0  0  0  0
 12  4  1  0  0  0  0
 13  3  1  0  0  0  0
 13 19  1  0  0  0  0
 14  5  1  0  0  0  0
 14  6  1  0  0  0  0
 14 18  1  0  0  0  0
 15 22  1  0  0  0  0
 18  9  1  0  0  0  0
 18 17  1  0  0  0  0
 19 17  1  0  0  0  0
 20  5  2  0  0  0  0
 21  8  1  0  0  0  0
 21 23  1  0  0  0  0
 22 13  1  0  0  0  0
 23 24  1  0  0  0  0
 24 27  1  0  0  0  0
 25 24  1  0  0  0  0
 26 29  1  0  0  0  0
 27 26  2  0  0  0  0
 28 30  2  0  0  0  0
 29 33  1  0  0  0  0
 29 30  1  0  0  0  0
 30 34  1  0  0  0  0
 32 31  1  0  0  0  0
 33 32  2  0  0  0  0
 34 31  2  0  0  0  0
M  END
>  <MODEL>
8

>  <REMARK>
 VINA RESULT:      -6.2      3.773      8.620
  Name = 
  4 active torsions:
  status: ('A' for Active; 'I' for Inactive)
    1  A    between atoms: C_3  and  C_13
    2  A    between atoms: C_5  and  C_18
    3  A    between atoms: C_5  and  C_31
    4  A    between atoms: C_17  and  C_18
                            x       y       z     vdW  Elec       q    Type
                         _______ _______ _______ _____ _____    ______ ____

>  <TORSDO>
F 4

$$$$
=
 OpenBabel10272400093D

 34 38  0  0  1  0  0  0  0  0999 V2000
  185.2860  178.0240  138.1010 C   0  0  2  0  0  3  0  0  0  0  0  0
  185.6810  178.3370  140.5980 C   0  0  1  0  0  3  0  0  0  0  0  0
  187.6160  178.0400  138.8710 C   0  0  2  0  0  3  0  0  0  0  0  0
  183.5350  179.1180  139.5340 C   0  0  0  0  0  2  0  0  0  0  0  0
  189.6980  177.8480  137.0770 S   0  0  1  0  0  0  0  0  0  0  0  0
  191.7110  176.5290  136.0800 F   0  0  0  0  0  0  0  0  0  0  0  0
  184.7700  179.5380  140.3550 C   0  0  0  0  0  2  0  0  0  0  0  0
  188.0600  179.0930  141.0860 C   0  0  0  0  0  2  0  0  0  0  0  0
  190.6650  174.1970  136.0950 F   0  0  0  0  0  0  0  0  0  0  0  0
  186.1830  177.6730  139.2890 C   0  0  2  0  0  3  0  0  0  0  0  0
  188.6400  174.9520  135.5010 F   0  0  0  0  0  0  0  0  0  0  0  0
  183.8150  178.0180  138.4920 C   0  0  0  0  0  2  0  0  0  0  0  0
  188.0790  177.1950  137.6520 C   0  0  1  0  0  0  0  0  0  0  0  0
  190.3300  176.5580  135.9800 C   0  0  1  0  0  3  0  0  0  0  0  0
  185.6160  177.1110  136.9330 C   0  0  0  0  0  2  0  0  0  0  0  0
  186.7440  178.5870  141.6700 C   0  0  0  0  0  2  0  0  0  0  0  0
  189.2970  175.1430  137.7860 C   0  0  0  0  0  2  0  0  0  0  0  0
  189.7300  175.1900  136.3190 C   0  0  0  0  0  0  0  0  0  0  0  0
  188.0690  175.8100  138.0050 O   0  0  0  0  0  0  0  0  0  0  0  0
  189.3670  179.0020  136.1390 O   0  0  0  0  0  0  0  0  0  0  0  0
  188.6030  178.1170  140.0450 C   0  0  1  0  0  3  0  0  0  0  0  0
  187.0620  177.3820  136.5030 C   0  0  0  0  0  2  0  0  0  0  0  0
  188.9160  176.7520  140.6560 C   0  0  0  0  0  2  0  0  0  0  0  0
  190.3000  176.7570  141.2860 C   0  0  1  0  0  3  0  0  0  0  0  0
  191.3240  177.2900  140.2990 C   0  0  0  0  0  1  0  0  0  0  0  0
  189.8040  177.0720  143.7000 C   0  0  0  0  0  3  0  0  0  0  0  0
  190.3130  177.5470  142.5590 C   0  0  0  0  0  3  0  0  0  0  0  0
  191.9820  177.2670  145.8120 O   0  0  0  0  0  0  0  0  0  0  0  0
  189.8280  177.8870  144.9530 C   0  0  2  0  0  3  0  0  0  0  0  0
  190.7350  177.2610  145.9860 C   0  0  0  0  0  0  0  0  0  0  0  0
  188.9280  176.7270  147.4530 C   0  0  0  0  0  3  0  0  0  0  0  0
  188.0000  177.4850  146.6010 C   0  0  0  0  0  3  0  0  0  0  0  0
  188.4180  178.0380  145.4610 C   0  0  0  0  0  3  0  0  0  0  0  0
  190.1890  176.6410  147.1570 N   0  0  0  0  0  0  0  0  0  0  0  0
  1 15  1  6  0  0  0
  1 12  1  0  0  0  0
  1 10  1  0  0  0  0
  2  7  1  6  0  0  0
  2 16  1  0  0  0  0
  3 10  1  0  0  0  0
  3 21  1  0  0  0  0
  4  7  1  0  0  0  0
  5 13  1  0  0  0  0
  8 16  1  0  0  0  0
  9 18  1  0  0  0  0
 10  2  1  0  0  0  0
 11 18  1  0  0  0  0
 12  4  1  0  0  0  0
 13 19  1  0  0  0  0
 13  3  1  0  0  0  0
 14  6  1  0  0  0  0
 14 18  1  0  0  0  0
 14  5  1  0  0  0  0
 17 19  1  0  0  0  0
 18 17  1  0  0  0  0
 20  5  2  0  0  0  0
 21 23  1  0  0  0  0
 21  8  1  0  0  0  0
 22 15  1  0  0  0  0
 22 13  1  0  0  0  0
 23 24  1  0  0  0  0
 24 27  1  0  0  0  0
 25 24  1  0  0  0  0
 26 29  1  0  0  0  0
 27 26  2  0  0  0  0
 28 30  2  0  0  0  0
 29 33  1  0  0  0  0
 29 30  1  0  0  0  0
 30 34  1  0  0  0  0
 32 31  1  0  0  0  0
 33 32  2  0  0  0  0
 34 31  2  0  0  0  0
M  END
>  <MODEL>
9

>  <REMARK>
 VINA RESULT:      -6.2      3.052      7.486
  Name = 
  4 active torsions:
  status: ('A' for Active; 'I' for Inactive)
    1  A    between atoms: C_3  and  C_13
    2  A    between atoms: C_5  and  C_18
    3  A    between atoms: C_5  and  C_31
    4  A    between atoms: C_17  and  C_18
                            x       y       z     vdW  Elec       q    Type
                         _______ _______ _______ _____ _____    ______ ____

>  <TORSDO>
F 4

$$$$
