=
 OpenBabel10272413403D

 32 37  0  0  0  0  0  0  0  0999 V2000
  182.0240  178.5990  142.3350 C   0  0  0  0  0  0  0  0  0  0  0  0
  187.0080  178.2610  143.2540 C   0  0  0  0  0  0  0  0  0  0  0  0
  187.4110  178.4130  138.6000 C   0  0  0  0  0  1  0  0  0  0  0  0
  189.5050  177.2110  139.5040 N   0  0  0  0  0  0  0  0  0  0  0  0
  188.3630  177.6320  145.2140 C   0  0  0  0  0  0  0  0  0  0  0  0
  189.5650  177.1020  145.7160 C   0  0  0  0  0  0  0  0  0  0  0  0
  184.5910  178.6510  143.4640 C   0  0  0  0  0  0  0  0  0  0  0  0
  185.4860  178.3420  141.2520 C   0  0  0  0  0  2  0  0  0  0  0  0
  191.9820  176.0520  146.6830 C   0  0  0  0  0  3  0  0  0  0  0  0
  183.1440  178.4210  141.5180 C   0  0  0  0  0  3  0  0  0  0  0  0
  188.2120  177.7990  139.6940 C   0  0  0  0  0  0  0  0  0  0  0  0
  186.8840  178.5630  141.7600 C   0  0  0  0  0  0  0  0  0  0  0  0
  187.9190  177.8280  140.9860 C   0  0  0  0  0  0  0  0  0  0  0  0
  189.2240  177.2860  142.9580 C   0  0  0  0  0  0  0  0  0  0  0  0
  190.9910  176.4620  147.5780 C   0  0  0  0  0  3  0  0  0  0  0  0
  182.1850  178.8330  143.7040 C   0  0  0  0  0  3  0  0  0  0  0  0
  184.4310  178.4650  142.0660 C   0  0  0  0  0  0  0  0  0  0  0  0
  189.7870  176.9850  147.0980 C   0  0  0  0  0  3  0  0  0  0  0  0
  183.4640  178.8500  144.2680 C   0  0  0  0  0  3  0  0  0  0  0  0
  190.0140  176.9210  140.6360 N   0  0  0  0  0  0  0  0  0  0  0  0
  189.0750  177.3030  141.6320 C   0  0  0  0  0  0  0  0  0  0  0  0
  190.3710  176.7850  143.4860 N   0  0  0  0  0  2  0  0  0  0  0  0
  185.7930  178.5530  144.0490 C   0  0  0  0  0  3  0  0  0  0  0  0
  187.4810  178.0120  146.0330 O   0  0  0  0  0  0  0  0  0  0  0  0
  191.7720  176.1640  145.3060 C   0  0  0  0  0  3  0  0  0  0  0  0
  188.1660  177.7520  143.8060 C   0  0  0  0  0  0  0  0  0  0  0  0
  190.5690  176.6870  144.8200 C   0  0  0  0  0  0  0  0  0  0  0  0
  180.6610  178.5890  141.7380 C   0  0  0  0  0  2  0  0  0  0  0  0
  180.3510  180.2200  139.8440 C   0  0  0  0  0  0  0  0  0  0  0  0
  180.3330  179.9140  141.2370 N   0  0  0  0  0  2  0  0  0  0  0  0
  180.0230  181.5330  139.4070 N   0  0  0  0  0  1  0  0  0  0  0  0
  180.6550  179.3390  138.9970 O   0  0  0  0  0  0  0  0  0  0  0  0
  1 16  1  0  0  0  0
  2 26  1  0  0  0  0
  2 23  2  0  0  0  0
  3 11  1  0  0  0  0
  4 11  2  0  0  0  0
  4 20  1  0  0  0  0
  5  6  1  0  0  0  0
  5 24  2  0  0  0  0
  6 18  1  0  0  0  0
  7 23  1  0  0  0  0
  7 19  1  0  0  0  0
  8 12  1  0  0  0  0
  8 17  1  0  0  0  0
  9 15  1  0  0  0  0
 10 17  1  0  0  0  0
 10  1  2  0  0  0  0
 11 13  1  0  0  0  0
 12  2  1  0  0  0  0
 13 21  1  0  0  0  0
 13 12  2  0  0  0  0
 14 22  1  0  0  0  0
 14 26  2  0  0  0  0
 16 19  2  0  0  0  0
 17  7  2  0  0  0  0
 18 15  2  0  0  0  0
 20 21  2  0  0  0  0
 21 14  1  0  0  0  0
 22 27  1  0  0  0  0
 25  9  2  0  0  0  0
 26  5  1  0  0  0  0
 27 25  1  0  0  0  0
 27  6  2  0  0  0  0
 28  1  1  0  0  0  0
 29 30  1  0  0  0  0
 30 28  1  0  0  0  0
 31 29  1  0  0  0  0
 32 29  2  0  0  0  0
M  END
>  <MODEL>
1

>  <REMARK>
 VINA RESULT:     -11.2      0.000      0.000
  Name = 
  2 active torsions:
  status: ('A' for Active; 'I' for Inactive)
    1  A    between atoms: C_2  and  C_24
    2  A    between atoms: N_10  and  C_24
                            x       y       z     vdW  Elec       q    Type
                         _______ _______ _______ _____ _____    ______ ____

>  <TORSDO>
F 2

$$$$
=
 OpenBabel10272413403D

 32 37  0  0  0  0  0  0  0  0999 V2000
  191.1740  176.6650  138.0260 C   0  0  0  0  0  0  0  0  0  0  0  0
  187.9320  178.2650  141.5940 C   0  0  0  0  0  0  0  0  0  0  0  0
  191.4280  177.3160  144.5470 C   0  0  0  0  0  1  0  0  0  0  0  0
  189.2360  177.1650  145.8940 N   0  0  0  0  0  0  0  0  0  0  0  0
  185.5010  178.6640  141.6640 C   0  0  0  0  0  0  0  0  0  0  0  0
  184.3210  178.7180  142.4250 C   0  0  0  0  0  0  0  0  0  0  0  0
  189.0840  177.8660  139.4610 C   0  0  0  0  0  0  0  0  0  0  0  0
  190.2560  177.3040  141.4860 C   0  0  0  0  0  3  0  0  0  0  0  0
  181.9850  178.8290  143.9790 C   0  0  0  0  0  3  0  0  0  0  0  0
  191.2020  176.6630  139.4240 C   0  0  0  0  0  3  0  0  0  0  0  0
  189.9440  177.3150  144.6580 C   0  0  0  0  0  0  0  0  0  0  0  0
  189.2780  178.1050  142.3020 C   0  0  0  0  0  0  0  0  0  0  0  0
  189.0900  177.5830  143.6810 C   0  0  0  0  0  0  0  0  0  0  0  0
  186.7080  178.0460  143.6920 C   0  0  0  0  0  0  0  0  0  0  0  0
  181.9270  179.1040  142.6100 C   0  0  0  0  0  3  0  0  0  0  0  0
  190.1230  177.2900  137.3470 C   0  0  0  0  0  3  0  0  0  0  0  0
  190.1760  177.2760  140.1500 C   0  0  0  0  0  0  0  0  0  0  0  0
  183.0900  179.0490  141.8360 C   0  0  0  0  0  3  0  0  0  0  0  0
  189.0780  177.8810  138.0620 C   0  0  0  0  0  3  0  0  0  0  0  0
  187.9920  177.3700  145.7020 N   0  0  0  0  0  2  0  0  0  0  0  0
  187.8200  177.6630  144.3230 C   0  0  0  0  0  0  0  0  0  0  0  0
  185.5450  178.1140  144.3900 N   0  0  0  0  0  2  0  0  0  0  0  0
  188.0130  178.3320  140.1170 C   0  0  0  0  0  3  0  0  0  0  0  0
  185.4390  178.9280  140.4310 O   0  0  0  0  0  0  0  0  0  0  0  0
  183.2040  178.4990  144.5760 C   0  0  0  0  0  3  0  0  0  0  0  0
  186.7420  178.3370  142.2880 C   0  0  0  0  0  0  0  0  0  0  0  0
  184.3700  178.4430  143.8060 C   0  0  0  0  0  0  0  0  0  0  0  0
  192.2880  176.0430  137.2610 C   0  0  0  0  0  2  0  0  0  0  0  0
  194.3460  174.9480  138.2140 C   0  0  0  0  0  0  0  0  0  0  0  0
  193.5110  176.0930  138.0450 N   0  0  0  0  0  2  0  0  0  0  0  0
  195.5320  175.0510  138.9930 N   0  0  0  0  0  1  0  0  0  0  0  0
  194.0440  173.8480  137.6810 O   0  0  0  0  0  0  0  0  0  0  0  0
  1 10  1  0  0  0  0
  2 26  1  0  0  0  0
  2 12  1  0  0  0  0
  3 11  1  0  0  0  0
  5 26  1  0  0  0  0
  5  6  1  0  0  0  0
  6 27  1  0  0  0  0
  7 23  1  0  0  0  0
  7 17  1  0  0  0  0
  8 12  2  0  0  0  0
  9 25  1  0  0  0  0
 10 17  2  0  0  0  0
 11  4  2  0  0  0  0
 12 13  1  0  0  0  0
 13 21  2  0  0  0  0
 13 11  1  0  0  0  0
 14 21  1  0  0  0  0
 14 22  1  0  0  0  0
 15  9  2  0  0  0  0
 16  1  2  0  0  0  0
 16 19  1  0  0  0  0
 17  8  1  0  0  0  0
 18  6  2  0  0  0  0
 18 15  1  0  0  0  0
 19  7  2  0  0  0  0
 20  4  1  0  0  0  0
 21 20  1  0  0  0  0
 23  2  2  0  0  0  0
 24  5  2  0  0  0  0
 26 14  2  0  0  0  0
 27 22  1  0  0  0  0
 27 25  2  0  0  0  0
 28  1  1  0  0  0  0
 28 30  1  0  0  0  0
 29 31  1  0  0  0  0
 30 29  1  0  0  0  0
 32 29  2  0  0  0  0
M  END
>  <MODEL>
2

>  <REMARK>
 VINA RESULT:     -11.0      3.423      8.475
  Name = 
  2 active torsions:
  status: ('A' for Active; 'I' for Inactive)
    1  A    between atoms: C_2  and  C_24
    2  A    between atoms: N_10  and  C_24
                            x       y       z     vdW  Elec       q    Type
                         _______ _______ _______ _____ _____    ______ ____

>  <TORSDO>
F 2

$$$$
=
 OpenBabel10272413403D

 32 37  0  0  1  0  0  0  0  0999 V2000
  189.3240  177.6910  147.2220 C   0  0  0  0  0  0  0  0  0  0  0  0
  186.7300  177.7000  142.8550 C   0  0  0  0  0  0  0  0  0  0  0  0
  190.9450  177.2750  140.8810 C   0  0  0  0  0  1  0  0  0  0  0  0
  189.3940  178.3620  139.1320 N   0  0  0  0  0  0  0  0  0  0  0  0
  184.4350  178.3260  142.2120 C   0  0  0  0  0  0  0  0  0  0  0  0
  183.5570  178.7890  141.2160 C   0  0  0  0  0  0  0  0  0  0  0  0
  187.3680  177.5040  145.2190 C   0  0  0  0  0  0  0  0  0  0  0  0
  189.1350  177.6290  143.5910 C   0  0  0  0  0  3  0  0  0  0  0  0
  181.8300  179.7030  139.2000 C   0  0  0  0  0  3  0  0  0  0  0  0
  189.7010  177.7410  145.8770 C   0  0  0  0  0  3  0  0  0  0  0  0
  189.6540  177.8840  140.4570 C   0  0  0  0  0  0  0  0  0  0  0  0
  188.1660  177.3310  142.4810 C   0  0  2  0  0  3  0  0  0  0  0  0
  188.5460  177.9440  141.1810 C   0  0  0  0  0  0  0  0  0  0  0  0
  186.2550  178.4880  140.5960 C   0  0  0  0  0  0  0  0  0  0  0  0
  181.3290  179.4160  140.4720 C   0  0  0  0  0  3  0  0  0  0  0  0
  187.9800  177.5170  147.5660 C   0  0  0  0  0  3  0  0  0  0  0  0
  188.7380  177.6290  144.8690 C   0  0  0  0  0  0  0  0  0  0  0  0
  182.1870  178.9610  141.4770 C   0  0  0  0  0  3  0  0  0  0  0  0
  187.0050  177.4330  146.5680 C   0  0  0  0  0  3  0  0  0  0  0  0
  188.1620  178.6720  139.0220 N   0  0  0  0  0  0  0  0  0  0  0  0
  187.5490  178.4130  140.2780 C   0  0  0  0  0  0  0  0  0  0  0  0
  185.3710  178.9280  139.6630 N   0  0  0  0  0  2  0  0  0  0  0  0
  186.4030  177.5420  144.2910 C   0  0  0  0  0  3  0  0  0  0  0  0
  183.9670  178.0560  143.3530 O   0  0  0  0  0  0  0  0  0  0  0  0
  183.1910  179.5350  138.9300 C   0  0  0  0  0  3  0  0  0  0  0  0
  185.8190  178.1480  141.9200 C   0  0  0  0  0  0  0  0  0  0  0  0
  184.0540  179.0800  139.9310 C   0  0  0  0  0  0  0  0  0  0  0  0
  190.3590  177.7730  148.2870 C   0  0  0  0  0  2  0  0  0  0  0  0
  191.8460  175.8630  147.5880 C   0  0  0  0  0  0  0  0  0  0  0  0
  191.6230  177.2590  147.7860 N   0  0  0  0  0  2  0  0  0  0  0  0
  193.1020  175.4130  147.0960 N   0  0  0  0  0  1  0  0  0  0  0  0
  190.9410  175.0260  147.8460 O   0  0  0  0  0  0  0  0  0  0  0  0
  1 16  1  0  0  0  0
  1 28  1  0  0  0  0
  2 23  1  0  0  0  0
  4 11  1  0  0  0  0
  5 24  2  0  0  0  0
  6 18  1  0  0  0  0
  6  5  1  0  0  0  0
  7 19  1  0  0  0  0
  8 17  2  0  0  0  0
  9 15  1  0  0  0  0
 10  1  2  0  0  0  0
 11  3  1  0  0  0  0
 11 13  2  0  0  0  0
 12  2  1  0  0  0  0
 12  8  1  1  0  0  0
 13 12  1  0  0  0  0
 14 26  1  0  0  0  0
 15 18  2  0  0  0  0
 17  7  1  0  0  0  0
 17 10  1  0  0  0  0
 19 16  2  0  0  0  0
 20  4  2  0  0  0  0
 20 21  1  0  0  0  0
 21 14  2  0  0  0  0
 21 13  1  0  0  0  0
 22 27  1  0  0  0  0
 22 14  1  0  0  0  0
 23  7  2  0  0  0  0
 25  9  2  0  0  0  0
 25 27  1  0  0  0  0
 26  5  1  0  0  0  0
 26  2  2  0  0  0  0
 27  6  2  0  0  0  0
 29 30  1  0  0  0  0
 29 32  2  0  0  0  0
 30 28  1  0  0  0  0
 31 29  1  0  0  0  0
M  END
>  <MODEL>
3

>  <REMARK>
 VINA RESULT:     -10.6      2.387      8.097
  Name = 
  2 active torsions:
  status: ('A' for Active; 'I' for Inactive)
    1  A    between atoms: C_2  and  C_24
    2  A    between atoms: N_10  and  C_24
                            x       y       z     vdW  Elec       q    Type
                         _______ _______ _______ _____ _____    ______ ____

>  <TORSDO>
F 2

$$$$
=
 OpenBabel10272413403D

 32 37  0  0  0  0  0  0  0  0999 V2000
  182.1930  178.4740  140.8810 C   0  0  0  0  0  0  0  0  0  0  0  0
  186.9840  178.3830  142.5670 C   0  0  0  0  0  0  0  0  0  0  0  0
  188.1000  178.6290  138.0350 C   0  0  0  0  0  1  0  0  0  0  0  0
  190.0890  177.5250  139.2480 N   0  0  0  0  0  0  0  0  0  0  0  0
  188.0480  177.7960  144.7110 C   0  0  0  0  0  0  0  0  0  0  0  0
  189.1840  177.3230  145.3910 C   0  0  0  0  0  0  0  0  0  0  0  0
  184.5470  178.6430  142.3990 C   0  0  0  0  0  0  0  0  0  0  0  0
  185.7910  178.4160  140.3520 C   0  0  0  0  0  2  0  0  0  0  0  0
  191.4750  176.3860  146.7170 C   0  0  0  0  0  3  0  0  0  0  0  0
  183.4360  178.3670  140.2490 C   0  0  0  0  0  3  0  0  0  0  0  0
  188.7530  178.0410  139.2370 C   0  0  0  0  0  0  0  0  0  0  0  0
  187.0780  178.7020  141.0750 C   0  0  0  0  0  0  0  0  0  0  0  0
  188.2600  178.0350  140.4670 C   0  0  0  0  0  0  0  0  0  0  0  0
  189.2690  177.5310  142.6150 C   0  0  0  0  0  0  0  0  0  0  0  0
  190.3350  176.7290  147.4490 C   0  0  0  0  0  3  0  0  0  0  0  0
  182.1260  178.6940  142.2600 C   0  0  0  0  0  3  0  0  0  0  0  0
  184.6160  178.4700  140.9910 C   0  0  0  0  0  0  0  0  0  0  0  0
  189.1940  177.1960  146.7900 C   0  0  0  0  0  3  0  0  0  0  0  0
  183.2990  178.7690  143.0170 C   0  0  0  0  0  3  0  0  0  0  0  0
  190.4300  177.2440  140.4440 N   0  0  0  0  0  0  0  0  0  0  0  0
  189.3280  177.5610  141.2820 C   0  0  0  0  0  0  0  0  0  0  0  0
  190.3450  177.0830  143.3120 N   0  0  0  0  0  2  0  0  0  0  0  0
  185.6460  178.5990  143.1640 C   0  0  0  0  0  3  0  0  0  0  0  0
  187.0300  178.1170  145.3840 O   0  0  0  0  0  0  0  0  0  0  0  0
  191.4760  176.5080  145.3250 C   0  0  0  0  0  3  0  0  0  0  0  0
  188.0670  177.9280  143.2910 C   0  0  0  0  0  0  0  0  0  0  0  0
  190.3370  176.9750  144.6610 C   0  0  0  0  0  0  0  0  0  0  0  0
  180.9430  178.4010  140.0780 C   0  0  0  0  0  2  0  0  0  0  0  0
  180.4820  175.9670  139.6200 C   0  0  0  0  0  0  0  0  0  0  0  0
  180.9850  177.2370  139.2070 N   0  0  0  0  0  2  0  0  0  0  0  0
  180.5480  174.8610  138.7290 N   0  0  0  0  0  1  0  0  0  0  0  0
  179.9820  175.8160  140.7650 O   0  0  0  0  0  0  0  0  0  0  0  0
  1 16  1  0  0  0  0
  2 23  2  0  0  0  0
  2 26  1  0  0  0  0
  3 11  1  0  0  0  0
  4 20  1  0  0  0  0
  5 24  2  0  0  0  0
  5  6  1  0  0  0  0
  6 18  1  0  0  0  0
  7 19  1  0  0  0  0
  7 23  1  0  0  0  0
  8 17  1  0  0  0  0
  8 12  1  0  0  0  0
  9 15  1  0  0  0  0
 10  1  2  0  0  0  0
 10 17  1  0  0  0  0
 11  4  2  0  0  0  0
 11 13  1  0  0  0  0
 12  2  1  0  0  0  0
 13 12  2  0  0  0  0
 13 21  1  0  0  0  0
 14 26  2  0  0  0  0
 14 22  1  0  0  0  0
 16 19  2  0  0  0  0
 17  7  2  0  0  0  0
 18 15  2  0  0  0  0
 20 21  2  0  0  0  0
 21 14  1  0  0  0  0
 22 27  1  0  0  0  0
 25  9  2  0  0  0  0
 26  5  1  0  0  0  0
 27 25  1  0  0  0  0
 27  6  2  0  0  0  0
 28  1  1  0  0  0  0
 29 32  2  0  0  0  0
 30 29  1  0  0  0  0
 30 28  1  0  0  0  0
 31 29  1  0  0  0  0
M  END
>  <MODEL>
4

>  <REMARK>
 VINA RESULT:     -10.4      1.665      1.881
  Name = 
  2 active torsions:
  status: ('A' for Active; 'I' for Inactive)
    1  A    between atoms: C_2  and  C_24
    2  A    between atoms: N_10  and  C_24
                            x       y       z     vdW  Elec       q    Type
                         _______ _______ _______ _____ _____    ______ ____

>  <TORSDO>
F 2

$$$$
=
 OpenBabel10272413403D

 32 37  0  0  1  0  0  0  0  0999 V2000
  190.4480  176.7290  143.4060 C   0  0  0  0  0  0  0  0  0  0  0  0
  185.9330  178.6510  142.0940 C   0  0  0  0  0  0  0  0  0  0  0  0
  185.2380  178.9590  146.7060 C   0  0  0  0  0  1  0  0  0  0  0  0
  182.9150  178.8190  145.5960 N   0  0  0  0  0  0  0  0  0  0  0  0
  184.6150  178.6960  140.0120 C   0  0  0  0  0  0  0  0  0  0  0  0
  183.3520  178.7590  139.3990 C   0  0  0  0  0  0  0  0  0  0  0  0
  188.2800  177.9230  142.0870 C   0  0  0  0  0  0  0  0  0  0  0  0
  187.1530  178.0410  144.2090 C   0  0  0  0  0  3  0  0  0  0  0  0
  180.8140  178.8990  138.2080 C   0  0  0  0  0  3  0  0  0  0  0  0
  189.2990  177.0680  144.1270 C   0  0  0  0  0  3  0  0  0  0  0  0
  184.3450  178.7690  145.5300 C   0  0  1  0  0  3  0  0  0  0  0  0
  186.0490  178.8630  143.6040 C   0  0  0  0  0  0  0  0  0  0  0  0
  184.7320  178.6670  144.2670 C   0  0  0  0  0  0  0  0  0  0  0  0
  183.4980  178.7670  142.1800 C   0  0  0  0  0  0  0  0  0  0  0  0
  181.9570  178.8260  137.4080 C   0  0  0  0  0  3  0  0  0  0  0  0
  190.5270  177.0130  142.0390 C   0  0  0  0  0  3  0  0  0  0  0  0
  188.2190  177.6810  143.4840 C   0  0  0  0  0  0  0  0  0  0  0  0
  183.2210  178.7560  138.0000 C   0  0  0  0  0  3  0  0  0  0  0  0
  189.4420  177.5990  141.3800 C   0  0  0  0  0  3  0  0  0  0  0  0
  182.4300  178.7880  144.4170 N   0  0  0  0  0  0  0  0  0  0  0  0
  183.5240  178.7130  143.5130 C   0  0  0  0  0  0  0  0  0  0  0  0
  182.2990  178.8310  141.5460 N   0  0  0  0  0  2  0  0  0  0  0  0
  187.2150  178.3720  141.4070 C   0  0  0  0  0  3  0  0  0  0  0  0
  185.6420  178.6450  139.2800 O   0  0  0  0  0  0  0  0  0  0  0  0
  180.9320  178.9040  139.6000 C   0  0  0  0  0  3  0  0  0  0  0  0
  184.7230  178.7130  141.4350 C   0  0  0  0  0  0  0  0  0  0  0  0
  182.1940  178.8340  140.1970 C   0  0  0  0  0  0  0  0  0  0  0  0
  191.6070  176.1110  144.1050 C   0  0  0  0  0  2  0  0  0  0  0  0
  192.1230  175.8940  146.5610 C   0  0  0  0  0  0  0  0  0  0  0  0
  191.7420  176.6830  145.4350 N   0  0  0  0  0  2  0  0  0  0  0  0
  192.2390  176.5030  147.8410 N   0  0  0  0  0  1  0  0  0  0  0  0
  192.3570  174.6630  146.4330 O   0  0  0  0  0  0  0  0  0  0  0  0
  1 28  1  0  0  0  0
  1 10  1  0  0  0  0
  2 12  1  0  0  0  0
  5 26  1  0  0  0  0
  6  5  1  0  0  0  0
  6 27  1  0  0  0  0
  7 17  1  0  0  0  0
  9 25  1  0  0  0  0
 11  4  1  0  0  0  0
 11  3  1  6  0  0  0
 12  8  2  0  0  0  0
 12 13  1  0  0  0  0
 13 11  1  0  0  0  0
 14 21  1  0  0  0  0
 15 18  1  0  0  0  0
 15  9  2  0  0  0  0
 16  1  2  0  0  0  0
 17 10  2  0  0  0  0
 17  8  1  0  0  0  0
 18  6  2  0  0  0  0
 19 16  1  0  0  0  0
 19  7  2  0  0  0  0
 20  4  2  0  0  0  0
 21 13  2  0  0  0  0
 21 20  1  0  0  0  0
 22 14  1  0  0  0  0
 23  7  1  0  0  0  0
 23  2  2  0  0  0  0
 24  5  2  0  0  0  0
 25 27  2  0  0  0  0
 26  2  1  0  0  0  0
 26 14  2  0  0  0  0
 27 22  1  0  0  0  0
 28 30  1  0  0  0  0
 29 31  1  0  0  0  0
 30 29  1  0  0  0  0
 32 29  2  0  0  0  0
M  END
>  <MODEL>
5

>  <REMARK>
 VINA RESULT:     -10.1      2.523      9.136
  Name = 
  2 active torsions:
  status: ('A' for Active; 'I' for Inactive)
    1  A    between atoms: C_2  and  C_24
    2  A    between atoms: N_10  and  C_24
                            x       y       z     vdW  Elec       q    Type
                         _______ _______ _______ _____ _____    ______ ____

>  <TORSDO>
F 2

$$$$
=
 OpenBabel10272413403D

 32 37  0  0  0  0  0  0  0  0999 V2000
  190.9390  176.8460  139.3580 C   0  0  0  0  0  0  0  0  0  0  0  0
  187.0100  178.4550  142.1460 C   0  0  0  0  0  0  0  0  0  0  0  0
  189.8580  177.6900  145.7720 C   0  0  0  0  0  1  0  0  0  0  0  0
  187.4430  177.5150  146.6550 N   0  0  0  0  0  0  0  0  0  0  0  0
  184.6060  178.7850  141.7130 C   0  0  0  0  0  0  0  0  0  0  0  0
  183.2960  178.8270  142.2190 C   0  0  0  0  0  0  0  0  0  0  0  0
  188.5770  178.0280  140.3030 C   0  0  0  0  0  0  0  0  0  0  0  0
  189.3280  177.5580  142.5400 C   0  0  0  0  0  3  0  0  0  0  0  0
  180.6920  178.9160  143.2670 C   0  0  0  0  0  3  0  0  0  0  0  0
  190.6840  176.8860  140.7320 C   0  0  0  0  0  3  0  0  0  0  0  0
  188.3820  177.6500  145.5820 C   0  0  0  0  0  0  0  0  0  0  0  0
  188.1880  178.3530  143.1150 C   0  0  0  0  0  0  0  0  0  0  0  0
  187.7370  177.8650  144.4450 C   0  0  0  0  0  0  0  0  0  0  0  0
  185.3920  178.2600  143.9620 C   0  0  0  0  0  0  0  0  0  0  0  0
  180.9060  179.1500  141.9060 C   0  0  0  0  0  3  0  0  0  0  0  0
  190.0330  177.4220  138.4610 C   0  0  0  0  0  3  0  0  0  0  0  0
  189.5200  177.4900  141.2170 C   0  0  0  0  0  0  0  0  0  0  0  0
  182.2010  179.1060  141.3830 C   0  0  0  0  0  3  0  0  0  0  0  0
  188.8520  178.0020  138.9320 C   0  0  0  0  0  3  0  0  0  0  0  0
  186.2590  177.6790  146.2110 N   0  0  0  0  0  2  0  0  0  0  0  0
  186.3630  177.9280  144.8160 C   0  0  0  0  0  0  0  0  0  0  0  0
  184.1110  178.3150  144.4090 N   0  0  0  0  0  2  0  0  0  0  0  0
  187.3850  178.4820  140.7140 C   0  0  0  0  0  3  0  0  0  0  0  0
  184.7880  179.0130  140.4840 O   0  0  0  0  0  0  0  0  0  0  0  0
  181.7730  178.6380  144.1070 C   0  0  0  0  0  3  0  0  0  0  0  0
  185.7020  178.5120  142.5840 C   0  0  0  0  0  0  0  0  0  0  0  0
  183.0710  178.5930  143.5900 C   0  0  0  0  0  0  0  0  0  0  0  0
  192.1980  176.2350  138.8540 C   0  0  0  0  0  2  0  0  0  0  0  0
  193.4310  176.0310  136.6670 C   0  0  0  0  0  0  0  0  0  0  0  0
  192.2500  176.3400  137.4050 N   0  0  0  0  0  2  0  0  0  0  0  0
  193.4290  176.1520  135.2500 N   0  0  0  0  0  1  0  0  0  0  0  0
  194.4770  175.6540  137.2590 O   0  0  0  0  0  0  0  0  0  0  0  0
  1 10  1  0  0  0  0
  2 26  1  0  0  0  0
  2 12  1  0  0  0  0
  5  6  1  0  0  0  0
  5 26  1  0  0  0  0
  6 27  1  0  0  0  0
  7 23  1  0  0  0  0
  7 17  1  0  0  0  0
  8 12  2  0  0  0  0
  9 25  1  0  0  0  0
 10 17  2  0  0  0  0
 11  3  1  0  0  0  0
 11  4  2  0  0  0  0
 12 13  1  0  0  0  0
 13 21  2  0  0  0  0
 13 11  1  0  0  0  0
 14 22  1  0  0  0  0
 14 21  1  0  0  0  0
 15  9  2  0  0  0  0
 16 19  1  0  0  0  0
 16  1  2  0  0  0  0
 17  8  1  0  0  0  0
 18 15  1  0  0  0  0
 18  6  2  0  0  0  0
 19  7  2  0  0  0  0
 20  4  1  0  0  0  0
 21 20  1  0  0  0  0
 23  2  2  0  0  0  0
 24  5  2  0  0  0  0
 26 14  2  0  0  0  0
 27 25  2  0  0  0  0
 27 22  1  0  0  0  0
 28  1  1  0  0  0  0
 29 32  2  0  0  0  0
 29 30  1  0  0  0  0
 30 28  1  0  0  0  0
 31 29  1  0  0  0  0
M  END
>  <MODEL>
6

>  <REMARK>
 VINA RESULT:     -10.0      3.350      8.483
  Name = 
  2 active torsions:
  status: ('A' for Active; 'I' for Inactive)
    1  A    between atoms: C_2  and  C_24
    2  A    between atoms: N_10  and  C_24
                            x       y       z     vdW  Elec       q    Type
                         _______ _______ _______ _____ _____    ______ ____

>  <TORSDO>
F 2

$$$$
=
 OpenBabel10272413403D

 32 37  0  0  1  0  0  0  0  0999 V2000
  188.3610  177.6600  144.8430 C   0  0  0  0  0  0  0  0  0  0  0  0
  189.6890  177.6980  139.9400 C   0  0  0  0  0  0  0  0  0  0  0  0
  185.2190  178.8530  139.2110 C   0  0  0  0  0  1  0  0  0  0  0  0
  186.0740  177.7320  137.0530 N   0  0  0  0  0  0  0  0  0  0  0  0
  191.6130  176.8340  138.6660 C   0  0  0  0  0  0  0  0  0  0  0  0
  192.1180  176.3500  137.4470 C   0  0  0  0  0  0  0  0  0  0  0  0
  189.7280  177.7640  142.3960 C   0  0  0  0  0  0  0  0  0  0  0  0
  187.5990  178.0210  141.3050 C   0  0  0  0  0  3  0  0  0  0  0  0
  193.0970  175.4000  134.9930 C   0  0  0  0  0  3  0  0  0  0  0  0
  187.6410  177.7800  143.6500 C   0  0  0  0  0  3  0  0  0  0  0  0
  186.2460  178.1190  138.4220 C   0  0  0  0  0  0  0  0  0  0  0  0
  188.2780  178.2870  139.9900 C   0  0  2  0  0  3  0  0  0  0  0  0
  187.4820  177.8490  138.8130 C   0  0  0  0  0  0  0  0  0  0  0  0
  189.4300  177.0600  137.6000 C   0  0  0  0  0  0  0  0  0  0  0  0
  193.9520  175.5030  136.0940 C   0  0  0  0  0  3  0  0  0  0  0  0
  189.7580  177.6220  144.8160 C   0  0  0  0  0  3  0  0  0  0  0  0
  188.3120  177.8530  142.4250 C   0  0  0  0  0  0  0  0  0  0  0  0
  193.4660  175.9760  137.3160 C   0  0  0  0  0  3  0  0  0  0  0  0
  190.4390  177.6650  143.5960 C   0  0  0  0  0  3  0  0  0  0  0  0
  187.1730  177.2730  136.5970 N   0  0  0  0  0  0  0  0  0  0  0  0
  188.1250  177.3340  137.6500 C   0  0  0  0  0  0  0  0  0  0  0  0
  189.9610  176.5920  136.4410 N   0  0  0  0  0  2  0  0  0  0  0  0
  190.4000  177.6820  141.2390 C   0  0  0  0  0  3  0  0  0  0  0  0
  192.3980  176.9360  139.6490 O   0  0  0  0  0  0  0  0  0  0  0  0
  191.7560  175.7700  135.1120 C   0  0  0  0  0  3  0  0  0  0  0  0
  190.2430  177.2190  138.7710 C   0  0  0  0  0  0  0  0  0  0  0  0
  191.2640  176.2440  136.3330 C   0  0  0  0  0  0  0  0  0  0  0  0
  187.6400  177.6200  146.1440 C   0  0  0  0  0  2  0  0  0  0  0  0
  185.4060  178.7360  146.4730 C   0  0  0  0  0  0  0  0  0  0  0  0
  186.2060  177.6950  145.9150 N   0  0  0  0  0  2  0  0  0  0  0  0
  184.0070  178.7630  146.2190 N   0  0  0  0  0  1  0  0  0  0  0  0
  185.9270  179.6320  147.1890 O   0  0  0  0  0  0  0  0  0  0  0  0
  1 28  1  0  0  0  0
  2 12  1  0  0  0  0
  2 23  1  0  0  0  0
  4 11  1  0  0  0  0
  5 26  1  0  0  0  0
  5 24  2  0  0  0  0
  6  5  1  0  0  0  0
  7 17  1  0  0  0  0
  7 19  1  0  0  0  0
  8 17  2  0  0  0  0
  9 25  2  0  0  0  0
  9 15  1  0  0  0  0
 10  1  2  0  0  0  0
 11 13  2  0  0  0  0
 11  3  1  0  0  0  0
 12  8  1  1  0  0  0
 13 12  1  0  0  0  0
 14 21  2  0  0  0  0
 14 26  1  0  0  0  0
 15 18  2  0  0  0  0
 16  1  1  0  0  0  0
 17 10  1  0  0  0  0
 18  6  1  0  0  0  0
 19 16  2  0  0  0  0
 20  4  2  0  0  0  0
 20 21  1  0  0  0  0
 21 13  1  0  0  0  0
 22 14  1  0  0  0  0
 23  7  2  0  0  0  0
 25 27  1  0  0  0  0
 26  2  2  0  0  0  0
 27 22  1  0  0  0  0
 27  6  2  0  0  0  0
 29 32  2  0  0  0  0
 30 28  1  0  0  0  0
 30 29  1  0  0  0  0
 31 29  1  0  0  0  0
M  END
>  <MODEL>
7

>  <REMARK>
 VINA RESULT:      -9.8      3.763      7.067
  Name = 
  2 active torsions:
  status: ('A' for Active; 'I' for Inactive)
    1  A    between atoms: C_2  and  C_24
    2  A    between atoms: N_10  and  C_24
                            x       y       z     vdW  Elec       q    Type
                         _______ _______ _______ _____ _____    ______ ____

>  <TORSDO>
F 2

$$$$
=
 OpenBabel10272413403D

 32 37  0  0  1  0  0  0  0  0999 V2000
  190.3640  176.7250  145.5830 C   0  0  0  0  0  0  0  0  0  0  0  0
  189.6290  177.7080  140.6540 C   0  0  0  0  0  0  0  0  0  0  0  0
  185.5660  179.5160  142.0900 C   0  0  0  0  0  1  0  0  0  0  0  0
  185.2570  178.8160  139.6290 N   0  0  0  0  0  0  0  0  0  0  0  0
  190.6790  176.9320  138.5640 C   0  0  0  0  0  0  0  0  0  0  0  0
  190.5540  176.6790  137.1870 C   0  0  0  0  0  0  0  0  0  0  0  0
  190.6470  177.2150  142.8350 C   0  0  0  0  0  0  0  0  0  0  0  0
  188.3580  177.9600  142.8120 C   0  0  0  0  0  3  0  0  0  0  0  0
  190.2730  176.1960  134.4350 C   0  0  0  0  0  3  0  0  0  0  0  0
  189.2730  177.1950  144.8460 C   0  0  0  0  0  3  0  0  0  0  0  0
  186.0280  178.8630  140.8350 C   0  0  0  0  0  0  0  0  0  0  0  0
  188.5020  178.4320  141.3910 C   0  0  2  0  0  3  0  0  0  0  0  0
  187.2360  178.3670  140.6140 C   0  0  0  0  0  0  0  0  0  0  0  0
  188.3460  177.6480  138.5800 C   0  0  0  0  0  0  0  0  0  0  0  0
  191.4950  175.9470  135.0670 C   0  0  0  0  0  3  0  0  0  0  0  0
  191.5990  176.5300  144.9570 C   0  0  0  0  0  3  0  0  0  0  0  0
  189.4060  177.4620  143.4800 C   0  0  0  0  0  0  0  0  0  0  0  0
  191.6350  176.1870  136.4370 C   0  0  0  0  0  3  0  0  0  0  0  0
  191.7370  176.7660  143.5860 C   0  0  0  0  0  3  0  0  0  0  0  0
  185.9690  178.3450  138.6820 N   0  0  0  0  0  0  0  0  0  0  0  0
  187.2510  178.0550  139.2240 C   0  0  0  0  0  0  0  0  0  0  0  0
  188.2720  177.3930  137.2480 N   0  0  0  0  0  2  0  0  0  0  0  0
  190.7760  177.3170  141.5050 C   0  0  0  0  0  3  0  0  0  0  0  0
  191.7910  176.7170  139.1210 O   0  0  0  0  0  0  0  0  0  0  0  0
  189.1910  176.6850  135.1710 C   0  0  0  0  0  3  0  0  0  0  0  0
  189.5690  177.4420  139.3010 C   0  0  0  0  0  0  0  0  0  0  0  0
  189.3270  176.9270  136.5420 C   0  0  0  0  0  0  0  0  0  0  0  0
  190.2230  176.4790  147.0430 C   0  0  0  0  0  2  0  0  0  0  0  0
  188.6360  177.9230  148.3630 C   0  0  0  0  0  0  0  0  0  0  0  0
  188.8810  176.8340  147.4750 N   0  0  0  0  0  2  0  0  0  0  0  0
  187.3030  178.2270  148.7550 N   0  0  0  0  0  1  0  0  0  0  0  0
  189.5890  178.6180  148.8040 O   0  0  0  0  0  0  0  0  0  0  0  0
  1 28  1  0  0  0  0
  2 12  1  0  0  0  0
  2 23  1  0  0  0  0
  4 11  1  0  0  0  0
  5 24  2  0  0  0  0
  5 26  1  0  0  0  0
  6  5  1  0  0  0  0
  7 17  1  0  0  0  0
  7 19  1  0  0  0  0
  8 17  2  0  0  0  0
  9 15  2  0  0  0  0
  9 25  1  0  0  0  0
 10  1  2  0  0  0  0
 11  3  1  0  0  0  0
 12  8  1  1  0  0  0
 13 11  2  0  0  0  0
 13 12  1  0  0  0  0
 14 21  2  0  0  0  0
 14 26  1  0  0  0  0
 15 18  1  0  0  0  0
 16  1  1  0  0  0  0
 17 10  1  0  0  0  0
 18  6  2  0  0  0  0
 19 16  2  0  0  0  0
 20 21  1  0  0  0  0
 20  4  2  0  0  0  0
 21 13  1  0  0  0  0
 22 14  1  0  0  0  0
 23  7  2  0  0  0  0
 25 27  2  0  0  0  0
 26  2  2  0  0  0  0
 27  6  1  0  0  0  0
 27 22  1  0  0  0  0
 28 30  1  0  0  0  0
 29 31  1  0  0  0  0
 29 32  2  0  0  0  0
 30 29  1  0  0  0  0
M  END
>  <MODEL>
8

>  <REMARK>
 VINA RESULT:      -9.7      3.430      8.125
  Name = 
  2 active torsions:
  status: ('A' for Active; 'I' for Inactive)
    1  A    between atoms: C_2  and  C_24
    2  A    between atoms: N_10  and  C_24
                            x       y       z     vdW  Elec       q    Type
                         _______ _______ _______ _____ _____    ______ ____

>  <TORSDO>
F 2

$$$$
=
 OpenBabel10272413403D

 32 37  0  0  1  0  0  0  0  0999 V2000
  189.3540  177.2930  145.6820 C   0  0  0  0  0  0  0  0  0  0  0  0
  187.1770  178.4320  141.2370 C   0  0  0  0  0  0  0  0  0  0  0  0
  183.3070  178.9920  143.7970 C   0  0  0  0  0  1  0  0  0  0  0  0
  182.5530  178.4310  141.3970 N   0  0  0  0  0  0  0  0  0  0  0  0
  187.8100  178.1230  138.8750 C   0  0  0  0  0  0  0  0  0  0  0  0
  187.4010  177.9550  137.5410 C   0  0  0  0  0  0  0  0  0  0  0  0
  188.8030  178.0540  143.0380 C   0  0  0  0  0  0  0  0  0  0  0  0
  186.4760  178.1710  143.6400 C   0  0  0  0  0  3  0  0  0  0  0  0
  186.5490  177.6320  134.8850 C   0  0  0  0  0  3  0  0  0  0  0  0
  188.0320  177.5170  145.2850 C   0  0  0  0  0  3  0  0  0  0  0  0
  183.5740  178.5840  142.3910 C   0  0  1  0  0  3  0  0  0  0  0  0
  186.1370  178.7750  142.3050 C   0  0  0  0  0  0  0  0  0  0  0  0
  184.7670  178.4410  141.8340 C   0  0  0  0  0  0  0  0  0  0  0  0
  185.4580  178.1990  139.5210 C   0  0  0  0  0  0  0  0  0  0  0  0
  187.9140  177.6630  135.1820 C   0  0  0  0  0  3  0  0  0  0  0  0
  190.3990  177.4790  144.7710 C   0  0  0  0  0  3  0  0  0  0  0  0
  187.7460  177.9150  143.9760 C   0  0  0  0  0  0  0  0  0  0  0  0
  188.3390  177.8240  136.5030 C   0  0  0  0  0  3  0  0  0  0  0  0
  190.1230  177.8490  143.4520 C   0  0  0  0  0  3  0  0  0  0  0  0
  183.0910  178.2380  140.2570 N   0  0  0  0  0  0  0  0  0  0  0  0
  184.4990  178.2530  140.4470 C   0  0  0  0  0  0  0  0  0  0  0  0
  185.1080  178.0390  138.2180 N   0  0  0  0  0  2  0  0  0  0  0  0
  188.5610  178.2890  141.7420 C   0  0  0  0  0  3  0  0  0  0  0  0
  189.0460  178.1650  139.1290 O   0  0  0  0  0  0  0  0  0  0  0  0
  185.6070  177.7610  135.9080 C   0  0  0  0  0  3  0  0  0  0  0  0
  186.8380  178.2660  139.9090 C   0  0  0  0  0  0  0  0  0  0  0  0
  186.0270  177.9220  137.2320 C   0  0  0  0  0  0  0  0  0  0  0  0
  189.6530  176.9060  147.0870 C   0  0  0  0  0  2  0  0  0  0  0  0
  191.9820  176.3240  147.8490 C   0  0  0  0  0  0  0  0  0  0  0  0
  190.7980  176.0110  147.1180 N   0  0  0  0  0  2  0  0  0  0  0  0
  193.0740  175.4130  147.8450 N   0  0  0  0  0  1  0  0  0  0  0  0
  192.0700  177.4000  148.4980 O   0  0  0  0  0  0  0  0  0  0  0  0
  1 28  1  0  0  0  0
  2 23  2  0  0  0  0
  2 12  1  0  0  0  0
  4 11  1  0  0  0  0
  5 24  2  0  0  0  0
  5 26  1  0  0  0  0
  6  5  1  0  0  0  0
  7 19  2  0  0  0  0
  7 17  1  0  0  0  0
  8 17  1  0  0  0  0
  9 15  2  0  0  0  0
  9 25  1  0  0  0  0
 10  1  1  0  0  0  0
 11  3  1  6  0  0  0
 12  8  2  0  0  0  0
 13 12  1  0  0  0  0
 13 11  1  0  0  0  0
 14 26  2  0  0  0  0
 14 21  1  0  0  0  0
 15 18  1  0  0  0  0
 16  1  2  0  0  0  0
 17 10  2  0  0  0  0
 18  6  2  0  0  0  0
 19 16  1  0  0  0  0
 20 21  1  0  0  0  0
 20  4  2  0  0  0  0
 21 13  2  0  0  0  0
 22 14  1  0  0  0  0
 23  7  1  0  0  0  0
 25 27  2  0  0  0  0
 26  2  1  0  0  0  0
 27  6  1  0  0  0  0
 27 22  1  0  0  0  0
 28 30  1  0  0  0  0
 29 32  2  0  0  0  0
 30 29  1  0  0  0  0
 31 29  1  0  0  0  0
M  END
>  <MODEL>
9

>  <REMARK>
 VINA RESULT:      -9.7      2.755      8.668
  Name = 
  2 active torsions:
  status: ('A' for Active; 'I' for Inactive)
    1  A    between atoms: C_2  and  C_24
    2  A    between atoms: N_10  and  C_24
                            x       y       z     vdW  Elec       q    Type
                         _______ _______ _______ _____ _____    ______ ____

>  <TORSDO>
F 2

$$$$
