=
 OpenBabel10272415253D

 34 38  0  0  1  0  0  0  0  0999 V2000
  184.4610  178.1530  141.6290 C   0  0  0  0  0  0  0  0  0  0  0  0
  184.4910  177.9030  139.0290 C   0  0  0  0  0  0  0  0  0  0  0  0
  182.2620  177.0750  139.9510 C   0  0  0  0  0  2  0  0  0  0  0  0
  183.5860  179.1950  144.1510 C   0  0  0  0  0  2  0  0  0  0  0  0
  185.2350  178.0330  142.7210 C   0  0  0  0  0  3  0  0  0  0  0  0
  182.6100  178.9820  143.0330 C   0  0  0  0  0  0  0  0  0  0  0  0
  180.5230  179.7890  141.9730 C   0  0  0  0  0  2  0  0  0  0  0  0
  181.1720  179.3290  143.2700 C   0  0  0  0  0  2  0  0  0  0  0  0
  184.7110  178.2630  144.0380 N   0  0  0  0  0  0  0  0  0  0  0  0
  182.0240  178.1830  140.8460 N   0  0  0  0  0  0  0  0  0  0  0  0
  183.0130  178.4770  141.8460 C   0  0  0  0  0  0  0  0  0  0  0  0
  180.6460  178.6740  140.9420 C   0  0  0  0  0  2  0  0  0  0  0  0
  185.2260  178.0160  137.8420 C   0  0  0  0  0  3  0  0  0  0  0  0
  186.5860  178.3350  137.8540 C   0  0  0  0  0  0  0  0  0  0  0  0
  187.2280  178.5370  139.0710 C   0  0  0  0  0  3  0  0  0  0  0  0
  183.1270  177.5060  138.8780 N   0  0  0  0  0  2  0  0  0  0  0  0
  186.5100  178.4410  140.2610 C   0  0  0  0  0  3  0  0  0  0  0  0
  185.1330  178.1330  140.2830 C   0  0  0  0  0  0  0  0  0  0  0  0
  186.2630  178.8760  147.4860 C   0  0  0  0  0  2  0  0  0  0  0  0
  187.0100  177.7370  144.7960 C   0  0  0  0  0  2  0  0  0  0  0  0
  188.4160  178.1950  148.2620 O   0  0  0  0  0  1  0  0  0  0  0  0
  187.4500  177.9210  147.2920 C   0  0  2  0  0  3  0  0  0  0  0  0
  188.0530  178.0380  145.8870 C   0  0  1  0  0  3  0  0  0  0  0  0
  185.5580  178.0320  145.2140 C   0  0  1  0  0  3  0  0  0  0  0  0
  185.5240  179.2140  146.1870 C   0  0  0  0  0  2  0  0  0  0  0  0
  190.3180  177.4030  145.0300 C   0  0  0  0  0  0  0  0  0  0  0  0
  189.2200  177.1090  145.7320 C   0  0  0  0  0  3  0  0  0  0  0  0
  190.4650  178.7260  144.3450 C   0  0  0  0  0  1  0  0  0  0  0  0
  191.4060  176.4150  144.9370 C   0  0  0  0  0  0  0  0  0  0  0  0
  191.9940  176.0180  145.9760 O   0  0  0  0  0  1  0  0  0  0  0  0
  191.7970  175.9110  143.7000 O   0  0  0  0  0  0  0  0  0  0  0  0
  187.3340  178.4450  136.6410 N   0  0  0  0  0  2  0  0  0  0  0  0
  188.7870  178.4720  136.6070 C   0  0  0  0  0  2  0  0  0  0  0  0
  189.3110  177.0830  136.3090 C   0  0  0  0  0  1  0  0  0  0  0  0
  1 11  1  0  0  0  0
  1  5  2  0  0  0  0
  2 18  1  0  0  0  0
  3 10  1  0  0  0  0
  5  9  1  0  0  0  0
  6  8  1  0  0  0  0
  6  4  1  0  0  0  0
  7  8  1  0  0  0  0
  9  4  1  0  0  0  0
 10 12  1  0  0  0  0
 10 11  1  0  0  0  0
 11  6  2  0  0  0  0
 12  7  1  0  0  0  0
 13 14  1  0  0  0  0
 13  2  2  0  0  0  0
 14 15  2  0  0  0  0
 15 17  1  0  0  0  0
 16  2  1  0  0  0  0
 16  3  1  0  0  0  0
 17 18  2  0  0  0  0
 18  1  1  0  0  0  0
 20 24  1  0  0  0  0
 20 23  1  0  0  0  0
 22 19  1  0  0  0  0
 22 21  1  1  0  0  0
 23 27  1  1  0  0  0
 23 22  1  0  0  0  0
 24  9  1  6  0  0  0
 24 25  1  0  0  0  0
 25 19  1  0  0  0  0
 26 27  2  0  0  0  0
 28 26  1  0  0  0  0
 29 26  1  0  0  0  0
 29 30  1  0  0  0  0
 31 29  2  0  0  0  0
 32 14  1  0  0  0  0
 33 32  1  0  0  0  0
 34 33  1  0  0  0  0
M  END
>  <MODEL>
1

>  <REMARK>
 VINA RESULT:      -9.2      0.000      0.000
  Name = 
  5 active torsions:
  status: ('A' for Active; 'I' for Inactive)
    1  A    between atoms: N_3  and  C_13
    2  A    between atoms: N_3  and  C_25
    3  A    between atoms: C_7  and  C_11
    4  A    between atoms: N_18  and  C_30
    5  A    between atoms: C_26  and  C_28
                            x       y       z     vdW  Elec       q    Type
                         _______ _______ _______ _____ _____    ______ ____

>  <TORSDO>
F 5

$$$$
=
 OpenBabel10272415253D

 34 38  0  0  1  0  0  0  0  0999 V2000
  188.7910  177.9020  142.8900 C   0  0  0  0  0  0  0  0  0  0  0  0
  191.0780  177.5660  141.6740 C   0  0  0  0  0  0  0  0  0  0  0  0
  191.4620  178.6330  143.9580 C   0  0  0  0  0  2  0  0  0  0  0  0
  186.8140  177.4690  144.9180 C   0  0  0  0  0  2  0  0  0  0  0  0
  187.5080  178.2430  142.6760 C   0  0  0  0  0  3  0  0  0  0  0  0
  188.2740  177.4520  145.2590 C   0  0  0  0  0  0  0  0  0  0  0  0
  190.0060  176.4790  146.7370 C   0  0  0  0  0  2  0  0  0  0  0  0
  188.6670  177.2000  146.6830 C   0  0  0  0  0  2  0  0  0  0  0  0
  186.5660  178.3240  143.7560 N   0  0  0  0  0  0  0  0  0  0  0  0
  190.5900  177.7570  144.7050 N   0  0  0  0  0  0  0  0  0  0  0  0
  189.2110  177.6700  144.3100 C   0  0  0  0  0  0  0  0  0  0  0  0
  191.0520  177.3340  146.0310 C   0  0  0  0  0  2  0  0  0  0  0  0
  191.7470  177.1750  140.5070 C   0  0  0  0  0  3  0  0  0  0  0  0
  191.0490  176.8340  139.3450 C   0  0  0  0  0  0  0  0  0  0  0  0
  189.6600  176.8920  139.3440 C   0  0  0  0  0  3  0  0  0  0  0  0
  191.9130  177.9530  142.7670 N   0  0  0  0  0  2  0  0  0  0  0  0
  188.9770  177.2670  140.4990 C   0  0  0  0  0  3  0  0  0  0  0  0
  189.6510  177.6070  141.6920 C   0  0  0  0  0  0  0  0  0  0  0  0
  182.8150  178.8490  144.3310 C   0  0  0  0  0  2  0  0  0  0  0  0
  184.7620  178.4540  142.0620 C   0  0  0  0  0  2  0  0  0  0  0  0
  181.1130  179.1600  142.6850 O   0  0  0  0  0  1  0  0  0  0  0  0
  182.4930  179.2490  142.8830 C   0  0  2  0  0  3  0  0  0  0  0  0
  183.2380  178.3720  141.8690 C   0  0  1  0  0  3  0  0  0  0  0  0
  185.1980  178.7910  143.5000 C   0  0  1  0  0  3  0  0  0  0  0  0
  184.1960  178.2080  144.5000 C   0  0  0  0  0  2  0  0  0  0  0  0
  182.6170  177.9030  139.4900 C   0  0  0  0  0  0  0  0  0  0  0  0
  182.8900  178.7730  140.4670 C   0  0  0  0  0  3  0  0  0  0  0  0
  182.6250  176.4290  139.7450 C   0  0  0  0  0  1  0  0  0  0  0  0
  182.2920  178.4030  138.1440 C   0  0  0  0  0  0  0  0  0  0  0  0
  182.5210  177.6930  137.1290 O   0  0  0  0  0  0  0  0  0  0  0  0
  181.7290  179.6640  137.9760 O   0  0  0  0  0  1  0  0  0  0  0  0
  191.7350  176.4390  138.1550 N   0  0  0  0  0  2  0  0  0  0  0  0
  193.1820  176.4780  138.0270 C   0  0  0  0  0  2  0  0  0  0  0  0
  193.7050  175.0790  137.7760 C   0  0  0  0  0  1  0  0  0  0  0  0
  1 11  1  0  0  0  0
  2 18  1  0  0  0  0
  2 16  1  0  0  0  0
  3 10  1  0  0  0  0
  4  6  1  0  0  0  0
  5  1  2  0  0  0  0
  5  9  1  0  0  0  0
  6  8  1  0  0  0  0
  8  7  1  0  0  0  0
  9  4  1  0  0  0  0
 10 12  1  0  0  0  0
 11 10  1  0  0  0  0
 11  6  2  0  0  0  0
 12  7  1  0  0  0  0
 13  2  2  0  0  0  0
 14 13  1  0  0  0  0
 15 14  2  0  0  0  0
 15 17  1  0  0  0  0
 16  3  1  0  0  0  0
 17 18  2  0  0  0  0
 18  1  1  0  0  0  0
 19 25  1  0  0  0  0
 22 21  1  6  0  0  0
 22 19  1  0  0  0  0
 23 27  1  6  0  0  0
 23 20  1  0  0  0  0
 23 22  1  0  0  0  0
 24 20  1  6  0  0  0
 24  9  1  0  0  0  0
 24 25  1  0  0  0  0
 26 28  1  0  0  0  0
 26 27  2  0  0  0  0
 29 26  1  0  0  0  0
 30 29  2  0  0  0  0
 31 29  1  0  0  0  0
 32 14  1  0  0  0  0
 33 32  1  0  0  0  0
 34 33  1  0  0  0  0
M  END
>  <MODEL>
2

>  <REMARK>
 VINA RESULT:      -9.0      4.284      7.475
  Name = 
  5 active torsions:
  status: ('A' for Active; 'I' for Inactive)
    1  A    between atoms: N_3  and  C_13
    2  A    between atoms: N_3  and  C_25
    3  A    between atoms: C_7  and  C_11
    4  A    between atoms: N_18  and  C_30
    5  A    between atoms: C_26  and  C_28
                            x       y       z     vdW  Elec       q    Type
                         _______ _______ _______ _____ _____    ______ ____

>  <TORSDO>
F 5

$$$$
=
 OpenBabel10272415253D

 34 38  0  0  1  0  0  0  0  0999 V2000
  190.1040  176.7520  138.9830 C   0  0  0  0  0  0  0  0  0  0  0  0
  191.1590  175.8780  136.7590 C   0  0  0  0  0  0  0  0  0  0  0  0
  188.6930  175.2380  136.8560 C   0  0  0  0  0  2  0  0  0  0  0  0
  188.3680  178.3530  140.6070 C   0  0  0  0  0  2  0  0  0  0  0  0
  190.3610  176.9240  140.2910 C   0  0  0  0  0  3  0  0  0  0  0  0
  187.9120  177.8470  139.2720 C   0  0  0  0  0  0  0  0  0  0  0  0
  186.4950  178.3130  137.2960 C   0  0  0  0  0  2  0  0  0  0  0  0
  186.5300  178.2020  138.8120 C   0  0  0  0  0  2  0  0  0  0  0  0
  189.3690  177.4530  141.1850 N   0  0  0  0  0  0  0  0  0  0  0  0
  188.1980  176.5240  137.2890 N   0  0  0  0  0  0  0  0  0  0  0  0
  188.7200  177.0790  138.5070 C   0  0  0  0  0  0  0  0  0  0  0  0
  186.9390  176.9840  136.6960 C   0  0  0  0  0  2  0  0  0  0  0  0
  192.3160  175.7190  135.9860 C   0  0  0  0  0  3  0  0  0  0  0  0
  193.5760  176.0680  136.4790 C   0  0  0  0  0  0  0  0  0  0  0  0
  193.6870  176.5780  137.7670 C   0  0  0  0  0  3  0  0  0  0  0  0
  189.9450  175.4180  136.1620 N   0  0  0  0  0  2  0  0  0  0  0  0
  192.5460  176.7560  138.5460 C   0  0  0  0  0  3  0  0  0  0  0  0
  191.2570  176.4240  138.0750 C   0  0  0  0  0  0  0  0  0  0  0  0
  190.9390  176.5720  144.5660 C   0  0  0  0  0  2  0  0  0  0  0  0
  188.3460  177.6160  143.4360 C   0  0  0  0  0  2  0  0  0  0  0  0
  190.0120  176.9090  146.7410 O   0  0  0  0  0  1  0  0  0  0  0  0
  189.9140  177.3370  145.4150 C   0  0  2  0  0  3  0  0  0  0  0  0
  188.4850  177.1470  144.8950 C   0  0  1  0  0  3  0  0  0  0  0  0
  189.6510  177.5390  142.6230 C   0  0  1  0  0  3  0  0  0  0  0  0
  190.5040  176.3660  143.1120 C   0  0  0  0  0  2  0  0  0  0  0  0
  186.2650  178.2050  145.3660 C   0  0  0  0  0  0  0  0  0  0  0  0
  187.5050  177.8900  145.7530 C   0  0  0  0  0  3  0  0  0  0  0  0
  185.7540  177.8090  144.0170 C   0  0  0  0  0  1  0  0  0  0  0  0
  185.3840  178.9420  146.2860 C   0  0  0  0  0  0  0  0  0  0  0  0
  185.8630  179.5330  147.2900 O   0  0  0  0  0  1  0  0  0  0  0  0
  184.0120  178.9940  146.0590 O   0  0  0  0  0  0  0  0  0  0  0  0
  194.7550  175.9000  135.6880 N   0  0  0  0  0  2  0  0  0  0  0  0
  195.0430  176.7100  134.5160 C   0  0  0  0  0  2  0  0  0  0  0  0
  195.8000  177.9530  134.9360 C   0  0  0  0  0  1  0  0  0  0  0  0
  1  5  2  0  0  0  0
  2 18  1  0  0  0  0
  3 10  1  0  0  0  0
  4  9  1  0  0  0  0
  5  9  1  0  0  0  0
  6  4  1  0  0  0  0
  7  8  1  0  0  0  0
  8  6  1  0  0  0  0
 10 11  1  0  0  0  0
 11  1  1  0  0  0  0
 11  6  2  0  0  0  0
 12 10  1  0  0  0  0
 12  7  1  0  0  0  0
 13 14  1  0  0  0  0
 13  2  2  0  0  0  0
 14 15  2  0  0  0  0
 15 17  1  0  0  0  0
 16  2  1  0  0  0  0
 16  3  1  0  0  0  0
 18 17  2  0  0  0  0
 18  1  1  0  0  0  0
 19 22  1  0  0  0  0
 20 23  1  0  0  0  0
 22 21  1  1  0  0  0
 23 22  1  0  0  0  0
 23 27  1  1  0  0  0
 24  9  1  6  0  0  0
 24 25  1  0  0  0  0
 24 20  1  0  0  0  0
 25 19  1  0  0  0  0
 26 27  2  0  0  0  0
 26 29  1  0  0  0  0
 28 26  1  0  0  0  0
 29 30  1  0  0  0  0
 31 29  2  0  0  0  0
 32 14  1  0  0  0  0
 33 34  1  0  0  0  0
 33 32  1  0  0  0  0
M  END
>  <MODEL>
3

>  <REMARK>
 VINA RESULT:      -8.9      3.282      6.331
  Name = 
  5 active torsions:
  status: ('A' for Active; 'I' for Inactive)
    1  A    between atoms: N_3  and  C_13
    2  A    between atoms: N_3  and  C_25
    3  A    between atoms: C_7  and  C_11
    4  A    between atoms: N_18  and  C_30
    5  A    between atoms: C_26  and  C_28
                            x       y       z     vdW  Elec       q    Type
                         _______ _______ _______ _____ _____    ______ ____

>  <TORSDO>
F 5

$$$$
=
 OpenBabel10272415253D

 34 38  0  0  1  0  0  0  0  0999 V2000
  185.3880  178.4970  142.4290 C   0  0  0  0  0  0  0  0  0  0  0  0
  185.3610  178.4990  145.0410 C   0  0  0  0  0  0  0  0  0  0  0  0
  183.5060  180.0090  144.1560 C   0  0  0  0  0  2  0  0  0  0  0  0
  184.3770  177.9740  139.7990 C   0  0  0  0  0  2  0  0  0  0  0  0
  186.2160  178.4850  141.3700 C   0  0  0  0  0  3  0  0  0  0  0  0
  183.4480  178.3600  140.9110 C   0  0  0  0  0  0  0  0  0  0  0  0
  181.1690  178.0950  141.8410 C   0  0  0  0  0  2  0  0  0  0  0  0
  181.9840  178.4610  140.6100 C   0  0  0  0  0  2  0  0  0  0  0  0
  185.7120  178.5310  140.0270 N   0  0  0  0  0  0  0  0  0  0  0  0
  183.0070  179.0980  143.1520 N   0  0  0  0  0  0  0  0  0  0  0  0
  183.9200  178.6220  142.1500 C   0  0  0  0  0  0  0  0  0  0  0  0
  181.5520  179.0340  142.9790 C   0  0  0  0  0  2  0  0  0  0  0  0
  185.9750  178.0770  146.2270 C   0  0  0  0  0  3  0  0  0  0  0  0
  187.1880  177.3850  146.2130 C   0  0  0  0  0  0  0  0  0  0  0  0
  187.8040  177.1140  144.9970 C   0  0  0  0  0  3  0  0  0  0  0  0
  184.1590  179.2560  145.2000 N   0  0  0  0  0  2  0  0  0  0  0  0
  187.2020  177.5150  143.8060 C   0  0  0  0  0  3  0  0  0  0  0  0
  185.9720  178.2060  143.7840 C   0  0  0  0  0  0  0  0  0  0  0  0
  186.9910  178.2020  136.4300 C   0  0  0  0  0  2  0  0  0  0  0  0
  188.0050  177.9840  139.2610 C   0  0  0  0  0  2  0  0  0  0  0  0
  189.2400  177.8610  135.7040 O   0  0  0  0  0  1  0  0  0  0  0  0
  188.4810  178.3080  136.7870 C   0  0  2  0  0  3  0  0  0  0  0  0
  188.8250  177.5090  138.0490 C   0  0  1  0  0  3  0  0  0  0  0  0
  186.6470  178.6110  138.8970 C   0  0  1  0  0  3  0  0  0  0  0  0
  186.0840  177.9450  137.6380 C   0  0  0  0  0  2  0  0  0  0  0  0
  191.1510  176.6040  138.2420 C   0  0  0  0  0  0  0  0  0  0  0  0
  190.2870  177.6160  138.3620 C   0  0  0  0  0  3  0  0  0  0  0  0
  190.7040  175.2610  137.7560 C   0  0  0  0  0  1  0  0  0  0  0  0
  192.5680  176.8150  138.5810 C   0  0  0  0  0  0  0  0  0  0  0  0
  193.4640  176.6240  137.7170 O   0  0  0  0  0  0  0  0  0  0  0  0
  192.9330  177.2250  139.8600 O   0  0  0  0  0  1  0  0  0  0  0  0
  187.8140  176.9590  147.4260 N   0  0  0  0  0  2  0  0  0  0  0  0
  187.9670  177.8260  148.5830 C   0  0  0  0  0  2  0  0  0  0  0  0
  189.3520  178.4370  148.5760 C   0  0  0  0  0  1  0  0  0  0  0  0
  1 18  1  0  0  0  0
  2 16  1  0  0  0  0
  2 13  1  0  0  0  0
  3 16  1  0  0  0  0
  4  9  1  0  0  0  0
  4  6  1  0  0  0  0
  5  1  2  0  0  0  0
  6 11  2  0  0  0  0
  7 12  1  0  0  0  0
  8  6  1  0  0  0  0
  8  7  1  0  0  0  0
  9  5  1  0  0  0  0
 10  3  1  0  0  0  0
 11  1  1  0  0  0  0
 11 10  1  0  0  0  0
 12 10  1  0  0  0  0
 14 13  2  0  0  0  0
 14 32  1  0  0  0  0
 15 14  1  0  0  0  0
 17 15  2  0  0  0  0
 18 17  1  0  0  0  0
 18  2  2  0  0  0  0
 19 22  1  0  0  0  0
 19 25  1  0  0  0  0
 22 21  1  6  0  0  0
 22 23  1  0  0  0  0
 23 27  1  1  0  0  0
 23 20  1  0  0  0  0
 24 25  1  6  0  0  0
 24 20  1  0  0  0  0
 24  9  1  0  0  0  0
 26 27  2  0  0  0  0
 26 29  1  0  0  0  0
 28 26  1  0  0  0  0
 29 31  1  0  0  0  0
 30 29  2  0  0  0  0
 32 33  1  0  0  0  0
 34 33  1  0  0  0  0
M  END
>  <MODEL>
4

>  <REMARK>
 VINA RESULT:      -8.8      2.659      7.065
  Name = 
  5 active torsions:
  status: ('A' for Active; 'I' for Inactive)
    1  A    between atoms: N_3  and  C_13
    2  A    between atoms: N_3  and  C_25
    3  A    between atoms: C_7  and  C_11
    4  A    between atoms: N_18  and  C_30
    5  A    between atoms: C_26  and  C_28
                            x       y       z     vdW  Elec       q    Type
                         _______ _______ _______ _____ _____    ______ ____

>  <TORSDO>
F 5

$$$$
=
 OpenBabel10272415253D

 34 38  0  0  1  0  0  0  0  0999 V2000
  188.2750  177.9960  139.9920 C   0  0  0  0  0  0  0  0  0  0  0  0
  186.5120  178.6580  138.1810 C   0  0  0  0  0  0  0  0  0  0  0  0
  188.8660  179.0290  137.2730 C   0  0  0  0  0  2  0  0  0  0  0  0
  190.4070  176.4590  141.1340 C   0  0  0  0  0  2  0  0  0  0  0  0
  188.5150  178.0400  141.3140 C   0  0  0  0  0  3  0  0  0  0  0  0
  190.3580  176.7180  139.6570 C   0  0  0  0  0  0  0  0  0  0  0  0
  190.9100  175.8230  137.4160 C   0  0  0  0  0  2  0  0  0  0  0  0
  191.4490  176.1510  138.8010 C   0  0  0  0  0  2  0  0  0  0  0  0
  189.7400  177.5360  141.8680 N   0  0  0  0  0  0  0  0  0  0  0  0
  189.4210  177.7700  137.7140 N   0  0  0  0  0  0  0  0  0  0  0  0
  189.3630  177.4540  139.1150 C   0  0  0  0  0  0  0  0  0  0  0  0
  190.3430  177.0940  136.7970 C   0  0  0  0  0  2  0  0  0  0  0  0
  185.1600  178.8340  137.8610 C   0  0  0  0  0  3  0  0  0  0  0  0
  184.1580  178.6990  138.8260 C   0  0  0  0  0  0  0  0  0  0  0  0
  184.5100  178.3910  140.1350 C   0  0  0  0  0  3  0  0  0  0  0  0
  187.4370  178.8920  137.1180 N   0  0  0  0  0  2  0  0  0  0  0  0
  185.8490  178.2010  140.4700 C   0  0  0  0  0  3  0  0  0  0  0  0
  186.8840  178.3180  139.5170 C   0  0  0  0  0  0  0  0  0  0  0  0
  191.3870  176.9030  145.2680 C   0  0  0  0  0  2  0  0  0  0  0  0
  188.7030  177.6500  144.1160 C   0  0  0  0  0  2  0  0  0  0  0  0
  190.4280  177.1980  147.4350 O   0  0  0  0  0  1  0  0  0  0  0  0
  190.2890  177.5810  146.1000 C   0  0  2  0  0  3  0  0  0  0  0  0
  188.8870  177.2340  145.5860 C   0  0  1  0  0  3  0  0  0  0  0  0
  190.0100  177.6860  143.3030 C   0  0  1  0  0  3  0  0  0  0  0  0
  190.9770  176.6180  143.8200 C   0  0  0  0  0  2  0  0  0  0  0  0
  186.5850  178.1190  146.0140 C   0  0  0  0  0  0  0  0  0  0  0  0
  187.8350  177.8950  146.4260 C   0  0  0  0  0  3  0  0  0  0  0  0
  186.1330  177.6980  144.6510 C   0  0  0  0  0  1  0  0  0  0  0  0
  185.6300  178.7810  146.9190 C   0  0  0  0  0  0  0  0  0  0  0  0
  184.4510  178.3540  147.0230 O   0  0  0  0  0  0  0  0  0  0  0  0
  186.0200  179.8880  147.6680 O   0  0  0  0  0  1  0  0  0  0  0  0
  182.7800  178.8830  138.4950 N   0  0  0  0  0  2  0  0  0  0  0  0
  181.9150  179.8130  139.2020 C   0  0  0  0  0  2  0  0  0  0  0  0
  181.8130  181.1040  138.4150 C   0  0  0  0  0  1  0  0  0  0  0  0
  1  5  2  0  0  0  0
  2 18  1  0  0  0  0
  3 10  1  0  0  0  0
  4  9  1  0  0  0  0
  5  9  1  0  0  0  0
  6  4  1  0  0  0  0
  7  8  1  0  0  0  0
  8  6  1  0  0  0  0
 10 11  1  0  0  0  0
 11  6  2  0  0  0  0
 11  1  1  0  0  0  0
 12  7  1  0  0  0  0
 12 10  1  0  0  0  0
 13  2  2  0  0  0  0
 13 14  1  0  0  0  0
 14 15  2  0  0  0  0
 15 17  1  0  0  0  0
 16  3  1  0  0  0  0
 16  2  1  0  0  0  0
 18  1  1  0  0  0  0
 18 17  2  0  0  0  0
 19 22  1  0  0  0  0
 20 23  1  0  0  0  0
 22 21  1  1  0  0  0
 23 22  1  0  0  0  0
 23 27  1  1  0  0  0
 24  9  1  6  0  0  0
 24 25  1  0  0  0  0
 24 20  1  0  0  0  0
 25 19  1  0  0  0  0
 26 27  2  0  0  0  0
 26 29  1  0  0  0  0
 28 26  1  0  0  0  0
 29 30  2  0  0  0  0
 29 31  1  0  0  0  0
 32 14  1  0  0  0  0
 32 33  1  0  0  0  0
 34 33  1  0  0  0  0
M  END
>  <MODEL>
5

>  <REMARK>
 VINA RESULT:      -8.3      2.211      6.181
  Name = 
  5 active torsions:
  status: ('A' for Active; 'I' for Inactive)
    1  A    between atoms: N_3  and  C_13
    2  A    between atoms: N_3  and  C_25
    3  A    between atoms: C_7  and  C_11
    4  A    between atoms: N_18  and  C_30
    5  A    between atoms: C_26  and  C_28
                            x       y       z     vdW  Elec       q    Type
                         _______ _______ _______ _____ _____    ______ ____

>  <TORSDO>
F 5

$$$$
=
 OpenBabel10272415253D

 34 38  0  0  1  0  0  0  0  0999 V2000
  189.0280  177.7350  142.2650 C   0  0  0  0  0  0  0  0  0  0  0  0
  191.2110  177.3370  140.8870 C   0  0  0  0  0  0  0  0  0  0  0  0
  191.7850  178.4150  143.1260 C   0  0  0  0  0  2  0  0  0  0  0  0
  187.1970  177.3630  144.4370 C   0  0  0  0  0  2  0  0  0  0  0  0
  187.7400  178.1020  142.1420 C   0  0  0  0  0  3  0  0  0  0  0  0
  188.6770  177.3160  144.6700 C   0  0  0  0  0  0  0  0  0  0  0  0
  190.4920  176.3190  146.0270 C   0  0  0  0  0  2  0  0  0  0  0  0
  189.1690  177.0690  146.0640 C   0  0  0  0  0  2  0  0  0  0  0  0
  186.8830  178.2130  143.2870 N   0  0  0  0  0  0  0  0  0  0  0  0
  190.9520  177.5660  143.9440 N   0  0  0  0  0  0  0  0  0  0  0  0
  189.5460  177.5050  143.6520 C   0  0  0  0  0  0  0  0  0  0  0  0
  191.5010  177.1440  145.2360 C   0  0  0  0  0  2  0  0  0  0  0  0
  191.7830  176.9210  139.6780 C   0  0  0  0  0  3  0  0  0  0  0  0
  190.9940  176.5860  138.5750 C   0  0  0  0  0  0  0  0  0  0  0  0
  189.6110  176.6750  138.6750 C   0  0  0  0  0  3  0  0  0  0  0  0
  192.1320  177.7150  141.9120 N   0  0  0  0  0  2  0  0  0  0  0  0
  189.0230  177.0750  139.8730 C   0  0  0  0  0  3  0  0  0  0  0  0
  189.7910  177.4090  141.0100 C   0  0  0  0  0  0  0  0  0  0  0  0
  183.1920  178.8110  144.1230 C   0  0  0  0  0  2  0  0  0  0  0  0
  184.9670  178.3840  141.7240 C   0  0  0  0  0  2  0  0  0  0  0  0
  181.3860  179.1610  142.6000 O   0  0  0  0  0  1  0  0  0  0  0  0
  182.7770  179.2210  142.7020 C   0  0  2  0  0  3  0  0  0  0  0  0
  183.4320  178.3330  141.6380 C   0  0  1  0  0  3  0  0  0  0  0  0
  185.5100  178.7080  143.1280 C   0  0  1  0  0  3  0  0  0  0  0  0
  184.5680  178.1420  144.1950 C   0  0  0  0  0  2  0  0  0  0  0  0
  182.6190  177.8840  139.3130 C   0  0  0  0  0  0  0  0  0  0  0  0
  182.9960  178.7440  140.2630 C   0  0  0  0  0  3  0  0  0  0  0  0
  182.5920  176.4110  139.5720 C   0  0  0  0  0  1  0  0  0  0  0  0
  182.2130  178.3940  137.9920 C   0  0  0  0  0  0  0  0  0  0  0  0
  181.7290  179.5510  137.8790 O   0  0  0  0  0  1  0  0  0  0  0  0
  182.3570  177.6030  136.8560 O   0  0  0  0  0  0  0  0  0  0  0  0
  191.5820  176.1650  137.3420 N   0  0  0  0  0  2  0  0  0  0  0  0
  190.8660  176.1840  136.0780 C   0  0  0  0  0  2  0  0  0  0  0  0
  191.7720  175.6770  134.9760 C   0  0  0  0  0  1  0  0  0  0  0  0
  1 11  1  0  0  0  0
  2 18  1  0  0  0  0
  2 16  1  0  0  0  0
  3 10  1  0  0  0  0
  4  6  1  0  0  0  0
  5  1  2  0  0  0  0
  5  9  1  0  0  0  0
  6  8  1  0  0  0  0
  7  8  1  0  0  0  0
  9  4  1  0  0  0  0
 10 12  1  0  0  0  0
 11 10  1  0  0  0  0
 11  6  2  0  0  0  0
 12  7  1  0  0  0  0
 13  2  2  0  0  0  0
 14 15  2  0  0  0  0
 14 13  1  0  0  0  0
 15 17  1  0  0  0  0
 16  3  1  0  0  0  0
 17 18  2  0  0  0  0
 18  1  1  0  0  0  0
 19 25  1  0  0  0  0
 22 21  1  1  0  0  0
 22 19  1  0  0  0  0
 23 27  1  6  0  0  0
 23 20  1  0  0  0  0
 23 22  1  0  0  0  0
 24 20  1  6  0  0  0
 24  9  1  0  0  0  0
 24 25  1  0  0  0  0
 26 28  1  0  0  0  0
 26 27  2  0  0  0  0
 29 26  1  0  0  0  0
 30 29  1  0  0  0  0
 31 29  2  0  0  0  0
 32 14  1  0  0  0  0
 33 32  1  0  0  0  0
 34 33  1  0  0  0  0
M  END
>  <MODEL>
6

>  <REMARK>
 VINA RESULT:      -8.1      4.211      7.461
  Name = 
  5 active torsions:
  status: ('A' for Active; 'I' for Inactive)
    1  A    between atoms: N_3  and  C_13
    2  A    between atoms: N_3  and  C_25
    3  A    between atoms: C_7  and  C_11
    4  A    between atoms: N_18  and  C_30
    5  A    between atoms: C_26  and  C_28
                            x       y       z     vdW  Elec       q    Type
                         _______ _______ _______ _____ _____    ______ ____

>  <TORSDO>
F 5

$$$$
=
 OpenBabel10272415253D

 34 38  0  0  1  0  0  0  0  0999 V2000
  187.2680  177.7920  144.4450 C   0  0  0  0  0  0  0  0  0  0  0  0
  184.8750  178.2380  145.3900 C   0  0  0  0  0  0  0  0  0  0  0  0
  186.1990  176.8050  147.0310 C   0  0  0  0  0  2  0  0  0  0  0  0
  190.1280  177.9630  144.3650 C   0  0  0  0  0  2  0  0  0  0  0  0
  187.9360  177.5360  143.3060 C   0  0  0  0  0  3  0  0  0  0  0  0
  189.4040  177.8730  145.6760 C   0  0  0  0  0  0  0  0  0  0  0  0
  189.4290  178.5320  148.0620 C   0  0  0  0  0  2  0  0  0  0  0  0
  190.2150  177.8770  146.9360 C   0  0  0  0  0  2  0  0  0  0  0  0
  189.3540  177.3150  143.3040 N   0  0  0  0  0  0  0  0  0  0  0  0
  187.4180  177.5790  146.9910 N   0  0  0  0  0  0  0  0  0  0  0  0
  188.0570  177.7780  145.7200 C   0  0  0  0  0  0  0  0  0  0  0  0
  188.1260  177.7660  148.2610 C   0  0  0  0  0  2  0  0  0  0  0  0
  183.6050  178.7890  145.1730 C   0  0  0  0  0  3  0  0  0  0  0  0
  183.2490  179.3370  143.9390 C   0  0  0  0  0  0  0  0  0  0  0  0
  184.1710  179.3290  142.8990 C   0  0  0  0  0  3  0  0  0  0  0  0
  185.0850  177.6510  146.6750 N   0  0  0  0  0  2  0  0  0  0  0  0
  185.4430  178.7980  143.0990 C   0  0  0  0  0  3  0  0  0  0  0  0
  185.8390  178.2470  144.3370 C   0  0  0  0  0  0  0  0  0  0  0  0
  192.1430  177.1480  140.6830 C   0  0  0  0  0  2  0  0  0  0  0  0
  189.1320  177.2060  140.8380 C   0  0  0  0  0  2  0  0  0  0  0  0
  191.9170  176.8530  138.3240 O   0  0  0  0  0  1  0  0  0  0  0  0
  191.2450  176.6670  139.5340 C   0  0  2  0  0  3  0  0  0  0  0  0
  189.8970  177.3980  139.5180 C   0  0  1  0  0  3  0  0  0  0  0  0
  190.0350  176.9450  142.0580 C   0  0  1  0  0  3  0  0  0  0  0  0
  191.3660  177.6830  141.8900 C   0  0  0  0  0  2  0  0  0  0  0  0
  188.6200  177.7110  137.3880 C   0  0  0  0  0  0  0  0  0  0  0  0
  189.0500  176.9220  138.3760 C   0  0  0  0  0  3  0  0  0  0  0  0
  188.9820  179.1630  137.3460 C   0  0  0  0  0  1  0  0  0  0  0  0
  187.7860  177.1430  136.3150 C   0  0  0  0  0  0  0  0  0  0  0  0
  187.1790  177.9000  135.5130 O   0  0  0  0  0  0  0  0  0  0  0  0
  187.6590  175.7640  136.1770 O   0  0  0  0  0  1  0  0  0  0  0  0
  181.9510  179.8950  143.7200 N   0  0  0  0  0  2  0  0  0  0  0  0
  180.8800  179.1680  143.0590 C   0  0  0  0  0  2  0  0  0  0  0  0
  180.0560  178.4300  144.0940 C   0  0  0  0  0  1  0  0  0  0  0  0
  1 11  1  0  0  0  0
  2 16  1  0  0  0  0
  4  6  1  0  0  0  0
  5  1  2  0  0  0  0
  6 11  2  0  0  0  0
  6  8  1  0  0  0  0
  7 12  1  0  0  0  0
  8  7  1  0  0  0  0
  9  5  1  0  0  0  0
  9  4  1  0  0  0  0
 10  3  1  0  0  0  0
 10 12  1  0  0  0  0
 11 10  1  0  0  0  0
 13  2  1  0  0  0  0
 14 13  2  0  0  0  0
 15 17  2  0  0  0  0
 15 14  1  0  0  0  0
 16  3  1  0  0  0  0
 17 18  1  0  0  0  0
 18  1  1  0  0  0  0
 18  2  2  0  0  0  0
 19 25  1  0  0  0  0
 22 21  1  6  0  0  0
 22 19  1  0  0  0  0
 23 27  1  6  0  0  0
 23 22  1  0  0  0  0
 23 20  1  0  0  0  0
 24 20  1  6  0  0  0
 24  9  1  0  0  0  0
 25 24  1  0  0  0  0
 26 27  2  0  0  0  0
 28 26  1  0  0  0  0
 29 26  1  0  0  0  0
 30 29  2  0  0  0  0
 31 29  1  0  0  0  0
 32 14  1  0  0  0  0
 33 32  1  0  0  0  0
 33 34  1  0  0  0  0
M  END
>  <MODEL>
7

>  <REMARK>
 VINA RESULT:      -7.9      3.449      7.915
  Name = 
  5 active torsions:
  status: ('A' for Active; 'I' for Inactive)
    1  A    between atoms: N_3  and  C_13
    2  A    between atoms: N_3  and  C_25
    3  A    between atoms: C_7  and  C_11
    4  A    between atoms: N_18  and  C_30
    5  A    between atoms: C_26  and  C_28
                            x       y       z     vdW  Elec       q    Type
                         _______ _______ _______ _____ _____    ______ ____

>  <TORSDO>
F 5

$$$$
=
 OpenBabel10272415253D

 34 38  0  0  1  0  0  0  0  0999 V2000
  188.1550  177.7150  142.0300 C   0  0  0  0  0  0  0  0  0  0  0  0
  186.3620  177.9810  143.9110 C   0  0  0  0  0  0  0  0  0  0  0  0
  188.2890  176.5380  144.7520 C   0  0  0  0  0  2  0  0  0  0  0  0
  190.7150  178.0430  140.7860 C   0  0  0  0  0  2  0  0  0  0  0  0
  188.2940  177.5540  140.7030 C   0  0  0  0  0  3  0  0  0  0  0  0
  190.6070  177.8470  142.2690 C   0  0  0  0  0  0  0  0  0  0  0  0
  191.6060  178.3820  144.4700 C   0  0  0  0  0  2  0  0  0  0  0  0
  191.8690  177.8290  143.0770 C   0  0  0  0  0  2  0  0  0  0  0  0
  189.5880  177.4110  140.0990 N   0  0  0  0  0  0  0  0  0  0  0  0
  189.3580  177.3780  144.2650 N   0  0  0  0  0  0  0  0  0  0  0  0
  189.4030  177.6770  142.8600 C   0  0  0  0  0  0  0  0  0  0  0  0
  190.5260  177.5370  145.1360 C   0  0  0  0  0  2  0  0  0  0  0  0
  185.1030  178.4730  144.2780 C   0  0  0  0  0  3  0  0  0  0  0  0
  184.2490  179.0640  143.3430 C   0  0  0  0  0  0  0  0  0  0  0  0
  184.6540  179.1600  142.0170 C   0  0  0  0  0  3  0  0  0  0  0  0
  187.1050  177.3410  144.9490 N   0  0  0  0  0  2  0  0  0  0  0  0
  185.9080  178.6880  141.6350 C   0  0  0  0  0  3  0  0  0  0  0  0
  186.7990  178.0960  142.5570 C   0  0  0  0  0  0  0  0  0  0  0  0
  188.6960  175.9620  136.6660 C   0  0  0  0  0  2  0  0  0  0  0  0
  191.1260  176.7040  138.2890 C   0  0  0  0  0  2  0  0  0  0  0  0
  190.1770  175.4610  134.8610 O   0  0  0  0  0  1  0  0  0  0  0  0
  190.0700  176.2170  136.0300 C   0  0  2  0  0  3  0  0  0  0  0  0
  191.2160  175.8810  136.9920 C   0  0  1  0  0  3  0  0  0  0  0  0
  189.6980  177.1430  138.6600 C   0  0  1  0  0  3  0  0  0  0  0  0
  188.6890  176.0900  138.1920 C   0  0  0  0  0  2  0  0  0  0  0  0
  193.6070  175.3290  136.4990 C   0  0  0  0  0  0  0  0  0  0  0  0
  192.5440  176.1210  136.3390 C   0  0  0  0  0  3  0  0  0  0  0  0
  193.5340  174.1020  137.3530 C   0  0  0  0  0  1  0  0  0  0  0  0
  194.8690  175.6590  135.8150 C   0  0  0  0  0  0  0  0  0  0  0  0
  195.5090  174.7690  135.1970 O   0  0  0  0  0  0  0  0  0  0  0  0
  195.3680  176.9580  135.8460 O   0  0  0  0  0  1  0  0  0  0  0  0
  182.9640  179.5620  143.7220 N   0  0  0  0  0  2  0  0  0  0  0  0
  181.7350  179.1630  143.0550 C   0  0  0  0  0  2  0  0  0  0  0  0
  180.7690  178.5950  144.0740 C   0  0  0  0  0  1  0  0  0  0  0  0
  1 18  1  0  0  0  0
  1 11  1  0  0  0  0
  2 13  1  0  0  0  0
  2 16  1  0  0  0  0
  3 16  1  0  0  0  0
  4  6  1  0  0  0  0
  5  1  2  0  0  0  0
  6 11  2  0  0  0  0
  6  8  1  0  0  0  0
  7 12  1  0  0  0  0
  8  7  1  0  0  0  0
  9  5  1  0  0  0  0
  9  4  1  0  0  0  0
 10  3  1  0  0  0  0
 10 12  1  0  0  0  0
 11 10  1  0  0  0  0
 14 32  1  0  0  0  0
 14 13  2  0  0  0  0
 15 14  1  0  0  0  0
 17 15  2  0  0  0  0
 17 18  1  0  0  0  0
 18  2  2  0  0  0  0
 19 25  1  0  0  0  0
 20 24  1  0  0  0  0
 22 21  1  6  0  0  0
 22 19  1  0  0  0  0
 22 23  1  0  0  0  0
 23 27  1  6  0  0  0
 23 20  1  0  0  0  0
 24 25  1  1  0  0  0
 24  9  1  0  0  0  0
 26 28  1  0  0  0  0
 27 26  2  0  0  0  0
 29 31  1  0  0  0  0
 29 26  1  0  0  0  0
 30 29  2  0  0  0  0
 33 32  1  0  0  0  0
 33 34  1  0  0  0  0
M  END
>  <MODEL>
8

>  <REMARK>
 VINA RESULT:      -7.5      4.070      8.639
  Name = 
  5 active torsions:
  status: ('A' for Active; 'I' for Inactive)
    1  A    between atoms: N_3  and  C_13
    2  A    between atoms: N_3  and  C_25
    3  A    between atoms: C_7  and  C_11
    4  A    between atoms: N_18  and  C_30
    5  A    between atoms: C_26  and  C_28
                            x       y       z     vdW  Elec       q    Type
                         _______ _______ _______ _____ _____    ______ ____

>  <TORSDO>
F 5

$$$$
=
 OpenBabel10272415253D

 34 38  0  0  1  0  0  0  0  0999 V2000
  190.7410  176.8570  138.2190 C   0  0  0  0  0  0  0  0  0  0  0  0
  188.9460  178.1360  139.6210 C   0  0  0  0  0  0  0  0  0  0  0  0
  189.0490  179.0990  137.2620 C   0  0  0  0  0  2  0  0  0  0  0  0
  191.7060  175.1600  136.1220 C   0  0  0  0  0  2  0  0  0  0  0  0
  191.9580  176.2930  138.3040 C   0  0  0  0  0  3  0  0  0  0  0  0
  190.5450  176.0800  135.8860 C   0  0  0  0  0  0  0  0  0  0  0  0
  188.4240  176.4020  134.6510 C   0  0  0  0  0  2  0  0  0  0  0  0
  189.9070  176.0840  134.5310 C   0  0  0  0  0  2  0  0  0  0  0  0
  192.5880  175.6980  137.1590 N   0  0  0  0  0  0  0  0  0  0  0  0
  189.0560  177.8370  136.5600 N   0  0  0  0  0  0  0  0  0  0  0  0
  190.0950  176.8930  136.8670 C   0  0  0  0  0  0  0  0  0  0  0  0
  188.2670  177.7600  135.3270 C   0  0  0  0  0  2  0  0  0  0  0  0
  188.3360  178.3200  140.8680 C   0  0  0  0  0  3  0  0  0  0  0  0
  188.7930  177.6580  142.0100 C   0  0  0  0  0  0  0  0  0  0  0  0
  189.8830  176.8010  141.9080 C   0  0  0  0  0  3  0  0  0  0  0  0
  188.4230  178.9250  138.5510 N   0  0  0  0  0  2  0  0  0  0  0  0
  190.4950  176.5950  140.6740 C   0  0  0  0  0  3  0  0  0  0  0  0
  190.0510  177.2400  139.5000 C   0  0  0  0  0  0  0  0  0  0  0  0
  196.2650  175.1290  136.2470 C   0  0  0  0  0  2  0  0  0  0  0  0
  193.9480  173.6520  137.4880 C   0  0  0  0  0  2  0  0  0  0  0  0
  197.6150  173.2210  136.7370 O   0  0  0  0  0  1  0  0  0  0  0  0
  196.4520  173.8870  137.1300 C   0  0  2  0  0  3  0  0  0  0  0  0
  195.2440  172.9460  137.0550 C   0  0  1  0  0  3  0  0  0  0  0  0
  193.9560  175.1760  137.2650 C   0  0  1  0  0  3  0  0  0  0  0  0
  194.7990  175.5200  136.0350 C   0  0  0  0  0  2  0  0  0  0  0  0
  195.1040  170.4970  137.5580 C   0  0  0  0  0  0  0  0  0  0  0  0
  195.4620  171.7350  137.9120 C   0  0  0  0  0  3  0  0  0  0  0  0
  194.4570  170.2290  136.2350 C   0  0  0  0  0  1  0  0  0  0  0  0
  195.3590  169.3760  138.4780 C   0  0  0  0  0  0  0  0  0  0  0  0
  194.7530  169.3070  139.5790 O   0  0  0  0  0  1  0  0  0  0  0  0
  196.2740  168.3830  138.1420 O   0  0  0  0  0  0  0  0  0  0  0  0
  188.1700  177.8520  143.2810 N   0  0  0  0  0  2  0  0  0  0  0  0
  188.6630  177.2400  144.5040 C   0  0  0  0  0  2  0  0  0  0  0  0
  187.8570  177.7480  145.6820 C   0  0  0  0  0  1  0  0  0  0  0  0
  1  5  2  0  0  0  0
  1 18  1  0  0  0  0
  2 13  1  0  0  0  0
  3 16  1  0  0  0  0
  4  9  1  0  0  0  0
  6  4  1  0  0  0  0
  6 11  2  0  0  0  0
  7 12  1  0  0  0  0
  8  7  1  0  0  0  0
  8  6  1  0  0  0  0
  9 24  1  0  0  0  0
  9  5  1  0  0  0  0
 10 11  1  0  0  0  0
 10  3  1  0  0  0  0
 11  1  1  0  0  0  0
 12 10  1  0  0  0  0
 13 14  2  0  0  0  0
 14 32  1  0  0  0  0
 15 14  1  0  0  0  0
 16  2  1  0  0  0  0
 17 15  2  0  0  0  0
 18  2  2  0  0  0  0
 18 17  1  0  0  0  0
 19 22  1  0  0  0  0
 22 21  1  6  0  0  0
 23 22  1  0  0  0  0
 23 20  1  0  0  0  0
 23 27  1  1  0  0  0
 24 25  1  6  0  0  0
 24 20  1  0  0  0  0
 25 19  1  0  0  0  0
 26 27  2  0  0  0  0
 26 29  1  0  0  0  0
 28 26  1  0  0  0  0
 29 30  1  0  0  0  0
 31 29  2  0  0  0  0
 32 33  1  0  0  0  0
 33 34  1  0  0  0  0
M  END
>  <MODEL>
9

>  <REMARK>
 VINA RESULT:      -7.4      5.429     10.092
  Name = 
  5 active torsions:
  status: ('A' for Active; 'I' for Inactive)
    1  A    between atoms: N_3  and  C_13
    2  A    between atoms: N_3  and  C_25
    3  A    between atoms: C_7  and  C_11
    4  A    between atoms: N_18  and  C_30
    5  A    between atoms: C_26  and  C_28
                            x       y       z     vdW  Elec       q    Type
                         _______ _______ _______ _____ _____    ______ ____

>  <TORSDO>
F 5

$$$$
