=
 OpenBabel10272401383D

 55 60  0  0  1  0  0  0  0  0999 V2000
  187.4370  177.8600  135.7730 C   0  0  0  0  0  3  0  0  0  0  0  0
  188.2320  175.2010  136.1310 C   0  0  0  0  0  0  0  0  0  0  0  0
  186.8840  175.5520  136.2570 C   0  0  0  0  0  3  0  0  0  0  0  0
  188.7850  177.5110  135.6470 C   0  0  0  0  0  3  0  0  0  0  0  0
  186.4840  176.8790  136.0740 C   0  0  0  0  0  0  0  0  0  0  0  0
  189.1840  176.1830  135.8260 C   0  0  0  0  0  3  0  0  0  0  0  0
  188.6490  173.7840  136.3320 C   0  0  0  0  0  2  0  0  0  0  0  0
  188.5120  172.8360  134.7830 S   0  0  0  0  0  0  0  0  0  0  0  0
  190.2610  173.0840  134.3470 C   0  0  0  0  0  2  0  0  0  0  0  0
  191.1590  172.5950  135.4720 C   0  0  0  0  0  2  0  0  0  0  0  0
  192.3010  173.5700  135.6970 C   0  0  0  0  0  2  0  0  0  0  0  0
  193.4910  176.0660  136.3710 O   0  0  0  0  0  0  0  0  0  0  0  0
  192.7190  175.5400  137.2180 C   0  0  0  0  0  0  0  0  0  0  0  0
  192.1050  174.2790  136.9520 N   0  0  0  0  0  2  0  0  0  0  0  0
  191.5690  175.4620  139.2850 O   0  0  0  0  0  0  0  0  0  0  0  0
  192.4810  176.2180  138.5260 C   0  0  2  0  0  3  0  0  0  0  0  0
  191.0590  176.6080  138.6520 C   0  0  2  0  0  3  0  0  0  0  0  0
  190.9110  177.7090  139.6840 C   0  0  0  0  0  2  0  0  0  0  0  0
  189.1880  177.5910  141.7160 C   0  0  2  0  0  3  0  0  0  0  0  0
  189.0500  176.4180  140.7550 C   0  0  0  0  0  2  0  0  0  0  0  0
  189.4830  177.7670  140.2270 C   0  0  2  0  0  0  0  0  0  0  0  0
  188.8930  179.4870  138.6710 O   0  0  0  0  0  1  0  0  0  0  0  0
  188.3880  178.3950  139.3810 C   0  0  0  0  0  2  0  0  0  0  0  0
  190.4510  177.4330  142.5650 C   0  0  1  0  0  3  0  0  0  0  0  0
  190.4470  178.4020  143.7050 C   0  0  0  0  0  0  0  0  0  0  0  0
  191.4190  179.3910  143.7990 O   0  0  0  0  0  0  0  0  0  0  0  0
  189.5080  178.3680  144.5450 O   0  0  0  0  0  1  0  0  0  0  0  0
  190.5260  176.1290  143.0650 O   0  0  0  0  0  0  0  0  0  0  0  0
  191.6650  176.1170  143.8730 C   0  0  0  0  0  1  0  0  0  0  0  0
  185.0480  177.2450  136.2210 C   0  0  0  0  0  2  0  0  0  0  0  0
  183.1600  175.8340  135.7490 C   0  0  0  0  0  2  0  0  0  0  0  0
  180.9630  174.7900  135.8150 O   0  0  0  0  0  1  0  0  0  0  0  0
  181.6450  176.2030  137.6440 C   0  0  0  0  0  0  0  0  0  0  0  0
  184.2790  176.0980  136.6850 N   0  0  0  0  0  0  0  0  0  0  0  0
  180.5050  176.1600  138.1800 O   0  0  0  0  0  0  0  0  0  0  0  0
  181.9210  175.5140  136.4390 N   0  0  0  0  0  0  0  0  0  0  0  0
  182.7660  176.9500  138.2630 C   0  0  1  0  0  3  0  0  0  0  0  0
  183.9820  176.2480  138.0300 O   0  0  0  0  0  0  0  0  0  0  0  0
  181.5220  179.0140  137.9100 O   0  0  0  0  0  0  0  0  0  0  0  0
  180.4990  180.8540  139.0240 C   0  0  0  0  0  2  0  0  0  0  0  0
  183.7070  179.3560  138.7330 C   0  0  2  0  0  3  0  0  0  0  0  0
  182.8100  180.3250  139.2580 O   0  0  0  0  0  0  0  0  0  0  0  0
  181.5550  180.1070  138.7430 C   0  0  0  0  0  0  0  0  0  0  0  0
  182.8190  178.4310  137.8390 C   0  0  1  0  0  3  0  0  0  0  0  0
  184.4410  178.6640  139.8760 C   0  0  0  0  0  2  0  0  0  0  0  0
  183.6590  178.7800  141.0990 N   0  0  0  0  0  2  0  0  0  0  0  0
  183.4270  178.8780  143.5240 C   0  0  0  0  0  3  0  0  0  0  0  0
  185.3300  178.5080  144.9840 C   0  0  0  0  0  0  0  0  0  0  0  0
  185.5960  178.3880  142.5750 C   0  0  0  0  0  3  0  0  0  0  0  0
  186.1400  178.3040  143.8590 C   0  0  0  0  0  3  0  0  0  0  0  0
  183.9690  178.7940  144.8090 C   0  0  0  0  0  3  0  0  0  0  0  0
  184.2350  178.6760  142.4030 C   0  0  0  0  0  0  0  0  0  0  0  0
  185.8970  178.4230  146.3380 C   0  0  0  0  0  0  0  0  0  0  0  0
  186.6720  177.4780  146.6480 O   0  0  0  0  0  0  0  0  0  0  0  0
  185.5870  179.3870  147.2910 O   0  0  0  0  0  1  0  0  0  0  0  0
  1  5  1  0  0  0  0
  2  3  1  0  0  0  0
  2  7  1  0  0  0  0
  4  1  2  0  0  0  0
  4  6  1  0  0  0  0
  5 30  1  0  0  0  0
  5  3  2  0  0  0  0
  6  2  2  0  0  0  0
  8  7  1  0  0  0  0
  9  8  1  0  0  0  0
  9 10  1  0  0  0  0
 10 11  1  0  0  0  0
 11 14  1  0  0  0  0
 12 13  2  0  0  0  0
 14 13  1  0  0  0  0
 16 13  1  6  0  0  0
 16 17  1  0  0  0  0
 16 15  1  0  0  0  0
 17 15  1  0  0  0  0
 17 18  1  1  0  0  0
 18 21  1  0  0  0  0
 19 24  1  1  0  0  0
 20 19  1  0  0  0  0
 21 23  1  6  0  0  0
 21 20  1  0  0  0  0
 21 19  1  0  0  0  0
 22 23  1  0  0  0  0
 24 28  1  1  0  0  0
 24 25  1  0  0  0  0
 25 26  2  0  0  0  0
 25 27  1  0  0  0  0
 28 29  1  0  0  0  0
 30 34  1  0  0  0  0
 31 36  1  0  0  0  0
 31 34  1  0  0  0  0
 32 36  1  0  0  0  0
 33 35  2  0  0  0  0
 34 38  1  0  0  0  0
 36 33  1  0  0  0  0
 37 33  1  6  0  0  0
 38 37  1  0  0  0  0
 39 43  1  0  0  0  0
 41 42  1  0  0  0  0
 41 45  1  1  0  0  0
 43 40  2  0  0  0  0
 43 42  1  0  0  0  0
 44 39  1  1  0  0  0
 44 37  1  0  0  0  0
 44 41  1  0  0  0  0
 45 46  1  0  0  0  0
 46 52  1  0  0  0  0
 47 51  1  0  0  0  0
 48 53  1  0  0  0  0
 49 50  2  0  0  0  0
 50 48  1  0  0  0  0
 51 48  2  0  0  0  0
 52 49  1  0  0  0  0
 52 47  2  0  0  0  0
 53 54  2  0  0  0  0
 53 55  1  0  0  0  0
M  END
>  <MODEL>
1

>  <REMARK>
 VINA RESULT:      -6.4      0.000      0.000
  Name = 
  20 active torsions:
  status: ('A' for Active; 'I' for Inactive)
    1  A    between atoms: C_1  and  C_53
    2  A    between atoms: C_2  and  N_28
    3  A    between atoms: C_2  and  C_44
    4  A    between atoms: C_3  and  C_53
    5  A    between atoms: O_6  and  C_53
    6  A    between atoms: C_8  and  N_22
    7  A    between atoms: C_8  and  C_35
    8  A    between atoms: C_10  and  C_32
    9  A    between atoms: C_16  and  C_36
   10  A    between atoms: C_20  and  C_42
   11  A    between atoms: C_25  and  C_38
   12  A    between atoms: C_26  and  C_45
   13  A    between atoms: C_27  and  C_54
   14  A    between atoms: C_29  and  C_38
   15  A    between atoms: C_29  and  C_50
   16  A    between atoms: N_33  and  C_36
   17  A    between atoms: N_33  and  C_52
   18  A    between atoms: C_35  and  C_43
   19  A    between atoms: C_43  and  S_51
   20  A    between atoms: S_51  and  C_54
                            x       y       z     vdW  Elec       q    Type
                         _______ _______ _______ _____ _____    ______ ____

>  <TORSDO>
F 20

$$$$
=
 OpenBabel10272401383D

 55 60  0  0  1  0  0  0  0  0999 V2000
  190.9720  176.9830  142.2570 C   0  0  0  0  0  3  0  0  0  0  0  0
  188.3790  177.3710  143.2330 C   0  0  0  0  0  0  0  0  0  0  0  0
  188.6250  177.4290  141.8570 C   0  0  0  0  0  3  0  0  0  0  0  0
  190.7280  176.9250  143.6320 C   0  0  0  0  0  3  0  0  0  0  0  0
  189.9190  177.2310  141.3670 C   0  0  0  0  0  0  0  0  0  0  0  0
  189.4320  177.1200  144.1210 C   0  0  0  0  0  3  0  0  0  0  0  0
  186.9960  177.5880  143.7460 C   0  0  0  0  0  2  0  0  0  0  0  0
  186.9150  177.3140  145.5440 S   0  0  0  0  0  0  0  0  0  0  0  0
  185.9300  178.8160  145.8400 C   0  0  0  0  0  2  0  0  0  0  0  0
  184.4500  178.5200  145.6540 C   0  0  0  0  0  2  0  0  0  0  0  0
  183.8420  179.4820  144.6480 C   0  0  0  0  0  2  0  0  0  0  0  0
  181.5120  179.7850  143.0430 O   0  0  0  0  0  0  0  0  0  0  0  0
  182.4110  179.0050  142.6250 C   0  0  0  0  0  0  0  0  0  0  0  0
  183.5970  178.7920  143.3910 N   0  0  0  0  0  2  0  0  0  0  0  0
  183.3620  177.5000  141.0660 O   0  0  0  0  0  0  0  0  0  0  0  0
  182.2150  178.2660  141.3440 C   0  0  2  0  0  3  0  0  0  0  0  0
  183.2160  178.6960  140.3430 C   0  0  2  0  0  3  0  0  0  0  0  0
  182.7300  178.3640  138.9450 C   0  0  0  0  0  2  0  0  0  0  0  0
  183.6800  177.2300  136.7270 C   0  0  2  0  0  3  0  0  0  0  0  0
  184.1130  176.5040  137.9940 C   0  0  0  0  0  2  0  0  0  0  0  0
  183.8980  178.0010  138.0270 C   0  0  2  0  0  0  0  0  0  0  0  0
  186.2240  177.8450  138.5660 O   0  0  0  0  0  1  0  0  0  0  0  0
  185.2200  178.7340  138.1760 C   0  0  0  0  0  2  0  0  0  0  0  0
  182.2050  176.9480  136.4330 C   0  0  1  0  0  3  0  0  0  0  0  0
  181.8110  177.5160  135.1070 C   0  0  0  0  0  0  0  0  0  0  0  0
  180.4720  177.6060  134.7430 O   0  0  0  0  0  1  0  0  0  0  0  0
  182.6970  177.9900  134.3460 O   0  0  0  0  0  0  0  0  0  0  0  0
  181.9770  175.5680  136.4330 O   0  0  0  0  0  0  0  0  0  0  0  0
  180.7610  175.4030  137.1010 C   0  0  0  0  0  1  0  0  0  0  0  0
  190.1750  177.3040  139.9020 C   0  0  0  0  0  2  0  0  0  0  0  0
  192.2400  177.2920  138.6720 C   0  0  0  0  0  2  0  0  0  0  0  0
  193.9390  176.8600  136.9830 O   0  0  0  0  0  1  0  0  0  0  0  0
  191.9250  175.5370  136.9860 C   0  0  0  0  0  0  0  0  0  0  0  0
  191.3430  176.5070  139.5530 N   0  0  0  0  0  0  0  0  0  0  0  0
  192.2210  174.9760  135.8970 O   0  0  0  0  0  0  0  0  0  0  0  0
  192.7760  176.5010  137.5760 N   0  0  0  0  0  0  0  0  0  0  0  0
  190.6860  175.1940  137.7220 C   0  0  1  0  0  3  0  0  0  0  0  0
  190.9400  175.2530  139.1210 O   0  0  0  0  0  0  0  0  0  0  0  0
  189.8840  177.1540  136.5190 O   0  0  0  0  0  0  0  0  0  0  0  0
  189.4660  178.0350  134.3460 C   0  0  0  0  0  2  0  0  0  0  0  0
  188.4440  175.2900  136.3570 C   0  0  2  0  0  3  0  0  0  0  0  0
  188.4370  176.0430  135.1510 O   0  0  0  0  0  0  0  0  0  0  0  0
  189.2700  177.1270  135.2890 C   0  0  0  0  0  0  0  0  0  0  0  0
  189.4650  176.0280  137.2830 C   0  0  1  0  0  3  0  0  0  0  0  0
  188.7630  173.8320  136.0500 C   0  0  0  0  0  2  0  0  0  0  0  0
  188.0620  172.9700  136.9920 N   0  0  0  0  0  2  0  0  0  0  0  0
  185.6990  173.1190  137.5710 C   0  0  0  0  0  3  0  0  0  0  0  0
  184.0480  171.7150  136.4770 C   0  0  0  0  0  0  0  0  0  0  0  0
  186.3900  171.5510  135.8640 C   0  0  0  0  0  3  0  0  0  0  0  0
  185.0650  171.1400  135.7030 C   0  0  0  0  0  3  0  0  0  0  0  0
  184.3730  172.7090  137.4100 C   0  0  0  0  0  3  0  0  0  0  0  0
  186.7120  172.5440  136.8000 C   0  0  0  0  0  0  0  0  0  0  0  0
  182.6510  171.2850  136.3130 C   0  0  0  0  0  0  0  0  0  0  0  0
  182.3800  170.2030  135.7270 O   0  0  0  0  0  0  0  0  0  0  0  0
  181.6140  172.0690  136.8060 O   0  0  0  0  0  1  0  0  0  0  0  0
  1  4  1  0  0  0  0
  2  7  1  0  0  0  0
  2  6  1  0  0  0  0
  3  2  2  0  0  0  0
  4  6  2  0  0  0  0
  5  3  1  0  0  0  0
  5  1  2  0  0  0  0
  7  8  1  0  0  0  0
  8  9  1  0  0  0  0
 10  9  1  0  0  0  0
 11 10  1  0  0  0  0
 13 12  2  0  0  0  0
 13 14  1  0  0  0  0
 14 11  1  0  0  0  0
 15 16  1  0  0  0  0
 16 13  1  1  0  0  0
 17 18  1  6  0  0  0
 17 15  1  0  0  0  0
 17 16  1  0  0  0  0
 19 24  1  1  0  0  0
 19 20  1  0  0  0  0
 19 21  1  0  0  0  0
 20 21  1  0  0  0  0
 21 23  1  1  0  0  0
 21 18  1  0  0  0  0
 23 22  1  0  0  0  0
 24 25  1  6  0  0  0
 26 25  1  0  0  0  0
 27 25  2  0  0  0  0
 28 24  1  0  0  0  0
 28 29  1  0  0  0  0
 30  5  1  0  0  0  0
 31 34  1  0  0  0  0
 32 36  1  0  0  0  0
 33 36  1  0  0  0  0
 34 30  1  0  0  0  0
 35 33  2  0  0  0  0
 36 31  1  0  0  0  0
 37 33  1  6  0  0  0
 37 38  1  0  0  0  0
 38 34  1  0  0  0  0
 40 43  2  0  0  0  0
 41 45  1  6  0  0  0
 41 44  1  0  0  0  0
 42 43  1  0  0  0  0
 42 41  1  0  0  0  0
 43 39  1  0  0  0  0
 44 39  1  6  0  0  0
 44 37  1  0  0  0  0
 45 46  1  0  0  0  0
 48 51  2  0  0  0  0
 49 52  1  0  0  0  0
 50 49  2  0  0  0  0
 50 48  1  0  0  0  0
 51 47  1  0  0  0  0
 52 46  1  0  0  0  0
 52 47  2  0  0  0  0
 53 48  1  0  0  0  0
 53 55  1  0  0  0  0
 54 53  2  0  0  0  0
M  END
>  <MODEL>
2

>  <REMARK>
 VINA RESULT:      -5.9      3.119      9.957
  Name = 
  20 active torsions:
  status: ('A' for Active; 'I' for Inactive)
    1  A    between atoms: C_1  and  C_53
    2  A    between atoms: C_2  and  N_28
    3  A    between atoms: C_2  and  C_44
    4  A    between atoms: C_3  and  C_53
    5  A    between atoms: O_6  and  C_53
    6  A    between atoms: C_8  and  N_22
    7  A    between atoms: C_8  and  C_35
    8  A    between atoms: C_10  and  C_32
    9  A    between atoms: C_16  and  C_36
   10  A    between atoms: C_20  and  C_42
   11  A    between atoms: C_25  and  C_38
   12  A    between atoms: C_26  and  C_45
   13  A    between atoms: C_27  and  C_54
   14  A    between atoms: C_29  and  C_38
   15  A    between atoms: C_29  and  C_50
   16  A    between atoms: N_33  and  C_36
   17  A    between atoms: N_33  and  C_52
   18  A    between atoms: C_35  and  C_43
   19  A    between atoms: C_43  and  S_51
   20  A    between atoms: S_51  and  C_54
                            x       y       z     vdW  Elec       q    Type
                         _______ _______ _______ _____ _____    ______ ____

>  <TORSDO>
F 20

$$$$
=
 OpenBabel10272401383D

 55 60  0  0  1  0  0  0  0  0999 V2000
  185.7030  178.1210  145.1470 C   0  0  0  0  0  3  0  0  0  0  0  0
  188.3910  177.4690  144.7180 C   0  0  0  0  0  0  0  0  0  0  0  0
  187.4810  177.4250  143.6560 C   0  0  0  0  0  3  0  0  0  0  0  0
  186.6110  178.1650  146.2090 C   0  0  0  0  0  3  0  0  0  0  0  0
  186.1390  177.7540  143.8670 C   0  0  0  0  0  0  0  0  0  0  0  0
  187.9540  177.8380  145.9960 C   0  0  0  0  0  3  0  0  0  0  0  0
  189.8190  177.1120  144.4820 C   0  0  0  0  0  2  0  0  0  0  0  0
  190.6310  178.3370  143.4070 S   0  0  0  0  0  0  0  0  0  0  0  0
  190.3950  177.3380  141.9040 C   0  0  0  0  0  2  0  0  0  0  0  0
  191.6410  177.3940  141.0350 C   0  0  0  0  0  2  0  0  0  0  0  0
  191.2930  177.0660  139.5930 C   0  0  0  0  0  2  0  0  0  0  0  0
  191.3920  176.3850  136.8320 O   0  0  0  0  0  0  0  0  0  0  0  0
  192.4860  176.4530  137.4560 C   0  0  0  0  0  0  0  0  0  0  0  0
  192.5060  176.7700  138.8480 N   0  0  0  0  0  2  0  0  0  0  0  0
  193.5110  175.2830  135.6720 O   0  0  0  0  0  0  0  0  0  0  0  0
  193.7650  176.1560  136.7460 C   0  0  2  0  0  3  0  0  0  0  0  0
  194.0740  174.7100  136.8250 C   0  0  2  0  0  3  0  0  0  0  0  0
  195.5530  174.4810  136.5830 C   0  0  0  0  0  2  0  0  0  0  0  0
  196.5290  172.2660  137.7040 C   0  0  2  0  0  3  0  0  0  0  0  0
  195.2460  172.7500  138.3680 C   0  0  0  0  0  2  0  0  0  0  0  0
  196.1990  173.7570  137.7650 C   0  0  2  0  0  0  0  0  0  0  0  0
  197.9550  175.2890  138.3090 O   0  0  0  0  0  1  0  0  0  0  0  0
  196.8890  174.5670  138.8500 C   0  0  0  0  0  2  0  0  0  0  0  0
  196.2150  171.6350  136.3460 C   0  0  1  0  0  3  0  0  0  0  0  0
  197.4550  171.0750  135.7230 C   0  0  0  0  0  0  0  0  0  0  0  0
  197.9290  169.8210  136.0890 O   0  0  0  0  0  1  0  0  0  0  0  0
  198.0290  171.7140  134.8010 O   0  0  0  0  0  0  0  0  0  0  0  0
  195.2730  170.6140  136.5030 O   0  0  0  0  0  0  0  0  0  0  0  0
  194.2470  170.9280  135.6080 C   0  0  0  0  0  1  0  0  0  0  0  0
  185.1750  177.6940  142.7340 C   0  0  0  0  0  2  0  0  0  0  0  0
  183.0930  178.7310  143.3410 C   0  0  0  0  0  2  0  0  0  0  0  0
  180.8560  179.6860  143.2500 O   0  0  0  0  0  1  0  0  0  0  0  0
  182.0360  179.2630  141.1920 C   0  0  0  0  0  0  0  0  0  0  0  0
  184.3980  178.9260  142.6660 N   0  0  0  0  0  0  0  0  0  0  0  0
  181.0290  179.5430  140.4870 O   0  0  0  0  0  0  0  0  0  0  0  0
  181.9910  179.3280  142.6040 N   0  0  0  0  0  0  0  0  0  0  0  0
  183.3300  178.8830  140.5770 C   0  0  1  0  0  3  0  0  0  0  0  0
  184.3940  179.4040  141.3660 O   0  0  0  0  0  0  0  0  0  0  0  0
  182.1780  176.7450  140.3970 O   0  0  0  0  0  0  0  0  0  0  0  0
  180.7710  175.4340  138.9920 C   0  0  0  0  0  2  0  0  0  0  0  0
  183.9640  176.9870  138.8740 C   0  0  2  0  0  3  0  0  0  0  0  0
  182.9040  176.2360  138.2970 O   0  0  0  0  0  0  0  0  0  0  0  0
  181.8930  176.1000  139.2170 C   0  0  0  0  0  0  0  0  0  0  0  0
  183.4530  177.3710  140.3000 C   0  0  1  0  0  3  0  0  0  0  0  0
  184.3200  178.1550  137.9620 C   0  0  0  0  0  2  0  0  0  0  0  0
  185.0000  177.6580  136.7740 N   0  0  0  0  0  2  0  0  0  0  0  0
  187.1630  176.7320  137.4130 C   0  0  0  0  0  3  0  0  0  0  0  0
  187.7630  174.4460  136.8600 C   0  0  0  0  0  0  0  0  0  0  0  0
  185.5950  175.3290  136.2210 C   0  0  0  0  0  3  0  0  0  0  0  0
  186.5130  174.2770  136.2500 C   0  0  0  0  0  3  0  0  0  0  0  0
  188.0820  175.6800  137.4430 C   0  0  0  0  0  3  0  0  0  0  0  0
  185.9180  176.5640  136.8040 C   0  0  0  0  0  0  0  0  0  0  0  0
  188.7340  173.3420  136.8920 C   0  0  0  0  0  0  0  0  0  0  0  0
  189.8810  173.5140  137.3840 O   0  0  0  0  0  1  0  0  0  0  0  0
  188.3940  172.0950  136.3820 O   0  0  0  0  0  0  0  0  0  0  0  0
  1  4  1  0  0  0  0
  2  6  1  0  0  0  0
  3  5  1  0  0  0  0
  3  2  2  0  0  0  0
  5  1  2  0  0  0  0
  6  4  2  0  0  0  0
  7  2  1  0  0  0  0
  8  7  1  0  0  0  0
  9  8  1  0  0  0  0
 10  9  1  0  0  0  0
 11 10  1  0  0  0  0
 12 13  2  0  0  0  0
 13 14  1  0  0  0  0
 14 11  1  0  0  0  0
 15 16  1  0  0  0  0
 15 17  1  0  0  0  0
 16 17  1  0  0  0  0
 16 13  1  1  0  0  0
 17 18  1  6  0  0  0
 19 24  1  6  0  0  0
 19 21  1  0  0  0  0
 19 20  1  0  0  0  0
 21 18  1  6  0  0  0
 21 20  1  0  0  0  0
 21 23  1  0  0  0  0
 22 23  1  0  0  0  0
 24 25  1  1  0  0  0
 24 28  1  0  0  0  0
 25 26  1  0  0  0  0
 27 25  2  0  0  0  0
 29 28  1  0  0  0  0
 30  5  1  0  0  0  0
 33 36  1  0  0  0  0
 34 30  1  0  0  0  0
 34 31  1  0  0  0  0
 35 33  2  0  0  0  0
 36 32  1  0  0  0  0
 36 31  1  0  0  0  0
 37 33  1  1  0  0  0
 37 38  1  0  0  0  0
 38 34  1  0  0  0  0
 40 43  2  0  0  0  0
 41 45  1  6  0  0  0
 41 44  1  0  0  0  0
 42 41  1  0  0  0  0
 42 43  1  0  0  0  0
 43 39  1  0  0  0  0
 44 39  1  6  0  0  0
 44 37  1  0  0  0  0
 46 52  1  0  0  0  0
 46 45  1  0  0  0  0
 47 51  1  0  0  0  0
 48 53  1  0  0  0  0
 48 51  2  0  0  0  0
 49 50  2  0  0  0  0
 49 52  1  0  0  0  0
 50 48  1  0  0  0  0
 52 47  2  0  0  0  0
 53 54  1  0  0  0  0
 55 53  2  0  0  0  0
M  END
>  <MODEL>
3

>  <REMARK>
 VINA RESULT:      -5.9      3.257      7.991
  Name = 
  20 active torsions:
  status: ('A' for Active; 'I' for Inactive)
    1  A    between atoms: C_1  and  C_53
    2  A    between atoms: C_2  and  N_28
    3  A    between atoms: C_2  and  C_44
    4  A    between atoms: C_3  and  C_53
    5  A    between atoms: O_6  and  C_53
    6  A    between atoms: C_8  and  N_22
    7  A    between atoms: C_8  and  C_35
    8  A    between atoms: C_10  and  C_32
    9  A    between atoms: C_16  and  C_36
   10  A    between atoms: C_20  and  C_42
   11  A    between atoms: C_25  and  C_38
   12  A    between atoms: C_26  and  C_45
   13  A    between atoms: C_27  and  C_54
   14  A    between atoms: C_29  and  C_38
   15  A    between atoms: C_29  and  C_50
   16  A    between atoms: N_33  and  C_36
   17  A    between atoms: N_33  and  C_52
   18  A    between atoms: C_35  and  C_43
   19  A    between atoms: C_43  and  S_51
   20  A    between atoms: S_51  and  C_54
                            x       y       z     vdW  Elec       q    Type
                         _______ _______ _______ _____ _____    ______ ____

>  <TORSDO>
F 20

$$$$
=
 OpenBabel10272401383D

 55 60  0  0  1  0  0  0  0  0999 V2000
  185.9670  178.1290  146.0100 C   0  0  0  0  0  3  0  0  0  0  0  0
  188.6350  177.5210  145.4250 C   0  0  0  0  0  0  0  0  0  0  0  0
  187.6670  177.4680  144.4160 C   0  0  0  0  0  3  0  0  0  0  0  0
  186.9320  178.1810  147.0190 C   0  0  0  0  0  3  0  0  0  0  0  0
  186.3350  177.7750  144.7050 C   0  0  0  0  0  0  0  0  0  0  0  0
  188.2660  177.8770  146.7280 C   0  0  0  0  0  3  0  0  0  0  0  0
  190.0520  177.1870  145.1070 C   0  0  0  0  0  2  0  0  0  0  0  0
  190.7580  178.3820  143.9280 S   0  0  0  0  0  0  0  0  0  0  0  0
  190.1310  177.4850  142.4730 C   0  0  0  0  0  2  0  0  0  0  0  0
  191.2200  177.3660  141.4190 C   0  0  0  0  0  2  0  0  0  0  0  0
  190.6240  176.9230  140.0940 C   0  0  0  0  0  2  0  0  0  0  0  0
  191.0020  174.8110  138.2240 O   0  0  0  0  0  0  0  0  0  0  0  0
  191.7840  175.7970  138.1550 C   0  0  0  0  0  0  0  0  0  0  0  0
  191.6630  176.8820  139.0760 N   0  0  0  0  0  2  0  0  0  0  0  0
  192.5950  174.8520  136.1430 O   0  0  0  0  0  0  0  0  0  0  0  0
  192.8720  175.8120  137.1340 C   0  0  2  0  0  3  0  0  0  0  0  0
  193.5630  174.5030  137.1000 C   0  0  2  0  0  3  0  0  0  0  0  0
  194.9380  174.6570  136.4800 C   0  0  0  0  0  2  0  0  0  0  0  0
  197.1650  173.2410  136.8630 C   0  0  2  0  0  3  0  0  0  0  0  0
  196.7560  173.3150  135.3980 C   0  0  0  0  0  2  0  0  0  0  0  0
  195.6910  173.3260  136.4720 C   0  0  2  0  0  0  0  0  0  0  0  0
  194.2900  171.8350  135.2300 O   0  0  0  0  0  1  0  0  0  0  0  0
  194.9060  172.0250  136.4700 C   0  0  0  0  0  2  0  0  0  0  0  0
  197.7460  174.5810  137.3170 C   0  0  1  0  0  3  0  0  0  0  0  0
  197.5620  174.7670  138.7900 C   0  0  0  0  0  0  0  0  0  0  0  0
  198.1720  175.8240  139.4550 O   0  0  0  0  0  1  0  0  0  0  0  0
  196.7820  174.0020  139.4190 O   0  0  0  0  0  0  0  0  0  0  0  0
  199.1100  174.6360  137.0100 O   0  0  0  0  0  0  0  0  0  0  0  0
  199.6100  173.3800  137.3610 C   0  0  0  0  0  1  0  0  0  0  0  0
  185.3090  177.7060  143.6280 C   0  0  0  0  0  2  0  0  0  0  0  0
  183.1170  178.4320  144.2950 C   0  0  0  0  0  2  0  0  0  0  0  0
  180.7970  179.1670  144.2540 O   0  0  0  0  0  1  0  0  0  0  0  0
  182.0670  179.1760  142.2060 C   0  0  0  0  0  0  0  0  0  0  0  0
  184.4120  178.8520  143.7100 N   0  0  0  0  0  0  0  0  0  0  0  0
  181.0550  179.4590  141.5100 O   0  0  0  0  0  0  0  0  0  0  0  0
  181.9790  179.0230  143.6100 N   0  0  0  0  0  0  0  0  0  0  0  0
  183.4080  179.0210  141.5960 C   0  0  1  0  0  3  0  0  0  0  0  0
  184.3930  179.5180  142.4950 O   0  0  0  0  0  0  0  0  0  0  0  0
  182.4710  176.8900  140.8800 O   0  0  0  0  0  0  0  0  0  0  0  0
  181.4160  175.7700  139.0610 C   0  0  0  0  0  2  0  0  0  0  0  0
  184.4540  177.4790  139.7440 C   0  0  2  0  0  3  0  0  0  0  0  0
  183.5630  176.7860  138.8810 O   0  0  0  0  0  0  0  0  0  0  0  0
  182.4310  176.4430  139.5800 C   0  0  0  0  0  0  0  0  0  0  0  0
  183.6920  177.5860  141.1050 C   0  0  1  0  0  3  0  0  0  0  0  0
  184.8600  178.8030  139.1070 C   0  0  0  0  0  2  0  0  0  0  0  0
  184.9990  178.6300  137.6680 N   0  0  0  0  0  2  0  0  0  0  0  0
  185.9590  177.4300  135.7760 C   0  0  0  0  0  3  0  0  0  0  0  0
  188.2180  176.5460  135.8650 C   0  0  0  0  0  0  0  0  0  0  0  0
  187.3010  177.7500  137.7620 C   0  0  0  0  0  3  0  0  0  0  0  0
  188.3560  177.0580  137.1620 C   0  0  0  0  0  3  0  0  0  0  0  0
  187.0130  176.7380  135.1740 C   0  0  0  0  0  3  0  0  0  0  0  0
  186.0960  177.9380  137.0700 C   0  0  0  0  0  0  0  0  0  0  0  0
  189.3250  175.8170  135.2290 C   0  0  0  0  0  0  0  0  0  0  0  0
  189.3990  174.5620  135.3200 O   0  0  0  0  0  1  0  0  0  0  0  0
  190.3000  176.5040  134.5150 O   0  0  0  0  0  0  0  0  0  0  0  0
  1  4  1  0  0  0  0
  2  6  1  0  0  0  0
  3  5  1  0  0  0  0
  3  2  2  0  0  0  0
  5  1  2  0  0  0  0
  6  4  2  0  0  0  0
  7  2  1  0  0  0  0
  8  7  1  0  0  0  0
  9  8  1  0  0  0  0
 10  9  1  0  0  0  0
 11 10  1  0  0  0  0
 13 12  2  0  0  0  0
 13 14  1  0  0  0  0
 14 11  1  0  0  0  0
 15 17  1  0  0  0  0
 15 16  1  0  0  0  0
 16 13  1  1  0  0  0
 17 18  1  6  0  0  0
 17 16  1  0  0  0  0
 19 24  1  1  0  0  0
 20 21  1  0  0  0  0
 20 19  1  0  0  0  0
 21 23  1  1  0  0  0
 21 18  1  0  0  0  0
 21 19  1  0  0  0  0
 22 23  1  0  0  0  0
 24 28  1  1  0  0  0
 24 25  1  0  0  0  0
 25 27  2  0  0  0  0
 25 26  1  0  0  0  0
 28 29  1  0  0  0  0
 30 34  1  0  0  0  0
 30  5  1  0  0  0  0
 33 36  1  0  0  0  0
 34 31  1  0  0  0  0
 35 33  2  0  0  0  0
 36 32  1  0  0  0  0
 36 31  1  0  0  0  0
 37 33  1  1  0  0  0
 37 38  1  0  0  0  0
 38 34  1  0  0  0  0
 40 43  2  0  0  0  0
 41 45  1  6  0  0  0
 41 44  1  0  0  0  0
 42 43  1  0  0  0  0
 42 41  1  0  0  0  0
 43 39  1  0  0  0  0
 44 39  1  6  0  0  0
 44 37  1  0  0  0  0
 46 45  1  0  0  0  0
 47 52  1  0  0  0  0
 48 50  2  0  0  0  0
 50 49  1  0  0  0  0
 51 47  2  0  0  0  0
 51 48  1  0  0  0  0
 52 46  1  0  0  0  0
 52 49  2  0  0  0  0
 53 54  1  0  0  0  0
 53 48  1  0  0  0  0
 55 53  2  0  0  0  0
M  END
>  <MODEL>
4

>  <REMARK>
 VINA RESULT:      -5.6      3.313      8.006
  Name = 
  20 active torsions:
  status: ('A' for Active; 'I' for Inactive)
    1  A    between atoms: C_1  and  C_53
    2  A    between atoms: C_2  and  N_28
    3  A    between atoms: C_2  and  C_44
    4  A    between atoms: C_3  and  C_53
    5  A    between atoms: O_6  and  C_53
    6  A    between atoms: C_8  and  N_22
    7  A    between atoms: C_8  and  C_35
    8  A    between atoms: C_10  and  C_32
    9  A    between atoms: C_16  and  C_36
   10  A    between atoms: C_20  and  C_42
   11  A    between atoms: C_25  and  C_38
   12  A    between atoms: C_26  and  C_45
   13  A    between atoms: C_27  and  C_54
   14  A    between atoms: C_29  and  C_38
   15  A    between atoms: C_29  and  C_50
   16  A    between atoms: N_33  and  C_36
   17  A    between atoms: N_33  and  C_52
   18  A    between atoms: C_35  and  C_43
   19  A    between atoms: C_43  and  S_51
   20  A    between atoms: S_51  and  C_54
                            x       y       z     vdW  Elec       q    Type
                         _______ _______ _______ _____ _____    ______ ____

>  <TORSDO>
F 20

$$$$
=
 OpenBabel10272401383D

 55 60  0  0  1  0  0  0  0  0999 V2000
  189.0600  176.8710  143.2070 C   0  0  0  0  0  3  0  0  0  0  0  0
  190.0660  177.3730  140.6450 C   0  0  0  0  0  0  0  0  0  0  0  0
  188.6910  177.4520  140.8850 C   0  0  0  0  0  3  0  0  0  0  0  0
  190.4350  176.7900  142.9690 C   0  0  0  0  0  3  0  0  0  0  0  0
  188.1860  177.2060  142.1650 C   0  0  0  0  0  0  0  0  0  0  0  0
  190.9390  177.0400  141.6880 C   0  0  0  0  0  3  0  0  0  0  0  0
  190.5940  177.6320  139.2750 C   0  0  0  0  0  2  0  0  0  0  0  0
  192.2470  176.8990  139.0610 S   0  0  0  0  0  0  0  0  0  0  0  0
  191.6570  175.6370  137.8900 C   0  0  0  0  0  2  0  0  0  0  0  0
  190.4150  176.1310  137.1660 C   0  0  0  0  0  2  0  0  0  0  0  0
  190.6590  176.1720  135.6670 C   0  0  0  0  0  2  0  0  0  0  0  0
  190.6410  173.4610  134.8000 O   0  0  0  0  0  0  0  0  0  0  0  0
  191.7590  174.0370  134.8910 C   0  0  0  0  0  0  0  0  0  0  0  0
  191.8410  175.3910  135.3390 N   0  0  0  0  0  2  0  0  0  0  0  0
  192.8770  171.9550  135.0060 O   0  0  0  0  0  0  0  0  0  0  0  0
  193.0080  173.2860  134.5710 C   0  0  2  0  0  3  0  0  0  0  0  0
  193.6510  172.8040  135.8140 C   0  0  2  0  0  3  0  0  0  0  0  0
  195.1180  172.5130  135.5620 C   0  0  0  0  0  2  0  0  0  0  0  0
  196.4150  171.7360  137.7580 C   0  0  2  0  0  3  0  0  0  0  0  0
  195.1840  172.5770  138.0650 C   0  0  0  0  0  2  0  0  0  0  0  0
  195.9630  172.8320  136.7950 C   0  0  2  0  0  0  0  0  0  0  0  0
  195.8090  175.1920  137.1630 O   0  0  0  0  0  1  0  0  0  0  0  0
  196.7020  174.1580  136.8700 C   0  0  0  0  0  2  0  0  0  0  0  0
  196.0000  170.3330  137.3110 C   0  0  1  0  0  3  0  0  0  0  0  0
  197.1310  169.3680  137.4750 C   0  0  0  0  0  0  0  0  0  0  0  0
  197.1420  168.4580  138.5260 O   0  0  0  0  0  1  0  0  0  0  0  0
  198.0430  169.3270  136.6060 O   0  0  0  0  0  0  0  0  0  0  0  0
  194.9060  169.8990  138.0670 O   0  0  0  0  0  0  0  0  0  0  0  0
  194.0870  169.2210  137.1610 C   0  0  0  0  0  1  0  0  0  0  0  0
  186.7190  177.2820  142.4100 C   0  0  0  0  0  2  0  0  0  0  0  0
  185.6800  178.0860  144.4230 C   0  0  0  0  0  2  0  0  0  0  0  0
  184.1130  179.0940  145.9890 O   0  0  0  0  0  1  0  0  0  0  0  0
  183.8100  179.4620  143.6270 C   0  0  0  0  0  0  0  0  0  0  0  0
  186.3990  178.4740  143.1850 N   0  0  0  0  0  0  0  0  0  0  0  0
  182.7020  180.0380  143.7980 O   0  0  0  0  0  0  0  0  0  0  0  0
  184.5640  178.9700  144.7180 N   0  0  0  0  0  0  0  0  0  0  0  0
  184.3980  179.2980  142.2760 C   0  0  1  0  0  3  0  0  0  0  0  0
  185.8130  179.4230  142.3630 O   0  0  0  0  0  0  0  0  0  0  0  0
  182.5560  177.7740  141.8140 O   0  0  0  0  0  0  0  0  0  0  0  0
  180.5750  177.4920  140.5230 C   0  0  0  0  0  2  0  0  0  0  0  0
  184.0470  178.0300  140.0030 C   0  0  2  0  0  3  0  0  0  0  0  0
  182.7140  177.8590  139.5420 O   0  0  0  0  0  0  0  0  0  0  0  0
  181.8790  177.6940  140.6200 C   0  0  0  0  0  0  0  0  0  0  0  0
  183.9370  178.0110  141.5620 C   0  0  1  0  0  3  0  0  0  0  0  0
  184.6410  179.2960  139.3970 C   0  0  0  0  0  2  0  0  0  0  0  0
  185.7670  178.9470  138.5430 N   0  0  0  0  0  2  0  0  0  0  0  0
  186.8250  176.8790  137.8040 C   0  0  0  0  0  3  0  0  0  0  0  0
  185.8470  175.5290  136.0380 C   0  0  0  0  0  0  0  0  0  0  0  0
  184.7580  177.5740  136.7590 C   0  0  0  0  0  3  0  0  0  0  0  0
  184.7940  176.4480  135.9350 C   0  0  0  0  0  3  0  0  0  0  0  0
  186.8620  175.7510  136.9800 C   0  0  0  0  0  3  0  0  0  0  0  0
  185.7750  177.7950  137.6980 C   0  0  0  0  0  0  0  0  0  0  0  0
  185.8910  174.3420  135.1730 C   0  0  0  0  0  0  0  0  0  0  0  0
  184.9340  173.5220  135.1640 O   0  0  0  0  0  1  0  0  0  0  0  0
  186.9880  174.1130  134.3510 O   0  0  0  0  0  0  0  0  0  0  0  0
  2  3  2  0  0  0  0
  2  6  1  0  0  0  0
  3  5  1  0  0  0  0
  4  1  1  0  0  0  0
  5 30  1  0  0  0  0
  5  1  2  0  0  0  0
  6  4  2  0  0  0  0
  7  2  1  0  0  0  0
  8  7  1  0  0  0  0
  9  8  1  0  0  0  0
 10  9  1  0  0  0  0
 11 10  1  0  0  0  0
 12 13  2  0  0  0  0
 13 14  1  0  0  0  0
 14 11  1  0  0  0  0
 15 17  1  0  0  0  0
 16 13  1  1  0  0  0
 16 15  1  0  0  0  0
 16 17  1  0  0  0  0
 17 18  1  6  0  0  0
 19 24  1  6  0  0  0
 19 20  1  0  0  0  0
 21 18  1  6  0  0  0
 21 23  1  0  0  0  0
 21 19  1  0  0  0  0
 21 20  1  0  0  0  0
 23 22  1  0  0  0  0
 24 25  1  1  0  0  0
 24 28  1  0  0  0  0
 25 26  1  0  0  0  0
 27 25  2  0  0  0  0
 29 28  1  0  0  0  0
 30 34  1  0  0  0  0
 31 36  1  0  0  0  0
 33 35  2  0  0  0  0
 33 36  1  0  0  0  0
 34 31  1  0  0  0  0
 36 32  1  0  0  0  0
 37 38  1  1  0  0  0
 37 33  1  0  0  0  0
 38 34  1  0  0  0  0
 40 43  2  0  0  0  0
 41 45  1  1  0  0  0
 41 44  1  0  0  0  0
 42 41  1  0  0  0  0
 42 43  1  0  0  0  0
 43 39  1  0  0  0  0
 44 39  1  6  0  0  0
 44 37  1  0  0  0  0
 46 45  1  0  0  0  0
 48 51  1  0  0  0  0
 49 52  2  0  0  0  0
 50 48  2  0  0  0  0
 50 49  1  0  0  0  0
 51 47  2  0  0  0  0
 52 47  1  0  0  0  0
 52 46  1  0  0  0  0
 53 48  1  0  0  0  0
 54 53  1  0  0  0  0
 55 53  2  0  0  0  0
M  END
>  <MODEL>
5

>  <REMARK>
 VINA RESULT:      -5.0      3.452      7.717
  Name = 
  20 active torsions:
  status: ('A' for Active; 'I' for Inactive)
    1  A    between atoms: C_1  and  C_53
    2  A    between atoms: C_2  and  N_28
    3  A    between atoms: C_2  and  C_44
    4  A    between atoms: C_3  and  C_53
    5  A    between atoms: O_6  and  C_53
    6  A    between atoms: C_8  and  N_22
    7  A    between atoms: C_8  and  C_35
    8  A    between atoms: C_10  and  C_32
    9  A    between atoms: C_16  and  C_36
   10  A    between atoms: C_20  and  C_42
   11  A    between atoms: C_25  and  C_38
   12  A    between atoms: C_26  and  C_45
   13  A    between atoms: C_27  and  C_54
   14  A    between atoms: C_29  and  C_38
   15  A    between atoms: C_29  and  C_50
   16  A    between atoms: N_33  and  C_36
   17  A    between atoms: N_33  and  C_52
   18  A    between atoms: C_35  and  C_43
   19  A    between atoms: C_43  and  S_51
   20  A    between atoms: S_51  and  C_54
                            x       y       z     vdW  Elec       q    Type
                         _______ _______ _______ _____ _____    ______ ____

>  <TORSDO>
F 20

$$$$
=
 OpenBabel10272401383D

 55 60  0  0  1  0  0  0  0  0999 V2000
  187.9610  177.5870  146.9830 C   0  0  0  0  0  3  0  0  0  0  0  0
  185.5550  178.5600  145.9360 C   0  0  0  0  0  0  0  0  0  0  0  0
  186.3740  177.7340  145.1590 C   0  0  0  0  0  3  0  0  0  0  0  0
  187.1440  178.4130  147.7610 C   0  0  0  0  0  3  0  0  0  0  0  0
  187.5740  177.2430  145.6820 C   0  0  0  0  0  0  0  0  0  0  0  0
  185.9420  178.9010  147.2380 C   0  0  0  0  0  3  0  0  0  0  0  0
  184.2800  179.0820  145.3680 C   0  0  0  0  0  2  0  0  0  0  0  0
  184.5520  179.8310  143.7300 S   0  0  0  0  0  0  0  0  0  0  0  0
  183.4420  178.6610  142.8880 C   0  0  0  0  0  2  0  0  0  0  0  0
  182.0470  178.7350  143.4880 C   0  0  0  0  0  2  0  0  0  0  0  0
  181.0470  179.2000  142.4430 C   0  0  0  0  0  2  0  0  0  0  0  0
  181.9250  179.1000  139.7380 O   0  0  0  0  0  0  0  0  0  0  0  0
  181.2560  178.1230  140.1700 C   0  0  0  0  0  0  0  0  0  0  0  0
  180.7670  178.1170  141.5120 N   0  0  0  0  0  2  0  0  0  0  0  0
  181.0110  175.7770  139.9790 O   0  0  0  0  0  0  0  0  0  0  0  0
  180.9340  176.9840  139.2610 C   0  0  2  0  0  3  0  0  0  0  0  0
  182.0970  176.0770  139.1400 C   0  0  2  0  0  3  0  0  0  0  0  0
  181.9810  175.2470  137.8760 C   0  0  0  0  0  2  0  0  0  0  0  0
  184.3160  174.6770  136.7210 C   0  0  2  0  0  3  0  0  0  0  0  0
  184.3850  175.9040  137.6190 C   0  0  0  0  0  2  0  0  0  0  0  0
  183.0990  175.5850  136.8900 C   0  0  2  0  0  0  0  0  0  0  0  0
  182.6780  177.8720  136.3260 O   0  0  0  0  0  1  0  0  0  0  0  0
  182.8390  176.5950  135.7840 C   0  0  0  0  0  2  0  0  0  0  0  0
  184.2400  173.4050  137.5680 C   0  0  1  0  0  3  0  0  0  0  0  0
  183.7330  172.2560  136.7560 C   0  0  0  0  0  0  0  0  0  0  0  0
  183.7970  172.2840  135.3670 O   0  0  0  0  0  0  0  0  0  0  0  0
  183.3160  171.2190  137.3390 O   0  0  0  0  0  1  0  0  0  0  0  0
  185.5070  173.0930  138.0720 O   0  0  0  0  0  0  0  0  0  0  0  0
  186.3700  173.2230  136.9810 C   0  0  0  0  0  1  0  0  0  0  0  0
  188.4450  176.3720  144.8440 C   0  0  0  0  0  2  0  0  0  0  0  0
  189.8450  178.3220  144.7100 C   0  0  0  0  0  2  0  0  0  0  0  0
  191.3990  180.0190  143.9180 O   0  0  0  0  0  1  0  0  0  0  0  0
  191.2090  177.9460  142.7050 C   0  0  0  0  0  0  0  0  0  0  0  0
  189.8210  176.8500  144.8830 N   0  0  0  0  0  0  0  0  0  0  0  0
  191.9450  178.3570  141.7680 O   0  0  0  0  0  0  0  0  0  0  0  0
  190.9090  178.7610  143.8220 N   0  0  0  0  0  0  0  0  0  0  0  0
  190.6440  176.5760  142.7020 C   0  0  1  0  0  3  0  0  0  0  0  0
  190.6050  176.0820  144.0360 O   0  0  0  0  0  0  0  0  0  0  0  0
  188.4800  177.6070  142.2710 O   0  0  0  0  0  0  0  0  0  0  0  0
  187.3860  179.3380  141.0550 C   0  0  0  0  0  2  0  0  0  0  0  0
  189.3690  176.4630  140.4080 C   0  0  2  0  0  3  0  0  0  0  0  0
  188.6460  177.6150  139.9970 O   0  0  0  0  0  0  0  0  0  0  0  0
  188.1280  178.2430  141.1040 C   0  0  0  0  0  0  0  0  0  0  0  0
  189.2900  176.4760  141.9690 C   0  0  1  0  0  3  0  0  0  0  0  0
  190.7730  176.5000  139.8170 C   0  0  0  0  0  2  0  0  0  0  0  0
  190.7540  175.9310  138.4760 N   0  0  0  0  0  2  0  0  0  0  0  0
  193.1410  175.8790  137.9870 C   0  0  0  0  0  3  0  0  0  0  0  0
  194.1260  174.0510  136.7290 C   0  0  0  0  0  0  0  0  0  0  0  0
  191.7480  174.0620  137.2110 C   0  0  0  0  0  3  0  0  0  0  0  0
  192.8640  173.4510  136.6350 C   0  0  0  0  0  3  0  0  0  0  0  0
  194.2580  175.2690  137.4110 C   0  0  0  0  0  3  0  0  0  0  0  0
  191.8830  175.2810  137.8900 C   0  0  0  0  0  0  0  0  0  0  0  0
  195.3040  173.4130  136.1240 C   0  0  0  0  0  0  0  0  0  0  0  0
  195.9050  173.9630  135.1620 O   0  0  0  0  0  0  0  0  0  0  0  0
  195.7700  172.1960  136.6090 O   0  0  0  0  0  1  0  0  0  0  0  0
  1  4  1  0  0  0  0
  2  6  1  0  0  0  0
  3  5  1  0  0  0  0
  3  2  2  0  0  0  0
  5  1  2  0  0  0  0
  6  4  2  0  0  0  0
  7  2  1  0  0  0  0
  8  7  1  0  0  0  0
  9 10  1  0  0  0  0
  9  8  1  0  0  0  0
 11 10  1  0  0  0  0
 12 13  2  0  0  0  0
 13 14  1  0  0  0  0
 14 11  1  0  0  0  0
 16 15  1  0  0  0  0
 16 13  1  1  0  0  0
 17 18  1  6  0  0  0
 17 16  1  0  0  0  0
 17 15  1  0  0  0  0
 19 21  1  0  0  0  0
 19 24  1  1  0  0  0
 19 20  1  0  0  0  0
 21 23  1  6  0  0  0
 21 20  1  0  0  0  0
 21 18  1  0  0  0  0
 23 22  1  0  0  0  0
 24 25  1  6  0  0  0
 24 28  1  0  0  0  0
 25 27  1  0  0  0  0
 26 25  2  0  0  0  0
 29 28  1  0  0  0  0
 30 34  1  0  0  0  0
 30  5  1  0  0  0  0
 31 34  1  0  0  0  0
 33 36  1  0  0  0  0
 35 33  2  0  0  0  0
 36 32  1  0  0  0  0
 36 31  1  0  0  0  0
 37 33  1  1  0  0  0
 37 38  1  0  0  0  0
 38 34  1  0  0  0  0
 40 43  2  0  0  0  0
 41 45  1  1  0  0  0
 41 44  1  0  0  0  0
 42 41  1  0  0  0  0
 42 43  1  0  0  0  0
 43 39  1  0  0  0  0
 44 39  1  6  0  0  0
 44 37  1  0  0  0  0
 46 45  1  0  0  0  0
 48 51  1  0  0  0  0
 49 52  2  0  0  0  0
 50 48  2  0  0  0  0
 50 49  1  0  0  0  0
 51 47  2  0  0  0  0
 52 47  1  0  0  0  0
 52 46  1  0  0  0  0
 53 55  1  0  0  0  0
 53 48  1  0  0  0  0
 54 53  2  0  0  0  0
M  END
>  <MODEL>
6

>  <REMARK>
 VINA RESULT:      -4.9      3.110     10.737
  Name = 
  20 active torsions:
  status: ('A' for Active; 'I' for Inactive)
    1  A    between atoms: C_1  and  C_53
    2  A    between atoms: C_2  and  N_28
    3  A    between atoms: C_2  and  C_44
    4  A    between atoms: C_3  and  C_53
    5  A    between atoms: O_6  and  C_53
    6  A    between atoms: C_8  and  N_22
    7  A    between atoms: C_8  and  C_35
    8  A    between atoms: C_10  and  C_32
    9  A    between atoms: C_16  and  C_36
   10  A    between atoms: C_20  and  C_42
   11  A    between atoms: C_25  and  C_38
   12  A    between atoms: C_26  and  C_45
   13  A    between atoms: C_27  and  C_54
   14  A    between atoms: C_29  and  C_38
   15  A    between atoms: C_29  and  C_50
   16  A    between atoms: N_33  and  C_36
   17  A    between atoms: N_33  and  C_52
   18  A    between atoms: C_35  and  C_43
   19  A    between atoms: C_43  and  S_51
   20  A    between atoms: S_51  and  C_54
                            x       y       z     vdW  Elec       q    Type
                         _______ _______ _______ _____ _____    ______ ____

>  <TORSDO>
F 20

$$$$
=
 OpenBabel10272401383D

 55 60  0  0  1  0  0  0  0  0999 V2000
  187.9210  177.6220  147.1390 C   0  0  0  0  0  3  0  0  0  0  0  0
  185.5120  178.5500  146.0590 C   0  0  0  0  0  0  0  0  0  0  0  0
  186.3620  177.7480  145.2900 C   0  0  0  0  0  3  0  0  0  0  0  0
  187.0740  178.4250  147.9090 C   0  0  0  0  0  3  0  0  0  0  0  0
  187.5630  177.2800  145.8290 C   0  0  0  0  0  0  0  0  0  0  0  0
  185.8700  178.8890  147.3700 C   0  0  0  0  0  3  0  0  0  0  0  0
  184.2350  179.0480  145.4740 C   0  0  0  0  0  2  0  0  0  0  0  0
  184.5310  179.9140  143.8990 S   0  0  0  0  0  0  0  0  0  0  0  0
  183.4860  178.7690  142.9460 C   0  0  0  0  0  2  0  0  0  0  0  0
  182.0670  178.7740  143.4920 C   0  0  0  0  0  2  0  0  0  0  0  0
  181.1200  179.4190  142.4950 C   0  0  0  0  0  2  0  0  0  0  0  0
  180.3500  180.7580  140.1050 O   0  0  0  0  0  0  0  0  0  0  0  0
  181.0460  179.7130  139.9900 C   0  0  0  0  0  0  0  0  0  0  0  0
  181.4500  178.9820  141.1470 N   0  0  0  0  0  2  0  0  0  0  0  0
  180.8470  177.9400  138.4350 O   0  0  0  0  0  0  0  0  0  0  0  0
  181.4140  179.2130  138.6320 C   0  0  2  0  0  3  0  0  0  0  0  0
  182.2180  177.9750  138.7410 C   0  0  2  0  0  3  0  0  0  0  0  0
  183.0080  177.7550  137.4650 C   0  0  0  0  0  2  0  0  0  0  0  0
  184.8710  175.9950  136.7260 C   0  0  2  0  0  3  0  0  0  0  0  0
  183.5720  175.8450  135.9460 C   0  0  0  0  0  2  0  0  0  0  0  0
  183.5290  176.3200  137.3800 C   0  0  2  0  0  0  0  0  0  0  0  0
  183.0400  173.9970  137.6870 O   0  0  0  0  0  1  0  0  0  0  0  0
  182.9330  175.2550  138.2860 C   0  0  0  0  0  2  0  0  0  0  0  0
  185.6280  177.2390  136.2570 C   0  0  1  0  0  3  0  0  0  0  0  0
  186.7670  177.5450  137.1770 C   0  0  0  0  0  0  0  0  0  0  0  0
  186.8550  178.7770  137.8140 O   0  0  0  0  0  1  0  0  0  0  0  0
  187.6130  176.6470  137.4370 O   0  0  0  0  0  0  0  0  0  0  0  0
  186.1190  177.0360  134.9630 O   0  0  0  0  0  0  0  0  0  0  0  0
  186.7170  178.2470  134.6090 C   0  0  0  0  0  1  0  0  0  0  0  0
  188.4660  176.4350  144.9990 C   0  0  0  0  0  2  0  0  0  0  0  0
  189.8340  178.4080  144.8720 C   0  0  0  0  0  2  0  0  0  0  0  0
  191.3780  180.1220  144.0960 O   0  0  0  0  0  1  0  0  0  0  0  0
  191.2590  178.0270  142.9120 C   0  0  0  0  0  0  0  0  0  0  0  0
  189.8320  176.9390  145.0680 N   0  0  0  0  0  0  0  0  0  0  0  0
  192.0140  178.4380  141.9890 O   0  0  0  0  0  0  0  0  0  0  0  0
  190.9140  178.8540  144.0070 N   0  0  0  0  0  0  0  0  0  0  0  0
  190.7210  176.6470  142.9150 C   0  0  1  0  0  3  0  0  0  0  0  0
  190.6540  176.1730  144.2550 O   0  0  0  0  0  0  0  0  0  0  0  0
  188.5280  177.6010  142.4540 O   0  0  0  0  0  0  0  0  0  0  0  0
  187.3940  179.3140  141.2490 C   0  0  0  0  0  2  0  0  0  0  0  0
  189.5070  176.5370  140.5890 C   0  0  2  0  0  3  0  0  0  0  0  0
  188.7470  177.6680  140.1860 O   0  0  0  0  0  0  0  0  0  0  0  0
  188.1780  178.2490  141.2930 C   0  0  0  0  0  0  0  0  0  0  0  0
  189.3900  176.5100  142.1470 C   0  0  1  0  0  3  0  0  0  0  0  0
  190.9220  176.6440  140.0330 C   0  0  0  0  0  2  0  0  0  0  0  0
  190.8690  176.7770  138.5840 N   0  0  0  0  0  2  0  0  0  0  0  0
  193.1220  175.9050  138.2600 C   0  0  0  0  0  3  0  0  0  0  0  0
  193.9330  175.3110  136.0500 C   0  0  0  0  0  0  0  0  0  0  0  0
  191.6780  176.1620  136.3370 C   0  0  0  0  0  3  0  0  0  0  0  0
  192.6940  175.6810  135.5080 C   0  0  0  0  0  3  0  0  0  0  0  0
  194.1390  175.4240  137.4310 C   0  0  0  0  0  3  0  0  0  0  0  0
  191.8890  176.2760  137.7180 C   0  0  0  0  0  0  0  0  0  0  0  0
  195.0070  174.8060  135.1820 C   0  0  0  0  0  0  0  0  0  0  0  0
  195.7380  175.6050  134.5390 O   0  0  0  0  0  0  0  0  0  0  0  0
  195.2280  173.4380  135.0640 O   0  0  0  0  0  1  0  0  0  0  0  0
  1  4  1  0  0  0  0
  2  6  1  0  0  0  0
  3  5  1  0  0  0  0
  3  2  2  0  0  0  0
  5  1  2  0  0  0  0
  6  4  2  0  0  0  0
  7  2  1  0  0  0  0
  8  7  1  0  0  0  0
  9 10  1  0  0  0  0
  9  8  1  0  0  0  0
 11 10  1  0  0  0  0
 13 12  2  0  0  0  0
 13 14  1  0  0  0  0
 14 11  1  0  0  0  0
 15 16  1  0  0  0  0
 15 17  1  0  0  0  0
 16 17  1  0  0  0  0
 16 13  1  1  0  0  0
 17 18  1  6  0  0  0
 19 24  1  6  0  0  0
 19 21  1  0  0  0  0
 20 19  1  0  0  0  0
 20 21  1  0  0  0  0
 21 18  1  1  0  0  0
 21 23  1  0  0  0  0
 22 23  1  0  0  0  0
 24 28  1  6  0  0  0
 24 25  1  0  0  0  0
 25 27  2  0  0  0  0
 25 26  1  0  0  0  0
 29 28  1  0  0  0  0
 30 34  1  0  0  0  0
 30  5  1  0  0  0  0
 31 34  1  0  0  0  0
 33 36  1  0  0  0  0
 35 33  2  0  0  0  0
 36 32  1  0  0  0  0
 36 31  1  0  0  0  0
 37 33  1  1  0  0  0
 37 38  1  0  0  0  0
 38 34  1  0  0  0  0
 40 43  2  0  0  0  0
 41 45  1  1  0  0  0
 41 44  1  0  0  0  0
 42 41  1  0  0  0  0
 42 43  1  0  0  0  0
 43 39  1  0  0  0  0
 44 39  1  1  0  0  0
 44 37  1  0  0  0  0
 46 45  1  0  0  0  0
 48 51  1  0  0  0  0
 49 52  2  0  0  0  0
 50 48  2  0  0  0  0
 50 49  1  0  0  0  0
 51 47  2  0  0  0  0
 52 47  1  0  0  0  0
 52 46  1  0  0  0  0
 53 48  1  0  0  0  0
 54 53  2  0  0  0  0
 55 53  1  0  0  0  0
M  END
>  <MODEL>
7

>  <REMARK>
 VINA RESULT:      -4.7      2.935     10.631
  Name = 
  20 active torsions:
  status: ('A' for Active; 'I' for Inactive)
    1  A    between atoms: C_1  and  C_53
    2  A    between atoms: C_2  and  N_28
    3  A    between atoms: C_2  and  C_44
    4  A    between atoms: C_3  and  C_53
    5  A    between atoms: O_6  and  C_53
    6  A    between atoms: C_8  and  N_22
    7  A    between atoms: C_8  and  C_35
    8  A    between atoms: C_10  and  C_32
    9  A    between atoms: C_16  and  C_36
   10  A    between atoms: C_20  and  C_42
   11  A    between atoms: C_25  and  C_38
   12  A    between atoms: C_26  and  C_45
   13  A    between atoms: C_27  and  C_54
   14  A    between atoms: C_29  and  C_38
   15  A    between atoms: C_29  and  C_50
   16  A    between atoms: N_33  and  C_36
   17  A    between atoms: N_33  and  C_52
   18  A    between atoms: C_35  and  C_43
   19  A    between atoms: C_43  and  S_51
   20  A    between atoms: S_51  and  C_54
                            x       y       z     vdW  Elec       q    Type
                         _______ _______ _______ _____ _____    ______ ____

>  <TORSDO>
F 20

$$$$
=
 OpenBabel10272401383D

 55 60  0  0  1  0  0  0  0  0999 V2000
  186.7140  178.7840  141.0130 C   0  0  0  0  0  3  0  0  0  0  0  0
  184.2060  178.7210  139.7730 C   0  0  0  0  0  0  0  0  0  0  0  0
  185.3190  178.1680  139.1310 C   0  0  0  0  0  3  0  0  0  0  0  0
  185.6030  179.3380  141.6560 C   0  0  0  0  0  3  0  0  0  0  0  0
  186.5710  178.1940  139.7500 C   0  0  0  0  0  0  0  0  0  0  0  0
  184.3490  179.3070  141.0370 C   0  0  0  0  0  3  0  0  0  0  0  0
  182.8750  178.6920  139.1020 C   0  0  0  0  0  2  0  0  0  0  0  0
  181.7170  177.6050  139.9940 S   0  0  0  0  0  0  0  0  0  0  0  0
  181.4910  178.7840  141.3620 C   0  0  0  0  0  2  0  0  0  0  0  0
  180.6870  178.1430  142.4820 C   0  0  0  0  0  2  0  0  0  0  0  0
  181.2790  178.5070  143.8320 C   0  0  0  0  0  2  0  0  0  0  0  0
  183.0340  179.2110  145.9590 O   0  0  0  0  0  0  0  0  0  0  0  0
  183.5520  178.9300  144.8440 C   0  0  0  0  0  0  0  0  0  0  0  0
  182.7280  178.5880  143.7290 N   0  0  0  0  0  2  0  0  0  0  0  0
  185.5380  177.7060  144.4490 O   0  0  0  0  0  0  0  0  0  0  0  0
  185.0330  178.9990  144.6760 C   0  0  2  0  0  3  0  0  0  0  0  0
  185.7090  178.2270  145.7430 C   0  0  2  0  0  3  0  0  0  0  0  0
  187.1430  178.6950  145.8940 C   0  0  0  0  0  2  0  0  0  0  0  0
  189.2250  177.0300  145.9560 C   0  0  2  0  0  3  0  0  0  0  0  0
  187.8870  176.3030  145.9280 C   0  0  0  0  0  2  0  0  0  0  0  0
  187.9920  177.6460  146.6140 C   0  0  2  0  0  0  0  0  0  0  0  0
  187.7070  178.7480  148.7200 O   0  0  0  0  0  1  0  0  0  0  0  0
  187.8710  177.4960  148.1210 C   0  0  0  0  0  2  0  0  0  0  0  0
  189.5330  177.6220  144.5800 C   0  0  1  0  0  3  0  0  0  0  0  0
  190.8320  178.3660  144.6020 C   0  0  0  0  0  0  0  0  0  0  0  0
  191.9670  177.7960  145.1670 O   0  0  0  0  0  1  0  0  0  0  0  0
  190.9140  179.4870  144.0320 O   0  0  0  0  0  0  0  0  0  0  0  0
  189.6000  176.6010  143.6270 O   0  0  0  0  0  0  0  0  0  0  0  0
  189.4510  177.2440  142.3960 C   0  0  0  0  0  1  0  0  0  0  0  0
  187.7530  177.6130  139.0550 C   0  0  0  0  0  2  0  0  0  0  0  0
  187.1540  178.1270  136.7840 C   0  0  0  0  0  2  0  0  0  0  0  0
  187.1350  178.2430  134.3530 O   0  0  0  0  0  1  0  0  0  0  0  0
  189.0980  177.4050  135.4710 C   0  0  0  0  0  0  0  0  0  0  0  0
  188.0990  178.4170  137.8900 N   0  0  0  0  0  0  0  0  0  0  0  0
  189.6410  177.0610  134.3870 O   0  0  0  0  0  0  0  0  0  0  0  0
  187.8220  178.0160  135.4970 N   0  0  0  0  0  0  0  0  0  0  0  0
  189.7800  177.2190  136.7740 C   0  0  1  0  0  3  0  0  0  0  0  0
  189.4560  178.3060  137.6330 O   0  0  0  0  0  0  0  0  0  0  0  0
  188.9860  174.9410  136.4360 O   0  0  0  0  0  0  0  0  0  0  0  0
  189.5680  172.8210  135.5200 C   0  0  0  0  0  2  0  0  0  0  0  0
  190.7830  175.1000  137.9590 C   0  0  2  0  0  3  0  0  0  0  0  0
  190.8620  173.8980  137.2060 O   0  0  0  0  0  0  0  0  0  0  0  0
  189.7920  173.8310  136.3460 C   0  0  0  0  0  0  0  0  0  0  0  0
  189.5190  175.8370  137.4070 C   0  0  1  0  0  3  0  0  0  0  0  0
  192.0960  175.8640  137.8450 C   0  0  0  0  0  2  0  0  0  0  0  0
  192.8640  175.3500  136.7200 N   0  0  0  0  0  2  0  0  0  0  0  0
  194.8200  174.2750  135.7390 C   0  0  0  0  0  3  0  0  0  0  0  0
  196.7800  173.7680  137.0790 C   0  0  0  0  0  0  0  0  0  0  0  0
  194.8570  174.8530  138.0870 C   0  0  0  0  0  3  0  0  0  0  0  0
  196.1450  174.3260  138.1970 C   0  0  0  0  0  3  0  0  0  0  0  0
  196.1090  173.7480  135.8480 C   0  0  0  0  0  3  0  0  0  0  0  0
  194.1880  174.8290  136.8540 C   0  0  0  0  0  0  0  0  0  0  0  0
  198.1350  173.2110  137.1900 C   0  0  0  0  0  0  0  0  0  0  0  0
  199.0510  173.8650  137.7590 O   0  0  0  0  0  1  0  0  0  0  0  0
  198.4210  171.9540  136.6710 O   0  0  0  0  0  0  0  0  0  0  0  0
  1  4  1  0  0  0  0
  2  6  1  0  0  0  0
  3  5  1  0  0  0  0
  3  2  2  0  0  0  0
  5  1  2  0  0  0  0
  6  4  2  0  0  0  0
  7  2  1  0  0  0  0
  7  8  1  0  0  0  0
  8  9  1  0  0  0  0
  9 10  1  0  0  0  0
 10 11  1  0  0  0  0
 13 12  2  0  0  0  0
 14 11  1  0  0  0  0
 14 13  1  0  0  0  0
 15 16  1  0  0  0  0
 15 17  1  0  0  0  0
 16 13  1  1  0  0  0
 16 17  1  0  0  0  0
 17 18  1  6  0  0  0
 19 24  1  6  0  0  0
 19 21  1  0  0  0  0
 20 19  1  0  0  0  0
 20 21  1  0  0  0  0
 21 18  1  6  0  0  0
 21 23  1  0  0  0  0
 23 22  1  0  0  0  0
 24 28  1  6  0  0  0
 24 25  1  0  0  0  0
 25 26  1  0  0  0  0
 27 25  2  0  0  0  0
 29 28  1  0  0  0  0
 30  5  1  0  0  0  0
 31 34  1  0  0  0  0
 32 36  1  0  0  0  0
 33 36  1  0  0  0  0
 34 30  1  0  0  0  0
 35 33  2  0  0  0  0
 36 31  1  0  0  0  0
 37 33  1  6  0  0  0
 37 44  1  0  0  0  0
 37 38  1  0  0  0  0
 38 34  1  0  0  0  0
 40 43  2  0  0  0  0
 41 45  1  6  0  0  0
 42 41  1  0  0  0  0
 43 39  1  0  0  0  0
 43 42  1  0  0  0  0
 44 39  1  6  0  0  0
 44 41  1  0  0  0  0
 46 52  1  0  0  0  0
 46 45  1  0  0  0  0
 47 51  2  0  0  0  0
 47 52  1  0  0  0  0
 48 53  1  0  0  0  0
 48 50  2  0  0  0  0
 49 50  1  0  0  0  0
 51 48  1  0  0  0  0
 52 49  2  0  0  0  0
 53 54  1  0  0  0  0
 55 53  2  0  0  0  0
M  END
>  <MODEL>
8

>  <REMARK>
 VINA RESULT:      -4.5      3.185      9.671
  Name = 
  20 active torsions:
  status: ('A' for Active; 'I' for Inactive)
    1  A    between atoms: C_1  and  C_53
    2  A    between atoms: C_2  and  N_28
    3  A    between atoms: C_2  and  C_44
    4  A    between atoms: C_3  and  C_53
    5  A    between atoms: O_6  and  C_53
    6  A    between atoms: C_8  and  N_22
    7  A    between atoms: C_8  and  C_35
    8  A    between atoms: C_10  and  C_32
    9  A    between atoms: C_16  and  C_36
   10  A    between atoms: C_20  and  C_42
   11  A    between atoms: C_25  and  C_38
   12  A    between atoms: C_26  and  C_45
   13  A    between atoms: C_27  and  C_54
   14  A    between atoms: C_29  and  C_38
   15  A    between atoms: C_29  and  C_50
   16  A    between atoms: N_33  and  C_36
   17  A    between atoms: N_33  and  C_52
   18  A    between atoms: C_35  and  C_43
   19  A    between atoms: C_43  and  S_51
   20  A    between atoms: S_51  and  C_54
                            x       y       z     vdW  Elec       q    Type
                         _______ _______ _______ _____ _____    ______ ____

>  <TORSDO>
F 20

$$$$
=
 OpenBabel10272401383D

 55 60  0  0  1  0  0  0  0  0999 V2000
  187.9240  177.7670  147.0620 C   0  0  0  0  0  3  0  0  0  0  0  0
  185.4900  178.4160  145.8450 C   0  0  0  0  0  0  0  0  0  0  0  0
  186.4040  177.5880  145.1850 C   0  0  0  0  0  3  0  0  0  0  0  0
  187.0130  178.5950  147.7220 C   0  0  0  0  0  3  0  0  0  0  0  0
  187.6180  177.2580  145.7930 C   0  0  0  0  0  0  0  0  0  0  0  0
  185.7960  178.9210  147.1150 C   0  0  0  0  0  3  0  0  0  0  0  0
  184.1990  178.7650  145.1860 C   0  0  0  0  0  2  0  0  0  0  0  0
  184.4630  179.9140  143.7990 S   0  0  0  0  0  0  0  0  0  0  0  0
  183.8660  178.7260  142.5560 C   0  0  0  0  0  2  0  0  0  0  0  0
  182.3910  178.4300  142.7770 C   0  0  0  0  0  2  0  0  0  0  0  0
  181.5430  179.2010  141.7800 C   0  0  0  0  0  2  0  0  0  0  0  0
  181.1720  180.6090  139.3350 O   0  0  0  0  0  0  0  0  0  0  0  0
  181.5170  179.3980  139.2640 C   0  0  0  0  0  0  0  0  0  0  0  0
  181.7010  178.6270  140.4520 N   0  0  0  0  0  2  0  0  0  0  0  0
  181.2390  177.4220  137.9920 O   0  0  0  0  0  0  0  0  0  0  0  0
  181.6910  178.7530  137.9290 C   0  0  2  0  0  3  0  0  0  0  0  0
  182.6310  177.6140  138.0270 C   0  0  2  0  0  3  0  0  0  0  0  0
  183.2020  177.2920  136.6600 C   0  0  0  0  0  2  0  0  0  0  0  0
  185.6890  176.3430  136.4960 C   0  0  2  0  0  3  0  0  0  0  0  0
  184.7880  175.8380  135.3770 C   0  0  0  0  0  2  0  0  0  0  0  0
  184.1950  176.1320  136.7360 C   0  0  2  0  0  0  0  0  0  0  0  0
  182.6130  174.3410  136.8770 O   0  0  0  0  0  1  0  0  0  0  0  0
  183.7880  174.8470  137.4380 C   0  0  0  0  0  2  0  0  0  0  0  0
  186.0590  177.8080  136.2570 C   0  0  1  0  0  3  0  0  0  0  0  0
  186.6610  178.4100  137.4870 C   0  0  0  0  0  0  0  0  0  0  0  0
  187.8850  179.0660  137.4310 O   0  0  0  0  0  0  0  0  0  0  0  0
  186.0140  178.3900  138.5680 O   0  0  0  0  0  1  0  0  0  0  0  0
  186.9720  177.9000  135.2010 O   0  0  0  0  0  0  0  0  0  0  0  0
  186.5390  178.9900  134.4430 C   0  0  0  0  0  1  0  0  0  0  0  0
  188.5900  176.3850  145.0790 C   0  0  0  0  0  2  0  0  0  0  0  0
  189.8760  178.4110  144.9530 C   0  0  0  0  0  2  0  0  0  0  0  0
  191.3610  180.1800  144.1850 O   0  0  0  0  0  1  0  0  0  0  0  0
  191.3530  178.0690  143.0240 C   0  0  0  0  0  0  0  0  0  0  0  0
  189.9320  176.9460  145.1660 N   0  0  0  0  0  0  0  0  0  0  0  0
  192.1070  178.5000  142.1100 O   0  0  0  0  0  0  0  0  0  0  0  0
  190.9530  178.8920  144.1030 N   0  0  0  0  0  0  0  0  0  0  0  0
  190.8720  176.6670  143.0340 C   0  0  1  0  0  3  0  0  0  0  0  0
  190.7990  176.2060  144.3780 O   0  0  0  0  0  0  0  0  0  0  0  0
  188.6360  177.5040  142.5480 O   0  0  0  0  0  0  0  0  0  0  0  0
  187.4280  179.1660  141.3450 C   0  0  0  0  0  2  0  0  0  0  0  0
  189.7010  176.5180  140.6870 C   0  0  2  0  0  3  0  0  0  0  0  0
  188.8870  177.6100  140.2850 O   0  0  0  0  0  0  0  0  0  0  0  0
  188.2690  178.1460  141.3900 C   0  0  0  0  0  0  0  0  0  0  0  0
  189.5630  176.4660  142.2440 C   0  0  1  0  0  3  0  0  0  0  0  0
  191.1160  176.7090  140.1560 C   0  0  0  0  0  2  0  0  0  0  0  0
  191.0760  176.8760  138.7090 N   0  0  0  0  0  2  0  0  0  0  0  0
  191.5470  175.1600  137.0430 C   0  0  0  0  0  3  0  0  0  0  0  0
  189.7600  173.8600  136.0390 C   0  0  0  0  0  0  0  0  0  0  0  0
  189.2550  175.5490  137.7070 C   0  0  0  0  0  3  0  0  0  0  0  0
  188.8290  174.5560  136.8220 C   0  0  0  0  0  3  0  0  0  0  0  0
  191.1220  174.1670  136.1570 C   0  0  0  0  0  3  0  0  0  0  0  0
  190.6180  175.8550  137.8210 C   0  0  0  0  0  0  0  0  0  0  0  0
  189.3170  172.8150  135.1050 C   0  0  0  0  0  0  0  0  0  0  0  0
  188.0890  172.5830  134.9400 O   0  0  0  0  0  1  0  0  0  0  0  0
  190.2500  172.0720  134.3900 O   0  0  0  0  0  0  0  0  0  0  0  0
  1  4  1  0  0  0  0
  2  6  1  0  0  0  0
  3  5  1  0  0  0  0
  3  2  2  0  0  0  0
  5  1  2  0  0  0  0
  6  4  2  0  0  0  0
  7  2  1  0  0  0  0
  8  7  1  0  0  0  0
  9 10  1  0  0  0  0
  9  8  1  0  0  0  0
 11 10  1  0  0  0  0
 13 12  2  0  0  0  0
 13 14  1  0  0  0  0
 14 11  1  0  0  0  0
 15 17  1  0  0  0  0
 16 15  1  0  0  0  0
 16 17  1  0  0  0  0
 16 13  1  1  0  0  0
 17 18  1  6  0  0  0
 19 24  1  6  0  0  0
 19 21  1  0  0  0  0
 20 19  1  0  0  0  0
 20 21  1  0  0  0  0
 21 18  1  1  0  0  0
 21 23  1  0  0  0  0
 22 23  1  0  0  0  0
 24 28  1  6  0  0  0
 24 25  1  0  0  0  0
 25 27  1  0  0  0  0
 26 25  2  0  0  0  0
 29 28  1  0  0  0  0
 30 34  1  0  0  0  0
 30  5  1  0  0  0  0
 31 34  1  0  0  0  0
 33 36  1  0  0  0  0
 35 33  2  0  0  0  0
 36 32  1  0  0  0  0
 36 31  1  0  0  0  0
 37 33  1  1  0  0  0
 37 38  1  0  0  0  0
 38 34  1  0  0  0  0
 40 43  2  0  0  0  0
 41 45  1  1  0  0  0
 41 44  1  0  0  0  0
 42 41  1  0  0  0  0
 42 43  1  0  0  0  0
 43 39  1  0  0  0  0
 44 39  1  1  0  0  0
 44 37  1  0  0  0  0
 46 45  1  0  0  0  0
 47 52  1  0  0  0  0
 48 51  1  0  0  0  0
 48 50  2  0  0  0  0
 49 52  2  0  0  0  0
 50 49  1  0  0  0  0
 51 47  2  0  0  0  0
 52 46  1  0  0  0  0
 53 48  1  0  0  0  0
 54 53  1  0  0  0  0
 55 53  2  0  0  0  0
M  END
>  <MODEL>
9

>  <REMARK>
 VINA RESULT:      -4.4      3.006     10.208
  Name = 
  20 active torsions:
  status: ('A' for Active; 'I' for Inactive)
    1  A    between atoms: C_1  and  C_53
    2  A    between atoms: C_2  and  N_28
    3  A    between atoms: C_2  and  C_44
    4  A    between atoms: C_3  and  C_53
    5  A    between atoms: O_6  and  C_53
    6  A    between atoms: C_8  and  N_22
    7  A    between atoms: C_8  and  C_35
    8  A    between atoms: C_10  and  C_32
    9  A    between atoms: C_16  and  C_36
   10  A    between atoms: C_20  and  C_42
   11  A    between atoms: C_25  and  C_38
   12  A    between atoms: C_26  and  C_45
   13  A    between atoms: C_27  and  C_54
   14  A    between atoms: C_29  and  C_38
   15  A    between atoms: C_29  and  C_50
   16  A    between atoms: N_33  and  C_36
   17  A    between atoms: N_33  and  C_52
   18  A    between atoms: C_35  and  C_43
   19  A    between atoms: C_43  and  S_51
   20  A    between atoms: S_51  and  C_54
                            x       y       z     vdW  Elec       q    Type
                         _______ _______ _______ _____ _____    ______ ____

>  <TORSDO>
F 20

$$$$
