=
 OpenBabel10272413413D

 30 36  0  0  1  0  0  0  0  0999 V2000
  186.8520  178.4810  142.1740 C   0  0  2  0  0  3  0  0  0  0  0  0
  188.3670  177.8890  140.1340 C   0  0  0  0  0  0  0  0  0  0  0  0
  191.2450  176.9970  143.9720 N   0  0  0  0  0  2  0  0  0  0  0  0
  186.7560  177.7250  143.4960 C   0  0  2  0  0  3  0  0  0  0  0  0
  185.4770  178.5530  141.6050 C   0  0  0  0  0  3  0  0  0  0  0  0
  183.2590  178.7380  144.8170 S   0  0  0  0  0  0  0  0  0  0  0  0
  187.0400  177.2100  146.4720 C   0  0  1  0  0  3  0  0  0  0  0  0
  184.7690  179.2610  143.9220 C   0  0  2  0  0  3  0  0  0  0  0  0
  183.1450  178.8780  142.0910 N   0  0  0  0  0  2  0  0  0  0  0  0
  188.5320  177.3190  146.1780 C   0  0  2  0  0  3  0  0  0  0  0  0
  190.4420  177.9730  144.6640 C   0  0  0  0  0  0  0  0  0  0  0  0
  184.5120  178.9500  142.4500 C   0  0  0  0  0  0  0  0  0  0  0  0
  186.1200  178.7030  144.4840 C   0  0  1  0  0  3  0  0  0  0  0  0
  189.5480  177.3020  139.7750 N   0  0  0  0  0  0  0  0  0  0  0  0
  189.0490  178.0340  147.3780 C   0  0  0  0  0  2  0  0  0  0  0  0
  186.9080  177.0600  147.8670 O   0  0  0  0  0  0  0  0  0  0  0  0
  181.1100  179.0030  143.2330 O   0  0  0  0  0  0  0  0  0  0  0  0
  187.6140  178.6260  139.1770 N   0  0  0  0  0  1  0  0  0  0  0  0
  190.7680  175.9420  143.0850 C   0  0  0  0  0  2  0  0  0  0  0  0
  190.3310  176.6390  140.6810 C   0  0  0  0  0  3  0  0  0  0  0  0
  182.3610  178.8780  143.2720 C   0  0  0  0  0  0  0  0  0  0  0  0
  187.9340  177.7710  141.4580 C   0  0  0  0  0  0  0  0  0  0  0  0
  188.1440  177.1290  143.7480 C   0  0  2  0  0  3  0  0  0  0  0  0
  191.0340  178.9410  145.2080 O   0  0  0  0  0  0  0  0  0  0  0  0
  188.9280  177.9040  144.8180 C   0  0  1  0  0  3  0  0  0  0  0  0
  188.1000  177.5480  148.4540 C   0  0  0  0  0  2  0  0  0  0  0  0
  186.3190  179.6490  146.7840 C   0  0  0  0  0  1  0  0  0  0  0  0
  189.9200  176.5400  142.0180 C   0  0  0  0  0  0  0  0  0  0  0  0
  188.7230  177.1280  142.3790 C   0  0  0  0  0  0  0  0  0  0  0  0
  186.1260  178.3680  145.9860 C   0  0  2  0  0  3  0  0  0  0  0  0
  1  5  1  6  0  0  0
  1  4  1  0  0  0  0
  2 22  1  0  0  0  0
  3 11  1  0  0  0  0
  4 23  1  0  0  0  0
  4 13  1  0  0  0  0
  5 12  2  0  0  0  0
  7 16  1  0  0  0  0
  8 13  1  0  0  0  0
  8  6  1  0  0  0  0
  9 12  1  0  0  0  0
  9 21  1  0  0  0  0
 10  7  1  0  0  0  0
 10 15  1  0  0  0  0
 11 25  1  0  0  0  0
 11 24  2  0  0  0  0
 12  8  1  0  0  0  0
 13 30  1  0  0  0  0
 14  2  2  0  0  0  0
 14 20  1  0  0  0  0
 15 26  1  0  0  0  0
 16 26  1  0  0  0  0
 17 21  2  0  0  0  0
 18  2  1  0  0  0  0
 19  3  1  0  0  0  0
 20 28  2  0  0  0  0
 21  6  1  0  0  0  0
 22  1  1  0  0  0  0
 22 29  2  0  0  0  0
 23 25  1  0  0  0  0
 25 10  1  0  0  0  0
 28 29  1  0  0  0  0
 28 19  1  0  0  0  0
 29 23  1  0  0  0  0
 30  7  1  0  0  0  0
 30 27  1  0  0  0  0
M  END
>  <MODEL>
1

>  <REMARK>
 VINA RESULT:     -10.7      0.000      0.000
  Name = 
  0 active torsions:
  status: ('A' for Active; 'I' for Inactive)
                            x       y       z     vdW  Elec       q    Type
                         _______ _______ _______ _____ _____    ______ ____

>  <TORSDO>
F 0

$$$$
=
 OpenBabel10272413413D

 30 36  0  0  1  0  0  0  0  0999 V2000
  187.8940  178.2100  145.7360 C   0  0  2  0  0  3  0  0  0  0  0  0
  185.4630  178.8390  146.4440 C   0  0  0  0  0  0  0  0  0  0  0  0
  185.2290  178.7410  141.5720 N   0  0  0  0  0  2  0  0  0  0  0  0
  188.3070  177.2640  144.6130 C   0  0  2  0  0  3  0  0  0  0  0  0
  188.5260  177.7110  146.9900 C   0  0  0  0  0  3  0  0  0  0  0  0
  191.8660  176.1650  145.6750 S   0  0  0  0  0  0  0  0  0  0  0  0
  189.5050  176.3880  141.9670 C   0  0  1  0  0  3  0  0  0  0  0  0
  190.6340  177.5200  145.6150 C   0  0  2  0  0  3  0  0  0  0  0  0
  190.5050  176.7560  147.9680 N   0  0  0  0  0  2  0  0  0  0  0  0
  188.4090  177.2650  141.3710 C   0  0  2  0  0  3  0  0  0  0  0  0
  186.6370  179.0460  141.6060 C   0  0  0  0  0  0  0  0  0  0  0  0
  189.8330  177.4140  146.9100 C   0  0  0  0  0  0  0  0  0  0  0  0
  189.7690  177.5950  144.3120 C   0  0  1  0  0  3  0  0  0  0  0  0
  184.1860  178.9850  145.9800 N   0  0  0  0  0  0  0  0  0  0  0  0
  189.0920  177.8930  140.2070 C   0  0  0  0  0  2  0  0  0  0  0  0
  190.2880  175.9250  140.8900 O   0  0  0  0  0  0  0  0  0  0  0  0
  192.5470  175.6490  148.2170 O   0  0  0  0  0  0  0  0  0  0  0  0
  185.8050  179.2850  147.7510 N   0  0  0  0  0  1  0  0  0  0  0  0
  184.5210  177.7820  142.4120 C   0  0  0  0  0  2  0  0  0  0  0  0
  183.8340  178.6270  144.7070 C   0  0  0  0  0  3  0  0  0  0  0  0
  191.6770  176.1450  147.4570 C   0  0  0  0  0  0  0  0  0  0  0  0
  186.4230  178.2720  145.6010 C   0  0  0  0  0  0  0  0  0  0  0  0
  187.2260  177.3850  143.5350 C   0  0  2  0  0  3  0  0  0  0  0  0
  187.0340  180.0530  140.9650 O   0  0  0  0  0  0  0  0  0  0  0  0
  187.6900  178.2190  142.3320 C   0  0  1  0  0  3  0  0  0  0  0  0
  190.0700  176.8080  139.8060 C   0  0  0  0  0  2  0  0  0  0  0  0
  191.3870  178.0520  142.4690 C   0  0  0  0  0  1  0  0  0  0  0  0
  184.7940  178.0840  143.8430 C   0  0  0  0  0  0  0  0  0  0  0  0
  186.0850  177.9300  144.3150 C   0  0  0  0  0  0  0  0  0  0  0  0
  190.4270  177.0220  143.0450 C   0  0  2  0  0  3  0  0  0  0  0  0
  1  5  1  1  0  0  0
  2 18  1  0  0  0  0
  3 11  1  0  0  0  0
  3 19  1  0  0  0  0
  4  1  1  0  0  0  0
  6 21  1  0  0  0  0
  7 30  1  0  0  0  0
  8  6  1  0  0  0  0
  8 12  1  0  0  0  0
 10  7  1  0  0  0  0
 10 25  1  0  0  0  0
 11 25  1  0  0  0  0
 12  5  2  0  0  0  0
 12  9  1  0  0  0  0
 13  4  1  0  0  0  0
 13  8  1  0  0  0  0
 14  2  1  0  0  0  0
 15 10  1  0  0  0  0
 16  7  1  0  0  0  0
 19 28  1  0  0  0  0
 20 14  2  0  0  0  0
 21  9  1  0  0  0  0
 21 17  2  0  0  0  0
 22  1  1  0  0  0  0
 22  2  2  0  0  0  0
 23 29  1  0  0  0  0
 23  4  1  0  0  0  0
 24 11  2  0  0  0  0
 25 23  1  0  0  0  0
 26 15  1  0  0  0  0
 26 16  1  0  0  0  0
 27 30  1  0  0  0  0
 28 29  2  0  0  0  0
 28 20  1  0  0  0  0
 29 22  1  0  0  0  0
 30 13  1  0  0  0  0
M  END
>  <MODEL>
2

>  <REMARK>
 VINA RESULT:     -10.5      3.035      6.861
  Name = 
  0 active torsions:
  status: ('A' for Active; 'I' for Inactive)
                            x       y       z     vdW  Elec       q    Type
                         _______ _______ _______ _____ _____    ______ ____

>  <TORSDO>
F 0

$$$$
=
 OpenBabel10272413413D

 30 36  0  0  1  0  0  0  0  0999 V2000
  188.0160  177.3810  142.2190 C   0  0  2  0  0  3  0  0  0  0  0  0
  190.4770  176.8820  141.5120 C   0  0  0  0  0  0  0  0  0  0  0  0
  188.2140  177.6490  137.2580 N   0  0  0  0  0  2  0  0  0  0  0  0
  187.0830  178.4280  141.6190 C   0  0  2  0  0  3  0  0  0  0  0  0
  188.0990  177.6510  143.6820 C   0  0  0  0  0  3  0  0  0  0  0  0
  184.5380  179.0540  144.4710 S   0  0  0  0  0  0  0  0  0  0  0  0
  184.7030  179.5380  140.0990 C   0  0  1  0  0  3  0  0  0  0  0  0
  185.5840  177.8340  143.5910 C   0  0  2  0  0  3  0  0  0  0  0  0
  186.8780  178.2860  145.6540 N   0  0  0  0  0  2  0  0  0  0  0  0
  185.3560  178.8490  138.9060 C   0  0  2  0  0  3  0  0  0  0  0  0
  187.0200  177.2180  137.9390 C   0  0  0  0  0  0  0  0  0  0  0  0
  186.9290  177.8370  144.3120 C   0  0  0  0  0  0  0  0  0  0  0  0
  185.6720  178.0110  142.0370 C   0  0  1  0  0  3  0  0  0  0  0  0
  191.3460  176.9130  140.4570 N   0  0  0  0  0  0  0  0  0  0  0  0
  184.1840  178.3230  138.1530 C   0  0  0  0  0  2  0  0  0  0  0  0
  183.4790  180.0690  139.6460 O   0  0  0  0  0  0  0  0  0  0  0  0
  185.2320  179.1640  147.0600 O   0  0  0  0  0  0  0  0  0  0  0  0
  190.8470  176.2370  142.7260 N   0  0  0  0  0  1  0  0  0  0  0  0
  189.2410  178.5470  137.7750 C   0  0  0  0  0  2  0  0  0  0  0  0
  191.0030  177.4680  139.2540 C   0  0  0  0  0  3  0  0  0  0  0  0
  185.6020  178.8540  145.8990 C   0  0  0  0  0  0  0  0  0  0  0  0
  189.2180  177.4690  141.3620 C   0  0  0  0  0  0  0  0  0  0  0  0
  187.4710  178.5480  140.1430 C   0  0  2  0  0  3  0  0  0  0  0  0
  186.3630  176.2730  137.4300 O   0  0  0  0  0  0  0  0  0  0  0  0
  186.4710  177.8440  139.2140 C   0  0  1  0  0  3  0  0  0  0  0  0
  183.1260  179.3600  138.4710 C   0  0  0  0  0  2  0  0  0  0  0  0
  183.3490  177.6610  141.1980 C   0  0  0  0  0  1  0  0  0  0  0  0
  189.7320  178.0340  139.0830 C   0  0  0  0  0  0  0  0  0  0  0  0
  188.8550  178.0070  140.1520 C   0  0  0  0  0  0  0  0  0  0  0  0
  184.4590  178.6870  141.3760 C   0  0  2  0  0  3  0  0  0  0  0  0
  1  5  1  1  0  0  0
  2 18  1  0  0  0  0
  3 19  1  0  0  0  0
  3 11  1  0  0  0  0
  4 13  1  0  0  0  0
  4  1  1  0  0  0  0
  5 12  2  0  0  0  0
  6 21  1  0  0  0  0
  7 30  1  0  0  0  0
  8 12  1  0  0  0  0
  8  6  1  0  0  0  0
  9 21  1  0  0  0  0
 10 25  1  0  0  0  0
 10  7  1  0  0  0  0
 11 25  1  0  0  0  0
 12  9  1  0  0  0  0
 13  8  1  0  0  0  0
 14  2  2  0  0  0  0
 15 26  1  0  0  0  0
 15 10  1  0  0  0  0
 16  7  1  0  0  0  0
 19 28  1  0  0  0  0
 20 14  1  0  0  0  0
 21 17  2  0  0  0  0
 22  2  1  0  0  0  0
 22  1  1  0  0  0  0
 23 29  1  0  0  0  0
 23  4  1  0  0  0  0
 24 11  2  0  0  0  0
 25 23  1  0  0  0  0
 26 16  1  0  0  0  0
 27 30  1  0  0  0  0
 28 20  2  0  0  0  0
 28 29  1  0  0  0  0
 29 22  2  0  0  0  0
 30 13  1  0  0  0  0
M  END
>  <MODEL>
3

>  <REMARK>
 VINA RESULT:      -8.9      2.656      5.715
  Name = 
  0 active torsions:
  status: ('A' for Active; 'I' for Inactive)
                            x       y       z     vdW  Elec       q    Type
                         _______ _______ _______ _____ _____    ______ ____

>  <TORSDO>
F 0

$$$$
=
 OpenBabel10272413413D

 30 36  0  0  1  0  0  0  0  0999 V2000
  189.2780  177.8490  143.5640 C   0  0  2  0  0  3  0  0  0  0  0  0
  190.5290  177.3870  145.8060 C   0  0  0  0  0  0  0  0  0  0  0  0
  185.9740  178.3800  147.2420 N   0  0  0  0  0  2  0  0  0  0  0  0
  187.8650  177.4080  143.1940 C   0  0  2  0  0  3  0  0  0  0  0  0
  190.1950  177.3210  142.5140 C   0  0  0  0  0  3  0  0  0  0  0  0
  187.9420  177.4230  139.3210 S   0  0  0  0  0  0  0  0  0  0  0  0
  184.9210  177.6740  142.5120 C   0  0  1  0  0  3  0  0  0  0  0  0
  188.5070  178.2250  140.8690 C   0  0  2  0  0  3  0  0  0  0  0  0
  190.4940  176.9260  140.1610 N   0  0  0  0  0  2  0  0  0  0  0  0
  184.8140  178.2210  143.9320 C   0  0  2  0  0  3  0  0  0  0  0  0
  185.8730  179.1470  146.0260 C   0  0  0  0  0  0  0  0  0  0  0  0
  189.8170  177.5360  141.2440 C   0  0  0  0  0  0  0  0  0  0  0  0
  187.4500  178.2980  142.0220 C   0  0  1  0  0  3  0  0  0  0  0  0
  190.3470  177.1770  147.1450 N   0  0  0  0  0  0  0  0  0  0  0  0
  183.8080  179.3100  143.7860 C   0  0  0  0  0  2  0  0  0  0  0  0
  183.6420  177.7910  141.9310 O   0  0  0  0  0  0  0  0  0  0  0  0
  190.0530  176.5890  137.8920 O   0  0  0  0  0  0  0  0  0  0  0  0
  191.8380  177.5980  145.2870 N   0  0  0  0  0  1  0  0  0  0  0  0
  186.5770  177.0610  147.3970 C   0  0  0  0  0  2  0  0  0  0  0  0
  189.1000  177.0330  147.6900 C   0  0  0  0  0  3  0  0  0  0  0  0
  189.6360  176.9110  139.0330 C   0  0  0  0  0  0  0  0  0  0  0  0
  189.4090  177.4150  144.9720 C   0  0  0  0  0  0  0  0  0  0  0  0
  187.0680  177.3920  144.5010 C   0  0  2  0  0  3  0  0  0  0  0  0
  185.5220  180.3520  146.1190 O   0  0  0  0  0  0  0  0  0  0  0  0
  186.1260  178.5980  144.6270 C   0  0  1  0  0  3  0  0  0  0  0  0
  182.9370  178.7720  142.6690 C   0  0  0  0  0  2  0  0  0  0  0  0
  185.6050  179.7250  141.1380 C   0  0  0  0  0  1  0  0  0  0  0  0
  187.9670  177.0890  146.8670 C   0  0  0  0  0  0  0  0  0  0  0  0
  188.1520  177.2950  145.5130 C   0  0  0  0  0  0  0  0  0  0  0  0
  185.9790  178.3160  141.5730 C   0  0  2  0  0  3  0  0  0  0  0  0
  1  5  1  6  0  0  0
  1 22  1  0  0  0  0
  2 14  1  0  0  0  0
  3 19  1  0  0  0  0
  4  1  1  0  0  0  0
  4 23  1  0  0  0  0
  6  8  1  0  0  0  0
  7 10  1  0  0  0  0
  8 12  1  0  0  0  0
  8 13  1  0  0  0  0
  9 12  1  0  0  0  0
 10 25  1  0  0  0  0
 11 24  2  0  0  0  0
 11  3  1  0  0  0  0
 12  5  2  0  0  0  0
 13  4  1  0  0  0  0
 14 20  2  0  0  0  0
 15 10  1  0  0  0  0
 16  7  1  0  0  0  0
 16 26  1  0  0  0  0
 17 21  2  0  0  0  0
 18  2  1  0  0  0  0
 21  6  1  0  0  0  0
 21  9  1  0  0  0  0
 22 29  1  0  0  0  0
 22  2  2  0  0  0  0
 23 25  1  0  0  0  0
 23 29  1  0  0  0  0
 25 11  1  0  0  0  0
 26 15  1  0  0  0  0
 27 30  1  0  0  0  0
 28 19  1  0  0  0  0
 28 20  1  0  0  0  0
 29 28  2  0  0  0  0
 30 13  1  0  0  0  0
 30  7  1  0  0  0  0
M  END
>  <MODEL>
4

>  <REMARK>
 VINA RESULT:      -8.6      2.656      5.892
  Name = 
  0 active torsions:
  status: ('A' for Active; 'I' for Inactive)
                            x       y       z     vdW  Elec       q    Type
                         _______ _______ _______ _____ _____    ______ ____

>  <TORSDO>
F 0

$$$$
=
 OpenBabel10272413413D

 30 36  0  0  1  0  0  0  0  0999 V2000
  185.8880  178.0700  141.4010 C   0  0  2  0  0  3  0  0  0  0  0  0
  183.4660  178.6560  142.1720 C   0  0  0  0  0  0  0  0  0  0  0  0
  185.9030  178.1840  146.3720 N   0  0  0  0  0  2  0  0  0  0  0  0
  187.1920  178.5820  142.0030 C   0  0  2  0  0  3  0  0  0  0  0  0
  185.9060  178.4120  139.9500 C   0  0  0  0  0  3  0  0  0  0  0  0
  189.7110  178.1660  139.0900 S   0  0  0  0  0  0  0  0  0  0  0  0
  189.8420  178.4860  143.4780 C   0  0  1  0  0  3  0  0  0  0  0  0
  188.2530  177.4830  139.9650 C   0  0  2  0  0  3  0  0  0  0  0  0
  187.2510  178.5390  137.9610 N   0  0  0  0  0  2  0  0  0  0  0  0
  188.9730  178.0970  144.6690 C   0  0  2  0  0  3  0  0  0  0  0  0
  186.7810  177.3080  145.6390 C   0  0  0  0  0  0  0  0  0  0  0  0
  187.0320  178.1000  139.2880 C   0  0  0  0  0  0  0  0  0  0  0  0
  188.2740  177.6130  141.5250 C   0  0  1  0  0  3  0  0  0  0  0  0
  182.7130  179.0160  143.2560 N   0  0  0  0  0  0  0  0  0  0  0  0
  189.8120  177.0830  145.3670 C   0  0  0  0  0  2  0  0  0  0  0  0
  191.1820  178.4130  143.9080 O   0  0  0  0  0  0  0  0  0  0  0  0
  189.0930  178.6770  136.5300 O   0  0  0  0  0  0  0  0  0  0  0  0
  182.8330  178.2890  140.9510 N   0  0  0  0  0  1  0  0  0  0  0  0
  185.3600  179.4600  145.9170 C   0  0  0  0  0  2  0  0  0  0  0  0
  183.2820  179.3150  144.4630 C   0  0  0  0  0  3  0  0  0  0  0  0
  188.6420  178.5080  137.6920 C   0  0  0  0  0  0  0  0  0  0  0  0
  184.8570  178.6330  142.2990 C   0  0  0  0  0  0  0  0  0  0  0  0
  186.9170  178.7960  143.4940 C   0  0  2  0  0  3  0  0  0  0  0  0
  186.9710  176.1510  146.0960 O   0  0  0  0  0  0  0  0  0  0  0  0
  187.5270  177.6880  144.3660 C   0  0  1  0  0  3  0  0  0  0  0  0
  191.2100  177.5730  145.0470 C   0  0  0  0  0  2  0  0  0  0  0  0
  190.2280  176.2560  142.2760 C   0  0  0  0  0  1  0  0  0  0  0  0
  184.6750  179.2660  144.6110 C   0  0  0  0  0  0  0  0  0  0  0  0
  185.4360  178.9090  143.5130 C   0  0  0  0  0  0  0  0  0  0  0  0
  189.6720  177.6680  142.1680 C   0  0  2  0  0  3  0  0  0  0  0  0
  1  5  1  6  0  0  0
  1  4  1  0  0  0  0
  1 22  1  0  0  0  0
  2 22  2  0  0  0  0
  2 14  1  0  0  0  0
  4 23  1  0  0  0  0
  6  8  1  0  0  0  0
  7 16  1  0  0  0  0
  7 10  1  0  0  0  0
  8 13  1  0  0  0  0
  9 12  1  0  0  0  0
 10 15  1  0  0  0  0
 11 24  2  0  0  0  0
 11  3  1  0  0  0  0
 12  5  2  0  0  0  0
 12  8  1  0  0  0  0
 13  4  1  0  0  0  0
 13 30  1  0  0  0  0
 14 20  2  0  0  0  0
 16 26  1  0  0  0  0
 17 21  2  0  0  0  0
 18  2  1  0  0  0  0
 19  3  1  0  0  0  0
 20 28  1  0  0  0  0
 21  9  1  0  0  0  0
 21  6  1  0  0  0  0
 22 29  1  0  0  0  0
 23 29  1  0  0  0  0
 23 25  1  0  0  0  0
 25 10  1  0  0  0  0
 25 11  1  0  0  0  0
 26 15  1  0  0  0  0
 28 19  1  0  0  0  0
 29 28  2  0  0  0  0
 30 27  1  0  0  0  0
 30  7  1  0  0  0  0
M  END
>  <MODEL>
5

>  <REMARK>
 VINA RESULT:      -8.3      2.709      5.492
  Name = 
  0 active torsions:
  status: ('A' for Active; 'I' for Inactive)
                            x       y       z     vdW  Elec       q    Type
                         _______ _______ _______ _____ _____    ______ ____

>  <TORSDO>
F 0

$$$$
=
 OpenBabel10272413413D

 30 36  0  0  1  0  0  0  0  0999 V2000
  188.4380  177.2390  139.5100 C   0  0  2  0  0  3  0  0  0  0  0  0
  186.0800  177.9050  138.6160 C   0  0  0  0  0  0  0  0  0  0  0  0
  185.6800  178.5430  143.4360 N   0  0  0  0  0  2  0  0  0  0  0  0
  189.2280  177.9270  140.6190 C   0  0  2  0  0  3  0  0  0  0  0  0
  189.3030  177.2230  138.2960 C   0  0  0  0  0  3  0  0  0  0  0  0
  192.8830  176.9150  139.8330 S   0  0  0  0  0  0  0  0  0  0  0  0
  190.5680  178.2830  143.3180 C   0  0  1  0  0  3  0  0  0  0  0  0
  191.1220  176.4100  139.8460 C   0  0  2  0  0  3  0  0  0  0  0  0
  191.5350  176.9180  137.4570 N   0  0  0  0  0  2  0  0  0  0  0  0
  189.1450  178.1610  143.8520 C   0  0  2  0  0  3  0  0  0  0  0  0
  186.7170  177.5490  143.5450 C   0  0  0  0  0  0  0  0  0  0  0  0
  190.5640  176.8020  138.4800 C   0  0  0  0  0  0  0  0  0  0  0  0
  190.2800  176.9120  141.0670 C   0  0  1  0  0  3  0  0  0  0  0  0
  184.8940  178.4870  138.9690 N   0  0  0  0  0  0  0  0  0  0  0  0
  189.3340  177.3750  145.1030 C   0  0  0  0  0  2  0  0  0  0  0  0
  191.4200  178.3640  144.4370 O   0  0  0  0  0  0  0  0  0  0  0  0
  193.8640  176.7750  137.3400 O   0  0  0  0  0  0  0  0  0  0  0  0
  186.2040  177.2330  137.3680 N   0  0  0  0  0  1  0  0  0  0  0  0
  185.6260  179.6510  142.4900 C   0  0  0  0  0  2  0  0  0  0  0  0
  184.7170  179.0870  140.1850 C   0  0  0  0  0  3  0  0  0  0  0  0
  192.8260  176.8730  138.0420 C   0  0  0  0  0  0  0  0  0  0  0  0
  187.1490  177.9630  139.5140 C   0  0  0  0  0  0  0  0  0  0  0  0
  188.1900  178.4820  141.5990 C   0  0  2  0  0  3  0  0  0  0  0  0
  186.4920  176.5430  144.2670 O   0  0  0  0  0  0  0  0  0  0  0  0
  188.0830  177.6390  142.8780 C   0  0  1  0  0  3  0  0  0  0  0  0
  190.7150  177.8230  145.5390 C   0  0  0  0  0  2  0  0  0  0  0  0
  191.3180  175.8460  143.0690 C   0  0  0  0  0  1  0  0  0  0  0  0
  185.7740  179.1260  141.1050 C   0  0  0  0  0  0  0  0  0  0  0  0
  186.9750  178.5430  140.7460 C   0  0  0  0  0  0  0  0  0  0  0  0
  191.0740  177.1690  142.3590 C   0  0  2  0  0  3  0  0  0  0  0  0
  1  5  1  6  0  0  0
  1 22  1  0  0  0  0
  1  4  1  0  0  0  0
  2 14  2  0  0  0  0
  2 22  1  0  0  0  0
  3 11  1  0  0  0  0
  4 13  1  0  0  0  0
  4 23  1  0  0  0  0
  5 12  2  0  0  0  0
  6  8  1  0  0  0  0
  7 10  1  0  0  0  0
  7 16  1  0  0  0  0
  8 13  1  0  0  0  0
  9 21  1  0  0  0  0
  9 12  1  0  0  0  0
 10 15  1  0  0  0  0
 11 24  2  0  0  0  0
 12  8  1  0  0  0  0
 13 30  1  0  0  0  0
 14 20  1  0  0  0  0
 15 26  1  0  0  0  0
 16 26  1  0  0  0  0
 17 21  2  0  0  0  0
 18  2  1  0  0  0  0
 19  3  1  0  0  0  0
 20 28  2  0  0  0  0
 21  6  1  0  0  0  0
 22 29  2  0  0  0  0
 23 25  1  0  0  0  0
 25 11  1  0  0  0  0
 25 10  1  0  0  0  0
 28 19  1  0  0  0  0
 29 28  1  0  0  0  0
 29 23  1  0  0  0  0
 30 27  1  0  0  0  0
 30  7  1  0  0  0  0
M  END
>  <MODEL>
6

>  <REMARK>
 VINA RESULT:      -8.1      3.203      6.285
  Name = 
  0 active torsions:
  status: ('A' for Active; 'I' for Inactive)
                            x       y       z     vdW  Elec       q    Type
                         _______ _______ _______ _____ _____    ______ ____

>  <TORSDO>
F 0

$$$$
=
 OpenBabel10272413413D

 30 36  0  0  1  0  0  0  0  0999 V2000
  186.4160  178.4880  143.0550 C   0  0  2  0  0  3  0  0  0  0  0  0
  184.2210  178.9280  144.3950 C   0  0  0  0  0  0  0  0  0  0  0  0
  182.7870  179.2510  139.7430 N   0  0  0  0  0  2  0  0  0  0  0  0
  186.5620  177.6670  141.7780 C   0  0  2  0  0  3  0  0  0  0  0  0
  187.3530  177.9120  144.0610 C   0  0  0  0  0  3  0  0  0  0  0  0
  190.3020  176.6600  141.8230 S   0  0  0  0  0  0  0  0  0  0  0  0
  187.0890  177.0910  138.8460 C   0  0  1  0  0  3  0  0  0  0  0  0
  189.0580  177.9510  142.2010 C   0  0  2  0  0  3  0  0  0  0  0  0
  189.5370  176.9750  144.4260 N   0  0  0  0  0  2  0  0  0  0  0  0
  185.8560  177.9610  138.6270 C   0  0  2  0  0  3  0  0  0  0  0  0
  184.1490  179.6220  139.4620 C   0  0  0  0  0  0  0  0  0  0  0  0
  188.6070  177.6900  143.6350 C   0  0  0  0  0  0  0  0  0  0  0  0
  187.8940  178.0970  141.1630 C   0  0  1  0  0  3  0  0  0  0  0  0
  182.8650  179.0490  144.2750 N   0  0  0  0  0  0  0  0  0  0  0  0
  186.2100  178.7250  137.3980 C   0  0  0  0  0  2  0  0  0  0  0  0
  187.5920  176.7660  137.5710 O   0  0  0  0  0  0  0  0  0  0  0  0
  191.6070  175.9550  144.0580 O   0  0  0  0  0  0  0  0  0  0  0  0
  184.8650  179.2720  145.6170 N   0  0  0  0  0  1  0  0  0  0  0  0
  182.3350  178.1860  140.6330 C   0  0  0  0  0  2  0  0  0  0  0  0
  182.2170  178.7880  143.0980 C   0  0  0  0  0  3  0  0  0  0  0  0
  190.5620  176.4720  143.5860 C   0  0  0  0  0  0  0  0  0  0  0  0
  184.9560  178.4870  143.2920 C   0  0  0  0  0  0  0  0  0  0  0  0
  185.2450  177.8280  141.0150 C   0  0  2  0  0  3  0  0  0  0  0  0
  184.3480  180.7020  138.8460 O   0  0  0  0  0  0  0  0  0  0  0  0
  185.3720  178.7880  139.8230 C   0  0  1  0  0  3  0  0  0  0  0  0
  187.0880  177.7300  136.6650 C   0  0  0  0  0  2  0  0  0  0  0  0
  188.9910  178.7980  139.0340 C   0  0  0  0  0  1  0  0  0  0  0  0
  182.9470  178.3730  141.9760 C   0  0  0  0  0  0  0  0  0  0  0  0
  184.3190  178.2440  142.1000 C   0  0  0  0  0  0  0  0  0  0  0  0
  188.2320  177.6730  139.7230 C   0  0  2  0  0  3  0  0  0  0  0  0
  1 22  1  0  0  0  0
  1  5  1  1  0  0  0
  2 18  1  0  0  0  0
  3 19  1  0  0  0  0
  4  1  1  0  0  0  0
  6  8  1  0  0  0  0
  6 21  1  0  0  0  0
  7 30  1  0  0  0  0
  8 12  1  0  0  0  0
 10  7  1  0  0  0  0
 10 25  1  0  0  0  0
 11  3  1  0  0  0  0
 11 25  1  0  0  0  0
 12  5  2  0  0  0  0
 12  9  1  0  0  0  0
 13  4  1  0  0  0  0
 13  8  1  0  0  0  0
 14  2  1  0  0  0  0
 15 10  1  0  0  0  0
 16  7  1  0  0  0  0
 19 28  1  0  0  0  0
 20 14  2  0  0  0  0
 21 17  2  0  0  0  0
 21  9  1  0  0  0  0
 22  2  2  0  0  0  0
 23  4  1  0  0  0  0
 23 29  1  0  0  0  0
 24 11  2  0  0  0  0
 25 23  1  0  0  0  0
 26 15  1  0  0  0  0
 26 16  1  0  0  0  0
 27 30  1  0  0  0  0
 28 29  2  0  0  0  0
 28 20  1  0  0  0  0
 29 22  1  0  0  0  0
 30 13  1  0  0  0  0
M  END
>  <MODEL>
7

>  <REMARK>
 VINA RESULT:      -7.8      3.066      7.465
  Name = 
  0 active torsions:
  status: ('A' for Active; 'I' for Inactive)
                            x       y       z     vdW  Elec       q    Type
                         _______ _______ _______ _____ _____    ______ ____

>  <TORSDO>
F 0

$$$$
