=
 OpenBabel10272414443D

 37 43  0  0  1  0  0  0  0  0999 V2000
  188.6550  176.2430  142.8830 C   0  0  0  0  0  2  0  0  0  0  0  0
  183.6540  177.8410  140.4540 C   0  0  0  0  0  2  0  0  0  0  0  0
  187.5420  177.7960  138.7130 C   0  0  0  0  0  0  0  0  0  0  0  0
  188.6170  176.5020  144.3900 C   0  0  1  0  0  3  0  0  0  0  0  0
  190.7500  177.0000  140.5100 C   0  0  0  0  0  2  0  0  0  0  0  0
  185.2630  178.6910  138.6420 C   0  0  0  0  0  0  0  0  0  0  0  0
  188.2740  177.2200  139.6610 C   0  0  1  0  0  3  0  0  0  0  0  0
  191.2980  179.1190  144.0440 C   0  0  0  0  0  0  0  0  0  0  0  0
  186.3760  178.4100  139.3210 C   0  0  0  0  0  0  0  0  0  0  0  0
  189.6730  176.7370  139.4640 C   0  0  0  0  0  0  0  0  0  0  0  0
  185.3130  178.4880  137.1700 C   0  0  0  0  0  3  0  0  0  0  0  0
  189.4150  177.7900  144.8050 C   0  0  0  0  0  2  0  0  0  0  0  0
  186.6210  178.4110  140.7590 C   0  0  0  0  0  0  0  0  0  0  0  0
  184.9170  178.6780  142.5580 C   0  0  0  0  0  2  0  0  0  0  0  0
  188.0140  176.2580  136.8560 C   0  0  0  0  0  3  0  0  0  0  0  0
  186.4170  178.0610  136.5090 C   0  0  0  0  0  3  0  0  0  0  0  0
  186.0400  179.3800  141.7250 C   0  0  0  0  0  2  0  0  0  0  0  0
  190.3130  178.3420  143.6970 C   0  0  0  0  0  0  0  0  0  0  0  0
  190.6200  178.3990  141.1130 C   0  0  0  0  0  2  0  0  0  0  0  0
  187.7080  177.6910  137.2240 C   0  0  0  0  0  0  0  0  0  0  0  0
  187.6920  177.6590  140.9430 C   0  0  0  0  0  0  0  0  0  0  0  0
  183.9090  178.8480  139.2970 C   0  0  0  0  0  2  0  0  0  0  0  0
  190.0170  176.0050  138.3530 C   0  0  0  0  0  0  0  0  0  0  0  0
  183.5890  178.5940  141.7820 C   0  0  0  0  0  2  0  0  0  0  0  0
  189.6840  178.4880  142.3180 C   0  0  1  0  0  3  0  0  0  0  0  0
  192.2720  179.8530  144.3740 O   0  0  0  0  0  0  0  0  0  0  0  0
  188.4050  177.6030  142.2450 C   0  0  2  0  0  3  0  0  0  0  0  0
  189.0380  175.5660  137.3540 C   0  0  0  0  0  3  0  0  0  0  0  0
  192.3960  176.5720  138.0370 C   0  0  0  0  0  3  0  0  0  0  0  0
  191.3940  175.5770  138.0800 C   0  0  0  0  0  0  0  0  0  0  0  0
  191.6800  174.2720  137.6440 C   0  0  0  0  0  3  0  0  0  0  0  0
  193.1950  172.7150  136.6920 F   0  0  0  0  0  0  0  0  0  0  0  0
  193.9440  174.9690  137.1010 C   0  0  0  0  0  3  0  0  0  0  0  0
  192.9450  173.9650  137.1580 C   0  0  0  0  0  0  0  0  0  0  0  0
  193.6530  176.2670  137.5390 C   0  0  0  0  0  3  0  0  0  0  0  0
  187.0340  177.9700  145.6600 C   0  0  0  0  0  1  0  0  0  0  0  0
  187.1380  176.7230  144.7980 C   0  0  0  0  0  2  0  0  0  0  0  0
  1  4  1  0  0  0  0
  2 24  1  0  0  0  0
  3  9  2  0  0  0  0
  4 37  1  6  0  0  0
  4 12  1  0  0  0  0
  5 19  1  0  0  0  0
  6 22  1  0  0  0  0
  6  9  1  0  0  0  0
  7  3  1  6  0  0  0
  7 21  1  0  0  0  0
  8 26  2  0  0  0  0
  9 13  1  0  0  0  0
 10  7  1  0  0  0  0
 10  5  1  0  0  0  0
 11  6  2  0  0  0  0
 13 21  2  0  0  0  0
 13 17  1  0  0  0  0
 15 20  1  0  0  0  0
 15 28  2  0  0  0  0
 16 11  1  0  0  0  0
 16 20  2  0  0  0  0
 17 14  1  0  0  0  0
 18  8  2  0  0  0  0
 18 12  1  0  0  0  0
 20  3  1  0  0  0  0
 21 27  1  0  0  0  0
 22  2  1  0  0  0  0
 23 10  2  0  0  0  0
 24 14  1  0  0  0  0
 25 19  1  6  0  0  0
 25 18  1  0  0  0  0
 27 25  1  0  0  0  0
 27  1  1  6  0  0  0
 28 23  1  0  0  0  0
 29 30  1  0  0  0  0
 30 23  1  0  0  0  0
 31 30  2  0  0  0  0
 32 34  1  0  0  0  0
 33 34  2  0  0  0  0
 33 35  1  0  0  0  0
 34 31  1  0  0  0  0
 35 29  2  0  0  0  0
 37 36  1  0  0  0  0
M  END
>  <MODEL>
1

>  <REMARK>
 VINA RESULT:      -8.1      0.000      0.000
  Name = 
  2 active torsions:
  status: ('A' for Active; 'I' for Inactive)
    1  A    between atoms: C_5  and  C_23
    2  A    between atoms: C_6  and  C_31
                            x       y       z     vdW  Elec       q    Type
                         _______ _______ _______ _____ _____    ______ ____

>  <TORSDO>
F 2

$$$$
=
 OpenBabel10272414443D

 37 43  0  0  1  0  0  0  0  0999 V2000
  183.6820  176.8850  138.8830 C   0  0  0  0  0  2  0  0  0  0  0  0
  188.7280  175.8040  136.2690 C   0  0  0  0  0  2  0  0  0  0  0  0
  188.0250  177.9970  139.8530 C   0  0  0  0  0  0  0  0  0  0  0  0
  182.5530  176.9400  137.8510 C   0  0  1  0  0  3  0  0  0  0  0  0
  184.6530  178.8610  141.2800 C   0  0  0  0  0  2  0  0  0  0  0  0
  189.5320  177.5460  137.9750 C   0  0  0  0  0  0  0  0  0  0  0  0
  186.7240  177.8110  140.0520 C   0  0  0  0  0  0  0  0  0  0  0  0
  182.0410  180.6010  138.5540 C   0  0  0  0  0  0  0  0  0  0  0  0
  188.3160  177.8370  138.4400 C   0  0  0  0  0  0  0  0  0  0  0  0
  186.0090  178.1670  141.3140 C   0  0  0  0  0  0  0  0  0  0  0  0
  190.6400  177.5420  138.9670 C   0  0  0  0  0  3  0  0  0  0  0  0
  182.1100  178.4090  137.5140 C   0  0  0  0  0  2  0  0  0  0  0  0
  187.0270  177.8310  137.7580 C   0  0  0  0  0  0  0  0  0  0  0  0
  186.5620  176.9800  135.4620 C   0  0  0  0  0  2  0  0  0  0  0  0
  188.8820  177.1290  141.9860 C   0  0  0  0  0  3  0  0  0  0  0  0
  190.4710  177.8320  140.2810 C   0  0  0  0  0  3  0  0  0  0  0  0
  186.8030  178.2460  136.3480 C   0  0  0  0  0  2  0  0  0  0  0  0
  182.6560  179.4560  138.4850 C   0  0  0  0  0  0  0  0  0  0  0  0
  184.5860  179.9120  140.1720 C   0  0  0  0  0  2  0  0  0  0  0  0
  189.1080  178.1380  140.8840 C   0  0  1  0  0  3  0  0  0  0  0  0
  186.1150  177.7490  138.7100 C   0  0  0  0  0  0  0  0  0  0  0  0
  189.7730  176.8970  136.6310 C   0  0  0  0  0  2  0  0  0  0  0  0
  186.5360  177.8380  142.5400 C   0  0  0  0  0  0  0  0  0  0  0  0
  187.8810  176.2770  135.0880 C   0  0  0  0  0  2  0  0  0  0  0  0
  184.1420  179.3760  138.8120 C   0  0  1  0  0  3  0  0  0  0  0  0
  181.4330  181.7040  138.6470 O   0  0  0  0  0  0  0  0  0  0  0  0
  184.6690  177.9580  138.4410 C   0  0  2  0  0  3  0  0  0  0  0  0
  187.7580  177.0440  142.6940 C   0  0  0  0  0  3  0  0  0  0  0  0
  186.6270  178.0040  144.9980 C   0  0  0  0  0  3  0  0  0  0  0  0
  185.9080  178.2360  143.8050 C   0  0  0  0  0  0  0  0  0  0  0  0
  184.5560  178.6140  143.8620 C   0  0  0  0  0  3  0  0  0  0  0  0
  182.6030  179.0590  145.1330 F   0  0  0  0  0  0  0  0  0  0  0  0
  184.6420  178.4950  146.2870 C   0  0  0  0  0  3  0  0  0  0  0  0
  183.9220  178.7440  145.0910 C   0  0  0  0  0  0  0  0  0  0  0  0
  185.9900  178.1210  146.2240 C   0  0  0  0  0  3  0  0  0  0  0  0
  182.7910  177.2360  135.3760 C   0  0  0  0  0  1  0  0  0  0  0  0
  183.0770  176.3020  136.5390 C   0  0  0  0  0  2  0  0  0  0  0  0
  2 22  1  0  0  0  0
  3  7  2  0  0  0  0
  3 20  1  0  0  0  0
  4 37  1  6  0  0  0
  4  1  1  0  0  0  0
  5 10  1  0  0  0  0
  6  9  2  0  0  0  0
  6 11  1  0  0  0  0
  7 10  1  0  0  0  0
  8 26  2  0  0  0  0
  9  3  1  0  0  0  0
 10 23  2  0  0  0  0
 11 16  2  0  0  0  0
 12  4  1  0  0  0  0
 12 18  1  0  0  0  0
 13  9  1  0  0  0  0
 13 21  2  0  0  0  0
 14 17  1  0  0  0  0
 15 28  2  0  0  0  0
 17 13  1  0  0  0  0
 18  8  2  0  0  0  0
 18 25  1  0  0  0  0
 19  5  1  0  0  0  0
 20 16  1  6  0  0  0
 20 15  1  0  0  0  0
 21  7  1  0  0  0  0
 22  6  1  0  0  0  0
 23 28  1  0  0  0  0
 23 30  1  0  0  0  0
 24 14  1  0  0  0  0
 24  2  1  0  0  0  0
 25 19  1  1  0  0  0
 27 21  1  0  0  0  0
 27 25  1  0  0  0  0
 27  1  1  1  0  0  0
 29 35  1  0  0  0  0
 30 31  1  0  0  0  0
 30 29  2  0  0  0  0
 31 34  2  0  0  0  0
 34 32  1  0  0  0  0
 34 33  1  0  0  0  0
 35 33  2  0  0  0  0
 36 37  1  0  0  0  0
M  END
>  <MODEL>
2

>  <REMARK>
 VINA RESULT:      -7.7      3.736      8.067
  Name = 
  2 active torsions:
  status: ('A' for Active; 'I' for Inactive)
    1  A    between atoms: C_5  and  C_23
    2  A    between atoms: C_6  and  C_31
                            x       y       z     vdW  Elec       q    Type
                         _______ _______ _______ _____ _____    ______ ____

>  <TORSDO>
F 2

$$$$
=
 OpenBabel10272414443D

 37 43  0  0  1  0  0  0  0  0999 V2000
  188.3420  176.3840  143.1620 C   0  0  0  0  0  2  0  0  0  0  0  0
  183.0410  178.1350  141.6470 C   0  0  0  0  0  2  0  0  0  0  0  0
  186.6150  178.2200  139.3290 C   0  0  0  0  0  0  0  0  0  0  0  0
  188.5390  176.5380  144.6710 C   0  0  1  0  0  3  0  0  0  0  0  0
  190.0550  177.3100  140.5520 C   0  0  0  0  0  2  0  0  0  0  0  0
  184.3600  179.1130  139.6720 C   0  0  0  0  0  0  0  0  0  0  0  0
  187.4790  177.5810  140.1120 C   0  0  0  0  0  0  0  0  0  0  0  0
  191.1560  179.1800  144.0980 C   0  0  0  0  0  0  0  0  0  0  0  0
  185.5620  178.7880  140.1510 C   0  0  1  0  0  3  0  0  0  0  0  0
  188.8280  177.1170  139.6690 C   0  0  0  0  0  0  0  0  0  0  0  0
  184.1810  179.0120  138.1990 C   0  0  0  0  0  3  0  0  0  0  0  0
  189.4020  177.7970  145.0460 C   0  0  0  0  0  2  0  0  0  0  0  0
  186.0250  178.6900  141.5300 C   0  0  0  0  0  0  0  0  0  0  0  0
  184.6200  178.8270  143.5840 C   0  0  0  0  0  2  0  0  0  0  0  0
  186.7840  176.8160  137.3210 C   0  0  0  0  0  3  0  0  0  0  0  0
  185.1680  178.6350  137.3480 C   0  0  0  0  0  3  0  0  0  0  0  0
  185.6070  179.5880  142.6380 C   0  0  0  0  0  2  0  0  0  0  0  0
  190.1240  178.4260  143.8540 C   0  0  0  0  0  0  0  0  0  0  0  0
  190.0300  178.6630  141.2640 C   0  0  0  0  0  2  0  0  0  0  0  0
  186.5500  178.2190  137.8290 C   0  0  0  0  0  0  0  0  0  0  0  0
  187.1050  177.9290  141.4960 C   0  0  0  0  0  0  0  0  0  0  0  0
  183.1240  179.2210  140.5360 C   0  0  0  0  0  2  0  0  0  0  0  0
  188.9910  176.4640  138.4710 C   0  0  0  0  0  0  0  0  0  0  0  0
  183.1880  178.7940  143.0180 C   0  0  0  0  0  2  0  0  0  0  0  0
  189.2920  178.6660  142.6010 C   0  0  1  0  0  3  0  0  0  0  0  0
  192.1750  179.8910  144.3240 O   0  0  0  0  0  0  0  0  0  0  0  0
  188.0090  177.7850  142.6650 C   0  0  2  0  0  3  0  0  0  0  0  0
  187.8670  176.0940  137.6070 C   0  0  0  0  0  3  0  0  0  0  0  0
  190.4810  174.7090  137.5900 C   0  0  0  0  0  3  0  0  0  0  0  0
  190.3060  176.0600  137.9610 C   0  0  0  0  0  0  0  0  0  0  0  0
  191.4190  176.9130  138.0540 C   0  0  0  0  0  3  0  0  0  0  0  0
  193.7650  177.2420  137.9390 F   0  0  0  0  0  0  0  0  0  0  0  0
  192.8680  175.0620  137.4390 C   0  0  0  0  0  3  0  0  0  0  0  0
  192.6930  176.4230  137.7960 C   0  0  0  0  0  0  0  0  0  0  0  0
  191.7540  174.2170  137.3460 C   0  0  0  0  0  3  0  0  0  0  0  0
  187.1820  177.9110  146.2670 C   0  0  0  0  0  1  0  0  0  0  0  0
  187.1420  176.7270  145.3150 C   0  0  0  0  0  2  0  0  0  0  0  0
  1  4  1  0  0  0  0
  2 24  1  0  0  0  0
  3  7  2  0  0  0  0
  4 12  1  0  0  0  0
  4 37  1  1  0  0  0
  5 19  1  0  0  0  0
  6  9  1  0  0  0  0
  6 22  1  0  0  0  0
  7 21  1  0  0  0  0
  8 26  2  0  0  0  0
  9  3  1  1  0  0  0
  9 13  1  0  0  0  0
 10  7  1  0  0  0  0
 10  5  1  0  0  0  0
 11  6  2  0  0  0  0
 13 17  1  0  0  0  0
 15 28  2  0  0  0  0
 15 20  1  0  0  0  0
 16 20  2  0  0  0  0
 16 11  1  0  0  0  0
 17 14  1  0  0  0  0
 18  8  2  0  0  0  0
 18 12  1  0  0  0  0
 20  3  1  0  0  0  0
 21 13  2  0  0  0  0
 21 27  1  0  0  0  0
 22  2  1  0  0  0  0
 23 10  2  0  0  0  0
 24 14  1  0  0  0  0
 25 19  1  6  0  0  0
 25 27  1  0  0  0  0
 25 18  1  0  0  0  0
 27  1  1  6  0  0  0
 28 23  1  0  0  0  0
 29 30  1  0  0  0  0
 30 31  2  0  0  0  0
 30 23  1  0  0  0  0
 33 34  2  0  0  0  0
 34 32  1  0  0  0  0
 34 31  1  0  0  0  0
 35 33  1  0  0  0  0
 35 29  2  0  0  0  0
 37 36  1  0  0  0  0
M  END
>  <MODEL>
3

>  <REMARK>
 VINA RESULT:      -7.3      1.130      1.522
  Name = 
  2 active torsions:
  status: ('A' for Active; 'I' for Inactive)
    1  A    between atoms: C_5  and  C_23
    2  A    between atoms: C_6  and  C_31
                            x       y       z     vdW  Elec       q    Type
                         _______ _______ _______ _____ _____    ______ ____

>  <TORSDO>
F 2

$$$$
=
 OpenBabel10272414443D

 37 43  0  0  1  0  0  0  0  0999 V2000
  182.7400  176.5410  140.8340 C   0  0  0  0  0  2  0  0  0  0  0  0
  186.3050  176.7330  136.2820 C   0  0  0  0  0  2  0  0  0  0  0  0
  186.8960  178.3660  140.1720 C   0  0  0  0  0  0  0  0  0  0  0  0
  181.2850  176.4840  140.3640 C   0  0  1  0  0  3  0  0  0  0  0  0
  184.3590  178.4100  142.9510 C   0  0  0  0  0  2  0  0  0  0  0  0
  187.5140  178.4120  137.8030 C   0  0  0  0  0  0  0  0  0  0  0  0
  185.8380  177.9120  140.8370 C   0  0  1  0  0  3  0  0  0  0  0  0
  180.6340  179.8830  141.8390 C   0  0  0  0  0  0  0  0  0  0  0  0
  186.5810  178.4130  138.7560 C   0  0  0  0  0  0  0  0  0  0  0  0
  185.6820  177.9910  142.3210 C   0  0  0  0  0  0  0  0  0  0  0  0
  188.9270  178.5200  138.2540 C   0  0  0  0  0  3  0  0  0  0  0  0
  180.5490  177.8660  140.4920 C   0  0  0  0  0  2  0  0  0  0  0  0
  185.1380  178.2280  138.6540 C   0  0  0  0  0  0  0  0  0  0  0  0
  183.8660  177.5450  136.6230 C   0  0  0  0  0  2  0  0  0  0  0  0
  188.6800  177.4660  141.6010 C   0  0  0  0  0  3  0  0  0  0  0  0
  189.2910  178.6350  139.5550 C   0  0  0  0  0  3  0  0  0  0  0  0
  184.2880  178.7350  137.5460 C   0  0  0  0  0  2  0  0  0  0  0  0
  181.3100  178.8930  141.3320 C   0  0  0  0  0  0  0  0  0  0  0  0
  183.6910  179.5370  142.1630 C   0  0  0  0  0  2  0  0  0  0  0  0
  188.2830  178.6070  140.6950 C   0  0  0  0  0  0  0  0  0  0  0  0
  184.7330  177.8730  139.8610 C   0  0  0  0  0  0  0  0  0  0  0  0
  187.2490  177.9640  136.3830 C   0  0  0  0  0  2  0  0  0  0  0  0
  186.7160  177.6460  143.1580 C   0  0  0  0  0  0  0  0  0  0  0  0
  184.9840  177.1530  135.6390 C   0  0  0  0  0  2  0  0  0  0  0  0
  182.7900  179.0680  141.0210 C   0  0  1  0  0  3  0  0  0  0  0  0
  179.9820  180.8330  142.3560 O   0  0  0  0  0  0  0  0  0  0  0  0
  183.2950  177.8240  140.2300 C   0  0  2  0  0  3  0  0  0  0  0  0
  187.9820  177.0910  142.6720 C   0  0  0  0  0  3  0  0  0  0  0  0
  185.6250  178.6170  145.1440 C   0  0  0  0  0  3  0  0  0  0  0  0
  186.6340  177.7820  144.6160 C   0  0  0  0  0  0  0  0  0  0  0  0
  187.6530  177.2970  145.4530 C   0  0  0  0  0  3  0  0  0  0  0  0
  188.6940  177.2200  147.5840 F   0  0  0  0  0  0  0  0  0  0  0  0
  186.6720  178.5040  147.3200 C   0  0  0  0  0  3  0  0  0  0  0  0
  187.6770  177.6520  146.7960 C   0  0  0  0  0  0  0  0  0  0  0  0
  185.6570  178.9820  146.4810 C   0  0  0  0  0  3  0  0  0  0  0  0
  180.4530  177.1020  138.0840 C   0  0  0  0  0  1  0  0  0  0  0  0
  181.2850  176.0970  138.8630 C   0  0  0  0  0  2  0  0  0  0  0  0
  2 22  1  0  0  0  0
  3 20  1  0  0  0  0
  3  7  1  0  0  0  0
  4 37  1  6  0  0  0
  4 12  1  0  0  0  0
  4  1  1  0  0  0  0
  6 11  2  0  0  0  0
  6  9  1  0  0  0  0
  7 21  1  6  0  0  0
  7 10  1  0  0  0  0
  8 26  2  0  0  0  0
  9  3  2  0  0  0  0
 10  5  1  0  0  0  0
 10 23  2  0  0  0  0
 11 16  1  0  0  0  0
 12 18  1  0  0  0  0
 13  9  1  0  0  0  0
 13 21  2  0  0  0  0
 14 17  1  0  0  0  0
 15 28  2  0  0  0  0
 16 20  2  0  0  0  0
 17 13  1  0  0  0  0
 18  8  2  0  0  0  0
 19  5  1  0  0  0  0
 20 15  1  0  0  0  0
 21 27  1  0  0  0  0
 22  6  1  0  0  0  0
 23 30  1  0  0  0  0
 24  2  1  0  0  0  0
 24 14  1  0  0  0  0
 25 18  1  0  0  0  0
 25 19  1  1  0  0  0
 27  1  1  1  0  0  0
 27 25  1  0  0  0  0
 28 23  1  0  0  0  0
 29 35  1  0  0  0  0
 30 29  2  0  0  0  0
 30 31  1  0  0  0  0
 31 34  2  0  0  0  0
 34 33  1  0  0  0  0
 34 32  1  0  0  0  0
 35 33  2  0  0  0  0
 36 37  1  0  0  0  0
M  END
>  <MODEL>
4

>  <REMARK>
 VINA RESULT:      -6.9      3.900      7.595
  Name = 
  2 active torsions:
  status: ('A' for Active; 'I' for Inactive)
    1  A    between atoms: C_5  and  C_23
    2  A    between atoms: C_6  and  C_31
                            x       y       z     vdW  Elec       q    Type
                         _______ _______ _______ _____ _____    ______ ____

>  <TORSDO>
F 2

$$$$
=
 OpenBabel10272414443D

 37 43  0  0  1  0  0  0  0  0999 V2000
  183.7230  180.0240  138.8290 C   0  0  0  0  0  2  0  0  0  0  0  0
  184.1490  179.9400  144.5980 C   0  0  0  0  0  2  0  0  0  0  0  0
  186.5200  177.8490  141.7420 C   0  0  0  0  0  0  0  0  0  0  0  0
  182.2750  180.2860  138.4090 C   0  0  1  0  0  3  0  0  0  0  0  0
  185.9400  177.7790  138.0250 C   0  0  0  0  0  2  0  0  0  0  0  0
  185.7290  177.9900  144.0560 C   0  0  0  0  0  0  0  0  0  0  0  0
  186.0780  178.3390  140.5880 C   0  0  0  0  0  0  0  0  0  0  0  0
  182.0440  176.8370  136.9240 C   0  0  0  0  0  0  0  0  0  0  0  0
  185.4800  177.9870  142.7460 C   0  0  0  0  0  0  0  0  0  0  0  0
  186.7480  178.1200  139.2720 C   0  0  0  0  0  0  0  0  0  0  0  0
  187.1250  177.6860  144.4690 C   0  0  0  0  0  3  0  0  0  0  0  0
  181.5350  178.9830  137.9350 C   0  0  0  0  0  2  0  0  0  0  0  0
  184.2620  178.3340  142.0230 C   0  0  0  0  0  0  0  0  0  0  0  0
  182.2040  179.3610  142.9830 C   0  0  0  0  0  2  0  0  0  0  0  0
  188.9040  178.3980  141.5200 C   0  0  0  0  0  3  0  0  0  0  0  0
  188.1190  177.3950  143.5940 C   0  0  0  0  0  3  0  0  0  0  0  0
  182.8800  178.0400  142.4860 C   0  0  0  0  0  2  0  0  0  0  0  0
  182.4700  177.7980  137.6900 C   0  0  0  0  0  0  0  0  0  0  0  0
  184.7920  176.8200  138.3430 C   0  0  0  0  0  2  0  0  0  0  0  0
  187.9140  177.4080  142.0860 C   0  0  1  0  0  3  0  0  0  0  0  0
  184.6390  178.5990  140.7850 C   0  0  0  0  0  0  0  0  0  0  0  0
  184.8010  178.6120  145.0750 C   0  0  0  0  0  2  0  0  0  0  0  0
  188.1090  178.2620  139.1400 C   0  0  0  0  0  0  0  0  0  0  0  0
  182.6460  179.7340  144.4110 C   0  0  0  0  0  2  0  0  0  0  0  0
  183.4950  177.5010  138.7770 C   0  0  1  0  0  3  0  0  0  0  0  0
  181.6490  175.9120  136.1590 O   0  0  0  0  0  0  0  0  0  0  0  0
  183.6630  178.7610  139.6770 C   0  0  2  0  0  3  0  0  0  0  0  0
  188.9690  178.7280  140.2310 C   0  0  0  0  0  3  0  0  0  0  0  0
  188.4610  178.7340  136.7460 C   0  0  0  0  0  3  0  0  0  0  0  0
  188.8170  177.9820  137.8870 C   0  0  0  0  0  0  0  0  0  0  0  0
  189.6490  176.8560  137.7550 C   0  0  0  0  0  3  0  0  0  0  0  0
  190.8680  175.3580  136.3770 F   0  0  0  0  0  0  0  0  0  0  0  0
  189.7350  177.2230  135.3540 C   0  0  0  0  0  3  0  0  0  0  0  0
  190.1080  176.4750  136.5000 C   0  0  0  0  0  0  0  0  0  0  0  0
  188.9080  178.3450  135.4930 C   0  0  0  0  0  3  0  0  0  0  0  0
  180.2330  180.0310  139.8360 C   0  0  0  0  0  1  0  0  0  0  0  0
  181.5130  180.8270  139.6450 C   0  0  0  0  0  2  0  0  0  0  0  0
  2 22  1  0  0  0  0
  3 20  1  0  0  0  0
  3  9  1  0  0  0  0
  4  1  1  0  0  0  0
  4 37  1  1  0  0  0
  5 19  1  0  0  0  0
  5 10  1  0  0  0  0
  6 11  1  0  0  0  0
  6 22  1  0  0  0  0
  7 21  1  0  0  0  0
  7  3  2  0  0  0  0
  8 18  2  0  0  0  0
  9  6  2  0  0  0  0
 10  7  1  0  0  0  0
 12  4  1  0  0  0  0
 13 17  1  0  0  0  0
 13  9  1  0  0  0  0
 14 24  1  0  0  0  0
 16 11  2  0  0  0  0
 17 14  1  0  0  0  0
 18 12  1  0  0  0  0
 18 25  1  0  0  0  0
 20 15  1  6  0  0  0
 20 16  1  0  0  0  0
 21 13  2  0  0  0  0
 23 10  2  0  0  0  0
 23 28  1  0  0  0  0
 24  2  1  0  0  0  0
 25 19  1  6  0  0  0
 25 27  1  0  0  0  0
 26  8  2  0  0  0  0
 27  1  1  6  0  0  0
 27 21  1  0  0  0  0
 28 15  2  0  0  0  0
 29 30  1  0  0  0  0
 30 23  1  0  0  0  0
 31 30  2  0  0  0  0
 32 34  1  0  0  0  0
 33 35  1  0  0  0  0
 33 34  2  0  0  0  0
 34 31  1  0  0  0  0
 35 29  2  0  0  0  0
 37 36  1  0  0  0  0
M  END
>  <MODEL>
5

>  <REMARK>
 VINA RESULT:      -6.9      3.038      6.365
  Name = 
  2 active torsions:
  status: ('A' for Active; 'I' for Inactive)
    1  A    between atoms: C_5  and  C_23
    2  A    between atoms: C_6  and  C_31
                            x       y       z     vdW  Elec       q    Type
                         _______ _______ _______ _____ _____    ______ ____

>  <TORSDO>
F 2

$$$$
=
 OpenBabel10272414443D

 37 43  0  0  1  0  0  0  0  0999 V2000
  185.9250  176.5110  134.9810 C   0  0  0  0  0  2  0  0  0  0  0  0
  184.1980  170.9930  135.1490 C   0  0  0  0  0  2  0  0  0  0  0  0
  182.4070  174.3800  137.0110 C   0  0  0  0  0  0  0  0  0  0  0  0
  187.4440  176.5850  134.8130 C   0  0  1  0  0  3  0  0  0  0  0  0
  183.8100  177.8710  137.0480 C   0  0  0  0  0  2  0  0  0  0  0  0
  182.6610  171.9440  136.9720 C   0  0  0  0  0  0  0  0  0  0  0  0
  183.1300  175.3870  136.5310 C   0  0  0  0  0  0  0  0  0  0  0  0
  187.7860  178.1010  138.2400 C   0  0  0  0  0  0  0  0  0  0  0  0
  183.1990  173.1640  136.9670 C   0  0  0  0  0  0  0  0  0  0  0  0
  182.7640  176.8270  136.6760 C   0  0  0  0  0  0  0  0  0  0  0  0
  181.1910  171.8660  137.1860 C   0  0  0  0  0  3  0  0  0  0  0  0
  188.1880  176.9250  136.1540 C   0  0  0  0  0  2  0  0  0  0  0  0
  184.5690  173.5820  136.6920 C   0  0  0  0  0  0  0  0  0  0  0  0
  186.4170  172.1470  135.8310 C   0  0  0  0  0  2  0  0  0  0  0  0
  180.1760  175.1140  136.2920 C   0  0  0  0  0  3  0  0  0  0  0  0
  180.4050  172.9530  137.3890 C   0  0  0  0  0  3  0  0  0  0  0  0
  185.7880  172.8300  137.0910 C   0  0  0  0  0  2  0  0  0  0  0  0
  187.2600  177.4160  137.2660 C   0  0  0  0  0  0  0  0  0  0  0  0
  184.7920  177.3380  138.0910 C   0  0  0  0  0  2  0  0  0  0  0  0
  180.9470  174.3740  137.3600 C   0  0  1  0  0  3  0  0  0  0  0  0
  184.5000  174.8630  136.3760 C   0  0  0  0  0  0  0  0  0  0  0  0
  183.3700  170.7210  136.4370 C   0  0  0  0  0  2  0  0  0  0  0  0
  181.4800  177.2570  136.4360 C   0  0  0  0  0  0  0  0  0  0  0  0
  185.6870  170.8440  135.4560 C   0  0  0  0  0  2  0  0  0  0  0  0
  185.9980  176.5990  137.5120 C   0  0  1  0  0  3  0  0  0  0  0  0
  188.2850  178.7880  139.1740 O   0  0  0  0  0  0  0  0  0  0  0  0
  185.7110  175.7160  136.2620 C   0  0  2  0  0  3  0  0  0  0  0  0
  180.4260  176.3720  135.9330 C   0  0  0  0  0  3  0  0  0  0  0  0
  180.8790  179.4560  135.4980 C   0  0  0  0  0  3  0  0  0  0  0  0
  181.0580  178.6460  136.6410 C   0  0  0  0  0  0  0  0  0  0  0  0
  181.0570  179.2280  137.9210 C   0  0  0  0  0  3  0  0  0  0  0  0
  180.9480  181.1580  139.2960 F   0  0  0  0  0  0  0  0  0  0  0  0
  180.7320  181.4130  136.9090 C   0  0  0  0  0  3  0  0  0  0  0  0
  180.8960  180.6010  138.0600 C   0  0  0  0  0  0  0  0  0  0  0  0
  180.7310  180.8270  135.6370 C   0  0  0  0  0  3  0  0  0  0  0  0
  189.1070  174.7560  135.2210 C   0  0  0  0  0  1  0  0  0  0  0  0
  187.9390  175.1900  134.3510 C   0  0  0  0  0  2  0  0  0  0  0  0
  2 24  1  0  0  0  0
  2 22  1  0  0  0  0
  3 20  1  0  0  0  0
  4 37  1  1  0  0  0
  4  1  1  0  0  0  0
  4 12  1  0  0  0  0
  5 19  1  0  0  0  0
  6 11  1  0  0  0  0
  7 10  1  0  0  0  0
  7  3  2  0  0  0  0
  8 26  2  0  0  0  0
  9  6  2  0  0  0  0
  9  3  1  0  0  0  0
 10  5  1  0  0  0  0
 11 16  2  0  0  0  0
 12 18  1  0  0  0  0
 13  9  1  0  0  0  0
 13 17  1  0  0  0  0
 14 17  1  0  0  0  0
 18 25  1  0  0  0  0
 18  8  2  0  0  0  0
 20 15  1  6  0  0  0
 20 16  1  0  0  0  0
 21  7  1  0  0  0  0
 21 13  2  0  0  0  0
 22  6  1  0  0  0  0
 23 30  1  0  0  0  0
 23 10  2  0  0  0  0
 24 14  1  0  0  0  0
 25 19  1  6  0  0  0
 27  1  1  6  0  0  0
 27 21  1  0  0  0  0
 27 25  1  0  0  0  0
 28 15  2  0  0  0  0
 28 23  1  0  0  0  0
 29 35  2  0  0  0  0
 29 30  1  0  0  0  0
 30 31  2  0  0  0  0
 31 34  1  0  0  0  0
 33 34  2  0  0  0  0
 34 32  1  0  0  0  0
 35 33  1  0  0  0  0
 37 36  1  0  0  0  0
M  END
>  <MODEL>
6

>  <REMARK>
 VINA RESULT:      -6.4      5.107      9.248
  Name = 
  2 active torsions:
  status: ('A' for Active; 'I' for Inactive)
    1  A    between atoms: C_5  and  C_23
    2  A    between atoms: C_6  and  C_31
                            x       y       z     vdW  Elec       q    Type
                         _______ _______ _______ _____ _____    ______ ____

>  <TORSDO>
F 2

$$$$
=
 OpenBabel10272414443D

 37 43  0  0  1  0  0  0  0  0999 V2000
  182.5180  179.5710  137.7450 C   0  0  0  0  0  2  0  0  0  0  0  0
  181.3690  180.2720  143.3710 C   0  0  0  0  0  2  0  0  0  0  0  0
  184.5720  178.1100  141.5780 C   0  0  0  0  0  0  0  0  0  0  0  0
  181.2230  179.6140  136.9320 C   0  0  1  0  0  3  0  0  0  0  0  0
  185.0270  177.5020  137.8920 C   0  0  0  0  0  2  0  0  0  0  0  0
  183.1750  178.4560  143.5590 C   0  0  0  0  0  0  0  0  0  0  0  0
  184.4240  178.3960  140.2880 C   0  0  0  0  0  0  0  0  0  0  0  0
  181.6560  175.9990  135.9810 C   0  0  0  0  0  0  0  0  0  0  0  0
  183.2920  178.2580  142.2460 C   0  0  0  0  0  0  0  0  0  0  0  0
  185.4400  178.0870  139.2380 C   0  0  0  0  0  0  0  0  0  0  0  0
  184.4250  178.3640  144.3600 C   0  0  0  0  0  3  0  0  0  0  0  0
  180.7370  178.1880  136.4870 C   0  0  0  0  0  2  0  0  0  0  0  0
  182.2930  178.3720  141.1890 C   0  0  0  0  0  0  0  0  0  0  0  0
  179.9820  179.2780  141.4180 C   0  0  0  0  0  2  0  0  0  0  0  0
  186.8800  178.8870  141.8960 C   0  0  0  0  0  3  0  0  0  0  0  0
  185.6380  178.0760  143.8260 C   0  0  0  0  0  3  0  0  0  0  0  0
  180.8630  177.9890  141.3200 C   0  0  0  0  0  2  0  0  0  0  0  0
  181.7860  177.0930  136.6750 C   0  0  0  0  0  0  0  0  0  0  0  0
  183.9100  176.4700  138.0460 C   0  0  0  0  0  2  0  0  0  0  0  0
  185.8480  177.8740  142.3320 C   0  0  1  0  0  3  0  0  0  0  0  0
  182.9710  178.5180  140.0650 C   0  0  0  0  0  0  0  0  0  0  0  0
  181.9630  179.0960  144.1980 C   0  0  0  0  0  2  0  0  0  0  0  0
  186.7720  178.3620  139.4410 C   0  0  0  0  0  0  0  0  0  0  0  0
  179.9930  179.8780  142.8370 C   0  0  0  0  0  2  0  0  0  0  0  0
  182.4970  177.0520  138.0210 C   0  0  1  0  0  3  0  0  0  0  0  0
  181.5510  174.9470  135.2910 O   0  0  0  0  0  0  0  0  0  0  0  0
  182.3220  178.4270  138.7320 C   0  0  2  0  0  3  0  0  0  0  0  0
  187.2680  179.0550  140.6330 C   0  0  0  0  0  3  0  0  0  0  0  0
  187.8320  178.6970  137.2410 C   0  0  0  0  0  3  0  0  0  0  0  0
  187.8120  178.0040  138.4710 C   0  0  0  0  0  0  0  0  0  0  0  0
  188.6130  176.8620  138.6470 C   0  0  0  0  0  3  0  0  0  0  0  0
  190.1420  175.2760  137.7690 F   0  0  0  0  0  0  0  0  0  0  0  0
  189.4180  177.0960  136.3660 C   0  0  0  0  0  3  0  0  0  0  0  0
  189.4120  176.4080  137.6060 C   0  0  0  0  0  0  0  0  0  0  0  0
  188.6200  178.2350  136.1980 C   0  0  0  0  0  3  0  0  0  0  0  0
  180.5320  181.6160  138.2690 C   0  0  0  0  0  1  0  0  0  0  0  0
  180.1170  180.2210  137.8320 C   0  0  0  0  0  2  0  0  0  0  0  0
  2 22  1  0  0  0  0
  3  9  1  0  0  0  0
  3 20  1  0  0  0  0
  4  1  1  0  0  0  0
  4 37  1  1  0  0  0
  5 19  1  0  0  0  0
  5 10  1  0  0  0  0
  6 22  1  0  0  0  0
  6 11  1  0  0  0  0
  7  3  2  0  0  0  0
  8 18  2  0  0  0  0
  9  6  2  0  0  0  0
 10 23  2  0  0  0  0
 10  7  1  0  0  0  0
 12 18  1  0  0  0  0
 12  4  1  0  0  0  0
 13 17  1  0  0  0  0
 13  9  1  0  0  0  0
 14 24  1  0  0  0  0
 16 11  2  0  0  0  0
 17 14  1  0  0  0  0
 18 25  1  0  0  0  0
 20 15  1  6  0  0  0
 20 16  1  0  0  0  0
 21  7  1  0  0  0  0
 21 13  2  0  0  0  0
 23 28  1  0  0  0  0
 24  2  1  0  0  0  0
 25 19  1  6  0  0  0
 25 27  1  0  0  0  0
 26  8  2  0  0  0  0
 27  1  1  6  0  0  0
 27 21  1  0  0  0  0
 28 15  2  0  0  0  0
 29 30  1  0  0  0  0
 30 31  2  0  0  0  0
 30 23  1  0  0  0  0
 33 34  2  0  0  0  0
 34 32  1  0  0  0  0
 34 31  1  0  0  0  0
 35 33  1  0  0  0  0
 35 29  2  0  0  0  0
 37 36  1  0  0  0  0
M  END
>  <MODEL>
7

>  <REMARK>
 VINA RESULT:      -5.8      3.542      7.206
  Name = 
  2 active torsions:
  status: ('A' for Active; 'I' for Inactive)
    1  A    between atoms: C_5  and  C_23
    2  A    between atoms: C_6  and  C_31
                            x       y       z     vdW  Elec       q    Type
                         _______ _______ _______ _____ _____    ______ ____

>  <TORSDO>
F 2

$$$$
=
 OpenBabel10272414443D

 37 43  0  0  1  0  0  0  0  0999 V2000
  187.5800  176.6980  134.8110 C   0  0  0  0  0  2  0  0  0  0  0  0
  187.2640  170.9390  134.3650 C   0  0  0  0  0  2  0  0  0  0  0  0
  184.3790  173.6270  135.9770 C   0  0  0  0  0  0  0  0  0  0  0  0
  189.0380  177.1370  134.9610 C   0  0  1  0  0  3  0  0  0  0  0  0
  184.8470  177.3290  136.4620 C   0  0  0  0  0  2  0  0  0  0  0  0
  185.2260  171.3310  135.8770 C   0  0  0  0  0  0  0  0  0  0  0  0
  184.9080  174.8150  135.7020 C   0  0  0  0  0  0  0  0  0  0  0  0
  188.3480  178.3600  138.4520 C   0  0  0  0  0  0  0  0  0  0  0  0
  185.4390  172.6380  136.0390 C   0  0  1  0  0  3  0  0  0  0  0  0
  184.1780  176.1110  135.8360 C   0  0  0  0  0  0  0  0  0  0  0  0
  183.8070  170.8950  135.7820 C   0  0  0  0  0  3  0  0  0  0  0  0
  189.4100  177.5130  136.4410 C   0  0  0  0  0  2  0  0  0  0  0  0
  186.6910  173.3860  136.0700 C   0  0  0  0  0  0  0  0  0  0  0  0
  188.9620  172.5070  135.5400 C   0  0  0  0  0  2  0  0  0  0  0  0
  182.2110  173.8880  134.8510 C   0  0  0  0  0  3  0  0  0  0  0  0
  182.7540  171.7450  135.8700 C   0  0  0  0  0  3  0  0  0  0  0  0
  187.9600  172.9030  136.6750 C   0  0  0  0  0  2  0  0  0  0  0  0
  188.1980  177.6670  137.3600 C   0  0  0  0  0  0  0  0  0  0  0  0
  185.7160  176.9410  137.6590 C   0  0  0  0  0  2  0  0  0  0  0  0
  182.9260  173.2500  136.0190 C   0  0  0  0  0  0  0  0  0  0  0  0
  186.3690  174.6400  135.8070 C   0  0  0  0  0  0  0  0  0  0  0  0
  186.3020  170.3620  135.4430 C   0  0  0  0  0  2  0  0  0  0  0  0
  182.8970  176.2520  135.3590 C   0  0  0  0  0  0  0  0  0  0  0  0
  188.6590  171.1110  134.9640 C   0  0  0  0  0  2  0  0  0  0  0  0
  187.1530  176.5610  137.3050 C   0  0  1  0  0  3  0  0  0  0  0  0
  188.4780  179.0530  139.5000 O   0  0  0  0  0  0  0  0  0  0  0  0
  187.3320  175.7570  135.9820 C   0  0  2  0  0  3  0  0  0  0  0  0
  182.2070  175.1980  134.6100 C   0  0  0  0  0  3  0  0  0  0  0  0
  181.8800  178.2820  134.4000 C   0  0  0  0  0  3  0  0  0  0  0  0
  182.1150  177.4800  135.5370 C   0  0  0  0  0  0  0  0  0  0  0  0
  181.8090  177.9700  136.8190 C   0  0  0  0  0  3  0  0  0  0  0  0
  181.0450  179.7320  138.2100 F   0  0  0  0  0  0  0  0  0  0  0  0
  181.0690  180.0600  135.8230 C   0  0  0  0  0  3  0  0  0  0  0  0
  181.2890  179.2500  136.9660 C   0  0  0  0  0  0  0  0  0  0  0  0
  181.3740  179.5650  134.5490 C   0  0  0  0  0  3  0  0  0  0  0  0
  190.9550  175.6770  135.6430 C   0  0  0  0  0  1  0  0  0  0  0  0
  189.9390  175.9460  134.5460 C   0  0  0  0  0  2  0  0  0  0  0  0
  1  4  1  0  0  0  0
  2 24  1  0  0  0  0
  2 22  1  0  0  0  0
  3 20  1  0  0  0  0
  3  9  1  0  0  0  0
  4 37  1  1  0  0  0
  4 12  1  0  0  0  0
  5 19  1  0  0  0  0
  7 21  1  0  0  0  0
  7 10  1  0  0  0  0
  7  3  2  0  0  0  0
  8 26  2  0  0  0  0
  9  6  1  6  0  0  0
  9 13  1  0  0  0  0
 10  5  1  0  0  0  0
 11 16  1  0  0  0  0
 11  6  2  0  0  0  0
 12 18  1  0  0  0  0
 13 17  1  0  0  0  0
 14 17  1  0  0  0  0
 15 20  1  0  0  0  0
 16 20  2  0  0  0  0
 18  8  2  0  0  0  0
 21 27  1  0  0  0  0
 21 13  2  0  0  0  0
 22  6  1  0  0  0  0
 23 30  1  0  0  0  0
 23 10  2  0  0  0  0
 24 14  1  0  0  0  0
 25 18  1  0  0  0  0
 25 19  1  6  0  0  0
 27  1  1  6  0  0  0
 27 25  1  0  0  0  0
 28 15  2  0  0  0  0
 28 23  1  0  0  0  0
 29 35  2  0  0  0  0
 29 30  1  0  0  0  0
 30 31  2  0  0  0  0
 31 34  1  0  0  0  0
 33 34  2  0  0  0  0
 34 32  1  0  0  0  0
 35 33  1  0  0  0  0
 37 36  1  0  0  0  0
M  END
>  <MODEL>
8

>  <REMARK>
 VINA RESULT:      -5.6      4.701      8.896
  Name = 
  2 active torsions:
  status: ('A' for Active; 'I' for Inactive)
    1  A    between atoms: C_5  and  C_23
    2  A    between atoms: C_6  and  C_31
                            x       y       z     vdW  Elec       q    Type
                         _______ _______ _______ _____ _____    ______ ____

>  <TORSDO>
F 2

$$$$
=
 OpenBabel10272414443D

 37 43  0  0  1  0  0  0  0  0999 V2000
  186.9650  178.0350  136.0150 C   0  0  0  0  0  2  0  0  0  0  0  0
  185.7900  172.6200  134.3520 C   0  0  0  0  0  2  0  0  0  0  0  0
  183.7100  175.0240  137.1890 C   0  0  0  0  0  0  0  0  0  0  0  0
  188.4660  178.3090  135.9040 C   0  0  1  0  0  3  0  0  0  0  0  0
  184.7640  178.4330  138.3810 C   0  0  0  0  0  2  0  0  0  0  0  0
  184.2000  172.7710  136.3630 C   0  0  0  0  0  0  0  0  0  0  0  0
  184.3220  176.1980  137.0730 C   0  0  1  0  0  3  0  0  0  0  0  0
  188.7200  178.6530  139.6420 C   0  0  0  0  0  0  0  0  0  0  0  0
  184.6160  173.9730  136.7630 C   0  0  0  0  0  0  0  0  0  0  0  0
  183.8190  177.4690  137.6740 C   0  0  0  0  0  0  0  0  0  0  0  0
  182.7490  172.4830  136.5180 C   0  0  0  0  0  3  0  0  0  0  0  0
  189.1970  178.2660  137.2940 C   0  0  0  0  0  2  0  0  0  0  0  0
  185.9340  174.5900  136.6600 C   0  0  0  0  0  0  0  0  0  0  0  0
  187.8970  173.7030  135.4070 C   0  0  0  0  0  2  0  0  0  0  0  0
  181.4050  175.7280  136.7150 C   0  0  0  0  0  3  0  0  0  0  0  0
  181.8640  173.3610  137.0520 C   0  0  0  0  0  3  0  0  0  0  0  0
  187.2270  173.8730  136.8100 C   0  0  0  0  0  2  0  0  0  0  0  0
  188.2450  178.2740  138.4900 C   0  0  0  0  0  0  0  0  0  0  0  0
  185.8130  177.6890  139.2090 C   0  0  0  0  0  2  0  0  0  0  0  0
  182.2640  174.7610  137.4960 C   0  0  0  0  0  0  0  0  0  0  0  0
  185.7340  175.8910  136.7770 C   0  0  0  0  0  0  0  0  0  0  0  0
  185.0170  171.8640  135.4690 C   0  0  0  0  0  2  0  0  0  0  0  0
  182.4950  177.8250  137.5680 C   0  0  0  0  0  0  0  0  0  0  0  0
  187.2920  172.5270  134.6170 C   0  0  0  0  0  2  0  0  0  0  0  0
  187.0750  177.3010  138.4390 C   0  0  1  0  0  3  0  0  0  0  0  0
  189.1650  179.0450  140.7570 O   0  0  0  0  0  0  0  0  0  0  0  0
  186.8530  176.8490  136.9640 C   0  0  2  0  0  3  0  0  0  0  0  0
  181.5240  177.0520  136.7890 C   0  0  0  0  0  3  0  0  0  0  0  0
  181.4890  178.9080  139.5410 C   0  0  0  0  0  3  0  0  0  0  0  0
  181.9430  179.0230  138.2080 C   0  0  0  0  0  0  0  0  0  0  0  0
  181.6530  180.1800  137.4650 C   0  0  0  0  0  3  0  0  0  0  0  0
  180.5890  182.2940  137.2930 F   0  0  0  0  0  0  0  0  0  0  0  0
  180.4390  181.0790  139.3690 C   0  0  0  0  0  3  0  0  0  0  0  0
  180.9060  181.2040  138.0360 C   0  0  0  0  0  0  0  0  0  0  0  0
  180.7330  179.9240  140.1050 C   0  0  0  0  0  3  0  0  0  0  0  0
  190.2530  176.5590  135.7580 C   0  0  0  0  0  1  0  0  0  0  0  0
  189.0870  177.1960  135.0200 C   0  0  0  0  0  2  0  0  0  0  0  0
  2 24  1  0  0  0  0
  2 22  1  0  0  0  0
  3 20  1  0  0  0  0
  4 37  1  6  0  0  0
  4  1  1  0  0  0  0
  4 12  1  0  0  0  0
  5 19  1  0  0  0  0
  6 11  2  0  0  0  0
  6  9  1  0  0  0  0
  7 21  1  1  0  0  0
  7  3  1  0  0  0  0
  7 10  1  0  0  0  0
  8 26  2  0  0  0  0
  9  3  2  0  0  0  0
 10  5  1  0  0  0  0
 11 16  1  0  0  0  0
 12 18  1  0  0  0  0
 13  9  1  0  0  0  0
 13 21  2  0  0  0  0
 13 17  1  0  0  0  0
 14 17  1  0  0  0  0
 15 28  2  0  0  0  0
 15 20  1  0  0  0  0
 16 20  2  0  0  0  0
 18  8  2  0  0  0  0
 21 27  1  0  0  0  0
 22  6  1  0  0  0  0
 23 10  2  0  0  0  0
 23 30  1  0  0  0  0
 24 14  1  0  0  0  0
 25 18  1  0  0  0  0
 25 19  1  6  0  0  0
 27  1  1  6  0  0  0
 27 25  1  0  0  0  0
 28 23  1  0  0  0  0
 29 35  1  0  0  0  0
 30 29  2  0  0  0  0
 31 34  2  0  0  0  0
 31 30  1  0  0  0  0
 32 34  1  0  0  0  0
 33 35  2  0  0  0  0
 34 33  1  0  0  0  0
 37 36  1  0  0  0  0
M  END
>  <MODEL>
9

>  <REMARK>
 VINA RESULT:      -5.5      4.267      8.545
  Name = 
  2 active torsions:
  status: ('A' for Active; 'I' for Inactive)
    1  A    between atoms: C_5  and  C_23
    2  A    between atoms: C_6  and  C_31
                            x       y       z     vdW  Elec       q    Type
                         _______ _______ _______ _____ _____    ______ ____

>  <TORSDO>
F 2

$$$$
