=
 OpenBabel10272413253D

 32 39  0  0  1  0  0  0  0  0999 V2000
  187.9820  177.6070  142.2560 C   0  0  1  0  0  3  0  0  0  0  0  0
  183.5320  179.4340  143.6970 C   0  0  0  0  0  3  0  0  0  0  0  0
  183.6850  178.8630  144.9610 C   0  0  0  0  0  3  0  0  0  0  0  0
  189.2770  177.8310  144.3570 C   0  0  1  0  0  3  0  0  0  0  0  0
  190.5440  177.7560  143.6520 C   0  0  0  0  0  0  0  0  0  0  0  0
  190.2380  176.9930  146.3890 C   0  0  0  0  0  0  0  0  0  0  0  0
  184.5420  179.3020  142.7410 C   0  0  0  0  0  3  0  0  0  0  0  0
  186.7990  178.5530  141.9720 C   0  0  0  0  0  2  0  0  0  0  0  0
  185.7130  178.5970  143.0360 C   0  0  0  0  0  0  0  0  0  0  0  0
  187.0770  177.1830  144.6530 C   0  0  2  0  0  3  0  0  0  0  0  0
  191.6360  177.1500  145.8220 C   0  0  0  0  0  2  0  0  0  0  0  0
  191.6390  177.3750  144.3190 C   0  0  0  0  0  2  0  0  0  0  0  0
  184.8500  178.1610  145.2760 C   0  0  0  0  0  3  0  0  0  0  0  0
  185.8820  178.0410  144.3360 C   0  0  0  0  0  0  0  0  0  0  0  0
  187.6960  177.3690  146.0540 C   0  0  0  0  0  2  0  0  0  0  0  0
  189.2560  178.1280  141.5250 C   0  0  1  0  0  3  0  0  0  0  0  0
  190.5040  177.7800  142.2230 N   0  0  0  0  0  0  0  0  0  0  0  0
  190.0420  176.2690  147.3510 O   0  0  0  0  0  0  0  0  0  0  0  0
  188.1690  177.5370  143.7380 C   0  0  1  0  0  3  0  0  0  0  0  0
  189.1400  177.8520  145.8230 C   0  0  2  0  0  3  0  0  0  0  0  0
  190.1030  177.1910  137.3270 C   0  0  0  0  0  2  0  0  0  0  0  0
  189.3200  177.6420  140.0820 C   0  0  1  0  0  0  0  0  0  0  0  0
  187.9570  177.3850  139.4650 C   0  0  0  0  0  2  0  0  0  0  0  0
  189.3220  178.4700  137.6160 C   0  0  0  0  0  2  0  0  0  0  0  0
  188.7530  178.6110  139.0420 C   0  0  2  0  0  3  0  0  0  0  0  0
  190.3540  176.5770  139.6970 C   0  0  0  0  0  2  0  0  0  0  0  0
  191.1100  176.9460  138.4340 C   0  0  1  0  0  3  0  0  0  0  0  0
  192.0350  175.8030  138.0570 C   0  0  0  0  0  2  0  0  0  0  0  0
  194.2100  175.0400  137.9920 C   0  0  2  0  0  3  0  0  0  0  0  0
  193.4150  176.1740  138.3160 N   0  0  0  0  0  0  0  0  0  0  0  0
  195.4330  175.1280  138.6550 O   0  0  0  0  0  1  0  0  0  0  0  0
  194.1030  176.1020  137.0530 N   0  0  0  0  0  2  0  0  0  0  0  0
  1  8  1  1  0  0  0
  1 19  1  0  0  0  0
  2  3  1  0  0  0  0
  3 13  2  0  0  0  0
  4  5  1  1  0  0  0
  4 20  1  0  0  0  0
  5 12  1  0  0  0  0
  6 18  2  0  0  0  0
  7  9  1  0  0  0  0
  7  2  2  0  0  0  0
  8  9  1  0  0  0  0
  9 14  2  0  0  0  0
 10 15  1  1  0  0  0
 11  6  1  0  0  0  0
 12 11  1  0  0  0  0
 14 10  1  0  0  0  0
 14 13  1  0  0  0  0
 16 17  1  1  0  0  0
 16  1  1  0  0  0  0
 17  5  2  0  0  0  0
 19  4  1  0  0  0  0
 19 10  1  0  0  0  0
 20 15  1  0  0  0  0
 20  6  1  0  0  0  0
 21 24  1  0  0  0  0
 21 27  1  0  0  0  0
 22 16  1  0  0  0  0
 23 22  1  0  0  0  0
 24 25  1  0  0  0  0
 25 23  1  0  0  0  0
 25 22  1  0  0  0  0
 26 22  1  0  0  0  0
 27 26  1  0  0  0  0
 28 30  1  0  0  0  0
 28 27  1  0  0  0  0
 29 30  1  0  0  0  0
 29 31  1  0  0  0  0
 32 29  1  0  0  0  0
 32 30  1  0  0  0  0
M  END
>  <MODEL>
1

>  <REMARK>
 VINA RESULT:     -11.8      0.000      0.000
  Name = 
  3 active torsions:
  status: ('A' for Active; 'I' for Inactive)
    1  A    between atoms: C_8  and  C_28
    2  A    between atoms: N_10  and  C_19
    3  A    between atoms: C_19  and  C_24
                            x       y       z     vdW  Elec       q    Type
                         _______ _______ _______ _____ _____    ______ ____

>  <TORSDO>
F 3

$$$$
=
 OpenBabel10272413253D

 32 39  0  0  1  0  0  0  0  0999 V2000
  187.8690  177.6710  142.3130 C   0  0  1  0  0  3  0  0  0  0  0  0
  183.4740  179.4690  143.9460 C   0  0  0  0  0  3  0  0  0  0  0  0
  183.6760  178.8820  145.1960 C   0  0  0  0  0  3  0  0  0  0  0  0
  189.2430  177.8720  144.3670 C   0  0  1  0  0  3  0  0  0  0  0  0
  190.4830  177.8090  143.6130 C   0  0  0  0  0  0  0  0  0  0  0  0
  190.2830  177.0120  146.3500 C   0  0  0  0  0  0  0  0  0  0  0  0
  184.4470  179.3510  142.9510 C   0  0  0  0  0  3  0  0  0  0  0  0
  186.6740  178.6160  142.0870 C   0  0  0  0  0  2  0  0  0  0  0  0
  185.6300  178.6450  143.1920 C   0  0  0  0  0  0  0  0  0  0  0  0
  187.0570  177.2140  144.7380 C   0  0  2  0  0  3  0  0  0  0  0  0
  191.6580  177.1790  145.7320 C   0  0  0  0  0  2  0  0  0  0  0  0
  191.6030  177.4220  144.2320 C   0  0  0  0  0  2  0  0  0  0  0  0
  184.8540  178.1800  145.4580 C   0  0  0  0  0  3  0  0  0  0  0  0
  185.8500  178.0740  144.4780 C   0  0  0  0  0  0  0  0  0  0  0  0
  187.7290  177.3850  146.1170 C   0  0  0  0  0  2  0  0  0  0  0  0
  189.1130  178.2030  141.5410 C   0  0  1  0  0  3  0  0  0  0  0  0
  190.3880  177.8500  142.1870 N   0  0  0  0  0  0  0  0  0  0  0  0
  190.1250  176.2760  147.3100 O   0  0  0  0  0  0  0  0  0  0  0  0
  188.1130  177.5820  143.7860 C   0  0  1  0  0  3  0  0  0  0  0  0
  189.1620  177.8740  145.8360 C   0  0  2  0  0  3  0  0  0  0  0  0
  189.8680  177.2090  137.3380 C   0  0  0  0  0  2  0  0  0  0  0  0
  189.1230  177.7350  140.0910 C   0  0  1  0  0  0  0  0  0  0  0  0
  187.7450  177.7010  139.4530 C   0  0  0  0  0  2  0  0  0  0  0  0
  189.2900  178.5900  137.6390 C   0  0  0  0  0  2  0  0  0  0  0  0
  188.7280  178.7950  139.0600 C   0  0  2  0  0  3  0  0  0  0  0  0
  189.9850  176.5290  139.7000 C   0  0  0  0  0  2  0  0  0  0  0  0
  190.8080  176.7950  138.4540 C   0  0  1  0  0  3  0  0  0  0  0  0
  191.5500  175.5280  138.0690 C   0  0  0  0  0  2  0  0  0  0  0  0
  191.6570  173.7340  136.6240 C   0  0  2  0  0  3  0  0  0  0  0  0
  190.9440  174.9350  136.8900 N   0  0  0  0  0  0  0  0  0  0  0  0
  191.4830  173.3780  135.2870 O   0  0  0  0  0  1  0  0  0  0  0  0
  190.4080  173.6640  137.2990 N   0  0  0  0  0  2  0  0  0  0  0  0
  1  8  1  1  0  0  0
  1 19  1  0  0  0  0
  2  3  1  0  0  0  0
  3 13  2  0  0  0  0
  4  5  1  1  0  0  0
  4 20  1  0  0  0  0
  5 12  1  0  0  0  0
  6 18  2  0  0  0  0
  7  9  1  0  0  0  0
  7  2  2  0  0  0  0
  8  9  1  0  0  0  0
  9 14  2  0  0  0  0
 10 15  1  1  0  0  0
 11  6  1  0  0  0  0
 12 11  1  0  0  0  0
 14 10  1  0  0  0  0
 14 13  1  0  0  0  0
 16 17  1  1  0  0  0
 16  1  1  0  0  0  0
 17  5  2  0  0  0  0
 19  4  1  0  0  0  0
 19 10  1  0  0  0  0
 20 15  1  0  0  0  0
 20  6  1  0  0  0  0
 21 24  1  0  0  0  0
 21 27  1  0  0  0  0
 22 16  1  0  0  0  0
 23 22  1  0  0  0  0
 24 25  1  0  0  0  0
 25 23  1  0  0  0  0
 25 22  1  0  0  0  0
 26 22  1  0  0  0  0
 27 26  1  0  0  0  0
 28 27  1  0  0  0  0
 29 30  1  0  0  0  0
 29 32  1  0  0  0  0
 30 32  1  0  0  0  0
 30 28  1  0  0  0  0
 31 29  1  0  0  0  0
M  END
>  <MODEL>
2

>  <REMARK>
 VINA RESULT:     -11.3      1.412      1.487
  Name = 
  3 active torsions:
  status: ('A' for Active; 'I' for Inactive)
    1  A    between atoms: C_8  and  C_28
    2  A    between atoms: N_10  and  C_19
    3  A    between atoms: C_19  and  C_24
                            x       y       z     vdW  Elec       q    Type
                         _______ _______ _______ _____ _____    ______ ____

>  <TORSDO>
F 3

$$$$
=
 OpenBabel10272413253D

 32 39  0  0  1  0  0  0  0  0999 V2000
  189.3470  177.5340  143.4470 C   0  0  1  0  0  3  0  0  0  0  0  0
  192.4970  175.3980  146.7230 C   0  0  0  0  0  3  0  0  0  0  0  0
  191.9010  176.0910  147.7780 C   0  0  0  0  0  3  0  0  0  0  0  0
  187.2700  177.6280  144.7960 C   0  0  1  0  0  3  0  0  0  0  0  0
  186.4390  177.7690  143.6140 C   0  0  0  0  0  0  0  0  0  0  0  0
  185.6590  178.7340  146.1880 C   0  0  0  0  0  0  0  0  0  0  0  0
  192.0110  175.5480  145.4230 C   0  0  0  0  0  3  0  0  0  0  0  0
  190.4060  176.4520  143.7330 C   0  0  0  0  0  2  0  0  0  0  0  0
  190.9260  176.3920  145.1610 C   0  0  0  0  0  0  0  0  0  0  0  0
  189.2040  178.0730  145.9840 C   0  0  2  0  0  3  0  0  0  0  0  0
  184.6230  178.6710  145.0820 C   0  0  0  0  0  2  0  0  0  0  0  0
  185.2250  178.3170  143.7320 C   0  0  0  0  0  2  0  0  0  0  0  0
  190.8130  176.9320  147.5370 C   0  0  0  0  0  3  0  0  0  0  0  0
  190.2980  177.0740  146.2420 C   0  0  0  0  0  0  0  0  0  0  0  0
  188.0330  178.0750  146.9900 C   0  0  0  0  0  2  0  0  0  0  0  0
  188.4450  177.0840  142.2600 C   0  0  1  0  0  3  0  0  0  0  0  0
  187.0750  177.6160  142.3420 N   0  0  0  0  0  0  0  0  0  0  0  0
  185.5230  179.5160  147.1140 O   0  0  0  0  0  0  0  0  0  0  0  0
  188.5640  177.7530  144.7020 C   0  0  1  0  0  3  0  0  0  0  0  0
  186.7720  177.7220  146.1790 C   0  0  2  0  0  3  0  0  0  0  0  0
  189.7820  177.4960  138.1050 C   0  0  0  0  0  2  0  0  0  0  0  0
  189.0580  177.4450  140.9130 C   0  0  1  0  0  0  0  0  0  0  0  0
  190.4560  178.0290  141.0170 C   0  0  0  0  0  2  0  0  0  0  0  0
  190.5310  176.5010  138.9870 C   0  0  0  0  0  2  0  0  0  0  0  0
  190.2720  176.6080  140.5030 C   0  0  2  0  0  3  0  0  0  0  0  0
  188.1950  178.1590  139.8660 C   0  0  0  0  0  2  0  0  0  0  0  0
  188.3160  177.5210  138.4940 C   0  0  1  0  0  3  0  0  0  0  0  0
  187.5230  178.3410  137.4940 C   0  0  0  0  0  2  0  0  0  0  0  0
  186.3890  176.4080  136.9520 C   0  0  2  0  0  3  0  0  0  0  0  0
  187.1000  177.5020  136.3860 N   0  0  0  0  0  0  0  0  0  0  0  0
  186.3850  175.3440  136.0510 O   0  0  0  0  0  1  0  0  0  0  0  0
  185.6600  177.4970  136.4020 N   0  0  0  0  0  2  0  0  0  0  0  0
  1  8  1  1  0  0  0
  1 19  1  0  0  0  0
  2  3  1  0  0  0  0
  4  5  1  6  0  0  0
  4 20  1  0  0  0  0
  5 12  1  0  0  0  0
  6 18  2  0  0  0  0
  7  2  2  0  0  0  0
  8  9  1  0  0  0  0
  9  7  1  0  0  0  0
  9 14  2  0  0  0  0
 10 14  1  0  0  0  0
 10 15  1  1  0  0  0
 11  6  1  0  0  0  0
 12 11  1  0  0  0  0
 13  3  2  0  0  0  0
 14 13  1  0  0  0  0
 16 17  1  1  0  0  0
 16  1  1  0  0  0  0
 17  5  2  0  0  0  0
 19  4  1  0  0  0  0
 19 10  1  0  0  0  0
 20  6  1  0  0  0  0
 20 15  1  0  0  0  0
 21 27  1  0  0  0  0
 21 24  1  0  0  0  0
 22 23  1  0  0  0  0
 22 16  1  0  0  0  0
 24 25  1  0  0  0  0
 25 22  1  0  0  0  0
 25 23  1  0  0  0  0
 26 22  1  0  0  0  0
 27 26  1  0  0  0  0
 28 27  1  0  0  0  0
 30 32  1  0  0  0  0
 30 29  1  0  0  0  0
 30 28  1  0  0  0  0
 31 29  1  0  0  0  0
 32 29  1  0  0  0  0
M  END
>  <MODEL>
3

>  <REMARK>
 VINA RESULT:     -11.2      2.957      5.401
  Name = 
  3 active torsions:
  status: ('A' for Active; 'I' for Inactive)
    1  A    between atoms: C_8  and  C_28
    2  A    between atoms: N_10  and  C_19
    3  A    between atoms: C_19  and  C_24
                            x       y       z     vdW  Elec       q    Type
                         _______ _______ _______ _____ _____    ______ ____

>  <TORSDO>
F 3

$$$$
=
 OpenBabel10272413253D

 32 39  0  0  1  0  0  0  0  0999 V2000
  187.3750  177.5670  143.3780 C   0  0  1  0  0  3  0  0  0  0  0  0
  190.5420  177.2000  147.2570 C   0  0  0  0  0  3  0  0  0  0  0  0
  191.4530  176.4910  146.4720 C   0  0  0  0  0  3  0  0  0  0  0  0
  188.9710  177.8490  141.5020 C   0  0  1  0  0  3  0  0  0  0  0  0
  187.9480  178.4140  140.6400 C   0  0  0  0  0  0  0  0  0  0  0  0
  190.2560  177.0620  139.6360 C   0  0  0  0  0  0  0  0  0  0  0  0
  189.3480  177.6630  146.7000 C   0  0  0  0  0  3  0  0  0  0  0  0
  187.7650  178.0160  144.7990 C   0  0  0  0  0  2  0  0  0  0  0  0
  189.0500  177.4220  145.3550 C   0  0  0  0  0  0  0  0  0  0  0  0
  189.6580  176.3550  143.1270 C   0  0  2  0  0  3  0  0  0  0  0  0
  189.3950  177.8570  138.6750 C   0  0  0  0  0  2  0  0  0  0  0  0
  188.1110  178.3620  139.3140 C   0  0  0  0  0  3  0  0  0  0  0  0
  191.1760  176.2490  145.1250 C   0  0  0  0  0  3  0  0  0  0  0  0
  189.9940  176.7280  144.5460 C   0  0  0  0  0  0  0  0  0  0  0  0
  190.8050  176.4820  142.1020 C   0  0  0  0  0  2  0  0  0  0  0  0
  186.5190  178.6740  142.6940 C   0  0  1  0  0  3  0  0  0  0  0  0
  186.6780  178.7050  141.2310 N   0  0  0  0  0  2  0  0  0  0  0  0
  190.9450  176.1410  139.2280 O   0  0  0  0  0  0  0  0  0  0  0  0
  188.6350  177.2790  142.6250 C   0  0  1  0  0  3  0  0  0  0  0  0
  190.3380  177.5220  141.0660 C   0  0  2  0  0  3  0  0  0  0  0  0
  182.1760  178.9520  143.2240 C   0  0  0  0  0  2  0  0  0  0  0  0
  185.0430  178.5510  143.0490 C   0  0  1  0  0  0  0  0  0  0  0  0
  184.7960  178.0420  144.4580 C   0  0  0  0  0  2  0  0  0  0  0  0
  183.0480  179.8520  144.0960 C   0  0  0  0  0  2  0  0  0  0  0  0
  184.5510  179.5090  144.1360 C   0  0  2  0  0  3  0  0  0  0  0  0
  184.0750  177.9460  142.0250 C   0  0  0  0  0  2  0  0  0  0  0  0
  182.8200  178.7830  141.8610 C   0  0  1  0  0  3  0  0  0  0  0  0
  181.8690  178.0720  140.9170 C   0  0  0  0  0  2  0  0  0  0  0  0
  182.0410  176.2160  139.5590 C   0  0  2  0  0  3  0  0  0  0  0  0
  182.6070  177.4970  139.8060 N   0  0  0  0  0  0  0  0  0  0  0  0
  182.9660  175.4250  138.8790 O   0  0  0  0  0  1  0  0  0  0  0  0
  181.6610  177.3120  138.7370 N   0  0  0  0  0  2  0  0  0  0  0  0
  1  8  1  1  0  0  0
  3  2  2  0  0  0  0
  4  5  1  6  0  0  0
  4 19  1  0  0  0  0
  5 17  1  0  0  0  0
  6 20  1  0  0  0  0
  7  2  1  0  0  0  0
  8  9  1  0  0  0  0
  9  7  2  0  0  0  0
 10 15  1  6  0  0  0
 10 14  1  0  0  0  0
 11 12  1  0  0  0  0
 11  6  1  0  0  0  0
 12  5  2  0  0  0  0
 13  3  1  0  0  0  0
 14 13  2  0  0  0  0
 14  9  1  0  0  0  0
 16 17  1  6  0  0  0
 16 22  1  0  0  0  0
 16  1  1  0  0  0  0
 18  6  2  0  0  0  0
 19 10  1  0  0  0  0
 19  1  1  0  0  0  0
 20  4  1  0  0  0  0
 20 15  1  0  0  0  0
 21 24  1  0  0  0  0
 22 25  1  0  0  0  0
 22 23  1  0  0  0  0
 24 25  1  0  0  0  0
 25 23  1  0  0  0  0
 26 22  1  0  0  0  0
 27 26  1  0  0  0  0
 27 21  1  0  0  0  0
 28 27  1  0  0  0  0
 29 30  1  0  0  0  0
 30 28  1  0  0  0  0
 31 29  1  0  0  0  0
 32 29  1  0  0  0  0
 32 30  1  0  0  0  0
M  END
>  <MODEL>
4

>  <REMARK>
 VINA RESULT:     -10.7      3.500      7.316
  Name = 
  3 active torsions:
  status: ('A' for Active; 'I' for Inactive)
    1  A    between atoms: C_8  and  C_28
    2  A    between atoms: N_10  and  C_19
    3  A    between atoms: C_19  and  C_24
                            x       y       z     vdW  Elec       q    Type
                         _______ _______ _______ _____ _____    ______ ____

>  <TORSDO>
F 3

$$$$
=
 OpenBabel10272413253D

 32 39  0  0  1  0  0  0  0  0999 V2000
  185.9500  177.8850  143.7760 C   0  0  1  0  0  3  0  0  0  0  0  0
  188.0150  178.0910  148.3480 C   0  0  0  0  0  3  0  0  0  0  0  0
  189.1400  177.4000  147.8930 C   0  0  0  0  0  3  0  0  0  0  0  0
  187.9590  178.1490  142.3480 C   0  0  1  0  0  3  0  0  0  0  0  0
  187.1630  178.5570  141.2040 C   0  0  0  0  0  0  0  0  0  0  0  0
  189.7300  177.3250  140.9550 C   0  0  0  0  0  0  0  0  0  0  0  0
  186.9820  178.4080  147.4640 C   0  0  0  0  0  3  0  0  0  0  0  0
  185.9290  178.4760  145.1980 C   0  0  0  0  0  2  0  0  0  0  0  0
  187.0590  178.0370  146.1170 C   0  0  0  0  0  0  0  0  0  0  0  0
  188.2880  176.8510  144.2330 C   0  0  2  0  0  3  0  0  0  0  0  0
  189.1020  177.9680  139.7340 C   0  0  0  0  0  2  0  0  0  0  0  0
  187.6690  178.4130  139.9740 C   0  0  0  0  0  3  0  0  0  0  0  0
  189.2380  177.0290  146.5500 C   0  0  0  0  0  3  0  0  0  0  0  0
  188.2200  177.3610  145.6460 C   0  0  0  0  0  0  0  0  0  0  0  0
  189.6520  176.9910  143.5240 C   0  0  0  0  0  2  0  0  0  0  0  0
  185.2370  178.8600  142.7920 C   0  0  1  0  0  3  0  0  0  0  0  0
  185.7690  178.7880  141.4210 N   0  0  0  0  0  2  0  0  0  0  0  0
  190.5550  176.4360  140.8280 O   0  0  0  0  0  0  0  0  0  0  0  0
  187.3770  177.6440  143.3990 C   0  0  1  0  0  3  0  0  0  0  0  0
  189.4100  177.9030  142.3070 C   0  0  2  0  0  3  0  0  0  0  0  0
  180.8870  178.8780  142.2440 C   0  0  0  0  0  2  0  0  0  0  0  0
  183.7290  178.6430  142.7710 C   0  0  1  0  0  0  0  0  0  0  0  0
  183.1780  178.0770  144.0680 C   0  0  0  0  0  2  0  0  0  0  0  0
  181.4620  179.7970  143.3180 C   0  0  0  0  0  2  0  0  0  0  0  0
  182.9280  179.5380  143.7200 C   0  0  2  0  0  3  0  0  0  0  0  0
  183.0800  178.0180  141.5310 C   0  0  0  0  0  2  0  0  0  0  0  0
  181.8540  178.7880  141.0780 C   0  0  1  0  0  3  0  0  0  0  0  0
  181.2080  178.0550  139.9170 C   0  0  0  0  0  2  0  0  0  0  0  0
  180.2340  175.9750  139.7060 C   0  0  2  0  0  3  0  0  0  0  0  0
  181.4540  176.6280  140.0310 N   0  0  0  0  0  0  0  0  0  0  0  0
  180.2350  174.6920  140.2530 O   0  0  0  0  0  1  0  0  0  0  0  0
  181.2520  176.0700  138.7190 N   0  0  0  0  0  2  0  0  0  0  0  0
  1  8  1  1  0  0  0
  3  2  1  0  0  0  0
  4  5  1  6  0  0  0
  4 19  1  0  0  0  0
  5 17  1  0  0  0  0
  6 20  1  0  0  0  0
  7  2  2  0  0  0  0
  8  9  1  0  0  0  0
  9  7  1  0  0  0  0
 10 15  1  6  0  0  0
 10 14  1  0  0  0  0
 11 12  1  0  0  0  0
 11  6  1  0  0  0  0
 12  5  2  0  0  0  0
 13  3  2  0  0  0  0
 14  9  2  0  0  0  0
 14 13  1  0  0  0  0
 16 17  1  6  0  0  0
 16  1  1  0  0  0  0
 18  6  2  0  0  0  0
 19  1  1  0  0  0  0
 19 10  1  0  0  0  0
 20  4  1  0  0  0  0
 20 15  1  0  0  0  0
 21 24  1  0  0  0  0
 22 16  1  0  0  0  0
 22 25  1  0  0  0  0
 22 23  1  0  0  0  0
 24 25  1  0  0  0  0
 25 23  1  0  0  0  0
 26 22  1  0  0  0  0
 27 26  1  0  0  0  0
 27 21  1  0  0  0  0
 28 30  1  0  0  0  0
 28 27  1  0  0  0  0
 29 30  1  0  0  0  0
 29 31  1  0  0  0  0
 32 29  1  0  0  0  0
 32 30  1  0  0  0  0
M  END
>  <MODEL>
5

>  <REMARK>
 VINA RESULT:     -10.6      3.986      7.484
  Name = 
  3 active torsions:
  status: ('A' for Active; 'I' for Inactive)
    1  A    between atoms: C_8  and  C_28
    2  A    between atoms: N_10  and  C_19
    3  A    between atoms: C_19  and  C_24
                            x       y       z     vdW  Elec       q    Type
                         _______ _______ _______ _____ _____    ______ ____

>  <TORSDO>
F 3

$$$$
=
 OpenBabel10272413253D

 32 39  0  0  1  0  0  0  0  0999 V2000
  185.5270  178.0880  142.4230 C   0  0  1  0  0  3  0  0  0  0  0  0
  185.9310  178.8110  147.3760 C   0  0  0  0  0  3  0  0  0  0  0  0
  187.0960  178.0440  147.4130 C   0  0  0  0  0  3  0  0  0  0  0  0
  187.9130  178.1280  141.7540 C   0  0  1  0  0  3  0  0  0  0  0  0
  187.5800  178.4090  140.3690 C   0  0  0  0  0  0  0  0  0  0  0  0
  189.9950  177.0980  141.1530 C   0  0  0  0  0  0  0  0  0  0  0  0
  185.2800  179.0400  146.1620 C   0  0  0  0  0  3  0  0  0  0  0  0
  185.0630  178.8510  143.6790 C   0  0  0  0  0  2  0  0  0  0  0  0
  185.7850  178.5040  144.9720 C   0  0  0  0  0  0  0  0  0  0  0  0
  187.5010  177.0650  143.7660 C   0  0  2  0  0  3  0  0  0  0  0  0
  189.8610  177.5990  139.7280 C   0  0  0  0  0  2  0  0  0  0  0  0
  188.4620  178.1030  139.4110 C   0  0  0  0  0  3  0  0  0  0  0  0
  187.6190  177.5080  146.2340 C   0  0  0  0  0  3  0  0  0  0  0  0
  186.9910  177.7490  145.0060 C   0  0  0  0  0  0  0  0  0  0  0  0
  189.0300  177.0860  143.5590 C   0  0  0  0  0  2  0  0  0  0  0  0
  185.2530  178.9500  141.1550 C   0  0  1  0  0  3  0  0  0  0  0  0
  186.2120  178.6970  140.0670 N   0  0  0  0  0  2  0  0  0  0  0  0
  190.7560  176.1810  141.4140 O   0  0  0  0  0  0  0  0  0  0  0  0
  186.9790  177.7700  142.5890 C   0  0  1  0  0  3  0  0  0  0  0  0
  189.2730  177.8460  142.2410 C   0  0  2  0  0  3  0  0  0  0  0  0
  181.0470  179.1770  139.9380 C   0  0  0  0  0  2  0  0  0  0  0  0
  183.8310  178.7670  140.6410 C   0  0  1  0  0  0  0  0  0  0  0  0
  183.3240  177.3390  140.7490 C   0  0  0  0  0  2  0  0  0  0  0  0
  181.3380  178.7940  141.3870 C   0  0  0  0  0  2  0  0  0  0  0  0
  182.7940  178.3990  141.7050 C   0  0  2  0  0  3  0  0  0  0  0  0
  183.4170  179.4430  139.3280 C   0  0  0  0  0  2  0  0  0  0  0  0
  182.0890  180.1670  139.4530 C   0  0  1  0  0  3  0  0  0  0  0  0
  181.6950  180.7190  138.0950 C   0  0  0  0  0  2  0  0  0  0  0  0
  180.8060  182.5320  136.9820 C   0  0  2  0  0  3  0  0  0  0  0  0
  181.4500  182.1470  138.1900 N   0  0  0  0  0  0  0  0  0  0  0  0
  180.9810  183.9010  136.7800 O   0  0  0  0  0  1  0  0  0  0  0  0
  180.0210  182.3220  138.1490 N   0  0  0  0  0  2  0  0  0  0  0  0
  1 19  1  0  0  0  0
  1  8  1  1  0  0  0
  2  3  1  0  0  0  0
  4  5  1  6  0  0  0
  4 20  1  0  0  0  0
  4 19  1  0  0  0  0
  6 18  2  0  0  0  0
  6 20  1  0  0  0  0
  7  2  2  0  0  0  0
  8  9  1  0  0  0  0
  9 14  2  0  0  0  0
  9  7  1  0  0  0  0
 10 15  1  1  0  0  0
 10 14  1  0  0  0  0
 11  6  1  0  0  0  0
 12 11  1  0  0  0  0
 12  5  2  0  0  0  0
 13  3  2  0  0  0  0
 14 13  1  0  0  0  0
 16 17  1  6  0  0  0
 16  1  1  0  0  0  0
 17  5  1  0  0  0  0
 19 10  1  0  0  0  0
 20 15  1  0  0  0  0
 21 24  1  0  0  0  0
 22 23  1  0  0  0  0
 22 16  1  0  0  0  0
 22 25  1  0  0  0  0
 23 25  1  0  0  0  0
 24 25  1  0  0  0  0
 26 27  1  0  0  0  0
 26 22  1  0  0  0  0
 27 21  1  0  0  0  0
 28 30  1  0  0  0  0
 28 27  1  0  0  0  0
 29 32  1  0  0  0  0
 29 30  1  0  0  0  0
 31 29  1  0  0  0  0
 32 30  1  0  0  0  0
M  END
>  <MODEL>
6

>  <REMARK>
 VINA RESULT:     -10.5      4.891      7.503
  Name = 
  3 active torsions:
  status: ('A' for Active; 'I' for Inactive)
    1  A    between atoms: C_8  and  C_28
    2  A    between atoms: N_10  and  C_19
    3  A    between atoms: C_19  and  C_24
                            x       y       z     vdW  Elec       q    Type
                         _______ _______ _______ _____ _____    ______ ____

>  <TORSDO>
F 3

$$$$
=
 OpenBabel10272413253D

 32 39  0  0  1  0  0  0  0  0999 V2000
  189.4240  176.9170  140.6200 C   0  0  1  0  0  3  0  0  0  0  0  0
  193.3290  176.4090  137.5050 C   0  0  0  0  0  3  0  0  0  0  0  0
  192.4700  176.1280  136.4420 C   0  0  0  0  0  3  0  0  0  0  0  0
  187.7660  177.9800  139.1150 C   0  0  1  0  0  3  0  0  0  0  0  0
  186.9830  178.4760  140.2330 C   0  0  0  0  0  0  0  0  0  0  0  0
  185.8620  177.9570  137.6560 C   0  0  0  0  0  0  0  0  0  0  0  0
  192.8100  176.7010  138.7680 C   0  0  0  0  0  3  0  0  0  0  0  0
  190.9310  177.1060  140.3660 C   0  0  0  0  0  2  0  0  0  0  0  0
  191.4280  176.7120  138.9830 C   0  0  0  0  0  0  0  0  0  0  0  0
  189.0660  176.3520  138.1100 C   0  0  2  0  0  3  0  0  0  0  0  0
  185.0440  178.7320  138.6700 C   0  0  0  0  0  2  0  0  0  0  0  0
  185.6910  178.7680  140.0450 C   0  0  0  0  0  3  0  0  0  0  0  0
  191.0870  176.1430  136.6360 C   0  0  0  0  0  3  0  0  0  0  0  0
  190.5500  176.4570  137.8910 C   0  0  0  0  0  0  0  0  0  0  0  0
  188.1710  176.9700  137.0150 C   0  0  0  0  0  2  0  0  0  0  0  0
  188.9440  177.9250  141.7070 C   0  0  1  0  0  3  0  0  0  0  0  0
  187.5370  178.3250  141.5420 N   0  0  0  0  0  2  0  0  0  0  0  0
  185.3090  177.3380  136.7620 O   0  0  0  0  0  0  0  0  0  0  0  0
  188.7110  177.1060  139.3190 C   0  0  1  0  0  3  0  0  0  0  0  0
  187.3600  178.0840  137.7030 C   0  0  2  0  0  3  0  0  0  0  0  0
  189.5820  177.1560  145.9760 C   0  0  0  0  0  2  0  0  0  0  0  0
  189.1650  177.3870  143.1150 C   0  0  1  0  0  0  0  0  0  0  0  0
  189.9660  176.0980  143.1570 C   0  0  0  0  0  2  0  0  0  0  0  0
  190.8130  177.4620  145.1270 C   0  0  0  0  0  2  0  0  0  0  0  0
  190.6170  177.4000  143.5990 C   0  0  2  0  0  3  0  0  0  0  0  0
  187.9960  177.3890  144.1080 C   0  0  0  0  0  2  0  0  0  0  0  0
  188.3960  177.9500  145.4600 C   0  0  1  0  0  3  0  0  0  0  0  0
  187.2250  177.8220  146.4170 C   0  0  0  0  0  2  0  0  0  0  0  0
  184.9950  178.3280  146.7110 C   0  0  2  0  0  3  0  0  0  0  0  0
  186.1770  178.7580  146.0480 N   0  0  0  0  0  0  0  0  0  0  0  0
  183.8810  178.8420  146.0490 O   0  0  0  0  0  1  0  0  0  0  0  0
  185.7510  179.3960  147.2660 N   0  0  0  0  0  2  0  0  0  0  0  0
  1  8  1  6  0  0  0
  1 16  1  0  0  0  0
  2  7  1  0  0  0  0
  3 13  1  0  0  0  0
  3  2  2  0  0  0  0
  4 19  1  0  0  0  0
  4  5  1  1  0  0  0
  5 17  1  0  0  0  0
  6 20  1  0  0  0  0
  6 11  1  0  0  0  0
  7  9  2  0  0  0  0
  9  8  1  0  0  0  0
 10 15  1  6  0  0  0
 10 19  1  0  0  0  0
 11 12  1  0  0  0  0
 12  5  2  0  0  0  0
 13 14  2  0  0  0  0
 14 10  1  0  0  0  0
 14  9  1  0  0  0  0
 15 20  1  0  0  0  0
 16 17  1  6  0  0  0
 16 22  1  0  0  0  0
 18  6  2  0  0  0  0
 19  1  1  0  0  0  0
 20  4  1  0  0  0  0
 22 23  1  0  0  0  0
 22 25  1  0  0  0  0
 22 26  1  0  0  0  0
 23 25  1  0  0  0  0
 24 21  1  0  0  0  0
 25 24  1  0  0  0  0
 26 27  1  0  0  0  0
 27 21  1  0  0  0  0
 27 28  1  0  0  0  0
 29 32  1  0  0  0  0
 30 28  1  0  0  0  0
 30 29  1  0  0  0  0
 30 32  1  0  0  0  0
 31 29  1  0  0  0  0
M  END
>  <MODEL>
7

>  <REMARK>
 VINA RESULT:     -10.4      3.318      8.605
  Name = 
  3 active torsions:
  status: ('A' for Active; 'I' for Inactive)
    1  A    between atoms: C_8  and  C_28
    2  A    between atoms: N_10  and  C_19
    3  A    between atoms: C_19  and  C_24
                            x       y       z     vdW  Elec       q    Type
                         _______ _______ _______ _____ _____    ______ ____

>  <TORSDO>
F 3

$$$$
=
 OpenBabel10272413253D

 32 39  0  0  1  0  0  0  0  0999 V2000
  185.5640  177.9680  141.9500 C   0  0  1  0  0  3  0  0  0  0  0  0
  185.2340  178.7890  146.8930 C   0  0  0  0  0  3  0  0  0  0  0  0
  186.4360  178.1120  147.1060 C   0  0  0  0  0  3  0  0  0  0  0  0
  188.0090  178.1780  141.6080 C   0  0  1  0  0  3  0  0  0  0  0  0
  187.8490  178.4130  140.1850 C   0  0  0  0  0  0  0  0  0  0  0  0
  190.2230  177.2990  141.3190 C   0  0  0  0  0  0  0  0  0  0  0  0
  184.7400  178.9510  145.5970 C   0  0  0  0  0  3  0  0  0  0  0  0
  184.8790  178.7110  143.1130 C   0  0  0  0  0  2  0  0  0  0  0  0
  185.4400  178.4370  144.5000 C   0  0  0  0  0  0  0  0  0  0  0  0
  187.4050  177.1150  143.5710 C   0  0  2  0  0  3  0  0  0  0  0  0
  190.2480  177.7680  139.8780 C   0  0  0  0  0  2  0  0  0  0  0  0
  188.8730  178.1610  139.3620 C   0  0  0  0  0  3  0  0  0  0  0  0
  187.1520  177.6000  146.0220 C   0  0  0  0  0  3  0  0  0  0  0  0
  186.6820  177.7760  144.7140 C   0  0  0  0  0  0  0  0  0  0  0  0
  188.9420  177.2480  143.5720 C   0  0  0  0  0  2  0  0  0  0  0  0
  185.4040  178.7890  140.6360 C   0  0  1  0  0  3  0  0  0  0  0  0
  186.5170  178.5930  139.6940 N   0  0  0  0  0  2  0  0  0  0  0  0
  191.0060  176.4450  141.7030 O   0  0  0  0  0  0  0  0  0  0  0  0
  186.9980  177.7620  142.3180 C   0  0  1  0  0  3  0  0  0  0  0  0
  189.3070  178.0050  142.2820 C   0  0  2  0  0  3  0  0  0  0  0  0
  181.9950  178.1380  137.9570 C   0  0  0  0  0  2  0  0  0  0  0  0
  184.0820  178.4910  139.9390 C   0  0  1  0  0  0  0  0  0  0  0  0
  182.8620  178.7990  140.7900 C   0  0  0  0  0  2  0  0  0  0  0  0
  182.2390  179.5630  138.4460 C   0  0  0  0  0  2  0  0  0  0  0  0
  183.2180  179.7160  139.6280 C   0  0  2  0  0  3  0  0  0  0  0  0
  183.9320  177.1900  139.1420 C   0  0  0  0  0  2  0  0  0  0  0  0
  183.3210  177.4260  137.7730 C   0  0  1  0  0  3  0  0  0  0  0  0
  183.1070  176.0890  137.0880 C   0  0  0  0  0  2  0  0  0  0  0  0
  183.8550  173.9230  137.3480 C   0  0  2  0  0  3  0  0  0  0  0  0
  184.2990  175.2680  137.2160 N   0  0  0  0  0  0  0  0  0  0  0  0
  184.8550  173.1640  137.9540 O   0  0  0  0  0  1  0  0  0  0  0  0
  184.3100  174.3820  136.0820 N   0  0  0  0  0  2  0  0  0  0  0  0
  1 19  1  0  0  0  0
  1  8  1  1  0  0  0
  2  3  1  0  0  0  0
  4  5  1  6  0  0  0
  4 20  1  0  0  0  0
  4 19  1  0  0  0  0
  6 18  2  0  0  0  0
  6 20  1  0  0  0  0
  7  2  2  0  0  0  0
  8  9  1  0  0  0  0
  9 14  2  0  0  0  0
  9  7  1  0  0  0  0
 10 15  1  1  0  0  0
 10 14  1  0  0  0  0
 11  6  1  0  0  0  0
 12 11  1  0  0  0  0
 12  5  2  0  0  0  0
 13  3  2  0  0  0  0
 14 13  1  0  0  0  0
 16 17  1  6  0  0  0
 16  1  1  0  0  0  0
 17  5  1  0  0  0  0
 19 10  1  0  0  0  0
 20 15  1  0  0  0  0
 21 24  1  0  0  0  0
 22 16  1  0  0  0  0
 22 23  1  0  0  0  0
 24 25  1  0  0  0  0
 25 22  1  0  0  0  0
 25 23  1  0  0  0  0
 26 22  1  0  0  0  0
 27 21  1  0  0  0  0
 27 26  1  0  0  0  0
 28 30  1  0  0  0  0
 28 27  1  0  0  0  0
 29 31  1  0  0  0  0
 30 29  1  0  0  0  0
 32 30  1  0  0  0  0
 32 29  1  0  0  0  0
M  END
>  <MODEL>
8

>  <REMARK>
 VINA RESULT:     -10.2      4.094      5.810
  Name = 
  3 active torsions:
  status: ('A' for Active; 'I' for Inactive)
    1  A    between atoms: C_8  and  C_28
    2  A    between atoms: N_10  and  C_19
    3  A    between atoms: C_19  and  C_24
                            x       y       z     vdW  Elec       q    Type
                         _______ _______ _______ _____ _____    ______ ____

>  <TORSDO>
F 3

$$$$
=
 OpenBabel10272413253D

 32 39  0  0  1  0  0  0  0  0999 V2000
  187.8240  177.6900  142.2460 C   0  0  1  0  0  3  0  0  0  0  0  0
  183.4130  179.4100  143.9190 C   0  0  0  0  0  3  0  0  0  0  0  0
  183.6160  178.7880  145.1520 C   0  0  0  0  0  3  0  0  0  0  0  0
  189.1920  177.8400  144.3070 C   0  0  1  0  0  3  0  0  0  0  0  0
  190.4340  177.8070  143.5550 C   0  0  0  0  0  0  0  0  0  0  0  0
  190.2330  176.9290  146.2670 C   0  0  0  0  0  0  0  0  0  0  0  0
  184.3890  179.3280  142.9230 C   0  0  0  0  0  3  0  0  0  0  0  0
  186.6230  178.6340  142.0440 C   0  0  0  0  0  2  0  0  0  0  0  0
  185.5760  178.6230  143.1470 C   0  0  0  0  0  0  0  0  0  0  0  0
  187.0100  177.1570  144.6540 C   0  0  2  0  0  3  0  0  0  0  0  0
  191.6080  177.1230  145.6580 C   0  0  0  0  0  2  0  0  0  0  0  0
  191.5550  177.4100  144.1660 C   0  0  0  0  0  2  0  0  0  0  0  0
  184.7990  178.0870  145.3960 C   0  0  0  0  0  3  0  0  0  0  0  0
  185.7970  178.0160  144.4160 C   0  0  0  0  0  0  0  0  0  0  0  0
  187.6770  177.2920  146.0380 C   0  0  0  0  0  2  0  0  0  0  0  0
  189.0660  178.2530  141.4920 C   0  0  1  0  0  3  0  0  0  0  0  0
  190.3420  177.8890  142.1300 N   0  0  0  0  0  0  0  0  0  0  0  0
  190.0770  176.1630  147.2040 O   0  0  0  0  0  0  0  0  0  0  0  0
  188.0650  177.5600  143.7160 C   0  0  1  0  0  3  0  0  0  0  0  0
  189.1080  177.7980  145.7760 C   0  0  2  0  0  3  0  0  0  0  0  0
  188.5490  176.5000  137.5070 C   0  0  0  0  0  2  0  0  0  0  0  0
  189.0830  177.8280  140.0290 C   0  0  1  0  0  0  0  0  0  0  0  0
  190.4440  177.9690  139.3700 C   0  0  0  0  0  2  0  0  0  0  0  0
  189.4970  175.7880  138.4680 C   0  0  0  0  0  2  0  0  0  0  0  0
  189.9180  176.5840  139.7200 C   0  0  2  0  0  3  0  0  0  0  0  0
  187.9340  178.2630  139.1110 C   0  0  0  0  0  2  0  0  0  0  0  0
  187.3970  177.1100  138.2840 C   0  0  1  0  0  3  0  0  0  0  0  0
  186.3410  177.6340  137.3280 C   0  0  0  0  0  2  0  0  0  0  0  0
  184.1140  177.2610  137.7960 C   0  0  2  0  0  3  0  0  0  0  0  0
  185.2620  176.6700  137.2010 N   0  0  0  0  0  0  0  0  0  0  0  0
  183.2120  176.2600  138.1540 O   0  0  0  0  0  1  0  0  0  0  0  0
  184.2540  177.2880  136.3810 N   0  0  0  0  0  2  0  0  0  0  0  0
  1  8  1  1  0  0  0
  1 19  1  0  0  0  0
  2  3  1  0  0  0  0
  3 13  2  0  0  0  0
  4  5  1  6  0  0  0
  4 20  1  0  0  0  0
  5 12  1  0  0  0  0
  6 18  2  0  0  0  0
  7  9  1  0  0  0  0
  7  2  2  0  0  0  0
  8  9  1  0  0  0  0
  9 14  2  0  0  0  0
 10 15  1  1  0  0  0
 11  6  1  0  0  0  0
 12 11  1  0  0  0  0
 14 10  1  0  0  0  0
 14 13  1  0  0  0  0
 16 17  1  1  0  0  0
 16  1  1  0  0  0  0
 17  5  2  0  0  0  0
 19  4  1  0  0  0  0
 19 10  1  0  0  0  0
 20 15  1  0  0  0  0
 20  6  1  0  0  0  0
 21 27  1  0  0  0  0
 21 24  1  0  0  0  0
 22 16  1  0  0  0  0
 23 25  1  0  0  0  0
 23 22  1  0  0  0  0
 24 25  1  0  0  0  0
 25 22  1  0  0  0  0
 26 22  1  0  0  0  0
 27 26  1  0  0  0  0
 28 27  1  0  0  0  0
 29 31  1  0  0  0  0
 30 28  1  0  0  0  0
 30 29  1  0  0  0  0
 32 30  1  0  0  0  0
 32 29  1  0  0  0  0
M  END
>  <MODEL>
9

>  <REMARK>
 VINA RESULT:     -10.0      3.034      3.984
  Name = 
  3 active torsions:
  status: ('A' for Active; 'I' for Inactive)
    1  A    between atoms: C_8  and  C_28
    2  A    between atoms: N_10  and  C_19
    3  A    between atoms: C_19  and  C_24
                            x       y       z     vdW  Elec       q    Type
                         _______ _______ _______ _____ _____    ______ ____

>  <TORSDO>
F 3

$$$$
