=
 OpenBabel10272401223D

 55 62  0  0  1  0  0  0  0  0999 V2000
  190.6880  176.8690  139.7100 C   0  0  0  0  0  2  0  0  0  0  0  0
  187.3420  176.8930  138.7290 C   0  0  0  0  0  2  0  0  0  0  0  0
  186.3870  178.1470  136.9040 C   0  0  0  0  0  2  0  0  0  0  0  0
  186.7410  175.5020  134.5150 C   0  0  0  0  0  3  0  0  0  0  0  0
  186.7430  174.1020  134.3480 C   0  0  0  0  0  3  0  0  0  0  0  0
  189.1100  175.4510  135.0490 C   0  0  0  0  0  0  0  0  0  0  0  0
  189.1050  174.0570  134.8520 C   0  0  0  0  0  3  0  0  0  0  0  0
  186.7430  178.4160  135.4350 C   0  0  0  0  0  2  0  0  0  0  0  0
  187.9340  173.4000  134.4920 C   0  0  0  0  0  3  0  0  0  0  0  0
  191.5050  177.6340  141.9230 C   0  0  0  0  0  2  0  0  0  0  0  0
  187.9190  176.2030  134.8480 C   0  0  0  0  0  0  0  0  0  0  0  0
  188.6410  178.2760  141.9860 C   0  0  1  0  0  3  0  0  0  0  0  0
  190.2440  175.6270  138.9460 C   0  0  0  0  0  2  0  0  0  0  0  0
  189.0870  176.8300  141.7280 C   0  0  0  0  0  2  0  0  0  0  0  0
  190.4510  176.6470  136.6780 O   0  0  0  0  0  0  0  0  0  0  0  0
  186.0930  178.7680  139.5640 O   0  0  0  0  0  0  0  0  0  0  0  0
  190.4180  176.1160  135.3640 C   0  0  0  0  0  2  0  0  0  0  0  0
  187.3860  178.3000  139.2960 C   0  0  2  0  0  3  0  0  0  0  0  0
  187.6290  178.0530  137.7930 C   0  0  1  0  0  3  0  0  0  0  0  0
  190.9090  178.3270  143.1290 C   0  0  0  0  0  2  0  0  0  0  0  0
  185.7220  178.3900  140.8660 C   0  0  1  0  0  3  0  0  0  0  0  0
  190.5290  176.6830  141.2070 C   0  0  1  0  0  3  0  0  0  0  0  0
  187.9950  177.6980  134.8890 C   0  0  0  0  0  2  0  0  0  0  0  0
  190.7870  175.5920  137.5140 C   0  0  1  0  0  3  0  0  0  0  0  0
  186.5400  179.1650  141.9320 C   0  0  0  0  0  2  0  0  0  0  0  0
  187.3780  178.3140  142.6520 O   0  0  0  0  0  0  0  0  0  0  0  0
  189.6650  179.1380  142.7550 C   0  0  0  0  0  2  0  0  0  0  0  0
  193.1470  176.4070  137.5350 C   0  0  0  0  0  2  0  0  0  0  0  0
  194.9940  174.8150  137.6310 C   0  0  2  0  0  3  0  0  0  0  0  0
  192.6860  173.9120  137.3740 C   0  0  0  0  0  3  0  0  0  0  0  0
  194.0160  173.6220  137.4360 C   0  0  0  0  0  3  0  0  0  0  0  0
  194.5010  176.0720  136.9300 C   0  0  0  0  0  2  0  0  0  0  0  0
  192.2840  175.2080  137.3950 N   0  0  0  0  0  0  0  0  0  0  0  0
  196.4420  174.4990  137.1930 C   0  0  0  0  0  0  0  0  0  0  0  0
  196.6640  173.3920  136.6680 O   0  0  0  0  0  0  0  0  0  0  0  0
  197.4580  175.2940  137.6060 O   0  0  0  0  0  1  0  0  0  0  0  0
  184.3380  178.4700  141.0850 O   0  0  0  0  0  0  0  0  0  0  0  0
  183.8070  177.9460  139.8930 C   0  0  0  0  0  2  0  0  0  0  0  0
  182.9950  180.0890  138.8990 C   0  0  0  0  0  1  0  0  0  0  0  0
  182.5260  178.6690  139.3840 C   0  0  2  0  0  0  0  0  0  0  0  0
  180.8140  180.1800  140.3510 O   0  0  0  0  0  1  0  0  0  0  0  0
  181.5970  179.0290  140.5840 C   0  0  2  0  0  0  0  0  0  0  0  0
  181.3490  178.9270  141.9210 O   0  0  0  0  0  0  0  0  0  0  0  0
  180.8290  177.8240  141.2240 C   0  0  2  0  0  3  0  0  0  0  0  0
  180.5480  176.9450  139.8820 C   0  0  0  0  0  2  0  0  0  0  0  0
  180.1100  175.6360  139.9830 O   0  0  0  0  0  0  0  0  0  0  0  0
  180.2590  175.1750  138.7280 O   0  0  0  0  0  1  0  0  0  0  0  0
  182.1100  178.1310  138.0070 C   0  0  0  0  0  2  0  0  0  0  0  0
  182.5520  174.9360  135.1220 C   0  0  0  0  0  2  0  0  0  0  0  0
  182.9170  177.3350  136.9460 C   0  0  2  0  0  3  0  0  0  0  0  0
  184.1170  175.0970  137.5590 C   0  0  0  0  0  2  0  0  0  0  0  0
  183.7780  175.3400  136.0710 C   0  0  2  0  0  3  0  0  0  0  0  0
  182.1120  177.3930  135.5640 C   0  0  0  0  0  2  0  0  0  0  0  0
  182.9060  175.9050  137.2390 C   0  0  2  0  0  3  0  0  0  0  0  0
  182.1010  176.2060  134.5230 C   0  0  0  0  0  2  0  0  0  0  0  0
  4 11  1  0  0  0  0
  5  9  1  0  0  0  0
  5  4  2  0  0  0  0
  6 17  1  0  0  0  0
  7  6  1  0  0  0  0
  8  3  1  0  0  0  0
  9  7  2  0  0  0  0
 10 20  1  0  0  0  0
 11 23  1  0  0  0  0
 11  6  2  0  0  0  0
 12 14  1  1  0  0  0
 12 26  1  0  0  0  0
 12 27  1  0  0  0  0
 13  1  1  0  0  0  0
 15 24  1  0  0  0  0
 16 21  1  0  0  0  0
 17 15  1  0  0  0  0
 18  2  1  1  0  0  0
 18 16  1  0  0  0  0
 19  3  1  6  0  0  0
 19  2  1  0  0  0  0
 19 18  1  0  0  0  0
 21 37  1  1  0  0  0
 21 25  1  0  0  0  0
 22  1  1  6  0  0  0
 22 14  1  0  0  0  0
 22 10  1  0  0  0  0
 23  8  1  0  0  0  0
 24 33  1  1  0  0  0
 24 13  1  0  0  0  0
 25 26  1  0  0  0  0
 27 20  1  0  0  0  0
 29 34  1  6  0  0  0
 30 33  1  0  0  0  0
 30 31  2  0  0  0  0
 31 29  1  0  0  0  0
 32 28  1  0  0  0  0
 32 29  1  0  0  0  0
 33 28  1  0  0  0  0
 34 36  1  0  0  0  0
 35 34  2  0  0  0  0
 38 37  1  0  0  0  0
 40 39  1  6  0  0  0
 40 38  1  0  0  0  0
 40 42  1  0  0  0  0
 42 41  1  6  0  0  0
 42 44  1  0  0  0  0
 42 43  1  0  0  0  0
 44 45  1  1  0  0  0
 44 43  1  0  0  0  0
 45 46  1  0  0  0  0
 47 46  1  0  0  0  0
 48 40  1  0  0  0  0
 50 54  1  0  0  0  0
 50 48  1  1  0  0  0
 52 49  1  6  0  0  0
 52 54  1  0  0  0  0
 52 51  1  0  0  0  0
 53 50  1  0  0  0  0
 54 51  1  1  0  0  0
 55 49  1  0  0  0  0
 55 53  1  0  0  0  0
M  END
>  <MODEL>
1

>  <REMARK>
 VINA RESULT:      -6.0      0.000      0.000
  Name = 
  10 active torsions:
  status: ('A' for Active; 'I' for Inactive)
    1  A    between atoms: O_1  and  C_53
    2  A    between atoms: C_6  and  C_20
    3  A    between atoms: O_8  and  C_22
    4  A    between atoms: O_8  and  C_43
    5  A    between atoms: C_10  and  C_32
    6  A    between atoms: C_12  and  C_42
    7  A    between atoms: C_20  and  C_22
    8  A    between atoms: C_20  and  C_42
    9  A    between atoms: C_46  and  C_53
   10  A    between atoms: C_49  and  N_52
                            x       y       z     vdW  Elec       q    Type
                         _______ _______ _______ _____ _____    ______ ____

>  <TORSDO>
F 10

$$$$
=
 OpenBabel10272401223D

 55 62  0  0  1  0  0  0  0  0999 V2000
  190.6750  176.8700  139.6980 C   0  0  0  0  0  2  0  0  0  0  0  0
  187.3250  176.9070  138.7340 C   0  0  0  0  0  2  0  0  0  0  0  0
  186.3650  178.1640  136.9130 C   0  0  0  0  0  2  0  0  0  0  0  0
  186.6970  175.5160  134.5240 C   0  0  0  0  0  3  0  0  0  0  0  0
  186.6920  174.1170  134.3570 C   0  0  0  0  0  3  0  0  0  0  0  0
  189.0670  175.4560  135.0450 C   0  0  0  0  0  0  0  0  0  0  0  0
  189.0560  174.0620  134.8490 C   0  0  0  0  0  3  0  0  0  0  0  0
  186.7150  178.4310  135.4420 C   0  0  0  0  0  2  0  0  0  0  0  0
  187.8810  173.4090  134.4950 C   0  0  0  0  0  3  0  0  0  0  0  0
  191.5070  177.6320  141.9070 C   0  0  0  0  0  2  0  0  0  0  0  0
  187.8790  176.2120  134.8500 C   0  0  0  0  0  0  0  0  0  0  0  0
  188.6460  178.2860  141.9830 C   0  0  1  0  0  3  0  0  0  0  0  0
  190.2220  175.6290  138.9360 C   0  0  0  0  0  2  0  0  0  0  0  0
  189.0840  176.8380  141.7240 C   0  0  0  0  0  2  0  0  0  0  0  0
  190.4220  176.6470  136.6670 O   0  0  0  0  0  0  0  0  0  0  0  0
  186.0870  178.7870  139.5740 O   0  0  0  0  0  0  0  0  0  0  0  0
  190.3800  176.1160  135.3530 C   0  0  0  0  0  2  0  0  0  0  0  0
  187.3770  178.3140  139.3000 C   0  0  2  0  0  3  0  0  0  0  0  0
  187.6110  178.0650  137.7960 C   0  0  1  0  0  3  0  0  0  0  0  0
  190.9200  178.3280  143.1150 C   0  0  0  0  0  2  0  0  0  0  0  0
  185.7210  178.4110  140.8780 C   0  0  1  0  0  3  0  0  0  0  0  0
  190.5230  176.6850  141.1960 C   0  0  1  0  0  3  0  0  0  0  0  0
  187.9610  177.7070  134.8910 C   0  0  0  0  0  2  0  0  0  0  0  0
  190.7580  175.5910  137.5020 C   0  0  1  0  0  3  0  0  0  0  0  0
  186.5480  179.1840  141.9400 C   0  0  0  0  0  2  0  0  0  0  0  0
  187.3860  178.3290  142.6560 O   0  0  0  0  0  0  0  0  0  0  0  0
  189.6770  179.1430  142.7470 C   0  0  0  0  0  2  0  0  0  0  0  0
  193.1200  176.4000  137.4850 C   0  0  0  0  0  2  0  0  0  0  0  0
  194.9640  174.8050  137.5920 C   0  0  2  0  0  3  0  0  0  0  0  0
  192.6510  173.9040  137.3750 C   0  0  0  0  0  3  0  0  0  0  0  0
  193.9810  173.6110  137.4290 C   0  0  0  0  0  3  0  0  0  0  0  0
  194.4670  176.0510  136.8730 C   0  0  0  0  0  2  0  0  0  0  0  0
  192.2520  175.2010  137.3750 N   0  0  0  0  0  0  0  0  0  0  0  0
  196.4060  174.4770  137.1460 C   0  0  0  0  0  0  0  0  0  0  0  0
  196.7790  173.2900  137.2010 O   0  0  0  0  0  1  0  0  0  0  0  0
  197.2960  175.4810  136.9550 O   0  0  0  0  0  0  0  0  0  0  0  0
  184.3390  178.4970  141.1040 O   0  0  0  0  0  0  0  0  0  0  0  0
  183.8130  177.6450  140.1170 C   0  0  0  0  0  2  0  0  0  0  0  0
  181.6920  178.6880  140.9250 C   0  0  0  0  0  1  0  0  0  0  0  0
  182.3540  177.9770  139.6890 C   0  0  2  0  0  0  0  0  0  0  0  0
  180.1710  176.9030  139.2070 O   0  0  0  0  0  1  0  0  0  0  0  0
  181.5110  176.6680  139.5820 C   0  0  2  0  0  0  0  0  0  0  0  0
  181.3550  175.3640  139.9500 O   0  0  0  0  0  0  0  0  0  0  0  0
  182.2090  175.4790  138.8410 C   0  0  2  0  0  3  0  0  0  0  0  0
  183.0290  176.3160  137.7100 C   0  0  0  0  0  2  0  0  0  0  0  0
  183.2600  175.7630  136.4620 O   0  0  0  0  0  0  0  0  0  0  0  0
  183.3530  176.8450  135.6690 O   0  0  0  0  0  1  0  0  0  0  0  0
  182.3270  179.1850  138.7430 C   0  0  0  0  0  2  0  0  0  0  0  0
  180.6320  181.7360  135.6850 C   0  0  0  0  0  2  0  0  0  0  0  0
  181.1360  179.9040  138.0520 C   0  0  2  0  0  3  0  0  0  0  0  0
  180.6340  182.4270  138.5020 C   0  0  0  0  0  2  0  0  0  0  0  0
  180.0920  181.8150  137.1910 C   0  0  2  0  0  3  0  0  0  0  0  0
  181.0550  179.3870  136.5400 C   0  0  0  0  0  2  0  0  0  0  0  0
  181.4120  181.3250  137.8690 C   0  0  2  0  0  3  0  0  0  0  0  0
  180.5890  180.3020  135.3400 C   0  0  0  0  0  2  0  0  0  0  0  0
  4 11  1  0  0  0  0
  5  9  1  0  0  0  0
  5  4  2  0  0  0  0
  6 17  1  0  0  0  0
  7  6  1  0  0  0  0
  8  3  1  0  0  0  0
  9  7  2  0  0  0  0
 10 20  1  0  0  0  0
 11 23  1  0  0  0  0
 11  6  2  0  0  0  0
 12 14  1  1  0  0  0
 12 26  1  0  0  0  0
 12 27  1  0  0  0  0
 13  1  1  0  0  0  0
 15 24  1  0  0  0  0
 16 21  1  0  0  0  0
 17 15  1  0  0  0  0
 18  2  1  1  0  0  0
 18 16  1  0  0  0  0
 19  3  1  6  0  0  0
 19  2  1  0  0  0  0
 19 18  1  0  0  0  0
 21 37  1  1  0  0  0
 21 25  1  0  0  0  0
 22  1  1  6  0  0  0
 22 14  1  0  0  0  0
 22 10  1  0  0  0  0
 23  8  1  0  0  0  0
 24 33  1  1  0  0  0
 24 13  1  0  0  0  0
 25 26  1  0  0  0  0
 27 20  1  0  0  0  0
 29 34  1  6  0  0  0
 30 31  2  0  0  0  0
 31 29  1  0  0  0  0
 32 28  1  0  0  0  0
 32 29  1  0  0  0  0
 33 30  1  0  0  0  0
 33 28  1  0  0  0  0
 34 35  1  0  0  0  0
 36 34  2  0  0  0  0
 38 37  1  0  0  0  0
 40 38  1  0  0  0  0
 40 39  1  1  0  0  0
 42 41  1  6  0  0  0
 42 40  1  0  0  0  0
 42 43  1  0  0  0  0
 44 45  1  1  0  0  0
 44 42  1  0  0  0  0
 44 43  1  0  0  0  0
 46 45  1  0  0  0  0
 47 46  1  0  0  0  0
 48 40  1  0  0  0  0
 50 48  1  1  0  0  0
 52 49  1  6  0  0  0
 52 54  1  0  0  0  0
 52 51  1  0  0  0  0
 53 50  1  0  0  0  0
 54 50  1  0  0  0  0
 54 51  1  1  0  0  0
 55 49  1  0  0  0  0
 55 53  1  0  0  0  0
M  END
>  <MODEL>
2

>  <REMARK>
 VINA RESULT:      -5.7      1.454      2.550
  Name = 
  10 active torsions:
  status: ('A' for Active; 'I' for Inactive)
    1  A    between atoms: O_1  and  C_53
    2  A    between atoms: C_6  and  C_20
    3  A    between atoms: O_8  and  C_22
    4  A    between atoms: O_8  and  C_43
    5  A    between atoms: C_10  and  C_32
    6  A    between atoms: C_12  and  C_42
    7  A    between atoms: C_20  and  C_22
    8  A    between atoms: C_20  and  C_42
    9  A    between atoms: C_46  and  C_53
   10  A    between atoms: C_49  and  N_52
                            x       y       z     vdW  Elec       q    Type
                         _______ _______ _______ _____ _____    ______ ____

>  <TORSDO>
F 10

$$$$
=
 OpenBabel10272401223D

 55 62  0  0  1  0  0  0  0  0999 V2000
  190.7720  176.8620  139.6380 C   0  0  0  0  0  2  0  0  0  0  0  0
  187.4060  176.8760  138.7320 C   0  0  0  0  0  2  0  0  0  0  0  0
  186.4030  178.1380  136.9370 C   0  0  0  0  0  2  0  0  0  0  0  0
  186.7170  175.5100  134.5230 C   0  0  0  0  0  3  0  0  0  0  0  0
  186.7220  174.1120  134.3470 C   0  0  0  0  0  3  0  0  0  0  0  0
  189.0970  175.4670  135.0030 C   0  0  0  0  0  0  0  0  0  0  0  0
  189.0950  174.0750  134.7970 C   0  0  0  0  0  3  0  0  0  0  0  0
  186.7250  178.4180  135.4630 C   0  0  0  0  0  2  0  0  0  0  0  0
  187.9190  173.4140  134.4590 C   0  0  0  0  0  3  0  0  0  0  0  0
  191.6350  177.6160  141.8370 C   0  0  0  0  0  2  0  0  0  0  0  0
  187.8990  176.2140  134.8340 C   0  0  0  0  0  0  0  0  0  0  0  0
  188.7700  178.2430  141.9680 C   0  0  1  0  0  3  0  0  0  0  0  0
  190.3170  175.6230  138.8750 C   0  0  0  0  0  2  0  0  0  0  0  0
  189.2170  176.8010  141.6910 C   0  0  0  0  0  2  0  0  0  0  0  0
  190.4690  176.6590  136.6100 O   0  0  0  0  0  0  0  0  0  0  0  0
  186.1660  178.7390  139.6080 O   0  0  0  0  0  0  0  0  0  0  0  0
  190.4090  176.1370  135.2940 C   0  0  0  0  0  2  0  0  0  0  0  0
  187.4550  178.2790  139.3070 C   0  0  2  0  0  3  0  0  0  0  0  0
  187.6650  178.0430  137.7980 C   0  0  1  0  0  3  0  0  0  0  0  0
  191.0630  178.2980  143.0610 C   0  0  0  0  0  2  0  0  0  0  0  0
  185.8260  178.3510  140.9150 C   0  0  1  0  0  3  0  0  0  0  0  0
  190.6480  176.6660  141.1370 C   0  0  1  0  0  3  0  0  0  0  0  0
  187.9680  177.7090  134.8840 C   0  0  0  0  0  2  0  0  0  0  0  0
  190.8290  175.6000  137.4310 C   0  0  1  0  0  3  0  0  0  0  0  0
  186.6640  179.1230  141.9670 C   0  0  0  0  0  2  0  0  0  0  0  0
  187.5220  178.2710  142.6630 O   0  0  0  0  0  0  0  0  0  0  0  0
  189.8070  179.1050  142.7210 C   0  0  0  0  0  2  0  0  0  0  0  0
  193.1760  176.4400  137.2940 C   0  0  0  0  0  2  0  0  0  0  0  0
  195.0470  174.8780  137.4240 C   0  0  2  0  0  3  0  0  0  0  0  0
  192.7430  173.9350  137.3310 C   0  0  0  0  0  3  0  0  0  0  0  0
  194.0780  173.6640  137.3570 C   0  0  0  0  0  3  0  0  0  0  0  0
  194.5070  176.0770  136.6570 C   0  0  0  0  0  2  0  0  0  0  0  0
  192.3240  175.2250  137.2760 N   0  0  0  0  0  0  0  0  0  0  0  0
  196.4790  174.5470  136.9480 C   0  0  0  0  0  0  0  0  0  0  0  0
  197.3680  175.4000  137.1340 O   0  0  0  0  0  1  0  0  0  0  0  0
  196.6890  173.4840  136.1350 O   0  0  0  0  0  0  0  0  0  0  0  0
  184.4470  178.4220  141.1650 O   0  0  0  0  0  0  0  0  0  0  0  0
  183.9560  179.0470  140.0050 C   0  0  0  0  0  2  0  0  0  0  0  0
  183.1220  178.0620  137.8670 C   0  0  0  0  0  1  0  0  0  0  0  0
  182.7270  178.3400  139.3620 C   0  0  2  0  0  0  0  0  0  0  0  0
  180.6180  178.9570  138.2140 O   0  0  0  0  0  1  0  0  0  0  0  0
  181.5470  179.3470  139.2020 C   0  0  2  0  0  0  0  0  0  0  0  0
  181.0870  180.6210  139.3700 O   0  0  0  0  0  0  0  0  0  0  0  0
  180.9160  179.8610  140.5390 C   0  0  2  0  0  3  0  0  0  0  0  0
  181.0490  178.5070  141.4330 C   0  0  0  0  0  2  0  0  0  0  0  0
  181.2230  178.5890  142.8040 O   0  0  0  0  0  0  0  0  0  0  0  0
  180.3500  179.5490  143.1580 O   0  0  0  0  0  1  0  0  0  0  0  0
  182.6500  176.8730  139.8100 C   0  0  0  0  0  2  0  0  0  0  0  0
  182.2670  174.6890  136.0940 C   0  0  0  0  0  2  0  0  0  0  0  0
  182.3820  175.5790  138.9940 C   0  0  2  0  0  3  0  0  0  0  0  0
  180.0490  175.1230  137.9120 C   0  0  0  0  0  2  0  0  0  0  0  0
  181.2700  174.3890  137.3110 C   0  0  2  0  0  3  0  0  0  0  0  0
  183.6830  175.2690  138.1150 C   0  0  0  0  0  2  0  0  0  0  0  0
  181.3730  175.8060  137.9640 C   0  0  2  0  0  3  0  0  0  0  0  0
  183.6190  174.6100  136.6820 C   0  0  0  0  0  2  0  0  0  0  0  0
  4 11  1  0  0  0  0
  5  9  1  0  0  0  0
  5  4  2  0  0  0  0
  6 17  1  0  0  0  0
  7  6  1  0  0  0  0
  8  3  1  0  0  0  0
  9  7  2  0  0  0  0
 10 20  1  0  0  0  0
 11 23  1  0  0  0  0
 11  6  2  0  0  0  0
 12 14  1  1  0  0  0
 12 26  1  0  0  0  0
 12 27  1  0  0  0  0
 13  1  1  0  0  0  0
 15 24  1  0  0  0  0
 16 21  1  0  0  0  0
 17 15  1  0  0  0  0
 18  2  1  1  0  0  0
 18 16  1  0  0  0  0
 19  3  1  6  0  0  0
 19  2  1  0  0  0  0
 19 18  1  0  0  0  0
 21 37  1  1  0  0  0
 21 25  1  0  0  0  0
 22  1  1  6  0  0  0
 22 14  1  0  0  0  0
 22 10  1  0  0  0  0
 23  8  1  0  0  0  0
 24 33  1  1  0  0  0
 24 13  1  0  0  0  0
 25 26  1  0  0  0  0
 27 20  1  0  0  0  0
 29 34  1  6  0  0  0
 30 31  2  0  0  0  0
 31 29  1  0  0  0  0
 32 28  1  0  0  0  0
 32 29  1  0  0  0  0
 33 28  1  0  0  0  0
 33 30  1  0  0  0  0
 34 35  1  0  0  0  0
 36 34  2  0  0  0  0
 38 37  1  0  0  0  0
 40 39  1  6  0  0  0
 40 48  1  0  0  0  0
 40 38  1  0  0  0  0
 42 41  1  6  0  0  0
 42 40  1  0  0  0  0
 42 43  1  0  0  0  0
 42 44  1  0  0  0  0
 43 44  1  0  0  0  0
 44 45  1  1  0  0  0
 45 46  1  0  0  0  0
 46 47  1  0  0  0  0
 49 55  1  0  0  0  0
 50 48  1  6  0  0  0
 52 49  1  6  0  0  0
 52 51  1  0  0  0  0
 52 54  1  0  0  0  0
 53 50  1  0  0  0  0
 54 51  1  1  0  0  0
 54 50  1  0  0  0  0
 55 53  1  0  0  0  0
M  END
>  <MODEL>
3

>  <REMARK>
 VINA RESULT:      -5.4      1.053      1.742
  Name = 
  10 active torsions:
  status: ('A' for Active; 'I' for Inactive)
    1  A    between atoms: O_1  and  C_53
    2  A    between atoms: C_6  and  C_20
    3  A    between atoms: O_8  and  C_22
    4  A    between atoms: O_8  and  C_43
    5  A    between atoms: C_10  and  C_32
    6  A    between atoms: C_12  and  C_42
    7  A    between atoms: C_20  and  C_22
    8  A    between atoms: C_20  and  C_42
    9  A    between atoms: C_46  and  C_53
   10  A    between atoms: C_49  and  N_52
                            x       y       z     vdW  Elec       q    Type
                         _______ _______ _______ _____ _____    ______ ____

>  <TORSDO>
F 10

$$$$
=
 OpenBabel10272401223D

 55 62  0  0  1  0  0  0  0  0999 V2000
  185.8200  178.3600  142.1830 C   0  0  0  0  0  2  0  0  0  0  0  0
  185.5970  177.6300  138.7810 C   0  0  0  0  0  2  0  0  0  0  0  0
  186.5900  178.8800  136.9730 C   0  0  0  0  0  2  0  0  0  0  0  0
  189.5870  176.9200  136.8760 C   0  0  0  0  0  3  0  0  0  0  0  0
  190.1200  175.6320  137.0810 C   0  0  0  0  0  3  0  0  0  0  0  0
  189.9000  177.4340  139.2280 C   0  0  0  0  0  0  0  0  0  0  0  0
  190.4560  176.1550  139.4150 C   0  0  0  0  0  3  0  0  0  0  0  0
  187.9620  179.5000  136.6750 C   0  0  0  0  0  2  0  0  0  0  0  0
  190.5740  175.2750  138.3460 C   0  0  0  0  0  3  0  0  0  0  0  0
  183.8800  178.9050  143.6300 C   0  0  0  0  0  2  0  0  0  0  0  0
  189.4840  177.8480  137.9330 C   0  0  0  0  0  0  0  0  0  0  0  0
  182.7040  178.7010  140.9480 C   0  0  1  0  0  3  0  0  0  0  0  0
  186.7030  177.2040  141.7250 C   0  0  0  0  0  2  0  0  0  0  0  0
  183.4780  177.5090  141.5270 C   0  0  0  0  0  2  0  0  0  0  0  0
  188.5430  178.6380  140.8390 O   0  0  0  0  0  0  0  0  0  0  0  0
  183.9190  178.8980  137.6180 O   0  0  0  0  0  0  0  0  0  0  0  0
  189.8650  178.3690  140.4030 C   0  0  0  0  0  2  0  0  0  0  0  0
  184.7160  178.8650  138.7700 C   0  0  2  0  0  3  0  0  0  0  0  0
  186.2210  178.9740  138.4560 C   0  0  1  0  0  3  0  0  0  0  0  0
  182.4050  179.1720  143.4260 C   0  0  0  0  0  2  0  0  0  0  0  0
  182.7230  178.2000  137.8590 C   0  0  1  0  0  3  0  0  0  0  0  0
  184.4650  177.8670  142.6540 C   0  0  1  0  0  3  0  0  0  0  0  0
  189.0640  179.2710  137.7310 C   0  0  0  0  0  2  0  0  0  0  0  0
  188.1860  177.5850  141.6680 C   0  0  1  0  0  3  0  0  0  0  0  0
  181.8180  178.9640  138.8610 C   0  0  0  0  0  2  0  0  0  0  0  0
  181.6750  178.2640  140.0590 O   0  0  0  0  0  0  0  0  0  0  0  0
  182.1120  179.6580  142.0040 C   0  0  0  0  0  2  0  0  0  0  0  0
  188.2790  176.7090  144.0040 C   0  0  0  0  0  2  0  0  0  0  0  0
  190.1650  177.2650  145.4490 C   0  0  2  0  0  3  0  0  0  0  0  0
  190.0350  178.3700  143.2200 C   0  0  0  0  0  3  0  0  0  0  0  0
  190.7100  178.2760  144.4000 C   0  0  0  0  0  3  0  0  0  0  0  0
  188.6470  177.1660  145.4060 C   0  0  0  0  0  2  0  0  0  0  0  0
  188.8910  177.6610  143.0460 N   0  0  0  0  0  0  0  0  0  0  0  0
  190.6350  177.5630  146.8900 C   0  0  0  0  0  0  0  0  0  0  0  0
  191.8100  177.2800  147.1910 O   0  0  0  0  0  0  0  0  0  0  0  0
  189.7250  177.8760  147.8440 O   0  0  0  0  0  1  0  0  0  0  0  0
  182.0480  177.8500  136.6810 O   0  0  0  0  0  0  0  0  0  0  0  0
  182.7860  176.7460  136.2190 C   0  0  0  0  0  2  0  0  0  0  0  0
  180.9070  175.5880  135.0500 C   0  0  0  0  0  1  0  0  0  0  0  0
  181.9890  175.4100  136.1760 C   0  0  2  0  0  0  0  0  0  0  0  0
  179.9840  176.1270  137.4470 O   0  0  0  0  0  1  0  0  0  0  0  0
  181.1040  175.2680  137.4530 C   0  0  2  0  0  0  0  0  0  0  0  0
  181.0200  174.8930  138.7620 O   0  0  0  0  0  0  0  0  0  0  0  0
  180.8090  173.7990  137.9060 C   0  0  2  0  0  3  0  0  0  0  0  0
  180.6980  173.0870  136.4460 C   0  0  0  0  0  2  0  0  0  0  0  0
  181.0130  171.7480  136.2950 O   0  0  0  0  0  0  0  0  0  0  0  0
  179.9840  171.1290  136.9040 O   0  0  0  0  0  1  0  0  0  0  0  0
  182.8060  174.3130  135.4780 C   0  0  0  0  0  2  0  0  0  0  0  0
  186.7870  174.4700  137.1670 C   0  0  0  0  0  2  0  0  0  0  0  0
  184.3400  174.0810  135.4130 C   0  0  2  0  0  3  0  0  0  0  0  0
  185.9800  176.0380  134.8640 C   0  0  0  0  0  2  0  0  0  0  0  0
  186.5530  174.8190  135.6210 C   0  0  2  0  0  3  0  0  0  0  0  0
  184.7420  173.0850  136.6000 C   0  0  0  0  0  2  0  0  0  0  0  0
  185.0710  175.2900  135.7780 C   0  0  2  0  0  3  0  0  0  0  0  0
  186.1170  173.1710  137.3700 C   0  0  0  0  0  2  0  0  0  0  0  0
  1 22  1  0  0  0  0
  4  5  2  0  0  0  0
  4 11  1  0  0  0  0
  5  9  1  0  0  0  0
  6  7  1  0  0  0  0
  6 17  1  0  0  0  0
  8  3  1  0  0  0  0
  8 23  1  0  0  0  0
  9  7  2  0  0  0  0
 11  6  2  0  0  0  0
 12 14  1  1  0  0  0
 12 27  1  0  0  0  0
 13  1  1  0  0  0  0
 15 24  1  0  0  0  0
 16 21  1  0  0  0  0
 16 18  1  0  0  0  0
 17 15  1  0  0  0  0
 18  2  1  6  0  0  0
 19  3  1  6  0  0  0
 19 18  1  0  0  0  0
 19  2  1  0  0  0  0
 20 10  1  0  0  0  0
 21 37  1  6  0  0  0
 21 25  1  0  0  0  0
 22 14  1  6  0  0  0
 22 10  1  0  0  0  0
 23 11  1  0  0  0  0
 24 13  1  1  0  0  0
 24 33  1  0  0  0  0
 25 26  1  0  0  0  0
 26 12  1  0  0  0  0
 27 20  1  0  0  0  0
 28 32  1  0  0  0  0
 29 34  1  1  0  0  0
 30 31  2  0  0  0  0
 31 29  1  0  0  0  0
 32 29  1  0  0  0  0
 33 30  1  0  0  0  0
 33 28  1  0  0  0  0
 34 35  2  0  0  0  0
 34 36  1  0  0  0  0
 38 37  1  0  0  0  0
 40 39  1  6  0  0  0
 40 38  1  0  0  0  0
 40 42  1  0  0  0  0
 42 41  1  6  0  0  0
 42 44  1  0  0  0  0
 42 43  1  0  0  0  0
 44 45  1  1  0  0  0
 44 43  1  0  0  0  0
 46 45  1  0  0  0  0
 46 47  1  0  0  0  0
 48 40  1  0  0  0  0
 49 55  1  0  0  0  0
 50 48  1  1  0  0  0
 50 54  1  0  0  0  0
 50 53  1  0  0  0  0
 52 51  1  1  0  0  0
 52 54  1  0  0  0  0
 52 49  1  0  0  0  0
 53 55  1  0  0  0  0
 54 51  1  6  0  0  0
M  END
>  <MODEL>
4

>  <REMARK>
 VINA RESULT:      -3.6      3.074      6.083
  Name = 
  10 active torsions:
  status: ('A' for Active; 'I' for Inactive)
    1  A    between atoms: O_1  and  C_53
    2  A    between atoms: C_6  and  C_20
    3  A    between atoms: O_8  and  C_22
    4  A    between atoms: O_8  and  C_43
    5  A    between atoms: C_10  and  C_32
    6  A    between atoms: C_12  and  C_42
    7  A    between atoms: C_20  and  C_22
    8  A    between atoms: C_20  and  C_42
    9  A    between atoms: C_46  and  C_53
   10  A    between atoms: C_49  and  N_52
                            x       y       z     vdW  Elec       q    Type
                         _______ _______ _______ _____ _____    ______ ____

>  <TORSDO>
F 10

$$$$
=
 OpenBabel10272401223D

 55 62  0  0  1  0  0  0  0  0999 V2000
  188.8620  176.9480  138.0100 C   0  0  0  0  0  2  0  0  0  0  0  0
  187.2220  178.6290  140.5870 C   0  0  0  0  0  2  0  0  0  0  0  0
  186.5190  177.6950  142.6960 C   0  0  0  0  0  2  0  0  0  0  0  0
  189.5160  178.6090  144.4330 C   0  0  0  0  0  3  0  0  0  0  0  0
  190.5470  179.5660  144.5120 C   0  0  0  0  0  3  0  0  0  0  0  0
  190.7660  177.3900  142.7450 C   0  0  0  0  0  0  0  0  0  0  0  0
  191.8010  178.3370  142.8530 C   0  0  0  0  0  3  0  0  0  0  0  0
  187.1420  176.8000  143.7770 C   0  0  0  0  0  2  0  0  0  0  0  0
  191.6910  179.4020  143.7390 C   0  0  0  0  0  3  0  0  0  0  0  0
  187.9360  176.6310  135.7310 C   0  0  0  0  0  2  0  0  0  0  0  0
  189.6110  177.4980  143.5680 C   0  0  0  0  0  0  0  0  0  0  0  0
  185.7410  177.9180  137.1950 C   0  0  1  0  0  3  0  0  0  0  0  0
  189.7570  177.8640  138.8380 C   0  0  0  0  0  2  0  0  0  0  0  0
  187.1090  178.6110  137.1190 C   0  0  0  0  0  2  0  0  0  0  0  0
  190.0950  176.2500  140.7110 O   0  0  0  0  0  0  0  0  0  0  0  0
  184.8420  178.3020  140.6070 O   0  0  0  0  0  0  0  0  0  0  0  0
  190.9700  176.2200  141.8260 C   0  0  0  0  0  2  0  0  0  0  0  0
  186.0520  177.7710  140.1440 C   0  0  2  0  0  3  0  0  0  0  0  0
  186.9750  177.3070  141.2880 C   0  0  1  0  0  3  0  0  0  0  0  0
  186.6140  176.8870  135.0430 C   0  0  0  0  0  2  0  0  0  0  0  0
  184.3530  179.2310  139.6720 C   0  0  1  0  0  3  0  0  0  0  0  0
  188.2900  177.6730  136.8080 C   0  0  1  0  0  3  0  0  0  0  0  0
  188.6120  176.3830  143.5600 C   0  0  0  0  0  2  0  0  0  0  0  0
  190.6860  177.0870  139.7760 C   0  0  1  0  0  3  0  0  0  0  0  0
  183.8830  178.5270  138.3720 C   0  0  0  0  0  2  0  0  0  0  0  0
  184.6840  178.8750  137.2840 O   0  0  0  0  0  0  0  0  0  0  0  0
  185.4560  176.9290  136.0440 C   0  0  0  0  0  2  0  0  0  0  0  0
  191.4540  175.4870  138.0200 C   0  0  0  0  0  2  0  0  0  0  0  0
  193.8120  175.3840  137.4010 C   0  0  2  0  0  3  0  0  0  0  0  0
  193.1720  176.8340  139.3220 C   0  0  0  0  0  3  0  0  0  0  0  0
  194.1930  176.3350  138.5700 C   0  0  0  0  0  3  0  0  0  0  0  0
  192.5990  174.5280  137.7380 C   0  0  0  0  0  2  0  0  0  0  0  0
  191.9020  176.4210  139.0830 N   0  0  0  0  0  0  0  0  0  0  0  0
  194.9800  174.4850  136.9370 C   0  0  0  0  0  0  0  0  0  0  0  0
  195.9900  175.0390  136.4600 O   0  0  0  0  0  0  0  0  0  0  0  0
  194.7950  173.1480  136.8190 O   0  0  0  0  0  1  0  0  0  0  0  0
  183.3740  180.0820  140.2080 O   0  0  0  0  0  0  0  0  0  0  0  0
  182.3470  180.0110  139.2500 C   0  0  0  0  0  2  0  0  0  0  0  0
  180.2350  181.2480  139.7450 C   0  0  0  0  0  1  0  0  0  0  0  0
  180.9200  179.8370  139.8450 C   0  0  2  0  0  0  0  0  0  0  0  0
  180.0820  180.4250  142.1040 O   0  0  0  0  0  1  0  0  0  0  0  0
  181.0010  179.6270  141.3890 C   0  0  2  0  0  0  0  0  0  0  0  0
  181.7440  179.2280  142.4610 O   0  0  0  0  0  0  0  0  0  0  0  0
  181.0920  178.1380  141.8610 C   0  0  2  0  0  3  0  0  0  0  0  0
  180.1380  177.4450  140.7380 C   0  0  0  0  0  2  0  0  0  0  0  0
  180.4380  176.1860  140.2460 O   0  0  0  0  0  0  0  0  0  0  0  0
  181.7620  176.2650  140.0150 O   0  0  0  0  0  1  0  0  0  0  0  0
  180.0020  179.1130  138.8500 C   0  0  0  0  0  2  0  0  0  0  0  0
  181.9190  178.7720  134.9860 C   0  0  0  0  0  2  0  0  0  0  0  0
  179.9830  179.1250  137.2970 C   0  0  2  0  0  3  0  0  0  0  0  0
  180.7320  181.2360  135.9530 C   0  0  0  0  0  2  0  0  0  0  0  0
  180.7800  179.8730  135.2260 C   0  0  2  0  0  3  0  0  0  0  0  0
  180.4930  177.6970  136.7850 C   0  0  0  0  0  2  0  0  0  0  0  0
  181.0090  180.0170  136.7660 C   0  0  2  0  0  3  0  0  0  0  0  0
  181.3290  177.5050  135.4590 C   0  0  0  0  0  2  0  0  0  0  0  0
  1 13  1  0  0  0  0
  3  8  1  0  0  0  0
  4  5  1  0  0  0  0
  6  7  2  0  0  0  0
  6 11  1  0  0  0  0
  7  9  1  0  0  0  0
  9  5  2  0  0  0  0
 11  4  2  0  0  0  0
 12 27  1  6  0  0  0
 12 26  1  0  0  0  0
 14 12  1  0  0  0  0
 15 17  1  0  0  0  0
 17  6  1  0  0  0  0
 18  2  1  1  0  0  0
 18 16  1  0  0  0  0
 18 19  1  0  0  0  0
 19  2  1  6  0  0  0
 19  3  1  0  0  0  0
 20 10  1  0  0  0  0
 20 27  1  0  0  0  0
 21 37  1  1  0  0  0
 21 16  1  0  0  0  0
 22 10  1  6  0  0  0
 22 14  1  0  0  0  0
 22  1  1  0  0  0  0
 23 11  1  0  0  0  0
 23  8  1  0  0  0  0
 24 13  1  6  0  0  0
 24 15  1  0  0  0  0
 25 21  1  0  0  0  0
 26 25  1  0  0  0  0
 28 33  1  0  0  0  0
 29 34  1  1  0  0  0
 29 32  1  0  0  0  0
 29 31  1  0  0  0  0
 31 30  2  0  0  0  0
 32 28  1  0  0  0  0
 33 30  1  0  0  0  0
 33 24  1  0  0  0  0
 35 34  2  0  0  0  0
 36 34  1  0  0  0  0
 38 40  1  0  0  0  0
 38 37  1  0  0  0  0
 40 39  1  6  0  0  0
 40 42  1  0  0  0  0
 42 44  1  0  0  0  0
 42 41  1  1  0  0  0
 42 43  1  0  0  0  0
 44 45  1  6  0  0  0
 44 43  1  0  0  0  0
 46 45  1  0  0  0  0
 47 46  1  0  0  0  0
 48 40  1  0  0  0  0
 49 55  1  0  0  0  0
 50 48  1  1  0  0  0
 52 49  1  6  0  0  0
 52 51  1  0  0  0  0
 52 54  1  0  0  0  0
 53 50  1  0  0  0  0
 54 51  1  1  0  0  0
 54 50  1  0  0  0  0
 55 53  1  0  0  0  0
M  END
>  <MODEL>
5

>  <REMARK>
 VINA RESULT:      -3.1      1.805      5.239
  Name = 
  10 active torsions:
  status: ('A' for Active; 'I' for Inactive)
    1  A    between atoms: O_1  and  C_53
    2  A    between atoms: C_6  and  C_20
    3  A    between atoms: O_8  and  C_22
    4  A    between atoms: O_8  and  C_43
    5  A    between atoms: C_10  and  C_32
    6  A    between atoms: C_12  and  C_42
    7  A    between atoms: C_20  and  C_22
    8  A    between atoms: C_20  and  C_42
    9  A    between atoms: C_46  and  C_53
   10  A    between atoms: C_49  and  N_52
                            x       y       z     vdW  Elec       q    Type
                         _______ _______ _______ _____ _____    ______ ____

>  <TORSDO>
F 10

$$$$
