=
 OpenBabel10272401563D

 28 32  0  0  1  0  0  0  0  0999 V2000
  189.5910  176.7960  142.4150 N   0  0  0  0  0  0  0  0  0  0  0  0
  184.5240  178.3370  142.5060 C   0  0  0  0  0  2  0  0  0  0  0  0
  188.6540  177.7600  147.0140 O   0  0  0  0  0  0  0  0  0  0  0  0
  184.1700  178.6670  145.0010 C   0  0  0  0  0  0  0  0  0  0  0  0
  186.3840  178.0660  144.1990 C   0  0  0  0  0  0  0  0  0  0  0  0
  182.2290  178.6710  143.3970 C   0  0  1  0  0  3  0  0  0  0  0  0
  185.0420  178.3900  143.9240 C   0  0  0  0  0  0  0  0  0  0  0  0
  185.9380  178.3600  146.5560 C   0  0  0  0  0  3  0  0  0  0  0  0
  182.7440  179.0850  144.7710 C   0  0  0  0  0  2  0  0  0  0  0  0
  189.1240  177.2650  144.7420 C   0  0  0  0  0  0  0  0  0  0  0  0
  187.3430  177.7960  143.0650 C   0  0  0  0  0  2  0  0  0  0  0  0
  184.6450  178.6580  146.2730 N   0  0  0  0  0  0  0  0  0  0  0  0
  191.4740  176.8130  143.9500 C   0  0  0  0  0  2  0  0  0  0  0  0
  188.2300  177.7070  145.8280 C   0  0  0  0  0  0  0  0  0  0  0  0
  190.4900  176.7360  145.1120 C   0  0  0  0  0  2  0  0  0  0  0  0
  180.9940  179.2740  143.1640 O   0  0  0  0  0  1  0  0  0  0  0  0
  183.2190  179.1090  142.3310 C   0  0  0  0  0  2  0  0  0  0  0  0
  186.8350  178.0580  145.5270 C   0  0  0  0  0  0  0  0  0  0  0  0
  190.8490  176.1340  142.7460 C   0  0  0  0  0  2  0  0  0  0  0  0
  188.6980  177.2460  143.4580 C   0  0  0  0  0  0  0  0  0  0  0  0
  189.3270  177.1000  141.0130 C   0  0  0  0  0  2  0  0  0  0  0  0
  190.5630  176.9120  140.1990 C   0  0  0  0  0  0  0  0  0  0  0  0
  192.8660  176.6030  138.6420 C   0  0  0  0  0  0  0  0  0  0  0  0
  191.7470  177.5630  140.5620 C   0  0  0  0  0  3  0  0  0  0  0  0
  190.5300  176.1130  139.0500 C   0  0  0  0  0  3  0  0  0  0  0  0
  191.6830  175.9570  138.2740 C   0  0  0  0  0  3  0  0  0  0  0  0
  194.0100  176.4480  137.8700 O   0  0  0  0  0  1  0  0  0  0  0  0
  192.8990  177.4070  139.7860 C   0  0  0  0  0  3  0  0  0  0  0  0
  1 19  1  0  0  0  0
  1 20  1  0  0  0  0
  2  7  1  0  0  0  0
  4 12  1  0  0  0  0
  5 18  2  0  0  0  0
  6 16  1  6  0  0  0
  6  9  1  0  0  0  0
  7  5  1  0  0  0  0
  7  4  2  0  0  0  0
  9  4  1  0  0  0  0
 10 15  1  0  0  0  0
 10 14  1  0  0  0  0
 11 20  1  0  0  0  0
 11  5  1  0  0  0  0
 12  8  2  0  0  0  0
 13 15  1  0  0  0  0
 14  3  2  0  0  0  0
 17  2  1  0  0  0  0
 17  6  1  0  0  0  0
 18 14  1  0  0  0  0
 18  8  1  0  0  0  0
 19 13  1  0  0  0  0
 20 10  2  0  0  0  0
 21  1  1  0  0  0  0
 22 24  1  0  0  0  0
 22 21  1  0  0  0  0
 23 28  1  0  0  0  0
 25 22  2  0  0  0  0
 26 23  2  0  0  0  0
 26 25  1  0  0  0  0
 27 23  1  0  0  0  0
 28 24  2  0  0  0  0
M  END
>  <MODEL>
1

>  <REMARK>
 VINA RESULT:     -10.6      0.000      0.000
  Name = 
  2 active torsions:
  status: ('A' for Active; 'I' for Inactive)
    1  A    between atoms: N_1  and  C_2
    2  A    between atoms: C_2  and  C_3
                            x       y       z     vdW  Elec       q    Type
                         _______ _______ _______ _____ _____    ______ ____

>  <TORSDO>
F 2

$$$$
=
 OpenBabel10272401563D

 28 32  0  0  1  0  0  0  0  0999 V2000
  187.4900  178.1470  140.8620 N   0  0  0  0  0  0  0  0  0  0  0  0
  190.6960  176.9350  144.9020 C   0  0  0  0  0  2  0  0  0  0  0  0
  184.7240  178.3640  144.7690 O   0  0  0  0  0  0  0  0  0  0  0  0
  189.1160  177.2330  146.8700 C   0  0  0  0  0  0  0  0  0  0  0  0
  188.2480  177.5090  144.6170 C   0  0  0  0  0  0  0  0  0  0  0  0
  191.5930  176.9440  147.2190 C   0  0  1  0  0  3  0  0  0  0  0  0
  189.3230  177.1980  145.4730 C   0  0  0  0  0  0  0  0  0  0  0  0
  186.8360  177.8120  146.5540 C   0  0  0  0  0  3  0  0  0  0  0  0
  190.2020  176.8450  147.8360 C   0  0  0  0  0  2  0  0  0  0  0  0
  186.0880  178.2750  142.8300 C   0  0  0  0  0  0  0  0  0  0  0  0
  188.4340  177.4490  143.1200 C   0  0  0  0  0  2  0  0  0  0  0  0
  187.8840  177.5210  147.3640 N   0  0  0  0  0  0  0  0  0  0  0  0
  185.0990  178.4030  140.5160 C   0  0  0  0  0  2  0  0  0  0  0  0
  185.8690  178.1530  144.2830 C   0  0  0  0  0  0  0  0  0  0  0  0
  184.9600  178.8070  141.9790 C   0  0  0  0  0  2  0  0  0  0  0  0
  192.5250  176.3670  148.0800 O   0  0  0  0  0  1  0  0  0  0  0  0
  191.6110  176.2130  145.8860 C   0  0  0  0  0  2  0  0  0  0  0  0
  186.9930  177.8120  145.1660 C   0  0  0  0  0  0  0  0  0  0  0  0
  186.4810  178.8040  140.0370 C   0  0  0  0  0  2  0  0  0  0  0  0
  187.2990  178.0070  142.2880 C   0  0  0  0  0  0  0  0  0  0  0  0
  188.6290  177.5300  140.1900 C   0  0  0  0  0  2  0  0  0  0  0  0
  188.4620  177.6100  138.7100 C   0  0  0  0  0  0  0  0  0  0  0  0
  188.2000  177.7340  135.9270 C   0  0  0  0  0  0  0  0  0  0  0  0
  187.7970  176.5900  138.0220 C   0  0  0  0  0  3  0  0  0  0  0  0
  189.0040  178.6900  138.0020 C   0  0  0  0  0  3  0  0  0  0  0  0
  188.8710  178.7520  136.6120 C   0  0  0  0  0  3  0  0  0  0  0  0
  188.0670  177.7970  134.5470 O   0  0  0  0  0  1  0  0  0  0  0  0
  187.6640  176.6520  136.6320 C   0  0  0  0  0  3  0  0  0  0  0  0
  1 20  1  0  0  0  0
  2  7  1  0  0  0  0
  2 17  1  0  0  0  0
  4 12  1  0  0  0  0
  4  9  1  0  0  0  0
  5 18  2  0  0  0  0
  5  7  1  0  0  0  0
  6  9  1  0  0  0  0
  6 16  1  1  0  0  0
  7  4  2  0  0  0  0
  8 12  2  0  0  0  0
 10 14  1  0  0  0  0
 11  5  1  0  0  0  0
 13 15  1  0  0  0  0
 14  3  2  0  0  0  0
 14 18  1  0  0  0  0
 15 10  1  0  0  0  0
 17  6  1  0  0  0  0
 18  8  1  0  0  0  0
 19 13  1  0  0  0  0
 19  1  1  0  0  0  0
 20 10  2  0  0  0  0
 20 11  1  0  0  0  0
 21  1  1  0  0  0  0
 22 21  1  0  0  0  0
 23 26  2  0  0  0  0
 23 28  1  0  0  0  0
 24 22  1  0  0  0  0
 25 22  2  0  0  0  0
 26 25  1  0  0  0  0
 27 23  1  0  0  0  0
 28 24  2  0  0  0  0
M  END
>  <MODEL>
2

>  <REMARK>
 VINA RESULT:      -9.9      2.796      5.717
  Name = 
  2 active torsions:
  status: ('A' for Active; 'I' for Inactive)
    1  A    between atoms: N_1  and  C_2
    2  A    between atoms: C_2  and  C_3
                            x       y       z     vdW  Elec       q    Type
                         _______ _______ _______ _____ _____    ______ ____

>  <TORSDO>
F 2

$$$$
=
 OpenBabel10272401563D

 28 32  0  0  1  0  0  0  0  0999 V2000
  183.5840  178.5790  141.1550 N   0  0  0  0  0  0  0  0  0  0  0  0
  188.4520  177.2260  142.7470 C   0  0  0  0  0  2  0  0  0  0  0  0
  183.4890  178.9420  145.9320 O   0  0  0  0  0  0  0  0  0  0  0  0
  188.2570  177.6060  145.2520 C   0  0  0  0  0  0  0  0  0  0  0  0
  186.2880  177.9170  143.8620 C   0  0  0  0  0  0  0  0  0  0  0  0
  190.4910  177.1970  144.1660 C   0  0  1  0  0  3  0  0  0  0  0  0
  187.6440  177.5570  143.9800 C   0  0  0  0  0  0  0  0  0  0  0  0
  186.2150  178.2940  146.2480 C   0  0  0  0  0  3  0  0  0  0  0  0
  189.6810  177.1690  145.4570 C   0  0  0  0  0  2  0  0  0  0  0  0
  183.5290  178.7810  143.5660 C   0  0  0  0  0  0  0  0  0  0  0  0
  185.6020  177.8430  142.5190 C   0  0  0  0  0  2  0  0  0  0  0  0
  187.5250  177.9560  146.3420 N   0  0  0  0  0  0  0  0  0  0  0  0
  181.4210  178.9490  142.1960 C   0  0  0  0  0  2  0  0  0  0  0  0
  184.1560  178.6740  144.8960 C   0  0  0  0  0  0  0  0  0  0  0  0
  182.1390  179.3640  143.4750 C   0  0  0  0  0  2  0  0  0  0  0  0
  191.7220  176.5790  144.3760 O   0  0  0  0  0  1  0  0  0  0  0  0
  189.7320  176.4620  143.0730 C   0  0  0  0  0  2  0  0  0  0  0  0
  185.5680  178.2820  145.0090 C   0  0  0  0  0  0  0  0  0  0  0  0
  182.3120  179.2820  141.0150 C   0  0  0  0  0  2  0  0  0  0  0  0
  184.2180  178.4530  142.4470 C   0  0  0  0  0  0  0  0  0  0  0  0
  184.1260  177.9050  139.9800 C   0  0  0  0  0  2  0  0  0  0  0  0
  183.0340  177.2370  139.2150 C   0  0  0  0  0  0  0  0  0  0  0  0
  181.0230  175.9520  137.7540 C   0  0  0  0  0  0  0  0  0  0  0  0
  182.4270  176.0820  139.7220 C   0  0  0  0  0  3  0  0  0  0  0  0
  182.6380  177.7430  137.9710 C   0  0  0  0  0  3  0  0  0  0  0  0
  181.6320  177.1020  137.2430 C   0  0  0  0  0  3  0  0  0  0  0  0
  180.0240  175.3170  137.0300 O   0  0  0  0  0  1  0  0  0  0  0  0
  181.4210  175.4410  138.9940 C   0  0  0  0  0  3  0  0  0  0  0  0
  1 20  1  0  0  0  0
  2 17  1  0  0  0  0
  2  7  1  0  0  0  0
  4  9  1  0  0  0  0
  4 12  1  0  0  0  0
  5  7  1  0  0  0  0
  5 18  2  0  0  0  0
  6 16  1  1  0  0  0
  6  9  1  0  0  0  0
  7  4  2  0  0  0  0
  8 12  2  0  0  0  0
 10 14  1  0  0  0  0
 11  5  1  0  0  0  0
 13 15  1  0  0  0  0
 14 18  1  0  0  0  0
 14  3  2  0  0  0  0
 15 10  1  0  0  0  0
 17  6  1  0  0  0  0
 18  8  1  0  0  0  0
 19  1  1  0  0  0  0
 19 13  1  0  0  0  0
 20 11  1  0  0  0  0
 20 10  2  0  0  0  0
 21  1  1  0  0  0  0
 22 24  1  0  0  0  0
 22 21  1  0  0  0  0
 23 28  1  0  0  0  0
 25 22  2  0  0  0  0
 26 23  2  0  0  0  0
 26 25  1  0  0  0  0
 27 23  1  0  0  0  0
 28 24  2  0  0  0  0
M  END
>  <MODEL>
3

>  <REMARK>
 VINA RESULT:      -9.8      3.226      7.546
  Name = 
  2 active torsions:
  status: ('A' for Active; 'I' for Inactive)
    1  A    between atoms: N_1  and  C_2
    2  A    between atoms: C_2  and  C_3
                            x       y       z     vdW  Elec       q    Type
                         _______ _______ _______ _____ _____    ______ ____

>  <TORSDO>
F 2

$$$$
=
 OpenBabel10272401563D

 28 32  0  0  1  0  0  0  0  0999 V2000
  189.9770  177.7060  139.8220 N   0  0  0  0  0  0  0  0  0  0  0  0
  191.5610  176.6360  144.7620 C   0  0  0  0  0  2  0  0  0  0  0  0
  186.0520  178.1810  142.5300 O   0  0  0  0  0  0  0  0  0  0  0  0
  189.4150  177.0670  146.0550 C   0  0  0  0  0  0  0  0  0  0  0  0
  189.3810  177.2460  143.6310 C   0  0  0  0  0  0  0  0  0  0  0  0
  191.6110  176.7430  147.2440 C   0  0  1  0  0  3  0  0  0  0  0  0
  190.0860  176.9560  144.8160 C   0  0  0  0  0  0  0  0  0  0  0  0
  187.4040  177.6770  144.9520 C   0  0  0  0  0  3  0  0  0  0  0  0
  190.0910  176.7060  147.3500 C   0  0  0  0  0  2  0  0  0  0  0  0
  187.9920  177.9640  141.1820 C   0  0  0  0  0  0  0  0  0  0  0  0
  190.0650  177.1050  142.2930 C   0  0  0  0  0  2  0  0  0  0  0  0
  188.1000  177.4060  146.0840 N   0  0  0  0  0  0  0  0  0  0  0  0
  187.8600  177.9940  138.6660 C   0  0  0  0  0  2  0  0  0  0  0  0
  187.2850  177.9210  142.4750 C   0  0  0  0  0  0  0  0  0  0  0  0
  187.2430  178.4760  139.9740 C   0  0  0  0  0  2  0  0  0  0  0  0
  192.1700  176.1920  148.3950 O   0  0  0  0  0  1  0  0  0  0  0  0
  192.0560  175.9450  146.0300 C   0  0  0  0  0  2  0  0  0  0  0  0
  188.0260  177.6030  143.7030 C   0  0  0  0  0  0  0  0  0  0  0  0
  189.3360  178.3420  138.6740 C   0  0  0  0  0  2  0  0  0  0  0  0
  189.3040  177.6430  141.0990 C   0  0  0  0  0  0  0  0  0  0  0  0
  191.2520  177.0320  139.6070 C   0  0  0  0  0  2  0  0  0  0  0  0
  191.2280  176.2750  138.3220 C   0  0  0  0  0  0  0  0  0  0  0  0
  191.2150  174.8150  135.9360 C   0  0  0  0  0  0  0  0  0  0  0  0
  190.2110  175.3470  138.0730 C   0  0  0  0  0  3  0  0  0  0  0  0
  192.2450  176.4650  137.3780 C   0  0  0  0  0  3  0  0  0  0  0  0
  192.2360  175.7370  136.1850 C   0  0  0  0  0  3  0  0  0  0  0  0
  191.2070  174.0920  134.7500 O   0  0  0  0  0  1  0  0  0  0  0  0
  190.2030  174.6190  136.8800 C   0  0  0  0  0  3  0  0  0  0  0  0
  1 20  1  0  0  0  0
  2  7  1  0  0  0  0
  2 17  1  0  0  0  0
  4 12  1  0  0  0  0
  4  9  1  0  0  0  0
  5 18  2  0  0  0  0
  5  7  1  0  0  0  0
  6  9  1  0  0  0  0
  6 16  1  1  0  0  0
  7  4  2  0  0  0  0
  8 12  2  0  0  0  0
 10 14  1  0  0  0  0
 11  5  1  0  0  0  0
 13 19  1  0  0  0  0
 13 15  1  0  0  0  0
 14  3  2  0  0  0  0
 14 18  1  0  0  0  0
 15 10  1  0  0  0  0
 17  6  1  0  0  0  0
 18  8  1  0  0  0  0
 19  1  1  0  0  0  0
 20 10  2  0  0  0  0
 20 11  1  0  0  0  0
 21  1  1  0  0  0  0
 22 21  1  0  0  0  0
 23 26  2  0  0  0  0
 23 28  1  0  0  0  0
 24 22  1  0  0  0  0
 25 22  2  0  0  0  0
 26 25  1  0  0  0  0
 27 23  1  0  0  0  0
 28 24  2  0  0  0  0
M  END
>  <MODEL>
4

>  <REMARK>
 VINA RESULT:      -9.6      2.712      5.552
  Name = 
  2 active torsions:
  status: ('A' for Active; 'I' for Inactive)
    1  A    between atoms: N_1  and  C_2
    2  A    between atoms: C_2  and  C_3
                            x       y       z     vdW  Elec       q    Type
                         _______ _______ _______ _____ _____    ______ ____

>  <TORSDO>
F 2

$$$$
=
 OpenBabel10272401563D

 28 32  0  0  1  0  0  0  0  0999 V2000
  186.6450  178.3710  140.3950 N   0  0  0  0  0  0  0  0  0  0  0  0
  188.4760  178.0040  145.3530 C   0  0  0  0  0  2  0  0  0  0  0  0
  182.7930  178.8930  143.1980 O   0  0  0  0  0  0  0  0  0  0  0  0
  186.3510  178.4380  146.6790 C   0  0  0  0  0  0  0  0  0  0  0  0
  186.2190  178.3250  144.2550 C   0  0  0  0  0  0  0  0  0  0  0  0
  188.6050  178.4090  147.8010 C   0  0  1  0  0  3  0  0  0  0  0  0
  186.9840  178.2270  145.4330 C   0  0  0  0  0  0  0  0  0  0  0  0
  184.2630  178.7740  145.6010 C   0  0  0  0  0  3  0  0  0  0  0  0
  187.0960  178.2800  147.9760 C   0  0  0  0  0  2  0  0  0  0  0  0
  184.6960  178.6520  141.8010 C   0  0  0  0  0  0  0  0  0  0  0  0
  186.8640  178.0750  142.9130 C   0  0  0  0  0  2  0  0  0  0  0  0
  185.0170  178.6870  146.7260 N   0  0  0  0  0  0  0  0  0  0  0  0
  184.4730  178.3740  139.3070 C   0  0  0  0  0  2  0  0  0  0  0  0
  184.0390  178.7140  143.1200 C   0  0  0  0  0  0  0  0  0  0  0  0
  183.8700  178.9640  140.5760 C   0  0  0  0  0  2  0  0  0  0  0  0
  189.2430  178.0370  148.9830 O   0  0  0  0  0  1  0  0  0  0  0  0
  189.0640  177.5050  146.6690 C   0  0  0  0  0  2  0  0  0  0  0  0
  184.8450  178.5950  144.3440 C   0  0  0  0  0  0  0  0  0  0  0  0
  185.9200  178.8210  139.2100 C   0  0  0  0  0  2  0  0  0  0  0  0
  186.0240  178.4140  141.6990 C   0  0  0  0  0  0  0  0  0  0  0  0
  187.9580  177.7650  140.2050 C   0  0  0  0  0  2  0  0  0  0  0  0
  188.3010  177.7160  138.7540 C   0  0  0  0  0  0  0  0  0  0  0  0
  188.9940  177.6020  136.0460 C   0  0  0  0  0  0  0  0  0  0  0  0
  187.9730  176.5880  137.9930 C   0  0  0  0  0  3  0  0  0  0  0  0
  188.9840  178.7840  138.1590 C   0  0  0  0  0  3  0  0  0  0  0  0
  189.3270  178.7270  136.8050 C   0  0  0  0  0  3  0  0  0  0  0  0
  189.3350  177.5460  134.7010 O   0  0  0  0  0  1  0  0  0  0  0  0
  188.3170  176.5310  136.6400 C   0  0  0  0  0  3  0  0  0  0  0  0
  1 20  1  0  0  0  0
  2  7  1  0  0  0  0
  2 17  1  0  0  0  0
  4 12  1  0  0  0  0
  4  9  1  0  0  0  0
  5 18  2  0  0  0  0
  5  7  1  0  0  0  0
  6  9  1  0  0  0  0
  6 16  1  1  0  0  0
  7  4  2  0  0  0  0
  8 12  2  0  0  0  0
 10 14  1  0  0  0  0
 11  5  1  0  0  0  0
 13 15  1  0  0  0  0
 14  3  2  0  0  0  0
 14 18  1  0  0  0  0
 15 10  1  0  0  0  0
 17  6  1  0  0  0  0
 18  8  1  0  0  0  0
 19 13  1  0  0  0  0
 19  1  1  0  0  0  0
 20 10  2  0  0  0  0
 20 11  1  0  0  0  0
 21  1  1  0  0  0  0
 22 21  1  0  0  0  0
 23 28  2  0  0  0  0
 23 26  1  0  0  0  0
 24 22  2  0  0  0  0
 25 22  1  0  0  0  0
 26 25  2  0  0  0  0
 27 23  1  0  0  0  0
 28 24  1  0  0  0  0
M  END
>  <MODEL>
5

>  <REMARK>
 VINA RESULT:      -9.6      2.621      5.217
  Name = 
  2 active torsions:
  status: ('A' for Active; 'I' for Inactive)
    1  A    between atoms: N_1  and  C_2
    2  A    between atoms: C_2  and  C_3
                            x       y       z     vdW  Elec       q    Type
                         _______ _______ _______ _____ _____    ______ ____

>  <TORSDO>
F 2

$$$$
=
 OpenBabel10272401563D

 28 32  0  0  1  0  0  0  0  0999 V2000
  184.1160  179.1000  142.4620 N   0  0  0  0  0  0  0  0  0  0  0  0
  189.0740  177.9210  141.0140 C   0  0  0  0  0  2  0  0  0  0  0  0
  186.2510  177.5300  146.4540 O   0  0  0  0  0  0  0  0  0  0  0  0
  190.0770  177.2500  143.2500 C   0  0  0  0  0  0  0  0  0  0  0  0
  187.7140  177.8070  143.1440 C   0  0  0  0  0  0  0  0  0  0  0  0
  191.5310  177.6200  141.2280 C   0  0  1  0  0  3  0  0  0  0  0  0
  188.9470  177.6230  142.4890 C   0  0  0  0  0  0  0  0  0  0  0  0
  188.7690  177.1970  145.2310 C   0  0  0  0  0  3  0  0  0  0  0  0
  191.4050  176.9710  142.6020 C   0  0  0  0  0  2  0  0  0  0  0  0
  185.1890  178.3240  144.4880 C   0  0  0  0  0  0  0  0  0  0  0  0
  186.4840  178.1750  142.3500 C   0  0  0  0  0  2  0  0  0  0  0  0
  189.9520  177.0350  144.5860 N   0  0  0  0  0  0  0  0  0  0  0  0
  182.7020  178.7230  144.4010 C   0  0  0  0  0  2  0  0  0  0  0  0
  186.3490  177.7890  145.2240 C   0  0  0  0  0  0  0  0  0  0  0  0
  183.9530  178.6950  145.2720 C   0  0  0  0  0  2  0  0  0  0  0  0
  192.6780  177.1470  140.5950 O   0  0  0  0  0  1  0  0  0  0  0  0
  190.3090  177.2780  140.3910 C   0  0  0  0  0  2  0  0  0  0  0  0
  187.6270  177.5850  144.5270 C   0  0  0  0  0  0  0  0  0  0  0  0
  182.9700  179.6160  143.2050 C   0  0  0  0  0  2  0  0  0  0  0  0
  185.2640  178.5630  143.1580 C   0  0  0  0  0  0  0  0  0  0  0  0
  184.0140  179.0280  141.0090 C   0  0  0  0  0  2  0  0  0  0  0  0
  182.9530  178.0570  140.6110 C   0  0  0  0  0  0  0  0  0  0  0  0
  180.9720  176.2090  139.9140 C   0  0  0  0  0  0  0  0  0  0  0  0
  181.6240  178.2750  140.9930 C   0  0  0  0  0  3  0  0  0  0  0  0
  183.2900  176.9080  139.8870 C   0  0  0  0  0  3  0  0  0  0  0  0
  182.3000  175.9860  139.5370 C   0  0  0  0  0  3  0  0  0  0  0  0
  179.9890  175.2930  139.5650 O   0  0  0  0  0  1  0  0  0  0  0  0
  180.6340  177.3530  140.6430 C   0  0  0  0  0  3  0  0  0  0  0  0
  1 20  1  0  0  0  0
  1 19  1  0  0  0  0
  2  7  1  0  0  0  0
  4 12  1  0  0  0  0
  5 18  2  0  0  0  0
  6 16  1  6  0  0  0
  6  9  1  0  0  0  0
  7  5  1  0  0  0  0
  7  4  2  0  0  0  0
  9  4  1  0  0  0  0
 10 14  1  0  0  0  0
 10 15  1  0  0  0  0
 11  5  1  0  0  0  0
 11 20  1  0  0  0  0
 12  8  2  0  0  0  0
 13 15  1  0  0  0  0
 14  3  2  0  0  0  0
 17  2  1  0  0  0  0
 17  6  1  0  0  0  0
 18 14  1  0  0  0  0
 18  8  1  0  0  0  0
 19 13  1  0  0  0  0
 20 10  2  0  0  0  0
 21  1  1  0  0  0  0
 22 24  1  0  0  0  0
 22 21  1  0  0  0  0
 23 28  1  0  0  0  0
 25 22  2  0  0  0  0
 26 25  1  0  0  0  0
 26 23  2  0  0  0  0
 27 23  1  0  0  0  0
 28 24  2  0  0  0  0
M  END
>  <MODEL>
6

>  <REMARK>
 VINA RESULT:      -9.5      2.309      7.616
  Name = 
  2 active torsions:
  status: ('A' for Active; 'I' for Inactive)
    1  A    between atoms: N_1  and  C_2
    2  A    between atoms: C_2  and  C_3
                            x       y       z     vdW  Elec       q    Type
                         _______ _______ _______ _____ _____    ______ ____

>  <TORSDO>
F 2

$$$$
=
 OpenBabel10272401563D

 28 32  0  0  1  0  0  0  0  0999 V2000
  186.5810  178.4030  140.2080 N   0  0  0  0  0  0  0  0  0  0  0  0
  187.0500  178.0420  145.4720 C   0  0  0  0  0  2  0  0  0  0  0  0
  191.0930  176.9820  140.9720 O   0  0  0  0  0  0  0  0  0  0  0  0
  189.4240  177.1570  145.6800 C   0  0  0  0  0  0  0  0  0  0  0  0
  188.5620  177.6970  143.4730 C   0  0  0  0  0  0  0  0  0  0  0  0
  187.8750  177.2120  147.6640 C   0  0  1  0  0  3  0  0  0  0  0  0
  188.3800  177.6560  144.8690 C   0  0  0  0  0  0  0  0  0  0  0  0
  190.7910  176.8100  143.7700 C   0  0  0  0  0  3  0  0  0  0  0  0
  189.3190  177.1500  147.1800 C   0  0  0  0  0  2  0  0  0  0  0  0
  188.8570  177.6700  140.5820 C   0  0  0  0  0  0  0  0  0  0  0  0
  187.4740  178.2540  142.5860 C   0  0  0  0  0  2  0  0  0  0  0  0
  190.5940  176.7670  145.1120 N   0  0  0  0  0  0  0  0  0  0  0  0
  188.0750  178.3750  138.2930 C   0  0  0  0  0  2  0  0  0  0  0  0
  189.9770  177.3000  141.4660 C   0  0  0  0  0  0  0  0  0  0  0  0
  189.0370  177.5040  139.0920 C   0  0  0  0  0  2  0  0  0  0  0  0
  187.8550  177.4240  149.0410 O   0  0  0  0  0  1  0  0  0  0  0  0
  187.1520  178.3500  146.9630 C   0  0  0  0  0  2  0  0  0  0  0  0
  189.7820  177.2760  142.9220 C   0  0  0  0  0  0  0  0  0  0  0  0
  186.6640  178.1050  138.7810 C   0  0  0  0  0  2  0  0  0  0  0  0
  187.6670  178.0580  141.0970 C   0  0  0  0  0  0  0  0  0  0  0  0
  185.4320  179.1650  140.6820 C   0  0  0  0  0  2  0  0  0  0  0  0
  184.1810  178.6730  140.0360 C   0  0  0  0  0  0  0  0  0  0  0  0
  181.8040  177.7780  138.8620 C   0  0  0  0  0  0  0  0  0  0  0  0
  183.5730  179.4230  139.0220 C   0  0  0  0  0  3  0  0  0  0  0  0
  183.5920  177.4780  140.4670 C   0  0  0  0  0  3  0  0  0  0  0  0
  182.4060  177.0300  139.8780 C   0  0  0  0  0  3  0  0  0  0  0  0
  180.6270  177.3320  138.2780 O   0  0  0  0  0  1  0  0  0  0  0  0
  182.3870  178.9750  138.4340 C   0  0  0  0  0  3  0  0  0  0  0  0
  1 21  1  0  0  0  0
  1 20  1  0  0  0  0
  2 17  1  0  0  0  0
  3 14  2  0  0  0  0
  4  9  1  0  0  0  0
  5  7  1  0  0  0  0
  6 16  1  1  0  0  0
  7  2  1  0  0  0  0
  7  4  2  0  0  0  0
  8 12  2  0  0  0  0
  9  6  1  0  0  0  0
 10 20  2  0  0  0  0
 10 14  1  0  0  0  0
 11  5  1  0  0  0  0
 12  4  1  0  0  0  0
 13 19  1  0  0  0  0
 13 15  1  0  0  0  0
 14 18  1  0  0  0  0
 15 10  1  0  0  0  0
 17  6  1  0  0  0  0
 18  5  2  0  0  0  0
 18  8  1  0  0  0  0
 19  1  1  0  0  0  0
 20 11  1  0  0  0  0
 22 25  1  0  0  0  0
 22 21  1  0  0  0  0
 23 26  1  0  0  0  0
 24 22  2  0  0  0  0
 26 25  2  0  0  0  0
 27 23  1  0  0  0  0
 28 23  2  0  0  0  0
 28 24  1  0  0  0  0
M  END
>  <MODEL>
7

>  <REMARK>
 VINA RESULT:      -9.4      2.778      6.832
  Name = 
  2 active torsions:
  status: ('A' for Active; 'I' for Inactive)
    1  A    between atoms: N_1  and  C_2
    2  A    between atoms: C_2  and  C_3
                            x       y       z     vdW  Elec       q    Type
                         _______ _______ _______ _____ _____    ______ ____

>  <TORSDO>
F 2

$$$$
=
 OpenBabel10272401563D

 28 32  0  0  1  0  0  0  0  0999 V2000
  189.7340  177.7460  140.0790 N   0  0  0  0  0  0  0  0  0  0  0  0
  185.0470  178.6250  142.3860 C   0  0  0  0  0  2  0  0  0  0  0  0
  190.5030  177.1120  144.7660 O   0  0  0  0  0  0  0  0  0  0  0  0
  185.6060  178.1160  144.8120 C   0  0  0  0  0  0  0  0  0  0  0  0
  187.3840  178.0390  143.1570 C   0  0  0  0  0  0  0  0  0  0  0  0
  183.2220  178.4130  144.0590 C   0  0  1  0  0  3  0  0  0  0  0  0
  186.0350  178.2860  143.4760 C   0  0  0  0  0  0  0  0  0  0  0  0
  187.8080  177.5290  145.4810 C   0  0  0  0  0  3  0  0  0  0  0  0
  184.1960  178.4290  145.2320 C   0  0  0  0  0  2  0  0  0  0  0  0
  190.1300  177.4080  142.4420 C   0  0  0  0  0  0  0  0  0  0  0  0
  187.8740  178.2430  141.7440 C   0  0  0  0  0  2  0  0  0  0  0  0
  186.5020  177.7600  145.7690 N   0  0  0  0  0  0  0  0  0  0  0  0
  192.0390  177.4820  140.7990 C   0  0  0  0  0  2  0  0  0  0  0  0
  189.6840  177.3880  143.8470 C   0  0  0  0  0  0  0  0  0  0  0  0
  191.5310  176.9390  142.1300 C   0  0  0  0  0  2  0  0  0  0  0  0
  181.9920  178.9220  144.4710 O   0  0  0  0  0  1  0  0  0  0  0  0
  183.7740  179.2670  142.9290 C   0  0  0  0  0  2  0  0  0  0  0  0
  188.2770  177.6630  144.1720 C   0  0  0  0  0  0  0  0  0  0  0  0
  191.0200  177.1520  139.7250 C   0  0  0  0  0  2  0  0  0  0  0  0
  189.2750  177.7470  141.4490 C   0  0  0  0  0  0  0  0  0  0  0  0
  188.9920  178.4430  139.0340 C   0  0  0  0  0  2  0  0  0  0  0  0
  188.7660  177.5400  137.8680 C   0  0  0  0  0  0  0  0  0  0  0  0
  188.2980  175.8780  135.6670 C   0  0  0  0  0  0  0  0  0  0  0  0
  189.3610  177.8260  136.6340 C   0  0  0  0  0  3  0  0  0  0  0  0
  187.9290  176.4260  137.9970 C   0  0  0  0  0  3  0  0  0  0  0  0
  187.6970  175.5940  136.8970 C   0  0  0  0  0  3  0  0  0  0  0  0
  188.0670  175.0520  134.5760 O   0  0  0  0  0  1  0  0  0  0  0  0
  189.1290  176.9950  135.5350 C   0  0  0  0  0  3  0  0  0  0  0  0
  1 20  1  0  0  0  0
  2 17  1  0  0  0  0
  2  7  1  0  0  0  0
  4  9  1  0  0  0  0
  4 12  1  0  0  0  0
  5  7  1  0  0  0  0
  5 18  2  0  0  0  0
  6 16  1  1  0  0  0
  6  9  1  0  0  0  0
  7  4  2  0  0  0  0
  8 12  2  0  0  0  0
 10 14  1  0  0  0  0
 11  5  1  0  0  0  0
 13 15  1  0  0  0  0
 14 18  1  0  0  0  0
 14  3  2  0  0  0  0
 15 10  1  0  0  0  0
 17  6  1  0  0  0  0
 18  8  1  0  0  0  0
 19  1  1  0  0  0  0
 19 13  1  0  0  0  0
 20 11  1  0  0  0  0
 20 10  2  0  0  0  0
 21  1  1  0  0  0  0
 22 25  1  0  0  0  0
 22 21  1  0  0  0  0
 23 26  1  0  0  0  0
 24 22  2  0  0  0  0
 26 25  2  0  0  0  0
 27 23  1  0  0  0  0
 28 23  2  0  0  0  0
 28 24  1  0  0  0  0
M  END
>  <MODEL>
8

>  <REMARK>
 VINA RESULT:      -9.4      2.386      3.082
  Name = 
  2 active torsions:
  status: ('A' for Active; 'I' for Inactive)
    1  A    between atoms: N_1  and  C_2
    2  A    between atoms: C_2  and  C_3
                            x       y       z     vdW  Elec       q    Type
                         _______ _______ _______ _____ _____    ______ ____

>  <TORSDO>
F 2

$$$$
=
 OpenBabel10272401563D

 28 32  0  0  1  0  0  0  0  0999 V2000
  188.7630  177.7420  138.5610 N   0  0  0  0  0  0  0  0  0  0  0  0
  185.3920  178.8080  142.5060 C   0  0  0  0  0  2  0  0  0  0  0  0
  191.0880  176.5110  142.5660 O   0  0  0  0  0  0  0  0  0  0  0  0
  186.7200  177.9750  144.5060 C   0  0  0  0  0  0  0  0  0  0  0  0
  187.7500  177.9130  142.3060 C   0  0  0  0  0  0  0  0  0  0  0  0
  184.2880  178.5870  144.7210 C   0  0  1  0  0  3  0  0  0  0  0  0
  186.6540  178.2520  143.1220 C   0  0  0  0  0  0  0  0  0  0  0  0
  188.9160  177.1050  144.2620 C   0  0  0  0  0  3  0  0  0  0  0  0
  185.6140  178.3750  145.4430 C   0  0  0  0  0  2  0  0  0  0  0  0
  189.9400  177.1020  140.5760 C   0  0  0  0  0  0  0  0  0  0  0  0
  187.7170  178.2270  140.8300 C   0  0  0  0  0  2  0  0  0  0  0  0
  187.8470  177.4280  145.0330 N   0  0  0  0  0  0  0  0  0  0  0  0
  191.1160  177.1760  138.3480 C   0  0  0  0  0  2  0  0  0  0  0  0
  190.0360  176.9670  142.0410 C   0  0  0  0  0  0  0  0  0  0  0  0
  191.0580  176.5380  139.7310 C   0  0  0  0  0  2  0  0  0  0  0  0
  183.3700  179.1630  145.5960 O   0  0  0  0  0  1  0  0  0  0  0  0
  184.5000  179.5050  143.5280 C   0  0  0  0  0  2  0  0  0  0  0  0
  188.8920  177.3400  142.8850 C   0  0  0  0  0  0  0  0  0  0  0  0
  189.7430  177.0700  137.7120 C   0  0  0  0  0  2  0  0  0  0  0  0
  188.8360  177.6330  140.0000 C   0  0  0  0  0  0  0  0  0  0  0  0
  187.7920  178.6220  137.9200 C   0  0  0  0  0  2  0  0  0  0  0  0
  186.4970  177.9090  137.7230 C   0  0  0  0  0  0  0  0  0  0  0  0
  184.0780  176.5410  137.4000 C   0  0  0  0  0  0  0  0  0  0  0  0
  185.3240  178.4130  138.2960 C   0  0  0  0  0  3  0  0  0  0  0  0
  186.4590  176.7140  136.9950 C   0  0  0  0  0  3  0  0  0  0  0  0
  185.2490  176.0320  136.8320 C   0  0  0  0  0  3  0  0  0  0  0  0
  182.8770  175.8640  137.2380 O   0  0  0  0  0  1  0  0  0  0  0  0
  184.1150  177.7320  138.1340 C   0  0  0  0  0  3  0  0  0  0  0  0
  1 20  1  0  0  0  0
  2  7  1  0  0  0  0
  2 17  1  0  0  0  0
  4 12  1  0  0  0  0
  4  9  1  0  0  0  0
  5 18  2  0  0  0  0
  5  7  1  0  0  0  0
  6  9  1  0  0  0  0
  6 16  1  1  0  0  0
  7  4  2  0  0  0  0
  8 12  2  0  0  0  0
 10 14  1  0  0  0  0
 11  5  1  0  0  0  0
 13 15  1  0  0  0  0
 14  3  2  0  0  0  0
 14 18  1  0  0  0  0
 15 10  1  0  0  0  0
 17  6  1  0  0  0  0
 18  8  1  0  0  0  0
 19 13  1  0  0  0  0
 19  1  1  0  0  0  0
 20 10  2  0  0  0  0
 20 11  1  0  0  0  0
 21  1  1  0  0  0  0
 22 21  1  0  0  0  0
 22 24  1  0  0  0  0
 23 28  1  0  0  0  0
 25 22  2  0  0  0  0
 26 25  1  0  0  0  0
 26 23  2  0  0  0  0
 27 23  1  0  0  0  0
 28 24  2  0  0  0  0
M  END
>  <MODEL>
9

>  <REMARK>
 VINA RESULT:      -9.4      3.223      5.023
  Name = 
  2 active torsions:
  status: ('A' for Active; 'I' for Inactive)
    1  A    between atoms: N_1  and  C_2
    2  A    between atoms: C_2  and  C_3
                            x       y       z     vdW  Elec       q    Type
                         _______ _______ _______ _____ _____    ______ ____

>  <TORSDO>
F 2

$$$$
