=
 OpenBabel10272401053D

 27 31  0  0  1  0  0  0  0  0999 V2000
  189.5960  176.9240  142.6050 N   0  0  0  0  0  2  0  0  0  0  0  0
  187.6090  177.6860  143.7980 C   0  0  0  0  0  0  0  0  0  0  0  0
  187.4210  178.5760  141.5220 N   0  0  0  0  0  2  0  0  0  0  0  0
  183.5170  178.5620  144.5350 C   0  0  0  0  0  3  0  0  0  0  0  0
  181.3280  179.0950  143.6740 O   0  0  0  0  0  1  0  0  0  0  0  0
  186.9260  177.1450  145.0360 C   0  0  0  0  0  2  0  0  0  0  0  0
  184.5710  178.7480  141.9480 C   0  0  0  0  0  3  0  0  0  0  0  0
  189.4400  177.8780  138.6630 C   0  0  0  0  0  0  0  0  0  0  0  0
  183.2080  178.9680  142.1680 C   0  0  0  0  0  3  0  0  0  0  0  0
  189.5060  178.2750  137.2320 C   0  0  0  0  0  1  0  0  0  0  0  0
  185.4170  178.4270  143.0200 C   0  0  0  0  0  0  0  0  0  0  0  0
  189.1010  177.7320  143.7080 C   0  0  1  0  0  3  0  0  0  0  0  0
  182.6810  178.8740  143.4580 C   0  0  0  0  0  0  0  0  0  0  0  0
  184.8780  178.3280  144.3190 C   0  0  0  0  0  0  0  0  0  0  0  0
  189.3690  177.1480  141.3470 C   0  0  0  0  0  0  0  0  0  0  0  0
  186.8670  178.1970  142.7980 C   0  0  0  0  0  0  0  0  0  0  0  0
  188.5440  178.5130  139.5210 C   0  0  0  0  0  3  0  0  0  0  0  0
  185.7830  178.0540  145.4790 C   0  0  0  0  0  2  0  0  0  0  0  0
  190.2070  176.8570  139.1200 N   0  0  0  0  0  0  0  0  0  0  0  0
  190.1940  176.4920  140.4280 C   0  0  0  0  0  3  0  0  0  0  0  0
  188.4570  178.1300  140.8630 C   0  0  0  0  0  0  0  0  0  0  0  0
  191.2030  176.7690  147.3360 C   0  0  0  0  0  3  0  0  0  0  0  0
  189.8140  177.3880  144.9830 C   0  0  0  0  0  0  0  0  0  0  0  0
  191.0460  176.7270  144.9190 C   0  0  0  0  0  3  0  0  0  0  0  0
  191.7380  176.4160  146.0930 C   0  0  0  0  0  3  0  0  0  0  0  0
  189.9760  177.4360  147.4050 C   0  0  0  0  0  3  0  0  0  0  0  0
  189.2830  177.7470  146.2310 C   0  0  0  0  0  3  0  0  0  0  0  0
  1 12  1  0  0  0  0
  2  6  1  0  0  0  0
  3 16  1  0  0  0  0
  6 18  1  0  0  0  0
  7  9  2  0  0  0  0
  7 11  1  0  0  0  0
  8 19  2  0  0  0  0
  8 17  1  0  0  0  0
  9 13  1  0  0  0  0
 10  8  1  0  0  0  0
 11 14  2  0  0  0  0
 12  2  1  0  0  0  0
 12 23  1  1  0  0  0
 13  5  1  0  0  0  0
 13  4  2  0  0  0  0
 14  4  1  0  0  0  0
 14 18  1  0  0  0  0
 15  1  1  0  0  0  0
 16 11  1  0  0  0  0
 16  2  2  0  0  0  0
 17 21  2  0  0  0  0
 19 20  1  0  0  0  0
 20 15  2  0  0  0  0
 21 15  1  0  0  0  0
 21  3  1  0  0  0  0
 22 26  1  0  0  0  0
 23 27  1  0  0  0  0
 24 23  2  0  0  0  0
 24 25  1  0  0  0  0
 25 22  2  0  0  0  0
 27 26  2  0  0  0  0
M  END
>  <MODEL>
1

>  <REMARK>
 VINA RESULT:     -11.6      0.000      0.000
  Name = 
  1 active torsions:
  status: ('A' for Active; 'I' for Inactive)
    1  A    between atoms: C_9  and  C_15
                            x       y       z     vdW  Elec       q    Type
                         _______ _______ _______ _____ _____    ______ ____

>  <TORSDO>
F 1

$$$$
=
 OpenBabel10272401053D

 27 31  0  0  1  0  0  0  0  0999 V2000
  187.2730  178.4410  141.7590 N   0  0  0  0  0  2  0  0  0  0  0  0
  187.8330  177.7510  144.0320 C   0  0  0  0  0  0  0  0  0  0  0  0
  189.4890  176.6890  142.5700 N   0  0  0  0  0  2  0  0  0  0  0  0
  190.2160  176.8910  147.4430 C   0  0  0  0  0  3  0  0  0  0  0  0
  192.3550  176.2710  148.3690 O   0  0  0  0  0  1  0  0  0  0  0  0
  187.5010  178.3770  145.3690 C   0  0  0  0  0  2  0  0  0  0  0  0
  191.2350  176.5200  144.8630 C   0  0  0  0  0  3  0  0  0  0  0  0
  190.0550  177.1890  139.0820 C   0  0  0  0  0  0  0  0  0  0  0  0
  192.0510  176.3030  145.9770 C   0  0  0  0  0  3  0  0  0  0  0  0
  190.9730  176.6850  138.0270 C   0  0  0  0  0  1  0  0  0  0  0  0
  189.9050  176.9300  145.0300 C   0  0  0  0  0  0  0  0  0  0  0  0
  186.8190  177.7140  142.9340 C   0  0  1  0  0  3  0  0  0  0  0  0
  191.5430  176.4890  147.2650 C   0  0  0  0  0  0  0  0  0  0  0  0
  189.4000  177.1220  146.3320 C   0  0  0  0  0  0  0  0  0  0  0  0
  188.2930  178.1190  141.0240 C   0  0  0  0  0  0  0  0  0  0  0  0
  189.0270  177.1570  143.8530 C   0  0  0  0  0  0  0  0  0  0  0  0
  190.0680  176.6110  140.3510 C   0  0  0  0  0  3  0  0  0  0  0  0
  187.9630  177.4930  146.5250 C   0  0  0  0  0  2  0  0  0  0  0  0
  189.2480  178.2490  138.8290 N   0  0  0  0  0  0  0  0  0  0  0  0
  188.3750  178.7130  139.7600 C   0  0  0  0  0  3  0  0  0  0  0  0
  189.2260  177.0940  141.3570 C   0  0  0  0  0  0  0  0  0  0  0  0
  182.8520  178.9460  144.0540 C   0  0  0  0  0  3  0  0  0  0  0  0
  185.4440  178.1600  143.3380 C   0  0  0  0  0  0  0  0  0  0  0  0
  184.4540  178.2920  142.3590 C   0  0  0  0  0  3  0  0  0  0  0  0
  183.1600  178.6860  142.7150 C   0  0  0  0  0  3  0  0  0  0  0  0
  183.8360  178.8100  145.0380 C   0  0  0  0  0  3  0  0  0  0  0  0
  185.1300  178.4160  144.6820 C   0  0  0  0  0  3  0  0  0  0  0  0
  1 12  1  0  0  0  0
  2  6  1  0  0  0  0
  3 16  1  0  0  0  0
  6 18  1  0  0  0  0
  7 11  2  0  0  0  0
  7  9  1  0  0  0  0
  8 17  1  0  0  0  0
  9 13  2  0  0  0  0
 10  8  1  0  0  0  0
 11 14  1  0  0  0  0
 12 23  1  1  0  0  0
 12  2  1  0  0  0  0
 13  4  1  0  0  0  0
 13  5  1  0  0  0  0
 14 18  1  0  0  0  0
 14  4  2  0  0  0  0
 15 21  1  0  0  0  0
 15  1  1  0  0  0  0
 16  2  2  0  0  0  0
 16 11  1  0  0  0  0
 17 21  2  0  0  0  0
 19  8  2  0  0  0  0
 19 20  1  0  0  0  0
 20 15  2  0  0  0  0
 21  3  1  0  0  0  0
 22 26  1  0  0  0  0
 23 27  1  0  0  0  0
 24 25  1  0  0  0  0
 24 23  2  0  0  0  0
 25 22  2  0  0  0  0
 27 26  2  0  0  0  0
M  END
>  <MODEL>
2

>  <REMARK>
 VINA RESULT:     -11.2      2.495      5.770
  Name = 
  1 active torsions:
  status: ('A' for Active; 'I' for Inactive)
    1  A    between atoms: C_9  and  C_15
                            x       y       z     vdW  Elec       q    Type
                         _______ _______ _______ _____ _____    ______ ____

>  <TORSDO>
F 1

$$$$
=
 OpenBabel10272401053D

 27 31  0  0  1  0  0  0  0  0999 V2000
  188.7150  177.0820  143.7780 N   0  0  0  0  0  2  0  0  0  0  0  0
  186.4890  177.9840  144.2080 C   0  0  0  0  0  0  0  0  0  0  0  0
  186.9590  178.4270  141.8440 N   0  0  0  0  0  2  0  0  0  0  0  0
  182.3710  178.8410  143.6030 C   0  0  0  0  0  3  0  0  0  0  0  0
  180.5200  179.1290  142.0840 O   0  0  0  0  0  1  0  0  0  0  0  0
  185.4780  177.6600  145.2870 C   0  0  0  0  0  2  0  0  0  0  0  0
  184.1070  178.5780  141.4230 C   0  0  0  0  0  3  0  0  0  0  0  0
  189.6810  177.2790  139.8410 C   0  0  0  0  0  0  0  0  0  0  0  0
  182.7420  178.7880  141.2110 C   0  0  0  0  0  3  0  0  0  0  0  0
  190.1510  177.4050  138.4370 C   0  0  0  0  0  1  0  0  0  0  0  0
  184.6150  178.4920  142.7270 C   0  0  0  0  0  0  0  0  0  0  0  0
  187.9470  178.0640  144.5280 C   0  0  1  0  0  3  0  0  0  0  0  0
  181.8750  178.9180  142.2990 C   0  0  0  0  0  0  0  0  0  0  0  0
  183.7340  178.6180  143.8210 C   0  0  0  0  0  0  0  0  0  0  0  0
  188.8510  177.0600  142.4880 C   0  0  0  0  0  0  0  0  0  0  0  0
  186.0650  178.2740  142.9640 C   0  0  0  0  0  0  0  0  0  0  0  0
  188.5940  178.0320  140.2820 C   0  0  0  0  0  3  0  0  0  0  0  0
  184.2740  178.5950  145.2160 C   0  0  0  0  0  2  0  0  0  0  0  0
  190.2710  176.3880  140.6760 N   0  0  0  0  0  0  0  0  0  0  0  0
  189.8870  176.2720  141.9740 C   0  0  0  0  0  3  0  0  0  0  0  0
  188.1290  177.9030  141.5940 C   0  0  0  0  0  0  0  0  0  0  0  0
  188.9360  177.8690  148.7110 C   0  0  0  0  0  3  0  0  0  0  0  0
  188.2710  177.9880  145.9920 C   0  0  0  0  0  0  0  0  0  0  0  0
  189.4800  177.4110  146.3940 C   0  0  0  0  0  3  0  0  0  0  0  0
  189.8110  177.3500  147.7520 C   0  0  0  0  0  3  0  0  0  0  0  0
  187.7290  178.4520  148.3130 C   0  0  0  0  0  3  0  0  0  0  0  0
  187.3970  178.5140  146.9560 C   0  0  0  0  0  3  0  0  0  0  0  0
  1 12  1  0  0  0  0
  2 12  1  0  0  0  0
  2  6  1  0  0  0  0
  3 16  1  0  0  0  0
  4 14  1  0  0  0  0
  5 13  1  0  0  0  0
  7 11  1  0  0  0  0
  8 17  2  0  0  0  0
  8 19  1  0  0  0  0
  9  7  2  0  0  0  0
  9 13  1  0  0  0  0
 10  8  1  0  0  0  0
 11 16  1  0  0  0  0
 11 14  2  0  0  0  0
 12 23  1  1  0  0  0
 13  4  2  0  0  0  0
 14 18  1  0  0  0  0
 15  1  1  0  0  0  0
 16  2  2  0  0  0  0
 17 21  1  0  0  0  0
 18  6  1  0  0  0  0
 19 20  2  0  0  0  0
 20 15  1  0  0  0  0
 21  3  1  0  0  0  0
 21 15  2  0  0  0  0
 23 24  2  0  0  0  0
 23 27  1  0  0  0  0
 24 25  1  0  0  0  0
 25 22  2  0  0  0  0
 26 22  1  0  0  0  0
 27 26  2  0  0  0  0
M  END
>  <MODEL>
3

>  <REMARK>
 VINA RESULT:     -11.0      1.234      1.634
  Name = 
  1 active torsions:
  status: ('A' for Active; 'I' for Inactive)
    1  A    between atoms: C_9  and  C_15
                            x       y       z     vdW  Elec       q    Type
                         _______ _______ _______ _____ _____    ______ ____

>  <TORSDO>
F 1

$$$$
=
 OpenBabel10272401053D

 27 31  0  0  1  0  0  0  0  0999 V2000
  189.8470  176.7750  141.3620 N   0  0  0  0  0  2  0  0  0  0  0  0
  188.0370  177.5210  142.8200 C   0  0  0  0  0  0  0  0  0  0  0  0
  187.6090  178.5320  140.6290 N   0  0  0  0  0  2  0  0  0  0  0  0
  184.0890  178.4540  144.0820 C   0  0  0  0  0  3  0  0  0  0  0  0
  181.8310  179.0840  143.5150 O   0  0  0  0  0  1  0  0  0  0  0  0
  187.4900  176.9320  144.1020 C   0  0  0  0  0  2  0  0  0  0  0  0
  184.8360  178.7500  141.4000 C   0  0  0  0  0  3  0  0  0  0  0  0
  189.2550  177.9370  137.5190 C   0  0  0  0  0  0  0  0  0  0  0  0
  183.5160  178.9910  141.7910 C   0  0  0  0  0  3  0  0  0  0  0  0
  189.1640  178.4070  136.1120 C   0  0  0  0  0  1  0  0  0  0  0  0
  185.7920  178.3540  142.3460 C   0  0  0  0  0  0  0  0  0  0  0  0
  189.5090  177.5350  142.5550 C   0  0  1  0  0  3  0  0  0  0  0  0
  183.1420  178.8420  143.1290 C   0  0  0  0  0  0  0  0  0  0  0  0
  185.4080  178.2000  143.6940 C   0  0  0  0  0  0  0  0  0  0  0  0
  189.4800  177.0700  140.1530 C   0  0  0  0  0  0  0  0  0  0  0  0
  187.1990  178.1010  141.9420 C   0  0  0  0  0  0  0  0  0  0  0  0
  188.4860  178.5480  138.5080 C   0  0  0  0  0  3  0  0  0  0  0  0
  186.4340  177.8430  144.7230 C   0  0  0  0  0  2  0  0  0  0  0  0
  190.0400  176.8760  137.8300 N   0  0  0  0  0  0  0  0  0  0  0  0
  190.1700  176.4430  139.1110 C   0  0  0  0  0  3  0  0  0  0  0  0
  188.5470  178.0980  139.8300 C   0  0  0  0  0  0  0  0  0  0  0  0
  191.8900  176.3260  145.9280 C   0  0  0  0  0  3  0  0  0  0  0  0
  190.3580  177.1080  143.7170 C   0  0  0  0  0  0  0  0  0  0  0  0
  190.3990  177.9110  144.8620 C   0  0  0  0  0  3  0  0  0  0  0  0
  191.1660  177.5220  145.9660 C   0  0  0  0  0  3  0  0  0  0  0  0
  191.8470  175.5170  144.7890 C   0  0  0  0  0  3  0  0  0  0  0  0
  191.0800  175.9060  143.6850 C   0  0  0  0  0  3  0  0  0  0  0  0
  1 12  1  0  0  0  0
  2  6  1  0  0  0  0
  3 16  1  0  0  0  0
  6 18  1  0  0  0  0
  7  9  2  0  0  0  0
  7 11  1  0  0  0  0
  8 19  2  0  0  0  0
  8 17  1  0  0  0  0
  9 13  1  0  0  0  0
 10  8  1  0  0  0  0
 11 14  2  0  0  0  0
 12  2  1  0  0  0  0
 12 23  1  1  0  0  0
 13  5  1  0  0  0  0
 13  4  2  0  0  0  0
 14  4  1  0  0  0  0
 14 18  1  0  0  0  0
 15  1  1  0  0  0  0
 16 11  1  0  0  0  0
 16  2  2  0  0  0  0
 17 21  2  0  0  0  0
 19 20  1  0  0  0  0
 20 15  2  0  0  0  0
 21 15  1  0  0  0  0
 21  3  1  0  0  0  0
 22 25  1  0  0  0  0
 23 24  1  0  0  0  0
 24 25  2  0  0  0  0
 26 22  2  0  0  0  0
 27 23  2  0  0  0  0
 27 26  1  0  0  0  0
M  END
>  <MODEL>
4

>  <REMARK>
 VINA RESULT:     -10.8      1.034      1.443
  Name = 
  1 active torsions:
  status: ('A' for Active; 'I' for Inactive)
    1  A    between atoms: C_9  and  C_15
                            x       y       z     vdW  Elec       q    Type
                         _______ _______ _______ _____ _____    ______ ____

>  <TORSDO>
F 1

$$$$
=
 OpenBabel10272401053D

 27 31  0  0  1  0  0  0  0  0999 V2000
  186.7980  178.7300  140.1680 N   0  0  0  0  0  2  0  0  0  0  0  0
  186.1340  178.3670  142.4880 C   0  0  0  0  0  0  0  0  0  0  0  0
  188.2690  177.1980  142.1990 N   0  0  0  0  0  2  0  0  0  0  0  0
  186.4800  178.0630  146.7120 C   0  0  0  0  0  3  0  0  0  0  0  0
  187.8570  177.6630  148.6510 O   0  0  0  0  0  1  0  0  0  0  0  0
  185.1980  179.1460  143.3860 C   0  0  0  0  0  2  0  0  0  0  0  0
  188.6380  177.4050  145.0550 C   0  0  0  0  0  3  0  0  0  0  0  0
  190.5080  177.2640  139.4220 C   0  0  0  0  0  0  0  0  0  0  0  0
  188.7850  177.3710  146.4440 C   0  0  0  0  0  3  0  0  0  0  0  0
  191.8160  176.6690  139.0400 C   0  0  0  0  0  1  0  0  0  0  0  0
  187.4120  177.7740  144.4830 C   0  0  0  0  0  0  0  0  0  0  0  0
  185.8000  178.1430  141.0480 C   0  0  1  0  0  3  0  0  0  0  0  0
  187.7080  177.7000  147.2720 C   0  0  0  0  0  0  0  0  0  0  0  0
  186.3310  178.1110  145.3230 C   0  0  0  0  0  0  0  0  0  0  0  0
  188.0400  178.3610  140.0880 C   0  0  0  0  0  0  0  0  0  0  0  0
  187.2430  177.8080  143.0070 C   0  0  0  0  0  0  0  0  0  0  0  0
  189.8730  176.8580  140.5940 C   0  0  0  0  0  3  0  0  0  0  0  0
  184.9990  178.4410  144.7250 C   0  0  0  0  0  2  0  0  0  0  0  0
  189.9640  178.2470  138.6610 N   0  0  0  0  0  0  0  0  0  0  0  0
  188.7560  178.7880  138.9640 C   0  0  0  0  0  3  0  0  0  0  0  0
  188.6550  177.4290  140.9730 C   0  0  0  0  0  0  0  0  0  0  0  0
  181.8580  179.3810  139.8490 C   0  0  0  0  0  3  0  0  0  0  0  0
  184.4190  178.5770  140.6520 C   0  0  0  0  0  0  0  0  0  0  0  0
  184.2670  179.5100  139.6210 C   0  0  0  0  0  3  0  0  0  0  0  0
  182.9890  179.9130  139.2210 C   0  0  0  0  0  3  0  0  0  0  0  0
  182.0050  178.4440  140.8750 C   0  0  0  0  0  3  0  0  0  0  0  0
  183.2820  178.0400  141.2760 C   0  0  0  0  0  3  0  0  0  0  0  0
  1 12  1  0  0  0  0
  2 16  2  0  0  0  0
  2  6  1  0  0  0  0
  3 16  1  0  0  0  0
  4 13  1  0  0  0  0
  6 18  1  0  0  0  0
  7  9  1  0  0  0  0
  8 17  1  0  0  0  0
  9 13  2  0  0  0  0
 10  8  1  0  0  0  0
 11  7  2  0  0  0  0
 11 14  1  0  0  0  0
 12 23  1  6  0  0  0
 12  2  1  0  0  0  0
 13  5  1  0  0  0  0
 14  4  2  0  0  0  0
 15  1  1  0  0  0  0
 15 21  1  0  0  0  0
 16 11  1  0  0  0  0
 17 21  2  0  0  0  0
 18 14  1  0  0  0  0
 19 20  1  0  0  0  0
 19  8  2  0  0  0  0
 20 15  2  0  0  0  0
 21  3  1  0  0  0  0
 22 26  1  0  0  0  0
 23 27  1  0  0  0  0
 24 23  2  0  0  0  0
 25 24  1  0  0  0  0
 25 22  2  0  0  0  0
 26 27  2  0  0  0  0
M  END
>  <MODEL>
5

>  <REMARK>
 VINA RESULT:     -10.7      2.168      5.739
  Name = 
  1 active torsions:
  status: ('A' for Active; 'I' for Inactive)
    1  A    between atoms: C_9  and  C_15
                            x       y       z     vdW  Elec       q    Type
                         _______ _______ _______ _____ _____    ______ ____

>  <TORSDO>
F 1

$$$$
=
 OpenBabel10272401053D

 27 31  0  0  1  0  0  0  0  0999 V2000
  187.7440  178.1870  145.3440 N   0  0  0  0  0  2  0  0  0  0  0  0
  189.0300  177.6410  143.3430 C   0  0  0  0  0  0  0  0  0  0  0  0
  186.6770  177.6510  142.6590 N   0  0  0  0  0  2  0  0  0  0  0  0
  190.2660  177.7180  139.2790 C   0  0  0  0  0  3  0  0  0  0  0  0
  189.7320  178.1210  136.9610 O   0  0  0  0  0  1  0  0  0  0  0  0
  190.4800  177.9010  142.9940 C   0  0  0  0  0  2  0  0  0  0  0  0
  187.5820  178.1280  139.9600 C   0  0  0  0  0  3  0  0  0  0  0  0
  183.8050  178.6870  144.5060 C   0  0  0  0  0  0  0  0  0  0  0  0
  187.9900  178.2280  138.6270 C   0  0  0  0  0  3  0  0  0  0  0  0
  182.3360  178.7880  144.3020 C   0  0  0  0  0  1  0  0  0  0  0  0
  188.5140  177.8290  140.9640 C   0  0  0  0  0  0  0  0  0  0  0  0
  188.6420  177.2240  144.7260 C   0  0  1  0  0  3  0  0  0  0  0  0
  189.3300  178.0240  138.2860 C   0  0  0  0  0  0  0  0  0  0  0  0
  189.8660  177.6310  140.6150 C   0  0  0  0  0  0  0  0  0  0  0  0
  186.5450  178.4670  144.9350 C   0  0  0  0  0  0  0  0  0  0  0  0
  188.0900  177.7160  142.3830 C   0  0  0  0  0  0  0  0  0  0  0  0
  184.6000  178.0700  143.5420 C   0  0  0  0  0  3  0  0  0  0  0  0
  190.8560  177.2440  141.6680 C   0  0  0  0  0  2  0  0  0  0  0  0
  184.3770  179.2460  145.6010 N   0  0  0  0  0  0  0  0  0  0  0  0
  185.7110  179.1420  145.8330 C   0  0  0  0  0  3  0  0  0  0  0  0
  185.9860  177.9910  143.7140 C   0  0  0  0  0  0  0  0  0  0  0  0
  191.9100  176.3120  147.3710 C   0  0  0  0  0  3  0  0  0  0  0  0
  189.7970  176.9130  145.6320 C   0  0  0  0  0  0  0  0  0  0  0  0
  189.7270  177.2880  146.9780 C   0  0  0  0  0  3  0  0  0  0  0  0
  190.7830  176.9900  147.8460 C   0  0  0  0  0  3  0  0  0  0  0  0
  191.9810  175.9300  146.0280 C   0  0  0  0  0  3  0  0  0  0  0  0
  190.9270  176.2280  145.1590 C   0  0  0  0  0  3  0  0  0  0  0  0
  2 12  1  0  0  0  0
  3 21  1  0  0  0  0
  4 14  1  0  0  0  0
  5 13  1  0  0  0  0
  6  2  1  0  0  0  0
  7 11  1  0  0  0  0
  8 19  1  0  0  0  0
  9  7  2  0  0  0  0
 10  8  1  0  0  0  0
 11 16  1  0  0  0  0
 12  1  1  0  0  0  0
 12 23  1  1  0  0  0
 13  9  1  0  0  0  0
 13  4  2  0  0  0  0
 14 11  2  0  0  0  0
 14 18  1  0  0  0  0
 15  1  1  0  0  0  0
 15 20  1  0  0  0  0
 16  3  1  0  0  0  0
 16  2  2  0  0  0  0
 17 21  1  0  0  0  0
 17  8  2  0  0  0  0
 18  6  1  0  0  0  0
 19 20  2  0  0  0  0
 21 15  2  0  0  0  0
 22 25  1  0  0  0  0
 23 24  1  0  0  0  0
 24 25  2  0  0  0  0
 26 22  2  0  0  0  0
 27 23  2  0  0  0  0
 27 26  1  0  0  0  0
M  END
>  <MODEL>
6

>  <REMARK>
 VINA RESULT:     -10.3      2.577      5.595
  Name = 
  1 active torsions:
  status: ('A' for Active; 'I' for Inactive)
    1  A    between atoms: C_9  and  C_15
                            x       y       z     vdW  Elec       q    Type
                         _______ _______ _______ _____ _____    ______ ____

>  <TORSDO>
F 1

$$$$
=
 OpenBabel10272401053D

 27 31  0  0  1  0  0  0  0  0999 V2000
  190.1970  176.5980  143.1460 N   0  0  0  0  0  2  0  0  0  0  0  0
  188.3190  177.4160  144.4730 C   0  0  0  0  0  0  0  0  0  0  0  0
  188.0280  178.3550  142.2280 N   0  0  0  0  0  2  0  0  0  0  0  0
  184.3200  178.4390  145.4780 C   0  0  0  0  0  3  0  0  0  0  0  0
  182.1060  179.0760  144.7640 O   0  0  0  0  0  1  0  0  0  0  0  0
  187.6930  176.8790  145.7420 C   0  0  0  0  0  2  0  0  0  0  0  0
  185.2190  178.6330  142.8340 C   0  0  0  0  0  3  0  0  0  0  0  0
  189.8360  177.6330  139.2380 C   0  0  0  0  0  0  0  0  0  0  0  0
  183.8820  178.9020  143.1410 C   0  0  0  0  0  3  0  0  0  0  0  0
  189.8310  178.0540  137.8130 C   0  0  0  0  0  1  0  0  0  0  0  0
  186.1150  178.2580  143.8450 C   0  0  0  0  0  0  0  0  0  0  0  0
  189.8040  177.4040  144.2910 C   0  0  1  0  0  3  0  0  0  0  0  0
  183.4330  178.8050  144.4610 C   0  0  0  0  0  0  0  0  0  0  0  0
  185.6540  178.1560  145.1730 C   0  0  0  0  0  0  0  0  0  0  0  0
  189.9020  176.8550  141.9080 C   0  0  0  0  0  0  0  0  0  0  0  0
  187.5390  177.9750  143.5300 C   0  0  0  0  0  0  0  0  0  0  0  0
  189.0220  178.2870  140.1610 C   0  0  0  0  0  3  0  0  0  0  0  0
  186.6170  177.8240  146.2700 C   0  0  0  0  0  2  0  0  0  0  0  0
  190.5880  176.5730  139.6290 N   0  0  0  0  0  0  0  0  0  0  0  0
  190.6410  176.1840  140.9290 C   0  0  0  0  0  3  0  0  0  0  0  0
  189.0020  177.8820  141.4990 C   0  0  0  0  0  0  0  0  0  0  0  0
  192.0850  176.2710  147.7580 C   0  0  0  0  0  3  0  0  0  0  0  0
  190.5800  177.0080  145.5130 C   0  0  0  0  0  0  0  0  0  0  0  0
  191.5630  176.0190  145.4060 C   0  0  0  0  0  3  0  0  0  0  0  0
  192.3130  175.6490  146.5270 C   0  0  0  0  0  3  0  0  0  0  0  0
  191.1080  177.2650  147.8690 C   0  0  0  0  0  3  0  0  0  0  0  0
  190.3570  177.6350  146.7490 C   0  0  0  0  0  3  0  0  0  0  0  0
  1 12  1  0  0  0  0
  2  6  1  0  0  0  0
  3 16  1  0  0  0  0
  6 18  1  0  0  0  0
  7  9  2  0  0  0  0
  7 11  1  0  0  0  0
  8 19  2  0  0  0  0
  8 17  1  0  0  0  0
  9 13  1  0  0  0  0
 10  8  1  0  0  0  0
 11 14  2  0  0  0  0
 12  2  1  0  0  0  0
 12 23  1  1  0  0  0
 13  5  1  0  0  0  0
 13  4  2  0  0  0  0
 14  4  1  0  0  0  0
 14 18  1  0  0  0  0
 15  1  1  0  0  0  0
 16 11  1  0  0  0  0
 16  2  2  0  0  0  0
 17 21  2  0  0  0  0
 19 20  1  0  0  0  0
 20 15  2  0  0  0  0
 21 15  1  0  0  0  0
 21  3  1  0  0  0  0
 22 26  1  0  0  0  0
 23 27  1  0  0  0  0
 24 23  2  0  0  0  0
 24 25  1  0  0  0  0
 25 22  2  0  0  0  0
 27 26  2  0  0  0  0
M  END
>  <MODEL>
7

>  <REMARK>
 VINA RESULT:     -10.2      0.886      1.033
  Name = 
  1 active torsions:
  status: ('A' for Active; 'I' for Inactive)
    1  A    between atoms: C_9  and  C_15
                            x       y       z     vdW  Elec       q    Type
                         _______ _______ _______ _____ _____    ______ ____

>  <TORSDO>
F 1

$$$$
=
 OpenBabel10272401053D

 27 31  0  0  1  0  0  0  0  0999 V2000
  190.0400  177.9490  142.2760 N   0  0  0  0  0  2  0  0  0  0  0  0
  187.6260  178.0410  141.9350 C   0  0  0  0  0  0  0  0  0  0  0  0
  187.9600  177.2390  144.2260 N   0  0  0  0  0  2  0  0  0  0  0  0
  183.5320  178.8300  142.7510 C   0  0  0  0  0  3  0  0  0  0  0  0
  181.7710  179.1620  144.3660 O   0  0  0  0  0  1  0  0  0  0  0  0
  186.7930  178.8330  140.9500 C   0  0  0  0  0  2  0  0  0  0  0  0
  185.3010  178.1900  144.8240 C   0  0  0  0  0  3  0  0  0  0  0  0
  190.9790  177.0350  146.1170 C   0  0  0  0  0  0  0  0  0  0  0  0
  183.9730  178.5180  145.1120 C   0  0  0  0  0  3  0  0  0  0  0  0
  191.4070  176.6090  147.4750 C   0  0  0  0  0  1  0  0  0  0  0  0
  185.7560  178.1850  143.4980 C   0  0  0  0  0  0  0  0  0  0  0  0
  188.9200  177.4210  141.5130 C   0  0  1  0  0  3  0  0  0  0  0  0
  183.0900  178.8390  144.0780 C   0  0  0  0  0  0  0  0  0  0  0  0
  184.8620  178.5150  142.4590 C   0  0  0  0  0  0  0  0  0  0  0  0
  190.2180  177.7990  143.5530 C   0  0  0  0  0  0  0  0  0  0  0  0
  187.1640  177.8320  143.1810 C   0  0  0  0  0  0  0  0  0  0  0  0
  189.6680  176.8150  145.6990 C   0  0  0  0  0  3  0  0  0  0  0  0
  185.3190  178.4470  141.0360 C   0  0  0  0  0  2  0  0  0  0  0  0
  191.8480  177.6920  145.3080 N   0  0  0  0  0  0  0  0  0  0  0  0
  191.4980  178.0650  144.0500 C   0  0  0  0  0  3  0  0  0  0  0  0
  189.2500  177.2340  144.4330 C   0  0  0  0  0  0  0  0  0  0  0  0
  189.6860  177.5670  137.2820 C   0  0  0  0  0  3  0  0  0  0  0  0
  189.1970  177.4930  140.0400 C   0  0  0  0  0  0  0  0  0  0  0  0
  189.7350  176.3760  139.3920 C   0  0  0  0  0  3  0  0  0  0  0  0
  189.9810  176.4140  138.0150 C   0  0  0  0  0  3  0  0  0  0  0  0
  189.1420  178.6840  137.9250 C   0  0  0  0  0  3  0  0  0  0  0  0
  188.8960  178.6480  139.3000 C   0  0  0  0  0  3  0  0  0  0  0  0
  1 15  1  0  0  0  0
  2 16  2  0  0  0  0
  3 21  1  0  0  0  0
  4 13  1  0  0  0  0
  6 18  1  0  0  0  0
  6  2  1  0  0  0  0
  7  9  1  0  0  0  0
  8 10  1  0  0  0  0
 11  7  2  0  0  0  0
 12 23  1  6  0  0  0
 12  2  1  0  0  0  0
 12  1  1  0  0  0  0
 13  5  1  0  0  0  0
 13  9  2  0  0  0  0
 14  4  2  0  0  0  0
 14 11  1  0  0  0  0
 15 20  2  0  0  0  0
 15 21  1  0  0  0  0
 16 11  1  0  0  0  0
 16  3  1  0  0  0  0
 17  8  1  0  0  0  0
 18 14  1  0  0  0  0
 19  8  2  0  0  0  0
 20 19  1  0  0  0  0
 21 17  2  0  0  0  0
 22 26  2  0  0  0  0
 22 25  1  0  0  0  0
 24 23  1  0  0  0  0
 25 24  2  0  0  0  0
 26 27  1  0  0  0  0
 27 23  2  0  0  0  0
M  END
>  <MODEL>
8

>  <REMARK>
 VINA RESULT:     -10.0      1.273      5.265
  Name = 
  1 active torsions:
  status: ('A' for Active; 'I' for Inactive)
    1  A    between atoms: C_9  and  C_15
                            x       y       z     vdW  Elec       q    Type
                         _______ _______ _______ _____ _____    ______ ____

>  <TORSDO>
F 1

$$$$
=
 OpenBabel10272401053D

 27 31  0  0  1  0  0  0  0  0999 V2000
  186.1580  178.7530  144.8440 N   0  0  0  0  0  2  0  0  0  0  0  0
  188.1390  177.9170  143.6900 C   0  0  0  0  0  0  0  0  0  0  0  0
  186.2670  177.6140  142.1380 N   0  0  0  0  0  2  0  0  0  0  0  0
  190.9220  177.2730  140.5450 C   0  0  0  0  0  3  0  0  0  0  0  0
  191.3810  177.1640  138.1800 O   0  0  0  0  0  1  0  0  0  0  0  0
  189.6080  178.2100  143.9040 C   0  0  0  0  0  2  0  0  0  0  0  0
  188.1980  177.6090  139.9920 C   0  0  0  0  0  3  0  0  0  0  0  0
  182.9060  178.7800  142.4160 C   0  0  0  0  0  0  0  0  0  0  0  0
  189.1140  177.4710  138.9450 C   0  0  0  0  0  3  0  0  0  0  0  0
  181.6490  178.7290  141.6250 C   0  0  0  0  0  1  0  0  0  0  0  0
  188.6370  177.5870  141.3230 C   0  0  0  0  0  0  0  0  0  0  0  0
  187.2160  177.7560  144.8570 C   0  0  1  0  0  3  0  0  0  0  0  0
  190.4740  177.3040  139.2210 C   0  0  0  0  0  0  0  0  0  0  0  0
  190.0110  177.4250  141.5950 C   0  0  0  0  0  0  0  0  0  0  0  0
  185.2320  178.8560  143.9400 C   0  0  0  0  0  0  0  0  0  0  0  0
  187.6710  177.7280  142.4430 C   0  0  0  0  0  0  0  0  0  0  0  0
  184.0170  178.0450  142.0060 C   0  0  0  0  0  3  0  0  0  0  0  0
  190.4820  177.3310  143.0120 C   0  0  0  0  0  2  0  0  0  0  0  0
  182.9920  179.5890  143.5020 N   0  0  0  0  0  0  0  0  0  0  0  0
  184.1150  179.6330  144.2640 C   0  0  0  0  0  3  0  0  0  0  0  0
  185.2110  178.1050  142.7290 C   0  0  0  0  0  0  0  0  0  0  0  0
  189.2310  177.6700  148.6570 C   0  0  0  0  0  3  0  0  0  0  0  0
  187.8990  177.7200  146.1930 C   0  0  0  0  0  0  0  0  0  0  0  0
  189.1300  177.0660  146.3130 C   0  0  0  0  0  3  0  0  0  0  0  0
  189.7940  177.0390  147.5430 C   0  0  0  0  0  3  0  0  0  0  0  0
  188.0040  178.3300  148.5410 C   0  0  0  0  0  3  0  0  0  0  0  0
  187.3390  178.3580  147.3110 C   0  0  0  0  0  3  0  0  0  0  0  0
  1 12  1  0  0  0  0
  2  6  1  0  0  0  0
  2 12  1  0  0  0  0
  3 16  1  0  0  0  0
  3 21  1  0  0  0  0
  4 14  1  0  0  0  0
  5 13  1  0  0  0  0
  7 11  1  0  0  0  0
  8 19  1  0  0  0  0
  9 13  1  0  0  0  0
  9  7  2  0  0  0  0
 10  8  1  0  0  0  0
 11 14  2  0  0  0  0
 11 16  1  0  0  0  0
 12 23  1  1  0  0  0
 13  4  2  0  0  0  0
 14 18  1  0  0  0  0
 15 20  1  0  0  0  0
 15  1  1  0  0  0  0
 16  2  2  0  0  0  0
 17  8  2  0  0  0  0
 17 21  1  0  0  0  0
 18  6  1  0  0  0  0
 19 20  2  0  0  0  0
 21 15  2  0  0  0  0
 23 24  2  0  0  0  0
 23 27  1  0  0  0  0
 24 25  1  0  0  0  0
 25 22  2  0  0  0  0
 26 22  1  0  0  0  0
 27 26  2  0  0  0  0
M  END
>  <MODEL>
9

>  <REMARK>
 VINA RESULT:      -9.5      2.771      5.617
  Name = 
  1 active torsions:
  status: ('A' for Active; 'I' for Inactive)
    1  A    between atoms: C_9  and  C_15
                            x       y       z     vdW  Elec       q    Type
                         _______ _______ _______ _____ _____    ______ ____

>  <TORSDO>
F 1

$$$$
