=
 OpenBabel10272401153D

 27 30  0  0  1  0  0  0  0  0999 V2000
  184.7630  178.9720  141.0750 C   0  0  2  0  0  3  0  0  0  0  0  0
  186.0810  179.1290  140.5750 O   0  0  0  0  0  0  0  0  0  0  0  0
  186.2860  178.9040  142.7180 C   0  0  2  0  0  3  0  0  0  0  0  0
  184.6830  179.1870  144.9200 C   0  0  1  0  0  3  0  0  0  0  0  0
  183.7560  179.0850  145.9590 O   0  0  0  0  0  1  0  0  0  0  0  0
  184.8910  178.5010  142.4850 C   0  0  1  0  0  3  0  0  0  0  0  0
  186.9240  178.6640  141.5020 O   0  0  0  0  0  0  0  0  0  0  0  0
  185.7900  178.1190  145.0790 C   0  0  0  0  0  2  0  0  0  0  0  0
  182.7790  178.4670  143.5840 O   0  0  0  0  0  1  0  0  0  0  0  0
  183.9890  179.1620  143.5270 C   0  0  1  0  0  3  0  0  0  0  0  0
  186.8430  178.1610  143.9440 C   0  0  1  0  0  3  0  0  0  0  0  0
  187.2730  176.7350  143.6160 C   0  0  0  0  0  2  0  0  0  0  0  0
  190.2720  178.4960  143.9530 C   0  0  0  0  0  2  0  0  0  0  0  0
  191.4400  177.6150  143.4820 C   0  0  0  0  0  2  0  0  0  0  0  0
  191.0420  176.1630  143.1970 C   0  0  0  0  0  2  0  0  0  0  0  0
  188.7040  176.4820  144.0640 C   0  0  1  0  0  3  0  0  0  0  0  0
  189.5590  176.0430  142.8670 C   0  0  0  0  0  2  0  0  0  0  0  0
  189.2480  177.7200  144.7960 C   0  0  1  0  0  3  0  0  0  0  0  0
  188.8140  177.5010  147.2520 C   0  0  0  0  0  1  0  0  0  0  0  0
  189.8300  177.3060  146.1420 C   0  0  0  0  0  2  0  0  0  0  0  0
  183.9630  177.9870  140.2200 C   0  0  0  0  0  2  0  0  0  0  0  0
  180.1970  179.5220  138.9210 C   0  0  0  0  0  3  0  0  0  0  0  0
  182.6490  178.5430  139.7710 C   0  0  0  0  0  0  0  0  0  0  0  0
  182.6090  179.5290  138.7820 C   0  0  0  0  0  3  0  0  0  0  0  0
  181.3730  180.0210  138.3600 C   0  0  0  0  0  3  0  0  0  0  0  0
  180.2770  178.5320  139.9020 C   0  0  0  0  0  3  0  0  0  0  0  0
  181.4890  178.0670  140.3030 N   0  0  0  0  0  0  0  0  0  0  0  0
  1 21  1  6  0  0  0
  1  6  1  0  0  0  0
  2  1  1  0  0  0  0
  2  7  1  0  0  0  0
  3  7  1  6  0  0  0
  3 11  1  0  0  0  0
  4  8  1  0  0  0  0
  4  5  1  1  0  0  0
  6  3  1  0  0  0  0
  6 10  1  0  0  0  0
 10  9  1  0  0  0  0
 10  4  1  0  0  0  0
 11  8  1  0  0  0  0
 12 11  1  0  0  0  0
 12 16  1  0  0  0  0
 13 18  1  0  0  0  0
 14 13  1  0  0  0  0
 15 14  1  0  0  0  0
 16 18  1  0  0  0  0
 17 15  1  0  0  0  0
 17 16  1  0  0  0  0
 18 20  1  0  0  0  0
 20 19  1  0  0  0  0
 22 26  1  0  0  0  0
 23 21  1  0  0  0  0
 23 27  1  0  0  0  0
 24 23  2  0  0  0  0
 25 24  1  0  0  0  0
 25 22  2  0  0  0  0
 26 27  2  0  0  0  0
M  END
>  <MODEL>
1

>  <REMARK>
 VINA RESULT:      -8.5      0.000      0.000
  Name = 
  5 active torsions:
  status: ('A' for Active; 'I' for Inactive)
    1  A    between atoms: C_1  and  C_15
    2  A    between atoms: C_9  and  C_15
    3  A    between atoms: C_12  and  C_14
    4  A    between atoms: C_12  and  C_26
    5  A    between atoms: C_17  and  C_21
                            x       y       z     vdW  Elec       q    Type
                         _______ _______ _______ _____ _____    ______ ____

>  <TORSDO>
F 5

$$$$
=
 OpenBabel10272401153D

 27 30  0  0  1  0  0  0  0  0999 V2000
  190.1000  176.3460  143.0500 C   0  0  2  0  0  3  0  0  0  0  0  0
  188.8430  175.8600  142.6110 O   0  0  0  0  0  0  0  0  0  0  0  0
  188.5670  176.4240  144.6830 C   0  0  2  0  0  3  0  0  0  0  0  0
  190.1630  176.8430  146.8690 C   0  0  1  0  0  3  0  0  0  0  0  0
  191.0390  177.3000  147.8550 O   0  0  0  0  0  1  0  0  0  0  0  0
  189.8670  177.0310  144.3540 C   0  0  1  0  0  3  0  0  0  0  0  0
  187.9140  176.3200  143.4560 O   0  0  0  0  0  0  0  0  0  0  0  0
  188.8750  177.6980  146.8550 C   0  0  0  0  0  2  0  0  0  0  0  0
  191.9190  177.6520  145.3890 O   0  0  0  0  0  1  0  0  0  0  0  0
  190.8610  176.7460  145.4810 C   0  0  1  0  0  3  0  0  0  0  0  0
  187.8650  177.2590  145.7670 C   0  0  1  0  0  3  0  0  0  0  0  0
  187.1820  178.4980  145.1960 C   0  0  0  0  0  2  0  0  0  0  0  0
  184.5100  180.0880  143.6030 C   0  0  0  0  0  2  0  0  0  0  0  0
  183.1920  179.6870  144.2850 C   0  0  0  0  0  2  0  0  0  0  0  0
  183.3500  178.5640  145.3160 C   0  0  0  0  0  2  0  0  0  0  0  0
  185.7670  178.1780  144.7420 C   0  0  1  0  0  3  0  0  0  0  0  0
  184.7700  178.5010  145.8640 C   0  0  0  0  0  2  0  0  0  0  0  0
  185.4670  178.9000  143.4180 C   0  0  1  0  0  3  0  0  0  0  0  0
  184.7310  178.5640  141.0490 C   0  0  0  0  0  1  0  0  0  0  0  0
  184.9310  177.9020  142.4000 C   0  0  0  0  0  2  0  0  0  0  0  0
  190.7160  177.2920  142.0170 C   0  0  0  0  0  2  0  0  0  0  0  0
  188.7940  177.1370  138.2070 C   0  0  0  0  0  3  0  0  0  0  0  0
  190.0260  177.2330  140.6910 C   0  0  0  0  0  0  0  0  0  0  0  0
  188.9230  178.0540  140.4400 C   0  0  0  0  0  3  0  0  0  0  0  0
  188.3050  178.0000  139.1890 C   0  0  0  0  0  3  0  0  0  0  0  0
  189.9020  176.3370  138.4940 C   0  0  0  0  0  3  0  0  0  0  0  0
  190.4900  176.4000  139.7180 N   0  0  0  0  0  0  0  0  0  0  0  0
  1 21  1  6  0  0  0
  1  6  1  0  0  0  0
  2  1  1  0  0  0  0
  2  7  1  0  0  0  0
  3  7  1  6  0  0  0
  3 11  1  0  0  0  0
  4  5  1  1  0  0  0
  6  3  1  0  0  0  0
  6 10  1  0  0  0  0
  8  4  1  0  0  0  0
  9 10  1  0  0  0  0
 10  4  1  0  0  0  0
 11  8  1  0  0  0  0
 12 11  1  0  0  0  0
 13 14  1  0  0  0  0
 14 15  1  0  0  0  0
 15 17  1  0  0  0  0
 16 12  1  0  0  0  0
 16 17  1  0  0  0  0
 18 13  1  0  0  0  0
 18 16  1  0  0  0  0
 19 20  1  0  0  0  0
 20 18  1  0  0  0  0
 22 26  2  0  0  0  0
 22 25  1  0  0  0  0
 23 21  1  0  0  0  0
 24 23  1  0  0  0  0
 25 24  2  0  0  0  0
 26 27  1  0  0  0  0
 27 23  2  0  0  0  0
M  END
>  <MODEL>
2

>  <REMARK>
 VINA RESULT:      -7.9      3.358      6.646
  Name = 
  5 active torsions:
  status: ('A' for Active; 'I' for Inactive)
    1  A    between atoms: C_1  and  C_15
    2  A    between atoms: C_9  and  C_15
    3  A    between atoms: C_12  and  C_14
    4  A    between atoms: C_12  and  C_26
    5  A    between atoms: C_17  and  C_21
                            x       y       z     vdW  Elec       q    Type
                         _______ _______ _______ _____ _____    ______ ____

>  <TORSDO>
F 5

$$$$
=
 OpenBabel10272401153D

 27 30  0  0  1  0  0  0  0  0999 V2000
  186.9020  178.6390  139.4000 C   0  0  2  0  0  3  0  0  0  0  0  0
  188.3000  178.7610  139.6010 O   0  0  0  0  0  0  0  0  0  0  0  0
  187.4220  178.7060  141.5790 C   0  0  2  0  0  3  0  0  0  0  0  0
  184.9570  179.1550  142.6850 C   0  0  1  0  0  3  0  0  0  0  0  0
  183.6370  179.1320  143.1390 O   0  0  0  0  0  1  0  0  0  0  0  0
  186.3060  178.2800  140.7200 C   0  0  1  0  0  3  0  0  0  0  0  0
  188.5650  178.3740  140.8530 O   0  0  0  0  0  0  0  0  0  0  0  0
  185.8060  178.1080  143.4410 C   0  0  0  0  0  2  0  0  0  0  0  0
  183.9270  178.3250  140.6400 O   0  0  0  0  0  1  0  0  0  0  0  0
  185.0340  179.0180  141.1360 C   0  0  1  0  0  3  0  0  0  0  0  0
  187.2800  178.0640  142.9690 C   0  0  1  0  0  3  0  0  0  0  0  0
  187.7660  176.6190  142.9960 C   0  0  0  0  0  2  0  0  0  0  0  0
  190.4800  178.5690  144.0150 C   0  0  0  0  0  2  0  0  0  0  0  0
  191.7640  177.7260  143.9690 C   0  0  0  0  0  2  0  0  0  0  0  0
  191.5150  176.2360  143.7070 C   0  0  0  0  0  2  0  0  0  0  0  0
  189.0170  176.4810  143.8490 C   0  0  1  0  0  3  0  0  0  0  0  0
  190.1930  176.0080  142.9840 C   0  0  0  0  0  2  0  0  0  0  0  0
  189.2860  177.7970  144.5970 C   0  0  1  0  0  3  0  0  0  0  0  0
  188.1560  177.6380  146.8260 C   0  0  0  0  0  1  0  0  0  0  0  0
  189.4730  177.5130  146.0830 C   0  0  0  0  0  2  0  0  0  0  0  0
  186.5890  177.5870  138.3340 C   0  0  0  0  0  2  0  0  0  0  0  0
  190.0180  176.5920  135.9930 C   0  0  0  0  0  3  0  0  0  0  0  0
  187.7790  177.2350  137.4980 C   0  0  0  0  0  0  0  0  0  0  0  0
  188.0880  177.9970  136.3680 C   0  0  0  0  0  3  0  0  0  0  0  0
  189.2140  177.6680  135.6120 C   0  0  0  0  0  3  0  0  0  0  0  0
  189.6810  175.8580  137.1320 C   0  0  0  0  0  3  0  0  0  0  0  0
  188.5790  176.1910  137.8540 N   0  0  0  0  0  0  0  0  0  0  0  0
  1 21  1  6  0  0  0
  1  2  1  0  0  0  0
  1  6  1  0  0  0  0
  2  7  1  0  0  0  0
  3  7  1  6  0  0  0
  3 11  1  0  0  0  0
  4  5  1  1  0  0  0
  4  8  1  0  0  0  0
  6 10  1  0  0  0  0
  6  3  1  0  0  0  0
  9 10  1  0  0  0  0
 10  4  1  0  0  0  0
 11 12  1  0  0  0  0
 11  8  1  0  0  0  0
 12 16  1  0  0  0  0
 13 18  1  0  0  0  0
 14 13  1  0  0  0  0
 15 14  1  0  0  0  0
 16 18  1  0  0  0  0
 17 15  1  0  0  0  0
 17 16  1  0  0  0  0
 18 20  1  0  0  0  0
 20 19  1  0  0  0  0
 22 26  1  0  0  0  0
 23 27  1  0  0  0  0
 23 21  1  0  0  0  0
 24 23  2  0  0  0  0
 25 22  2  0  0  0  0
 25 24  1  0  0  0  0
 26 27  2  0  0  0  0
M  END
>  <MODEL>
3

>  <REMARK>
 VINA RESULT:      -7.7      3.271      4.279
  Name = 
  5 active torsions:
  status: ('A' for Active; 'I' for Inactive)
    1  A    between atoms: C_1  and  C_15
    2  A    between atoms: C_9  and  C_15
    3  A    between atoms: C_12  and  C_14
    4  A    between atoms: C_12  and  C_26
    5  A    between atoms: C_17  and  C_21
                            x       y       z     vdW  Elec       q    Type
                         _______ _______ _______ _____ _____    ______ ____

>  <TORSDO>
F 5

$$$$
=
 OpenBabel10272401153D

 27 30  0  0  1  0  0  0  0  0999 V2000
  185.1470  179.0210  140.8410 C   0  0  2  0  0  3  0  0  0  0  0  0
  186.5100  179.1610  140.4760 O   0  0  0  0  0  0  0  0  0  0  0  0
  186.4970  178.9070  142.6260 C   0  0  2  0  0  3  0  0  0  0  0  0
  184.6880  179.1920  144.6620 C   0  0  1  0  0  3  0  0  0  0  0  0
  183.6610  179.0940  145.6020 O   0  0  0  0  0  1  0  0  0  0  0  0
  185.1260  178.5310  142.2500 C   0  0  1  0  0  3  0  0  0  0  0  0
  187.2490  178.6710  141.4770 O   0  0  0  0  0  0  0  0  0  0  0  0
  185.7560  178.1040  144.9150 C   0  0  0  0  0  2  0  0  0  0  0  0
  182.9150  178.5210  143.1330 O   0  0  0  0  0  1  0  0  0  0  0  0
  184.1350  179.1950  143.2060 C   0  0  1  0  0  3  0  0  0  0  0  0
  186.9170  178.1400  143.8920 C   0  0  1  0  0  3  0  0  0  0  0  0
  187.3550  176.7110  143.5880 C   0  0  0  0  0  2  0  0  0  0  0  0
  190.2550  178.5170  144.3180 C   0  0  0  0  0  2  0  0  0  0  0  0
  191.4850  177.7340  143.8290 C   0  0  0  0  0  2  0  0  0  0  0  0
  191.1620  176.3120  143.3570 C   0  0  0  0  0  2  0  0  0  0  0  0
  188.7640  176.4540  144.0990 C   0  0  1  0  0  3  0  0  0  0  0  0
  189.7080  176.1830  142.9190 C   0  0  0  0  0  2  0  0  0  0  0  0
  189.2130  177.6170  144.9990 C   0  0  1  0  0  3  0  0  0  0  0  0
  188.9890  177.7020  147.4910 C   0  0  0  0  0  1  0  0  0  0  0  0
  189.7260  177.0700  146.3250 C   0  0  0  0  0  2  0  0  0  0  0  0
  184.4200  178.0600  139.8980 C   0  0  0  0  0  2  0  0  0  0  0  0
  186.3770  177.6750  136.1220 C   0  0  0  0  0  3  0  0  0  0  0  0
  185.1120  177.9070  138.5800 C   0  0  0  0  0  0  0  0  0  0  0  0
  184.7220  176.8930  137.7010 C   0  0  0  0  0  3  0  0  0  0  0  0
  185.3640  176.7790  136.4670 C   0  0  0  0  0  3  0  0  0  0  0  0
  186.7340  178.6790  137.0250 C   0  0  0  0  0  3  0  0  0  0  0  0
  186.1010  178.7740  138.2230 N   0  0  0  0  0  0  0  0  0  0  0  0
  1 21  1  6  0  0  0
  1  6  1  0  0  0  0
  2  1  1  0  0  0  0
  2  7  1  0  0  0  0
  3  7  1  6  0  0  0
  3 11  1  0  0  0  0
  4  8  1  0  0  0  0
  4  5  1  1  0  0  0
  6  3  1  0  0  0  0
  6 10  1  0  0  0  0
  9 10  1  0  0  0  0
 10  4  1  0  0  0  0
 11  8  1  0  0  0  0
 12 11  1  0  0  0  0
 12 16  1  0  0  0  0
 13 18  1  0  0  0  0
 14 13  1  0  0  0  0
 15 14  1  0  0  0  0
 16 18  1  0  0  0  0
 17 15  1  0  0  0  0
 17 16  1  0  0  0  0
 18 20  1  0  0  0  0
 20 19  1  0  0  0  0
 22 25  2  0  0  0  0
 22 26  1  0  0  0  0
 23 21  1  0  0  0  0
 24 23  2  0  0  0  0
 25 24  1  0  0  0  0
 26 27  2  0  0  0  0
 27 23  1  0  0  0  0
M  END
>  <MODEL>
4

>  <REMARK>
 VINA RESULT:      -7.5      1.916      2.570
  Name = 
  5 active torsions:
  status: ('A' for Active; 'I' for Inactive)
    1  A    between atoms: C_1  and  C_15
    2  A    between atoms: C_9  and  C_15
    3  A    between atoms: C_12  and  C_14
    4  A    between atoms: C_12  and  C_26
    5  A    between atoms: C_17  and  C_21
                            x       y       z     vdW  Elec       q    Type
                         _______ _______ _______ _____ _____    ______ ____

>  <TORSDO>
F 5

$$$$
=
 OpenBabel10272401153D

 27 30  0  0  1  0  0  0  0  0999 V2000
  188.3810  177.8710  142.1790 C   0  0  2  0  0  3  0  0  0  0  0  0
  187.3800  178.4480  141.3570 O   0  0  0  0  0  0  0  0  0  0  0  0
  189.0450  178.0130  140.0440 C   0  0  2  0  0  3  0  0  0  0  0  0
  191.7330  177.5570  140.3070 C   0  0  1  0  0  3  0  0  0  0  0  0
  193.0220  177.0710  140.5340 O   0  0  0  0  0  1  0  0  0  0  0  0
  189.3990  177.2750  141.2660 C   0  0  1  0  0  3  0  0  0  0  0  0
  187.6560  178.1170  140.0910 O   0  0  0  0  0  0  0  0  0  0  0  0
  191.0830  176.8240  139.1110 C   0  0  0  0  0  2  0  0  0  0  0  0
  191.3100  176.5200  142.4690 O   0  0  0  0  0  1  0  0  0  0  0  0
  190.8690  177.5220  141.6030 C   0  0  1  0  0  3  0  0  0  0  0  0
  189.6390  177.3000  138.8170 C   0  0  1  0  0  3  0  0  0  0  0  0
  188.8030  176.1030  138.3780 C   0  0  0  0  0  2  0  0  0  0  0  0
  187.3420  178.4240  136.2140 C   0  0  0  0  0  2  0  0  0  0  0  0
  186.3740  177.7020  135.2640 C   0  0  0  0  0  2  0  0  0  0  0  0
  186.4490  176.1730  135.3520 C   0  0  0  0  0  2  0  0  0  0  0  0
  188.4210  176.2150  136.9110 C   0  0  1  0  0  3  0  0  0  0  0  0
  186.9840  175.7160  136.7030 C   0  0  0  0  0  2  0  0  0  0  0  0
  188.6550  177.6530  136.4190 C   0  0  1  0  0  3  0  0  0  0  0  0
  190.3240  176.3610  135.0730 C   0  0  0  0  0  1  0  0  0  0  0  0
  189.4950  177.6300  135.1480 C   0  0  0  0  0  2  0  0  0  0  0  0
  187.7840  176.8230  143.1210 C   0  0  0  0  0  2  0  0  0  0  0  0
  188.3710  177.7290  147.2520 C   0  0  0  0  0  3  0  0  0  0  0  0
  187.9830  177.1590  144.5650 C   0  0  0  0  0  0  0  0  0  0  0  0
  186.8970  177.5690  145.3430 C   0  0  0  0  0  3  0  0  0  0  0  0
  187.0980  177.8580  146.6940 C   0  0  0  0  0  3  0  0  0  0  0  0
  189.4300  177.3100  146.4440 C   0  0  0  0  0  3  0  0  0  0  0  0
  189.2170  177.0360  145.1300 N   0  0  0  0  0  0  0  0  0  0  0  0
  1 21  1  1  0  0  0
  2  1  1  0  0  0  0
  3  7  1  6  0  0  0
  3  6  1  0  0  0  0
  4  5  1  1  0  0  0
  4 10  1  0  0  0  0
  6 10  1  0  0  0  0
  6  1  1  0  0  0  0
  7  2  1  0  0  0  0
  8  4  1  0  0  0  0
 10  9  1  0  0  0  0
 11  8  1  0  0  0  0
 11  3  1  0  0  0  0
 12 11  1  0  0  0  0
 13 18  1  0  0  0  0
 14 15  1  0  0  0  0
 14 13  1  0  0  0  0
 15 17  1  0  0  0  0
 16 12  1  0  0  0  0
 17 16  1  0  0  0  0
 18 16  1  0  0  0  0
 19 20  1  0  0  0  0
 20 18  1  0  0  0  0
 21 23  1  0  0  0  0
 23 27  2  0  0  0  0
 23 24  1  0  0  0  0
 24 25  2  0  0  0  0
 25 22  1  0  0  0  0
 26 22  2  0  0  0  0
 27 26  1  0  0  0  0
M  END
>  <MODEL>
5

>  <REMARK>
 VINA RESULT:      -7.5      4.539      8.165
  Name = 
  5 active torsions:
  status: ('A' for Active; 'I' for Inactive)
    1  A    between atoms: C_1  and  C_15
    2  A    between atoms: C_9  and  C_15
    3  A    between atoms: C_12  and  C_14
    4  A    between atoms: C_12  and  C_26
    5  A    between atoms: C_17  and  C_21
                            x       y       z     vdW  Elec       q    Type
                         _______ _______ _______ _____ _____    ______ ____

>  <TORSDO>
F 5

$$$$
=
 OpenBabel10272401153D

 27 30  0  0  1  0  0  0  0  0999 V2000
  188.4670  177.8460  142.1840 C   0  0  2  0  0  3  0  0  0  0  0  0
  187.4940  178.4320  141.3360 O   0  0  0  0  0  0  0  0  0  0  0  0
  189.2060  178.0240  140.0760 C   0  0  2  0  0  3  0  0  0  0  0  0
  191.8840  177.5740  140.4280 C   0  0  1  0  0  3  0  0  0  0  0  0
  193.1660  177.0880  140.6930 O   0  0  0  0  0  1  0  0  0  0  0  0
  189.5190  177.2680  141.2990 C   0  0  1  0  0  3  0  0  0  0  0  0
  187.8160  178.1230  140.0760 O   0  0  0  0  0  0  0  0  0  0  0  0
  191.2810  176.8570  139.1980 C   0  0  0  0  0  2  0  0  0  0  0  0
  191.3890  176.5000  142.5570 O   0  0  0  0  0  1  0  0  0  0  0  0
  190.9760  177.5140  141.6910 C   0  0  1  0  0  3  0  0  0  0  0  0
  189.8470  177.3330  138.8610 C   0  0  1  0  0  3  0  0  0  0  0  0
  189.0310  176.1400  138.3730 C   0  0  0  0  0  2  0  0  0  0  0  0
  186.2830  175.1310  136.4660 C   0  0  0  0  0  2  0  0  0  0  0  0
  186.7130  174.9480  135.0020 C   0  0  0  0  0  2  0  0  0  0  0  0
  188.1340  175.4430  134.7100 C   0  0  0  0  0  2  0  0  0  0  0  0
  188.4210  176.4200  137.0090 C   0  0  1  0  0  3  0  0  0  0  0  0
  188.9950  175.4490  135.9680 C   0  0  0  0  0  2  0  0  0  0  0  0
  186.8870  176.3900  137.1070 C   0  0  1  0  0  3  0  0  0  0  0  0
  187.3440  178.7710  136.4810 C   0  0  0  0  0  1  0  0  0  0  0  0
  186.3090  177.6610  136.4970 C   0  0  0  0  0  2  0  0  0  0  0  0
  187.8400  176.7810  143.0870 C   0  0  0  0  0  2  0  0  0  0  0  0
  188.1410  177.6960  147.2460 C   0  0  0  0  0  3  0  0  0  0  0  0
  187.9400  177.1200  144.5400 C   0  0  0  0  0  0  0  0  0  0  0  0
  186.8030  177.5320  145.2410 C   0  0  0  0  0  3  0  0  0  0  0  0
  186.9100  177.8240  146.6010 C   0  0  0  0  0  3  0  0  0  0  0  0
  189.2530  177.2760  146.5140 C   0  0  0  0  0  3  0  0  0  0  0  0
  189.1310  176.9990  145.1890 N   0  0  0  0  0  0  0  0  0  0  0  0
  1 21  1  6  0  0  0
  2  1  1  0  0  0  0
  3  7  1  6  0  0  0
  3  6  1  0  0  0  0
  4  5  1  1  0  0  0
  4 10  1  0  0  0  0
  6 10  1  0  0  0  0
  6  1  1  0  0  0  0
  7  2  1  0  0  0  0
  8  4  1  0  0  0  0
 10  9  1  0  0  0  0
 11  8  1  0  0  0  0
 11  3  1  0  0  0  0
 12 11  1  0  0  0  0
 13 18  1  0  0  0  0
 14 13  1  0  0  0  0
 15 14  1  0  0  0  0
 15 17  1  0  0  0  0
 16 18  1  0  0  0  0
 16 12  1  0  0  0  0
 17 16  1  0  0  0  0
 19 20  1  0  0  0  0
 20 18  1  0  0  0  0
 21 23  1  0  0  0  0
 23 27  2  0  0  0  0
 23 24  1  0  0  0  0
 24 25  2  0  0  0  0
 25 22  1  0  0  0  0
 26 22  2  0  0  0  0
 27 26  1  0  0  0  0
M  END
>  <MODEL>
6

>  <REMARK>
 VINA RESULT:      -7.3      4.405      8.096
  Name = 
  5 active torsions:
  status: ('A' for Active; 'I' for Inactive)
    1  A    between atoms: C_1  and  C_15
    2  A    between atoms: C_9  and  C_15
    3  A    between atoms: C_12  and  C_14
    4  A    between atoms: C_12  and  C_26
    5  A    between atoms: C_17  and  C_21
                            x       y       z     vdW  Elec       q    Type
                         _______ _______ _______ _____ _____    ______ ____

>  <TORSDO>
F 5

$$$$
=
 OpenBabel10272401153D

 27 30  0  0  1  0  0  0  0  0999 V2000
  186.8910  177.6240  142.3100 C   0  0  2  0  0  3  0  0  0  0  0  0
  186.7190  176.7670  143.4260 O   0  0  0  0  0  0  0  0  0  0  0  0
  188.7750  176.5120  142.7970 C   0  0  2  0  0  3  0  0  0  0  0  0
  190.2400  176.9610  140.5270 C   0  0  1  0  0  3  0  0  0  0  0  0
  190.9740  177.4600  139.4490 O   0  0  0  0  0  1  0  0  0  0  0  0
  188.3590  177.7130  142.0560 C   0  0  1  0  0  3  0  0  0  0  0  0
  187.9340  176.4810  143.9080 O   0  0  0  0  0  0  0  0  0  0  0  0
  191.0510  177.0920  141.8370 C   0  0  0  0  0  2  0  0  0  0  0  0
  188.8210  178.8760  140.0310 O   0  0  0  0  0  1  0  0  0  0  0  0
  188.8240  177.6030  140.6050 C   0  0  1  0  0  3  0  0  0  0  0  0
  190.2850  176.5760  143.0800 C   0  0  1  0  0  3  0  0  0  0  0  0
  190.6170  177.4680  144.2720 C   0  0  0  0  0  2  0  0  0  0  0  0
  190.9720  178.0300  147.7010 C   0  0  0  0  0  2  0  0  0  0  0  0
  191.7770  176.8820  148.3300 C   0  0  0  0  0  2  0  0  0  0  0  0
  192.0290  175.7100  147.3740 C   0  0  0  0  0  2  0  0  0  0  0  0
  190.5690  176.6790  145.5710 C   0  0  1  0  0  3  0  0  0  0  0  0
  191.9690  176.1530  145.9170 C   0  0  0  0  0  2  0  0  0  0  0  0
  189.9370  177.5370  146.6790 C   0  0  1  0  0  3  0  0  0  0  0  0
  188.0290  177.6510  148.2970 C   0  0  0  0  0  1  0  0  0  0  0  0
  188.8120  176.7590  147.3520 C   0  0  0  0  0  2  0  0  0  0  0  0
  186.2790  179.0020  142.5750 C   0  0  0  0  0  2  0  0  0  0  0  0
  182.4640  178.8300  144.4840 C   0  0  0  0  0  3  0  0  0  0  0  0
  184.9480  178.9250  143.2530 C   0  0  0  0  0  0  0  0  0  0  0  0
  184.8720  178.9370  144.6480 C   0  0  0  0  0  3  0  0  0  0  0  0
  183.6200  178.8860  145.2630 C   0  0  0  0  0  3  0  0  0  0  0  0
  182.5790  178.8260  143.0920 C   0  0  0  0  0  3  0  0  0  0  0  0
  183.8070  178.8730  142.5110 N   0  0  0  0  0  0  0  0  0  0  0  0
  1 21  1  1  0  0  0
  1  2  1  0  0  0  0
  2  7  1  0  0  0  0
  3 11  1  0  0  0  0
  3  7  1  1  0  0  0
  4  5  1  6  0  0  0
  4 10  1  0  0  0  0
  4  8  1  0  0  0  0
  6  1  1  0  0  0  0
  6  3  1  0  0  0  0
  8 11  1  0  0  0  0
  9 10  1  0  0  0  0
 10  6  1  0  0  0  0
 11 12  1  0  0  0  0
 12 16  1  0  0  0  0
 13 14  1  0  0  0  0
 15 14  1  0  0  0  0
 16 17  1  0  0  0  0
 16 18  1  0  0  0  0
 17 15  1  0  0  0  0
 18 20  1  0  0  0  0
 18 13  1  0  0  0  0
 20 19  1  0  0  0  0
 21 23  1  0  0  0  0
 22 25  1  0  0  0  0
 23 24  1  0  0  0  0
 24 25  2  0  0  0  0
 26 22  2  0  0  0  0
 27 26  1  0  0  0  0
 27 23  2  0  0  0  0
M  END
>  <MODEL>
7

>  <REMARK>
 VINA RESULT:      -7.3      2.665      4.846
  Name = 
  5 active torsions:
  status: ('A' for Active; 'I' for Inactive)
    1  A    between atoms: C_1  and  C_15
    2  A    between atoms: C_9  and  C_15
    3  A    between atoms: C_12  and  C_14
    4  A    between atoms: C_12  and  C_26
    5  A    between atoms: C_17  and  C_21
                            x       y       z     vdW  Elec       q    Type
                         _______ _______ _______ _____ _____    ______ ____

>  <TORSDO>
F 5

$$$$
=
 OpenBabel10272401153D

 27 30  0  0  1  0  0  0  0  0999 V2000
  187.2910  177.3840  145.2760 C   0  0  2  0  0  3  0  0  0  0  0  0
  187.8600  176.3820  144.4500 O   0  0  0  0  0  0  0  0  0  0  0  0
  186.2870  177.2930  143.2740 C   0  0  2  0  0  3  0  0  0  0  0  0
  184.0410  178.7850  143.7550 C   0  0  1  0  0  3  0  0  0  0  0  0
  183.0790  179.7550  144.0420 O   0  0  0  0  0  1  0  0  0  0  0  0
  186.4340  178.2330  144.3970 C   0  0  1  0  0  3  0  0  0  0  0  0
  187.5260  176.6620  143.1850 O   0  0  0  0  0  0  0  0  0  0  0  0
  184.7150  179.0800  142.3950 C   0  0  0  0  0  2  0  0  0  0  0  0
  185.1610  179.7920  145.6680 O   0  0  0  0  0  1  0  0  0  0  0  0
  185.0520  178.6140  144.9260 C   0  0  1  0  0  3  0  0  0  0  0  0
  185.8110  178.0520  142.0230 C   0  0  1  0  0  3  0  0  0  0  0  0
  186.9500  178.7760  141.3130 C   0  0  0  0  0  2  0  0  0  0  0  0
  189.0650  179.1890  138.5640 C   0  0  0  0  0  2  0  0  0  0  0  0
  188.4280  178.5430  137.3240 C   0  0  0  0  0  2  0  0  0  0  0  0
  187.1730  177.7190  137.6340 C   0  0  0  0  0  2  0  0  0  0  0  0
  187.4440  177.9740  140.1200 C   0  0  1  0  0  3  0  0  0  0  0  0
  186.5050  178.1800  138.9240 C   0  0  0  0  0  2  0  0  0  0  0  0
  188.9120  178.3270  139.8260 C   0  0  1  0  0  3  0  0  0  0  0  0
  190.3500  176.7070  141.0810 C   0  0  0  0  0  1  0  0  0  0  0  0
  189.7380  177.0490  139.7360 C   0  0  0  0  0  2  0  0  0  0  0  0
  188.3780  178.2080  145.9700 C   0  0  0  0  0  2  0  0  0  0  0  0
  192.0380  176.0420  146.3520 C   0  0  0  0  0  3  0  0  0  0  0  0
  189.6660  177.4610  146.1180 C   0  0  0  0  0  0  0  0  0  0  0  0
  189.9870  176.8570  147.3370 C   0  0  0  0  0  3  0  0  0  0  0  0
  191.1830  176.1470  147.4500 C   0  0  0  0  0  3  0  0  0  0  0  0
  191.6800  176.6540  145.1490 C   0  0  0  0  0  3  0  0  0  0  0  0
  190.5120  177.3440  145.0570 N   0  0  0  0  0  0  0  0  0  0  0  0
  1 21  1  6  0  0  0
  2  1  1  0  0  0  0
  3  7  1  6  0  0  0
  3  6  1  0  0  0  0
  4  5  1  1  0  0  0
  4 10  1  0  0  0  0
  6 10  1  0  0  0  0
  6  1  1  0  0  0  0
  7  2  1  0  0  0  0
  8  4  1  0  0  0  0
 10  9  1  0  0  0  0
 11  8  1  0  0  0  0
 11  3  1  0  0  0  0
 12 11  1  0  0  0  0
 13 18  1  0  0  0  0
 14 15  1  0  0  0  0
 14 13  1  0  0  0  0
 15 17  1  0  0  0  0
 16 12  1  0  0  0  0
 17 16  1  0  0  0  0
 18 16  1  0  0  0  0
 20 18  1  0  0  0  0
 20 19  1  0  0  0  0
 21 23  1  0  0  0  0
 22 25  1  0  0  0  0
 23 24  1  0  0  0  0
 24 25  2  0  0  0  0
 26 22  2  0  0  0  0
 27 26  1  0  0  0  0
 27 23  2  0  0  0  0
M  END
>  <MODEL>
8

>  <REMARK>
 VINA RESULT:      -7.2      3.260      7.051
  Name = 
  5 active torsions:
  status: ('A' for Active; 'I' for Inactive)
    1  A    between atoms: C_1  and  C_15
    2  A    between atoms: C_9  and  C_15
    3  A    between atoms: C_12  and  C_14
    4  A    between atoms: C_12  and  C_26
    5  A    between atoms: C_17  and  C_21
                            x       y       z     vdW  Elec       q    Type
                         _______ _______ _______ _____ _____    ______ ____

>  <TORSDO>
F 5

$$$$
=
 OpenBabel10272401153D

 27 30  0  0  1  0  0  0  0  0999 V2000
  188.2120  178.0640  142.4370 C   0  0  2  0  0  3  0  0  0  0  0  0
  187.2220  178.8190  141.7600 O   0  0  0  0  0  0  0  0  0  0  0  0
  188.7480  178.3900  140.2860 C   0  0  2  0  0  3  0  0  0  0  0  0
  191.3890  177.6660  140.2960 C   0  0  1  0  0  3  0  0  0  0  0  0
  192.6360  177.0420  140.3720 O   0  0  0  0  0  1  0  0  0  0  0  0
  189.1050  177.4870  141.3910 C   0  0  1  0  0  3  0  0  0  0  0  0
  187.3820  178.6130  140.4480 O   0  0  0  0  0  0  0  0  0  0  0  0
  190.5950  177.1370  139.0800 C   0  0  0  0  0  2  0  0  0  0  0  0
  191.0060  176.4290  142.3590 O   0  0  0  0  0  1  0  0  0  0  0  0
  190.6120  177.5600  141.6410 C   0  0  1  0  0  3  0  0  0  0  0  0
  189.1890  177.7720  138.9480 C   0  0  1  0  0  3  0  0  0  0  0  0
  188.2130  176.7140  138.4450 C   0  0  0  0  0  2  0  0  0  0  0  0
  186.5050  175.6450  135.5910 C   0  0  0  0  0  2  0  0  0  0  0  0
  186.6070  176.7220  134.4980 C   0  0  0  0  0  2  0  0  0  0  0  0
  187.2220  178.0380  134.9860 C   0  0  0  0  0  2  0  0  0  0  0  0
  187.2880  177.2880  137.3850 C   0  0  1  0  0  3  0  0  0  0  0  0
  188.1110  177.8240  136.2050 C   0  0  0  0  0  2  0  0  0  0  0  0
  186.2380  176.2380  136.9830 C   0  0  1  0  0  3  0  0  0  0  0  0
  184.8220  177.9980  138.0610 C   0  0  0  0  0  1  0  0  0  0  0  0
  184.8440  176.8450  137.0750 C   0  0  0  0  0  2  0  0  0  0  0  0
  187.5760  176.9730  143.3010 C   0  0  0  0  0  2  0  0  0  0  0  0
  187.4630  178.0400  147.4340 C   0  0  0  0  0  3  0  0  0  0  0  0
  187.5430  177.3290  144.7540 C   0  0  0  0  0  0  0  0  0  0  0  0
  188.7180  177.2890  145.5100 C   0  0  0  0  0  3  0  0  0  0  0  0
  188.6710  177.6450  146.8590 C   0  0  0  0  0  3  0  0  0  0  0  0
  186.3110  178.0730  146.6450 C   0  0  0  0  0  3  0  0  0  0  0  0
  186.3740  177.7200  145.3340 N   0  0  0  0  0  0  0  0  0  0  0  0
  1 21  1  6  0  0  0
  2  1  1  0  0  0  0
  3  7  1  6  0  0  0
  3  6  1  0  0  0  0
  4  5  1  1  0  0  0
  4 10  1  0  0  0  0
  6 10  1  0  0  0  0
  6  1  1  0  0  0  0
  7  2  1  0  0  0  0
  8  4  1  0  0  0  0
 10  9  1  0  0  0  0
 11  8  1  0  0  0  0
 11  3  1  0  0  0  0
 12 11  1  0  0  0  0
 13 18  1  0  0  0  0
 14 15  1  0  0  0  0
 14 13  1  0  0  0  0
 15 17  1  0  0  0  0
 16 12  1  0  0  0  0
 17 16  1  0  0  0  0
 18 20  1  0  0  0  0
 18 16  1  0  0  0  0
 20 19  1  0  0  0  0
 21 23  1  0  0  0  0
 23 27  2  0  0  0  0
 23 24  1  0  0  0  0
 24 25  2  0  0  0  0
 25 22  1  0  0  0  0
 26 22  2  0  0  0  0
 27 26  1  0  0  0  0
M  END
>  <MODEL>
9

>  <REMARK>
 VINA RESULT:      -7.2      3.903      7.904
  Name = 
  5 active torsions:
  status: ('A' for Active; 'I' for Inactive)
    1  A    between atoms: C_1  and  C_15
    2  A    between atoms: C_9  and  C_15
    3  A    between atoms: C_12  and  C_14
    4  A    between atoms: C_12  and  C_26
    5  A    between atoms: C_17  and  C_21
                            x       y       z     vdW  Elec       q    Type
                         _______ _______ _______ _____ _____    ______ ____

>  <TORSDO>
F 5

$$$$
