=
 OpenBabel10272402053D

 32 38  0  0  1  0  0  0  0  0999 V2000
  182.4790  178.1680  141.2150 C   0  0  2  0  0  3  0  0  0  0  0  0
  184.9510  177.9330  141.4360 C   0  0  2  0  0  3  0  0  0  0  0  0
  181.2660  179.0770  141.4290 C   0  0  0  0  0  2  0  0  0  0  0  0
  183.7500  178.8090  141.7810 C   0  0  2  0  0  3  0  0  0  0  0  0
  186.1750  178.4550  142.1680 C   0  0  2  0  0  3  0  0  0  0  0  0
  188.1900  178.5880  137.6050 C   0  0  0  0  0  2  0  0  0  0  0  0
  185.1670  177.7920  139.9130 C   0  0  1  0  0  3  0  0  0  0  0  0
  188.8090  178.0830  139.8870 O   0  0  0  0  0  0  0  0  0  0  0  0
  187.6040  178.5660  140.4380 C   0  0  2  0  0  3  0  0  0  0  0  0
  183.6490  179.1490  143.2930 C   0  0  2  0  0  3  0  0  0  0  0  0
  187.3310  177.8710  141.6330 O   0  0  0  0  0  0  0  0  0  0  0  0
  184.5530  178.2720  144.1710 C   0  0  0  0  0  2  0  0  0  0  0  0
  182.2060  179.1070  143.8070 C   0  0  0  0  0  2  0  0  0  0  0  0
  183.9280  178.2240  139.1050 C   0  0  0  0  0  2  0  0  0  0  0  0
  182.6070  177.7330  139.7380 C   0  0  1  0  0  3  0  0  0  0  0  0
  186.4230  178.5180  139.4060 C   0  0  1  0  0  3  0  0  0  0  0  0
  186.0220  178.2480  143.6930 C   0  0  1  0  0  3  0  0  0  0  0  0
  181.2600  179.7700  142.8030 C   0  0  0  0  0  2  0  0  0  0  0  0
  189.1100  178.9090  138.7910 C   0  0  0  0  0  2  0  0  0  0  0  0
  186.8800  177.9410  138.0640 C   0  0  0  0  0  2  0  0  0  0  0  0
  180.2730  174.3290  137.3710 C   0  0  0  0  0  1  0  0  0  0  0  0
  180.7170  176.6650  135.7320 O   0  0  0  0  0  1  0  0  0  0  0  0
  180.5830  174.5960  140.2610 C   0  0  0  0  0  2  0  0  0  0  0  0
  182.7150  176.2250  137.0060 C   0  0  0  0  0  2  0  0  0  0  0  0
  182.4350  176.2050  139.5640 C   0  0  2  0  0  3  0  0  0  0  0  0
  180.3770  175.7420  137.9420 C   0  0  1  0  0  3  0  0  0  0  0  0
  183.2420  175.7020  138.3560 C   0  0  0  0  0  2  0  0  0  0  0  0
  180.9740  175.7580  139.3620 C   0  0  0  0  0  0  0  0  0  0  0  0
  179.9820  175.9670  140.4910 C   0  0  0  0  0  2  0  0  0  0  0  0
  181.2310  176.6320  137.0290 C   0  0  2  0  0  3  0  0  0  0  0  0
  186.7430  177.0080  144.2290 C   0  0  0  0  0  2  0  0  0  0  0  0
  187.8600  177.3640  145.2000 C   0  0  0  0  0  1  0  0  0  0  0  0
  1  3  1  6  0  0  0
  1  4  1  0  0  0  0
  2  4  1  0  0  0  0
  2  5  1  0  0  0  0
  3 18  1  0  0  0  0
  4 10  1  0  0  0  0
  5 17  1  0  0  0  0
  6 20  1  0  0  0  0
  6 19  1  0  0  0  0
  7  2  1  0  0  0  0
  8  9  1  0  0  0  0
  9 11  1  0  0  0  0
 10 13  1  0  0  0  0
 10 12  1  0  0  0  0
 11  5  1  0  0  0  0
 14 15  1  0  0  0  0
 14  7  1  0  0  0  0
 15  1  1  0  0  0  0
 16  7  1  0  0  0  0
 16  9  1  0  0  0  0
 17 12  1  0  0  0  0
 17 31  1  0  0  0  0
 18 13  1  0  0  0  0
 19  8  1  0  0  0  0
 20 16  1  0  0  0  0
 21 26  1  0  0  0  0
 22 30  1  0  0  0  0
 23 29  1  0  0  0  0
 24 30  1  0  0  0  0
 24 27  1  0  0  0  0
 25 15  1  0  0  0  0
 26 28  1  0  0  0  0
 27 25  1  0  0  0  0
 28 25  1  0  0  0  0
 28 23  1  0  0  0  0
 28 29  1  0  0  0  0
 30 26  1  0  0  0  0
 31 32  1  0  0  0  0
M  END
>  <MODEL>
1

>  <REMARK>
 VINA RESULT:      -6.7      0.000      0.000
  Name = 
  2 active torsions:
  status: ('A' for Active; 'I' for Inactive)
    1  A    between atoms: C_13  and  C_29
    2  A    between atoms: C_16  and  C_27
                            x       y       z     vdW  Elec       q    Type
                         _______ _______ _______ _____ _____    ______ ____

>  <TORSDO>
F 2

$$$$
=
 OpenBabel10272402053D

 32 38  0  0  1  0  0  0  0  0999 V2000
  190.3560  175.9320  137.6900 C   0  0  2  0  0  3  0  0  0  0  0  0
  188.2140  175.4330  136.5180 C   0  0  2  0  0  3  0  0  0  0  0  0
  191.0180  176.3150  139.0170 C   0  0  0  0  0  2  0  0  0  0  0  0
  188.8290  175.9390  137.8180 C   0  0  2  0  0  3  0  0  0  0  0  0
  186.7090  175.6330  136.5670 C   0  0  2  0  0  3  0  0  0  0  0  0
  186.5610  170.7480  135.5580 C   0  0  0  0  0  2  0  0  0  0  0  0
  188.6240  173.9800  136.1900 C   0  0  1  0  0  3  0  0  0  0  0  0
  185.3760  172.7850  135.0200 O   0  0  0  0  0  0  0  0  0  0  0  0
  186.0550  173.5660  135.9780 C   0  0  2  0  0  3  0  0  0  0  0  0
  188.2550  177.3060  138.2810 C   0  0  2  0  0  3  0  0  0  0  0  0
  186.1000  174.9040  135.5370 O   0  0  0  0  0  0  0  0  0  0  0  0
  187.4560  178.0280  137.1870 C   0  0  0  0  0  2  0  0  0  0  0  0
  189.3350  178.2330  138.8490 C   0  0  0  0  0  2  0  0  0  0  0  0
  189.8410  173.5180  137.0150 C   0  0  0  0  0  2  0  0  0  0  0  0
  190.9270  174.6100  137.1320 C   0  0  1  0  0  3  0  0  0  0  0  0
  187.4680  172.9760  136.3230 C   0  0  1  0  0  3  0  0  0  0  0  0
  186.3630  177.1400  136.5500 C   0  0  1  0  0  3  0  0  0  0  0  0
  190.2900  177.4510  139.7550 C   0  0  0  0  0  2  0  0  0  0  0  0
  185.2260  171.5050  135.5770 C   0  0  0  0  0  2  0  0  0  0  0  0
  187.7530  171.7080  135.5150 C   0  0  0  0  0  2  0  0  0  0  0  0
  194.9140  173.6890  134.7050 C   0  0  0  0  0  1  0  0  0  0  0  0
  194.2250  171.5310  136.4960 O   0  0  0  0  0  1  0  0  0  0  0  0
  193.6410  176.2820  135.1210 C   0  0  0  0  0  2  0  0  0  0  0  0
  192.2120  172.3260  135.4350 C   0  0  0  0  0  2  0  0  0  0  0  0
  191.6640  174.8160  135.7880 C   0  0  2  0  0  3  0  0  0  0  0  0
  194.1520  173.9000  136.0130 C   0  0  1  0  0  3  0  0  0  0  0  0
  191.5050  173.5800  134.8870 C   0  0  0  0  0  2  0  0  0  0  0  0
  193.1740  175.0870  135.9350 C   0  0  0  0  0  0  0  0  0  0  0  0
  193.6240  176.3570  136.6330 C   0  0  0  0  0  2  0  0  0  0  0  0
  193.3750  172.6330  136.3950 C   0  0  2  0  0  3  0  0  0  0  0  0
  185.9710  177.6740  135.1700 C   0  0  0  0  0  2  0  0  0  0  0  0
  187.1810  178.0900  134.3460 C   0  0  0  0  0  1  0  0  0  0  0  0
  1  4  1  0  0  0  0
  1  3  1  1  0  0  0
  2  5  1  0  0  0  0
  2  4  1  0  0  0  0
  3 18  1  0  0  0  0
  4 10  1  0  0  0  0
  6 19  1  0  0  0  0
  7 16  1  0  0  0  0
  7  2  1  0  0  0  0
  7 14  1  0  0  0  0
  8 19  1  0  0  0  0
  8  9  1  0  0  0  0
  9 16  1  0  0  0  0
 10 13  1  0  0  0  0
 11  9  1  0  0  0  0
 11  5  1  0  0  0  0
 12 10  1  0  0  0  0
 13 18  1  0  0  0  0
 14 15  1  0  0  0  0
 15  1  1  0  0  0  0
 17  5  1  0  0  0  0
 17 12  1  0  0  0  0
 20  6  1  0  0  0  0
 20 16  1  0  0  0  0
 21 26  1  0  0  0  0
 23 28  1  0  0  0  0
 23 29  1  0  0  0  0
 24 30  1  0  0  0  0
 25 28  1  0  0  0  0
 25 15  1  0  0  0  0
 26 30  1  0  0  0  0
 27 24  1  0  0  0  0
 27 25  1  0  0  0  0
 28 26  1  0  0  0  0
 28 29  1  0  0  0  0
 30 22  1  0  0  0  0
 31 17  1  0  0  0  0
 32 31  1  0  0  0  0
M  END
>  <MODEL>
2

>  <REMARK>
 VINA RESULT:      -5.7      5.580      9.814
  Name = 
  2 active torsions:
  status: ('A' for Active; 'I' for Inactive)
    1  A    between atoms: C_13  and  C_29
    2  A    between atoms: C_16  and  C_27
                            x       y       z     vdW  Elec       q    Type
                         _______ _______ _______ _____ _____    ______ ____

>  <TORSDO>
F 2

$$$$
=
 OpenBabel10272402053D

 32 38  0  0  1  0  0  0  0  0999 V2000
  191.0120  177.1170  140.6340 C   0  0  2  0  0  3  0  0  0  0  0  0
  188.9430  176.7860  139.2840 C   0  0  2  0  0  3  0  0  0  0  0  0
  192.3960  177.7690  140.6980 C   0  0  0  0  0  2  0  0  0  0  0  0
  190.3650  177.3390  139.2630 C   0  0  2  0  0  3  0  0  0  0  0  0
  188.3760  176.8170  137.8750 C   0  0  2  0  0  3  0  0  0  0  0  0
  184.6730  179.4050  139.9940 C   0  0  0  0  0  2  0  0  0  0  0  0
  188.0430  177.4960  140.3180 C   0  0  1  0  0  3  0  0  0  0  0  0
  185.0180  177.7340  138.2820 O   0  0  0  0  0  0  0  0  0  0  0  0
  186.4240  177.8450  138.3000 C   0  0  2  0  0  3  0  0  0  0  0  0
  191.2190  176.8000  138.0840 C   0  0  2  0  0  3  0  0  0  0  0  0
  186.9900  176.6120  137.9180 O   0  0  0  0  0  0  0  0  0  0  0  0
  190.5930  175.5800  137.3920 C   0  0  0  0  0  2  0  0  0  0  0  0
  192.6620  176.4920  138.4980 C   0  0  0  0  0  2  0  0  0  0  0  0
  188.8590  178.3060  141.3440 C   0  0  0  0  0  2  0  0  0  0  0  0
  190.1240  177.5570  141.8190 C   0  0  1  0  0  3  0  0  0  0  0  0
  186.9550  178.3740  139.6780 C   0  0  1  0  0  3  0  0  0  0  0  0
  189.1250  175.8130  136.9690 C   0  0  1  0  0  3  0  0  0  0  0  0
  193.2080  177.6010  139.4020 C   0  0  0  0  0  2  0  0  0  0  0  0
  184.5090  179.0220  138.5170 C   0  0  0  0  0  2  0  0  0  0  0  0
  185.8070  178.6200  140.6600 C   0  0  0  0  0  2  0  0  0  0  0  0
  189.8940  176.0840  146.3370 C   0  0  0  0  0  1  0  0  0  0  0  0
  189.3310  178.9060  146.0980 O   0  0  0  0  0  1  0  0  0  0  0  0
  191.1880  174.7440  144.0900 C   0  0  0  0  0  2  0  0  0  0  0  0
  188.2320  177.7440  144.2950 C   0  0  0  0  0  2  0  0  0  0  0  0
  189.7600  176.3720  142.7450 C   0  0  2  0  0  3  0  0  0  0  0  0
  190.4860  176.9630  145.2360 C   0  0  1  0  0  3  0  0  0  0  0  0
  188.3480  176.5510  143.3270 C   0  0  0  0  0  2  0  0  0  0  0  0
  190.7270  176.1830  143.9300 C   0  0  0  0  0  0  0  0  0  0  0  0
  192.1690  175.8080  143.6440 C   0  0  0  0  0  2  0  0  0  0  0  0
  189.5650  178.1550  144.9460 C   0  0  2  0  0  3  0  0  0  0  0  0
  188.3990  174.4770  136.7850 C   0  0  0  0  0  2  0  0  0  0  0  0
  189.3300  173.2850  136.9560 C   0  0  0  0  0  1  0  0  0  0  0  0
  1  3  1  6  0  0  0
  1 15  1  0  0  0  0
  2  7  1  0  0  0  0
  4  2  1  0  0  0  0
  4  1  1  0  0  0  0
  5 11  1  0  0  0  0
  5  2  1  0  0  0  0
  6 20  1  0  0  0  0
  7 14  1  0  0  0  0
  8  9  1  0  0  0  0
  8 19  1  0  0  0  0
  9 16  1  0  0  0  0
 10 13  1  0  0  0  0
 10  4  1  0  0  0  0
 11  9  1  0  0  0  0
 12 10  1  0  0  0  0
 13 18  1  0  0  0  0
 14 15  1  0  0  0  0
 15 25  1  0  0  0  0
 16  7  1  0  0  0  0
 16 20  1  0  0  0  0
 17 12  1  0  0  0  0
 17  5  1  0  0  0  0
 18  3  1  0  0  0  0
 19  6  1  0  0  0  0
 24 30  1  0  0  0  0
 25 27  1  0  0  0  0
 25 28  1  0  0  0  0
 26 21  1  0  0  0  0
 27 24  1  0  0  0  0
 28 23  1  0  0  0  0
 28 26  1  0  0  0  0
 29 28  1  0  0  0  0
 29 23  1  0  0  0  0
 30 26  1  0  0  0  0
 30 22  1  0  0  0  0
 31 32  1  0  0  0  0
 31 17  1  0  0  0  0
M  END
>  <MODEL>
3

>  <REMARK>
 VINA RESULT:      -5.4      3.530      8.731
  Name = 
  2 active torsions:
  status: ('A' for Active; 'I' for Inactive)
    1  A    between atoms: C_13  and  C_29
    2  A    between atoms: C_16  and  C_27
                            x       y       z     vdW  Elec       q    Type
                         _______ _______ _______ _____ _____    ______ ____

>  <TORSDO>
F 2

$$$$
=
 OpenBabel10272402053D

 32 38  0  0  1  0  0  0  0  0999 V2000
  187.8510  178.1560  140.2640 C   0  0  2  0  0  3  0  0  0  0  0  0
  185.3980  177.7150  140.2930 C   0  0  2  0  0  3  0  0  0  0  0  0
  188.9830  178.9950  139.6660 C   0  0  0  0  0  2  0  0  0  0  0  0
  186.5150  178.4760  139.5860 C   0  0  2  0  0  3  0  0  0  0  0  0
  184.1120  177.8670  139.4990 C   0  0  2  0  0  3  0  0  0  0  0  0
  182.2600  179.5140  143.8310 C   0  0  0  0  0  2  0  0  0  0  0  0
  185.2490  178.1180  141.7770 C   0  0  1  0  0  3  0  0  0  0  0  0
  181.5990  178.1880  141.9210 O   0  0  0  0  0  0  0  0  0  0  0  0
  182.7420  178.5090  141.1610 C   0  0  2  0  0  3  0  0  0  0  0  0
  186.5350  178.2550  138.0490 C   0  0  2  0  0  3  0  0  0  0  0  0
  183.0230  177.4480  140.2770 O   0  0  0  0  0  0  0  0  0  0  0  0
  185.6690  177.0700  137.5970 C   0  0  0  0  0  2  0  0  0  0  0  0
  187.9570  178.1140  137.4960 C   0  0  0  0  0  2  0  0  0  0  0  0
  186.4800  178.8820  142.3000 C   0  0  0  0  0  2  0  0  0  0  0  0
  187.8100  178.2740  141.8040 C   0  0  1  0  0  3  0  0  0  0  0  0
  183.9610  178.9040  142.0680 C   0  0  1  0  0  3  0  0  0  0  0  0
  184.2240  177.1350  138.1420 C   0  0  1  0  0  3  0  0  0  0  0  0
  188.8860  179.1470  138.1380 C   0  0  0  0  0  2  0  0  0  0  0  0
  181.2760  179.3340  142.6670 C   0  0  0  0  0  2  0  0  0  0  0  0
  183.5980  178.8220  143.5520 C   0  0  0  0  0  2  0  0  0  0  0  0
  190.0670  176.1800  145.4320 C   0  0  0  0  0  1  0  0  0  0  0  0
  189.1390  178.8250  146.1270 O   0  0  0  0  0  1  0  0  0  0  0  0
  190.1940  175.4660  142.6040 C   0  0  0  0  0  2  0  0  0  0  0  0
  187.4220  177.7150  144.8510 C   0  0  0  0  0  2  0  0  0  0  0  0
  188.1040  176.9230  142.4990 C   0  0  2  0  0  3  0  0  0  0  0  0
  189.9150  177.3070  144.4110 C   0  0  1  0  0  3  0  0  0  0  0  0
  187.1700  176.7180  143.7030 C   0  0  0  0  0  2  0  0  0  0  0  0
  189.5520  176.7820  143.0090 C   0  0  0  0  0  0  0  0  0  0  0  0
  190.6840  176.7650  141.9990 C   0  0  0  0  0  2  0  0  0  0  0  0
  188.8430  178.3060  144.8660 C   0  0  2  0  0  3  0  0  0  0  0  0
  183.5800  175.7460  138.1280 C   0  0  0  0  0  2  0  0  0  0  0  0
  184.4260  174.7250  137.3810 C   0  0  0  0  0  1  0  0  0  0  0  0
  1  3  1  6  0  0  0
  1 15  1  0  0  0  0
  2  7  1  0  0  0  0
  4  1  1  0  0  0  0
  4  2  1  0  0  0  0
  5 11  1  0  0  0  0
  5  2  1  0  0  0  0
  7 16  1  0  0  0  0
  7 14  1  0  0  0  0
  8 19  1  0  0  0  0
  9  8  1  0  0  0  0
  9 16  1  0  0  0  0
 10  4  1  0  0  0  0
 11  9  1  0  0  0  0
 12 10  1  0  0  0  0
 12 17  1  0  0  0  0
 13 10  1  0  0  0  0
 13 18  1  0  0  0  0
 15 14  1  0  0  0  0
 15 25  1  0  0  0  0
 16 20  1  0  0  0  0
 17  5  1  0  0  0  0
 18  3  1  0  0  0  0
 19  6  1  0  0  0  0
 20  6  1  0  0  0  0
 23 28  1  0  0  0  0
 24 30  1  0  0  0  0
 25 28  1  0  0  0  0
 25 27  1  0  0  0  0
 26 30  1  0  0  0  0
 26 21  1  0  0  0  0
 27 24  1  0  0  0  0
 28 26  1  0  0  0  0
 29 23  1  0  0  0  0
 29 28  1  0  0  0  0
 30 22  1  0  0  0  0
 31 17  1  0  0  0  0
 32 31  1  0  0  0  0
M  END
>  <MODEL>
4

>  <REMARK>
 VINA RESULT:      -5.4      2.295      7.827
  Name = 
  2 active torsions:
  status: ('A' for Active; 'I' for Inactive)
    1  A    between atoms: C_13  and  C_29
    2  A    between atoms: C_16  and  C_27
                            x       y       z     vdW  Elec       q    Type
                         _______ _______ _______ _____ _____    ______ ____

>  <TORSDO>
F 2

$$$$
=
 OpenBabel10272402053D

 32 38  0  0  1  0  0  0  0  0999 V2000
  187.1070  178.0820  139.8480 C   0  0  2  0  0  3  0  0  0  0  0  0
  185.1310  177.4430  138.4700 C   0  0  2  0  0  3  0  0  0  0  0  0
  188.4650  178.7880  139.8700 C   0  0  0  0  0  2  0  0  0  0  0  0
  186.5350  178.0380  138.4280 C   0  0  2  0  0  3  0  0  0  0  0  0
  184.6460  177.2080  137.0500 C   0  0  2  0  0  3  0  0  0  0  0  0
  180.7520  179.9770  138.4900 C   0  0  0  0  0  2  0  0  0  0  0  0
  184.1520  178.2850  139.3170 C   0  0  1  0  0  3  0  0  0  0  0  0
  181.2450  178.0500  137.1150 O   0  0  0  0  0  0  0  0  0  0  0  0
  182.6430  178.2170  137.1870 C   0  0  2  0  0  3  0  0  0  0  0  0
  187.4720  177.3380  137.4070 C   0  0  2  0  0  3  0  0  0  0  0  0
  183.2670  176.9600  137.0560 O   0  0  0  0  0  0  0  0  0  0  0  0
  186.9230  175.9940  136.9060 C   0  0  0  0  0  2  0  0  0  0  0  0
  188.8960  177.1630  137.9430 C   0  0  0  0  0  2  0  0  0  0  0  0
  184.8830  179.2910  140.2270 C   0  0  0  0  0  2  0  0  0  0  0  0
  186.1390  178.6850  140.8900 C   0  0  1  0  0  3  0  0  0  0  0  0
  183.0780  178.9970  138.4780 C   0  0  1  0  0  3  0  0  0  0  0  0
  185.4750  176.0930  136.3730 C   0  0  1  0  0  3  0  0  0  0  0  0
  189.3560  178.4310  138.6670 C   0  0  0  0  0  2  0  0  0  0  0  0
  180.6860  179.3390  137.0960 C   0  0  0  0  0  2  0  0  0  0  0  0
  181.8680  179.3630  139.3400 C   0  0  0  0  0  2  0  0  0  0  0  0
  185.3060  178.1050  145.5390 C   0  0  0  0  0  1  0  0  0  0  0  0
  184.4820  180.7150  144.6180 O   0  0  0  0  0  1  0  0  0  0  0  0
  187.1070  176.5530  143.8450 C   0  0  0  0  0  2  0  0  0  0  0  0
  183.8430  179.0770  142.9690 C   0  0  0  0  0  2  0  0  0  0  0  0
  185.7570  177.6630  141.9880 C   0  0  2  0  0  3  0  0  0  0  0  0
  185.9760  178.8290  144.3710 C   0  0  1  0  0  3  0  0  0  0  0  0
  184.2550  177.7470  142.3080 C   0  0  0  0  0  2  0  0  0  0  0  0
  186.5220  177.8510  143.3130 C   0  0  0  0  0  0  0  0  0  0  0  0
  188.0240  177.6410  143.3260 C   0  0  0  0  0  2  0  0  0  0  0  0
  184.9910  179.7950  143.7000 C   0  0  2  0  0  3  0  0  0  0  0  0
  184.8010  174.7180  136.3870 C   0  0  0  0  0  2  0  0  0  0  0  0
  185.4810  173.7510  137.3460 C   0  0  0  0  0  1  0  0  0  0  0  0
  1  3  1  6  0  0  0
  1 15  1  0  0  0  0
  2  7  1  0  0  0  0
  4  2  1  0  0  0  0
  4  1  1  0  0  0  0
  5 11  1  0  0  0  0
  5  2  1  0  0  0  0
  6 20  1  0  0  0  0
  7 14  1  0  0  0  0
  8  9  1  0  0  0  0
  9 16  1  0  0  0  0
 10 13  1  0  0  0  0
 10  4  1  0  0  0  0
 11  9  1  0  0  0  0
 12 10  1  0  0  0  0
 13 18  1  0  0  0  0
 14 15  1  0  0  0  0
 15 25  1  0  0  0  0
 16  7  1  0  0  0  0
 16 20  1  0  0  0  0
 17 31  1  0  0  0  0
 17 12  1  0  0  0  0
 17  5  1  0  0  0  0
 18  3  1  0  0  0  0
 19  8  1  0  0  0  0
 19  6  1  0  0  0  0
 24 30  1  0  0  0  0
 25 27  1  0  0  0  0
 25 28  1  0  0  0  0
 26 21  1  0  0  0  0
 27 24  1  0  0  0  0
 28 29  1  0  0  0  0
 28 23  1  0  0  0  0
 28 26  1  0  0  0  0
 29 23  1  0  0  0  0
 30 26  1  0  0  0  0
 30 22  1  0  0  0  0
 31 32  1  0  0  0  0
M  END
>  <MODEL>
5

>  <REMARK>
 VINA RESULT:      -5.3      2.608      7.066
  Name = 
  2 active torsions:
  status: ('A' for Active; 'I' for Inactive)
    1  A    between atoms: C_13  and  C_29
    2  A    between atoms: C_16  and  C_27
                            x       y       z     vdW  Elec       q    Type
                         _______ _______ _______ _____ _____    ______ ____

>  <TORSDO>
F 2

$$$$
=
 OpenBabel10272402053D

 32 38  0  0  1  0  0  0  0  0999 V2000
  182.0390  177.0490  137.0000 C   0  0  2  0  0  3  0  0  0  0  0  0
  184.2470  177.5710  138.0320 C   0  0  2  0  0  3  0  0  0  0  0  0
  180.8800  177.5730  136.1480 C   0  0  0  0  0  2  0  0  0  0  0  0
  183.0510  178.1620  137.2920 C   0  0  2  0  0  3  0  0  0  0  0  0
  185.1490  178.7000  138.5030 C   0  0  2  0  0  3  0  0  0  0  0  0
  188.6840  176.1930  136.0280 C   0  0  0  0  0  2  0  0  0  0  0  0
  184.9920  176.5020  137.2030 C   0  0  1  0  0  3  0  0  0  0  0  0
  188.4060  177.4900  138.0490 O   0  0  0  0  0  0  0  0  0  0  0  0
  187.1110  177.9380  137.7170 C   0  0  2  0  0  3  0  0  0  0  0  0
  182.4270  179.3900  138.0090 C   0  0  2  0  0  3  0  0  0  0  0  0
  186.3880  178.1800  138.9020 O   0  0  0  0  0  0  0  0  0  0  0  0
  182.9040  179.5500  139.4600 C   0  0  0  0  0  2  0  0  0  0  0  0
  180.8960  179.3870  137.9510 C   0  0  0  0  0  2  0  0  0  0  0  0
  184.1540  176.0000  136.0120 C   0  0  0  0  0  2  0  0  0  0  0  0
  182.6700  175.7830  136.3800 C   0  0  1  0  0  3  0  0  0  0  0  0
  186.3830  176.9560  136.7320 C   0  0  1  0  0  3  0  0  0  0  0  0
  184.4430  179.5350  139.5960 C   0  0  1  0  0  3  0  0  0  0  0  0
  180.4130  178.9820  136.5560 C   0  0  0  0  0  2  0  0  0  0  0  0
  189.1260  177.4140  136.8450 C   0  0  0  0  0  2  0  0  0  0  0  0
  187.2640  175.7510  136.3960 C   0  0  0  0  0  2  0  0  0  0  0  0
  179.9860  171.9490  137.2380 C   0  0  0  0  0  1  0  0  0  0  0  0
  180.0760  172.5890  134.4240 O   0  0  0  0  0  1  0  0  0  0  0  0
  180.8300  173.9940  139.1420 C   0  0  0  0  0  2  0  0  0  0  0  0
  182.2850  172.8610  135.3480 C   0  0  0  0  0  2  0  0  0  0  0  0
  182.4930  174.5410  137.2870 C   0  0  2  0  0  3  0  0  0  0  0  0
  180.1730  173.3710  136.7100 C   0  0  1  0  0  3  0  0  0  0  0  0
  183.0650  173.2870  136.6070 C   0  0  0  0  0  2  0  0  0  0  0  0
  181.0270  174.2380  137.6550 C   0  0  0  0  0  0  0  0  0  0  0  0
  180.2620  175.2410  138.4980 C   0  0  0  0  0  2  0  0  0  0  0  0
  180.8250  173.3490  135.3220 C   0  0  2  0  0  3  0  0  0  0  0  0
  184.8550  179.1680  141.0240 C   0  0  0  0  0  2  0  0  0  0  0  0
  183.7530  178.4310  141.7710 C   0  0  0  0  0  1  0  0  0  0  0  0
  1  3  1  6  0  0  0
  1  4  1  0  0  0  0
  2  5  1  0  0  0  0
  3 18  1  0  0  0  0
  4 10  1  0  0  0  0
  4  2  1  0  0  0  0
  5 11  1  0  0  0  0
  5 17  1  0  0  0  0
  6 20  1  0  0  0  0
  6 19  1  0  0  0  0
  7  2  1  0  0  0  0
  9  8  1  0  0  0  0
  9 11  1  0  0  0  0
 10 12  1  0  0  0  0
 12 17  1  0  0  0  0
 13 10  1  0  0  0  0
 14 15  1  0  0  0  0
 14  7  1  0  0  0  0
 15  1  1  0  0  0  0
 15 25  1  0  0  0  0
 16  7  1  0  0  0  0
 16  9  1  0  0  0  0
 17 31  1  0  0  0  0
 18 13  1  0  0  0  0
 19  8  1  0  0  0  0
 20 16  1  0  0  0  0
 22 30  1  0  0  0  0
 24 27  1  0  0  0  0
 25 28  1  0  0  0  0
 26 21  1  0  0  0  0
 26 28  1  0  0  0  0
 27 25  1  0  0  0  0
 28 29  1  0  0  0  0
 28 23  1  0  0  0  0
 29 23  1  0  0  0  0
 30 24  1  0  0  0  0
 30 26  1  0  0  0  0
 31 32  1  0  0  0  0
M  END
>  <MODEL>
6

>  <REMARK>
 VINA RESULT:      -5.3      2.323      3.865
  Name = 
  2 active torsions:
  status: ('A' for Active; 'I' for Inactive)
    1  A    between atoms: C_13  and  C_29
    2  A    between atoms: C_16  and  C_27
                            x       y       z     vdW  Elec       q    Type
                         _______ _______ _______ _____ _____    ______ ____

>  <TORSDO>
F 2

$$$$
=
 OpenBabel10272402053D

 32 38  0  0  1  0  0  0  0  0999 V2000
  187.1600  176.0560  136.1260 C   0  0  2  0  0  3  0  0  0  0  0  0
  189.4230  175.6490  137.0870 C   0  0  2  0  0  3  0  0  0  0  0  0
  186.3280  176.8840  135.1430 C   0  0  0  0  0  2  0  0  0  0  0  0
  188.6000  176.5750  136.1970 C   0  0  2  0  0  3  0  0  0  0  0  0
  190.7880  176.2720  137.3250 C   0  0  2  0  0  3  0  0  0  0  0  0
  192.4870  171.9150  135.5820 C   0  0  0  0  0  2  0  0  0  0  0  0
  189.4980  174.2070  136.5400 C   0  0  1  0  0  3  0  0  0  0  0  0
  193.0250  173.5750  137.2550 O   0  0  0  0  0  0  0  0  0  0  0  0
  192.0790  174.5120  136.7910 C   0  0  2  0  0  3  0  0  0  0  0  0
  188.6970  178.0700  136.6040 C   0  0  2  0  0  3  0  0  0  0  0  0
  191.6560  175.3150  137.8690 O   0  0  0  0  0  0  0  0  0  0  0  0
  189.3060  178.2790  137.9980 C   0  0  0  0  0  2  0  0  0  0  0  0
  187.3520  178.7950  136.4990 C   0  0  0  0  0  2  0  0  0  0  0  0
  188.4310  173.9360  135.4630 C   0  0  0  0  0  2  0  0  0  0  0  0
  187.0580  174.5450  135.8230 C   0  0  1  0  0  3  0  0  0  0  0  0
  190.8950  173.8230  136.0250 C   0  0  1  0  0  3  0  0  0  0  0  0
  190.6570  177.5510  138.1830 C   0  0  1  0  0  3  0  0  0  0  0  0
  186.6240  178.3920  135.2130 C   0  0  0  0  0  2  0  0  0  0  0  0
  193.5230  172.9100  136.1220 C   0  0  0  0  0  2  0  0  0  0  0  0
  191.0630  172.3030  135.9930 C   0  0  0  0  0  2  0  0  0  0  0  0
  183.7390  171.3120  136.9050 C   0  0  0  0  0  1  0  0  0  0  0  0
  184.9640  170.7770  134.3460 O   0  0  0  0  0  1  0  0  0  0  0  0
  184.0870  173.9650  138.0700 C   0  0  0  0  0  2  0  0  0  0  0  0
  186.6810  171.4470  135.8990 C   0  0  0  0  0  2  0  0  0  0  0  0
  186.3820  173.7650  136.9760 C   0  0  2  0  0  3  0  0  0  0  0  0
  184.3070  172.4090  136.0060 C   0  0  1  0  0  3  0  0  0  0  0  0
  186.9850  172.3570  137.1050 C   0  0  0  0  0  2  0  0  0  0  0  0
  184.8580  173.6000  136.8120 C   0  0  0  0  0  0  0  0  0  0  0  0
  183.9820  174.8390  136.8370 C   0  0  0  0  0  2  0  0  0  0  0  0
  185.4220  171.8500  135.1120 C   0  0  2  0  0  3  0  0  0  0  0  0
  190.9560  177.3390  139.6690 C   0  0  0  0  0  2  0  0  0  0  0  0
  189.6890  177.1590  140.4930 C   0  0  0  0  0  1  0  0  0  0  0  0
  1  3  1  6  0  0  0
  1  4  1  0  0  0  0
  2  5  1  0  0  0  0
  3 18  1  0  0  0  0
  4 10  1  0  0  0  0
  4  2  1  0  0  0  0
  5 11  1  0  0  0  0
  5 17  1  0  0  0  0
  6 20  1  0  0  0  0
  6 19  1  0  0  0  0
  7  2  1  0  0  0  0
  9  8  1  0  0  0  0
  9 11  1  0  0  0  0
 10 12  1  0  0  0  0
 12 17  1  0  0  0  0
 13 10  1  0  0  0  0
 14 15  1  0  0  0  0
 14  7  1  0  0  0  0
 15  1  1  0  0  0  0
 15 25  1  0  0  0  0
 16  7  1  0  0  0  0
 16  9  1  0  0  0  0
 17 31  1  0  0  0  0
 18 13  1  0  0  0  0
 19  8  1  0  0  0  0
 20 16  1  0  0  0  0
 22 30  1  0  0  0  0
 24 27  1  0  0  0  0
 25 27  1  0  0  0  0
 26 28  1  0  0  0  0
 26 21  1  0  0  0  0
 28 29  1  0  0  0  0
 28 25  1  0  0  0  0
 28 23  1  0  0  0  0
 29 23  1  0  0  0  0
 30 24  1  0  0  0  0
 30 26  1  0  0  0  0
 31 32  1  0  0  0  0
M  END
>  <MODEL>
7

>  <REMARK>
 VINA RESULT:      -5.1      4.833      6.899
  Name = 
  2 active torsions:
  status: ('A' for Active; 'I' for Inactive)
    1  A    between atoms: C_13  and  C_29
    2  A    between atoms: C_16  and  C_27
                            x       y       z     vdW  Elec       q    Type
                         _______ _______ _______ _____ _____    ______ ____

>  <TORSDO>
F 2

$$$$
=
 OpenBabel10272402053D

 32 38  0  0  1  0  0  0  0  0999 V2000
  185.4090  177.4390  137.7210 C   0  0  2  0  0  3  0  0  0  0  0  0
  184.9850  175.1160  136.9240 C   0  0  2  0  0  3  0  0  0  0  0  0
  186.0070  178.8080  137.3850 C   0  0  0  0  0  2  0  0  0  0  0  0
  185.7030  176.4250  136.6110 C   0  0  2  0  0  3  0  0  0  0  0  0
  185.4380  174.0510  135.9400 C   0  0  2  0  0  3  0  0  0  0  0  0
  180.5530  173.5540  135.0480 C   0  0  0  0  0  2  0  0  0  0  0  0
  183.4500  175.2770  136.9830 C   0  0  1  0  0  3  0  0  0  0  0  0
  182.5480  172.2000  135.2310 O   0  0  0  0  0  0  0  0  0  0  0  0
  183.4270  173.3020  135.2750 C   0  0  2  0  0  3  0  0  0  0  0  0
  187.2180  176.2450  136.3250 C   0  0  2  0  0  3  0  0  0  0  0  0
  184.5770  172.9470  136.0080 O   0  0  0  0  0  0  0  0  0  0  0  0
  187.7530  174.8690  136.7470 C   0  0  0  0  0  2  0  0  0  0  0  0
  188.0680  177.3580  136.9470 C   0  0  0  0  0  2  0  0  0  0  0  0
  183.0220  176.7530  137.1030 C   0  0  0  0  0  2  0  0  0  0  0  0
  183.9110  177.5500  138.0820 C   0  0  1  0  0  3  0  0  0  0  0  0
  182.7210  174.5970  135.8130 C   0  0  1  0  0  3  0  0  0  0  0  0
  186.9240  173.6960  136.1750 C   0  0  1  0  0  3  0  0  0  0  0  0
  187.4010  178.7200  136.7390 C   0  0  0  0  0  2  0  0  0  0  0  0
  181.5000  172.5560  134.3660 C   0  0  0  0  0  2  0  0  0  0  0  0
  181.2580  174.3250  136.1680 C   0  0  0  0  0  2  0  0  0  0  0  0
  181.7040  178.7900  142.1110 C   0  0  0  0  0  1  0  0  0  0  0  0
  180.2290  179.6310  139.7760 O   0  0  0  0  0  1  0  0  0  0  0  0
  184.5040  178.0380  141.7730 C   0  0  0  0  0  2  0  0  0  0  0  0
  181.0810  177.4090  139.3920 C   0  0  0  0  0  2  0  0  0  0  0  0
  183.6350  177.1420  139.5490 C   0  0  2  0  0  3  0  0  0  0  0  0
  182.3720  179.1350  140.7810 C   0  0  1  0  0  3  0  0  0  0  0  0
  182.2620  176.4610  139.6750 C   0  0  0  0  0  2  0  0  0  0  0  0
  183.6580  178.3200  140.5430 C   0  0  0  0  0  0  0  0  0  0  0  0
  184.9600  179.0680  140.7600 C   0  0  0  0  0  2  0  0  0  0  0  0
  181.4040  178.8970  139.6140 C   0  0  2  0  0  3  0  0  0  0  0  0
  187.1390  172.4280  137.0060 C   0  0  0  0  0  2  0  0  0  0  0  0
  187.8500  171.3360  136.2200 C   0  0  0  0  0  1  0  0  0  0  0  0
  1  3  1  6  0  0  0
  1 15  1  0  0  0  0
  2  7  1  0  0  0  0
  4  2  1  0  0  0  0
  4  1  1  0  0  0  0
  5 11  1  0  0  0  0
  5 17  1  0  0  0  0
  5  2  1  0  0  0  0
  6 20  1  0  0  0  0
  7 14  1  0  0  0  0
  8  9  1  0  0  0  0
  9 16  1  0  0  0  0
  9 11  1  0  0  0  0
 10  4  1  0  0  0  0
 10 12  1  0  0  0  0
 10 13  1  0  0  0  0
 14 15  1  0  0  0  0
 15 25  1  0  0  0  0
 16 20  1  0  0  0  0
 16  7  1  0  0  0  0
 17 12  1  0  0  0  0
 17 31  1  0  0  0  0
 18 13  1  0  0  0  0
 18  3  1  0  0  0  0
 19  6  1  0  0  0  0
 19  8  1  0  0  0  0
 24 30  1  0  0  0  0
 24 27  1  0  0  0  0
 25 27  1  0  0  0  0
 25 28  1  0  0  0  0
 26 21  1  0  0  0  0
 28 29  1  0  0  0  0
 28 26  1  0  0  0  0
 28 23  1  0  0  0  0
 29 23  1  0  0  0  0
 30 22  1  0  0  0  0
 30 26  1  0  0  0  0
 32 31  1  0  0  0  0
M  END
>  <MODEL>
8

>  <REMARK>
 VINA RESULT:      -5.0      2.939      6.884
  Name = 
  2 active torsions:
  status: ('A' for Active; 'I' for Inactive)
    1  A    between atoms: C_13  and  C_29
    2  A    between atoms: C_16  and  C_27
                            x       y       z     vdW  Elec       q    Type
                         _______ _______ _______ _____ _____    ______ ____

>  <TORSDO>
F 2

$$$$
=
 OpenBabel10272402053D

 32 38  0  0  1  0  0  0  0  0999 V2000
  184.6490  177.6060  137.8490 C   0  0  2  0  0  3  0  0  0  0  0  0
  182.5390  176.7530  136.8320 C   0  0  2  0  0  3  0  0  0  0  0  0
  185.3110  178.1860  139.1010 C   0  0  0  0  0  2  0  0  0  0  0  0
  183.1380  177.4490  138.0500 C   0  0  2  0  0  3  0  0  0  0  0  0
  181.0240  176.7830  136.9370 C   0  0  2  0  0  3  0  0  0  0  0  0
  181.4210  171.8390  136.3810 C   0  0  0  0  0  2  0  0  0  0  0  0
  183.1070  175.3330  136.6170 C   0  0  1  0  0  3  0  0  0  0  0  0
  179.9820  173.6660  135.7200 O   0  0  0  0  0  0  0  0  0  0  0  0
  180.5990  174.6070  136.5690 C   0  0  2  0  0  3  0  0  0  0  0  0
  182.4240  178.7780  138.4150 C   0  0  2  0  0  3  0  0  0  0  0  0
  180.4680  175.8930  136.0070 O   0  0  0  0  0  0  0  0  0  0  0  0
  181.5040  179.2960  137.3000 C   0  0  0  0  0  2  0  0  0  0  0  0
  183.4060  179.8730  138.8440 C   0  0  0  0  0  2  0  0  0  0  0  0
  184.4000  175.0940  137.4200 C   0  0  0  0  0  2  0  0  0  0  0  0
  185.3520  176.3100  137.3850 C   0  0  1  0  0  3  0  0  0  0  0  0
  182.0850  174.2200  136.8970 C   0  0  1  0  0  3  0  0  0  0  0  0
  180.5010  178.2310  136.8010 C   0  0  1  0  0  3  0  0  0  0  0  0
  184.4810  179.2960  139.7690 C   0  0  0  0  0  2  0  0  0  0  0  0
  180.0070  172.4360  136.3970 C   0  0  0  0  0  2  0  0  0  0  0  0
  182.4880  172.9220  136.1940 C   0  0  0  0  0  2  0  0  0  0  0  0
  189.4800  176.3940  135.0190 C   0  0  0  0  0  1  0  0  0  0  0  0
  189.5660  174.5810  137.2650 O   0  0  0  0  0  1  0  0  0  0  0  0
  187.3340  178.3710  134.9280 C   0  0  0  0  0  2  0  0  0  0  0  0
  187.4390  174.3380  136.1590 C   0  0  0  0  0  2  0  0  0  0  0  0
  186.0080  176.4710  135.9930 C   0  0  2  0  0  3  0  0  0  0  0  0
  188.6500  176.5950  136.2870 C   0  0  1  0  0  3  0  0  0  0  0  0
  186.3410  175.0970  135.3880 C   0  0  0  0  0  2  0  0  0  0  0  0
  187.3090  177.2980  136.0040 C   0  0  0  0  0  0  0  0  0  0  0  0
  187.2400  178.7630  136.3890 C   0  0  0  0  0  2  0  0  0  0  0  0
  188.3770  175.2490  136.9710 C   0  0  2  0  0  3  0  0  0  0  0  0
  179.9960  178.5830  135.3990 C   0  0  0  0  0  2  0  0  0  0  0  0
  181.0110  179.3930  134.6050 C   0  0  0  0  0  1  0  0  0  0  0  0
  1  4  1  0  0  0  0
  1  3  1  1  0  0  0
  2  5  1  0  0  0  0
  2  4  1  0  0  0  0
  3 18  1  0  0  0  0
  4 10  1  0  0  0  0
  6 19  1  0  0  0  0
  7  2  1  0  0  0  0
  7 16  1  0  0  0  0
  7 14  1  0  0  0  0
  8 19  1  0  0  0  0
  8  9  1  0  0  0  0
  9 16  1  0  0  0  0
 10 13  1  0  0  0  0
 11  9  1  0  0  0  0
 11  5  1  0  0  0  0
 12 10  1  0  0  0  0
 13 18  1  0  0  0  0
 15 14  1  0  0  0  0
 15  1  1  0  0  0  0
 17  5  1  0  0  0  0
 17 12  1  0  0  0  0
 20  6  1  0  0  0  0
 20 16  1  0  0  0  0
 21 26  1  0  0  0  0
 23 28  1  0  0  0  0
 23 29  1  0  0  0  0
 24 30  1  0  0  0  0
 25 28  1  0  0  0  0
 25 15  1  0  0  0  0
 26 30  1  0  0  0  0
 27 25  1  0  0  0  0
 27 24  1  0  0  0  0
 28 26  1  0  0  0  0
 28 29  1  0  0  0  0
 30 22  1  0  0  0  0
 31 17  1  0  0  0  0
 32 31  1  0  0  0  0
M  END
>  <MODEL>
9

>  <REMARK>
 VINA RESULT:      -5.0      3.237      7.650
  Name = 
  2 active torsions:
  status: ('A' for Active; 'I' for Inactive)
    1  A    between atoms: C_13  and  C_29
    2  A    between atoms: C_16  and  C_27
                            x       y       z     vdW  Elec       q    Type
                         _______ _______ _______ _____ _____    ______ ____

>  <TORSDO>
F 2

$$$$
