=
 OpenBabel10272413493D

 30 35  0  0  1  0  0  0  0  0999 V2000
  186.7650  178.3590  140.2250 C   0  0  0  0  0  0  0  0  0  0  0  0
  184.3770  178.4260  141.0120 C   0  0  0  0  0  0  0  0  0  0  0  0
  184.3590  177.7810  136.4590 C   0  0  0  0  0  2  0  0  0  0  0  0
  187.6020  178.1340  139.1260 O   0  0  0  0  0  0  0  0  0  0  0  0
  187.2990  178.4700  141.4040 N   0  0  0  0  0  0  0  0  0  0  0  0
  190.8750  177.2950  140.8270 C   0  0  0  0  0  2  0  0  0  0  0  0
  188.5120  176.5970  136.1890 C   0  0  2  0  0  3  0  0  0  0  0  0
  189.3510  177.3240  140.6940 C   0  0  1  0  0  3  0  0  0  0  0  0
  189.1360  178.2510  143.0140 C   0  0  0  0  0  2  0  0  0  0  0  0
  187.5450  176.0580  137.1360 N   0  0  2  0  0  0  0  0  0  0  0  0
  185.7380  177.4570  135.9320 C   0  0  1  0  0  3  0  0  0  0  0  0
  188.7520  178.4440  141.5510 C   0  0  2  0  0  3  0  0  0  0  0  0
  188.8120  177.3720  139.2470 C   0  0  2  0  0  3  0  0  0  0  0  0
  182.9620  178.7510  140.7340 C   0  0  0  0  0  3  0  0  0  0  0  0
  187.7900  174.6170  137.1760 C   0  0  0  0  0  2  0  0  0  0  0  0
  189.5140  175.5100  135.9230 C   0  0  0  0  0  2  0  0  0  0  0  0
  191.2620  177.1200  142.2950 C   0  0  0  0  0  2  0  0  0  0  0  0
  184.7180  178.0340  142.4110 C   0  0  0  0  0  1  0  0  0  0  0  0
  184.3570  177.5000  137.8950 N   0  0  1  0  0  0  0  0  0  0  0  0
  182.6110  179.3490  139.5930 C   0  0  0  0  0  3  0  0  0  0  0  0
  190.6590  178.2360  143.1480 C   0  0  0  0  0  2  0  0  0  0  0  0
  185.2950  178.4930  140.0140 C   0  0  0  0  0  0  0  0  0  0  0  0
  185.3170  176.4050  138.0660 C   0  0  0  0  0  2  0  0  0  0  0  0
  186.5500  178.5680  136.1660 O   0  0  0  0  0  1  0  0  0  0  0  0
  186.1280  176.2520  136.7880 C   0  0  2  0  0  3  0  0  0  0  0  0
  188.8450  174.2650  136.2340 N   0  0  0  0  0  2  0  0  0  0  0  0
  189.8280  177.7150  138.1490 C   0  0  0  0  0  2  0  0  0  0  0  0
  183.6650  179.7580  138.6040 C   0  0  0  0  0  2  0  0  0  0  0  0
  184.8070  178.7290  138.5860 C   0  0  2  0  0  3  0  0  0  0  0  0
  189.2000  177.8540  136.7530 C   0  0  0  0  0  2  0  0  0  0  0  0
  1  5  2  0  0  0  0
  2 18  1  0  0  0  0
  4 13  1  0  0  0  0
  4  1  1  0  0  0  0
  5 12  1  0  0  0  0
  6 17  1  0  0  0  0
  7 16  1  1  0  0  0
  7 30  1  0  0  0  0
  7 10  1  0  0  0  0
  8  6  1  6  0  0  0
  8 12  1  0  0  0  0
  9 21  1  0  0  0  0
 10 15  1  6  0  0  0
 11 24  1  1  0  0  0
 11  3  1  0  0  0  0
 11 25  1  0  0  0  0
 12  9  1  1  0  0  0
 13 27  1  6  0  0  0
 13  8  1  0  0  0  0
 14  2  1  0  0  0  0
 16 26  1  0  0  0  0
 17 21  1  0  0  0  0
 19  3  1  6  0  0  0
 19 23  1  0  0  0  0
 19 29  1  0  0  0  0
 20 14  2  0  0  0  0
 22  1  1  0  0  0  0
 22  2  2  0  0  0  0
 25 10  1  0  0  0  0
 25 23  1  1  0  0  0
 26 15  1  0  0  0  0
 28 20  1  0  0  0  0
 29 28  1  1  0  0  0
 29 22  1  0  0  0  0
 30 27  1  0  0  0  0
M  END
>  <MODEL>
1

>  <REMARK>
 VINA RESULT:      -6.7      0.000      0.000
  Name = 
  0 active torsions:
  status: ('A' for Active; 'I' for Inactive)
                            x       y       z     vdW  Elec       q    Type
                         _______ _______ _______ _____ _____    ______ ____

>  <TORSDO>
F 0

$$$$
=
 OpenBabel10272413493D

 30 35  0  0  1  0  0  0  0  0999 V2000
  184.6780  178.1300  139.0490 C   0  0  0  0  0  0  0  0  0  0  0  0
  184.0880  178.3790  141.4810 C   0  0  0  0  0  0  0  0  0  0  0  0
  180.3650  176.8420  139.2610 C   0  0  0  0  0  2  0  0  0  0  0  0
  184.2290  177.6810  137.8020 O   0  0  0  0  0  0  0  0  0  0  0  0
  185.9270  178.4670  139.1780 N   0  0  0  0  0  0  0  0  0  0  0  0
  187.4930  177.1600  135.9620 C   0  0  0  0  0  2  0  0  0  0  0  0
  182.4900  175.5800  135.7090 C   0  0  2  0  0  3  0  0  0  0  0  0
  186.5860  177.1790  137.1940 C   0  0  1  0  0  3  0  0  0  0  0  0
  188.2670  178.5510  138.4490 C   0  0  0  0  0  2  0  0  0  0  0  0
  182.8710  175.2510  137.0760 N   0  0  2  0  0  0  0  0  0  0  0  0
  180.6930  176.4040  137.8510 C   0  0  1  0  0  3  0  0  0  0  0  0
  186.8090  178.4540  138.0140 C   0  0  2  0  0  3  0  0  0  0  0  0
  185.0840  176.9450  136.9160 C   0  0  2  0  0  3  0  0  0  0  0  0
  183.0660  178.6600  142.5120 C   0  0  0  0  0  3  0  0  0  0  0  0
  183.2680  173.8440  137.0500 C   0  0  0  0  0  2  0  0  0  0  0  0
  182.9650  174.4510  134.8400 C   0  0  0  0  0  2  0  0  0  0  0  0
  188.9530  177.2750  136.3960 C   0  0  0  0  0  2  0  0  0  0  0  0
  185.5030  178.2700  141.9430 C   0  0  0  0  0  1  0  0  0  0  0  0
  181.6150  176.8530  140.0220 N   0  0  1  0  0  0  0  0  0  0  0  0
  181.8290  179.0230  142.1660 C   0  0  0  0  0  3  0  0  0  0  0  0
  189.1730  178.5450  137.2180 C   0  0  0  0  0  2  0  0  0  0  0  0
  183.7170  178.2360  140.1830 C   0  0  0  0  0  0  0  0  0  0  0  0
  182.4370  175.8020  139.4130 C   0  0  0  0  0  2  0  0  0  0  0  0
  181.1280  177.5300  137.1510 O   0  0  0  0  0  1  0  0  0  0  0  0
  181.8110  175.3890  138.0890 C   0  0  2  0  0  3  0  0  0  0  0  0
  183.0840  173.3000  135.7100 N   0  0  0  0  0  2  0  0  0  0  0  0
  184.6340  177.0510  135.4520 C   0  0  0  0  0  2  0  0  0  0  0  0
  181.4800  179.2140  140.7180 C   0  0  0  0  0  2  0  0  0  0  0  0
  182.2270  178.1890  139.8490 C   0  0  2  0  0  3  0  0  0  0  0  0
  183.1140  176.9160  135.2650 C   0  0  0  0  0  2  0  0  0  0  0  0
  1  5  2  0  0  0  0
  1 22  1  0  0  0  0
  2 18  1  0  0  0  0
  2 14  1  0  0  0  0
  4  1  1  0  0  0  0
  6 17  1  0  0  0  0
  7 16  1  6  0  0  0
  7 10  1  0  0  0  0
  8  6  1  6  0  0  0
  8 12  1  0  0  0  0
 10 15  1  6  0  0  0
 10 25  1  0  0  0  0
 11 24  1  6  0  0  0
 11 25  1  0  0  0  0
 11  3  1  0  0  0  0
 12  9  1  1  0  0  0
 12  5  1  0  0  0  0
 13 27  1  6  0  0  0
 13  8  1  0  0  0  0
 13  4  1  0  0  0  0
 16 26  1  0  0  0  0
 17 21  1  0  0  0  0
 19  3  1  6  0  0  0
 20 14  2  0  0  0  0
 21  9  1  0  0  0  0
 22  2  2  0  0  0  0
 23 19  1  0  0  0  0
 25 23  1  1  0  0  0
 26 15  1  0  0  0  0
 28 20  1  0  0  0  0
 29 19  1  0  0  0  0
 29 22  1  0  0  0  0
 29 28  1  1  0  0  0
 30 27  1  0  0  0  0
 30  7  1  0  0  0  0
M  END
>  <MODEL>
2

>  <REMARK>
 VINA RESULT:      -6.5      2.697      4.525
  Name = 
  0 active torsions:
  status: ('A' for Active; 'I' for Inactive)
                            x       y       z     vdW  Elec       q    Type
                         _______ _______ _______ _____ _____    ______ ____

>  <TORSDO>
F 0

$$$$
=
 OpenBabel10272413493D

 30 35  0  0  1  0  0  0  0  0999 V2000
  185.3370  177.8890  138.0960 C   0  0  0  0  0  0  0  0  0  0  0  0
  183.7360  178.9560  139.7150 C   0  0  0  0  0  0  0  0  0  0  0  0
  181.3000  176.3540  136.8100 C   0  0  0  0  0  2  0  0  0  0  0  0
  185.4620  176.9710  137.0470 O   0  0  0  0  0  0  0  0  0  0  0  0
  186.4170  178.3700  138.6360 N   0  0  0  0  0  0  0  0  0  0  0  0
  189.1460  176.1310  137.2100 C   0  0  0  0  0  2  0  0  0  0  0  0
  184.6820  174.0890  135.3440 C   0  0  2  0  0  3  0  0  0  0  0  0
  187.7860  176.5140  137.7960 C   0  0  1  0  0  3  0  0  0  0  0  0
  188.8310  178.4080  139.0620 C   0  0  0  0  0  2  0  0  0  0  0  0
  184.3750  174.3240  136.7480 N   0  0  2  0  0  0  0  0  0  0  0  0
  182.1890  175.4620  135.9740 C   0  0  1  0  0  3  0  0  0  0  0  0
  187.7240  178.0160  138.0910 C   0  0  2  0  0  3  0  0  0  0  0  0
  186.5580  176.0480  136.9830 C   0  0  2  0  0  3  0  0  0  0  0  0
  182.3870  179.4950  139.9910 C   0  0  0  0  0  3  0  0  0  0  0  0
  184.6180  173.0530  137.4270 C   0  0  0  0  0  2  0  0  0  0  0  0
  185.3990  172.7710  135.2700 C   0  0  0  0  0  2  0  0  0  0  0  0
  190.2580  176.5400  138.1750 C   0  0  0  0  0  2  0  0  0  0  0  0
  184.7740  179.1630  140.7670 C   0  0  0  0  0  1  0  0  0  0  0  0
  182.0670  176.7670  137.9860 N   0  0  1  0  0  0  0  0  0  0  0  0
  181.4750  179.5830  139.0200 C   0  0  0  0  0  3  0  0  0  0  0  0
  190.1910  178.0380  138.4700 C   0  0  0  0  0  2  0  0  0  0  0  0
  183.9800  178.3100  138.5470 C   0  0  0  0  0  0  0  0  0  0  0  0
  182.9820  175.6510  138.2480 C   0  0  0  0  0  2  0  0  0  0  0  0
  182.9880  176.2890  135.1820 O   0  0  0  0  0  1  0  0  0  0  0  0
  182.9880  174.7210  137.0450 C   0  0  2  0  0  3  0  0  0  0  0  0
  185.0130  172.0380  136.4570 N   0  0  0  0  0  2  0  0  0  0  0  0
  186.8280  175.5630  135.5520 C   0  0  0  0  0  2  0  0  0  0  0  0
  181.8350  179.1930  137.6150 C   0  0  0  0  0  2  0  0  0  0  0  0
  182.8030  177.9990  137.6240 C   0  0  2  0  0  3  0  0  0  0  0  0
  185.5510  175.2220  134.7680 C   0  0  0  0  0  2  0  0  0  0  0  0
  1 22  1  0  0  0  0
  1  5  2  0  0  0  0
  2 14  1  0  0  0  0
  2 18  1  0  0  0  0
  4  1  1  0  0  0  0
  6 17  1  0  0  0  0
  7 30  1  1  0  0  0
  7 10  1  0  0  0  0
  8  6  1  6  0  0  0
  8 12  1  0  0  0  0
 10 25  1  0  0  0  0
 10 15  1  1  0  0  0
 11 24  1  6  0  0  0
 11  3  1  0  0  0  0
 11 25  1  0  0  0  0
 12  5  1  0  0  0  0
 12  9  1  1  0  0  0
 13 27  1  6  0  0  0
 13  4  1  0  0  0  0
 13  8  1  0  0  0  0
 16  7  1  0  0  0  0
 16 26  1  0  0  0  0
 17 21  1  0  0  0  0
 19  3  1  6  0  0  0
 19 23  1  0  0  0  0
 20 14  2  0  0  0  0
 21  9  1  0  0  0  0
 22  2  2  0  0  0  0
 25 23  1  1  0  0  0
 26 15  1  0  0  0  0
 28 20  1  0  0  0  0
 29 28  1  1  0  0  0
 29 19  1  0  0  0  0
 29 22  1  0  0  0  0
 30 27  1  0  0  0  0
M  END
>  <MODEL>
3

>  <REMARK>
 VINA RESULT:      -6.2      2.382      3.497
  Name = 
  0 active torsions:
  status: ('A' for Active; 'I' for Inactive)
                            x       y       z     vdW  Elec       q    Type
                         _______ _______ _______ _____ _____    ______ ____

>  <TORSDO>
F 0

$$$$
=
 OpenBabel10272413493D

 30 35  0  0  1  0  0  0  0  0999 V2000
  187.4100  178.4870  141.0830 C   0  0  0  0  0  0  0  0  0  0  0  0
  186.7160  178.0680  138.7020 C   0  0  0  0  0  0  0  0  0  0  0  0
  191.2630  177.4470  138.9910 C   0  0  0  0  0  2  0  0  0  0  0  0
  188.4740  178.4390  141.9900 O   0  0  0  0  0  0  0  0  0  0  0  0
  186.2110  178.6990  141.5380 N   0  0  0  0  0  0  0  0  0  0  0  0
  186.6440  178.2720  145.2970 C   0  0  0  0  0  2  0  0  0  0  0  0
  191.3670  177.1270  143.3050 C   0  0  2  0  0  3  0  0  0  0  0  0
  186.8360  177.9930  143.8050 C   0  0  1  0  0  3  0  0  0  0  0  0
  184.5310  178.8500  143.3170 C   0  0  0  0  0  2  0  0  0  0  0  0
  190.4550  176.4010  142.4310 N   0  0  2  0  0  0  0  0  0  0  0  0
  191.7350  177.4100  140.4270 C   0  0  1  0  0  3  0  0  0  0  0  0
  186.0080  178.9660  142.9590 C   0  0  2  0  0  3  0  0  0  0  0  0
  188.3030  177.9360  143.3230 C   0  0  2  0  0  3  0  0  0  0  0  0
  187.0500  178.1020  137.2620 C   0  0  0  0  0  3  0  0  0  0  0  0
  190.4000  175.0380  142.9590 C   0  0  0  0  0  2  0  0  0  0  0  0
  191.5890  176.2650  144.5150 C   0  0  0  0  0  2  0  0  0  0  0  0
  185.1620  178.1730  145.6540 C   0  0  0  0  0  2  0  0  0  0  0  0
  185.3030  177.7480  139.0600 C   0  0  0  0  0  1  0  0  0  0  0  0
  189.8270  177.1680  138.9900 N   0  0  1  0  0  0  0  0  0  0  0  0
  188.2070  178.6210  136.8420 C   0  0  0  0  0  3  0  0  0  0  0  0
  184.3370  179.1410  144.8050 C   0  0  0  0  0  2  0  0  0  0  0  0
  187.6780  178.3220  139.6260 C   0  0  0  0  0  0  0  0  0  0  0  0
  189.6140  176.2880  140.1440 C   0  0  0  0  0  2  0  0  0  0  0  0
  191.4750  178.6620  140.9880 O   0  0  0  0  0  1  0  0  0  0  0  0
  190.8590  176.3060  141.0180 C   0  0  2  0  0  3  0  0  0  0  0  0
  191.2990  174.9100  144.1000 N   0  0  0  0  0  2  0  0  0  0  0  0
  189.3620  178.4810  144.2910 C   0  0  0  0  0  2  0  0  0  0  0  0
  189.1560  179.2370  137.8300 C   0  0  0  0  0  2  0  0  0  0  0  0
  189.1240  178.4600  139.1560 C   0  0  2  0  0  3  0  0  0  0  0  0
  190.7820  178.4950  143.7020 C   0  0  0  0  0  2  0  0  0  0  0  0
  1  5  2  0  0  0  0
  1  4  1  0  0  0  0
  2 18  1  0  0  0  0
  2 22  2  0  0  0  0
  3 11  1  0  0  0  0
  4 13  1  0  0  0  0
  5 12  1  0  0  0  0
  6 17  1  0  0  0  0
  7 30  1  1  0  0  0
  7 16  1  0  0  0  0
  8  6  1  1  0  0  0
  9 21  1  0  0  0  0
 10 15  1  1  0  0  0
 10  7  1  0  0  0  0
 11 24  1  1  0  0  0
 11 25  1  0  0  0  0
 12  9  1  1  0  0  0
 12  8  1  0  0  0  0
 13  8  1  0  0  0  0
 13 27  1  1  0  0  0
 14  2  1  0  0  0  0
 15 26  1  0  0  0  0
 19  3  1  1  0  0  0
 19 29  1  0  0  0  0
 19 23  1  0  0  0  0
 20 14  2  0  0  0  0
 20 28  1  0  0  0  0
 21 17  1  0  0  0  0
 22  1  1  0  0  0  0
 25 23  1  6  0  0  0
 25 10  1  0  0  0  0
 26 16  1  0  0  0  0
 29 28  1  6  0  0  0
 29 22  1  0  0  0  0
 30 27  1  0  0  0  0
M  END
>  <MODEL>
4

>  <REMARK>
 VINA RESULT:      -6.1      2.516      5.718
  Name = 
  0 active torsions:
  status: ('A' for Active; 'I' for Inactive)
                            x       y       z     vdW  Elec       q    Type
                         _______ _______ _______ _____ _____    ______ ____

>  <TORSDO>
F 0

$$$$
=
 OpenBabel10272413493D

 30 35  0  0  1  0  0  0  0  0999 V2000
  184.7050  178.2020  139.3170 C   0  0  0  0  0  0  0  0  0  0  0  0
  183.4000  178.4150  141.4570 C   0  0  0  0  0  0  0  0  0  0  0  0
  180.4880  177.1410  138.1350 C   0  0  0  0  0  2  0  0  0  0  0  0
  184.6450  177.8130  137.9750 O   0  0  0  0  0  0  0  0  0  0  0  0
  185.8650  178.4680  139.8390 N   0  0  0  0  0  0  0  0  0  0  0  0
  188.2930  177.1700  137.2090 C   0  0  0  0  0  2  0  0  0  0  0  0
  183.5530  175.8670  135.3590 C   0  0  2  0  0  3  0  0  0  0  0  0
  187.0510  177.2030  138.1010 C   0  0  1  0  0  3  0  0  0  0  0  0
  188.3170  178.4480  139.8700 C   0  0  0  0  0  2  0  0  0  0  0  0
  183.4780  175.4810  136.7610 N   0  0  2  0  0  0  0  0  0  0  0  0
  181.2170  176.7250  136.8770 C   0  0  1  0  0  3  0  0  0  0  0  0
  187.0620  178.4410  139.0040 C   0  0  2  0  0  3  0  0  0  0  0  0
  185.7000  177.0570  137.3640 C   0  0  2  0  0  3  0  0  0  0  0  0
  182.1230  178.7210  142.1350 C   0  0  0  0  0  3  0  0  0  0  0  0
  183.8030  174.0560  136.7990 C   0  0  0  0  0  2  0  0  0  0  0  0
  184.2260  174.7390  134.6310 C   0  0  0  0  0  2  0  0  0  0  0  0
  189.5510  177.1950  138.0760 C   0  0  0  0  0  2  0  0  0  0  0  0
  184.5960  178.2170  142.3280 C   0  0  0  0  0  1  0  0  0  0  0  0
  181.4400  177.0640  139.2430 N   0  0  1  0  0  0  0  0  0  0  0  0
  181.0690  179.1590  141.4400 C   0  0  0  0  0  3  0  0  0  0  0  0
  189.5580  178.4280  138.9790 C   0  0  0  0  0  2  0  0  0  0  0  0
  183.4440  178.3280  140.1030 C   0  0  0  0  0  0  0  0  0  0  0  0
  182.3640  175.9890  138.8720 C   0  0  0  0  0  2  0  0  0  0  0  0
  181.8950  177.8460  136.3940 O   0  0  0  0  0  1  0  0  0  0  0  0
  182.1630  175.6460  137.4030 C   0  0  2  0  0  3  0  0  0  0  0  0
  184.0200  173.5590  135.4450 N   0  0  0  0  0  2  0  0  0  0  0  0
  185.7310  177.2280  135.8390 C   0  0  0  0  0  2  0  0  0  0  0  0
  181.1950  179.4090  139.9640 C   0  0  0  0  0  2  0  0  0  0  0  0
  182.1310  178.3700  139.3250 C   0  0  2  0  0  3  0  0  0  0  0  0
  184.3400  177.1800  135.1870 C   0  0  0  0  0  2  0  0  0  0  0  0
  1  5  2  0  0  0  0
  1 22  1  0  0  0  0
  2 14  1  0  0  0  0
  2 18  1  0  0  0  0
  4  1  1  0  0  0  0
  6 17  1  0  0  0  0
  7 16  1  6  0  0  0
  7 10  1  0  0  0  0
  8  6  1  6  0  0  0
  8 12  1  0  0  0  0
 10 15  1  6  0  0  0
 10 25  1  0  0  0  0
 11 24  1  1  0  0  0
 11 25  1  0  0  0  0
 11  3  1  0  0  0  0
 12  5  1  0  0  0  0
 12  9  1  1  0  0  0
 13 27  1  6  0  0  0
 13  4  1  0  0  0  0
 13  8  1  0  0  0  0
 16 26  1  0  0  0  0
 17 21  1  0  0  0  0
 19  3  1  6  0  0  0
 19 29  1  0  0  0  0
 20 14  2  0  0  0  0
 21  9  1  0  0  0  0
 22  2  2  0  0  0  0
 23 19  1  0  0  0  0
 25 23  1  1  0  0  0
 26 15  1  0  0  0  0
 28 20  1  0  0  0  0
 29 28  1  1  0  0  0
 29 22  1  0  0  0  0
 30  7  1  0  0  0  0
 30 27  1  0  0  0  0
M  END
>  <MODEL>
5

>  <REMARK>
 VINA RESULT:      -6.1      2.354      3.718
  Name = 
  0 active torsions:
  status: ('A' for Active; 'I' for Inactive)
                            x       y       z     vdW  Elec       q    Type
                         _______ _______ _______ _____ _____    ______ ____

>  <TORSDO>
F 0

$$$$
=
 OpenBabel10272413493D

 30 35  0  0  1  0  0  0  0  0999 V2000
  187.4150  178.1460  141.1900 C   0  0  0  0  0  0  0  0  0  0  0  0
  186.5600  177.8420  143.5350 C   0  0  0  0  0  0  0  0  0  0  0  0
  183.0360  179.1630  140.8950 C   0  0  0  0  0  2  0  0  0  0  0  0
  187.0530  178.4130  139.8650 O   0  0  0  0  0  0  0  0  0  0  0  0
  188.6310  177.7600  141.4380 N   0  0  0  0  0  0  0  0  0  0  0  0
  189.9990  176.9870  137.9690 C   0  0  0  0  0  2  0  0  0  0  0  0
  184.9730  178.2620  137.1320 C   0  0  2  0  0  3  0  0  0  0  0  0
  188.9880  177.0470  139.1160 C   0  0  1  0  0  3  0  0  0  0  0  0
  190.8420  176.9130  140.7980 C   0  0  0  0  0  2  0  0  0  0  0  0
  184.8990  177.3620  138.2750 N   0  0  2  0  0  0  0  0  0  0  0  0
  183.3840  179.1100  139.4240 C   0  0  1  0  0  3  0  0  0  0  0  0
  189.6100  177.6960  140.3560 C   0  0  2  0  0  3  0  0  0  0  0  0
  187.6270  177.6890  138.7680 C   0  0  2  0  0  3  0  0  0  0  0  0
  185.6070  178.2330  144.5950 C   0  0  0  0  0  3  0  0  0  0  0  0
  184.6070  176.0400  137.7210 C   0  0  0  0  0  2  0  0  0  0  0  0
  185.0340  177.4020  135.9020 C   0  0  0  0  0  2  0  0  0  0  0  0
  191.2410  176.2180  138.4160 C   0  0  0  0  0  2  0  0  0  0  0  0
  187.6550  176.9040  143.9250 C   0  0  0  0  0  1  0  0  0  0  0  0
  183.9860  178.3070  141.6050 N   0  0  1  0  0  0  0  0  0  0  0  0
  184.7600  179.2490  144.4100 C   0  0  0  0  0  3  0  0  0  0  0  0
  191.8580  176.8650  139.6570 C   0  0  0  0  0  2  0  0  0  0  0  0
  186.4150  178.3340  142.2790 C   0  0  0  0  0  0  0  0  0  0  0  0
  184.3350  177.2550  140.6460 C   0  0  0  0  0  2  0  0  0  0  0  0
  184.4080  180.0330  139.2010 O   0  0  0  0  0  1  0  0  0  0  0  0
  183.8500  177.6630  139.2630 C   0  0  2  0  0  3  0  0  0  0  0  0
  184.4500  176.1310  136.2740 N   0  0  0  0  0  2  0  0  0  0  0  0
  187.5570  178.4750  137.4520 C   0  0  0  0  0  2  0  0  0  0  0  0
  184.8150  180.0500  143.1400 C   0  0  0  0  0  2  0  0  0  0  0  0
  185.1600  179.1400  141.9500 C   0  0  2  0  0  3  0  0  0  0  0  0
  186.2080  179.1770  137.2260 C   0  0  0  0  0  2  0  0  0  0  0  0
  1  5  2  0  0  0  0
  1 22  1  0  0  0  0
  2 18  1  0  0  0  0
  2 14  1  0  0  0  0
  3 19  1  0  0  0  0
  4  1  1  0  0  0  0
  6 17  1  0  0  0  0
  7 16  1  6  0  0  0
  7 30  1  0  0  0  0
  7 10  1  0  0  0  0
  8  6  1  6  0  0  0
  8 12  1  0  0  0  0
 10 15  1  6  0  0  0
 10 25  1  0  0  0  0
 11 24  1  1  0  0  0
 11  3  1  0  0  0  0
 12  9  1  1  0  0  0
 12  5  1  0  0  0  0
 13 27  1  6  0  0  0
 13  8  1  0  0  0  0
 13  4  1  0  0  0  0
 16 26  1  0  0  0  0
 17 21  1  0  0  0  0
 19 23  1  6  0  0  0
 19 29  1  0  0  0  0
 20 14  2  0  0  0  0
 21  9  1  0  0  0  0
 22  2  2  0  0  0  0
 25 11  1  0  0  0  0
 25 23  1  1  0  0  0
 26 15  1  0  0  0  0
 28 20  1  0  0  0  0
 29 22  1  0  0  0  0
 29 28  1  1  0  0  0
 30 27  1  0  0  0  0
M  END
>  <MODEL>
6

>  <REMARK>
 VINA RESULT:      -6.0      1.928      3.529
  Name = 
  0 active torsions:
  status: ('A' for Active; 'I' for Inactive)
                            x       y       z     vdW  Elec       q    Type
                         _______ _______ _______ _____ _____    ______ ____

>  <TORSDO>
F 0

$$$$
=
 OpenBabel10272413493D

 30 35  0  0  1  0  0  0  0  0999 V2000
  186.7490  178.3250  141.4210 C   0  0  0  0  0  0  0  0  0  0  0  0
  186.3530  178.0390  143.8880 C   0  0  0  0  0  0  0  0  0  0  0  0
  182.3430  179.1290  141.9180 C   0  0  0  0  0  2  0  0  0  0  0  0
  186.1380  178.5430  140.1810 O   0  0  0  0  0  0  0  0  0  0  0  0
  188.0080  178.0030  141.4480 N   0  0  0  0  0  0  0  0  0  0  0  0
  188.7570  177.2100  137.7990 C   0  0  0  0  0  2  0  0  0  0  0  0
  183.6050  178.2280  137.8780 C   0  0  2  0  0  3  0  0  0  0  0  0
  187.9710  177.2510  139.1110 C   0  0  1  0  0  3  0  0  0  0  0  0
  190.1050  177.2450  140.4260 C   0  0  0  0  0  2  0  0  0  0  0  0
  183.7860  177.3530  139.0290 N   0  0  2  0  0  0  0  0  0  0  0  0
  182.4200  179.0560  140.4090 C   0  0  1  0  0  3  0  0  0  0  0  0
  188.7750  177.9580  140.2060 C   0  0  2  0  0  3  0  0  0  0  0  0
  186.5380  177.8200  139.0080 C   0  0  2  0  0  3  0  0  0  0  0  0
  185.5900  178.4110  145.0980 C   0  0  0  0  0  3  0  0  0  0  0  0
  183.4650  176.0060  138.5590 C   0  0  0  0  0  2  0  0  0  0  0  0
  183.4840  177.3410  136.6720 C   0  0  0  0  0  2  0  0  0  0  0  0
  190.0970  176.5110  138.0230 C   0  0  0  0  0  2  0  0  0  0  0  0
  187.5460  177.1640  144.0840 C   0  0  0  0  0  1  0  0  0  0  0  0
  183.4490  178.3360  142.4550 N   0  0  1  0  0  0  0  0  0  0  0  0
  184.6730  179.3820  145.0550 C   0  0  0  0  0  3  0  0  0  0  0  0
  190.8960  177.2170  139.1190 C   0  0  0  0  0  2  0  0  0  0  0  0
  185.9560  178.4930  142.6710 C   0  0  0  0  0  0  0  0  0  0  0  0
  183.6710  177.2780  141.4650 C   0  0  0  0  0  2  0  0  0  0  0  0
  183.3380  180.0200  139.9880 O   0  0  0  0  0  1  0  0  0  0  0  0
  182.9210  177.6300  140.1880 C   0  0  2  0  0  3  0  0  0  0  0  0
  183.0420  176.0540  137.1640 N   0  0  0  0  0  2  0  0  0  0  0  0
  186.1900  178.5690  137.7150 C   0  0  0  0  0  2  0  0  0  0  0  0
  184.4550  180.1530  143.7850 C   0  0  0  0  0  2  0  0  0  0  0  0
  184.6230  179.2310  142.5660 C   0  0  2  0  0  3  0  0  0  0  0  0
  184.7890  179.2020  137.7300 C   0  0  0  0  0  2  0  0  0  0  0  0
  1  5  2  0  0  0  0
  1 22  1  0  0  0  0
  2 18  1  0  0  0  0
  2 14  1  0  0  0  0
  3 19  1  0  0  0  0
  4  1  1  0  0  0  0
  6 17  1  0  0  0  0
  7 16  1  6  0  0  0
  7 10  1  0  0  0  0
  8  6  1  6  0  0  0
  8 12  1  0  0  0  0
 10 15  1  6  0  0  0
 10 25  1  0  0  0  0
 11 24  1  1  0  0  0
 11  3  1  0  0  0  0
 12  9  1  1  0  0  0
 12  5  1  0  0  0  0
 13 27  1  6  0  0  0
 13  8  1  0  0  0  0
 13  4  1  0  0  0  0
 16 26  1  0  0  0  0
 17 21  1  0  0  0  0
 19 23  1  6  0  0  0
 19 29  1  0  0  0  0
 20 14  2  0  0  0  0
 21  9  1  0  0  0  0
 22  2  2  0  0  0  0
 25 11  1  0  0  0  0
 25 23  1  1  0  0  0
 26 15  1  0  0  0  0
 27 30  1  0  0  0  0
 28 20  1  0  0  0  0
 29 22  1  0  0  0  0
 29 28  1  1  0  0  0
 30  7  1  0  0  0  0
M  END
>  <MODEL>
7

>  <REMARK>
 VINA RESULT:      -5.6      2.236      4.304
  Name = 
  0 active torsions:
  status: ('A' for Active; 'I' for Inactive)
                            x       y       z     vdW  Elec       q    Type
                         _______ _______ _______ _____ _____    ______ ____

>  <TORSDO>
F 0

$$$$
=
 OpenBabel10272413493D

 30 35  0  0  1  0  0  0  0  0999 V2000
  185.3290  174.4270  136.7430 C   0  0  0  0  0  0  0  0  0  0  0  0
  185.3480  172.2280  135.5230 C   0  0  0  0  0  0  0  0  0  0  0  0
  180.9810  173.2630  136.5280 C   0  0  0  0  0  2  0  0  0  0  0  0
  184.5160  175.4300  137.2820 O   0  0  0  0  0  0  0  0  0  0  0  0
  186.6090  174.6390  136.6590 N   0  0  0  0  0  0  0  0  0  0  0  0
  186.8980  178.3670  137.3780 C   0  0  0  0  0  2  0  0  0  0  0  0
  181.7280  177.4390  137.3790 C   0  0  2  0  0  3  0  0  0  0  0  0
  186.3190  177.0730  136.8050 C   0  0  1  0  0  3  0  0  0  0  0  0
  188.6080  176.0580  136.7010 C   0  0  0  0  0  2  0  0  0  0  0  0
  182.1910  176.7280  136.1940 N   0  0  2  0  0  0  0  0  0  0  0  0
  180.8400  174.6860  137.0180 C   0  0  1  0  0  3  0  0  0  0  0  0
  187.1800  175.8690  137.2000 C   0  0  2  0  0  3  0  0  0  0  0  0
  184.8250  176.8200  137.1120 C   0  0  2  0  0  3  0  0  0  0  0  0
  184.7330  170.9030  135.2940 C   0  0  0  0  0  3  0  0  0  0  0  0
  181.9800  177.6430  135.0730 C   0  0  0  0  0  2  0  0  0  0  0  0
  181.5430  178.8750  136.9790 C   0  0  0  0  0  2  0  0  0  0  0  0
  188.3350  178.5480  136.8930 C   0  0  0  0  0  2  0  0  0  0  0  0
  186.6590  172.4880  134.8600 C   0  0  0  0  0  1  0  0  0  0  0  0
  182.2480  173.1690  135.8010 N   0  0  1  0  0  0  0  0  0  0  0  0
  183.7040  170.4900  136.0380 C   0  0  0  0  0  3  0  0  0  0  0  0
  189.1920  177.3440  137.2850 C   0  0  0  0  0  2  0  0  0  0  0  0
  184.7180  173.1390  136.3070 C   0  0  0  0  0  0  0  0  0  0  0  0
  182.4530  174.5030  135.2280 C   0  0  0  0  0  2  0  0  0  0  0  0
  181.5520  174.7920  138.2140 O   0  0  0  0  0  1  0  0  0  0  0  0
  181.4810  175.4770  135.8780 C   0  0  2  0  0  3  0  0  0  0  0  0
  181.3490  178.8700  135.5450 N   0  0  0  0  0  2  0  0  0  0  0  0
  184.1940  177.6950  138.2030 C   0  0  0  0  0  2  0  0  0  0  0  0
  183.2000  171.3480  137.1640 C   0  0  0  0  0  2  0  0  0  0  0  0
  183.3000  172.8350  136.7870 C   0  0  2  0  0  3  0  0  0  0  0  0
  182.7410  177.3140  138.5320 C   0  0  0  0  0  2  0  0  0  0  0  0
  1  4  1  0  0  0  0
  2 22  2  0  0  0  0
  3 11  1  0  0  0  0
  5  1  2  0  0  0  0
  5 12  1  0  0  0  0
  7 16  1  6  0  0  0
  7 30  1  0  0  0  0
  8 13  1  0  0  0  0
  8 12  1  0  0  0  0
  8  6  1  1  0  0  0
  9 21  1  0  0  0  0
 10 15  1  6  0  0  0
 10  7  1  0  0  0  0
 11 24  1  1  0  0  0
 12  9  1  6  0  0  0
 13  4  1  0  0  0  0
 13 27  1  1  0  0  0
 14  2  1  0  0  0  0
 14 20  2  0  0  0  0
 15 26  1  0  0  0  0
 17 21  1  0  0  0  0
 17  6  1  0  0  0  0
 18  2  1  0  0  0  0
 19 23  1  1  0  0  0
 19  3  1  0  0  0  0
 19 29  1  0  0  0  0
 20 28  1  0  0  0  0
 22  1  1  0  0  0  0
 22 29  1  0  0  0  0
 25 23  1  1  0  0  0
 25 10  1  0  0  0  0
 25 11  1  0  0  0  0
 26 16  1  0  0  0  0
 27 30  1  0  0  0  0
 29 28  1  6  0  0  0
M  END
>  <MODEL>
8

>  <REMARK>
 VINA RESULT:      -5.6      3.605      6.709
  Name = 
  0 active torsions:
  status: ('A' for Active; 'I' for Inactive)
                            x       y       z     vdW  Elec       q    Type
                         _______ _______ _______ _____ _____    ______ ____

>  <TORSDO>
F 0

$$$$
=
 OpenBabel10272413493D

 30 35  0  0  1  0  0  0  0  0999 V2000
  185.1960  175.0560  136.6130 C   0  0  0  0  0  0  0  0  0  0  0  0
  185.1200  172.5450  136.5040 C   0  0  0  0  0  0  0  0  0  0  0  0
  189.4130  173.8840  135.5430 C   0  0  0  0  0  2  0  0  0  0  0  0
  186.0280  176.1800  136.5580 O   0  0  0  0  0  0  0  0  0  0  0  0
  183.9600  175.2130  136.9850 N   0  0  0  0  0  0  0  0  0  0  0  0
  183.9310  178.7660  138.3540 C   0  0  0  0  0  2  0  0  0  0  0  0
  188.9570  177.8940  137.1020 C   0  0  2  0  0  3  0  0  0  0  0  0
  184.4530  177.3540  138.0790 C   0  0  1  0  0  3  0  0  0  0  0  0
  182.1080  176.4730  137.9820 C   0  0  0  0  0  2  0  0  0  0  0  0
  188.5750  176.6740  137.8000 N   0  0  2  0  0  0  0  0  0  0  0  0
  189.6260  175.3500  135.8470 C   0  0  1  0  0  3  0  0  0  0  0  0
  183.4440  176.5520  137.2520 C   0  0  2  0  0  3  0  0  0  0  0  0
  185.8700  177.2770  137.4670 C   0  0  2  0  0  3  0  0  0  0  0  0
  185.6330  171.2880  135.9180 C   0  0  0  0  0  3  0  0  0  0  0  0
  189.0010  176.8590  139.1860 C   0  0  0  0  0  2  0  0  0  0  0  0
  189.3200  178.9030  138.1550 C   0  0  0  0  0  2  0  0  0  0  0  0
  182.5840  178.6880  139.0710 C   0  0  0  0  0  2  0  0  0  0  0  0
  183.9260  172.4380  137.3930 C   0  0  0  0  0  1  0  0  0  0  0  0
  188.2380  173.4420  136.2950 N   0  0  1  0  0  0  0  0  0  0  0  0
  186.5250  171.3120  134.9250 C   0  0  0  0  0  3  0  0  0  0  0  0
  181.5800  177.8830  138.2440 C   0  0  0  0  0  2  0  0  0  0  0  0
  185.7340  173.7220  136.2220 C   0  0  0  0  0  0  0  0  0  0  0  0
  188.2260  174.2780  137.5000 C   0  0  0  0  0  2  0  0  0  0  0  0
  188.7890  176.0800  135.0010 O   0  0  0  0  0  1  0  0  0  0  0  0
  189.1990  175.4330  137.3120 C   0  0  2  0  0  3  0  0  0  0  0  0
  189.6810  178.1410  139.3310 N   0  0  0  0  0  2  0  0  0  0  0  0
  186.4450  178.5850  136.9080 C   0  0  0  0  0  2  0  0  0  0  0  0
  186.9680  172.6250  134.3460 C   0  0  0  0  0  2  0  0  0  0  0  0
  187.0500  173.6930  135.4480 C   0  0  2  0  0  3  0  0  0  0  0  0
  187.8080  178.4110  136.2170 C   0  0  0  0  0  2  0  0  0  0  0  0
  1  5  2  0  0  0  0
  2 18  1  0  0  0  0
  3 11  1  0  0  0  0
  4  1  1  0  0  0  0
  4 13  1  0  0  0  0
  5 12  1  0  0  0  0
  6 17  1  0  0  0  0
  7 30  1  1  0  0  0
  7 10  1  0  0  0  0
  7 16  1  0  0  0  0
  8  6  1  6  0  0  0
  9 21  1  0  0  0  0
 10 15  1  1  0  0  0
 11 24  1  6  0  0  0
 11 25  1  0  0  0  0
 12  9  1  1  0  0  0
 12  8  1  0  0  0  0
 13 27  1  6  0  0  0
 13  8  1  0  0  0  0
 14  2  1  0  0  0  0
 15 26  1  0  0  0  0
 16 26  1  0  0  0  0
 19  3  1  6  0  0  0
 19 23  1  0  0  0  0
 20 14  2  0  0  0  0
 21 17  1  0  0  0  0
 22  2  2  0  0  0  0
 22  1  1  0  0  0  0
 25 23  1  6  0  0  0
 25 10  1  0  0  0  0
 28 20  1  0  0  0  0
 29 28  1  6  0  0  0
 29 22  1  0  0  0  0
 29 19  1  0  0  0  0
 30 27  1  0  0  0  0
M  END
>  <MODEL>
9

>  <REMARK>
 VINA RESULT:      -5.0      2.328      6.232
  Name = 
  0 active torsions:
  status: ('A' for Active; 'I' for Inactive)
                            x       y       z     vdW  Elec       q    Type
                         _______ _______ _______ _____ _____    ______ ____

>  <TORSDO>
F 0

$$$$
