=
 OpenBabel10272414043D

 43 48  0  0  1  0  0  0  0  0999 V2000
  188.1330  177.3350  147.2040 C   0  0  0  0  0  0  0  0  0  0  0  0
  188.9360  178.1200  142.1920 C   0  0  0  0  0  0  0  0  0  0  0  0
  186.3300  178.6180  141.1940 C   0  0  0  0  0  0  0  0  0  0  0  0
  189.2090  177.6310  144.9430 C   0  0  0  0  0  0  0  0  0  0  0  0
  186.8270  177.5250  146.5590 C   0  0  0  0  0  3  0  0  0  0  0  0
  188.1820  177.1280  148.4420 O   0  0  0  0  0  0  0  0  0  0  0  0
  187.9240  177.7990  144.3850 C   0  0  0  0  0  0  0  0  0  0  0  0
  189.4100  177.3710  146.4120 C   0  0  0  0  0  2  0  0  0  0  0  0
  186.7310  177.7390  145.2490 C   0  0  0  0  0  3  0  0  0  0  0  0
  186.4890  178.2490  142.4310 N   0  0  0  0  0  0  0  0  0  0  0  0
  187.7880  178.0460  143.0060 C   0  0  0  0  0  0  0  0  0  0  0  0
  190.2040  177.9560  142.7570 C   0  0  0  0  0  3  0  0  0  0  0  0
  188.8000  178.3130  140.7080 C   0  0  2  0  0  3  0  0  0  0  0  0
  187.4770  178.8320  140.3600 N   0  0  0  0  0  2  0  0  0  0  0  0
  190.3380  177.7160  144.1240 C   0  0  0  0  0  3  0  0  0  0  0  0
  184.9780  178.8550  140.6660 C   0  0  0  0  0  0  0  0  0  0  0  0
  184.8020  179.6710  139.7240 O   0  0  0  0  0  0  0  0  0  0  0  0
  183.7950  178.1580  141.2510 C   0  0  0  0  0  2  0  0  0  0  0  0
  182.5230  178.5650  140.5250 C   0  0  2  0  0  3  0  0  0  0  0  0
  181.5830  179.0280  141.4450 O   0  0  0  0  0  1  0  0  0  0  0  0
  181.9450  177.3730  139.7810 C   0  0  0  0  0  2  0  0  0  0  0  0
  181.9840  177.6060  138.3450 N   0  0  0  0  0  0  0  0  0  0  0  0
  182.4800  177.3880  136.1800 N   0  0  0  0  0  0  0  0  0  0  0  0
  181.3080  178.5560  137.6790 C   0  0  0  0  0  3  0  0  0  0  0  0
  182.6780  176.9140  137.4230 C   0  0  0  0  0  0  0  0  0  0  0  0
  181.6190  178.4170  136.3360 C   0  0  0  0  0  3  0  0  0  0  0  0
  183.5780  175.7560  137.7480 C   0  0  1  0  0  3  0  0  0  0  0  0
  183.1190  174.6090  137.1250 F   0  0  0  0  0  0  0  0  0  0  0  0
  184.9540  176.0250  137.3500 N   0  0  0  0  0  0  0  0  0  0  0  0
  187.3940  178.6830  136.7970 C   0  0  0  0  0  1  0  0  0  0  0  0
  187.4140  175.8410  136.3960 S   0  0  0  0  0  0  0  0  0  0  0  0
  186.6700  177.3900  136.8850 C   0  0  0  0  0  0  0  0  0  0  0  0
  185.8560  174.9970  136.8500 C   0  0  0  0  0  2  0  0  0  0  0  0
  185.4650  177.3210  137.3290 N   0  0  0  0  0  0  0  0  0  0  0  0
  189.0320  176.9900  139.9950 C   0  0  0  0  0  2  0  0  0  0  0  0
  189.8040  177.1940  138.8480 O   0  0  0  0  0  0  0  0  0  0  0  0
  191.3140  175.7970  137.6640 C   0  0  0  0  0  2  0  0  0  0  0  0
  192.8190  175.7290  137.7440 C   0  0  2  0  0  3  0  0  0  0  0  0
  192.1010  177.1390  139.4790 C   0  0  0  0  0  2  0  0  0  0  0  0
  190.9020  176.3470  139.0010 C   0  0  1  0  0  3  0  0  0  0  0  0
  193.2660  176.7420  138.6940 N   0  0  0  0  0  2  0  0  0  0  0  0
  194.6510  176.6280  136.5080 O   0  0  0  0  0  1  0  0  0  0  0  0
  193.4150  175.9930  136.3750 C   0  0  0  0  0  2  0  0  0  0  0  0
  1  6  2  0  0  0  0
  2 12  2  0  0  0  0
  2 11  1  0  0  0  0
  3 10  2  0  0  0  0
  4  8  1  0  0  0  0
  5  1  1  0  0  0  0
  7  4  1  0  0  0  0
  7  9  1  0  0  0  0
  8  1  1  0  0  0  0
  9  5  2  0  0  0  0
 10 11  1  0  0  0  0
 11  7  2  0  0  0  0
 12 15  1  0  0  0  0
 13 35  1  6  0  0  0
 13  2  1  0  0  0  0
 14 13  1  0  0  0  0
 14  3  1  0  0  0  0
 15  4  2  0  0  0  0
 16  3  1  0  0  0  0
 16 18  1  0  0  0  0
 17 16  2  0  0  0  0
 19 18  1  0  0  0  0
 19 20  1  1  0  0  0
 21 19  1  0  0  0  0
 22 21  1  0  0  0  0
 23 26  1  0  0  0  0
 23 25  2  0  0  0  0
 24 22  1  0  0  0  0
 25 27  1  0  0  0  0
 25 22  1  0  0  0  0
 26 24  2  0  0  0  0
 27 28  1  6  0  0  0
 29 27  1  0  0  0  0
 30 32  1  0  0  0  0
 31 33  1  0  0  0  0
 31 32  1  0  0  0  0
 32 34  2  0  0  0  0
 33 29  1  0  0  0  0
 34 29  1  0  0  0  0
 36 35  1  0  0  0  0
 37 38  1  0  0  0  0
 37 40  1  0  0  0  0
 38 43  1  6  0  0  0
 38 41  1  0  0  0  0
 40 36  1  6  0  0  0
 40 39  1  0  0  0  0
 41 39  1  0  0  0  0
 43 42  1  0  0  0  0
M  END
>  <MODEL>
1

>  <REMARK>
 VINA RESULT:      -8.7      0.000      0.000
  Name = 
  11 active torsions:
  status: ('A' for Active; 'I' for Inactive)
    1  A    between atoms: C_1  and  O_32
    2  A    between atoms: C_1  and  C_34
    3  A    between atoms: C_2  and  C_6
    4  A    between atoms: C_2  and  C_13
    5  A    between atoms: C_3  and  N_4
    6  A    between atoms: C_3  and  C_12
    7  A    between atoms: C_6  and  C_12
    8  A    between atoms: N_11  and  C_14
    9  A    between atoms: C_14  and  C_22
   10  A    between atoms: C_19  and  C_37
   11  A    between atoms: O_32  and  C_35
                            x       y       z     vdW  Elec       q    Type
                         _______ _______ _______ _____ _____    ______ ____

>  <TORSDO>
F 11

$$$$
=
 OpenBabel10272414043D

 43 48  0  0  1  0  0  0  0  0999 V2000
  181.4390  179.0920  142.9880 C   0  0  0  0  0  0  0  0  0  0  0  0
  186.5110  178.3260  142.7460 C   0  0  0  0  0  0  0  0  0  0  0  0
  187.0090  178.1950  139.9590 C   0  0  0  0  0  0  0  0  0  0  0  0
  183.8680  178.7700  143.5810 C   0  0  0  0  0  0  0  0  0  0  0  0
  181.8050  178.9250  141.5750 C   0  0  0  0  0  3  0  0  0  0  0  0
  180.2360  179.2960  143.2900 O   0  0  0  0  0  0  0  0  0  0  0  0
  184.1530  178.6110  142.2080 C   0  0  0  0  0  0  0  0  0  0  0  0
  182.4690  179.0130  144.0800 C   0  0  0  0  0  2  0  0  0  0  0  0
  183.0670  178.7000  141.2140 C   0  0  0  0  0  3  0  0  0  0  0  0
  185.7860  178.2580  140.3940 N   0  0  0  0  0  0  0  0  0  0  0  0
  185.4780  178.3910  141.7900 C   0  0  0  0  0  0  0  0  0  0  0  0
  186.2180  178.4880  144.1040 C   0  0  0  0  0  3  0  0  0  0  0  0
  187.9200  178.0210  142.3180 C   0  0  2  0  0  3  0  0  0  0  0  0
  188.1010  178.2560  140.8860 N   0  0  0  0  0  2  0  0  0  0  0  0
  184.9050  178.7110  144.5160 C   0  0  0  0  0  3  0  0  0  0  0  0
  187.2710  178.1050  138.5140 C   0  0  0  0  0  0  0  0  0  0  0  0
  186.8260  178.9880  137.7350 O   0  0  0  0  0  0  0  0  0  0  0  0
  188.0400  176.9590  137.9460 C   0  0  0  0  0  2  0  0  0  0  0  0
  189.4200  177.4120  137.5000 C   0  0  2  0  0  3  0  0  0  0  0  0
  189.3840  177.7820  136.1560 O   0  0  0  0  0  1  0  0  0  0  0  0
  190.4210  176.2830  137.6770 C   0  0  0  0  0  2  0  0  0  0  0  0
  191.4750  176.6810  138.5980 N   0  0  0  0  0  0  0  0  0  0  0  0
  193.4980  177.0990  139.4440 N   0  0  0  0  0  0  0  0  0  0  0  0
  191.3020  177.1730  139.8350 C   0  0  0  0  0  3  0  0  0  0  0  0
  192.8030  176.6490  138.3830 C   0  0  0  0  0  0  0  0  0  0  0  0
  192.5580  177.4310  140.3560 C   0  0  0  0  0  3  0  0  0  0  0  0
  193.4340  176.1560  137.1120 C   0  0  1  0  0  3  0  0  0  0  0  0
  194.0280  177.2090  136.4380 F   0  0  0  0  0  0  0  0  0  0  0  0
  194.4170  175.1140  137.3760 N   0  0  0  0  0  0  0  0  0  0  0  0
  197.9320  174.2100  136.9730 C   0  0  0  0  0  1  0  0  0  0  0  0
  195.6180  172.8330  137.9660 S   0  0  0  0  0  0  0  0  0  0  0  0
  196.4760  174.2340  137.2630 C   0  0  0  0  0  0  0  0  0  0  0  0
  194.0710  173.8070  137.9140 C   0  0  0  0  0  2  0  0  0  0  0  0
  195.7570  175.2730  137.0280 N   0  0  0  0  0  0  0  0  0  0  0  0
  188.2520  176.5730  142.6440 C   0  0  0  0  0  2  0  0  0  0  0  0
  189.6200  176.4440  142.9010 O   0  0  0  0  0  0  0  0  0  0  0  0
  189.5270  176.8830  145.2320 C   0  0  0  0  0  2  0  0  0  0  0  0
  190.5870  177.4520  146.1420 C   0  0  2  0  0  3  0  0  0  0  0  0
  191.3860  177.6580  143.9440 C   0  0  0  0  0  2  0  0  0  0  0  0
  189.8940  177.4080  143.8730 C   0  0  1  0  0  3  0  0  0  0  0  0
  191.7880  177.6820  145.3470 N   0  0  0  0  0  2  0  0  0  0  0  0
  192.0860  176.7990  147.8800 O   0  0  0  0  0  1  0  0  0  0  0  0
  190.8790  176.4720  147.2620 C   0  0  0  0  0  2  0  0  0  0  0  0
  1  6  2  0  0  0  0
  1  8  1  0  0  0  0
  2 12  1  0  0  0  0
  3 10  2  0  0  0  0
  3 14  1  0  0  0  0
  4  8  1  0  0  0  0
  4 15  1  0  0  0  0
  5  1  1  0  0  0  0
  7  4  2  0  0  0  0
  9  5  2  0  0  0  0
  9  7  1  0  0  0  0
 10 11  1  0  0  0  0
 11  7  1  0  0  0  0
 11  2  2  0  0  0  0
 12 15  2  0  0  0  0
 13 35  1  6  0  0  0
 13  2  1  0  0  0  0
 14 13  1  0  0  0  0
 16  3  1  0  0  0  0
 17 16  2  0  0  0  0
 18 16  1  0  0  0  0
 19 20  1  6  0  0  0
 19 21  1  0  0  0  0
 19 18  1  0  0  0  0
 21 22  1  0  0  0  0
 22 24  1  0  0  0  0
 23 26  1  0  0  0  0
 24 26  2  0  0  0  0
 25 22  1  0  0  0  0
 25 23  2  0  0  0  0
 27 28  1  1  0  0  0
 27 29  1  0  0  0  0
 27 25  1  0  0  0  0
 29 33  1  0  0  0  0
 30 32  1  0  0  0  0
 32 31  1  0  0  0  0
 33 31  1  0  0  0  0
 34 32  2  0  0  0  0
 34 29  1  0  0  0  0
 35 36  1  0  0  0  0
 37 38  1  0  0  0  0
 38 43  1  1  0  0  0
 39 41  1  0  0  0  0
 40 36  1  6  0  0  0
 40 39  1  0  0  0  0
 40 37  1  0  0  0  0
 41 38  1  0  0  0  0
 43 42  1  0  0  0  0
M  END
>  <MODEL>
2

>  <REMARK>
 VINA RESULT:      -8.6      3.392      7.775
  Name = 
  11 active torsions:
  status: ('A' for Active; 'I' for Inactive)
    1  A    between atoms: C_1  and  O_32
    2  A    between atoms: C_1  and  C_34
    3  A    between atoms: C_2  and  C_6
    4  A    between atoms: C_2  and  C_13
    5  A    between atoms: C_3  and  N_4
    6  A    between atoms: C_3  and  C_12
    7  A    between atoms: C_6  and  C_12
    8  A    between atoms: N_11  and  C_14
    9  A    between atoms: C_14  and  C_22
   10  A    between atoms: C_19  and  C_37
   11  A    between atoms: O_32  and  C_35
                            x       y       z     vdW  Elec       q    Type
                         _______ _______ _______ _____ _____    ______ ____

>  <TORSDO>
F 11

$$$$
=
 OpenBabel10272414043D

 43 48  0  0  1  0  0  0  0  0999 V2000
  191.1090  176.9790  146.9510 C   0  0  0  0  0  0  0  0  0  0  0  0
  186.8740  177.6860  144.1330 C   0  0  0  0  0  0  0  0  0  0  0  0
  187.8890  177.9400  141.4990 C   0  0  0  0  0  0  0  0  0  0  0  0
  188.7150  177.2400  146.2050 C   0  0  0  0  0  0  0  0  0  0  0  0
  191.5230  177.2080  145.5600 C   0  0  0  0  0  3  0  0  0  0  0  0
  191.9880  176.7780  147.8270 O   0  0  0  0  0  0  0  0  0  0  0  0
  189.1780  177.4590  144.8900 C   0  0  0  0  0  0  0  0  0  0  0  0
  189.6600  176.9930  147.3500 C   0  0  0  0  0  2  0  0  0  0  0  0
  190.6240  177.4330  144.6040 C   0  0  0  0  0  3  0  0  0  0  0  0
  188.7100  177.8740  142.5050 N   0  0  0  0  0  0  0  0  0  0  0  0
  188.2540  177.6810  143.8520 C   0  0  0  0  0  0  0  0  0  0  0  0
  186.4260  177.4640  145.4400 C   0  0  0  0  0  3  0  0  0  0  0  0
  185.8810  177.9910  143.0460 C   0  0  2  0  0  3  0  0  0  0  0  0
  186.4770  177.8210  141.7220 N   0  0  0  0  0  2  0  0  0  0  0  0
  187.3420  177.2400  146.4670 C   0  0  0  0  0  3  0  0  0  0  0  0
  188.4120  178.0950  140.1330 C   0  0  0  0  0  0  0  0  0  0  0  0
  187.6830  178.5820  139.2290 O   0  0  0  0  0  0  0  0  0  0  0  0
  189.7970  177.6580  139.7900 C   0  0  0  0  0  2  0  0  0  0  0  0
  189.7700  176.6430  138.6580 C   0  0  2  0  0  3  0  0  0  0  0  0
  190.6920  175.6280  138.9130 O   0  0  0  0  0  1  0  0  0  0  0  0
  190.1250  177.3180  137.3450 C   0  0  0  0  0  2  0  0  0  0  0  0
  189.7600  176.4670  136.2220 N   0  0  0  0  0  0  0  0  0  0  0  0
  188.5740  175.5140  134.5890 N   0  0  0  0  0  0  0  0  0  0  0  0
  190.5670  175.5990  135.5920 C   0  0  0  0  0  3  0  0  0  0  0  0
  188.5690  176.4030  135.6000 C   0  0  0  0  0  0  0  0  0  0  0  0
  189.8280  175.0100  134.5800 C   0  0  0  0  0  3  0  0  0  0  0  0
  187.3710  177.2180  135.9960 C   0  0  1  0  0  3  0  0  0  0  0  0
  186.8920  177.9190  134.9040 F   0  0  0  0  0  0  0  0  0  0  0  0
  186.3180  176.3790  136.5530 N   0  0  0  0  0  0  0  0  0  0  0  0
  185.5470  173.0080  137.7230 C   0  0  0  0  0  1  0  0  0  0  0  0
  183.9940  175.3910  137.3390 S   0  0  0  0  0  0  0  0  0  0  0  0
  185.5010  174.4300  137.3010 C   0  0  0  0  0  0  0  0  0  0  0  0
  184.9380  176.8190  136.6960 C   0  0  0  0  0  2  0  0  0  0  0  0
  186.5520  175.0480  136.8930 N   0  0  0  0  0  0  0  0  0  0  0  0
  185.3760  179.4170  143.2000 C   0  0  0  0  0  2  0  0  0  0  0  0
  184.3850  179.6770  142.2480 O   0  0  0  0  0  0  0  0  0  0  0  0
  182.4140  179.2330  143.4930 C   0  0  0  0  0  2  0  0  0  0  0  0
  181.0900  178.6780  143.0260 C   0  0  2  0  0  3  0  0  0  0  0  0
  182.5890  178.4900  141.2280 C   0  0  0  0  0  2  0  0  0  0  0  0
  183.4010  178.7160  142.4850 C   0  0  1  0  0  3  0  0  0  0  0  0
  181.1740  178.4700  141.5840 N   0  0  0  0  0  2  0  0  0  0  0  0
  180.0690  180.7730  142.5110 O   0  0  0  0  0  1  0  0  0  0  0  0
  179.9820  179.6620  143.3500 C   0  0  0  0  0  2  0  0  0  0  0  0
  1  8  1  0  0  0  0
  1  6  2  0  0  0  0
  2 12  1  0  0  0  0
  3 14  1  0  0  0  0
  3 10  2  0  0  0  0
  4 15  1  0  0  0  0
  4  8  1  0  0  0  0
  5  1  1  0  0  0  0
  7  4  2  0  0  0  0
  9  7  1  0  0  0  0
  9  5  2  0  0  0  0
 10 11  1  0  0  0  0
 11  2  2  0  0  0  0
 11  7  1  0  0  0  0
 12 15  2  0  0  0  0
 13 35  1  1  0  0  0
 13  2  1  0  0  0  0
 14 13  1  0  0  0  0
 16  3  1  0  0  0  0
 17 16  2  0  0  0  0
 18 16  1  0  0  0  0
 19 20  1  1  0  0  0
 19 18  1  0  0  0  0
 21 19  1  0  0  0  0
 22 21  1  0  0  0  0
 23 25  2  0  0  0  0
 24 22  1  0  0  0  0
 25 27  1  0  0  0  0
 25 22  1  0  0  0  0
 26 23  1  0  0  0  0
 26 24  2  0  0  0  0
 27 28  1  6  0  0  0
 27 29  1  0  0  0  0
 29 33  1  0  0  0  0
 29 34  1  0  0  0  0
 32 31  1  0  0  0  0
 32 30  1  0  0  0  0
 33 31  1  0  0  0  0
 34 32  2  0  0  0  0
 36 35  1  0  0  0  0
 38 43  1  6  0  0  0
 38 37  1  0  0  0  0
 39 41  1  0  0  0  0
 39 40  1  0  0  0  0
 40 36  1  6  0  0  0
 40 37  1  0  0  0  0
 41 38  1  0  0  0  0
 42 43  1  0  0  0  0
M  END
>  <MODEL>
3

>  <REMARK>
 VINA RESULT:      -8.5      2.412      6.982
  Name = 
  11 active torsions:
  status: ('A' for Active; 'I' for Inactive)
    1  A    between atoms: C_1  and  O_32
    2  A    between atoms: C_1  and  C_34
    3  A    between atoms: C_2  and  C_6
    4  A    between atoms: C_2  and  C_13
    5  A    between atoms: C_3  and  N_4
    6  A    between atoms: C_3  and  C_12
    7  A    between atoms: C_6  and  C_12
    8  A    between atoms: N_11  and  C_14
    9  A    between atoms: C_14  and  C_22
   10  A    between atoms: C_19  and  C_37
   11  A    between atoms: O_32  and  C_35
                            x       y       z     vdW  Elec       q    Type
                         _______ _______ _______ _____ _____    ______ ____

>  <TORSDO>
F 11

$$$$
=
 OpenBabel10272414043D

 43 48  0  0  1  0  0  0  0  0999 V2000
  185.0600  178.6380  145.2690 C   0  0  0  0  0  0  0  0  0  0  0  0
  181.9250  178.7680  141.2040 C   0  0  0  0  0  0  0  0  0  0  0  0
  183.5800  177.8670  139.0870 C   0  0  0  0  0  0  0  0  0  0  0  0
  183.0500  178.9060  143.7720 C   0  0  0  0  0  0  0  0  0  0  0  0
  185.8410  178.2640  144.0830 C   0  0  0  0  0  3  0  0  0  0  0  0
  185.6270  178.6720  146.3910 O   0  0  0  0  0  0  0  0  0  0  0  0
  183.8560  178.5470  142.6720 C   0  0  0  0  0  0  0  0  0  0  0  0
  183.6030  178.9920  145.1690 C   0  0  0  0  0  2  0  0  0  0  0  0
  185.2810  178.2240  142.8760 C   0  0  0  0  0  3  0  0  0  0  0  0
  184.0940  178.0810  140.2620 N   0  0  0  0  0  0  0  0  0  0  0  0
  183.2920  178.4750  141.3850 C   0  0  0  0  0  0  0  0  0  0  0  0
  181.1350  179.1200  142.3020 C   0  0  0  0  0  3  0  0  0  0  0  0
  181.3270  178.7630  139.8250 C   0  0  2  0  0  3  0  0  0  0  0  0
  182.1700  178.0260  138.8840 N   0  0  0  0  0  2  0  0  0  0  0  0
  181.6950  179.1860  143.5780 C   0  0  0  0  0  3  0  0  0  0  0  0
  184.4410  177.4210  137.9800 C   0  0  0  0  0  0  0  0  0  0  0  0
  184.1950  176.3390  137.3850 O   0  0  0  0  0  0  0  0  0  0  0  0
  185.6270  178.2240  137.5620 C   0  0  0  0  0  2  0  0  0  0  0  0
  186.8820  177.7230  138.2580 C   0  0  2  0  0  3  0  0  0  0  0  0
  187.1570  178.5230  139.3670 O   0  0  0  0  0  1  0  0  0  0  0  0
  188.0630  177.7740  137.3030 C   0  0  0  0  0  2  0  0  0  0  0  0
  188.8760  176.5750  137.4390 N   0  0  0  0  0  0  0  0  0  0  0  0
  190.4990  175.1800  138.0730 N   0  0  0  0  0  0  0  0  0  0  0  0
  188.6270  175.3820  136.8740 C   0  0  0  0  0  3  0  0  0  0  0  0
  190.0030  176.4280  138.1580 C   0  0  0  0  0  0  0  0  0  0  0  0
  189.6360  174.5210  137.2700 C   0  0  0  0  0  3  0  0  0  0  0  0
  190.6390  177.5340  138.9520 C   0  0  1  0  0  3  0  0  0  0  0  0
  189.9530  178.7180  138.7520 F   0  0  0  0  0  0  0  0  0  0  0  0
  190.6770  177.2130  140.3730 N   0  0  0  0  0  0  0  0  0  0  0  0
  188.6300  176.1880  143.2170 C   0  0  0  0  0  1  0  0  0  0  0  0
  191.3790  176.9510  142.9090 S   0  0  0  0  0  0  0  0  0  0  0  0
  189.7230  176.6340  142.3180 C   0  0  0  0  0  0  0  0  0  0  0  0
  191.8610  177.3900  141.2010 C   0  0  0  0  0  2  0  0  0  0  0  0
  189.5330  176.8070  141.0580 N   0  0  0  0  0  0  0  0  0  0  0  0
  181.1500  180.1940  139.3390 C   0  0  0  0  0  2  0  0  0  0  0  0
  181.4940  180.2850  137.9870 O   0  0  0  0  0  0  0  0  0  0  0  0
  180.7230  182.5280  137.9270 C   0  0  0  0  0  2  0  0  0  0  0  0
  180.3740  183.3900  136.7380 C   0  0  2  0  0  3  0  0  0  0  0  0
  180.7300  181.2140  135.9300 C   0  0  0  0  0  2  0  0  0  0  0  0
  180.5290  181.1240  137.4280 C   0  0  1  0  0  3  0  0  0  0  0  0
  180.6300  182.6140  135.5300 N   0  0  0  0  0  2  0  0  0  0  0  0
  182.3620  184.4410  137.5350 O   0  0  0  0  0  1  0  0  0  0  0  0
  181.2290  184.6430  136.7480 C   0  0  0  0  0  2  0  0  0  0  0  0
  1  6  2  0  0  0  0
  2 11  2  0  0  0  0
  2 12  1  0  0  0  0
  3 10  2  0  0  0  0
  4  8  1  0  0  0  0
  5  1  1  0  0  0  0
  7  9  1  0  0  0  0
  7  4  2  0  0  0  0
  8  1  1  0  0  0  0
  9  5  2  0  0  0  0
 10 11  1  0  0  0  0
 11  7  1  0  0  0  0
 12 15  2  0  0  0  0
 13 35  1  6  0  0  0
 13  2  1  0  0  0  0
 14  3  1  0  0  0  0
 14 13  1  0  0  0  0
 15  4  1  0  0  0  0
 16  3  1  0  0  0  0
 17 16  2  0  0  0  0
 18 16  1  0  0  0  0
 18 19  1  0  0  0  0
 19 20  1  1  0  0  0
 21 22  1  0  0  0  0
 21 19  1  0  0  0  0
 22 25  1  0  0  0  0
 23 25  2  0  0  0  0
 24 26  2  0  0  0  0
 24 22  1  0  0  0  0
 25 27  1  0  0  0  0
 26 23  1  0  0  0  0
 27 28  1  1  0  0  0
 27 29  1  0  0  0  0
 29 34  1  0  0  0  0
 29 33  1  0  0  0  0
 32 31  1  0  0  0  0
 32 30  1  0  0  0  0
 33 31  1  0  0  0  0
 34 32  2  0  0  0  0
 36 35  1  0  0  0  0
 38 43  1  6  0  0  0
 38 37  1  0  0  0  0
 39 40  1  0  0  0  0
 40 37  1  0  0  0  0
 40 36  1  1  0  0  0
 41 39  1  0  0  0  0
 41 38  1  0  0  0  0
 43 42  1  0  0  0  0
M  END
>  <MODEL>
4

>  <REMARK>
 VINA RESULT:      -8.2      3.339      8.093
  Name = 
  11 active torsions:
  status: ('A' for Active; 'I' for Inactive)
    1  A    between atoms: C_1  and  O_32
    2  A    between atoms: C_1  and  C_34
    3  A    between atoms: C_2  and  C_6
    4  A    between atoms: C_2  and  C_13
    5  A    between atoms: C_3  and  N_4
    6  A    between atoms: C_3  and  C_12
    7  A    between atoms: C_6  and  C_12
    8  A    between atoms: N_11  and  C_14
    9  A    between atoms: C_14  and  C_22
   10  A    between atoms: C_19  and  C_37
   11  A    between atoms: O_32  and  C_35
                            x       y       z     vdW  Elec       q    Type
                         _______ _______ _______ _____ _____    ______ ____

>  <TORSDO>
F 11

$$$$
=
 OpenBabel10272414043D

 43 48  0  0  1  0  0  0  0  0999 V2000
  188.3520  177.2480  147.0570 C   0  0  0  0  0  0  0  0  0  0  0  0
  188.8960  178.1550  142.0310 C   0  0  0  0  0  0  0  0  0  0  0  0
  186.2360  178.6270  141.1720 C   0  0  0  0  0  0  0  0  0  0  0  0
  189.3110  177.6120  144.7540 C   0  0  0  0  0  0  0  0  0  0  0  0
  187.0130  177.4290  146.4810 C   0  0  0  0  0  3  0  0  0  0  0  0
  188.4650  177.0150  148.2870 O   0  0  0  0  0  0  0  0  0  0  0  0
  187.9980  177.7690  144.2630 C   0  0  0  0  0  0  0  0  0  0  0  0
  189.5880  177.3240  146.2050 C   0  0  0  0  0  2  0  0  0  0  0  0
  186.8490  177.6690  145.1820 C   0  0  0  0  0  3  0  0  0  0  0  0
  186.4620  178.2350  142.3910 N   0  0  0  0  0  0  0  0  0  0  0  0
  187.7900  178.0430  142.8980 C   0  0  0  0  0  0  0  0  0  0  0  0
  190.1930  178.0010  142.5300 C   0  0  0  0  0  3  0  0  0  0  0  0
  188.6840  178.3780  140.5600 C   0  0  2  0  0  3  0  0  0  0  0  0
  187.3380  178.8800  140.2890 N   0  0  0  0  0  2  0  0  0  0  0  0
  190.3970  177.7340  143.8840 C   0  0  0  0  0  3  0  0  0  0  0  0
  184.8560  178.8520  140.7160 C   0  0  0  0  0  0  0  0  0  0  0  0
  184.6030  179.7770  139.9000 O   0  0  0  0  0  0  0  0  0  0  0  0
  183.7350  178.0100  141.2280 C   0  0  0  0  0  2  0  0  0  0  0  0
  182.4260  178.7830  141.1890 C   0  0  2  0  0  3  0  0  0  0  0  0
  182.0220  179.0930  142.4870 O   0  0  0  0  0  1  0  0  0  0  0  0
  181.3490  177.9490  140.5180 C   0  0  0  0  0  2  0  0  0  0  0  0
  181.5100  177.9810  139.0720 N   0  0  0  0  0  0  0  0  0  0  0  0
  181.7010  177.3160  136.9500 N   0  0  0  0  0  0  0  0  0  0  0  0
  181.6280  179.0820  138.3130 C   0  0  0  0  0  3  0  0  0  0  0  0
  181.5530  176.9320  138.2310 C   0  0  0  0  0  0  0  0  0  0  0  0
  181.7460  178.6660  136.9980 C   0  0  0  0  0  3  0  0  0  0  0  0
  181.4580  175.5000  138.6730 C   0  0  1  0  0  3  0  0  0  0  0  0
  180.1540  175.0530  138.5590 F   0  0  0  0  0  0  0  0  0  0  0  0
  182.3490  174.6450  137.8990 N   0  0  0  0  0  0  0  0  0  0  0  0
  185.8510  173.7790  137.3400 C   0  0  0  0  0  1  0  0  0  0  0  0
  183.3820  173.0100  136.0950 S   0  0  0  0  0  0  0  0  0  0  0  0
  184.3730  173.9050  137.2820 C   0  0  0  0  0  0  0  0  0  0  0  0
  181.8930  173.7970  136.8070 C   0  0  0  0  0  2  0  0  0  0  0  0
  183.7280  174.6640  138.0950 N   0  0  0  0  0  0  0  0  0  0  0  0
  188.9030  177.0740  139.8080 C   0  0  0  0  0  2  0  0  0  0  0  0
  188.0460  177.0090  138.7060 O   0  0  0  0  0  0  0  0  0  0  0  0
  190.2580  176.7760  137.8770 C   0  0  0  0  0  2  0  0  0  0  0  0
  190.7320  176.2500  136.5450 C   0  0  2  0  0  3  0  0  0  0  0  0
  188.3950  176.4430  136.4170 C   0  0  0  0  0  2  0  0  0  0  0  0
  188.8630  177.2610  137.6030 C   0  0  1  0  0  3  0  0  0  0  0  0
  189.5590  175.8330  135.7830 N   0  0  0  0  0  2  0  0  0  0  0  0
  191.6090  174.6620  138.0950 O   0  0  0  0  0  1  0  0  0  0  0  0
  191.6620  175.0720  136.7620 C   0  0  0  0  0  2  0  0  0  0  0  0
  1  6  2  0  0  0  0
  2 12  2  0  0  0  0
  2 11  1  0  0  0  0
  3 10  2  0  0  0  0
  4  8  1  0  0  0  0
  5  1  1  0  0  0  0
  7  4  1  0  0  0  0
  7  9  1  0  0  0  0
  8  1  1  0  0  0  0
  9  5  2  0  0  0  0
 10 11  1  0  0  0  0
 11  7  2  0  0  0  0
 12 15  1  0  0  0  0
 13 35  1  6  0  0  0
 13  2  1  0  0  0  0
 14 13  1  0  0  0  0
 14  3  1  0  0  0  0
 15  4  2  0  0  0  0
 16  3  1  0  0  0  0
 16 18  1  0  0  0  0
 17 16  2  0  0  0  0
 19 18  1  0  0  0  0
 19 20  1  1  0  0  0
 21 19  1  0  0  0  0
 22 21  1  0  0  0  0
 23 26  1  0  0  0  0
 23 25  2  0  0  0  0
 24 22  1  0  0  0  0
 25 27  1  0  0  0  0
 25 22  1  0  0  0  0
 26 24  2  0  0  0  0
 27 28  1  6  0  0  0
 29 34  1  0  0  0  0
 29 27  1  0  0  0  0
 31 33  1  0  0  0  0
 31 32  1  0  0  0  0
 32 30  1  0  0  0  0
 32 34  2  0  0  0  0
 33 29  1  0  0  0  0
 36 35  1  0  0  0  0
 38 43  1  1  0  0  0
 38 37  1  0  0  0  0
 39 40  1  0  0  0  0
 40 37  1  0  0  0  0
 40 36  1  1  0  0  0
 41 39  1  0  0  0  0
 41 38  1  0  0  0  0
 43 42  1  0  0  0  0
M  END
>  <MODEL>
5

>  <REMARK>
 VINA RESULT:      -8.0      1.752      2.240
  Name = 
  11 active torsions:
  status: ('A' for Active; 'I' for Inactive)
    1  A    between atoms: C_1  and  O_32
    2  A    between atoms: C_1  and  C_34
    3  A    between atoms: C_2  and  C_6
    4  A    between atoms: C_2  and  C_13
    5  A    between atoms: C_3  and  N_4
    6  A    between atoms: C_3  and  C_12
    7  A    between atoms: C_6  and  C_12
    8  A    between atoms: N_11  and  C_14
    9  A    between atoms: C_14  and  C_22
   10  A    between atoms: C_19  and  C_37
   11  A    between atoms: O_32  and  C_35
                            x       y       z     vdW  Elec       q    Type
                         _______ _______ _______ _____ _____    ______ ____

>  <TORSDO>
F 11

$$$$
=
 OpenBabel10272414043D

 43 48  0  0  1  0  0  0  0  0999 V2000
  181.2690  178.9500  141.3240 C   0  0  0  0  0  0  0  0  0  0  0  0
  186.1760  178.4180  142.7440 C   0  0  0  0  0  0  0  0  0  0  0  0
  187.5690  178.4760  140.2770 C   0  0  0  0  0  0  0  0  0  0  0  0
  183.3830  178.6980  142.6740 C   0  0  0  0  0  0  0  0  0  0  0  0
  182.0890  178.8840  140.1070 C   0  0  0  0  0  3  0  0  0  0  0  0
  180.0240  179.0840  141.2180 O   0  0  0  0  0  0  0  0  0  0  0  0
  184.1120  178.6330  141.4670 C   0  0  0  0  0  0  0  0  0  0  0  0
  181.8860  178.8510  142.6900 C   0  0  0  0  0  2  0  0  0  0  0  0
  183.4100  178.7340  140.1750 C   0  0  0  0  0  3  0  0  0  0  0  0
  186.2690  178.4600  140.2840 N   0  0  0  0  0  0  0  0  0  0  0  0
  185.5120  178.4950  141.5030 C   0  0  0  0  0  0  0  0  0  0  0  0
  185.4430  178.4870  143.9330 C   0  0  0  0  0  3  0  0  0  0  0  0
  187.6620  178.2000  142.7950 C   0  0  2  0  0  3  0  0  0  0  0  0
  188.2890  178.5280  141.5150 N   0  0  0  0  0  2  0  0  0  0  0  0
  184.0560  178.6280  143.8960 C   0  0  0  0  0  3  0  0  0  0  0  0
  188.2960  178.4830  138.9980 C   0  0  0  0  0  0  0  0  0  0  0  0
  187.7030  178.8090  137.9360 O   0  0  0  0  0  0  0  0  0  0  0  0
  189.7310  178.0810  138.9310 C   0  0  0  0  0  2  0  0  0  0  0  0
  189.8670  176.6790  138.3590 C   0  0  2  0  0  3  0  0  0  0  0  0
  190.3090  175.8050  139.3520 O   0  0  0  0  0  1  0  0  0  0  0  0
  190.8670  176.6790  137.2150 C   0  0  0  0  0  2  0  0  0  0  0  0
  190.5830  175.5890  136.2940 N   0  0  0  0  0  0  0  0  0  0  0  0
  190.7480  173.6590  135.1860 N   0  0  0  0  0  0  0  0  0  0  0  0
  189.5290  175.5080  135.4660 C   0  0  0  0  0  3  0  0  0  0  0  0
  191.2990  174.4650  136.1120 C   0  0  0  0  0  0  0  0  0  0  0  0
  189.6360  174.3100  134.7810 C   0  0  0  0  0  3  0  0  0  0  0  0
  192.5710  174.1540  136.8480 C   0  0  1  0  0  3  0  0  0  0  0  0
  192.6700  172.7930  137.0720 F   0  0  0  0  0  0  0  0  0  0  0  0
  193.7380  174.6260  136.1130 N   0  0  0  0  0  0  0  0  0  0  0  0
  195.5040  177.6190  134.9960 C   0  0  0  0  0  1  0  0  0  0  0  0
  195.8660  174.8070  134.5530 S   0  0  0  0  0  0  0  0  0  0  0  0
  195.0390  176.2320  135.2450 C   0  0  0  0  0  0  0  0  0  0  0  0
  194.6310  173.7410  135.3790 C   0  0  0  0  0  2  0  0  0  0  0  0
  194.0160  175.9850  135.9830 N   0  0  0  0  0  0  0  0  0  0  0  0
  187.9550  176.7510  143.1510 C   0  0  0  0  0  2  0  0  0  0  0  0
  188.3070  176.6540  144.5010 O   0  0  0  0  0  0  0  0  0  0  0  0
  190.0610  177.2020  146.0020 C   0  0  0  0  0  2  0  0  0  0  0  0
  191.5370  176.9040  145.9020 C   0  0  2  0  0  3  0  0  0  0  0  0
  190.5720  176.3040  143.8470 C   0  0  0  0  0  2  0  0  0  0  0  0
  189.5900  177.1970  144.5760 C   0  0  1  0  0  3  0  0  0  0  0  0
  191.7590  176.1390  144.6800 N   0  0  0  0  0  2  0  0  0  0  0  0
  192.2910  176.9620  148.1650 O   0  0  0  0  0  1  0  0  0  0  0  0
  191.9790  176.1020  147.1110 C   0  0  0  0  0  2  0  0  0  0  0  0
  1  8  1  0  0  0  0
  2 13  1  0  0  0  0
  2 12  1  0  0  0  0
  3 10  2  0  0  0  0
  3 14  1  0  0  0  0
  4  8  1  0  0  0  0
  4 15  1  0  0  0  0
  5  9  2  0  0  0  0
  5  1  1  0  0  0  0
  6  1  2  0  0  0  0
  7 11  1  0  0  0  0
  7  4  2  0  0  0  0
  9  7  1  0  0  0  0
 10 11  1  0  0  0  0
 11  2  2  0  0  0  0
 13 35  1  6  0  0  0
 14 13  1  0  0  0  0
 15 12  2  0  0  0  0
 16  3  1  0  0  0  0
 17 16  2  0  0  0  0
 18 16  1  0  0  0  0
 19 18  1  0  0  0  0
 19 20  1  1  0  0  0
 21 19  1  0  0  0  0
 22 21  1  0  0  0  0
 23 25  2  0  0  0  0
 24 22  1  0  0  0  0
 25 22  1  0  0  0  0
 25 27  1  0  0  0  0
 26 23  1  0  0  0  0
 26 24  2  0  0  0  0
 27 28  1  6  0  0  0
 29 27  1  0  0  0  0
 30 32  1  0  0  0  0
 31 32  1  0  0  0  0
 31 33  1  0  0  0  0
 32 34  2  0  0  0  0
 33 29  1  0  0  0  0
 34 29  1  0  0  0  0
 35 36  1  0  0  0  0
 38 37  1  0  0  0  0
 38 43  1  1  0  0  0
 39 40  1  0  0  0  0
 39 41  1  0  0  0  0
 40 36  1  1  0  0  0
 40 37  1  0  0  0  0
 41 38  1  0  0  0  0
 43 42  1  0  0  0  0
M  END
>  <MODEL>
6

>  <REMARK>
 VINA RESULT:      -7.7      3.273      7.533
  Name = 
  11 active torsions:
  status: ('A' for Active; 'I' for Inactive)
    1  A    between atoms: C_1  and  O_32
    2  A    between atoms: C_1  and  C_34
    3  A    between atoms: C_2  and  C_6
    4  A    between atoms: C_2  and  C_13
    5  A    between atoms: C_3  and  N_4
    6  A    between atoms: C_3  and  C_12
    7  A    between atoms: C_6  and  C_12
    8  A    between atoms: N_11  and  C_14
    9  A    between atoms: C_14  and  C_22
   10  A    between atoms: C_19  and  C_37
   11  A    between atoms: O_32  and  C_35
                            x       y       z     vdW  Elec       q    Type
                         _______ _______ _______ _____ _____    ______ ____

>  <TORSDO>
F 11

$$$$
=
 OpenBabel10272414043D

 43 48  0  0  1  0  0  0  0  0999 V2000
  188.0010  177.5080  147.6070 C   0  0  0  0  0  0  0  0  0  0  0  0
  188.8910  178.1880  142.5950 C   0  0  0  0  0  0  0  0  0  0  0  0
  186.2950  178.5870  141.5290 C   0  0  0  0  0  0  0  0  0  0  0  0
  189.1180  177.7770  145.3620 C   0  0  0  0  0  0  0  0  0  0  0  0
  186.7040  177.6450  146.9300 C   0  0  0  0  0  3  0  0  0  0  0  0
  188.0280  177.3340  148.8510 O   0  0  0  0  0  0  0  0  0  0  0  0
  187.8410  177.8940  144.7730 C   0  0  0  0  0  0  0  0  0  0  0  0
  189.2930  177.5600  146.8410 C   0  0  0  0  0  2  0  0  0  0  0  0
  186.6310  177.8220  145.6130 C   0  0  0  0  0  3  0  0  0  0  0  0
  186.4370  178.2540  142.7780 N   0  0  0  0  0  0  0  0  0  0  0  0
  187.7280  178.1020  143.3850 C   0  0  0  0  0  0  0  0  0  0  0  0
  190.1510  178.0730  143.1900 C   0  0  0  0  0  3  0  0  0  0  0  0
  188.7820  178.3390  141.1030 C   0  0  2  0  0  3  0  0  0  0  0  0
  187.4540  178.8120  140.7140 N   0  0  0  0  0  2  0  0  0  0  0  0
  190.2620  177.8720  144.5660 C   0  0  0  0  0  3  0  0  0  0  0  0
  184.9490  178.7720  140.9670 C   0  0  0  0  0  0  0  0  0  0  0  0
  183.9320  178.5770  141.6840 O   0  0  0  0  0  0  0  0  0  0  0  0
  184.7640  179.1680  139.5400 C   0  0  0  0  0  2  0  0  0  0  0  0
  184.5430  177.9400  138.6700 C   0  0  2  0  0  3  0  0  0  0  0  0
  185.5670  177.8400  137.7290 O   0  0  0  0  0  1  0  0  0  0  0  0
  183.2110  178.0460  137.9480 C   0  0  0  0  0  2  0  0  0  0  0  0
  182.2740  177.0620  138.4670 N   0  0  0  0  0  0  0  0  0  0  0  0
  181.0290  175.2180  138.6520 N   0  0  0  0  0  0  0  0  0  0  0  0
  181.6100  177.1390  139.6310 C   0  0  0  0  0  3  0  0  0  0  0  0
  181.9130  175.8980  137.8980 C   0  0  0  0  0  0  0  0  0  0  0  0
  180.8390  175.9940  139.7420 C   0  0  0  0  0  3  0  0  0  0  0  0
  182.4260  175.4200  136.5690 C   0  0  1  0  0  3  0  0  0  0  0  0
  182.3640  176.4440  135.6400 F   0  0  0  0  0  0  0  0  0  0  0  0
  183.7920  174.9230  136.6750 N   0  0  0  0  0  0  0  0  0  0  0  0
  187.0580  174.9180  135.0450 C   0  0  0  0  0  1  0  0  0  0  0  0
  185.9730  173.5860  137.3440 S   0  0  0  0  0  0  0  0  0  0  0  0
  185.8930  174.6790  135.9330 C   0  0  0  0  0  0  0  0  0  0  0  0
  184.2190  173.9700  137.6890 C   0  0  0  0  0  2  0  0  0  0  0  0
  184.7630  175.2590  135.7330 N   0  0  0  0  0  0  0  0  0  0  0  0
  189.0670  177.0050  140.4310 C   0  0  0  0  0  2  0  0  0  0  0  0
  188.6540  177.0460  139.0960 O   0  0  0  0  0  0  0  0  0  0  0  0
  190.9280  176.4110  138.8540 C   0  0  0  0  0  2  0  0  0  0  0  0
  191.7010  176.0770  137.6020 C   0  0  2  0  0  3  0  0  0  0  0  0
  189.6160  176.9130  136.9200 C   0  0  0  0  0  2  0  0  0  0  0  0
  189.8180  177.3010  138.3690 C   0  0  1  0  0  3  0  0  0  0  0  0
  190.7850  176.1630  136.4710 N   0  0  0  0  0  2  0  0  0  0  0  0
  191.5960  173.8180  136.8390 O   0  0  0  0  0  1  0  0  0  0  0  0
  192.2680  174.6740  137.7120 C   0  0  0  0  0  2  0  0  0  0  0  0
  1  6  2  0  0  0  0
  2 12  2  0  0  0  0
  2 11  1  0  0  0  0
  3 10  2  0  0  0  0
  4  8  1  0  0  0  0
  5  1  1  0  0  0  0
  7  4  1  0  0  0  0
  7  9  1  0  0  0  0
  8  1  1  0  0  0  0
  9  5  2  0  0  0  0
 10 11  1  0  0  0  0
 11  7  2  0  0  0  0
 12 15  1  0  0  0  0
 13 35  1  6  0  0  0
 13  2  1  0  0  0  0
 14 13  1  0  0  0  0
 14  3  1  0  0  0  0
 15  4  2  0  0  0  0
 16  3  1  0  0  0  0
 16 17  2  0  0  0  0
 18 16  1  0  0  0  0
 19 20  1  6  0  0  0
 19 18  1  0  0  0  0
 21 22  1  0  0  0  0
 21 19  1  0  0  0  0
 22 24  1  0  0  0  0
 23 26  1  0  0  0  0
 24 26  2  0  0  0  0
 25 22  1  0  0  0  0
 25 23  2  0  0  0  0
 27 28  1  6  0  0  0
 27 29  1  0  0  0  0
 27 25  1  0  0  0  0
 29 33  1  0  0  0  0
 30 32  1  0  0  0  0
 31 33  1  0  0  0  0
 32 31  1  0  0  0  0
 34 32  2  0  0  0  0
 34 29  1  0  0  0  0
 36 35  1  0  0  0  0
 38 43  1  1  0  0  0
 38 37  1  0  0  0  0
 39 40  1  0  0  0  0
 40 37  1  0  0  0  0
 40 36  1  1  0  0  0
 41 39  1  0  0  0  0
 41 38  1  0  0  0  0
 42 43  1  0  0  0  0
M  END
>  <MODEL>
7

>  <REMARK>
 VINA RESULT:      -7.7      1.670      2.203
  Name = 
  11 active torsions:
  status: ('A' for Active; 'I' for Inactive)
    1  A    between atoms: C_1  and  O_32
    2  A    between atoms: C_1  and  C_34
    3  A    between atoms: C_2  and  C_6
    4  A    between atoms: C_2  and  C_13
    5  A    between atoms: C_3  and  N_4
    6  A    between atoms: C_3  and  C_12
    7  A    between atoms: C_6  and  C_12
    8  A    between atoms: N_11  and  C_14
    9  A    between atoms: C_14  and  C_22
   10  A    between atoms: C_19  and  C_37
   11  A    between atoms: O_32  and  C_35
                            x       y       z     vdW  Elec       q    Type
                         _______ _______ _______ _____ _____    ______ ____

>  <TORSDO>
F 11

$$$$
=
 OpenBabel10272414043D

 43 48  0  0  1  0  0  0  0  0999 V2000
  191.0590  176.9550  147.2160 C   0  0  0  0  0  0  0  0  0  0  0  0
  187.3240  177.6190  143.7540 C   0  0  0  0  0  0  0  0  0  0  0  0
  188.7380  177.7470  141.3000 C   0  0  0  0  0  0  0  0  0  0  0  0
  188.8140  177.2260  146.1000 C   0  0  0  0  0  0  0  0  0  0  0  0
  191.6860  177.1190  145.8980 C   0  0  0  0  0  3  0  0  0  0  0  0
  191.7870  176.7740  148.2240 O   0  0  0  0  0  0  0  0  0  0  0  0
  189.4790  177.3830  144.8660 C   0  0  0  0  0  0  0  0  0  0  0  0
  189.5660  177.0100  147.3860 C   0  0  0  0  0  2  0  0  0  0  0  0
  190.9510  177.3200  144.8070 C   0  0  0  0  0  3  0  0  0  0  0  0
  189.3930  177.7080  142.4220 N   0  0  0  0  0  0  0  0  0  0  0  0
  188.7310  177.5780  143.6890 C   0  0  0  0  0  0  0  0  0  0  0  0
  186.6760  177.4580  144.9820 C   0  0  0  0  0  3  0  0  0  0  0  0
  186.5180  177.8960  142.5150 C   0  0  2  0  0  3  0  0  0  0  0  0
  187.3060  177.6610  141.3060 N   0  0  0  0  0  2  0  0  0  0  0  0
  187.4180  177.2610  146.1460 C   0  0  0  0  0  3  0  0  0  0  0  0
  189.4680  177.8370  140.0260 C   0  0  0  0  0  0  0  0  0  0  0  0
  190.4890  177.1270  139.8320 O   0  0  0  0  0  0  0  0  0  0  0  0
  189.0300  178.7840  138.9590 C   0  0  0  0  0  2  0  0  0  0  0  0
  188.6900  178.0290  137.6840 C   0  0  2  0  0  3  0  0  0  0  0  0
  188.8940  178.8550  136.5790 O   0  0  0  0  0  1  0  0  0  0  0  0
  187.2370  177.5870  137.7120 C   0  0  0  0  0  2  0  0  0  0  0  0
  187.0640  176.3660  136.9390 N   0  0  0  0  0  0  0  0  0  0  0  0
  186.1510  174.7970  135.6410 N   0  0  0  0  0  0  0  0  0  0  0  0
  187.9870  175.4090  136.7550 C   0  0  0  0  0  3  0  0  0  0  0  0
  185.9710  175.9790  136.2570 C   0  0  0  0  0  0  0  0  0  0  0  0
  187.4170  174.4370  135.9490 C   0  0  0  0  0  3  0  0  0  0  0  0
  184.6950  176.7700  136.2020 C   0  0  1  0  0  3  0  0  0  0  0  0
  184.4450  177.1780  134.9040 F   0  0  0  0  0  0  0  0  0  0  0  0
  183.5680  175.9960  136.7080 N   0  0  0  0  0  0  0  0  0  0  0  0
  181.3850  175.5140  139.5940 C   0  0  0  0  0  1  0  0  0  0  0  0
  181.6870  174.1730  137.0740 S   0  0  0  0  0  0  0  0  0  0  0  0
  182.0920  175.4170  138.2920 C   0  0  0  0  0  0  0  0  0  0  0  0
  182.9920  174.8650  135.9950 C   0  0  0  0  0  2  0  0  0  0  0  0
  183.0320  176.2330  137.9720 N   0  0  0  0  0  0  0  0  0  0  0  0
  186.0280  179.3360  142.5350 C   0  0  0  0  0  2  0  0  0  0  0  0
  185.1850  179.5680  141.4450 O   0  0  0  0  0  0  0  0  0  0  0  0
  183.3670  178.9560  142.8420 C   0  0  0  0  0  2  0  0  0  0  0  0
  181.9410  178.6330  142.4720 C   0  0  2  0  0  3  0  0  0  0  0  0
  183.1490  178.8100  140.4670 C   0  0  0  0  0  2  0  0  0  0  0  0
  184.1460  178.6490  141.5940 C   0  0  1  0  0  3  0  0  0  0  0  0
  181.8020  178.7960  141.0290 N   0  0  0  0  0  2  0  0  0  0  0  0
  179.9820  179.9890  142.3400 O   0  0  0  0  0  1  0  0  0  0  0  0
  180.9990  179.5740  143.2000 C   0  0  0  0  0  2  0  0  0  0  0  0
  1  8  1  0  0  0  0
  1  6  2  0  0  0  0
  2 12  1  0  0  0  0
  3 14  1  0  0  0  0
  3 10  2  0  0  0  0
  4 15  1  0  0  0  0
  4  8  1  0  0  0  0
  5  1  1  0  0  0  0
  7  4  2  0  0  0  0
  9  7  1  0  0  0  0
  9  5  2  0  0  0  0
 10 11  1  0  0  0  0
 11  2  2  0  0  0  0
 11  7  1  0  0  0  0
 12 15  2  0  0  0  0
 13 35  1  1  0  0  0
 13  2  1  0  0  0  0
 14 13  1  0  0  0  0
 16  3  1  0  0  0  0
 17 16  2  0  0  0  0
 18 16  1  0  0  0  0
 19 20  1  6  0  0  0
 19 21  1  0  0  0  0
 19 18  1  0  0  0  0
 22 21  1  0  0  0  0
 23 26  1  0  0  0  0
 23 25  2  0  0  0  0
 24 22  1  0  0  0  0
 25 22  1  0  0  0  0
 26 24  2  0  0  0  0
 27 28  1  6  0  0  0
 27 25  1  0  0  0  0
 27 29  1  0  0  0  0
 29 34  1  0  0  0  0
 31 32  1  0  0  0  0
 32 30  1  0  0  0  0
 33 29  1  0  0  0  0
 33 31  1  0  0  0  0
 34 32  2  0  0  0  0
 36 35  1  0  0  0  0
 38 37  1  0  0  0  0
 38 43  1  1  0  0  0
 39 41  1  0  0  0  0
 39 40  1  0  0  0  0
 40 36  1  6  0  0  0
 40 37  1  0  0  0  0
 41 38  1  0  0  0  0
 42 43  1  0  0  0  0
M  END
>  <MODEL>
8

>  <REMARK>
 VINA RESULT:      -7.7      2.526      6.406
  Name = 
  11 active torsions:
  status: ('A' for Active; 'I' for Inactive)
    1  A    between atoms: C_1  and  O_32
    2  A    between atoms: C_1  and  C_34
    3  A    between atoms: C_2  and  C_6
    4  A    between atoms: C_2  and  C_13
    5  A    between atoms: C_3  and  N_4
    6  A    between atoms: C_3  and  C_12
    7  A    between atoms: C_6  and  C_12
    8  A    between atoms: N_11  and  C_14
    9  A    between atoms: C_14  and  C_22
   10  A    between atoms: C_19  and  C_37
   11  A    between atoms: O_32  and  C_35
                            x       y       z     vdW  Elec       q    Type
                         _______ _______ _______ _____ _____    ______ ____

>  <TORSDO>
F 11

$$$$
=
 OpenBabel10272414043D

 43 48  0  0  1  0  0  0  0  0999 V2000
  190.9120  177.0760  146.8470 C   0  0  0  0  0  0  0  0  0  0  0  0
  187.2840  177.6800  143.2630 C   0  0  0  0  0  0  0  0  0  0  0  0
  188.7800  177.9220  140.8680 C   0  0  0  0  0  0  0  0  0  0  0  0
  188.7010  177.2880  145.6540 C   0  0  0  0  0  0  0  0  0  0  0  0
  191.5810  177.2950  145.5570 C   0  0  0  0  0  3  0  0  0  0  0  0
  191.6100  176.8990  147.8770 O   0  0  0  0  0  0  0  0  0  0  0  0
  189.4040  177.5000  144.4490 C   0  0  0  0  0  0  0  0  0  0  0  0
  189.4140  177.0700  146.9610 C   0  0  0  0  0  2  0  0  0  0  0  0
  190.8790  177.4940  144.4440 C   0  0  0  0  0  3  0  0  0  0  0  0
  189.3950  177.8800  142.0120 N   0  0  0  0  0  0  0  0  0  0  0  0
  188.6930  177.6950  143.2500 C   0  0  0  0  0  0  0  0  0  0  0  0
  186.5980  177.4660  144.4620 C   0  0  0  0  0  3  0  0  0  0  0  0
  186.5130  177.9560  142.0020 C   0  0  2  0  0  3  0  0  0  0  0  0
  187.3540  177.7810  140.8180 N   0  0  0  0  0  2  0  0  0  0  0  0
  187.3040  177.2690  145.6490 C   0  0  0  0  0  3  0  0  0  0  0  0
  189.5530  178.0700  139.6240 C   0  0  0  0  0  0  0  0  0  0  0  0
  189.0090  178.5540  138.5970 O   0  0  0  0  0  0  0  0  0  0  0  0
  190.9760  177.6280  139.5500 C   0  0  0  0  0  2  0  0  0  0  0  0
  191.1680  176.6340  138.4160 C   0  0  2  0  0  3  0  0  0  0  0  0
  190.4920  175.4500  138.7070 O   0  0  0  0  0  1  0  0  0  0  0  0
  192.6450  176.3320  138.2330 C   0  0  0  0  0  2  0  0  0  0  0  0
  192.8770  175.6980  136.9440 N   0  0  0  0  0  0  0  0  0  0  0  0
  193.8130  174.4820  135.3230 N   0  0  0  0  0  0  0  0  0  0  0  0
  192.0760  175.7730  135.8700 C   0  0  0  0  0  3  0  0  0  0  0  0
  193.9120  174.9130  136.5940 C   0  0  0  0  0  0  0  0  0  0  0  0
  192.6600  175.0170  134.8670 C   0  0  0  0  0  3  0  0  0  0  0  0
  195.0520  174.5710  137.5110 C   0  0  1  0  0  3  0  0  0  0  0  0
  194.7500  173.4340  138.2400 F   0  0  0  0  0  0  0  0  0  0  0  0
  196.2900  174.3740  136.7690 N   0  0  0  0  0  0  0  0  0  0  0  0
  199.0590  172.0590  136.2210 C   0  0  0  0  0  1  0  0  0  0  0  0
  198.4700  174.7170  135.3110 S   0  0  0  0  0  0  0  0  0  0  0  0
  198.1340  173.2200  136.2280 C   0  0  0  0  0  0  0  0  0  0  0  0
  196.8970  175.4050  135.9400 C   0  0  0  0  0  2  0  0  0  0  0  0
  197.0340  173.2020  136.8930 N   0  0  0  0  0  0  0  0  0  0  0  0
  185.9680  179.3760  142.0350 C   0  0  0  0  0  2  0  0  0  0  0  0
  185.0080  179.5420  141.0330 O   0  0  0  0  0  0  0  0  0  0  0  0
  183.4050  178.9040  142.6610 C   0  0  0  0  0  2  0  0  0  0  0  0
  181.9500  178.5450  142.4850 C   0  0  2  0  0  3  0  0  0  0  0  0
  182.8800  178.7280  140.3360 C   0  0  0  0  0  2  0  0  0  0  0  0
  184.0200  178.6010  141.3250 C   0  0  1  0  0  3  0  0  0  0  0  0
  181.6190  178.6910  141.0710 N   0  0  0  0  0  2  0  0  0  0  0  0
  180.3580  180.3230  142.4930 O   0  0  0  0  0  1  0  0  0  0  0  0
  181.0900  179.4720  143.3220 C   0  0  0  0  0  2  0  0  0  0  0  0
  1  8  1  0  0  0  0
  1  6  2  0  0  0  0
  2 12  1  0  0  0  0
  3 10  2  0  0  0  0
  4  8  1  0  0  0  0
  5  1  1  0  0  0  0
  7  4  2  0  0  0  0
  9  7  1  0  0  0  0
  9  5  2  0  0  0  0
 10 11  1  0  0  0  0
 11  2  2  0  0  0  0
 11  7  1  0  0  0  0
 12 15  2  0  0  0  0
 13 35  1  1  0  0  0
 13  2  1  0  0  0  0
 14  3  1  0  0  0  0
 14 13  1  0  0  0  0
 15  4  1  0  0  0  0
 16  3  1  0  0  0  0
 17 16  2  0  0  0  0
 18 16  1  0  0  0  0
 19 20  1  1  0  0  0
 19 18  1  0  0  0  0
 21 19  1  0  0  0  0
 22 21  1  0  0  0  0
 23 25  2  0  0  0  0
 24 22  1  0  0  0  0
 25 22  1  0  0  0  0
 25 27  1  0  0  0  0
 26 23  1  0  0  0  0
 26 24  2  0  0  0  0
 27 28  1  6  0  0  0
 29 34  1  0  0  0  0
 29 27  1  0  0  0  0
 30 32  1  0  0  0  0
 31 33  1  0  0  0  0
 31 32  1  0  0  0  0
 32 34  2  0  0  0  0
 33 29  1  0  0  0  0
 36 35  1  0  0  0  0
 38 37  1  0  0  0  0
 38 43  1  1  0  0  0
 39 41  1  0  0  0  0
 39 40  1  0  0  0  0
 40 36  1  6  0  0  0
 40 37  1  0  0  0  0
 41 38  1  0  0  0  0
 42 43  1  0  0  0  0
M  END
>  <MODEL>
9

>  <REMARK>
 VINA RESULT:      -7.7      3.501      8.842
  Name = 
  11 active torsions:
  status: ('A' for Active; 'I' for Inactive)
    1  A    between atoms: C_1  and  O_32
    2  A    between atoms: C_1  and  C_34
    3  A    between atoms: C_2  and  C_6
    4  A    between atoms: C_2  and  C_13
    5  A    between atoms: C_3  and  N_4
    6  A    between atoms: C_3  and  C_12
    7  A    between atoms: C_6  and  C_12
    8  A    between atoms: N_11  and  C_14
    9  A    between atoms: C_14  and  C_22
   10  A    between atoms: C_19  and  C_37
   11  A    between atoms: O_32  and  C_35
                            x       y       z     vdW  Elec       q    Type
                         _______ _______ _______ _____ _____    ______ ____

>  <TORSDO>
F 11

$$$$
