=
 OpenBabel10272400073D

 34 38  0  0  1  0  0  0  0  0999 V2000
  187.4980  178.0080  147.2220 C   0  0  0  0  0  0  0  0  0  0  0  0
  189.8660  177.4340  147.1960 C   0  0  0  0  0  0  0  0  0  0  0  0
  188.5040  176.8640  145.1780 C   0  0  1  0  0  3  0  0  0  0  0  0
  189.6940  176.6820  142.9880 N   0  0  0  0  0  0  0  0  0  0  0  0
  188.8760  178.4090  149.1770 C   0  0  0  0  0  3  0  0  0  0  0  0
  189.9940  177.8980  148.5070 C   0  0  0  0  0  3  0  0  0  0  0  0
  190.9850  176.8100  145.1130 C   0  0  0  0  0  3  0  0  0  0  0  0
  188.6100  177.4560  146.5620 C   0  0  0  0  0  0  0  0  0  0  0  0
  191.8520  177.4210  142.4450 O   0  0  0  0  0  0  0  0  0  0  0  0
  187.6340  178.4690  148.5350 C   0  0  0  0  0  3  0  0  0  0  0  0
  187.1550  177.0870  144.4650 C   0  0  2  0  0  3  0  0  0  0  0  0
  186.1610  178.0670  146.5450 C   0  0  0  0  0  2  0  0  0  0  0  0
  191.0450  176.9530  146.4450 C   0  0  0  0  0  3  0  0  0  0  0  0
  188.4250  176.1790  142.4500 C   0  0  0  0  0  2  0  0  0  0  0  0
  187.2360  177.0260  142.9270 C   0  0  2  0  0  3  0  0  0  0  0  0
  190.8020  176.8230  142.0800 C   0  0  0  0  0  0  0  0  0  0  0  0
  189.7470  177.2350  144.3540 C   0  0  2  0  0  3  0  0  0  0  0  0
  186.3260  178.2420  145.0370 C   0  0  0  0  0  2  0  0  0  0  0  0
  191.1300  176.9570  139.7140 C   0  0  0  0  0  3  0  0  0  0  0  0
  190.6980  176.3080  140.7470 N   0  0  0  0  0  0  0  0  0  0  0  0
  193.1690  176.9940  137.5520 F   0  0  0  0  0  0  0  0  0  0  0  0
  191.0010  176.4100  138.3580 C   0  0  0  0  0  0  0  0  0  0  0  0
  192.2310  175.9790  137.5790 C   0  0  1  0  0  3  0  0  0  0  0  0
  190.6550  174.7160  136.0890 C   0  0  0  0  0  2  0  0  0  0  0  0
  189.4960  175.5900  136.5470 C   0  0  0  0  0  2  0  0  0  0  0  0
  189.7650  176.1680  137.9070 C   0  0  0  0  0  3  0  0  0  0  0  0
  191.9310  175.5420  136.1420 C   0  0  0  0  0  2  0  0  0  0  0  0
  187.0860  178.3790  142.2050 C   0  0  1  0  0  3  0  0  0  0  0  0
  188.0950  178.6670  141.0770 C   0  0  1  0  0  3  0  0  0  0  0  0
  187.5670  178.3740  139.6830 C   0  0  0  0  0  1  0  0  0  0  0  0
  188.5200  179.9940  141.1460 O   0  0  0  0  0  1  0  0  0  0  0  0
  185.1950  179.8470  143.1060 C   0  0  0  0  0  1  0  0  0  0  0  0
  184.6600  177.6830  141.9870 C   0  0  0  0  0  1  0  0  0  0  0  0
  185.6290  178.8490  142.0450 C   0  0  0  0  0  3  0  0  0  0  0  0
  1 10  1  0  0  0  0
  2  6  2  0  0  0  0
  3  8  1  1  0  0  0
  4 17  1  0  0  0  0
  6  5  1  0  0  0  0
  7 13  2  0  0  0  0
  8  2  1  0  0  0  0
  8  1  2  0  0  0  0
 10  5  2  0  0  0  0
 11 18  1  6  0  0  0
 11  3  1  0  0  0  0
 12  1  1  0  0  0  0
 13  2  1  0  0  0  0
 14 15  1  0  0  0  0
 14  4  1  0  0  0  0
 15 28  1  6  0  0  0
 15 11  1  0  0  0  0
 16  9  2  0  0  0  0
 16  4  1  0  0  0  0
 17  7  1  1  0  0  0
 17  3  1  0  0  0  0
 18 12  1  0  0  0  0
 19 20  2  0  0  0  0
 20 16  1  0  0  0  0
 22 19  1  0  0  0  0
 23 21  1  6  0  0  0
 23 22  1  0  0  0  0
 24 27  1  0  0  0  0
 24 25  1  0  0  0  0
 25 26  1  0  0  0  0
 26 22  2  0  0  0  0
 27 23  1  0  0  0  0
 28 34  1  6  0  0  0
 29 30  1  6  0  0  0
 29 31  1  0  0  0  0
 29 28  1  0  0  0  0
 33 34  1  0  0  0  0
 34 32  1  0  0  0  0
M  END
>  <MODEL>
1

>  <REMARK>
 VINA RESULT:      -8.2      0.000      0.000
  Name = 
  5 active torsions:
  status: ('A' for Active; 'I' for Inactive)
    1  A    between atoms: C_3  and  C_13
    2  A    between atoms: C_7  and  C_23
    3  A    between atoms: N_17  and  C_29
    4  A    between atoms: C_23  and  C_27
    5  A    between atoms: C_23  and  C_28
                            x       y       z     vdW  Elec       q    Type
                         _______ _______ _______ _____ _____    ______ ____

>  <TORSDO>
F 5

$$$$
=
 OpenBabel10272400073D

 34 38  0  0  1  0  0  0  0  0999 V2000
  187.8720  177.5660  142.5860 C   0  0  0  0  0  0  0  0  0  0  0  0
  185.8080  178.0790  143.7760 C   0  0  0  0  0  0  0  0  0  0  0  0
  185.9860  178.7900  141.3850 C   0  0  1  0  0  3  0  0  0  0  0  0
  183.8640  179.0570  140.0920 N   0  0  0  0  0  0  0  0  0  0  0  0
  187.6500  177.0270  144.9410 C   0  0  0  0  0  3  0  0  0  0  0  0
  186.3490  177.5440  144.9460 C   0  0  0  0  0  3  0  0  0  0  0  0
  183.8020  178.7840  142.5660 C   0  0  0  0  0  3  0  0  0  0  0  0
  186.5820  178.1230  142.6010 C   0  0  0  0  0  0  0  0  0  0  0  0
  181.7190  178.2930  140.6530 O   0  0  0  0  0  0  0  0  0  0  0  0
  188.4060  177.0330  143.7630 C   0  0  0  0  0  3  0  0  0  0  0  0
  186.7990  178.6400  140.0840 C   0  0  2  0  0  3  0  0  0  0  0  0
  188.6930  177.5760  141.3310 C   0  0  0  0  0  2  0  0  0  0  0  0
  184.4140  178.5700  143.7410 C   0  0  0  0  0  3  0  0  0  0  0  0
  184.6980  179.6200  139.0250 C   0  0  0  0  0  2  0  0  0  0  0  0
  185.9630  178.7800  138.7960 C   0  0  2  0  0  3  0  0  0  0  0  0
  182.4510  178.9360  139.8500 C   0  0  0  0  0  0  0  0  0  0  0  0
  184.4970  178.4310  141.2680 C   0  0  2  0  0  3  0  0  0  0  0  0
  187.7980  177.4770  140.0990 C   0  0  0  0  0  2  0  0  0  0  0  0
  181.5250  180.7670  138.6200 C   0  0  0  0  0  3  0  0  0  0  0  0
  181.8780  179.5230  138.6740 N   0  0  0  0  0  0  0  0  0  0  0  0
  180.0340  183.3270  138.3780 F   0  0  0  0  0  0  0  0  0  0  0  0
  180.9300  181.3410  137.4070 C   0  0  0  0  0  0  0  0  0  0  0  0
  180.7230  182.8400  137.2830 C   0  0  1  0  0  3  0  0  0  0  0  0
  180.4730  182.4450  134.8160 C   0  0  0  0  0  2  0  0  0  0  0  0
  180.1450  180.9800  135.0680 C   0  0  0  0  0  2  0  0  0  0  0  0
  180.7260  180.5170  136.3730 C   0  0  0  0  0  3  0  0  0  0  0  0
  179.9860  183.2580  136.0060 C   0  0  0  0  0  2  0  0  0  0  0  0
  185.7280  177.4710  138.0180 C   0  0  1  0  0  3  0  0  0  0  0  0
  184.2600  177.0380  137.8370 C   0  0  1  0  0  3  0  0  0  0  0  0
  183.7900  177.0310  136.3930 C   0  0  0  0  0  1  0  0  0  0  0  0
  184.0640  175.7770  138.3980 O   0  0  0  0  0  1  0  0  0  0  0  0
  187.6070  176.0120  137.0800 C   0  0  0  0  0  1  0  0  0  0  0  0
  187.5770  178.4580  136.5950 C   0  0  0  0  0  1  0  0  0  0  0  0
  186.7260  177.2330  136.8710 C   0  0  0  0  0  3  0  0  0  0  0  0
  1  8  2  0  0  0  0
  1 10  1  0  0  0  0
  2  6  2  0  0  0  0
  3  8  1  1  0  0  0
  4 17  1  0  0  0  0
  5  6  1  0  0  0  0
  7 13  2  0  0  0  0
  8  2  1  0  0  0  0
 10  5  2  0  0  0  0
 11 18  1  1  0  0  0
 11  3  1  0  0  0  0
 12  1  1  0  0  0  0
 13  2  1  0  0  0  0
 14  4  1  0  0  0  0
 15 28  1  1  0  0  0
 15 14  1  0  0  0  0
 15 11  1  0  0  0  0
 16  4  1  0  0  0  0
 16  9  2  0  0  0  0
 17  3  1  0  0  0  0
 17  7  1  1  0  0  0
 18 12  1  0  0  0  0
 19 20  2  0  0  0  0
 20 16  1  0  0  0  0
 22 19  1  0  0  0  0
 23 22  1  0  0  0  0
 23 21  1  1  0  0  0
 24 25  1  0  0  0  0
 24 27  1  0  0  0  0
 25 26  1  0  0  0  0
 26 22  2  0  0  0  0
 27 23  1  0  0  0  0
 28 34  1  6  0  0  0
 29 30  1  6  0  0  0
 29 28  1  0  0  0  0
 29 31  1  0  0  0  0
 33 34  1  0  0  0  0
 34 32  1  0  0  0  0
M  END
>  <MODEL>
2

>  <REMARK>
 VINA RESULT:      -7.9      5.457      8.140
  Name = 
  5 active torsions:
  status: ('A' for Active; 'I' for Inactive)
    1  A    between atoms: C_3  and  C_13
    2  A    between atoms: C_7  and  C_23
    3  A    between atoms: N_17  and  C_29
    4  A    between atoms: C_23  and  C_27
    5  A    between atoms: C_23  and  C_28
                            x       y       z     vdW  Elec       q    Type
                         _______ _______ _______ _____ _____    ______ ____

>  <TORSDO>
F 5

$$$$
=
 OpenBabel10272400073D

 34 38  0  0  1  0  0  0  0  0999 V2000
  187.9130  177.7810  147.7050 C   0  0  0  0  0  0  0  0  0  0  0  0
  190.1900  177.5910  146.8560 C   0  0  0  0  0  0  0  0  0  0  0  0
  188.3160  176.9590  145.3250 C   0  0  1  0  0  3  0  0  0  0  0  0
  188.7210  177.1250  142.8650 N   0  0  0  0  0  0  0  0  0  0  0  0
  189.8030  178.2520  149.1510 C   0  0  0  0  0  3  0  0  0  0  0  0
  190.6880  177.9740  148.1030 C   0  0  0  0  0  3  0  0  0  0  0  0
  190.6200  177.3020  144.4660 C   0  0  0  0  0  3  0  0  0  0  0  0
  188.8020  177.4600  146.6640 C   0  0  0  0  0  0  0  0  0  0  0  0
  190.4650  178.2330  141.7540 O   0  0  0  0  0  0  0  0  0  0  0  0
  188.4210  178.1610  148.9510 C   0  0  0  0  0  3  0  0  0  0  0  0
  186.7910  177.0170  145.1120 C   0  0  2  0  0  3  0  0  0  0  0  0
  186.4310  177.6770  147.5020 C   0  0  0  0  0  2  0  0  0  0  0  0
  191.1020  177.3560  145.7160 C   0  0  0  0  0  3  0  0  0  0  0  0
  187.4200  176.4680  142.7040 C   0  0  0  0  0  2  0  0  0  0  0  0
  186.3610  177.0800  143.6330 C   0  0  2  0  0  3  0  0  0  0  0  0
  189.4370  177.5040  141.6750 C   0  0  0  0  0  0  0  0  0  0  0  0
  189.1570  177.5800  144.1980 C   0  0  2  0  0  3  0  0  0  0  0  0
  186.0620  177.9830  146.0520 C   0  0  0  0  0  2  0  0  0  0  0  0
  188.5560  177.9080  139.4870 C   0  0  0  0  0  3  0  0  0  0  0  0
  188.9600  177.0760  140.3920 N   0  0  0  0  0  0  0  0  0  0  0  0
  185.9630  178.5730  138.1970 F   0  0  0  0  0  0  0  0  0  0  0  0
  188.0630  177.4410  138.1860 C   0  0  0  0  0  0  0  0  0  0  0  0
  187.0510  178.2600  137.4040 C   0  0  1  0  0  3  0  0  0  0  0  0
  187.7040  176.8800  135.4120 C   0  0  0  0  0  2  0  0  0  0  0  0
  188.2510  175.7920  136.3250 C   0  0  0  0  0  2  0  0  0  0  0  0
  188.6470  176.3590  137.6570 C   0  0  0  0  0  3  0  0  0  0  0  0
  186.5550  177.5750  136.1270 C   0  0  0  0  0  2  0  0  0  0  0  0
  185.8110  178.4420  143.1640 C   0  0  1  0  0  3  0  0  0  0  0  0
  185.7180  178.6530  141.6410 C   0  0  1  0  0  3  0  0  0  0  0  0
  184.3310  178.4220  141.0670 C   0  0  0  0  0  1  0  0  0  0  0  0
  186.1520  179.9370  141.3110 O   0  0  0  0  0  1  0  0  0  0  0  0
  183.3100  178.5690  143.6830 C   0  0  0  0  0  1  0  0  0  0  0  0
  184.7740  180.5340  144.1470 C   0  0  0  0  0  1  0  0  0  0  0  0
  184.7090  179.0200  144.0700 C   0  0  0  0  0  3  0  0  0  0  0  0
  1 10  1  0  0  0  0
  2  6  2  0  0  0  0
  3  8  1  1  0  0  0
  4 17  1  0  0  0  0
  6  5  1  0  0  0  0
  7 13  2  0  0  0  0
  8  2  1  0  0  0  0
  8  1  2  0  0  0  0
 10  5  2  0  0  0  0
 11  3  1  0  0  0  0
 11 18  1  1  0  0  0
 12  1  1  0  0  0  0
 13  2  1  0  0  0  0
 14  4  1  0  0  0  0
 14 15  1  0  0  0  0
 15 28  1  6  0  0  0
 15 11  1  0  0  0  0
 16  9  2  0  0  0  0
 16  4  1  0  0  0  0
 17  7  1  1  0  0  0
 17  3  1  0  0  0  0
 18 12  1  0  0  0  0
 19 20  2  0  0  0  0
 20 16  1  0  0  0  0
 22 19  1  0  0  0  0
 23 22  1  0  0  0  0
 23 21  1  1  0  0  0
 24 27  1  0  0  0  0
 24 25  1  0  0  0  0
 25 26  1  0  0  0  0
 26 22  2  0  0  0  0
 27 23  1  0  0  0  0
 28 34  1  1  0  0  0
 29 30  1  1  0  0  0
 29 28  1  0  0  0  0
 31 29  1  0  0  0  0
 32 34  1  0  0  0  0
 34 33  1  0  0  0  0
M  END
>  <MODEL>
3

>  <REMARK>
 VINA RESULT:      -7.1      2.021      2.572
  Name = 
  5 active torsions:
  status: ('A' for Active; 'I' for Inactive)
    1  A    between atoms: C_3  and  C_13
    2  A    between atoms: C_7  and  C_23
    3  A    between atoms: N_17  and  C_29
    4  A    between atoms: C_23  and  C_27
    5  A    between atoms: C_23  and  C_28
                            x       y       z     vdW  Elec       q    Type
                         _______ _______ _______ _____ _____    ______ ____

>  <TORSDO>
F 5

$$$$
=
 OpenBabel10272400073D

 34 38  0  0  1  0  0  0  0  0999 V2000
  190.5270  176.8310  135.2190 C   0  0  0  0  0  0  0  0  0  0  0  0
  191.9540  176.1920  137.0880 C   0  0  0  0  0  0  0  0  0  0  0  0
  189.9940  177.6700  137.5660 C   0  0  1  0  0  3  0  0  0  0  0  0
  189.0350  177.6140  139.8730 N   0  0  0  0  0  0  0  0  0  0  0  0
  192.5210  175.5030  134.8390 C   0  0  0  0  0  3  0  0  0  0  0  0
  192.8030  175.5160  136.2100 C   0  0  0  0  0  3  0  0  0  0  0  0
  191.2280  176.5350  139.3980 C   0  0  0  0  0  3  0  0  0  0  0  0
  190.8330  176.8810  136.5900 C   0  0  0  0  0  0  0  0  0  0  0  0
  189.4090  176.0300  141.5620 O   0  0  0  0  0  0  0  0  0  0  0  0
  191.3840  176.1530  134.3460 C   0  0  0  0  0  3  0  0  0  0  0  0
  188.6810  178.2420  136.9980 C   0  0  2  0  0  3  0  0  0  0  0  0
  189.3160  177.5330  134.6810 C   0  0  0  0  0  2  0  0  0  0  0  0
  192.1960  176.1640  138.5470 C   0  0  0  0  0  3  0  0  0  0  0  0
  188.2020  178.7460  139.4500 C   0  0  0  0  0  2  0  0  0  0  0  0
  187.5950  178.5090  138.0590 C   0  0  2  0  0  3  0  0  0  0  0  0
  188.8570  177.1090  141.2100 C   0  0  0  0  0  0  0  0  0  0  0  0
  189.8500  176.8880  138.8820 C   0  0  2  0  0  3  0  0  0  0  0  0
  188.1970  177.5510  135.7180 C   0  0  0  0  0  2  0  0  0  0  0  0
  187.2940  177.2230  143.0170 C   0  0  0  0  0  3  0  0  0  0  0  0
  188.0250  177.8230  142.1340 N   0  0  0  0  0  0  0  0  0  0  0  0
  185.5340  179.5310  142.3780 F   0  0  0  0  0  0  0  0  0  0  0  0
  186.4430  177.9780  143.9440 C   0  0  0  0  0  0  0  0  0  0  0  0
  185.2100  178.7080  143.4410 C   0  0  1  0  0  3  0  0  0  0  0  0
  184.4680  178.7880  145.8370 C   0  0  0  0  0  2  0  0  0  0  0  0
  185.9000  178.5710  146.3050 C   0  0  0  0  0  2  0  0  0  0  0  0
  186.7070  177.8690  145.2510 C   0  0  0  0  0  3  0  0  0  0  0  0
  184.5020  179.5400  144.5150 C   0  0  0  0  0  2  0  0  0  0  0  0
  186.4020  177.5330  138.0410 C   0  0  1  0  0  3  0  0  0  0  0  0
  185.0350  178.1180  138.4450 C   0  0  1  0  0  3  0  0  0  0  0  0
  184.5410  177.6570  139.8050 C   0  0  0  0  0  1  0  0  0  0  0  0
  185.0870  179.5120  138.4150 O   0  0  0  0  0  1  0  0  0  0  0  0
  185.1500  176.3110  136.1760 C   0  0  0  0  0  1  0  0  0  0  0  0
  186.9690  175.1430  137.4210 C   0  0  0  0  0  1  0  0  0  0  0  0
  186.4660  176.4830  136.9180 C   0  0  0  0  0  3  0  0  0  0  0  0
  1  8  1  0  0  0  0
  2 13  1  0  0  0  0
  3  8  1  6  0  0  0
  3 17  1  0  0  0  0
  4 16  1  0  0  0  0
  5  6  2  0  0  0  0
  6  2  1  0  0  0  0
  8  2  2  0  0  0  0
 10  5  1  0  0  0  0
 10  1  2  0  0  0  0
 11 18  1  6  0  0  0
 11  3  1  0  0  0  0
 11 15  1  0  0  0  0
 12  1  1  0  0  0  0
 12 18  1  0  0  0  0
 13  7  2  0  0  0  0
 14  4  1  0  0  0  0
 15 28  1  1  0  0  0
 15 14  1  0  0  0  0
 16  9  2  0  0  0  0
 16 20  1  0  0  0  0
 17  7  1  1  0  0  0
 17  4  1  0  0  0  0
 19 22  1  0  0  0  0
 20 19  2  0  0  0  0
 22 26  2  0  0  0  0
 23 21  1  6  0  0  0
 23 22  1  0  0  0  0
 23 27  1  0  0  0  0
 24 25  1  0  0  0  0
 26 25  1  0  0  0  0
 27 24  1  0  0  0  0
 28 34  1  6  0  0  0
 28 29  1  0  0  0  0
 29 30  1  1  0  0  0
 31 29  1  0  0  0  0
 32 34  1  0  0  0  0
 34 33  1  0  0  0  0
M  END
>  <MODEL>
4

>  <REMARK>
 VINA RESULT:      -6.6      2.862      8.524
  Name = 
  5 active torsions:
  status: ('A' for Active; 'I' for Inactive)
    1  A    between atoms: C_3  and  C_13
    2  A    between atoms: C_7  and  C_23
    3  A    between atoms: N_17  and  C_29
    4  A    between atoms: C_23  and  C_27
    5  A    between atoms: C_23  and  C_28
                            x       y       z     vdW  Elec       q    Type
                         _______ _______ _______ _____ _____    ______ ____

>  <TORSDO>
F 5

$$$$
=
 OpenBabel10272400073D

 34 38  0  0  1  0  0  0  0  0999 V2000
  190.5670  177.0930  142.2930 C   0  0  0  0  0  0  0  0  0  0  0  0
  188.6940  177.5400  143.7870 C   0  0  0  0  0  0  0  0  0  0  0  0
  188.4950  178.2860  141.4080 C   0  0  1  0  0  3  0  0  0  0  0  0
  186.1980  178.5170  140.4520 N   0  0  0  0  0  0  0  0  0  0  0  0
  190.7130  176.5180  144.6450 C   0  0  0  0  0  3  0  0  0  0  0  0
  189.4170  177.0020  144.8540 C   0  0  0  0  0  3  0  0  0  0  0  0
  186.5140  178.2100  142.9030 C   0  0  0  0  0  3  0  0  0  0  0  0
  189.2820  177.6180  142.5100 C   0  0  0  0  0  0  0  0  0  0  0  0
  184.1790  177.6920  141.3160 O   0  0  0  0  0  0  0  0  0  0  0  0
  191.2840  176.5580  143.3680 C   0  0  0  0  0  3  0  0  0  0  0  0
  189.1070  178.1730  139.9980 C   0  0  2  0  0  3  0  0  0  0  0  0
  191.1910  177.1400  140.9300 C   0  0  0  0  0  2  0  0  0  0  0  0
  187.3000  177.9960  143.9690 C   0  0  0  0  0  3  0  0  0  0  0  0
  186.8500  179.1140  139.2820 C   0  0  0  0  0  2  0  0  0  0  0  0
  188.0850  178.3090  138.8520 C   0  0  2  0  0  3  0  0  0  0  0  0
  184.7670  178.3640  140.4220 C   0  0  0  0  0  0  0  0  0  0  0  0
  187.0140  177.8920  141.5100 C   0  0  2  0  0  3  0  0  0  0  0  0
  190.1230  177.0350  139.8430 C   0  0  0  0  0  2  0  0  0  0  0  0
  182.7570  179.2480  139.4730 C   0  0  0  0  0  3  0  0  0  0  0  0
  184.0120  178.9520  139.3560 N   0  0  0  0  0  0  0  0  0  0  0  0
  182.3230  178.0910  136.7700 F   0  0  0  0  0  0  0  0  0  0  0  0
  182.0050  179.8400  138.3600 C   0  0  0  0  0  0  0  0  0  0  0  0
  181.3820  178.9580  137.2930 C   0  0  1  0  0  3  0  0  0  0  0  0
  179.9860  180.9510  136.6780 C   0  0  0  0  0  2  0  0  0  0  0  0
  180.9890  181.8800  137.3480 C   0  0  0  0  0  2  0  0  0  0  0  0
  181.7640  181.1550  138.4100 C   0  0  0  0  0  3  0  0  0  0  0  0
  180.7350  179.7390  136.1450 C   0  0  0  0  0  2  0  0  0  0  0  0
  187.7650  177.0050  138.0960 C   0  0  1  0  0  3  0  0  0  0  0  0
  186.3810  176.9270  137.4220 C   0  0  1  0  0  3  0  0  0  0  0  0
  186.3290  177.5570  136.0410 C   0  0  0  0  0  1  0  0  0  0  0  0
  185.9630  175.5990  137.3460 O   0  0  0  0  0  1  0  0  0  0  0  0
  189.4780  177.1820  136.2060 C   0  0  0  0  0  1  0  0  0  0  0  0
  188.7100  174.9380  136.9770 C   0  0  0  0  0  1  0  0  0  0  0  0
  188.9780  176.3730  137.3910 C   0  0  0  0  0  3  0  0  0  0  0  0
  1  8  2  0  0  0  0
  1 10  1  0  0  0  0
  2 13  1  0  0  0  0
  2  6  2  0  0  0  0
  3 17  1  0  0  0  0
  3  8  1  1  0  0  0
  4 17  1  0  0  0  0
  5  6  1  0  0  0  0
  7 13  2  0  0  0  0
  8  2  1  0  0  0  0
 10  5  2  0  0  0  0
 11 18  1  1  0  0  0
 11  3  1  0  0  0  0
 12  1  1  0  0  0  0
 14  4  1  0  0  0  0
 15 28  1  1  0  0  0
 15 14  1  0  0  0  0
 15 11  1  0  0  0  0
 16  4  1  0  0  0  0
 16  9  2  0  0  0  0
 17  7  1  1  0  0  0
 18 12  1  0  0  0  0
 20 19  2  0  0  0  0
 20 16  1  0  0  0  0
 22 26  2  0  0  0  0
 22 19  1  0  0  0  0
 23 21  1  6  0  0  0
 23 22  1  0  0  0  0
 24 25  1  0  0  0  0
 25 26  1  0  0  0  0
 27 24  1  0  0  0  0
 27 23  1  0  0  0  0
 28 34  1  6  0  0  0
 29 30  1  6  0  0  0
 29 28  1  0  0  0  0
 31 29  1  0  0  0  0
 32 34  1  0  0  0  0
 33 34  1  0  0  0  0
M  END
>  <MODEL>
5

>  <REMARK>
 VINA RESULT:      -6.1      4.134      7.155
  Name = 
  5 active torsions:
  status: ('A' for Active; 'I' for Inactive)
    1  A    between atoms: C_3  and  C_13
    2  A    between atoms: C_7  and  C_23
    3  A    between atoms: N_17  and  C_29
    4  A    between atoms: C_23  and  C_27
    5  A    between atoms: C_23  and  C_28
                            x       y       z     vdW  Elec       q    Type
                         _______ _______ _______ _____ _____    ______ ____

>  <TORSDO>
F 5

$$$$
=
 OpenBabel10272400073D

 34 38  0  0  1  0  0  0  0  0999 V2000
  184.4250  178.5650  139.8270 C   0  0  0  0  0  0  0  0  0  0  0  0
  184.4510  177.3750  137.6990 C   0  0  0  0  0  0  0  0  0  0  0  0
  186.6360  178.1700  138.6200 C   0  0  1  0  0  3  0  0  0  0  0  0
  188.7010  176.9430  137.9310 N   0  0  0  0  0  0  0  0  0  0  0  0
  182.3470  177.8610  138.7910 C   0  0  0  0  0  3  0  0  0  0  0  0
  183.0570  177.3000  137.7240 C   0  0  0  0  0  3  0  0  0  0  0  0
  186.5440  176.5320  136.7570 C   0  0  0  0  0  3  0  0  0  0  0  0
  185.1360  178.0390  138.7340 C   0  0  0  0  0  0  0  0  0  0  0  0
  188.8630  174.8450  136.8960 O   0  0  0  0  0  0  0  0  0  0  0  0
  183.0290  178.4870  139.8420 C   0  0  0  0  0  3  0  0  0  0  0  0
  187.3460  178.7350  139.8670 C   0  0  2  0  0  3  0  0  0  0  0  0
  185.1470  179.2450  140.9510 C   0  0  0  0  0  2  0  0  0  0  0  0
  185.2250  176.7320  136.6170 C   0  0  0  0  0  3  0  0  0  0  0  0
  189.4450  178.0060  138.6170 C   0  0  0  0  0  2  0  0  0  0  0  0
  188.8290  178.3310  139.9860 C   0  0  2  0  0  3  0  0  0  0  0  0
  189.4530  175.8720  137.3330 C   0  0  0  0  0  0  0  0  0  0  0  0
  187.2340  176.8700  138.0610 C   0  0  2  0  0  3  0  0  0  0  0  0
  186.5280  178.6280  141.1580 C   0  0  0  0  0  2  0  0  0  0  0  0
  191.5670  175.4040  136.3140 C   0  0  0  0  0  3  0  0  0  0  0  0
  190.8820  175.9620  137.2600 N   0  0  0  0  0  0  0  0  0  0  0  0
  193.5210  174.0460  138.0960 F   0  0  0  0  0  0  0  0  0  0  0  0
  193.0310  175.5020  136.2710 C   0  0  0  0  0  0  0  0  0  0  0  0
  193.8970  174.3760  136.8070 C   0  0  1  0  0  3  0  0  0  0  0  0
  195.7800  175.4140  135.5120 C   0  0  0  0  0  2  0  0  0  0  0  0
  195.0400  176.7440  135.4720 C   0  0  0  0  0  2  0  0  0  0  0  0
  193.5590  176.5380  135.6090 C   0  0  0  0  0  3  0  0  0  0  0  0
  195.3970  174.6890  136.7930 C   0  0  0  0  0  2  0  0  0  0  0  0
  189.1460  177.3020  141.0880 C   0  0  1  0  0  3  0  0  0  0  0  0
  190.4760  176.5380  140.9480 C   0  0  1  0  0  3  0  0  0  0  0  0
  191.6860  177.4340  140.7410 C   0  0  0  0  0  1  0  0  0  0  0  0
  190.6800  175.7290  142.0650 O   0  0  0  0  0  1  0  0  0  0  0  0
  189.7240  178.4260  143.3110 C   0  0  0  0  0  1  0  0  0  0  0  0
  188.0950  176.5380  143.2630 C   0  0  0  0  0  1  0  0  0  0  0  0
  188.6620  177.7140  142.4900 C   0  0  0  0  0  3  0  0  0  0  0  0
  1 10  1  0  0  0  0
  1 12  1  0  0  0  0
  2  6  2  0  0  0  0
  2  8  1  0  0  0  0
  3  8  1  1  0  0  0
  3 11  1  0  0  0  0
  4 17  1  0  0  0  0
  4 14  1  0  0  0  0
  5 10  2  0  0  0  0
  6  5  1  0  0  0  0
  8  1  2  0  0  0  0
  9 16  2  0  0  0  0
 11 15  1  0  0  0  0
 11 18  1  1  0  0  0
 12 18  1  0  0  0  0
 13  7  2  0  0  0  0
 13  2  1  0  0  0  0
 14 15  1  0  0  0  0
 15 28  1  1  0  0  0
 16  4  1  0  0  0  0
 17  7  1  6  0  0  0
 17  3  1  0  0  0  0
 19 20  2  0  0  0  0
 20 16  1  0  0  0  0
 22 19  1  0  0  0  0
 22 23  1  0  0  0  0
 23 21  1  1  0  0  0
 24 27  1  0  0  0  0
 25 24  1  0  0  0  0
 25 26  1  0  0  0  0
 26 22  2  0  0  0  0
 27 23  1  0  0  0  0
 28 34  1  1  0  0  0
 29 30  1  1  0  0  0
 29 28  1  0  0  0  0
 29 31  1  0  0  0  0
 34 33  1  0  0  0  0
 34 32  1  0  0  0  0
M  END
>  <MODEL>
6

>  <REMARK>
 VINA RESULT:      -5.9      2.973      6.506
  Name = 
  5 active torsions:
  status: ('A' for Active; 'I' for Inactive)
    1  A    between atoms: C_3  and  C_13
    2  A    between atoms: C_7  and  C_23
    3  A    between atoms: N_17  and  C_29
    4  A    between atoms: C_23  and  C_27
    5  A    between atoms: C_23  and  C_28
                            x       y       z     vdW  Elec       q    Type
                         _______ _______ _______ _____ _____    ______ ____

>  <TORSDO>
F 5

$$$$
=
 OpenBabel10272400073D

 34 38  0  0  1  0  0  0  0  0999 V2000
  190.6360  177.1990  140.1130 C   0  0  0  0  0  0  0  0  0  0  0  0
  189.2200  178.0560  141.9030 C   0  0  0  0  0  0  0  0  0  0  0  0
  188.4130  178.3130  139.5500 C   0  0  1  0  0  3  0  0  0  0  0  0
  185.9470  178.4860  139.1820 N   0  0  0  0  0  0  0  0  0  0  0  0
  191.3870  177.1070  142.4180 C   0  0  0  0  0  3  0  0  0  0  0  0
  190.1930  177.7040  142.8410 C   0  0  0  0  0  3  0  0  0  0  0  0
  186.8900  178.6660  141.4800 C   0  0  0  0  0  3  0  0  0  0  0  0
  189.4550  177.8360  140.5330 C   0  0  0  0  0  0  0  0  0  0  0  0
  184.2180  177.9820  140.6840 O   0  0  0  0  0  0  0  0  0  0  0  0
  191.6050  176.8510  141.0590 C   0  0  0  0  0  3  0  0  0  0  0  0
  188.6340  177.8770  138.0880 C   0  0  2  0  0  3  0  0  0  0  0  0
  190.8820  176.9290  138.6590 C   0  0  0  0  0  2  0  0  0  0  0  0
  187.9250  178.6250  142.3320 C   0  0  0  0  0  3  0  0  0  0  0  0
  186.2750  178.7910  137.7850 C   0  0  0  0  0  2  0  0  0  0  0  0
  187.3490  177.8400  137.2380 C   0  0  2  0  0  3  0  0  0  0  0  0
  184.5570  178.4190  139.5500 C   0  0  0  0  0  0  0  0  0  0  0  0
  187.0060  178.0410  140.1060 C   0  0  2  0  0  3  0  0  0  0  0  0
  189.5670  176.6720  137.9270 C   0  0  0  0  0  2  0  0  0  0  0  0
  182.7210  179.7850  138.8520 C   0  0  0  0  0  3  0  0  0  0  0  0
  183.5530  178.8240  138.6100 N   0  0  0  0  0  0  0  0  0  0  0  0
  180.6750  181.9230  139.1340 F   0  0  0  0  0  0  0  0  0  0  0  0
  181.6950  180.1720  137.8750 C   0  0  0  0  0  0  0  0  0  0  0  0
  181.1230  181.5780  137.8720 C   0  0  1  0  0  3  0  0  0  0  0  0
  180.2900  181.0690  135.5600 C   0  0  0  0  0  2  0  0  0  0  0  0
  180.3910  179.5750  135.8360 C   0  0  0  0  0  2  0  0  0  0  0  0
  181.4040  179.2950  136.9080 C   0  0  0  0  0  3  0  0  0  0  0  0
  179.9830  181.7800  136.8690 C   0  0  0  0  0  2  0  0  0  0  0  0
  186.8340  176.4320  136.8830 C   0  0  1  0  0  3  0  0  0  0  0  0
  185.3130  176.2130  136.9950 C   0  0  1  0  0  3  0  0  0  0  0  0
  184.5410  176.5750  135.7370 C   0  0  0  0  0  1  0  0  0  0  0  0
  185.0470  174.8880  137.3400 O   0  0  0  0  0  1  0  0  0  0  0  0
  187.6990  176.5920  134.4820 C   0  0  0  0  0  1  0  0  0  0  0  0
  187.0490  174.3740  135.4210 C   0  0  0  0  0  1  0  0  0  0  0  0
  187.6080  175.7470  135.7430 C   0  0  0  0  0  3  0  0  0  0  0  0
  1  8  2  0  0  0  0
  1 10  1  0  0  0  0
  2 13  1  0  0  0  0
  2  6  2  0  0  0  0
  3 17  1  0  0  0  0
  3  8  1  1  0  0  0
  4 16  1  0  0  0  0
  4 17  1  0  0  0  0
  5  6  1  0  0  0  0
  7 13  2  0  0  0  0
  8  2  1  0  0  0  0
 10  5  2  0  0  0  0
 11 18  1  1  0  0  0
 11  3  1  0  0  0  0
 12  1  1  0  0  0  0
 14  4  1  0  0  0  0
 15 28  1  1  0  0  0
 15 14  1  0  0  0  0
 15 11  1  0  0  0  0
 16  9  2  0  0  0  0
 17  7  1  1  0  0  0
 18 12  1  0  0  0  0
 20 19  2  0  0  0  0
 20 16  1  0  0  0  0
 22 19  1  0  0  0  0
 23 22  1  0  0  0  0
 23 21  1  1  0  0  0
 24 25  1  0  0  0  0
 24 27  1  0  0  0  0
 25 26  1  0  0  0  0
 26 22  2  0  0  0  0
 27 23  1  0  0  0  0
 28 34  1  6  0  0  0
 28 29  1  0  0  0  0
 29 30  1  6  0  0  0
 29 31  1  0  0  0  0
 32 34  1  0  0  0  0
 33 34  1  0  0  0  0
M  END
>  <MODEL>
7

>  <REMARK>
 VINA RESULT:      -5.8      4.812      8.132
  Name = 
  5 active torsions:
  status: ('A' for Active; 'I' for Inactive)
    1  A    between atoms: C_3  and  C_13
    2  A    between atoms: C_7  and  C_23
    3  A    between atoms: N_17  and  C_29
    4  A    between atoms: C_23  and  C_27
    5  A    between atoms: C_23  and  C_28
                            x       y       z     vdW  Elec       q    Type
                         _______ _______ _______ _____ _____    ______ ____

>  <TORSDO>
F 5

$$$$
=
 OpenBabel10272400073D

 34 38  0  0  1  0  0  0  0  0999 V2000
  181.6800  178.3680  135.1020 C   0  0  0  0  0  0  0  0  0  0  0  0
  181.0700  179.6740  137.0670 C   0  0  0  0  0  0  0  0  0  0  0  0
  182.7370  177.8330  137.3590 C   0  0  1  0  0  3  0  0  0  0  0  0
  184.3590  178.0260  139.2500 N   0  0  0  0  0  0  0  0  0  0  0  0
  179.9820  180.0930  134.9460 C   0  0  0  0  0  3  0  0  0  0  0  0
  180.1450  180.3910  136.3040 C   0  0  0  0  0  3  0  0  0  0  0  0
  182.3960  179.5520  139.1180 C   0  0  0  0  0  3  0  0  0  0  0  0
  181.8150  178.6370  136.4750 C   0  0  0  0  0  0  0  0  0  0  0  0
  184.8620  179.9180  140.5420 O   0  0  0  0  0  0  0  0  0  0  0  0
  180.7500  179.0890  134.3460 C   0  0  0  0  0  3  0  0  0  0  0  0
  183.6610  176.8430  136.6230 C   0  0  2  0  0  3  0  0  0  0  0  0
  182.4920  177.2870  134.4530 C   0  0  0  0  0  2  0  0  0  0  0  0
  181.3070  180.0150  138.4860 C   0  0  0  0  0  3  0  0  0  0  0  0
  184.7690  176.6590  138.9110 C   0  0  0  0  0  2  0  0  0  0  0  0
  184.9460  176.4840  137.3960 C   0  0  2  0  0  3  0  0  0  0  0  0
  185.0440  178.6870  140.3300 C   0  0  0  0  0  0  0  0  0  0  0  0
  183.4410  178.7620  138.3610 C   0  0  2  0  0  3  0  0  0  0  0  0
  183.8520  177.1500  135.1340 C   0  0  0  0  0  2  0  0  0  0  0  0
  187.1120  178.4180  141.5030 C   0  0  0  0  0  3  0  0  0  0  0  0
  185.9600  177.9480  141.1490 N   0  0  0  0  0  0  0  0  0  0  0  0
  189.1980  176.5140  140.5780 F   0  0  0  0  0  0  0  0  0  0  0  0
  188.0350  177.6350  142.3330 C   0  0  0  0  0  0  0  0  0  0  0  0
  189.3720  177.1750  141.7790 C   0  0  1  0  0  3  0  0  0  0  0  0
  190.0500  176.7800  144.1630 C   0  0  0  0  0  2  0  0  0  0  0  0
  188.5890  176.7180  144.5850 C   0  0  0  0  0  2  0  0  0  0  0  0
  187.7210  177.4780  143.6240 C   0  0  0  0  0  3  0  0  0  0  0  0
  190.1600  176.2720  142.7340 C   0  0  0  0  0  2  0  0  0  0  0  0
  186.2460  177.0890  136.8310 C   0  0  1  0  0  3  0  0  0  0  0  0
  186.8830  178.2260  137.6520 C   0  0  1  0  0  3  0  0  0  0  0  0
  188.3620  178.0300  137.9390 C   0  0  0  0  0  1  0  0  0  0  0  0
  186.6910  179.4460  137.0040 O   0  0  0  0  0  1  0  0  0  0  0  0
  187.4800  176.4400  134.6870 C   0  0  0  0  0  1  0  0  0  0  0  0
  186.6020  174.6610  136.1990 C   0  0  0  0  0  1  0  0  0  0  0  0
  187.1600  176.0700  136.1260 C   0  0  0  0  0  3  0  0  0  0  0  0
  1  8  1  0  0  0  0
  2 13  1  0  0  0  0
  3  8  1  6  0  0  0
  3 17  1  0  0  0  0
  4 16  1  0  0  0  0
  5  6  2  0  0  0  0
  6  2  1  0  0  0  0
  8  2  2  0  0  0  0
 10  5  1  0  0  0  0
 10  1  2  0  0  0  0
 11 18  1  6  0  0  0
 11  3  1  0  0  0  0
 11 15  1  0  0  0  0
 12  1  1  0  0  0  0
 12 18  1  0  0  0  0
 13  7  2  0  0  0  0
 14  4  1  0  0  0  0
 15 28  1  6  0  0  0
 15 14  1  0  0  0  0
 16  9  2  0  0  0  0
 16 20  1  0  0  0  0
 17  7  1  1  0  0  0
 17  4  1  0  0  0  0
 19 22  1  0  0  0  0
 20 19  2  0  0  0  0
 22 26  2  0  0  0  0
 23 21  1  6  0  0  0
 23 22  1  0  0  0  0
 23 27  1  0  0  0  0
 24 25  1  0  0  0  0
 26 25  1  0  0  0  0
 27 24  1  0  0  0  0
 28 34  1  1  0  0  0
 28 29  1  0  0  0  0
 29 30  1  6  0  0  0
 31 29  1  0  0  0  0
 32 34  1  0  0  0  0
 34 33  1  0  0  0  0
M  END
>  <MODEL>
8

>  <REMARK>
 VINA RESULT:      -5.8      4.714      9.234
  Name = 
  5 active torsions:
  status: ('A' for Active; 'I' for Inactive)
    1  A    between atoms: C_3  and  C_13
    2  A    between atoms: C_7  and  C_23
    3  A    between atoms: N_17  and  C_29
    4  A    between atoms: C_23  and  C_27
    5  A    between atoms: C_23  and  C_28
                            x       y       z     vdW  Elec       q    Type
                         _______ _______ _______ _____ _____    ______ ____

>  <TORSDO>
F 5

$$$$
=
 OpenBabel10272400073D

 34 38  0  0  1  0  0  0  0  0999 V2000
  190.1290  174.8160  136.4930 C   0  0  0  0  0  0  0  0  0  0  0  0
  190.7240  176.4970  138.1550 C   0  0  0  0  0  0  0  0  0  0  0  0
  188.5210  176.7290  136.9960 C   0  0  1  0  0  3  0  0  0  0  0  0
  186.7060  177.9640  138.1900 N   0  0  0  0  0  0  0  0  0  0  0  0
  192.2950  174.7470  137.5830 C   0  0  0  0  0  3  0  0  0  0  0  0
  191.9670  175.8850  138.3290 C   0  0  0  0  0  3  0  0  0  0  0  0
  189.0460  178.0410  139.0380 C   0  0  0  0  0  3  0  0  0  0  0  0
  189.8160  175.9830  137.2110 C   0  0  0  0  0  0  0  0  0  0  0  0
  186.6040  178.5560  140.4570 O   0  0  0  0  0  0  0  0  0  0  0  0
  191.3770  174.2120  136.6720 C   0  0  0  0  0  3  0  0  0  0  0  0
  187.4910  176.0200  136.0940 C   0  0  2  0  0  3  0  0  0  0  0  0
  189.1550  174.2410  135.5080 C   0  0  0  0  0  2  0  0  0  0  0  0
  190.3300  177.6590  138.9800 C   0  0  0  0  0  3  0  0  0  0  0  0
  185.9460  177.8620  136.9390 C   0  0  0  0  0  2  0  0  0  0  0  0
  186.0320  176.4500  136.3410 C   0  0  2  0  0  3  0  0  0  0  0  0
  186.0730  178.6050  139.3130 C   0  0  0  0  0  0  0  0  0  0  0  0
  187.9750  177.2280  138.3430 C   0  0  2  0  0  3  0  0  0  0  0  0
  187.7190  174.5110  135.9490 C   0  0  0  0  0  2  0  0  0  0  0  0
  183.7110  178.8220  139.6220 C   0  0  0  0  0  3  0  0  0  0  0  0
  184.8190  179.2770  139.1330 N   0  0  0  0  0  0  0  0  0  0  0  0
  181.0020  177.9430  140.4750 F   0  0  0  0  0  0  0  0  0  0  0  0
  182.4390  179.5250  139.4130 C   0  0  0  0  0  0  0  0  0  0  0  0
  181.2660  179.2950  140.3510 C   0  0  1  0  0  3  0  0  0  0  0  0
  180.2980  181.4110  139.4100 C   0  0  0  0  0  2  0  0  0  0  0  0
  181.1770  181.2830  138.1740 C   0  0  0  0  0  2  0  0  0  0  0  0
  182.4070  180.4760  138.4720 C   0  0  0  0  0  3  0  0  0  0  0  0
  179.9830  180.0140  139.9240 C   0  0  0  0  0  2  0  0  0  0  0  0
  185.1470  175.4030  137.0460 C   0  0  1  0  0  3  0  0  0  0  0  0
  183.8780  175.9370  137.7390 C   0  0  1  0  0  3  0  0  0  0  0  0
  182.8530  176.5260  136.7850 C   0  0  0  0  0  1  0  0  0  0  0  0
  183.2860  174.9240  138.4930 O   0  0  0  0  0  1  0  0  0  0  0  0
  184.0680  173.9840  135.2130 C   0  0  0  0  0  1  0  0  0  0  0  0
  184.8800  172.8980  137.3070 C   0  0  0  0  0  1  0  0  0  0  0  0
  185.0950  174.0410  136.3330 C   0  0  0  0  0  3  0  0  0  0  0  0
  1 10  2  0  0  0  0
  1  8  1  0  0  0  0
  2  6  1  0  0  0  0
  2 13  1  0  0  0  0
  3  8  1  1  0  0  0
  3 17  1  0  0  0  0
  4 17  1  0  0  0  0
  4 16  1  0  0  0  0
  5  6  2  0  0  0  0
  8  2  2  0  0  0  0
 10  5  1  0  0  0  0
 11 18  1  1  0  0  0
 11 15  1  0  0  0  0
 11  3  1  0  0  0  0
 12 18  1  0  0  0  0
 12  1  1  0  0  0  0
 13  7  2  0  0  0  0
 14  4  1  0  0  0  0
 15 14  1  0  0  0  0
 15 28  1  1  0  0  0
 16  9  2  0  0  0  0
 17  7  1  6  0  0  0
 20 16  1  0  0  0  0
 20 19  2  0  0  0  0
 22 19  1  0  0  0  0
 22 23  1  0  0  0  0
 23 21  1  6  0  0  0
 24 27  1  0  0  0  0
 25 26  1  0  0  0  0
 25 24  1  0  0  0  0
 26 22  2  0  0  0  0
 27 23  1  0  0  0  0
 28 34  1  6  0  0  0
 28 29  1  0  0  0  0
 29 30  1  6  0  0  0
 29 31  1  0  0  0  0
 32 34  1  0  0  0  0
 34 33  1  0  0  0  0
M  END
>  <MODEL>
9

>  <REMARK>
 VINA RESULT:      -5.8      5.697      9.117
  Name = 
  5 active torsions:
  status: ('A' for Active; 'I' for Inactive)
    1  A    between atoms: C_3  and  C_13
    2  A    between atoms: C_7  and  C_23
    3  A    between atoms: N_17  and  C_29
    4  A    between atoms: C_23  and  C_27
    5  A    between atoms: C_23  and  C_28
                            x       y       z     vdW  Elec       q    Type
                         _______ _______ _______ _____ _____    ______ ____

>  <TORSDO>
F 5

$$$$
