=
 OpenBabel10272413533D

 30 33  0  0  1  0  0  0  0  0999 V2000
  189.6610  177.7430  140.5540 C   0  0  0  0  0  2  0  0  0  0  0  0
  190.0750  176.3090  138.5190 C   0  0  0  0  0  0  0  0  0  0  0  0
  185.3550  178.5140  139.1300 S   0  0  0  0  0  0  0  0  0  0  0  0
  188.6110  178.3870  141.5000 C   0  0  1  0  0  3  0  0  0  0  0  0
  184.9950  179.0560  140.8480 C   0  0  1  0  0  3  0  0  0  0  0  0
  189.9300  176.3850  137.0590 C   0  0  0  0  0  3  0  0  0  0  0  0
  191.0460  175.6760  139.0110 O   0  0  0  0  0  0  0  0  0  0  0  0
  187.1100  178.6450  139.5020 C   0  0  1  0  0  3  0  0  0  0  0  0
  188.9410  177.0910  136.5120 C   0  0  0  0  0  3  0  0  0  0  0  0
  189.0300  176.9120  139.4220 C   0  0  2  0  0  3  0  0  0  0  0  0
  187.1840  178.2580  140.9520 C   0  0  2  0  0  3  0  0  0  0  0  0
  183.9690  178.1310  141.4700 C   0  0  0  0  0  1  0  0  0  0  0  0
  186.2140  179.0680  141.6630 N   0  0  0  0  0  2  0  0  0  0  0  0
  187.9780  177.8300  137.3470 C   0  0  0  0  0  3  0  0  0  0  0  0
  188.0020  177.7540  138.6830 C   0  0  0  0  0  0  0  0  0  0  0  0
  188.6860  177.8310  142.9320 C   0  0  2  0  0  3  0  0  0  0  0  0
  190.5850  179.0930  144.0500 C   0  0  0  0  0  1  0  0  0  0  0  0
  190.1130  177.7480  143.5060 C   0  0  1  0  0  3  0  0  0  0  0  0
  191.5630  175.9210  144.4170 C   0  0  0  0  0  2  0  0  0  0  0  0
  190.3270  177.2270  145.9510 C   0  0  0  0  0  2  0  0  0  0  0  0
  190.2460  176.6430  144.5610 C   0  0  0  0  0  3  0  0  0  0  0  0
  192.1880  175.9080  145.7290 N   0  0  0  0  0  2  0  0  0  0  0  0
  191.6870  177.0220  146.4240 N   0  0  0  0  0  2  0  0  0  0  0  0
  187.8980  176.5350  143.1150 C   0  0  0  0  0  2  0  0  0  0  0  0
  186.7580  176.7450  144.0950 C   0  0  0  0  0  2  0  0  0  0  0  0
  186.9540  178.0390  144.8620 C   0  0  0  0  0  2  0  0  0  0  0  0
  186.6090  177.8420  146.3280 C   0  0  0  0  0  2  0  0  0  0  0  0
  185.8680  179.7750  147.5030 O   0  0  0  0  0  1  0  0  0  0  0  0
  185.5680  178.8220  146.7380 C   0  0  0  0  0  0  0  0  0  0  0  0
  184.2740  178.7050  146.2500 O   0  0  0  0  0  0  0  0  0  0  0  0
  1  4  1  0  0  0  0
  2  7  2  0  0  0  0
  2 10  1  0  0  0  0
  3  8  1  0  0  0  0
  3  5  1  0  0  0  0
  4 16  1  1  0  0  0
  5 12  1  1  0  0  0
  5 13  1  0  0  0  0
  6  2  1  0  0  0  0
  8 15  1  6  0  0  0
  8 11  1  0  0  0  0
  9  6  2  0  0  0  0
  9 14  1  0  0  0  0
 10  1  1  1  0  0  0
 11  4  1  0  0  0  0
 11 13  1  1  0  0  0
 14 15  2  0  0  0  0
 15 10  1  0  0  0  0
 16 24  1  6  0  0  0
 16 18  1  0  0  0  0
 18 17  1  1  0  0  0
 18 21  1  0  0  0  0
 19 21  1  0  0  0  0
 19 22  1  0  0  0  0
 20 23  1  0  0  0  0
 21 20  1  0  0  0  0
 22 23  1  0  0  0  0
 24 25  1  0  0  0  0
 25 26  1  0  0  0  0
 26 27  1  0  0  0  0
 27 29  1  0  0  0  0
 29 28  1  0  0  0  0
 30 29  2  0  0  0  0
M  END
>  <MODEL>
1

>  <REMARK>
 VINA RESULT:      -8.0      0.000      0.000
  Name = 
  8 active torsions:
  status: ('A' for Active; 'I' for Inactive)
    1  A    between atoms: C_4  and  C_13
    2  A    between atoms: C_7  and  C_15
    3  A    between atoms: C_7  and  C_16
    4  A    between atoms: C_8  and  C_12
    5  A    between atoms: C_8  and  C_13
    6  A    between atoms: C_13  and  C_27
    7  A    between atoms: C_16  and  C_30
    8  A    between atoms: C_27  and  C_30
                            x       y       z     vdW  Elec       q    Type
                         _______ _______ _______ _____ _____    ______ ____

>  <TORSDO>
F 8

$$$$
=
 OpenBabel10272413533D

 30 33  0  0  1  0  0  0  0  0999 V2000
  187.5240  177.6490  140.2530 C   0  0  0  0  0  2  0  0  0  0  0  0
  188.3140  178.2570  137.9360 C   0  0  0  0  0  0  0  0  0  0  0  0
  191.8870  177.5210  141.7050 S   0  0  0  0  0  0  0  0  0  0  0  0
  187.8600  177.5880  141.7690 C   0  0  1  0  0  3  0  0  0  0  0  0
  191.2140  177.6260  143.4100 C   0  0  1  0  0  3  0  0  0  0  0  0
  189.2700  177.7780  136.9270 C   0  0  0  0  0  3  0  0  0  0  0  0
  187.2230  178.7620  137.5630 O   0  0  0  0  0  0  0  0  0  0  0  0
  190.2380  177.0980  141.1260 C   0  0  1  0  0  3  0  0  0  0  0  0
  190.4090  177.1950  137.2960 C   0  0  0  0  0  3  0  0  0  0  0  0
  188.6700  178.2210  139.4000 C   0  0  2  0  0  3  0  0  0  0  0  0
  189.3410  177.8790  142.0450 C   0  0  2  0  0  3  0  0  0  0  0  0
  191.6800  178.9110  144.0640 C   0  0  0  0  0  1  0  0  0  0  0  0
  189.7490  177.5750  143.4020 N   0  0  0  0  0  2  0  0  0  0  0  0
  190.7390  176.9930  138.7170 C   0  0  0  0  0  3  0  0  0  0  0  0
  189.9540  177.4620  139.6950 C   0  0  0  0  0  0  0  0  0  0  0  0
  186.9680  178.5190  142.6090 C   0  0  2  0  0  3  0  0  0  0  0  0
  186.8780  176.4310  144.0530 C   0  0  0  0  0  1  0  0  0  0  0  0
  186.3970  177.8680  143.8830 C   0  0  1  0  0  3  0  0  0  0  0  0
  185.4060  179.2030  145.7560 C   0  0  0  0  0  2  0  0  0  0  0  0
  187.2860  177.8530  146.2290 C   0  0  0  0  0  2  0  0  0  0  0  0
  186.6880  178.7040  145.1350 C   0  0  0  0  0  3  0  0  0  0  0  0
  185.4480  178.8500  147.1650 N   0  0  0  0  0  2  0  0  0  0  0  0
  186.2810  177.7240  147.2720 N   0  0  0  0  0  2  0  0  0  0  0  0
  185.9040  179.2380  141.7830 C   0  0  0  0  0  2  0  0  0  0  0  0
  184.5150  178.8160  142.2290 C   0  0  0  0  0  2  0  0  0  0  0  0
  183.8400  177.9960  141.1460 C   0  0  0  0  0  2  0  0  0  0  0  0
  182.9820  178.8880  140.2650 C   0  0  0  0  0  2  0  0  0  0  0  0
  184.2400  180.4060  138.9320 O   0  0  0  0  0  1  0  0  0  0  0  0
  183.7340  179.2590  139.0370 C   0  0  0  0  0  0  0  0  0  0  0  0
  183.9060  178.3290  138.0200 O   0  0  0  0  0  0  0  0  0  0  0  0
  1  4  1  0  0  0  0
  2 10  1  0  0  0  0
  3  5  1  0  0  0  0
  4 11  1  0  0  0  0
  4 16  1  1  0  0  0
  5 12  1  6  0  0  0
  6  9  2  0  0  0  0
  6  2  1  0  0  0  0
  7  2  2  0  0  0  0
  8 15  1  6  0  0  0
  8  3  1  0  0  0  0
  8 11  1  0  0  0  0
  9 14  1  0  0  0  0
 10 15  1  0  0  0  0
 10  1  1  1  0  0  0
 11 13  1  1  0  0  0
 13  5  1  0  0  0  0
 14 15  2  0  0  0  0
 16 24  1  6  0  0  0
 16 18  1  0  0  0  0
 18 17  1  1  0  0  0
 18 21  1  0  0  0  0
 19 22  1  0  0  0  0
 20 23  1  0  0  0  0
 21 19  1  0  0  0  0
 21 20  1  0  0  0  0
 22 23  1  0  0  0  0
 24 25  1  0  0  0  0
 26 25  1  0  0  0  0
 27 26  1  0  0  0  0
 28 29  1  0  0  0  0
 29 27  1  0  0  0  0
 30 29  2  0  0  0  0
M  END
>  <MODEL>
2

>  <REMARK>
 VINA RESULT:      -7.0      3.143      5.081
  Name = 
  8 active torsions:
  status: ('A' for Active; 'I' for Inactive)
    1  A    between atoms: C_4  and  C_13
    2  A    between atoms: C_7  and  C_15
    3  A    between atoms: C_7  and  C_16
    4  A    between atoms: C_8  and  C_12
    5  A    between atoms: C_8  and  C_13
    6  A    between atoms: C_13  and  C_27
    7  A    between atoms: C_16  and  C_30
    8  A    between atoms: C_27  and  C_30
                            x       y       z     vdW  Elec       q    Type
                         _______ _______ _______ _____ _____    ______ ____

>  <TORSDO>
F 8

$$$$
=
 OpenBabel10272413533D

 30 33  0  0  1  0  0  0  0  0999 V2000
  185.2450  178.7260  141.2130 C   0  0  0  0  0  2  0  0  0  0  0  0
  182.8730  178.0030  140.7490 C   0  0  0  0  0  0  0  0  0  0  0  0
  184.3850  178.6420  145.7310 S   0  0  0  0  0  0  0  0  0  0  0  0
  186.4010  178.8130  142.2470 C   0  0  1  0  0  3  0  0  0  0  0  0
  186.2060  178.6280  145.9710 C   0  0  1  0  0  3  0  0  0  0  0  0
  181.5020  178.3940  141.1070 C   0  0  0  0  0  3  0  0  0  0  0  0
  183.1060  177.5520  139.5970 O   0  0  0  0  0  0  0  0  0  0  0  0
  184.6580  179.1430  144.0250 C   0  0  1  0  0  3  0  0  0  0  0  0
  181.2380  178.9210  142.3020 C   0  0  0  0  0  3  0  0  0  0  0  0
  183.9760  178.0630  141.7740 C   0  0  2  0  0  3  0  0  0  0  0  0
  185.9380  178.4450  143.6620 C   0  0  2  0  0  3  0  0  0  0  0  0
  186.6210  177.3380  146.6500 C   0  0  0  0  0  1  0  0  0  0  0  0
  186.9080  178.7650  144.6920 N   0  0  0  0  0  2  0  0  0  0  0  0
  182.3070  179.1460  143.2900 C   0  0  0  0  0  3  0  0  0  0  0  0
  183.5680  178.7530  143.0660 C   0  0  0  0  0  0  0  0  0  0  0  0
  187.6180  177.9620  141.8450 C   0  0  2  0  0  3  0  0  0  0  0  0
  188.3370  175.9820  143.2640 C   0  0  0  0  0  1  0  0  0  0  0  0
  188.4750  177.4830  143.0310 C   0  0  1  0  0  3  0  0  0  0  0  0
  190.3900  178.7430  144.0420 C   0  0  0  0  0  2  0  0  0  0  0  0
  190.8540  176.6870  142.9730 C   0  0  0  0  0  2  0  0  0  0  0  0
  189.9460  177.8900  142.8790 C   0  0  0  0  0  3  0  0  0  0  0  0
  191.6140  178.1540  144.5610 N   0  0  0  0  0  2  0  0  0  0  0  0
  191.5720  176.7890  144.2330 N   0  0  0  0  0  2  0  0  0  0  0  0
  188.4490  178.5920  140.7290 C   0  0  0  0  0  2  0  0  0  0  0  0
  188.2880  177.8030  139.4420 C   0  0  0  0  0  2  0  0  0  0  0  0
  189.6110  177.7280  138.7020 C   0  0  0  0  0  2  0  0  0  0  0  0
  190.5410  176.7370  139.3810 C   0  0  0  0  0  2  0  0  0  0  0  0
  190.9830  174.7610  138.1300 O   0  0  0  0  0  1  0  0  0  0  0  0
  191.2880  175.9610  138.3560 C   0  0  0  0  0  0  0  0  0  0  0  0
  192.2980  176.5690  137.6230 O   0  0  0  0  0  0  0  0  0  0  0  0
  1  4  1  0  0  0  0
  2  6  1  0  0  0  0
  2 10  1  0  0  0  0
  3  5  1  0  0  0  0
  4 16  1  6  0  0  0
  4 11  1  0  0  0  0
  5 12  1  6  0  0  0
  6  9  2  0  0  0  0
  7  2  2  0  0  0  0
  8 15  1  6  0  0  0
  8  3  1  0  0  0  0
  9 14  1  0  0  0  0
 10  1  1  6  0  0  0
 10 15  1  0  0  0  0
 11  8  1  0  0  0  0
 11 13  1  1  0  0  0
 13  5  1  0  0  0  0
 15 14  2  0  0  0  0
 16 24  1  6  0  0  0
 16 18  1  0  0  0  0
 18 17  1  6  0  0  0
 19 22  1  0  0  0  0
 20 23  1  0  0  0  0
 21 20  1  0  0  0  0
 21 18  1  0  0  0  0
 21 19  1  0  0  0  0
 23 22  1  0  0  0  0
 25 24  1  0  0  0  0
 26 27  1  0  0  0  0
 26 25  1  0  0  0  0
 28 29  1  0  0  0  0
 29 27  1  0  0  0  0
 30 29  2  0  0  0  0
M  END
>  <MODEL>
3

>  <REMARK>
 VINA RESULT:      -6.8      2.770      6.401
  Name = 
  8 active torsions:
  status: ('A' for Active; 'I' for Inactive)
    1  A    between atoms: C_4  and  C_13
    2  A    between atoms: C_7  and  C_15
    3  A    between atoms: C_7  and  C_16
    4  A    between atoms: C_8  and  C_12
    5  A    between atoms: C_8  and  C_13
    6  A    between atoms: C_13  and  C_27
    7  A    between atoms: C_16  and  C_30
    8  A    between atoms: C_27  and  C_30
                            x       y       z     vdW  Elec       q    Type
                         _______ _______ _______ _____ _____    ______ ____

>  <TORSDO>
F 8

$$$$
=
 OpenBabel10272413533D

 30 33  0  0  1  0  0  0  0  0999 V2000
  188.4830  178.2370  144.7980 C   0  0  0  0  0  2  0  0  0  0  0  0
  187.0080  178.1280  146.8420 C   0  0  0  0  0  0  0  0  0  0  0  0
  191.6500  175.6890  146.9510 S   0  0  0  0  0  0  0  0  0  0  0  0
  189.6720  177.6140  144.0170 C   0  0  1  0  0  3  0  0  0  0  0  0
  192.3710  175.3710  145.2930 C   0  0  1  0  0  3  0  0  0  0  0  0
  187.0940  178.3730  148.2890 C   0  0  0  0  0  3  0  0  0  0  0  0
  185.9370  178.3890  146.2340 O   0  0  0  0  0  0  0  0  0  0  0  0
  190.7040  177.0400  146.2340 C   0  0  1  0  0  3  0  0  0  0  0  0
  188.2320  178.1520  148.9470 C   0  0  0  0  0  3  0  0  0  0  0  0
  188.1590  177.4930  146.1060 C   0  0  2  0  0  3  0  0  0  0  0  0
  190.4130  176.5540  144.8420 C   0  0  2  0  0  3  0  0  0  0  0  0
  192.2880  173.8920  144.9750 C   0  0  0  0  0  1  0  0  0  0  0  0
  191.6750  176.1430  144.2590 N   0  0  0  0  0  2  0  0  0  0  0  0
  189.4380  177.6770  148.2480 C   0  0  0  0  0  3  0  0  0  0  0  0
  189.4210  177.3650  146.9460 C   0  0  0  0  0  0  0  0  0  0  0  0
  189.2460  177.0310  142.6590 C   0  0  2  0  0  3  0  0  0  0  0  0
  191.3800  177.6520  141.4290 C   0  0  0  0  0  1  0  0  0  0  0  0
  189.8580  177.7500  141.4410 C   0  0  1  0  0  3  0  0  0  0  0  0
  188.9130  178.4160  139.2200 C   0  0  0  0  0  2  0  0  0  0  0  0
  190.2790  176.4900  139.3130 C   0  0  0  0  0  2  0  0  0  0  0  0
  189.2580  177.2550  140.1200 C   0  0  0  0  0  3  0  0  0  0  0  0
  189.5160  178.1470  137.9250 N   0  0  0  0  0  2  0  0  0  0  0  0
  190.6220  177.3130  138.1640 N   0  0  0  0  0  2  0  0  0  0  0  0
  187.7360  176.8380  142.5350 C   0  0  0  0  0  2  0  0  0  0  0  0
  187.0440  178.1790  142.3680 C   0  0  0  0  0  2  0  0  0  0  0  0
  185.5550  178.0380  142.6240 C   0  0  0  0  0  2  0  0  0  0  0  0
  184.7950  179.1770  141.9660 C   0  0  0  0  0  2  0  0  0  0  0  0
  184.8370  179.5380  139.6140 O   0  0  0  0  0  0  0  0  0  0  0  0
  184.4500  178.8120  140.5670 C   0  0  0  0  0  0  0  0  0  0  0  0
  183.7300  177.6540  140.3080 O   0  0  0  0  0  1  0  0  0  0  0  0
  2  6  1  0  0  0  0
  4 16  1  6  0  0  0
  4  1  1  0  0  0  0
  4 11  1  0  0  0  0
  5 12  1  6  0  0  0
  5  3  1  0  0  0  0
  6  9  2  0  0  0  0
  7  2  2  0  0  0  0
  8 15  1  1  0  0  0
  8  3  1  0  0  0  0
 10  1  1  6  0  0  0
 10  2  1  0  0  0  0
 10 15  1  0  0  0  0
 11 13  1  6  0  0  0
 11  8  1  0  0  0  0
 13  5  1  0  0  0  0
 14  9  1  0  0  0  0
 15 14  2  0  0  0  0
 16 24  1  6  0  0  0
 18 17  1  6  0  0  0
 18 16  1  0  0  0  0
 19 21  1  0  0  0  0
 20 21  1  0  0  0  0
 21 18  1  0  0  0  0
 22 23  1  0  0  0  0
 22 19  1  0  0  0  0
 23 20  1  0  0  0  0
 25 24  1  0  0  0  0
 25 26  1  0  0  0  0
 27 26  1  0  0  0  0
 28 29  2  0  0  0  0
 29 27  1  0  0  0  0
 30 29  1  0  0  0  0
M  END
>  <MODEL>
4

>  <REMARK>
 VINA RESULT:      -6.6      3.204      7.295
  Name = 
  8 active torsions:
  status: ('A' for Active; 'I' for Inactive)
    1  A    between atoms: C_4  and  C_13
    2  A    between atoms: C_7  and  C_15
    3  A    between atoms: C_7  and  C_16
    4  A    between atoms: C_8  and  C_12
    5  A    between atoms: C_8  and  C_13
    6  A    between atoms: C_13  and  C_27
    7  A    between atoms: C_16  and  C_30
    8  A    between atoms: C_27  and  C_30
                            x       y       z     vdW  Elec       q    Type
                         _______ _______ _______ _____ _____    ______ ____

>  <TORSDO>
F 8

$$$$
=
 OpenBabel10272413533D

 30 33  0  0  1  0  0  0  0  0999 V2000
  186.9490  178.8870  141.0420 C   0  0  0  0  0  2  0  0  0  0  0  0
  184.7150  178.2360  142.0160 C   0  0  0  0  0  0  0  0  0  0  0  0
  189.0700  177.0570  144.6910 S   0  0  0  0  0  0  0  0  0  0  0  0
  188.4850  178.6540  141.0390 C   0  0  1  0  0  3  0  0  0  0  0  0
  190.6020  177.0730  143.6790 C   0  0  1  0  0  3  0  0  0  0  0  0
  183.9700  178.3730  143.2760 C   0  0  0  0  0  3  0  0  0  0  0  0
  184.0910  178.2660  140.9230 O   0  0  0  0  0  0  0  0  0  0  0  0
  188.3220  178.1780  143.5000 C   0  0  1  0  0  3  0  0  0  0  0  0
  184.6110  178.3940  144.4440 C   0  0  0  0  0  3  0  0  0  0  0  0
  186.1990  177.9790  142.0330 C   0  0  2  0  0  3  0  0  0  0  0  0
  188.9350  177.7520  142.1960 C   0  0  2  0  0  3  0  0  0  0  0  0
  191.0830  175.6530  143.4590 C   0  0  0  0  0  1  0  0  0  0  0  0
  190.3720  177.7260  142.3860 N   0  0  0  0  0  2  0  0  0  0  0  0
  186.0790  178.3010  144.5100 C   0  0  0  0  0  3  0  0  0  0  0  0
  186.8230  178.1050  143.4140 C   0  0  0  0  0  0  0  0  0  0  0  0
  188.9960  178.0990  139.7000 C   0  0  2  0  0  3  0  0  0  0  0  0
  189.0290  179.2150  137.4180 C   0  0  0  0  0  1  0  0  0  0  0  0
  188.1670  178.5330  138.4760 C   0  0  1  0  0  3  0  0  0  0  0  0
  185.8970  177.6950  137.8280 C   0  0  0  0  0  2  0  0  0  0  0  0
  187.7210  177.1590  136.4250 C   0  0  0  0  0  2  0  0  0  0  0  0
  187.3700  177.3680  137.8780 C   0  0  0  0  0  3  0  0  0  0  0  0
  185.4460  177.4290  136.4720 N   0  0  0  0  0  2  0  0  0  0  0  0
  186.5690  177.5730  135.6400 N   0  0  0  0  0  2  0  0  0  0  0  0
  189.2580  176.5950  139.7340 C   0  0  0  0  0  2  0  0  0  0  0  0
  190.6710  176.2940  139.2670 C   0  0  0  0  0  2  0  0  0  0  0  0
  190.6410  175.5150  137.9650 C   0  0  0  0  0  2  0  0  0  0  0  0
  191.5220  176.1870  136.9260 C   0  0  0  0  0  2  0  0  0  0  0  0
  193.7610  176.8760  137.3450 O   0  0  0  0  0  0  0  0  0  0  0  0
  192.9530  175.9190  137.2280 C   0  0  0  0  0  0  0  0  0  0  0  0
  193.3910  174.6150  137.4150 O   0  0  0  0  0  1  0  0  0  0  0  0
  2 10  1  0  0  0  0
  2  6  1  0  0  0  0
  4 16  1  6  0  0  0
  4  1  1  0  0  0  0
  4 11  1  0  0  0  0
  5 12  1  6  0  0  0
  5  3  1  0  0  0  0
  6  9  2  0  0  0  0
  7  2  2  0  0  0  0
  8 15  1  6  0  0  0
  8  3  1  0  0  0  0
  9 14  1  0  0  0  0
 10  1  1  6  0  0  0
 10 15  1  0  0  0  0
 11 13  1  1  0  0  0
 11  8  1  0  0  0  0
 13  5  1  0  0  0  0
 15 14  2  0  0  0  0
 16 24  1  1  0  0  0
 18 17  1  6  0  0  0
 18 16  1  0  0  0  0
 19 21  1  0  0  0  0
 20 21  1  0  0  0  0
 21 18  1  0  0  0  0
 22 19  1  0  0  0  0
 23 20  1  0  0  0  0
 23 22  1  0  0  0  0
 25 24  1  0  0  0  0
 26 25  1  0  0  0  0
 27 29  1  0  0  0  0
 27 26  1  0  0  0  0
 29 28  2  0  0  0  0
 29 30  1  0  0  0  0
M  END
>  <MODEL>
5

>  <REMARK>
 VINA RESULT:      -6.6      2.778      7.948
  Name = 
  8 active torsions:
  status: ('A' for Active; 'I' for Inactive)
    1  A    between atoms: C_4  and  C_13
    2  A    between atoms: C_7  and  C_15
    3  A    between atoms: C_7  and  C_16
    4  A    between atoms: C_8  and  C_12
    5  A    between atoms: C_8  and  C_13
    6  A    between atoms: C_13  and  C_27
    7  A    between atoms: C_16  and  C_30
    8  A    between atoms: C_27  and  C_30
                            x       y       z     vdW  Elec       q    Type
                         _______ _______ _______ _____ _____    ______ ____

>  <TORSDO>
F 8

$$$$
=
 OpenBabel10272413533D

 30 33  0  0  1  0  0  0  0  0999 V2000
  187.7120  178.6890  140.7300 C   0  0  0  0  0  2  0  0  0  0  0  0
  189.1810  177.9780  138.8070 C   0  0  0  0  0  0  0  0  0  0  0  0
  183.9750  177.8790  138.1730 S   0  0  0  0  0  0  0  0  0  0  0  0
  186.2980  178.6460  141.3730 C   0  0  1  0  0  3  0  0  0  0  0  0
  183.0260  177.8790  139.7450 C   0  0  1  0  0  3  0  0  0  0  0  0
  189.3570  178.2690  137.3760 C   0  0  0  0  0  3  0  0  0  0  0  0
  190.1900  177.7180  139.5130 O   0  0  0  0  0  0  0  0  0  0  0  0
  185.3460  178.6460  139.0490 C   0  0  1  0  0  3  0  0  0  0  0  0
  188.3110  178.5960  136.6180 C   0  0  0  0  0  3  0  0  0  0  0  0
  187.8000  177.9100  139.4060 C   0  0  2  0  0  3  0  0  0  0  0  0
  185.2500  178.0500  140.4250 C   0  0  2  0  0  3  0  0  0  0  0  0
  182.4130  176.5120  139.9720 C   0  0  0  0  0  1  0  0  0  0  0  0
  183.8850  178.2340  140.8790 N   0  0  0  0  0  2  0  0  0  0  0  0
  186.9560  178.6950  137.1870 C   0  0  0  0  0  3  0  0  0  0  0  0
  186.7040  178.3790  138.4630 C   0  0  0  0  0  0  0  0  0  0  0  0
  186.2840  177.9040  142.7200 C   0  0  2  0  0  3  0  0  0  0  0  0
  184.9100  179.8270  143.6500 C   0  0  0  0  0  1  0  0  0  0  0  0
  186.0050  178.8050  143.9380 C   0  0  1  0  0  3  0  0  0  0  0  0
  186.8680  177.9790  146.1390 C   0  0  0  0  0  2  0  0  0  0  0  0
  184.6060  178.6510  146.0140 C   0  0  0  0  0  2  0  0  0  0  0  0
  185.6890  177.9900  145.1970 C   0  0  0  0  0  3  0  0  0  0  0  0
  186.3730  178.3750  147.4470 N   0  0  0  0  0  2  0  0  0  0  0  0
  185.2320  179.1630  147.2230 N   0  0  0  0  0  2  0  0  0  0  0  0
  187.4960  176.9980  142.9190 C   0  0  0  0  0  2  0  0  0  0  0  0
  188.6780  177.8020  143.4330 C   0  0  0  0  0  2  0  0  0  0  0  0
  189.7130  176.8800  144.0500 C   0  0  0  0  0  2  0  0  0  0  0  0
  190.4470  177.5880  145.1760 C   0  0  0  0  0  2  0  0  0  0  0  0
  191.9820  176.9120  146.8650 O   0  0  0  0  0  1  0  0  0  0  0  0
  191.5180  176.7070  145.7140 C   0  0  0  0  0  0  0  0  0  0  0  0
  191.9810  175.6380  144.9600 O   0  0  0  0  0  0  0  0  0  0  0  0
  1  4  1  0  0  0  0
  2 10  1  0  0  0  0
  2  7  2  0  0  0  0
  3  5  1  0  0  0  0
  4 16  1  1  0  0  0
  5 12  1  1  0  0  0
  5 13  1  0  0  0  0
  6  2  1  0  0  0  0
  8  3  1  6  0  0  0
  8 11  1  0  0  0  0
  9 14  1  0  0  0  0
  9  6  2  0  0  0  0
 10  1  1  1  0  0  0
 11 13  1  1  0  0  0
 11  4  1  0  0  0  0
 14 15  2  0  0  0  0
 15  8  1  0  0  0  0
 15 10  1  0  0  0  0
 16 24  1  1  0  0  0
 16 18  1  0  0  0  0
 18 17  1  6  0  0  0
 18 21  1  0  0  0  0
 19 22  1  0  0  0  0
 20 23  1  0  0  0  0
 21 20  1  0  0  0  0
 21 19  1  0  0  0  0
 23 22  1  0  0  0  0
 24 25  1  0  0  0  0
 25 26  1  0  0  0  0
 26 27  1  0  0  0  0
 27 29  1  0  0  0  0
 29 28  1  0  0  0  0
 30 29  2  0  0  0  0
M  END
>  <MODEL>
6

>  <REMARK>
 VINA RESULT:      -6.5      2.805      4.023
  Name = 
  8 active torsions:
  status: ('A' for Active; 'I' for Inactive)
    1  A    between atoms: C_4  and  C_13
    2  A    between atoms: C_7  and  C_15
    3  A    between atoms: C_7  and  C_16
    4  A    between atoms: C_8  and  C_12
    5  A    between atoms: C_8  and  C_13
    6  A    between atoms: C_13  and  C_27
    7  A    between atoms: C_16  and  C_30
    8  A    between atoms: C_27  and  C_30
                            x       y       z     vdW  Elec       q    Type
                         _______ _______ _______ _____ _____    ______ ____

>  <TORSDO>
F 8

$$$$
=
 OpenBabel10272413533D

 30 33  0  0  1  0  0  0  0  0999 V2000
  187.3490  178.4110  142.2630 C   0  0  0  0  0  2  0  0  0  0  0  0
  189.2610  176.9800  143.0770 C   0  0  0  0  0  0  0  0  0  0  0  0
  188.5270  177.5020  137.9100 S   0  0  0  0  0  0  0  0  0  0  0  0
  186.3970  178.7640  141.0880 C   0  0  1  0  0  3  0  0  0  0  0  0
  186.8480  178.0830  137.4440 C   0  0  1  0  0  3  0  0  0  0  0  0
  190.7080  176.8330  142.8640 C   0  0  0  0  0  3  0  0  0  0  0  0
  188.7820  176.7760  144.2230 O   0  0  0  0  0  0  0  0  0  0  0  0
  188.2960  178.2640  139.5220 C   0  0  1  0  0  3  0  0  0  0  0  0
  191.2470  177.0910  141.6730 C   0  0  0  0  0  3  0  0  0  0  0  0
  188.3480  177.2910  141.9200 C   0  0  2  0  0  3  0  0  0  0  0  0
  186.8250  178.0950  139.7760 C   0  0  2  0  0  3  0  0  0  0  0  0
  186.0670  176.9420  136.8240 C   0  0  0  0  0  1  0  0  0  0  0  0
  186.1280  178.6030  138.6100 N   0  0  0  0  0  2  0  0  0  0  0  0
  190.4200  177.5500  140.5440 C   0  0  0  0  0  3  0  0  0  0  0  0
  189.0880  177.6420  140.6380 C   0  0  0  0  0  0  0  0  0  0  0  0
  184.9270  178.4350  141.4000 C   0  0  2  0  0  3  0  0  0  0  0  0
  183.3250  177.0380  140.0100 C   0  0  0  0  0  1  0  0  0  0  0  0
  184.0110  178.3920  140.1630 C   0  0  1  0  0  3  0  0  0  0  0  0
  183.0130  180.2740  138.8460 C   0  0  0  0  0  2  0  0  0  0  0  0
  181.5790  179.0040  140.2290 C   0  0  0  0  0  2  0  0  0  0  0  0
  182.9900  179.5360  140.1620 C   0  0  0  0  0  3  0  0  0  0  0  0
  181.6410  180.3450  138.3710 N   0  0  0  0  0  2  0  0  0  0  0  0
  180.9660  179.2480  138.9320 N   0  0  0  0  0  2  0  0  0  0  0  0
  184.3500  179.2800  142.5340 C   0  0  0  0  0  2  0  0  0  0  0  0
  184.0800  178.4140  143.7520 C   0  0  0  0  0  2  0  0  0  0  0  0
  184.7030  179.0350  144.9880 C   0  0  0  0  0  2  0  0  0  0  0  0
  185.8400  178.1670  145.5000 C   0  0  0  0  0  2  0  0  0  0  0  0
  185.6080  179.5390  147.4320 O   0  0  0  0  0  0  0  0  0  0  0  0
  186.2300  178.6010  146.8670 C   0  0  0  0  0  0  0  0  0  0  0  0
  187.2590  177.9510  147.5360 O   0  0  0  0  0  1  0  0  0  0  0  0
  2  7  2  0  0  0  0
  4 16  1  1  0  0  0
  4  1  1  0  0  0  0
  5 12  1  1  0  0  0
  5  3  1  0  0  0  0
  5 13  1  0  0  0  0
  6  2  1  0  0  0  0
  8  3  1  6  0  0  0
  8 11  1  0  0  0  0
  8 15  1  0  0  0  0
  9  6  2  0  0  0  0
 10  1  1  1  0  0  0
 10  2  1  0  0  0  0
 11 13  1  6  0  0  0
 11  4  1  0  0  0  0
 14 15  2  0  0  0  0
 14  9  1  0  0  0  0
 15 10  1  0  0  0  0
 16 24  1  1  0  0  0
 18 17  1  1  0  0  0
 18 16  1  0  0  0  0
 19 21  1  0  0  0  0
 21 18  1  0  0  0  0
 21 20  1  0  0  0  0
 22 19  1  0  0  0  0
 22 23  1  0  0  0  0
 23 20  1  0  0  0  0
 24 25  1  0  0  0  0
 25 26  1  0  0  0  0
 26 27  1  0  0  0  0
 27 29  1  0  0  0  0
 29 28  2  0  0  0  0
 29 30  1  0  0  0  0
M  END
>  <MODEL>
7

>  <REMARK>
 VINA RESULT:      -6.4      3.256      6.050
  Name = 
  8 active torsions:
  status: ('A' for Active; 'I' for Inactive)
    1  A    between atoms: C_4  and  C_13
    2  A    between atoms: C_7  and  C_15
    3  A    between atoms: C_7  and  C_16
    4  A    between atoms: C_8  and  C_12
    5  A    between atoms: C_8  and  C_13
    6  A    between atoms: C_13  and  C_27
    7  A    between atoms: C_16  and  C_30
    8  A    between atoms: C_27  and  C_30
                            x       y       z     vdW  Elec       q    Type
                         _______ _______ _______ _____ _____    ______ ____

>  <TORSDO>
F 8

$$$$
=
 OpenBabel10272413533D

 30 33  0  0  1  0  0  0  0  0999 V2000
  189.1050  176.7640  144.3640 C   0  0  0  0  0  2  0  0  0  0  0  0
  190.3720  177.5780  146.3880 C   0  0  0  0  0  0  0  0  0  0  0  0
  185.2590  178.6810  146.0030 S   0  0  0  0  0  0  0  0  0  0  0  0
  187.8460  176.9190  143.4680 C   0  0  1  0  0  3  0  0  0  0  0  0
  184.5840  178.5340  144.3010 C   0  0  1  0  0  3  0  0  0  0  0  0
  190.2620  177.5470  147.8540 C   0  0  0  0  0  3  0  0  0  0  0  0
  191.5100  177.5190  145.8530 O   0  0  0  0  0  0  0  0  0  0  0  0
  186.5650  177.5360  145.5380 C   0  0  1  0  0  3  0  0  0  0  0  0
  189.0680  177.5580  148.4440 C   0  0  0  0  0  3  0  0  0  0  0  0
  189.1430  177.7610  145.5360 C   0  0  2  0  0  3  0  0  0  0  0  0
  186.8060  177.8590  144.0910 C   0  0  2  0  0  3  0  0  0  0  0  0
  184.3010  179.9130  143.7430 C   0  0  0  0  0  1  0  0  0  0  0  0
  185.5190  177.8230  143.4240 N   0  0  0  0  0  2  0  0  0  0  0  0
  187.8260  177.5800  147.6530 C   0  0  0  0  0  3  0  0  0  0  0  0
  187.8420  177.6780  146.3180 C   0  0  0  0  0  0  0  0  0  0  0  0
  188.1900  177.3740  142.0400 C   0  0  2  0  0  3  0  0  0  0  0  0
  190.4070  176.1470  142.2200 C   0  0  0  0  0  1  0  0  0  0  0  0
  189.6990  177.4060  141.7310 C   0  0  1  0  0  3  0  0  0  0  0  0
  191.4520  177.5530  139.9480 C   0  0  0  0  0  2  0  0  0  0  0  0
  189.3780  176.5690  139.3870 C   0  0  0  0  0  2  0  0  0  0  0  0
  189.9760  177.6590  140.2440 C   0  0  0  0  0  3  0  0  0  0  0  0
  191.5990  176.6430  138.8240 N   0  0  0  0  0  2  0  0  0  0  0  0
  190.4830  175.7890  138.8520 N   0  0  0  0  0  2  0  0  0  0  0  0
  187.4750  178.6590  141.6310 C   0  0  0  0  0  2  0  0  0  0  0  0
  186.6130  178.4170  140.4040 C   0  0  0  0  0  2  0  0  0  0  0  0
  185.2970  179.1620  140.5290 C   0  0  0  0  0  2  0  0  0  0  0  0
  184.2190  178.4720  139.7120 C   0  0  0  0  0  2  0  0  0  0  0  0
  183.8980  180.6650  138.8440 O   0  0  0  0  0  1  0  0  0  0  0  0
  183.5030  179.4700  138.8740 C   0  0  0  0  0  0  0  0  0  0  0  0
  182.4210  179.0780  138.0990 O   0  0  0  0  0  0  0  0  0  0  0  0
  2  6  1  0  0  0  0
  4 16  1  6  0  0  0
  4 11  1  0  0  0  0
  4  1  1  0  0  0  0
  5 12  1  6  0  0  0
  5  3  1  0  0  0  0
  6  9  2  0  0  0  0
  7  2  2  0  0  0  0
  8  3  1  1  0  0  0
  8 15  1  0  0  0  0
 10  1  1  6  0  0  0
 10 15  1  0  0  0  0
 10  2  1  0  0  0  0
 11 13  1  6  0  0  0
 11  8  1  0  0  0  0
 13  5  1  0  0  0  0
 14  9  1  0  0  0  0
 15 14  2  0  0  0  0
 16 24  1  1  0  0  0
 18 16  1  0  0  0  0
 18 17  1  6  0  0  0
 19 21  1  0  0  0  0
 20 21  1  0  0  0  0
 21 18  1  0  0  0  0
 22 23  1  0  0  0  0
 22 19  1  0  0  0  0
 23 20  1  0  0  0  0
 25 26  1  0  0  0  0
 25 24  1  0  0  0  0
 27 26  1  0  0  0  0
 28 29  1  0  0  0  0
 29 27  1  0  0  0  0
 30 29  2  0  0  0  0
M  END
>  <MODEL>
8

>  <REMARK>
 VINA RESULT:      -6.4      3.456      6.444
  Name = 
  8 active torsions:
  status: ('A' for Active; 'I' for Inactive)
    1  A    between atoms: C_4  and  C_13
    2  A    between atoms: C_7  and  C_15
    3  A    between atoms: C_7  and  C_16
    4  A    between atoms: C_8  and  C_12
    5  A    between atoms: C_8  and  C_13
    6  A    between atoms: C_13  and  C_27
    7  A    between atoms: C_16  and  C_30
    8  A    between atoms: C_27  and  C_30
                            x       y       z     vdW  Elec       q    Type
                         _______ _______ _______ _____ _____    ______ ____

>  <TORSDO>
F 8

$$$$
=
 OpenBabel10272413533D

 30 33  0  0  1  0  0  0  0  0999 V2000
  188.7330  176.6630  144.0610 C   0  0  0  0  0  2  0  0  0  0  0  0
  191.1700  176.5720  144.7090 C   0  0  0  0  0  0  0  0  0  0  0  0
  187.6890  178.3140  148.2250 S   0  0  0  0  0  0  0  0  0  0  0  0
  187.3310  177.2620  144.3530 C   0  0  1  0  0  3  0  0  0  0  0  0
  186.0890  178.8450  147.4990 C   0  0  1  0  0  3  0  0  0  0  0  0
  192.0120  176.0460  145.7920 C   0  0  0  0  0  3  0  0  0  0  0  0
  191.6110  176.5750  143.5290 O   0  0  0  0  0  0  0  0  0  0  0  0
  187.9430  177.2610  146.7890 C   0  0  1  0  0  3  0  0  0  0  0  0
  191.5510  175.9860  147.0410 C   0  0  0  0  0  3  0  0  0  0  0  0
  189.8250  177.1790  145.0150 C   0  0  2  0  0  3  0  0  0  0  0  0
  187.2980  178.0380  145.6760 C   0  0  2  0  0  3  0  0  0  0  0  0
  185.9810  180.3550  147.5500 C   0  0  0  0  0  1  0  0  0  0  0  0
  185.9600  178.3830  146.1140 N   0  0  0  0  0  2  0  0  0  0  0  0
  190.1840  176.4230  147.3710 C   0  0  0  0  0  3  0  0  0  0  0  0
  189.3810  176.9770  146.4550 C   0  0  0  0  0  0  0  0  0  0  0  0
  186.8130  178.1430  143.2040 C   0  0  2  0  0  3  0  0  0  0  0  0
  184.8830  179.7630  143.5270 C   0  0  0  0  0  1  0  0  0  0  0  0
  185.2840  178.3310  143.1880 C   0  0  1  0  0  3  0  0  0  0  0  0
  183.1630  178.0330  141.8910 C   0  0  0  0  0  2  0  0  0  0  0  0
  185.0770  178.7880  140.7300 C   0  0  0  0  0  2  0  0  0  0  0  0
  184.6630  177.8780  141.8610 C   0  0  0  0  0  3  0  0  0  0  0  0
  182.7850  178.7740  140.6980 N   0  0  0  0  0  2  0  0  0  0  0  0
  183.9010  179.5490  140.3380 N   0  0  0  0  0  2  0  0  0  0  0  0
  187.3750  177.7460  141.8410 C   0  0  0  0  0  2  0  0  0  0  0  0
  188.5050  178.6790  141.4430 C   0  0  0  0  0  2  0  0  0  0  0  0
  189.5580  177.9240  140.6530 C   0  0  0  0  0  2  0  0  0  0  0  0
  188.9570  177.3560  139.3790 C   0  0  0  0  0  2  0  0  0  0  0  0
  190.0760  177.6550  137.3000 O   0  0  0  0  0  0  0  0  0  0  0  0
  189.3810  178.1730  138.2120 C   0  0  0  0  0  0  0  0  0  0  0  0
  188.9820  179.4990  138.1100 O   0  0  0  0  0  1  0  0  0  0  0  0
  1  4  1  0  0  0  0
  2 10  1  0  0  0  0
  2  6  1  0  0  0  0
  4 16  1  6  0  0  0
  4 11  1  0  0  0  0
  5 12  1  6  0  0  0
  5  3  1  0  0  0  0
  6  9  2  0  0  0  0
  7  2  2  0  0  0  0
  8 15  1  6  0  0  0
  8  3  1  0  0  0  0
  9 14  1  0  0  0  0
 10  1  1  6  0  0  0
 10 15  1  0  0  0  0
 11 13  1  1  0  0  0
 11  8  1  0  0  0  0
 13  5  1  0  0  0  0
 15 14  2  0  0  0  0
 16 24  1  6  0  0  0
 18 16  1  0  0  0  0
 18 17  1  6  0  0  0
 20 21  1  0  0  0  0
 21 19  1  0  0  0  0
 21 18  1  0  0  0  0
 22 19  1  0  0  0  0
 23 22  1  0  0  0  0
 23 20  1  0  0  0  0
 25 24  1  0  0  0  0
 26 25  1  0  0  0  0
 27 26  1  0  0  0  0
 28 29  2  0  0  0  0
 29 27  1  0  0  0  0
 30 29  1  0  0  0  0
M  END
>  <MODEL>
9

>  <REMARK>
 VINA RESULT:      -6.3      3.414      7.372
  Name = 
  8 active torsions:
  status: ('A' for Active; 'I' for Inactive)
    1  A    between atoms: C_4  and  C_13
    2  A    between atoms: C_7  and  C_15
    3  A    between atoms: C_7  and  C_16
    4  A    between atoms: C_8  and  C_12
    5  A    between atoms: C_8  and  C_13
    6  A    between atoms: C_13  and  C_27
    7  A    between atoms: C_16  and  C_30
    8  A    between atoms: C_27  and  C_30
                            x       y       z     vdW  Elec       q    Type
                         _______ _______ _______ _____ _____    ______ ____

>  <TORSDO>
F 8

$$$$
