=
 OpenBabel10272400043D

 34 40  0  0  1  0  0  0  0  0999 V2000
  188.9720  177.1880  146.3650 C   0  0  0  0  0  0  0  0  0  0  0  0
  190.7710  176.9160  144.7080 C   0  0  0  0  0  0  0  0  0  0  0  0
  188.5220  177.4970  144.0040 C   0  0  0  0  0  0  0  0  0  0  0  0
  188.3210  177.7880  141.6560 C   0  0  0  0  0  0  0  0  0  0  0  0
  191.2200  176.6040  147.0710 C   0  0  0  0  0  3  0  0  0  0  0  0
  191.6650  176.6190  145.7390 C   0  0  0  0  0  3  0  0  0  0  0  0
  190.2650  177.2420  142.4380 C   0  0  0  0  0  0  0  0  0  0  0  0
  189.4170  177.1980  145.0360 C   0  0  2  0  0  3  0  0  0  0  0  0
  189.1650  177.7270  140.5450 C   0  0  0  0  0  3  0  0  0  0  0  0
  189.8810  176.8880  147.3840 C   0  0  0  0  0  3  0  0  0  0  0  0
  187.1690  177.7930  144.2450 C   0  0  0  0  0  0  0  0  0  0  0  0
  187.6300  177.4850  146.6390 C   0  0  0  0  0  3  0  0  0  0  0  0
  191.1850  176.9440  143.3990 N   0  0  0  0  0  0  0  0  0  0  0  0
  186.8700  178.1600  141.7450 C   0  0  0  0  0  3  0  0  0  0  0  0
  186.3400  178.0910  143.1900 C   0  0  0  0  0  0  0  0  0  0  0  0
  190.4180  177.3570  141.0710 C   0  0  0  0  0  0  0  0  0  0  0  0
  189.0020  177.5000  142.7550 N   0  0  0  0  0  0  0  0  0  0  0  0
  186.7400  177.7860  145.5910 C   0  0  0  0  0  3  0  0  0  0  0  0
  182.6560  178.7080  142.4620 C   0  0  0  0  0  0  0  0  0  0  0  0
  182.1790  179.0210  143.7360 C   0  0  0  0  0  3  0  0  0  0  0  0
  184.8930  178.3850  143.3680 C   0  0  0  0  0  0  0  0  0  0  0  0
  183.0520  179.0260  144.8270 C   0  0  0  0  0  3  0  0  0  0  0  0
  184.0070  178.3970  142.2780 C   0  0  0  0  0  3  0  0  0  0  0  0
  184.4030  178.7140  144.6420 C   0  0  0  0  0  3  0  0  0  0  0  0
  181.7910  178.7080  141.3770 O   0  0  0  0  0  1  0  0  0  0  0  0
  191.6850  177.2090  140.3030 C   0  0  0  0  0  2  0  0  0  0  0  0
  191.3950  177.2670  138.8140 C   0  0  0  0  0  2  0  0  0  0  0  0
  189.7660  175.1460  137.8000 F   0  0  0  0  0  0  0  0  0  0  0  0
  191.9570  176.0630  138.1360 C   0  0  0  0  0  0  0  0  0  0  0  0
  191.1120  175.0450  137.6630 C   0  0  0  0  0  0  0  0  0  0  0  0
  193.0430  173.7970  136.9010 C   0  0  0  0  0  3  0  0  0  0  0  0
  193.8850  174.8070  137.3760 C   0  0  0  0  0  3  0  0  0  0  0  0
  193.3430  175.9370  137.9940 C   0  0  0  0  0  3  0  0  0  0  0  0
  191.6590  173.9170  137.0460 C   0  0  0  0  0  3  0  0  0  0  0  0
  1 12  1  0  0  0  0
  1 10  2  0  0  0  0
  2  8  1  0  0  0  0
  2  6  1  0  0  0  0
  3 11  2  0  0  0  0
  4 14  1  0  0  0  0
  4 17  1  0  0  0  0
  5 10  1  0  0  0  0
  6  5  2  0  0  0  0
  7 17  1  0  0  0  0
  7 13  1  0  0  0  0
  8  3  1  1  0  0  0
  8  1  1  0  0  0  0
  9 16  1  0  0  0  0
  9  4  2  0  0  0  0
 11 18  1  0  0  0  0
 13  2  2  0  0  0  0
 14 15  2  0  0  0  0
 15 21  1  0  0  0  0
 15 11  1  0  0  0  0
 16  7  2  0  0  0  0
 17  3  1  0  0  0  0
 18 12  2  0  0  0  0
 19 20  1  0  0  0  0
 20 22  2  0  0  0  0
 21 24  2  0  0  0  0
 23 19  2  0  0  0  0
 23 21  1  0  0  0  0
 24 22  1  0  0  0  0
 25 19  1  0  0  0  0
 26 16  1  0  0  0  0
 27 26  1  0  0  0  0
 29 27  1  0  0  0  0
 30 28  1  0  0  0  0
 30 29  2  0  0  0  0
 31 34  2  0  0  0  0
 31 32  1  0  0  0  0
 32 33  2  0  0  0  0
 33 29  1  0  0  0  0
 34 30  1  0  0  0  0
M  END
>  <MODEL>
1

>  <REMARK>
 VINA RESULT:     -12.0      0.000      0.000
  Name = 
  4 active torsions:
  status: ('A' for Active; 'I' for Inactive)
    1  A    between atoms: C_3  and  C_13
    2  A    between atoms: C_3  and  C_17
    3  A    between atoms: C_12  and  C_28
    4  A    between atoms: C_17  and  C_29
                            x       y       z     vdW  Elec       q    Type
                         _______ _______ _______ _____ _____    ______ ____

>  <TORSDO>
F 4

$$$$
=
 OpenBabel10272400043D

 34 40  0  0  1  0  0  0  0  0999 V2000
  188.9630  177.2000  146.3710 C   0  0  0  0  0  0  0  0  0  0  0  0
  190.7540  176.9040  144.7100 C   0  0  0  0  0  0  0  0  0  0  0  0
  188.5070  177.4930  144.0090 C   0  0  0  0  0  0  0  0  0  0  0  0
  188.2990  177.7660  141.6590 C   0  0  0  0  0  0  0  0  0  0  0  0
  191.2100  176.6080  147.0740 C   0  0  0  0  0  3  0  0  0  0  0  0
  191.6500  176.6090  145.7400 C   0  0  0  0  0  3  0  0  0  0  0  0
  190.2420  177.2140  142.4400 C   0  0  0  0  0  0  0  0  0  0  0  0
  189.4040  177.1960  145.0410 C   0  0  2  0  0  3  0  0  0  0  0  0
  189.1390  177.6900  140.5460 C   0  0  0  0  0  3  0  0  0  0  0  0
  189.8730  176.9030  147.3890 C   0  0  0  0  0  3  0  0  0  0  0  0
  187.1560  177.7990  144.2520 C   0  0  0  0  0  0  0  0  0  0  0  0
  187.6240  177.5070  146.6470 C   0  0  0  0  0  3  0  0  0  0  0  0
  191.1640  176.9190  143.3990 N   0  0  0  0  0  0  0  0  0  0  0  0
  186.8510  178.1470  141.7500 C   0  0  0  0  0  3  0  0  0  0  0  0
  186.3250  178.0940  143.1980 C   0  0  0  0  0  0  0  0  0  0  0  0
  190.3910  177.3170  141.0710 C   0  0  0  0  0  0  0  0  0  0  0  0
  188.9820  177.4830  142.7580 N   0  0  0  0  0  0  0  0  0  0  0  0
  186.7320  177.8050  145.5990 C   0  0  0  0  0  3  0  0  0  0  0  0
  182.6450  178.7360  142.4760 C   0  0  0  0  0  0  0  0  0  0  0  0
  182.1720  179.0530  143.7520 C   0  0  0  0  0  3  0  0  0  0  0  0
  184.8810  178.3980  143.3790 C   0  0  0  0  0  0  0  0  0  0  0  0
  183.0470  179.0520  144.8410 C   0  0  0  0  0  3  0  0  0  0  0  0
  183.9930  178.4170  142.2900 C   0  0  0  0  0  3  0  0  0  0  0  0
  184.3960  178.7310  144.6540 C   0  0  0  0  0  3  0  0  0  0  0  0
  181.7780  178.7430  141.3930 O   0  0  0  0  0  1  0  0  0  0  0  0
  191.6550  177.1560  140.2990 C   0  0  0  0  0  2  0  0  0  0  0  0
  191.3850  177.3580  138.8190 C   0  0  0  0  0  2  0  0  0  0  0  0
  193.7940  175.9770  138.1350 F   0  0  0  0  0  0  0  0  0  0  0  0
  191.3960  176.0440  138.1130 C   0  0  0  0  0  0  0  0  0  0  0  0
  192.6100  175.4120  137.7930 C   0  0  0  0  0  0  0  0  0  0  0  0
  191.3870  173.5980  136.7510 C   0  0  0  0  0  3  0  0  0  0  0  0
  190.1800  174.2280  137.0650 C   0  0  0  0  0  3  0  0  0  0  0  0
  190.1850  175.4500  137.7430 C   0  0  0  0  0  3  0  0  0  0  0  0
  192.6000  174.1900  137.1140 C   0  0  0  0  0  3  0  0  0  0  0  0
  1 12  1  0  0  0  0
  1 10  2  0  0  0  0
  2  8  1  0  0  0  0
  2  6  1  0  0  0  0
  3 11  2  0  0  0  0
  4 14  1  0  0  0  0
  4 17  1  0  0  0  0
  5 10  1  0  0  0  0
  6  5  2  0  0  0  0
  7 17  1  0  0  0  0
  7 13  1  0  0  0  0
  8  3  1  1  0  0  0
  8  1  1  0  0  0  0
  9 16  1  0  0  0  0
  9  4  2  0  0  0  0
 11 18  1  0  0  0  0
 13  2  2  0  0  0  0
 14 15  2  0  0  0  0
 15 21  1  0  0  0  0
 15 11  1  0  0  0  0
 16  7  2  0  0  0  0
 17  3  1  0  0  0  0
 18 12  2  0  0  0  0
 19 20  1  0  0  0  0
 20 22  2  0  0  0  0
 21 24  2  0  0  0  0
 23 19  2  0  0  0  0
 23 21  1  0  0  0  0
 24 22  1  0  0  0  0
 25 19  1  0  0  0  0
 26 16  1  0  0  0  0
 27 26  1  0  0  0  0
 29 27  1  0  0  0  0
 30 29  1  0  0  0  0
 30 28  1  0  0  0  0
 31 32  2  0  0  0  0
 31 34  1  0  0  0  0
 32 33  1  0  0  0  0
 33 29  2  0  0  0  0
 34 30  2  0  0  0  0
M  END
>  <MODEL>
2

>  <REMARK>
 VINA RESULT:     -11.9      0.805      1.188
  Name = 
  4 active torsions:
  status: ('A' for Active; 'I' for Inactive)
    1  A    between atoms: C_3  and  C_13
    2  A    between atoms: C_3  and  C_17
    3  A    between atoms: C_12  and  C_28
    4  A    between atoms: C_17  and  C_29
                            x       y       z     vdW  Elec       q    Type
                         _______ _______ _______ _____ _____    ______ ____

>  <TORSDO>
F 4

$$$$
=
 OpenBabel10272400043D

 34 40  0  0  1  0  0  0  0  0999 V2000
  187.0700  178.3360  147.3610 C   0  0  0  0  0  0  0  0  0  0  0  0
  189.1760  177.6030  146.3200 C   0  0  0  0  0  0  0  0  0  0  0  0
  187.1810  177.9210  144.9770 C   0  0  0  0  0  0  0  0  0  0  0  0
  187.5290  177.4950  142.6660 C   0  0  0  0  0  0  0  0  0  0  0  0
  189.0650  178.0150  148.7080 C   0  0  0  0  0  3  0  0  0  0  0  0
  189.7980  177.6370  147.5710 C   0  0  0  0  0  3  0  0  0  0  0  0
  189.2130  177.2300  144.0020 C   0  0  0  0  0  0  0  0  0  0  0  0
  187.8030  177.9540  146.2290 C   0  0  2  0  0  3  0  0  0  0  0  0
  188.5960  177.1150  141.8500 C   0  0  0  0  0  3  0  0  0  0  0  0
  187.7080  178.3650  148.6050 C   0  0  0  0  0  3  0  0  0  0  0  0
  185.8270  178.2590  144.8000 C   0  0  0  0  0  0  0  0  0  0  0  0
  185.7210  178.6850  147.2170 C   0  0  0  0  0  3  0  0  0  0  0  0
  189.8740  177.2430  145.1930 N   0  0  0  0  0  0  0  0  0  0  0  0
  186.1190  177.8590  142.3040 C   0  0  0  0  0  3  0  0  0  0  0  0
  185.2750  178.2200  143.5420 C   0  0  0  0  0  0  0  0  0  0  0  0
  189.6750  176.9340  142.7360 C   0  0  0  0  0  0  0  0  0  0  0  0
  187.9280  177.5560  143.9280 N   0  0  0  0  0  0  0  0  0  0  0  0
  185.1080  178.6490  145.9500 C   0  0  0  0  0  3  0  0  0  0  0  0
  182.0000  178.9770  141.7600 C   0  0  0  0  0  0  0  0  0  0  0  0
  181.1520  179.2120  142.8440 C   0  0  0  0  0  3  0  0  0  0  0  0
  183.8450  178.5360  143.2860 C   0  0  0  0  0  0  0  0  0  0  0  0
  181.6450  179.1200  144.1480 C   0  0  0  0  0  3  0  0  0  0  0  0
  183.3410  178.6460  141.9790 C   0  0  0  0  0  3  0  0  0  0  0  0
  182.9860  178.7880  144.3670 C   0  0  0  0  0  3  0  0  0  0  0  0
  181.5130  179.0740  140.4640 O   0  0  0  0  0  1  0  0  0  0  0  0
  191.0720  176.5780  142.3600 C   0  0  0  0  0  2  0  0  0  0  0  0
  191.6680  177.6730  141.4950 C   0  0  0  0  0  2  0  0  0  0  0  0
  194.2160  177.0800  140.3390 F   0  0  0  0  0  0  0  0  0  0  0  0
  191.8320  177.1880  140.0940 C   0  0  0  0  0  0  0  0  0  0  0  0
  193.1080  176.9190  139.5730 C   0  0  0  0  0  0  0  0  0  0  0  0
  192.1110  176.3150  137.4480 C   0  0  0  0  0  3  0  0  0  0  0  0
  190.8410  176.5880  137.9650 C   0  0  0  0  0  3  0  0  0  0  0  0
  190.7020  177.0250  139.2850 C   0  0  0  0  0  3  0  0  0  0  0  0
  193.2430  176.4810  138.2520 C   0  0  0  0  0  3  0  0  0  0  0  0
  1 10  2  0  0  0  0
  2  6  1  0  0  0  0
  4 17  1  0  0  0  0
  6  5  2  0  0  0  0
  7 13  1  0  0  0  0
  8  3  1  6  0  0  0
  8  2  1  0  0  0  0
  8  1  1  0  0  0  0
  9  4  2  0  0  0  0
  9 16  1  0  0  0  0
 10  5  1  0  0  0  0
 11  3  2  0  0  0  0
 11 18  1  0  0  0  0
 12  1  1  0  0  0  0
 13  2  2  0  0  0  0
 14  4  1  0  0  0  0
 14 15  2  0  0  0  0
 15 11  1  0  0  0  0
 16  7  2  0  0  0  0
 17  7  1  0  0  0  0
 17  3  1  0  0  0  0
 18 12  2  0  0  0  0
 19 23  2  0  0  0  0
 19 20  1  0  0  0  0
 20 22  2  0  0  0  0
 21 15  1  0  0  0  0
 21 24  2  0  0  0  0
 22 24  1  0  0  0  0
 23 21  1  0  0  0  0
 25 19  1  0  0  0  0
 26 16  1  0  0  0  0
 27 26  1  0  0  0  0
 29 27  1  0  0  0  0
 30 29  1  0  0  0  0
 30 28  1  0  0  0  0
 31 32  2  0  0  0  0
 31 34  1  0  0  0  0
 32 33  1  0  0  0  0
 33 29  2  0  0  0  0
 34 30  2  0  0  0  0
M  END
>  <MODEL>
3

>  <REMARK>
 VINA RESULT:     -11.4      1.626      2.342
  Name = 
  4 active torsions:
  status: ('A' for Active; 'I' for Inactive)
    1  A    between atoms: C_3  and  C_13
    2  A    between atoms: C_3  and  C_17
    3  A    between atoms: C_12  and  C_28
    4  A    between atoms: C_17  and  C_29
                            x       y       z     vdW  Elec       q    Type
                         _______ _______ _______ _____ _____    ______ ____

>  <TORSDO>
F 4

$$$$
=
 OpenBabel10272400043D

 34 40  0  0  1  0  0  0  0  0999 V2000
  190.6580  176.9480  145.7350 C   0  0  0  0  0  0  0  0  0  0  0  0
  188.3650  177.5740  146.3700 C   0  0  0  0  0  0  0  0  0  0  0  0
  188.9940  177.4010  144.0330 C   0  0  0  0  0  0  0  0  0  0  0  0
  187.2000  177.8480  142.5430 C   0  0  0  0  0  0  0  0  0  0  0  0
  190.0310  177.1240  148.0740 C   0  0  0  0  0  3  0  0  0  0  0  0
  188.7200  177.4800  147.7180 C   0  0  0  0  0  3  0  0  0  0  0  0
  186.8020  177.9870  144.6670 C   0  0  0  0  0  0  0  0  0  0  0  0
  189.3500  177.3070  145.3820 C   0  0  2  0  0  3  0  0  0  0  0  0
  185.8470  178.1790  142.6470 C   0  0  0  0  0  3  0  0  0  0  0  0
  190.9970  176.8590  147.0890 C   0  0  0  0  0  3  0  0  0  0  0  0
  189.9080  177.1480  142.9950 C   0  0  0  0  0  0  0  0  0  0  0  0
  191.5920  176.6830  144.7240 C   0  0  0  0  0  3  0  0  0  0  0  0
  187.0870  177.9120  145.9980 N   0  0  0  0  0  0  0  0  0  0  0  0
  188.0350  177.5760  141.3270 C   0  0  0  0  0  3  0  0  0  0  0  0
  189.4960  177.2430  141.6870 C   0  0  0  0  0  0  0  0  0  0  0  0
  185.6110  178.2790  144.0320 C   0  0  0  0  0  0  0  0  0  0  0  0
  187.7300  177.7400  143.7520 N   0  0  0  0  0  0  0  0  0  0  0  0
  191.2190  176.7790  143.3700 C   0  0  0  0  0  3  0  0  0  0  0  0
  192.6280  177.1200  139.5300 C   0  0  0  0  0  0  0  0  0  0  0  0
  192.1050  176.6500  138.3230 C   0  0  0  0  0  3  0  0  0  0  0  0
  190.4150  177.0180  140.5400 C   0  0  0  0  0  0  0  0  0  0  0  0
  190.7400  176.3710  138.2160 C   0  0  0  0  0  3  0  0  0  0  0  0
  191.7870  177.3090  140.6310 C   0  0  0  0  0  3  0  0  0  0  0  0
  189.8990  176.5590  139.3170 C   0  0  0  0  0  3  0  0  0  0  0  0
  193.9820  177.4040  139.6360 O   0  0  0  0  0  1  0  0  0  0  0  0
  184.3010  178.5580  144.6830 C   0  0  0  0  0  2  0  0  0  0  0  0
  183.5590  179.6320  143.9090 C   0  0  0  0  0  2  0  0  0  0  0  0
  183.3150  179.0980  141.1100 F   0  0  0  0  0  0  0  0  0  0  0  0
  182.3260  179.0620  143.2950 C   0  0  0  0  0  0  0  0  0  0  0  0
  182.2550  178.8270  141.9120 C   0  0  0  0  0  0  0  0  0  0  0  0
  179.9820  178.0270  142.1650 C   0  0  0  0  0  3  0  0  0  0  0  0
  180.0490  178.2650  143.5410 C   0  0  0  0  0  3  0  0  0  0  0  0
  181.2180  178.7840  144.1040 C   0  0  0  0  0  3  0  0  0  0  0  0
  181.0840  178.3080  141.3520 C   0  0  0  0  0  3  0  0  0  0  0  0
  1 10  2  0  0  0  0
  2  6  1  0  0  0  0
  4  9  2  0  0  0  0
  4 17  1  0  0  0  0
  6  5  2  0  0  0  0
  7 13  1  0  0  0  0
  8  3  1  6  0  0  0
  8  1  1  0  0  0  0
  8  2  1  0  0  0  0
  9 16  1  0  0  0  0
 10  5  1  0  0  0  0
 11 18  1  0  0  0  0
 11  3  2  0  0  0  0
 12  1  1  0  0  0  0
 13  2  2  0  0  0  0
 14 15  2  0  0  0  0
 14  4  1  0  0  0  0
 15 11  1  0  0  0  0
 16  7  2  0  0  0  0
 16 26  1  0  0  0  0
 17  3  1  0  0  0  0
 17  7  1  0  0  0  0
 18 12  2  0  0  0  0
 19 25  1  0  0  0  0
 19 23  1  0  0  0  0
 20 19  2  0  0  0  0
 21 23  2  0  0  0  0
 21 15  1  0  0  0  0
 22 20  1  0  0  0  0
 22 24  2  0  0  0  0
 24 21  1  0  0  0  0
 27 26  1  0  0  0  0
 28 30  1  0  0  0  0
 29 27  1  0  0  0  0
 29 33  1  0  0  0  0
 30 29  2  0  0  0  0
 31 32  1  0  0  0  0
 32 33  2  0  0  0  0
 34 30  1  0  0  0  0
 34 31  2  0  0  0  0
M  END
>  <MODEL>
4

>  <REMARK>
 VINA RESULT:     -11.4      2.898      7.945
  Name = 
  4 active torsions:
  status: ('A' for Active; 'I' for Inactive)
    1  A    between atoms: C_3  and  C_13
    2  A    between atoms: C_3  and  C_17
    3  A    between atoms: C_12  and  C_28
    4  A    between atoms: C_17  and  C_29
                            x       y       z     vdW  Elec       q    Type
                         _______ _______ _______ _____ _____    ______ ____

>  <TORSDO>
F 4

$$$$
=
 OpenBabel10272400043D

 34 40  0  0  0  0  0  0  0  0999 V2000
  185.9400  178.0340  143.7700 C   0  0  0  0  0  0  0  0  0  0  0  0
  186.0000  178.6130  141.3790 C   0  0  0  0  0  0  0  0  0  0  0  0
  187.9790  177.7540  142.4900 C   0  0  0  0  0  0  0  0  0  0  0  0
  189.8440  177.5250  141.0390 C   0  0  0  0  0  0  0  0  0  0  0  0
  183.9600  178.8960  142.6600 C   0  0  0  0  0  3  0  0  0  0  0  0
  184.6570  178.9920  141.4450 C   0  0  0  0  0  3  0  0  0  0  0  0
  188.0070  178.3050  140.1990 C   0  0  0  0  0  0  0  0  0  0  0  0
  186.6350  178.1350  142.5570 C   0  0  0  0  0  0  0  0  0  0  0  0
  190.1170  177.7440  139.6870 C   0  0  0  0  0  3  0  0  0  0  0  0
  184.5970  178.4180  143.8180 C   0  0  0  0  0  3  0  0  0  0  0  0
  188.6780  177.2660  143.6080 C   0  0  0  0  0  0  0  0  0  0  0  0
  186.6070  177.5450  144.9010 C   0  0  0  0  0  3  0  0  0  0  0  0
  186.7000  178.6910  140.2000 N   0  0  0  0  0  0  0  0  0  0  0  0
  190.7170  176.9540  142.1180 C   0  0  0  0  0  2  0  0  0  0  0  0
  189.9950  176.8950  143.4780 C   0  0  0  0  0  0  0  0  0  0  0  0
  188.9170  178.2630  139.1620 C   0  0  0  0  0  0  0  0  0  0  0  0
  188.5920  177.8640  141.3060 N   0  0  0  0  0  0  0  0  0  0  0  0
  187.9600  177.1630  144.8200 C   0  0  0  0  0  3  0  0  0  0  0  0
  191.6450  176.6280  146.8970 C   0  0  0  0  0  0  0  0  0  0  0  0
  192.4050  175.4670  146.7380 C   0  0  0  0  0  3  0  0  0  0  0  0
  190.8030  176.3990  144.6230 C   0  0  0  0  0  0  0  0  0  0  0  0
  192.3760  174.7740  145.5260 C   0  0  0  0  0  3  0  0  0  0  0  0
  190.8530  177.0940  145.8430 C   0  0  0  0  0  3  0  0  0  0  0  0
  191.5820  175.2400  144.4730 C   0  0  0  0  0  3  0  0  0  0  0  0
  191.6780  177.3210  148.0980 O   0  0  0  0  0  1  0  0  0  0  0  0
  188.6590  178.6130  137.7380 C   0  0  0  0  0  2  0  0  0  0  0  0
  188.7110  177.3600  136.8820 C   0  0  0  0  0  2  0  0  0  0  0  0
  188.4880  174.5160  137.0840 F   0  0  0  0  0  0  0  0  0  0  0  0
  187.4010  176.6490  136.9360 C   0  0  0  0  0  0  0  0  0  0  0  0
  187.3480  175.2480  137.0270 C   0  0  0  0  0  0  0  0  0  0  0  0
  184.9270  175.3390  136.9960 C   0  0  0  0  0  3  0  0  0  0  0  0
  184.9790  176.7330  136.9000 C   0  0  0  0  0  3  0  0  0  0  0  0
  186.2130  177.3860  136.8680 C   0  0  0  0  0  3  0  0  0  0  0  0
  186.1110  174.5990  137.0590 C   0  0  0  0  0  3  0  0  0  0  0  0
  1 10  2  0  0  0  0
  1 12  1  0  0  0  0
  2  6  1  0  0  0  0
  2  8  1  0  0  0  0
  3  8  2  0  0  0  0
  3 11  1  0  0  0  0
  4 17  1  0  0  0  0
  4 14  1  0  0  0  0
  5 10  1  0  0  0  0
  6  5  2  0  0  0  0
  7 13  1  0  0  0  0
  7 17  1  0  0  0  0
  8  1  1  0  0  0  0
  9  4  2  0  0  0  0
 11 18  1  0  0  0  0
 13  2  2  0  0  0  0
 14 15  1  0  0  0  0
 15 11  2  0  0  0  0
 15 21  1  0  0  0  0
 16  9  1  0  0  0  0
 16  7  2  0  0  0  0
 17  3  1  0  0  0  0
 18 12  2  0  0  0  0
 19 25  1  0  0  0  0
 20 19  1  0  0  0  0
 21 23  1  0  0  0  0
 22 20  2  0  0  0  0
 23 19  2  0  0  0  0
 24 21  2  0  0  0  0
 24 22  1  0  0  0  0
 26 16  1  0  0  0  0
 27 29  1  0  0  0  0
 27 26  1  0  0  0  0
 29 30  1  0  0  0  0
 30 34  2  0  0  0  0
 30 28  1  0  0  0  0
 31 34  1  0  0  0  0
 32 31  2  0  0  0  0
 33 32  1  0  0  0  0
 33 29  2  0  0  0  0
M  END
>  <MODEL>
5

>  <REMARK>
 VINA RESULT:     -11.2      3.218      6.220
  Name = 
  4 active torsions:
  status: ('A' for Active; 'I' for Inactive)
    1  A    between atoms: C_3  and  C_13
    2  A    between atoms: C_3  and  C_17
    3  A    between atoms: C_12  and  C_28
    4  A    between atoms: C_17  and  C_29
                            x       y       z     vdW  Elec       q    Type
                         _______ _______ _______ _____ _____    ______ ____

>  <TORSDO>
F 4

$$$$
=
 OpenBabel10272400043D

 34 40  0  0  0  0  0  0  0  0999 V2000
  185.1580  178.3630  143.0760 C   0  0  0  0  0  0  0  0  0  0  0  0
  185.6420  178.6950  140.6860 C   0  0  0  0  0  0  0  0  0  0  0  0
  187.4140  178.1020  142.2330 C   0  0  0  0  0  0  0  0  0  0  0  0
  189.5320  177.8600  141.1850 C   0  0  0  0  0  0  0  0  0  0  0  0
  183.3840  178.9600  141.5300 C   0  0  0  0  0  3  0  0  0  0  0  0
  184.2930  178.9810  140.4600 C   0  0  0  0  0  3  0  0  0  0  0  0
  187.8500  178.4130  139.9380 C   0  0  0  0  0  0  0  0  0  0  0  0
  186.0650  178.3890  142.0080 C   0  0  0  0  0  0  0  0  0  0  0  0
  190.0450  177.9570  139.8900 C   0  0  0  0  0  3  0  0  0  0  0  0
  183.8120  178.6520  142.8320 C   0  0  0  0  0  3  0  0  0  0  0  0
  187.9130  177.7840  143.5100 C   0  0  0  0  0  0  0  0  0  0  0  0
  185.6210  178.0440  144.3590 C   0  0  0  0  0  3  0  0  0  0  0  0
  186.5490  178.7010  139.6550 N   0  0  0  0  0  0  0  0  0  0  0  0
  190.2110  177.4690  142.4650 C   0  0  0  0  0  2  0  0  0  0  0  0
  189.2480  177.4980  143.6670 C   0  0  0  0  0  0  0  0  0  0  0  0
  188.9420  178.3300  139.0980 C   0  0  0  0  0  0  0  0  0  0  0  0
  188.2360  178.1320  141.1770 N   0  0  0  0  0  0  0  0  0  0  0  0
  186.9830  177.7550  144.5720 C   0  0  0  0  0  3  0  0  0  0  0  0
  189.8200  177.2880  147.4230 C   0  0  0  0  0  0  0  0  0  0  0  0
  191.0530  176.6350  147.4710 C   0  0  0  0  0  3  0  0  0  0  0  0
  189.8470  177.1830  144.9900 C   0  0  0  0  0  0  0  0  0  0  0  0
  191.6920  176.2620  146.2860 C   0  0  0  0  0  3  0  0  0  0  0  0
  189.2230  177.5660  146.1890 C   0  0  0  0  0  3  0  0  0  0  0  0
  191.0940  176.5380  145.0520 C   0  0  0  0  0  3  0  0  0  0  0  0
  189.1880  177.6650  148.5990 O   0  0  0  0  0  1  0  0  0  0  0  0
  188.9420  178.5110  137.6200 C   0  0  0  0  0  2  0  0  0  0  0  0
  189.1810  177.1770  136.9370 C   0  0  0  0  0  2  0  0  0  0  0  0
  188.9770  174.3540  137.3460 F   0  0  0  0  0  0  0  0  0  0  0  0
  187.8980  176.4280  136.8120 C   0  0  0  0  0  0  0  0  0  0  0  0
  187.8540  175.0390  137.0160 C   0  0  0  0  0  0  0  0  0  0  0  0
  185.4800  175.0440  136.5330 C   0  0  0  0  0  3  0  0  0  0  0  0
  185.5230  176.4260  136.3250 C   0  0  0  0  0  3  0  0  0  0  0  0
  186.7300  177.1160  136.4630 C   0  0  0  0  0  3  0  0  0  0  0  0
  186.6440  174.3530  136.8770 C   0  0  0  0  0  3  0  0  0  0  0  0
  1 12  1  0  0  0  0
  2  8  1  0  0  0  0
  3 11  1  0  0  0  0
  4 14  1  0  0  0  0
  5 10  1  0  0  0  0
  6  2  1  0  0  0  0
  6  5  2  0  0  0  0
  7 17  1  0  0  0  0
  8  3  2  0  0  0  0
  8  1  1  0  0  0  0
  9  4  2  0  0  0  0
 10  1  2  0  0  0  0
 11 15  2  0  0  0  0
 11 18  1  0  0  0  0
 12 18  2  0  0  0  0
 13  7  1  0  0  0  0
 13  2  2  0  0  0  0
 14 15  1  0  0  0  0
 15 21  1  0  0  0  0
 16  9  1  0  0  0  0
 16  7  2  0  0  0  0
 17  4  1  0  0  0  0
 17  3  1  0  0  0  0
 19 20  1  0  0  0  0
 19 25  1  0  0  0  0
 21 24  2  0  0  0  0
 21 23  1  0  0  0  0
 22 20  2  0  0  0  0
 23 19  2  0  0  0  0
 24 22  1  0  0  0  0
 26 16  1  0  0  0  0
 27 26  1  0  0  0  0
 29 27  1  0  0  0  0
 29 30  1  0  0  0  0
 30 28  1  0  0  0  0
 31 34  1  0  0  0  0
 32 33  1  0  0  0  0
 32 31  2  0  0  0  0
 33 29  2  0  0  0  0
 34 30  2  0  0  0  0
M  END
>  <MODEL>
6

>  <REMARK>
 VINA RESULT:     -11.1      2.983      5.928
  Name = 
  4 active torsions:
  status: ('A' for Active; 'I' for Inactive)
    1  A    between atoms: C_3  and  C_13
    2  A    between atoms: C_3  and  C_17
    3  A    between atoms: C_12  and  C_28
    4  A    between atoms: C_17  and  C_29
                            x       y       z     vdW  Elec       q    Type
                         _______ _______ _______ _____ _____    ______ ____

>  <TORSDO>
F 4

$$$$
=
 OpenBabel10272400043D

 34 40  0  0  0  0  0  0  0  0999 V2000
  184.9980  178.3800  143.0640 C   0  0  0  0  0  0  0  0  0  0  0  0
  185.4440  178.6320  140.6570 C   0  0  0  0  0  0  0  0  0  0  0  0
  187.2410  178.0920  142.1960 C   0  0  0  0  0  0  0  0  0  0  0  0
  189.3430  177.8180  141.1240 C   0  0  0  0  0  0  0  0  0  0  0  0
  183.1990  178.9230  141.5270 C   0  0  0  0  0  3  0  0  0  0  0  0
  184.0920  178.9090  140.4430 C   0  0  0  0  0  3  0  0  0  0  0  0
  187.6410  178.3280  139.8850 C   0  0  0  0  0  0  0  0  0  0  0  0
  185.8880  178.3710  141.9810 C   0  0  0  0  0  0  0  0  0  0  0  0
  189.8360  177.8730  139.8180 C   0  0  0  0  0  3  0  0  0  0  0  0
  183.6480  178.6590  142.8310 C   0  0  0  0  0  3  0  0  0  0  0  0
  187.7600  177.8170  143.4740 C   0  0  0  0  0  0  0  0  0  0  0  0
  185.4810  178.1030  144.3500 C   0  0  0  0  0  3  0  0  0  0  0  0
  186.3350  178.6050  139.6120 N   0  0  0  0  0  0  0  0  0  0  0  0
  190.0420  177.4700  142.4050 C   0  0  0  0  0  2  0  0  0  0  0  0
  189.0970  177.5380  143.6200 C   0  0  0  0  0  0  0  0  0  0  0  0
  188.7200  178.2190  139.0310 C   0  0  0  0  0  0  0  0  0  0  0  0
  188.0460  178.0890  141.1260 N   0  0  0  0  0  0  0  0  0  0  0  0
  186.8460  177.8230  144.5510 C   0  0  0  0  0  3  0  0  0  0  0  0
  189.6910  177.3880  147.3750 C   0  0  0  0  0  0  0  0  0  0  0  0
  190.9600  176.8080  147.4240 C   0  0  0  0  0  3  0  0  0  0  0  0
  189.7180  177.2670  144.9440 C   0  0  0  0  0  0  0  0  0  0  0  0
  191.6160  176.4640  146.2400 C   0  0  0  0  0  3  0  0  0  0  0  0
  189.0750  177.6220  146.1420 C   0  0  0  0  0  3  0  0  0  0  0  0
  191.0000  176.6970  145.0060 C   0  0  0  0  0  3  0  0  0  0  0  0
  189.0410  177.7360  148.5510 O   0  0  0  0  0  1  0  0  0  0  0  0
  188.6980  178.3510  137.5480 C   0  0  0  0  0  2  0  0  0  0  0  0
  188.0530  177.1230  136.9310 C   0  0  0  0  0  2  0  0  0  0  0  0
  187.4030  174.3690  137.3440 F   0  0  0  0  0  0  0  0  0  0  0  0
  189.0550  176.0250  136.8110 C   0  0  0  0  0  0  0  0  0  0  0  0
  188.6840  174.6880  137.0330 C   0  0  0  0  0  0  0  0  0  0  0  0
  190.9660  173.9880  136.6160 C   0  0  0  0  0  3  0  0  0  0  0  0
  191.3370  175.3180  136.4000 C   0  0  0  0  0  3  0  0  0  0  0  0
  190.3830  176.3350  136.4990 C   0  0  0  0  0  3  0  0  0  0  0  0
  189.6410  173.6740  136.9320 C   0  0  0  0  0  3  0  0  0  0  0  0
  1 12  1  0  0  0  0
  2  8  1  0  0  0  0
  3 11  1  0  0  0  0
  4 17  1  0  0  0  0
  4 14  1  0  0  0  0
  5 10  1  0  0  0  0
  6  2  1  0  0  0  0
  6  5  2  0  0  0  0
  7 17  1  0  0  0  0
  8  3  2  0  0  0  0
  8  1  1  0  0  0  0
  9  4  2  0  0  0  0
 10  1  2  0  0  0  0
 11 15  2  0  0  0  0
 11 18  1  0  0  0  0
 12 18  2  0  0  0  0
 13  7  1  0  0  0  0
 13  2  2  0  0  0  0
 14 15  1  0  0  0  0
 15 21  1  0  0  0  0
 16  9  1  0  0  0  0
 16  7  2  0  0  0  0
 17  3  1  0  0  0  0
 19 20  1  0  0  0  0
 19 25  1  0  0  0  0
 21 24  2  0  0  0  0
 21 23  1  0  0  0  0
 22 20  2  0  0  0  0
 23 19  2  0  0  0  0
 24 22  1  0  0  0  0
 26 16  1  0  0  0  0
 27 26  1  0  0  0  0
 29 27  1  0  0  0  0
 29 30  1  0  0  0  0
 30 28  1  0  0  0  0
 31 34  1  0  0  0  0
 32 33  1  0  0  0  0
 32 31  2  0  0  0  0
 33 29  2  0  0  0  0
 34 30  2  0  0  0  0
M  END
>  <MODEL>
7

>  <REMARK>
 VINA RESULT:     -11.0      2.436      5.465
  Name = 
  4 active torsions:
  status: ('A' for Active; 'I' for Inactive)
    1  A    between atoms: C_3  and  C_13
    2  A    between atoms: C_3  and  C_17
    3  A    between atoms: C_12  and  C_28
    4  A    between atoms: C_17  and  C_29
                            x       y       z     vdW  Elec       q    Type
                         _______ _______ _______ _____ _____    ______ ____

>  <TORSDO>
F 4

$$$$
=
 OpenBabel10272400043D

 34 40  0  0  1  0  0  0  0  0999 V2000
  186.6740  178.0440  146.4140 C   0  0  0  0  0  0  0  0  0  0  0  0
  188.6640  177.7210  145.0010 C   0  0  0  0  0  0  0  0  0  0  0  0
  186.4880  178.1090  143.9990 C   0  0  0  0  0  0  0  0  0  0  0  0
  186.5460  178.1720  141.6260 C   0  0  0  0  0  0  0  0  0  0  0  0
  188.8500  177.6520  147.4190 C   0  0  0  0  0  3  0  0  0  0  0  0
  189.4450  177.5690  146.1490 C   0  0  0  0  0  3  0  0  0  0  0  0
  188.4090  177.8080  142.6690 C   0  0  0  0  0  0  0  0  0  0  0  0
  187.2700  177.9560  145.1480 C   0  0  2  0  0  3  0  0  0  0  0  0
  187.5150  178.0550  140.6270 C   0  0  0  0  0  3  0  0  0  0  0  0
  187.4720  177.8890  147.5520 C   0  0  0  0  0  3  0  0  0  0  0  0
  185.1030  178.3500  144.0580 C   0  0  0  0  0  0  0  0  0  0  0  0
  185.2980  178.2890  146.5070 C   0  0  0  0  0  3  0  0  0  0  0  0
  189.2240  177.6520  143.7490 N   0  0  0  0  0  0  0  0  0  0  0  0
  185.0800  178.4680  141.5170 C   0  0  0  0  0  3  0  0  0  0  0  0
  184.3900  178.5040  142.8940 C   0  0  0  0  0  0  0  0  0  0  0  0
  188.7140  177.8060  141.3220 C   0  0  0  0  0  0  0  0  0  0  0  0
  187.1080  178.0240  142.8160 N   0  0  0  0  0  0  0  0  0  0  0  0
  184.5230  178.4430  145.3420 C   0  0  0  0  0  3  0  0  0  0  0  0
  180.8490  179.2160  141.6970 C   0  0  0  0  0  0  0  0  0  0  0  0
  180.1540  179.2340  142.9080 C   0  0  0  0  0  3  0  0  0  0  0  0
  182.9210  178.7310  142.8810 C   0  0  0  0  0  0  0  0  0  0  0  0
  180.8350  179.0110  144.1070 C   0  0  0  0  0  3  0  0  0  0  0  0
  182.2260  178.9720  141.6840 C   0  0  0  0  0  3  0  0  0  0  0  0
  182.2120  178.7650  144.0930 C   0  0  0  0  0  3  0  0  0  0  0  0
  180.1740  179.4440  140.5060 O   0  0  0  0  0  1  0  0  0  0  0  0
  190.0670  177.6590  140.7170 C   0  0  0  0  0  2  0  0  0  0  0  0
  189.9900  177.8890  139.2190 C   0  0  0  0  0  2  0  0  0  0  0  0
  188.1100  176.1950  137.8870 F   0  0  0  0  0  0  0  0  0  0  0  0
  190.3870  176.6510  138.4890 C   0  0  0  0  0  0  0  0  0  0  0  0
  189.4210  175.8490  137.8580 C   0  0  0  0  0  0  0  0  0  0  0  0
  191.1580  174.3110  137.1590 C   0  0  0  0  0  3  0  0  0  0  0  0
  192.1190  175.1050  137.7910 C   0  0  0  0  0  3  0  0  0  0  0  0
  191.7340  176.2720  138.4560 C   0  0  0  0  0  3  0  0  0  0  0  0
  189.8110  174.6820  137.1940 C   0  0  0  0  0  3  0  0  0  0  0  0
  1 12  1  0  0  0  0
  1 10  2  0  0  0  0
  2  8  1  0  0  0  0
  2  6  1  0  0  0  0
  3 11  2  0  0  0  0
  4 17  1  0  0  0  0
  5 10  1  0  0  0  0
  6  5  2  0  0  0  0
  7 17  1  0  0  0  0
  7 13  1  0  0  0  0
  8  3  1  1  0  0  0
  8  1  1  0  0  0  0
  9 16  1  0  0  0  0
  9  4  2  0  0  0  0
 11 18  1  0  0  0  0
 13  2  2  0  0  0  0
 14  4  1  0  0  0  0
 14 15  2  0  0  0  0
 15 11  1  0  0  0  0
 16  7  2  0  0  0  0
 17  3  1  0  0  0  0
 18 12  2  0  0  0  0
 19 20  1  0  0  0  0
 20 22  2  0  0  0  0
 21 15  1  0  0  0  0
 21 24  2  0  0  0  0
 23 19  2  0  0  0  0
 23 21  1  0  0  0  0
 24 22  1  0  0  0  0
 25 19  1  0  0  0  0
 26 16  1  0  0  0  0
 27 26  1  0  0  0  0
 29 27  1  0  0  0  0
 30 28  1  0  0  0  0
 30 29  2  0  0  0  0
 31 34  2  0  0  0  0
 31 32  1  0  0  0  0
 32 33  2  0  0  0  0
 33 29  1  0  0  0  0
 34 30  1  0  0  0  0
M  END
>  <MODEL>
8

>  <REMARK>
 VINA RESULT:     -10.9      1.306      2.080
  Name = 
  4 active torsions:
  status: ('A' for Active; 'I' for Inactive)
    1  A    between atoms: C_3  and  C_13
    2  A    between atoms: C_3  and  C_17
    3  A    between atoms: C_12  and  C_28
    4  A    between atoms: C_17  and  C_29
                            x       y       z     vdW  Elec       q    Type
                         _______ _______ _______ _____ _____    ______ ____

>  <TORSDO>
F 4

$$$$
=
 OpenBabel10272400043D

 34 40  0  0  0  0  0  0  0  0999 V2000
  184.3780  178.5440  144.2180 C   0  0  0  0  0  0  0  0  0  0  0  0
  184.6230  178.7070  141.7750 C   0  0  0  0  0  0  0  0  0  0  0  0
  186.5500  178.2620  143.1810 C   0  0  0  0  0  0  0  0  0  0  0  0
  188.5630  177.9830  141.9530 C   0  0  0  0  0  0  0  0  0  0  0  0
  182.4490  178.9910  142.8120 C   0  0  0  0  0  3  0  0  0  0  0  0
  183.2520  178.9500  141.6610 C   0  0  0  0  0  3  0  0  0  0  0  0
  186.7560  178.4120  140.8380 C   0  0  0  0  0  0  0  0  0  0  0  0
  185.1770  178.5070  143.0670 C   0  0  0  0  0  0  0  0  0  0  0  0
  188.9470  177.9940  140.6100 C   0  0  0  0  0  3  0  0  0  0  0  0
  183.0080  178.7880  144.0850 C   0  0  0  0  0  3  0  0  0  0  0  0
  187.1750  178.0490  144.4230 C   0  0  0  0  0  0  0  0  0  0  0  0
  184.9690  178.3290  145.4700 C   0  0  0  0  0  3  0  0  0  0  0  0
  185.4270  178.6530  140.6620 N   0  0  0  0  0  0  0  0  0  0  0  0
  189.3710  177.7000  143.1850 C   0  0  0  0  0  2  0  0  0  0  0  0
  188.5260  177.8010  144.4700 C   0  0  0  0  0  0  0  0  0  0  0  0
  187.7650  178.2870  139.9040 C   0  0  0  0  0  0  0  0  0  0  0  0
  187.2650  178.2300  142.0510 N   0  0  0  0  0  0  0  0  0  0  0  0
  186.3520  178.0820  145.5700 C   0  0  0  0  0  3  0  0  0  0  0  0
  191.1410  176.7020  147.0070 C   0  0  0  0  0  0  0  0  0  0  0  0
  190.5700  177.1600  148.1960 C   0  0  0  0  0  3  0  0  0  0  0  0
  189.2570  177.5950  145.7480 C   0  0  0  0  0  0  0  0  0  0  0  0
  189.3420  177.8260  148.1700 C   0  0  0  0  0  3  0  0  0  0  0  0
  190.4850  176.9130  145.7900 C   0  0  0  0  0  3  0  0  0  0  0  0
  188.6880  178.0380  146.9530 C   0  0  0  0  0  3  0  0  0  0  0  0
  192.3570  176.0350  147.0320 O   0  0  0  0  0  1  0  0  0  0  0  0
  187.6200  178.3580  138.4240 C   0  0  0  0  0  2  0  0  0  0  0  0
  188.9320  178.7930  137.7970 C   0  0  0  0  0  2  0  0  0  0  0  0
  191.0870  177.0090  138.3910 F   0  0  0  0  0  0  0  0  0  0  0  0
  189.4130  177.7520  136.8420 C   0  0  0  0  0  0  0  0  0  0  0  0
  190.4820  176.9060  137.1810 C   0  0  0  0  0  0  0  0  0  0  0  0
  190.3180  175.8350  135.0140 C   0  0  0  0  0  3  0  0  0  0  0  0
  189.2580  176.6790  134.6740 C   0  0  0  0  0  3  0  0  0  0  0  0
  188.8070  177.6380  135.5860 C   0  0  0  0  0  3  0  0  0  0  0  0
  190.9290  175.9490  136.2660 C   0  0  0  0  0  3  0  0  0  0  0  0
  1 12  1  0  0  0  0
  2  8  1  0  0  0  0
  3 11  1  0  0  0  0
  4 17  1  0  0  0  0
  4 14  1  0  0  0  0
  5 10  1  0  0  0  0
  6  2  1  0  0  0  0
  6  5  2  0  0  0  0
  7 17  1  0  0  0  0
  8  3  2  0  0  0  0
  8  1  1  0  0  0  0
  9  4  2  0  0  0  0
 10  1  2  0  0  0  0
 11 15  2  0  0  0  0
 11 18  1  0  0  0  0
 12 18  2  0  0  0  0
 13  7  1  0  0  0  0
 13  2  2  0  0  0  0
 14 15  1  0  0  0  0
 15 21  1  0  0  0  0
 16  9  1  0  0  0  0
 16  7  2  0  0  0  0
 17  3  1  0  0  0  0
 19 25  1  0  0  0  0
 19 20  1  0  0  0  0
 21 23  1  0  0  0  0
 21 24  2  0  0  0  0
 22 20  2  0  0  0  0
 23 19  2  0  0  0  0
 24 22  1  0  0  0  0
 26 16  1  0  0  0  0
 27 26  1  0  0  0  0
 29 30  1  0  0  0  0
 29 27  1  0  0  0  0
 30 28  1  0  0  0  0
 31 34  1  0  0  0  0
 32 31  2  0  0  0  0
 32 33  1  0  0  0  0
 33 29  2  0  0  0  0
 34 30  2  0  0  0  0
M  END
>  <MODEL>
9

>  <REMARK>
 VINA RESULT:     -10.9      2.793      5.667
  Name = 
  4 active torsions:
  status: ('A' for Active; 'I' for Inactive)
    1  A    between atoms: C_3  and  C_13
    2  A    between atoms: C_3  and  C_17
    3  A    between atoms: C_12  and  C_28
    4  A    between atoms: C_17  and  C_29
                            x       y       z     vdW  Elec       q    Type
                         _______ _______ _______ _____ _____    ______ ____

>  <TORSDO>
F 4

$$$$
