=
 OpenBabel10272415313D

 34 39  0  0  1  0  0  0  0  0999 V2000
  183.5220  179.1950  140.7830 C   0  0  1  0  0  3  0  0  0  0  0  0
  184.0180  178.8820  144.4720 C   0  0  0  0  0  3  0  0  0  0  0  0
  187.0930  177.0950  145.1830 C   0  0  0  0  0  2  0  0  0  0  0  0
  182.0080  178.8620  143.1500 C   0  0  0  0  0  3  0  0  0  0  0  0
  184.5590  178.4690  138.5000 C   0  0  2  0  0  3  0  0  0  0  0  0
  184.2520  179.5960  139.4910 C   0  0  0  0  0  2  0  0  0  0  0  0
  182.0540  177.1660  140.3450 N   0  0  0  0  0  2  0  0  0  0  0  0
  183.1830  176.6620  139.5620 C   0  0  0  0  0  2  0  0  0  0  0  0
  185.7560  179.0390  146.5300 S   0  0  0  0  0  0  0  0  0  0  0  0
  183.4120  177.4790  138.2990 C   0  0  0  0  0  2  0  0  0  0  0  0
  181.3670  178.8130  141.9720 C   0  0  0  0  0  0  0  0  0  0  0  0
  182.1050  178.6030  140.6710 C   0  0  1  0  0  3  0  0  0  0  0  0
  179.9820  178.9070  141.9520 O   0  0  0  0  0  1  0  0  0  0  0  0
  185.4830  178.9830  144.7360 C   0  0  1  0  0  3  0  0  0  0  0  0
  187.2430  178.0000  146.3890 C   0  0  0  0  0  2  0  0  0  0  0  0
  186.2240  177.8030  144.2150 C   0  0  0  0  0  0  0  0  0  0  0  0
  186.2470  177.4650  142.9270 C   0  0  0  0  0  3  0  0  0  0  0  0
  183.4810  178.7930  143.2550 C   0  0  0  0  0  0  0  0  0  0  0  0
  185.4450  178.0940  141.8620 C   0  0  0  0  0  3  0  0  0  0  0  0
  184.2730  178.7330  141.9970 C   0  0  0  0  0  0  0  0  0  0  0  0
  185.8920  177.7860  138.8020 C   0  0  0  0  0  2  0  0  0  0  0  0
  187.2600  178.2420  135.8620 O   0  0  0  0  0  1  0  0  0  0  0  0
  188.1050  178.8080  139.2480 N   0  0  0  0  0  2  0  0  0  0  0  0
  190.9470  176.3430  137.4340 C   0  0  0  0  0  0  0  0  0  0  0  0
  190.0300  177.0820  136.6760 O   0  0  0  0  0  0  0  0  0  0  0  0
  189.1950  178.1090  137.2250 C   0  0  2  0  0  3  0  0  0  0  0  0
  189.7870  177.0710  139.4600 C   0  0  0  0  0  2  0  0  0  0  0  0
  189.3870  178.3480  138.7220 C   0  0  2  0  0  3  0  0  0  0  0  0
  190.8950  176.3550  138.7620 C   0  0  0  0  0  3  0  0  0  0  0  0
  187.0950  178.5310  138.2240 C   0  0  1  0  0  3  0  0  0  0  0  0
  187.7420  177.7700  137.0830 C   0  0  1  0  0  3  0  0  0  0  0  0
  191.9920  175.5330  136.7430 C   0  0  0  0  0  2  0  0  0  0  0  0
  193.3280  175.6520  137.4580 C   0  0  0  0  0  2  0  0  0  0  0  0
  194.1830  176.6010  136.7650 N   0  0  0  0  0  1  0  0  0  0  0  0
  1  6  1  6  0  0  0
  1 20  1  0  0  0  0
  3 15  1  0  0  0  0
  4 18  1  0  0  0  0
  5 21  1  1  0  0  0
  5  6  1  0  0  0  0
  8  7  1  0  0  0  0
 10  5  1  0  0  0  0
 10  8  1  0  0  0  0
 11  4  2  0  0  0  0
 12  7  1  1  0  0  0
 12  1  1  0  0  0  0
 12 11  1  0  0  0  0
 13 11  1  0  0  0  0
 14  2  1  1  0  0  0
 14  9  1  0  0  0  0
 15  9  1  0  0  0  0
 16 14  1  0  0  0  0
 16  3  1  0  0  0  0
 17 16  2  0  0  0  0
 18  2  2  0  0  0  0
 19 20  2  0  0  0  0
 19 17  1  0  0  0  0
 20 18  1  0  0  0  0
 24 29  2  0  0  0  0
 25 24  1  0  0  0  0
 26 25  1  1  0  0  0
 26 28  1  0  0  0  0
 28 23  1  0  0  0  0
 28 27  1  1  0  0  0
 29 27  1  0  0  0  0
 30 21  1  1  0  0  0
 30 23  1  0  0  0  0
 31 22  1  6  0  0  0
 31 26  1  0  0  0  0
 31 30  1  0  0  0  0
 32 24  1  0  0  0  0
 32 33  1  0  0  0  0
 34 33  1  0  0  0  0
M  END
>  <MODEL>
1

>  <REMARK>
 VINA RESULT:      -8.6      0.000      0.000
  Name = 
  4 active torsions:
  status: ('A' for Active; 'I' for Inactive)
    1  A    between atoms: C_7  and  C_11
    2  A    between atoms: C_8  and  C_18
    3  A    between atoms: C_11  and  C_15
    4  A    between atoms: C_18  and  C_30
                            x       y       z     vdW  Elec       q    Type
                         _______ _______ _______ _____ _____    ______ ____

>  <TORSDO>
F 4

$$$$
=
 OpenBabel10272415313D

 34 39  0  0  1  0  0  0  0  0999 V2000
  189.8900  176.4080  143.8880 C   0  0  1  0  0  3  0  0  0  0  0  0
  187.2750  177.6140  146.2680 C   0  0  0  0  0  3  0  0  0  0  0  0
  184.7450  179.5180  144.4990 C   0  0  0  0  0  2  0  0  0  0  0  0
  189.6440  177.3120  146.5580 C   0  0  0  0  0  3  0  0  0  0  0  0
  190.6160  176.5520  141.3850 C   0  0  2  0  0  3  0  0  0  0  0  0
  190.0640  175.7020  142.5340 C   0  0  0  0  0  2  0  0  0  0  0  0
  191.6080  178.2690  144.1140 N   0  0  0  0  0  2  0  0  0  0  0  0
  191.3000  178.5660  142.7140 C   0  0  0  0  0  2  0  0  0  0  0  0
  184.6390  177.9640  146.7260 S   0  0  0  0  0  0  0  0  0  0  0  0
  191.7780  177.4640  141.7800 C   0  0  0  0  0  2  0  0  0  0  0  0
  190.8750  177.0710  146.0780 C   0  0  0  0  0  0  0  0  0  0  0  0
  191.1430  176.9560  144.5960 C   0  0  1  0  0  3  0  0  0  0  0  0
  191.9390  176.9760  146.9640 O   0  0  0  0  0  1  0  0  0  0  0  0
  185.9670  177.5790  145.5500 C   0  0  1  0  0  3  0  0  0  0  0  0
  183.7430  178.9350  145.4760 C   0  0  0  0  0  2  0  0  0  0  0  0
  185.9030  178.5950  144.4650 C   0  0  0  0  0  0  0  0  0  0  0  0
  186.7340  178.6080  143.4240 C   0  0  0  0  0  3  0  0  0  0  0  0
  188.4550  177.4030  145.6840 C   0  0  0  0  0  0  0  0  0  0  0  0
  187.9130  177.7380  143.2600 C   0  0  0  0  0  3  0  0  0  0  0  0
  188.6340  177.1530  144.2290 C   0  0  0  0  0  0  0  0  0  0  0  0
  189.5090  177.2880  140.6310 C   0  0  0  0  0  2  0  0  0  0  0  0
  187.9740  177.0250  137.7510 O   0  0  0  0  0  1  0  0  0  0  0  0
  191.2810  177.4920  138.9110 N   0  0  0  0  0  2  0  0  0  0  0  0
  191.0430  174.0610  136.5400 C   0  0  0  0  0  0  0  0  0  0  0  0
  190.0240  175.0220  136.5400 O   0  0  0  0  0  0  0  0  0  0  0  0
  190.1530  176.3130  137.1470 C   0  0  2  0  0  3  0  0  0  0  0  0
  192.1380  175.2920  138.3480 C   0  0  0  0  0  2  0  0  0  0  0  0
  191.5100  176.5730  137.8000 C   0  0  2  0  0  3  0  0  0  0  0  0
  192.0910  174.1840  137.3490 C   0  0  0  0  0  3  0  0  0  0  0  0
  189.8360  177.5180  139.1560 C   0  0  1  0  0  3  0  0  0  0  0  0
  189.1630  176.5000  138.2570 C   0  0  1  0  0  3  0  0  0  0  0  0
  190.9520  172.8880  135.6240 C   0  0  0  0  0  2  0  0  0  0  0  0
  191.7420  173.1350  134.3490 C   0  0  0  0  0  2  0  0  0  0  0  0
  192.9990  172.4080  134.3900 N   0  0  0  0  0  1  0  0  0  0  0  0
  1  6  1  6  0  0  0
  1 20  1  0  0  0  0
  1 12  1  0  0  0  0
  3 15  1  0  0  0  0
  5 21  1  1  0  0  0
  5 10  1  0  0  0  0
  5  6  1  0  0  0  0
  8  7  1  0  0  0  0
 10  8  1  0  0  0  0
 11  4  2  0  0  0  0
 11 13  1  0  0  0  0
 12  7  1  6  0  0  0
 12 11  1  0  0  0  0
 14  2  1  1  0  0  0
 14  9  1  0  0  0  0
 15  9  1  0  0  0  0
 16  3  1  0  0  0  0
 16 14  1  0  0  0  0
 17 16  2  0  0  0  0
 18  2  2  0  0  0  0
 18  4  1  0  0  0  0
 19 17  1  0  0  0  0
 19 20  2  0  0  0  0
 20 18  1  0  0  0  0
 23 30  1  0  0  0  0
 24 29  2  0  0  0  0
 25 24  1  0  0  0  0
 26 25  1  1  0  0  0
 26 28  1  0  0  0  0
 26 31  1  0  0  0  0
 28 27  1  1  0  0  0
 28 23  1  0  0  0  0
 29 27  1  0  0  0  0
 30 21  1  1  0  0  0
 31 22  1  6  0  0  0
 31 30  1  0  0  0  0
 32 24  1  0  0  0  0
 33 34  1  0  0  0  0
 33 32  1  0  0  0  0
M  END
>  <MODEL>
2

>  <REMARK>
 VINA RESULT:      -8.2      3.621      5.805
  Name = 
  4 active torsions:
  status: ('A' for Active; 'I' for Inactive)
    1  A    between atoms: C_7  and  C_11
    2  A    between atoms: C_8  and  C_18
    3  A    between atoms: C_11  and  C_15
    4  A    between atoms: C_18  and  C_30
                            x       y       z     vdW  Elec       q    Type
                         _______ _______ _______ _____ _____    ______ ____

>  <TORSDO>
F 4

$$$$
=
 OpenBabel10272415313D

 34 39  0  0  1  0  0  0  0  0999 V2000
  183.5380  179.2480  140.7260 C   0  0  1  0  0  3  0  0  0  0  0  0
  183.9520  178.8630  144.4190 C   0  0  0  0  0  3  0  0  0  0  0  0
  187.0830  177.1920  145.1680 C   0  0  0  0  0  2  0  0  0  0  0  0
  181.9800  178.7900  143.0430 C   0  0  0  0  0  3  0  0  0  0  0  0
  184.6640  178.6250  138.4550 C   0  0  2  0  0  3  0  0  0  0  0  0
  184.2830  179.7130  139.4650 C   0  0  0  0  0  2  0  0  0  0  0  0
  182.1710  177.1700  140.2000 N   0  0  0  0  0  2  0  0  0  0  0  0
  183.3410  176.7340  139.4360 C   0  0  0  0  0  2  0  0  0  0  0  0
  185.6280  179.0430  146.5260 S   0  0  0  0  0  0  0  0  0  0  0  0
  183.5670  177.5920  138.2000 C   0  0  0  0  0  2  0  0  0  0  0  0
  181.3710  178.7440  141.8470 C   0  0  0  0  0  0  0  0  0  0  0  0
  182.1510  178.5980  140.5620 C   0  0  1  0  0  3  0  0  0  0  0  0
  179.9850  178.7790  141.7930 O   0  0  0  0  0  1  0  0  0  0  0  0
  185.4040  179.0200  144.7250 C   0  0  1  0  0  3  0  0  0  0  0  0
  187.1610  178.0720  146.4000 C   0  0  0  0  0  2  0  0  0  0  0  0
  186.2080  177.8870  144.1950 C   0  0  0  0  0  0  0  0  0  0  0  0
  186.2800  177.5820  142.9000 C   0  0  0  0  0  3  0  0  0  0  0  0
  183.4510  178.7820  143.1860 C   0  0  0  0  0  0  0  0  0  0  0  0
  185.4780  178.2040  141.8300 C   0  0  0  0  0  3  0  0  0  0  0  0
  184.2760  178.7880  141.9480 C   0  0  0  0  0  0  0  0  0  0  0  0
  186.0180  177.9920  138.7760 C   0  0  0  0  0  2  0  0  0  0  0  0
  186.6830  177.6000  135.5940 O   0  0  0  0  0  1  0  0  0  0  0  0
  188.3690  178.7220  138.4920 N   0  0  0  0  0  2  0  0  0  0  0  0
  190.4150  175.5120  136.7710 C   0  0  0  0  0  0  0  0  0  0  0  0
  189.4280  176.2120  136.0670 O   0  0  0  0  0  0  0  0  0  0  0  0
  188.8620  177.4500  136.5140 C   0  0  2  0  0  3  0  0  0  0  0  0
  189.8570  176.8230  138.7600 C   0  0  0  0  0  2  0  0  0  0  0  0
  189.4310  177.9640  137.8370 C   0  0  2  0  0  3  0  0  0  0  0  0
  190.6840  175.8110  138.0380 C   0  0  0  0  0  3  0  0  0  0  0  0
  187.1190  178.4000  137.7980 C   0  0  1  0  0  3  0  0  0  0  0  0
  187.3900  177.3240  136.7650 C   0  0  1  0  0  3  0  0  0  0  0  0
  191.1710  174.4200  136.0940 C   0  0  0  0  0  2  0  0  0  0  0  0
  190.3530  173.8170  134.9630 C   0  0  0  0  0  2  0  0  0  0  0  0
  190.0960  172.4120  135.2270 N   0  0  0  0  0  1  0  0  0  0  0  0
  1  6  1  6  0  0  0
  1 20  1  0  0  0  0
  3 15  1  0  0  0  0
  4 18  1  0  0  0  0
  5 21  1  1  0  0  0
  5  6  1  0  0  0  0
  8  7  1  0  0  0  0
 10  5  1  0  0  0  0
 10  8  1  0  0  0  0
 11  4  2  0  0  0  0
 12  7  1  1  0  0  0
 12  1  1  0  0  0  0
 12 11  1  0  0  0  0
 13 11  1  0  0  0  0
 14  2  1  1  0  0  0
 14  9  1  0  0  0  0
 15  9  1  0  0  0  0
 16 14  1  0  0  0  0
 16  3  1  0  0  0  0
 17 16  2  0  0  0  0
 18  2  2  0  0  0  0
 19 20  2  0  0  0  0
 19 17  1  0  0  0  0
 20 18  1  0  0  0  0
 24 29  2  0  0  0  0
 25 24  1  0  0  0  0
 26 25  1  1  0  0  0
 26 31  1  0  0  0  0
 26 28  1  0  0  0  0
 28 23  1  0  0  0  0
 28 27  1  1  0  0  0
 29 27  1  0  0  0  0
 30 23  1  0  0  0  0
 30 21  1  1  0  0  0
 31 22  1  6  0  0  0
 31 30  1  0  0  0  0
 32 24  1  0  0  0  0
 33 34  1  0  0  0  0
 33 32  1  0  0  0  0
M  END
>  <MODEL>
3

>  <REMARK>
 VINA RESULT:      -8.0      1.283      1.396
  Name = 
  4 active torsions:
  status: ('A' for Active; 'I' for Inactive)
    1  A    between atoms: C_7  and  C_11
    2  A    between atoms: C_8  and  C_18
    3  A    between atoms: C_11  and  C_15
    4  A    between atoms: C_18  and  C_30
                            x       y       z     vdW  Elec       q    Type
                         _______ _______ _______ _____ _____    ______ ____

>  <TORSDO>
F 4

$$$$
=
 OpenBabel10272415313D

 34 39  0  0  1  0  0  0  0  0999 V2000
  188.7960  176.3540  137.9410 C   0  0  1  0  0  3  0  0  0  0  0  0
  191.1640  176.6190  140.8170 C   0  0  0  0  0  3  0  0  0  0  0  0
  189.6830  178.5700  143.4930 C   0  0  0  0  0  2  0  0  0  0  0  0
  191.5720  176.5480  138.4480 C   0  0  0  0  0  3  0  0  0  0  0  0
  186.4640  177.1880  137.1130 C   0  0  2  0  0  3  0  0  0  0  0  0
  187.3340  176.0250  137.6010 C   0  0  0  0  0  2  0  0  0  0  0  0
  189.5910  178.3020  136.5120 N   0  0  0  0  0  2  0  0  0  0  0  0
  188.2780  178.8890  136.7850 C   0  0  0  0  0  2  0  0  0  0  0  0
  191.4690  176.5220  143.4970 S   0  0  0  0  0  0  0  0  0  0  0  0
  187.1560  178.1130  136.1110 C   0  0  0  0  0  2  0  0  0  0  0  0
  191.1540  176.5840  137.1730 C   0  0  0  0  0  0  0  0  0  0  0  0
  189.7140  176.8650  136.8140 C   0  0  1  0  0  3  0  0  0  0  0  0
  192.0800  176.4090  136.1530 O   0  0  0  0  0  1  0  0  0  0  0  0
  190.3510  176.6000  142.0690 C   0  0  1  0  0  3  0  0  0  0  0  0
  190.4100  177.6500  144.4540 C   0  0  0  0  0  2  0  0  0  0  0  0
  189.5320  177.8320  142.2180 C   0  0  0  0  0  0  0  0  0  0  0  0
  188.5950  178.1980  141.3440 C   0  0  0  0  0  3  0  0  0  0  0  0
  190.6480  176.7020  139.5910 C   0  0  0  0  0  0  0  0  0  0  0  0
  188.3320  177.5450  140.0490 C   0  0  0  0  0  3  0  0  0  0  0  0
  189.1940  176.8350  139.3050 C   0  0  0  0  0  0  0  0  0  0  0  0
  185.8130  177.9430  138.2720 C   0  0  0  0  0  2  0  0  0  0  0  0
  184.1040  180.6460  138.9780 O   0  0  0  0  0  1  0  0  0  0  0  0
  183.5180  177.5180  137.4380 N   0  0  0  0  0  2  0  0  0  0  0  0
  180.9500  178.0400  140.6910 C   0  0  0  0  0  0  0  0  0  0  0  0
  181.6550  179.1150  140.1350 O   0  0  0  0  0  0  0  0  0  0  0  0
  182.3610  179.0410  138.8910 C   0  0  2  0  0  3  0  0  0  0  0  0
  182.1720  176.5330  139.2010 C   0  0  0  0  0  2  0  0  0  0  0  0
  182.2830  177.6810  138.1990 C   0  0  2  0  0  3  0  0  0  0  0  0
  181.1310  176.8040  140.2360 C   0  0  0  0  0  3  0  0  0  0  0  0
  184.4540  178.5420  137.9110 C   0  0  1  0  0  3  0  0  0  0  0  0
  183.8290  179.2820  139.0770 C   0  0  1  0  0  3  0  0  0  0  0  0
  179.9890  178.2840  141.8040 C   0  0  0  0  0  2  0  0  0  0  0  0
  180.6200  179.1480  142.8840 C   0  0  0  0  0  2  0  0  0  0  0  0
  180.0710  180.4920  142.8340 N   0  0  0  0  0  1  0  0  0  0  0  0
  1  6  1  6  0  0  0
  1 20  1  0  0  0  0
  3 15  1  0  0  0  0
  4 18  1  0  0  0  0
  5  6  1  0  0  0  0
  5 21  1  1  0  0  0
  7  8  1  0  0  0  0
  9 15  1  0  0  0  0
 10  8  1  0  0  0  0
 10  5  1  0  0  0  0
 11  4  2  0  0  0  0
 12  7  1  1  0  0  0
 12 11  1  0  0  0  0
 12  1  1  0  0  0  0
 13 11  1  0  0  0  0
 14  2  1  6  0  0  0
 14 16  1  0  0  0  0
 14  9  1  0  0  0  0
 16  3  1  0  0  0  0
 17 16  2  0  0  0  0
 18  2  2  0  0  0  0
 19 17  1  0  0  0  0
 20 18  1  0  0  0  0
 20 19  2  0  0  0  0
 23 30  1  0  0  0  0
 23 28  1  0  0  0  0
 24 32  1  0  0  0  0
 25 24  1  0  0  0  0
 26 31  1  0  0  0  0
 26 25  1  1  0  0  0
 27 29  1  0  0  0  0
 28 26  1  0  0  0  0
 28 27  1  1  0  0  0
 29 24  2  0  0  0  0
 30 21  1  1  0  0  0
 30 31  1  0  0  0  0
 31 22  1  6  0  0  0
 32 33  1  0  0  0  0
 34 33  1  0  0  0  0
M  END
>  <MODEL>
4

>  <REMARK>
 VINA RESULT:      -7.5      2.794      8.046
  Name = 
  4 active torsions:
  status: ('A' for Active; 'I' for Inactive)
    1  A    between atoms: C_7  and  C_11
    2  A    between atoms: C_8  and  C_18
    3  A    between atoms: C_11  and  C_15
    4  A    between atoms: C_18  and  C_30
                            x       y       z     vdW  Elec       q    Type
                         _______ _______ _______ _____ _____    ______ ____

>  <TORSDO>
F 4

$$$$
=
 OpenBabel10272415313D

 34 39  0  0  1  0  0  0  0  0999 V2000
  188.2930  178.6680  138.6130 C   0  0  1  0  0  3  0  0  0  0  0  0
  188.4280  178.4080  142.3370 C   0  0  0  0  0  3  0  0  0  0  0  0
  191.0400  176.1010  143.3450 C   0  0  0  0  0  2  0  0  0  0  0  0
  186.5620  178.7160  140.8510 C   0  0  0  0  0  3  0  0  0  0  0  0
  189.3490  177.6730  136.4430 C   0  0  2  0  0  3  0  0  0  0  0  0
  189.1860  178.8740  137.3790 C   0  0  0  0  0  2  0  0  0  0  0  0
  186.5030  176.9370  138.0980 N   0  0  0  0  0  2  0  0  0  0  0  0
  187.5730  176.1990  137.4250 C   0  0  0  0  0  2  0  0  0  0  0  0
  189.9970  178.3130  144.5310 S   0  0  0  0  0  0  0  0  0  0  0  0
  188.0520  176.9100  136.1680 C   0  0  0  0  0  2  0  0  0  0  0  0
  186.0180  178.7450  139.6240 C   0  0  0  0  0  0  0  0  0  0  0  0
  186.8020  178.3490  138.3950 C   0  0  1  0  0  3  0  0  0  0  0  0
  184.6830  179.0980  139.4860 O   0  0  0  0  0  1  0  0  0  0  0  0
  189.8610  178.2400  142.7220 C   0  0  1  0  0  3  0  0  0  0  0  0
  191.2640  177.0070  144.5390 C   0  0  0  0  0  2  0  0  0  0  0  0
  190.4010  176.9230  142.2920 C   0  0  0  0  0  0  0  0  0  0  0  0
  190.4600  176.5370  141.0180 C   0  0  0  0  0  3  0  0  0  0  0  0
  187.9820  178.3750  141.0820 C   0  0  0  0  0  0  0  0  0  0  0  0
  189.8790  177.2660  139.8750 C   0  0  0  0  0  3  0  0  0  0  0  0
  188.8430  178.1190  139.8960 C   0  0  0  0  0  0  0  0  0  0  0  0
  190.4990  176.7620  136.8720 C   0  0  0  0  0  2  0  0  0  0  0  0
  190.0910  173.5480  137.3470 O   0  0  0  0  0  1  0  0  0  0  0  0
  191.4190  175.6670  134.8480 N   0  0  0  0  0  2  0  0  0  0  0  0
  194.3280  172.9740  136.1660 C   0  0  0  0  0  0  0  0  0  0  0  0
  192.9700  172.7800  136.4490 O   0  0  0  0  0  0  0  0  0  0  0  0
  191.9170  173.5350  135.8350 C   0  0  2  0  0  3  0  0  0  0  0  0
  193.7650  175.1450  135.1900 C   0  0  0  0  0  2  0  0  0  0  0  0
  192.3920  174.5790  134.8260 C   0  0  2  0  0  3  0  0  0  0  0  0
  194.7370  174.0620  135.5210 C   0  0  0  0  0  3  0  0  0  0  0  0
  190.5920  175.4810  136.0430 C   0  0  1  0  0  3  0  0  0  0  0  0
  191.1410  174.3200  136.8490 C   0  0  1  0  0  3  0  0  0  0  0  0
  195.3240  171.9500  136.5930 C   0  0  0  0  0  2  0  0  0  0  0  0
  196.1890  172.4780  137.7260 C   0  0  0  0  0  2  0  0  0  0  0  0
  195.3570  172.8800  138.8460 N   0  0  0  0  0  1  0  0  0  0  0  0
  1  6  1  6  0  0  0
  1 20  1  0  0  0  0
  3 15  1  0  0  0  0
  4 18  1  0  0  0  0
  5 21  1  1  0  0  0
  5  6  1  0  0  0  0
  8  7  1  0  0  0  0
  9 15  1  0  0  0  0
 10  5  1  0  0  0  0
 10  8  1  0  0  0  0
 11  4  2  0  0  0  0
 12  7  1  1  0  0  0
 12  1  1  0  0  0  0
 12 11  1  0  0  0  0
 13 11  1  0  0  0  0
 14  2  1  1  0  0  0
 14  9  1  0  0  0  0
 16 14  1  0  0  0  0
 16  3  1  0  0  0  0
 17 16  2  0  0  0  0
 18  2  2  0  0  0  0
 19 20  2  0  0  0  0
 19 17  1  0  0  0  0
 20 18  1  0  0  0  0
 23 30  1  0  0  0  0
 24 25  1  0  0  0  0
 24 32  1  0  0  0  0
 26 25  1  1  0  0  0
 26 31  1  0  0  0  0
 27 29  1  0  0  0  0
 28 23  1  0  0  0  0
 28 27  1  1  0  0  0
 28 26  1  0  0  0  0
 29 24  2  0  0  0  0
 30 31  1  0  0  0  0
 30 21  1  1  0  0  0
 31 22  1  6  0  0  0
 32 33  1  0  0  0  0
 33 34  1  0  0  0  0
M  END
>  <MODEL>
5

>  <REMARK>
 VINA RESULT:      -7.3      3.236      5.139
  Name = 
  4 active torsions:
  status: ('A' for Active; 'I' for Inactive)
    1  A    between atoms: C_7  and  C_11
    2  A    between atoms: C_8  and  C_18
    3  A    between atoms: C_11  and  C_15
    4  A    between atoms: C_18  and  C_30
                            x       y       z     vdW  Elec       q    Type
                         _______ _______ _______ _____ _____    ______ ____

>  <TORSDO>
F 4

$$$$
=
 OpenBabel10272415313D

 34 39  0  0  1  0  0  0  0  0999 V2000
  189.1090  176.8530  143.9230 C   0  0  1  0  0  3  0  0  0  0  0  0
  185.5480  177.9660  143.7450 C   0  0  0  0  0  3  0  0  0  0  0  0
  184.8830  179.5570  140.5540 C   0  0  0  0  0  2  0  0  0  0  0  0
  187.0750  177.8760  145.6020 C   0  0  0  0  0  3  0  0  0  0  0  0
  191.3540  176.9210  142.5920 C   0  0  2  0  0  3  0  0  0  0  0  0
  190.1830  176.0920  143.1290 C   0  0  0  0  0  2  0  0  0  0  0  0
  190.1580  178.8590  145.0810 N   0  0  0  0  0  2  0  0  0  0  0  0
  190.8910  179.0530  143.8290 C   0  0  0  0  0  2  0  0  0  0  0  0
  183.3110  178.1210  142.2430 S   0  0  0  0  0  0  0  0  0  0  0  0
  191.9050  177.9460  143.5840 C   0  0  0  0  0  2  0  0  0  0  0  0
  188.3030  177.7120  146.1180 C   0  0  0  0  0  0  0  0  0  0  0  0
  189.5190  177.5400  145.2390 C   0  0  1  0  0  3  0  0  0  0  0  0
  188.4680  177.7530  147.4950 O   0  0  0  0  0  1  0  0  0  0  0  0
  185.0930  177.7850  142.3350 C   0  0  1  0  0  3  0  0  0  0  0  0
  183.4970  178.9470  140.6330 C   0  0  0  0  0  2  0  0  0  0  0  0
  185.7680  178.7320  141.4080 C   0  0  0  0  0  0  0  0  0  0  0  0
  187.0870  178.7570  141.2210 C   0  0  0  0  0  3  0  0  0  0  0  0
  186.8100  177.8220  144.1490 C   0  0  0  0  0  0  0  0  0  0  0  0
  188.0750  177.9800  141.9900 C   0  0  0  0  0  3  0  0  0  0  0  0
  187.9460  177.5090  143.2400 C   0  0  0  0  0  0  0  0  0  0  0  0
  191.0510  177.5220  141.2190 C   0  0  0  0  0  2  0  0  0  0  0  0
  192.8470  177.0410  138.5230 O   0  0  0  0  0  1  0  0  0  0  0  0
  189.8760  175.7530  139.9420 N   0  0  0  0  0  2  0  0  0  0  0  0
  189.1110  177.3280  136.1490 C   0  0  0  0  0  0  0  0  0  0  0  0
  190.4160  177.0600  136.5800 O   0  0  0  0  0  0  0  0  0  0  0  0
  190.7220  176.3140  137.7650 C   0  0  2  0  0  3  0  0  0  0  0  0
  188.3070  176.7650  138.3890 C   0  0  0  0  0  2  0  0  0  0  0  0
  189.4980  175.8170  138.5330 C   0  0  2  0  0  3  0  0  0  0  0  0
  188.0770  177.1490  136.9660 C   0  0  0  0  0  3  0  0  0  0  0  0
  191.1290  176.4990  140.0860 C   0  0  1  0  0  3  0  0  0  0  0  0
  191.4760  177.1450  138.7590 C   0  0  1  0  0  3  0  0  0  0  0  0
  188.8790  177.8210  134.7610 C   0  0  0  0  0  2  0  0  0  0  0  0
  187.4330  177.6040  134.3460 C   0  0  0  0  0  2  0  0  0  0  0  0
  186.7090  178.8630  134.3750 N   0  0  0  0  0  1  0  0  0  0  0  0
  1  6  1  6  0  0  0
  1 12  1  0  0  0  0
  2 18  2  0  0  0  0
  3 15  1  0  0  0  0
  3 16  1  0  0  0  0
  4 11  2  0  0  0  0
  5 21  1  6  0  0  0
  5  6  1  0  0  0  0
  5 10  1  0  0  0  0
  8  7  1  0  0  0  0
  9 14  1  0  0  0  0
 10  8  1  0  0  0  0
 11 13  1  0  0  0  0
 12  7  1  6  0  0  0
 12 11  1  0  0  0  0
 14  2  1  1  0  0  0
 15  9  1  0  0  0  0
 16 14  1  0  0  0  0
 17 16  2  0  0  0  0
 17 19  1  0  0  0  0
 18  4  1  0  0  0  0
 19 20  2  0  0  0  0
 20  1  1  0  0  0  0
 20 18  1  0  0  0  0
 23 30  1  0  0  0  0
 24 25  1  0  0  0  0
 24 29  2  0  0  0  0
 26 25  1  6  0  0  0
 26 28  1  0  0  0  0
 26 31  1  0  0  0  0
 28 27  1  1  0  0  0
 28 23  1  0  0  0  0
 29 27  1  0  0  0  0
 30 21  1  1  0  0  0
 31 22  1  6  0  0  0
 31 30  1  0  0  0  0
 32 24  1  0  0  0  0
 33 34  1  0  0  0  0
 33 32  1  0  0  0  0
M  END
>  <MODEL>
6

>  <REMARK>
 VINA RESULT:      -7.2      3.184      5.912
  Name = 
  4 active torsions:
  status: ('A' for Active; 'I' for Inactive)
    1  A    between atoms: C_7  and  C_11
    2  A    between atoms: C_8  and  C_18
    3  A    between atoms: C_11  and  C_15
    4  A    between atoms: C_18  and  C_30
                            x       y       z     vdW  Elec       q    Type
                         _______ _______ _______ _____ _____    ______ ____

>  <TORSDO>
F 4

$$$$
=
 OpenBabel10272415313D

 34 39  0  0  1  0  0  0  0  0999 V2000
  188.5970  176.3430  137.7730 C   0  0  1  0  0  3  0  0  0  0  0  0
  191.0100  176.6210  140.6110 C   0  0  0  0  0  3  0  0  0  0  0  0
  189.6180  178.6840  143.2510 C   0  0  0  0  0  2  0  0  0  0  0  0
  191.3840  176.4750  138.2390 C   0  0  0  0  0  3  0  0  0  0  0  0
  186.2780  177.2170  136.9530 C   0  0  2  0  0  3  0  0  0  0  0  0
  187.1220  176.0440  137.4610 C   0  0  0  0  0  2  0  0  0  0  0  0
  189.4250  178.2290  136.2820 N   0  0  0  0  0  2  0  0  0  0  0  0
  188.1330  178.8580  136.5550 C   0  0  0  0  0  2  0  0  0  0  0  0
  191.3480  176.5890  143.2890 S   0  0  0  0  0  0  0  0  0  0  0  0
  186.9810  178.0950  135.9170 C   0  0  0  0  0  2  0  0  0  0  0  0
  190.9500  176.4870  136.9690 C   0  0  0  0  0  0  0  0  0  0  0  0
  189.5140  176.7970  136.6220 C   0  0  1  0  0  3  0  0  0  0  0  0
  191.8570  176.2590  135.9440 O   0  0  0  0  0  1  0  0  0  0  0  0
  190.2130  176.6580  141.8730 C   0  0  1  0  0  3  0  0  0  0  0  0
  190.3330  177.7710  144.2270 C   0  0  0  0  0  2  0  0  0  0  0  0
  189.4300  177.9160  141.9980 C   0  0  0  0  0  0  0  0  0  0  0  0
  188.4920  178.2840  141.1260 C   0  0  0  0  0  3  0  0  0  0  0  0
  190.4800  176.6850  139.3900 C   0  0  0  0  0  0  0  0  0  0  0  0
  188.1940  177.6030  139.8530 C   0  0  0  0  0  3  0  0  0  0  0  0
  189.0260  176.8500  139.1180 C   0  0  0  0  0  0  0  0  0  0  0  0
  185.6630  178.0210  138.0980 C   0  0  0  0  0  2  0  0  0  0  0  0
  183.1490  176.8150  136.3810 O   0  0  0  0  0  1  0  0  0  0  0  0
  183.6510  178.4260  139.4870 N   0  0  0  0  0  2  0  0  0  0  0  0
  180.9910  180.6170  137.1260 C   0  0  0  0  0  0  0  0  0  0  0  0
  181.3150  179.2890  136.8230 O   0  0  0  0  0  0  0  0  0  0  0  0
  182.0310  178.4250  137.7140 C   0  0  2  0  0  3  0  0  0  0  0  0
  182.6680  180.5690  138.9060 C   0  0  0  0  0  2  0  0  0  0  0  0
  182.4160  179.0670  139.0460 C   0  0  2  0  0  3  0  0  0  0  0  0
  181.5760  181.2420  138.1440 C   0  0  0  0  0  3  0  0  0  0  0  0
  184.1890  177.6920  138.3390 C   0  0  1  0  0  3  0  0  0  0  0  0
  183.3350  177.9820  137.1210 C   0  0  1  0  0  3  0  0  0  0  0  0
  179.9820  181.3390  136.2990 C   0  0  0  0  0  2  0  0  0  0  0  0
  180.2240  182.8390  136.3390 C   0  0  0  0  0  2  0  0  0  0  0  0
  180.7730  183.2910  135.0720 N   0  0  0  0  0  1  0  0  0  0  0  0
  1  6  1  6  0  0  0
  1 20  1  0  0  0  0
  3 15  1  0  0  0  0
  4 18  1  0  0  0  0
  5  6  1  0  0  0  0
  5 21  1  1  0  0  0
  7  8  1  0  0  0  0
  9 15  1  0  0  0  0
 10  8  1  0  0  0  0
 10  5  1  0  0  0  0
 11  4  2  0  0  0  0
 12  7  1  1  0  0  0
 12 11  1  0  0  0  0
 12  1  1  0  0  0  0
 13 11  1  0  0  0  0
 14  2  1  6  0  0  0
 14 16  1  0  0  0  0
 14  9  1  0  0  0  0
 16  3  1  0  0  0  0
 17 16  2  0  0  0  0
 18  2  2  0  0  0  0
 19 17  1  0  0  0  0
 20 18  1  0  0  0  0
 20 19  2  0  0  0  0
 24 29  2  0  0  0  0
 25 24  1  0  0  0  0
 26 25  1  6  0  0  0
 26 28  1  0  0  0  0
 28 27  1  6  0  0  0
 28 23  1  0  0  0  0
 29 27  1  0  0  0  0
 30 21  1  6  0  0  0
 30 23  1  0  0  0  0
 31 22  1  1  0  0  0
 31 26  1  0  0  0  0
 31 30  1  0  0  0  0
 32 33  1  0  0  0  0
 32 24  1  0  0  0  0
 34 33  1  0  0  0  0
M  END
>  <MODEL>
7

>  <REMARK>
 VINA RESULT:      -6.8      3.247      8.032
  Name = 
  4 active torsions:
  status: ('A' for Active; 'I' for Inactive)
    1  A    between atoms: C_7  and  C_11
    2  A    between atoms: C_8  and  C_18
    3  A    between atoms: C_11  and  C_15
    4  A    between atoms: C_18  and  C_30
                            x       y       z     vdW  Elec       q    Type
                         _______ _______ _______ _____ _____    ______ ____

>  <TORSDO>
F 4

$$$$
=
 OpenBabel10272415313D

 34 39  0  0  1  0  0  0  0  0999 V2000
  184.9800  175.9160  136.5240 C   0  0  1  0  0  3  0  0  0  0  0  0
  183.7390  172.5950  135.3480 C   0  0  0  0  0  3  0  0  0  0  0  0
  186.5280  170.4310  134.5110 C   0  0  0  0  0  2  0  0  0  0  0  0
  182.8270  174.8030  135.0650 C   0  0  0  0  0  3  0  0  0  0  0  0
  187.1740  177.2940  136.8490 C   0  0  2  0  0  3  0  0  0  0  0  0
  185.9890  176.5610  137.4870 C   0  0  0  0  0  2  0  0  0  0  0  0
  184.9130  177.2270  134.3460 N   0  0  0  0  0  2  0  0  0  0  0  0
  186.3700  177.2910  134.4730 C   0  0  0  0  0  2  0  0  0  0  0  0
  184.0340  169.9150  135.4580 S   0  0  0  0  0  0  0  0  0  0  0  0
  186.8020  178.1600  135.6450 C   0  0  0  0  0  2  0  0  0  0  0  0
  182.9130  176.1400  135.1520 C   0  0  0  0  0  0  0  0  0  0  0  0
  184.1910  176.8300  135.5680 C   0  0  1  0  0  3  0  0  0  0  0  0
  181.8150  176.9120  134.8010 O   0  0  0  0  0  1  0  0  0  0  0  0
  184.7010  171.5610  135.8310 C   0  0  1  0  0  3  0  0  0  0  0  0
  185.6860  169.2840  135.0330 C   0  0  0  0  0  2  0  0  0  0  0  0
  186.0180  171.6670  135.1490 C   0  0  0  0  0  0  0  0  0  0  0  0
  186.7930  172.7490  135.2180 C   0  0  0  0  0  3  0  0  0  0  0  0
  183.9420  173.9090  135.4420 C   0  0  0  0  0  0  0  0  0  0  0  0
  186.4150  174.0340  135.8340 C   0  0  0  0  0  3  0  0  0  0  0  0
  185.1770  174.5250  135.9990 C   0  0  0  0  0  0  0  0  0  0  0  0
  188.3470  176.3550  136.5700 C   0  0  0  0  0  2  0  0  0  0  0  0
  190.9120  174.8750  137.9670 O   0  0  0  0  0  1  0  0  0  0  0  0
  189.5400  178.1300  137.8210 N   0  0  0  0  0  2  0  0  0  0  0  0
  189.7900  176.8340  141.7850 C   0  0  0  0  0  0  0  0  0  0  0  0
  190.4860  176.1840  140.7570 O   0  0  0  0  0  0  0  0  0  0  0  0
  190.6210  176.7150  139.4330 C   0  0  2  0  0  3  0  0  0  0  0  0
  188.7050  178.2340  140.0980 C   0  0  0  0  0  2  0  0  0  0  0  0
  189.9470  178.0690  139.2220 C   0  0  2  0  0  3  0  0  0  0  0  0
  188.9750  177.8490  141.5140 C   0  0  0  0  0  3  0  0  0  0  0  0
  189.6320  176.7690  137.2870 C   0  0  1  0  0  3  0  0  0  0  0  0
  189.9870  175.8180  138.4140 C   0  0  1  0  0  3  0  0  0  0  0  0
  189.9660  176.3830  143.1950 C   0  0  0  0  0  2  0  0  0  0  0  0
  191.4370  176.3610  143.5760 C   0  0  0  0  0  2  0  0  0  0  0  0
  191.5900  176.6170  144.9980 N   0  0  0  0  0  1  0  0  0  0  0  0
  1  6  1  6  0  0  0
  2 18  2  0  0  0  0
  3 15  1  0  0  0  0
  3 16  1  0  0  0  0
  4 11  2  0  0  0  0
  4 18  1  0  0  0  0
  5 21  1  6  0  0  0
  5  6  1  0  0  0  0
  7  8  1  0  0  0  0
  8 10  1  0  0  0  0
  9 14  1  0  0  0  0
 10  5  1  0  0  0  0
 11 12  1  0  0  0  0
 12  7  1  6  0  0  0
 12  1  1  0  0  0  0
 13 11  1  0  0  0  0
 14  2  1  6  0  0  0
 15  9  1  0  0  0  0
 16 17  2  0  0  0  0
 16 14  1  0  0  0  0
 17 19  1  0  0  0  0
 18 20  1  0  0  0  0
 19 20  2  0  0  0  0
 20  1  1  0  0  0  0
 23 28  1  0  0  0  0
 24 32  1  0  0  0  0
 25 24  1  0  0  0  0
 26 25  1  1  0  0  0
 27 29  1  0  0  0  0
 28 26  1  0  0  0  0
 28 27  1  1  0  0  0
 29 24  2  0  0  0  0
 30 21  1  1  0  0  0
 30 23  1  0  0  0  0
 30 31  1  0  0  0  0
 31 22  1  6  0  0  0
 31 26  1  0  0  0  0
 32 33  1  0  0  0  0
 33 34  1  0  0  0  0
M  END
>  <MODEL>
8

>  <REMARK>
 VINA RESULT:      -6.4      4.907      7.496
  Name = 
  4 active torsions:
  status: ('A' for Active; 'I' for Inactive)
    1  A    between atoms: C_7  and  C_11
    2  A    between atoms: C_8  and  C_18
    3  A    between atoms: C_11  and  C_15
    4  A    between atoms: C_18  and  C_30
                            x       y       z     vdW  Elec       q    Type
                         _______ _______ _______ _____ _____    ______ ____

>  <TORSDO>
F 4

$$$$
=
 OpenBabel10272415313D

 34 39  0  0  1  0  0  0  0  0999 V2000
  189.3110  178.4310  142.4510 C   0  0  1  0  0  3  0  0  0  0  0  0
  191.8730  176.8420  140.2460 C   0  0  0  0  0  3  0  0  0  0  0  0
  190.3170  175.5500  137.2350 C   0  0  0  0  0  2  0  0  0  0  0  0
  191.7060  176.9370  142.6440 C   0  0  0  0  0  3  0  0  0  0  0  0
  186.7410  178.8430  142.6520 C   0  0  2  0  0  3  0  0  0  0  0  0
  188.1400  179.4260  142.4270 C   0  0  0  0  0  2  0  0  0  0  0  0
  188.7470  176.4780  143.9790 N   0  0  0  0  0  2  0  0  0  0  0  0
  187.4170  176.5380  143.3740 C   0  0  0  0  0  2  0  0  0  0  0  0
  192.8000  176.5380  137.7300 S   0  0  0  0  0  0  0  0  0  0  0  0
  186.6660  177.8010  143.7690 C   0  0  0  0  0  2  0  0  0  0  0  0
  191.0370  177.2170  143.7740 C   0  0  0  0  0  0  0  0  0  0  0  0
  189.5950  177.6630  143.7560 C   0  0  1  0  0  3  0  0  0  0  0  0
  191.6730  177.0410  144.9960 O   0  0  0  0  0  1  0  0  0  0  0  0
  191.4790  177.1160  138.8330 C   0  0  1  0  0  3  0  0  0  0  0  0
  191.5900  175.9390  136.5100 C   0  0  0  0  0  2  0  0  0  0  0  0
  190.2380  176.3900  138.4520 C   0  0  0  0  0  0  0  0  0  0  0  0
  189.0660  176.5780  139.0560 C   0  0  0  0  0  3  0  0  0  0  0  0
  191.1110  177.1200  141.3030 C   0  0  0  0  0  0  0  0  0  0  0  0
  188.8470  177.3970  140.2630 C   0  0  0  0  0  3  0  0  0  0  0  0
  189.7420  177.6960  141.2160 C   0  0  0  0  0  0  0  0  0  0  0  0
  186.1000  178.3670  141.3480 C   0  0  0  0  0  2  0  0  0  0  0  0
  183.0680  178.7890  142.5080 O   0  0  0  0  0  1  0  0  0  0  0  0
  184.8570  179.5380  139.5520 N   0  0  0  0  0  2  0  0  0  0  0  0
  181.5230  177.1790  138.6750 C   0  0  0  0  0  0  0  0  0  0  0  0
  181.6540  177.8310  139.9070 O   0  0  0  0  0  0  0  0  0  0  0  0
  182.6490  178.8270  140.1750 C   0  0  2  0  0  3  0  0  0  0  0  0
  183.7840  177.9140  138.1010 C   0  0  0  0  0  2  0  0  0  0  0  0
  183.5690  179.1350  138.9950 C   0  0  2  0  0  3  0  0  0  0  0  0
  182.4950  177.2400  137.7690 C   0  0  0  0  0  3  0  0  0  0  0  0
  184.8500  179.1610  140.9680 C   0  0  1  0  0  3  0  0  0  0  0  0
  183.5770  178.3960  141.2700 C   0  0  1  0  0  3  0  0  0  0  0  0
  180.2830  176.4060  138.3760 C   0  0  0  0  0  2  0  0  0  0  0  0
  180.4410  174.9510  138.7860 C   0  0  0  0  0  2  0  0  0  0  0  0
  180.1030  174.7860  140.1890 N   0  0  0  0  0  1  0  0  0  0  0  0
  1  6  1  6  0  0  0
  1 12  1  0  0  0  0
  2 18  2  0  0  0  0
  3 16  1  0  0  0  0
  4 11  2  0  0  0  0
  5 21  1  6  0  0  0
  5 10  1  0  0  0  0
  6  5  1  0  0  0  0
  8 10  1  0  0  0  0
  8  7  1  0  0  0  0
  9 14  1  0  0  0  0
 11 13  1  0  0  0  0
 12 11  1  6  0  0  0
 12  7  1  0  0  0  0
 14  2  1  1  0  0  0
 15  3  1  0  0  0  0
 15  9  1  0  0  0  0
 16 14  1  0  0  0  0
 16 17  2  0  0  0  0
 17 19  1  0  0  0  0
 18  4  1  0  0  0  0
 19 20  2  0  0  0  0
 20 18  1  0  0  0  0
 20  1  1  0  0  0  0
 23 30  1  0  0  0  0
 24 25  1  0  0  0  0
 26 25  1  6  0  0  0
 26 31  1  0  0  0  0
 28 27  1  6  0  0  0
 28 23  1  0  0  0  0
 28 26  1  0  0  0  0
 29 27  1  0  0  0  0
 29 24  2  0  0  0  0
 30 31  1  0  0  0  0
 30 21  1  6  0  0  0
 31 22  1  1  0  0  0
 32 24  1  0  0  0  0
 32 33  1  0  0  0  0
 33 34  1  0  0  0  0
M  END
>  <MODEL>
9

>  <REMARK>
 VINA RESULT:      -6.4      3.631      8.264
  Name = 
  4 active torsions:
  status: ('A' for Active; 'I' for Inactive)
    1  A    between atoms: C_7  and  C_11
    2  A    between atoms: C_8  and  C_18
    3  A    between atoms: C_11  and  C_15
    4  A    between atoms: C_18  and  C_30
                            x       y       z     vdW  Elec       q    Type
                         _______ _______ _______ _____ _____    ______ ____

>  <TORSDO>
F 4

$$$$
