=
 OpenBabel10272413273D

 32 36  0  0  1  0  0  0  0  0999 V2000
  191.4650  176.1670  137.6430 C   0  0  1  0  0  3  0  0  0  0  0  0
  188.2360  176.9740  138.9690 C   0  0  2  0  0  3  0  0  0  0  0  0
  191.2110  176.1600  143.3360 C   0  0  0  0  0  2  0  0  0  0  0  0
  190.1580  175.2590  142.6650 C   0  0  0  0  0  2  0  0  0  0  0  0
  189.1250  177.0850  137.7350 C   0  0  1  0  0  0  0  0  0  0  0  0
  190.9510  178.0240  139.1060 O   0  0  0  0  0  0  0  0  0  0  0  0
  192.9350  176.5300  137.5630 C   0  0  0  0  0  1  0  0  0  0  0  0
  191.5600  177.3820  142.5220 C   0  0  0  0  0  3  0  0  0  0  0  0
  190.2830  177.6940  140.2790 C   0  0  0  0  0  0  0  0  0  0  0  0
  190.9630  177.6110  141.3850 C   0  0  0  0  0  0  0  0  0  0  0  0
  187.9450  177.5340  141.3600 C   0  0  2  0  0  3  0  0  0  0  0  0
  189.5880  175.0190  136.3940 C   0  0  1  0  0  3  0  0  0  0  0  0
  190.6180  177.4280  137.8570 C   0  0  1  0  0  3  0  0  0  0  0  0
  188.6890  176.2440  136.5430 C   0  0  0  0  0  2  0  0  0  0  0  0
  191.0620  175.4390  136.3600 C   0  0  0  0  0  2  0  0  0  0  0  0
  188.7180  175.6820  142.9660 C   0  0  0  0  0  2  0  0  0  0  0  0
  188.4650  177.1730  142.7560 C   0  0  0  0  0  2  0  0  0  0  0  0
  188.1640  178.2020  138.0580 C   0  0  0  0  0  2  0  0  0  0  0  0
  188.8820  177.3340  140.2360 N   0  0  0  0  0  0  0  0  0  0  0  0
  189.3460  174.1020  137.4580 O   0  0  0  0  0  0  0  0  0  0  0  0
  188.3340  173.1390  137.4170 C   0  0  0  0  0  0  0  0  0  0  0  0
  186.8920  173.5190  137.3860 C   0  0  0  0  0  1  0  0  0  0  0  0
  188.6460  171.9200  137.4140 O   0  0  0  0  0  0  0  0  0  0  0  0
  187.3360  178.9410  141.3460 C   0  0  0  0  0  2  0  0  0  0  0  0
  185.5130  178.9810  143.0650 C   0  0  0  0  0  3  0  0  0  0  0  0
  184.1610  178.9640  143.4190 C   0  0  0  0  0  0  0  0  0  0  0  0
  183.5490  178.9130  141.0770 C   0  0  0  0  0  3  0  0  0  0  0  0
  183.1790  178.9300  142.4250 C   0  0  0  0  0  3  0  0  0  0  0  0
  184.9020  178.9270  140.7230 C   0  0  0  0  0  3  0  0  0  0  0  0
  185.8870  178.9600  141.7160 C   0  0  0  0  0  0  0  0  0  0  0  0
  183.7840  178.9750  144.8030 C   0  0  0  0  0  0  0  0  0  0  0  0
  183.4790  178.9830  145.9210 N   0  0  0  0  0  0  0  0  0  0  0  0
  1  7  1  6  0  0  0
  1 13  1  0  0  0  0
  2 18  1  6  0  0  0
  2 19  1  0  0  0  0
  4 16  1  0  0  0  0
  4  3  1  0  0  0  0
  5 14  1  6  0  0  0
  5 13  1  0  0  0  0
  5 18  1  0  0  0  0
  5  2  1  0  0  0  0
  6  9  1  0  0  0  0
  8  3  1  0  0  0  0
  9 10  2  0  0  0  0
 10  8  2  0  0  0  0
 11 24  1  1  0  0  0
 11 17  1  0  0  0  0
 12 14  1  0  0  0  0
 12 20  1  1  0  0  0
 13  6  1  1  0  0  0
 15 12  1  0  0  0  0
 15  1  1  0  0  0  0
 17 16  1  0  0  0  0
 19  9  1  0  0  0  0
 19 11  1  0  0  0  0
 21 20  1  0  0  0  0
 22 21  1  0  0  0  0
 23 21  2  0  0  0  0
 24 30  1  0  0  0  0
 25 26  1  0  0  0  0
 26 31  1  0  0  0  0
 27 28  1  0  0  0  0
 28 26  2  0  0  0  0
 29 27  2  0  0  0  0
 29 30  1  0  0  0  0
 30 25  2  0  0  0  0
 31 32  3  0  0  0  0
M  END
>  <MODEL>
1

>  <REMARK>
 VINA RESULT:      -5.8      0.000      0.000
  Name = 
  5 active torsions:
  status: ('A' for Active; 'I' for Inactive)
    1  A    between atoms: C_1  and  O_17
    2  A    between atoms: C_7  and  C_22
    3  A    between atoms: C_16  and  C_27
    4  A    between atoms: O_17  and  C_19
    5  A    between atoms: C_27  and  C_32
                            x       y       z     vdW  Elec       q    Type
                         _______ _______ _______ _____ _____    ______ ____

>  <TORSDO>
F 5

$$$$
=
 OpenBabel10272413273D

 32 36  0  0  1  0  0  0  0  0999 V2000
  188.7970  177.1430  137.0720 C   0  0  1  0  0  3  0  0  0  0  0  0
  186.2190  177.5540  139.5260 C   0  0  2  0  0  3  0  0  0  0  0  0
  190.6390  176.8850  142.4580 C   0  0  0  0  0  2  0  0  0  0  0  0
  189.4930  175.9050  142.1450 C   0  0  0  0  0  2  0  0  0  0  0  0
  186.5840  177.8070  138.0670 C   0  0  1  0  0  0  0  0  0  0  0  0
  188.6990  178.8770  138.7560 O   0  0  0  0  0  0  0  0  0  0  0  0
  190.1010  177.6620  136.4960 C   0  0  0  0  0  1  0  0  0  0  0  0
  190.5640  178.1680  141.6670 C   0  0  0  0  0  3  0  0  0  0  0  0
  188.5350  178.4330  140.0620 C   0  0  0  0  0  0  0  0  0  0  0  0
  189.5760  178.3780  140.8410 C   0  0  0  0  0  0  0  0  0  0  0  0
  186.7740  177.9860  141.8960 C   0  0  2  0  0  3  0  0  0  0  0  0
  186.6970  175.8550  136.4980 C   0  0  1  0  0  3  0  0  0  0  0  0
  187.9850  178.3000  137.6690 C   0  0  1  0  0  3  0  0  0  0  0  0
  185.8150  176.9720  137.0520 C   0  0  0  0  0  2  0  0  0  0  0  0
  188.0160  176.4290  135.9680 C   0  0  0  0  0  2  0  0  0  0  0  0
  188.2320  176.1630  142.9740 C   0  0  0  0  0  2  0  0  0  0  0  0
  187.7970  177.6260  142.9810 C   0  0  0  0  0  2  0  0  0  0  0  0
  185.7180  178.8030  138.7960 C   0  0  0  0  0  2  0  0  0  0  0  0
  187.2510  177.9300  140.4980 N   0  0  0  0  0  0  0  0  0  0  0  0
  186.9360  174.8770  137.5060 O   0  0  0  0  0  0  0  0  0  0  0  0
  186.5250  173.5470  137.3890 C   0  0  0  0  0  0  0  0  0  0  0  0
  185.1250  173.1300  137.6920 C   0  0  0  0  0  1  0  0  0  0  0  0
  187.3570  172.6760  137.0260 O   0  0  0  0  0  0  0  0  0  0  0  0
  186.0880  179.3200  142.2070 C   0  0  0  0  0  2  0  0  0  0  0  0
  183.6200  178.9040  142.0740 C   0  0  0  0  0  3  0  0  0  0  0  0
  182.3620  178.7860  142.6720 C   0  0  0  0  0  0  0  0  0  0  0  0
  183.3610  179.1650  144.8450 C   0  0  0  0  0  3  0  0  0  0  0  0
  182.2330  178.9160  144.0570 C   0  0  0  0  0  3  0  0  0  0  0  0
  184.6190  179.2870  144.2460 C   0  0  0  0  0  3  0  0  0  0  0  0
  184.7510  179.1580  142.8580 C   0  0  0  0  0  0  0  0  0  0  0  0
  181.2050  178.5370  141.8620 C   0  0  0  0  0  0  0  0  0  0  0  0
  180.2700  178.3370  141.2080 N   0  0  0  0  0  0  0  0  0  0  0  0
  1  7  1  6  0  0  0
  1 13  1  0  0  0  0
  2 18  1  1  0  0  0
  2 19  1  0  0  0  0
  4  3  1  0  0  0  0
  4 16  1  0  0  0  0
  5 14  1  6  0  0  0
  5 18  1  0  0  0  0
  5  2  1  0  0  0  0
  6  9  1  0  0  0  0
  8  3  1  0  0  0  0
  9 19  1  0  0  0  0
  9 10  2  0  0  0  0
 10  8  2  0  0  0  0
 11 24  1  1  0  0  0
 11 17  1  0  0  0  0
 12 14  1  0  0  0  0
 12 20  1  1  0  0  0
 13  5  1  0  0  0  0
 13  6  1  1  0  0  0
 15 12  1  0  0  0  0
 15  1  1  0  0  0  0
 16 17  1  0  0  0  0
 19 11  1  0  0  0  0
 21 20  1  0  0  0  0
 21 22  1  0  0  0  0
 23 21  2  0  0  0  0
 24 30  1  0  0  0  0
 25 26  2  0  0  0  0
 25 30  1  0  0  0  0
 26 28  1  0  0  0  0
 28 27  2  0  0  0  0
 29 27  1  0  0  0  0
 30 29  2  0  0  0  0
 31 26  1  0  0  0  0
 32 31  3  0  0  0  0
M  END
>  <MODEL>
2

>  <REMARK>
 VINA RESULT:      -5.6      1.808      2.533
  Name = 
  5 active torsions:
  status: ('A' for Active; 'I' for Inactive)
    1  A    between atoms: C_1  and  O_17
    2  A    between atoms: C_7  and  C_22
    3  A    between atoms: C_16  and  C_27
    4  A    between atoms: O_17  and  C_19
    5  A    between atoms: C_27  and  C_32
                            x       y       z     vdW  Elec       q    Type
                         _______ _______ _______ _____ _____    ______ ____

>  <TORSDO>
F 5

$$$$
=
 OpenBabel10272413273D

 32 36  0  0  1  0  0  0  0  0999 V2000
  188.3510  178.0240  137.6890 C   0  0  1  0  0  3  0  0  0  0  0  0
  190.6180  175.2620  137.4240 C   0  0  2  0  0  3  0  0  0  0  0  0
  185.9080  173.1510  136.0300 C   0  0  0  0  0  2  0  0  0  0  0  0
  186.7040  173.0320  137.3430 C   0  0  0  0  0  2  0  0  0  0  0  0
  190.5280  176.7840  137.4570 C   0  0  1  0  0  0  0  0  0  0  0  0
  188.8070  176.7450  135.6870 O   0  0  0  0  0  0  0  0  0  0  0  0
  187.3620  178.9310  136.9830 C   0  0  0  0  0  1  0  0  0  0  0  0
  186.4860  174.1590  135.0670 C   0  0  0  0  0  3  0  0  0  0  0  0
  188.6650  175.3680  135.8120 C   0  0  0  0  0  0  0  0  0  0  0  0
  187.5780  174.8070  135.3660 C   0  0  0  0  0  0  0  0  0  0  0  0
  189.9590  173.1810  136.2630 C   0  0  2  0  0  3  0  0  0  0  0  0
  189.9740  177.9110  139.6270 C   0  0  1  0  0  3  0  0  0  0  0  0
  189.4180  177.5340  136.7020 C   0  0  1  0  0  3  0  0  0  0  0  0
  191.0980  177.4410  138.7070 C   0  0  0  0  0  2  0  0  0  0  0  0
  188.9820  178.7880  138.8540 C   0  0  0  0  0  2  0  0  0  0  0  0
  187.8750  172.0490  137.2550 C   0  0  0  0  0  2  0  0  0  0  0  0
  188.7560  172.2600  136.0260 C   0  0  0  0  0  2  0  0  0  0  0  0
  191.5780  176.1240  136.5990 C   0  0  0  0  0  2  0  0  0  0  0  0
  189.6570  174.6020  136.5340 N   0  0  0  0  0  0  0  0  0  0  0  0
  189.3140  176.7870  140.2050 O   0  0  0  0  0  0  0  0  0  0  0  0
  189.2650  176.5610  141.5830 C   0  0  0  0  0  0  0  0  0  0  0  0
  188.2420  177.2190  142.4480 C   0  0  0  0  0  1  0  0  0  0  0  0
  190.1070  175.7890  142.1100 O   0  0  0  0  0  0  0  0  0  0  0  0
  190.9990  173.0260  135.1480 C   0  0  0  0  0  2  0  0  0  0  0  0
  193.0350  172.8230  136.5960 C   0  0  0  0  0  3  0  0  0  0  0  0
  194.2010  172.1580  136.9840 C   0  0  0  0  0  0  0  0  0  0  0  0
  193.7530  170.4200  135.3590 C   0  0  0  0  0  3  0  0  0  0  0  0
  194.5600  170.9570  136.3660 C   0  0  0  0  0  3  0  0  0  0  0  0
  192.5870  171.0870  134.9680 C   0  0  0  0  0  3  0  0  0  0  0  0
  192.2260  172.2910  135.5850 C   0  0  0  0  0  0  0  0  0  0  0  0
  195.0330  172.7140  138.0130 C   0  0  0  0  0  0  0  0  0  0  0  0
  195.7040  173.1630  138.8440 N   0  0  0  0  0  0  0  0  0  0  0  0
  1  7  1  6  0  0  0
  1 15  1  0  0  0  0
  2 18  1  6  0  0  0
  2  5  1  0  0  0  0
  3  4  1  0  0  0  0
  5 18  1  6  0  0  0
  5 14  1  0  0  0  0
  6  9  1  0  0  0  0
  8 10  2  0  0  0  0
  8  3  1  0  0  0  0
  9 19  1  0  0  0  0
 10  9  2  0  0  0  0
 11 24  1  6  0  0  0
 11 19  1  0  0  0  0
 12 20  1  6  0  0  0
 13  6  1  6  0  0  0
 13  5  1  0  0  0  0
 13  1  1  0  0  0  0
 14 12  1  0  0  0  0
 15 12  1  0  0  0  0
 16  4  1  0  0  0  0
 17 11  1  0  0  0  0
 17 16  1  0  0  0  0
 19  2  1  0  0  0  0
 20 21  1  0  0  0  0
 21 23  2  0  0  0  0
 21 22  1  0  0  0  0
 24 30  1  0  0  0  0
 25 26  1  0  0  0  0
 26 31  1  0  0  0  0
 27 28  1  0  0  0  0
 28 26  2  0  0  0  0
 29 27  2  0  0  0  0
 29 30  1  0  0  0  0
 30 25  2  0  0  0  0
 31 32  3  0  0  0  0
M  END
>  <MODEL>
3

>  <REMARK>
 VINA RESULT:      -5.5      3.520      8.568
  Name = 
  5 active torsions:
  status: ('A' for Active; 'I' for Inactive)
    1  A    between atoms: C_1  and  O_17
    2  A    between atoms: C_7  and  C_22
    3  A    between atoms: C_16  and  C_27
    4  A    between atoms: O_17  and  C_19
    5  A    between atoms: C_27  and  C_32
                            x       y       z     vdW  Elec       q    Type
                         _______ _______ _______ _____ _____    ______ ____

>  <TORSDO>
F 5

$$$$
=
 OpenBabel10272413273D

 32 36  0  0  1  0  0  0  0  0999 V2000
  186.2860  177.5480  135.7100 C   0  0  1  0  0  3  0  0  0  0  0  0
  187.8780  176.9850  138.8700 C   0  0  2  0  0  3  0  0  0  0  0  0
  191.3970  175.0550  135.3370 C   0  0  0  0  0  2  0  0  0  0  0  0
  190.4130  174.3210  136.2660 C   0  0  0  0  0  2  0  0  0  0  0  0
  186.8070  177.8040  138.1580 C   0  0  1  0  0  0  0  0  0  0  0  0
  188.4240  178.4410  136.4050 O   0  0  0  0  0  0  0  0  0  0  0  0
  186.3520  178.2220  134.3530 C   0  0  0  0  0  1  0  0  0  0  0  0
  191.1990  176.5510  135.3170 C   0  0  0  0  0  3  0  0  0  0  0  0
  189.3410  177.5050  136.8670 C   0  0  0  0  0  0  0  0  0  0  0  0
  190.2880  177.1080  136.0670 C   0  0  0  0  0  0  0  0  0  0  0  0
  190.2750  176.3920  139.0000 C   0  0  2  0  0  3  0  0  0  0  0  0
  184.6860  176.6650  137.4590 C   0  0  1  0  0  3  0  0  0  0  0  0
  187.0450  178.3790  136.7520 C   0  0  1  0  0  3  0  0  0  0  0  0
  185.3730  177.4790  138.5530 C   0  0  0  0  0  2  0  0  0  0  0  0
  184.8190  177.3690  136.1040 C   0  0  0  0  0  2  0  0  0  0  0  0
  190.8900  174.2500  137.7190 C   0  0  0  0  0  2  0  0  0  0  0  0
  191.3620  175.5930  138.2720 C   0  0  0  0  0  2  0  0  0  0  0  0
  187.6020  178.4360  139.2720 C   0  0  0  0  0  2  0  0  0  0  0  0
  189.1640  176.9010  138.1690 N   0  0  0  0  0  0  0  0  0  0  0  0
  185.2410  175.3520  137.4060 O   0  0  0  0  0  0  0  0  0  0  0  0
  184.4590  174.2000  137.2980 C   0  0  0  0  0  0  0  0  0  0  0  0
  184.9600  172.8690  137.7510 C   0  0  0  0  0  1  0  0  0  0  0  0
  183.3070  174.2820  136.8000 O   0  0  0  0  0  0  0  0  0  0  0  0
  190.8910  177.5000  139.8630 C   0  0  0  0  0  2  0  0  0  0  0  0
  189.4680  177.3040  141.9160 C   0  0  0  0  0  3  0  0  0  0  0  0
  189.3220  177.1130  143.2930 C   0  0  0  0  0  0  0  0  0  0  0  0
  191.7160  176.8180  143.5050 C   0  0  0  0  0  3  0  0  0  0  0  0
  190.4450  176.8700  144.0870 C   0  0  0  0  0  3  0  0  0  0  0  0
  191.8620  177.0130  142.1280 C   0  0  0  0  0  3  0  0  0  0  0  0
  190.7380  177.2570  141.3310 C   0  0  0  0  0  0  0  0  0  0  0  0
  188.0180  177.1730  143.8900 C   0  0  0  0  0  0  0  0  0  0  0  0
  186.9660  177.2230  144.3710 N   0  0  0  0  0  0  0  0  0  0  0  0
  1  7  1  6  0  0  0
  1 15  1  0  0  0  0
  1 13  1  0  0  0  0
  2 18  1  1  0  0  0
  3  4  1  0  0  0  0
  4 16  1  0  0  0  0
  5 14  1  1  0  0  0
  5  2  1  0  0  0  0
  5 18  1  0  0  0  0
  6  9  1  0  0  0  0
  8  3  1  0  0  0  0
  8 10  2  0  0  0  0
  9 19  1  0  0  0  0
 10  9  2  0  0  0  0
 11 24  1  6  0  0  0
 12 20  1  6  0  0  0
 12 14  1  0  0  0  0
 13  6  1  6  0  0  0
 13  5  1  0  0  0  0
 15 12  1  0  0  0  0
 16 17  1  0  0  0  0
 17 11  1  0  0  0  0
 19  2  1  0  0  0  0
 19 11  1  0  0  0  0
 21 20  1  0  0  0  0
 21 22  1  0  0  0  0
 23 21  2  0  0  0  0
 24 30  1  0  0  0  0
 25 26  1  0  0  0  0
 26 31  1  0  0  0  0
 26 28  2  0  0  0  0
 27 28  1  0  0  0  0
 29 27  2  0  0  0  0
 30 25  2  0  0  0  0
 30 29  1  0  0  0  0
 31 32  3  0  0  0  0
M  END
>  <MODEL>
4

>  <REMARK>
 VINA RESULT:      -5.5      2.631      5.285
  Name = 
  5 active torsions:
  status: ('A' for Active; 'I' for Inactive)
    1  A    between atoms: C_1  and  O_17
    2  A    between atoms: C_7  and  C_22
    3  A    between atoms: C_16  and  C_27
    4  A    between atoms: O_17  and  C_19
    5  A    between atoms: C_27  and  C_32
                            x       y       z     vdW  Elec       q    Type
                         _______ _______ _______ _____ _____    ______ ____

>  <TORSDO>
F 5

$$$$
=
 OpenBabel10272413273D

 32 36  0  0  1  0  0  0  0  0999 V2000
  186.4140  178.0100  138.8880 C   0  0  1  0  0  3  0  0  0  0  0  0
  189.4090  176.4400  137.7030 C   0  0  2  0  0  3  0  0  0  0  0  0
  185.5980  172.8560  136.5980 C   0  0  0  0  0  2  0  0  0  0  0  0
  186.6500  172.8780  137.7220 C   0  0  0  0  0  2  0  0  0  0  0  0
  188.7840  177.7800  138.0750 C   0  0  1  0  0  0  0  0  0  0  0  0
  186.8510  177.3140  136.6120 O   0  0  0  0  0  0  0  0  0  0  0  0
  185.0350  178.5410  138.5480 C   0  0  0  0  0  1  0  0  0  0  0  0
  185.5470  174.1360  135.8000 C   0  0  0  0  0  3  0  0  0  0  0  0
  187.2470  175.9910  136.4580 C   0  0  0  0  0  0  0  0  0  0  0  0
  186.3670  175.1150  136.0670 C   0  0  0  0  0  0  0  0  0  0  0  0
  189.3090  174.4560  136.2310 C   0  0  2  0  0  3  0  0  0  0  0  0
  188.3500  178.2760  140.4940 C   0  0  1  0  0  3  0  0  0  0  0  0
  187.3420  178.1280  137.6720 C   0  0  1  0  0  3  0  0  0  0  0  0
  189.3380  178.4250  139.3390 C   0  0  0  0  0  2  0  0  0  0  0  0
  186.9650  178.7880  140.0830 C   0  0  0  0  0  2  0  0  0  0  0  0
  188.0470  172.4630  137.2530 C   0  0  0  0  0  2  0  0  0  0  0  0
  188.5000  173.1770  135.9820 C   0  0  0  0  0  2  0  0  0  0  0  0
  189.7860  177.7190  136.9510 C   0  0  0  0  0  2  0  0  0  0  0  0
  188.5810  175.5860  136.8430 N   0  0  0  0  0  0  0  0  0  0  0  0
  188.2860  176.9130  140.9080 O   0  0  0  0  0  0  0  0  0  0  0  0
  188.9820  176.4210  142.0150 C   0  0  0  0  0  0  0  0  0  0  0  0
  188.3140  176.2230  143.3350 C   0  0  0  0  0  1  0  0  0  0  0  0
  190.2030  176.1430  141.9000 O   0  0  0  0  0  0  0  0  0  0  0  0
  190.0640  174.8850  134.9680 C   0  0  0  0  0  2  0  0  0  0  0  0
  192.3900  175.7900  135.1960 C   0  0  0  0  0  3  0  0  0  0  0  0
  193.7750  175.6100  135.2540 C   0  0  0  0  0  0  0  0  0  0  0  0
  193.4720  173.2150  135.0640 C   0  0  0  0  0  3  0  0  0  0  0  0
  194.3160  174.3240  135.1880 C   0  0  0  0  0  3  0  0  0  0  0  0
  192.0870  173.3950  135.0030 C   0  0  0  0  0  3  0  0  0  0  0  0
  191.5430  174.6830  135.0670 C   0  0  0  0  0  0  0  0  0  0  0  0
  194.6390  176.7490  135.3740 C   0  0  0  0  0  0  0  0  0  0  0  0
  195.3370  177.6690  135.4700 N   0  0  0  0  0  0  0  0  0  0  0  0
  1  7  1  6  0  0  0
  1 15  1  0  0  0  0
  2 18  1  6  0  0  0
  2  5  1  0  0  0  0
  3  4  1  0  0  0  0
  5 18  1  6  0  0  0
  5 14  1  0  0  0  0
  8 10  2  0  0  0  0
  8  3  1  0  0  0  0
  9  6  1  0  0  0  0
  9 19  1  0  0  0  0
 10  9  2  0  0  0  0
 11 24  1  6  0  0  0
 11 19  1  0  0  0  0
 12 20  1  6  0  0  0
 13  6  1  6  0  0  0
 13  5  1  0  0  0  0
 13  1  1  0  0  0  0
 14 12  1  0  0  0  0
 15 12  1  0  0  0  0
 16  4  1  0  0  0  0
 17 11  1  0  0  0  0
 17 16  1  0  0  0  0
 19  2  1  0  0  0  0
 20 21  1  0  0  0  0
 21 22  1  0  0  0  0
 23 21  2  0  0  0  0
 24 30  1  0  0  0  0
 25 26  1  0  0  0  0
 26 31  1  0  0  0  0
 27 28  1  0  0  0  0
 28 26  2  0  0  0  0
 29 27  2  0  0  0  0
 29 30  1  0  0  0  0
 30 25  2  0  0  0  0
 31 32  3  0  0  0  0
M  END
>  <MODEL>
5

>  <REMARK>
 VINA RESULT:      -5.2      3.282      8.323
  Name = 
  5 active torsions:
  status: ('A' for Active; 'I' for Inactive)
    1  A    between atoms: C_1  and  O_17
    2  A    between atoms: C_7  and  C_22
    3  A    between atoms: C_16  and  C_27
    4  A    between atoms: O_17  and  C_19
    5  A    between atoms: C_27  and  C_32
                            x       y       z     vdW  Elec       q    Type
                         _______ _______ _______ _____ _____    ______ ____

>  <TORSDO>
F 5

$$$$
=
 OpenBabel10272413273D

 32 36  0  0  1  0  0  0  0  0999 V2000
  182.6740  178.8510  138.5440 C   0  0  1  0  0  3  0  0  0  0  0  0
  185.4630  177.8550  140.5610 C   0  0  2  0  0  3  0  0  0  0  0  0
  187.1680  177.0070  135.5650 C   0  0  0  0  0  2  0  0  0  0  0  0
  186.6800  176.0120  136.6330 C   0  0  0  0  0  2  0  0  0  0  0  0
  184.1830  178.6830  140.5500 C   0  0  1  0  0  0  0  0  0  0  0  0
  184.8960  179.8060  138.4700 O   0  0  0  0  0  0  0  0  0  0  0  0
  182.1510  179.7760  137.4630 C   0  0  0  0  0  1  0  0  0  0  0  0
  186.9650  178.4510  135.9530 C   0  0  0  0  0  3  0  0  0  0  0  0
  185.9320  178.8960  138.2970 C   0  0  0  0  0  0  0  0  0  0  0  0
  186.4530  178.7580  137.1130 C   0  0  0  0  0  0  0  0  0  0  0  0
  187.6950  177.4940  139.5580 C   0  0  2  0  0  3  0  0  0  0  0  0
  181.9780  177.4900  140.5600 C   0  0  1  0  0  3  0  0  0  0  0  0
  183.7960  179.5380  139.3330 C   0  0  1  0  0  3  0  0  0  0  0  0
  183.0560  178.1450  141.4220 C   0  0  0  0  0  2  0  0  0  0  0  0
  181.5160  178.4520  139.4590 C   0  0  0  0  0  2  0  0  0  0  0  0
  187.7300  175.7120  137.7070 C   0  0  0  0  0  2  0  0  0  0  0  0
  188.3770  176.9640  138.2920 C   0  0  0  0  0  2  0  0  0  0  0  0
  185.3690  179.1670  141.3450 C   0  0  0  0  0  2  0  0  0  0  0  0
  186.3310  178.0380  139.3920 N   0  0  0  0  0  0  0  0  0  0  0  0
  182.4720  176.2760  140.0000 O   0  0  0  0  0  0  0  0  0  0  0  0
  181.6980  175.4430  139.1880 C   0  0  0  0  0  0  0  0  0  0  0  0
  182.1380  175.0600  137.8140 C   0  0  0  0  0  1  0  0  0  0  0  0
  180.5990  175.0100  139.6210 O   0  0  0  0  0  0  0  0  0  0  0  0
  188.6070  178.4720  140.3070 C   0  0  0  0  0  2  0  0  0  0  0  0
  188.5280  177.9800  142.7630 C   0  0  0  0  0  3  0  0  0  0  0  0
  189.1010  177.4650  143.9300 C   0  0  0  0  0  0  0  0  0  0  0  0
  191.0370  176.7520  142.6630 C   0  0  0  0  0  3  0  0  0  0  0  0
  190.3550  176.8520  143.8790 C   0  0  0  0  0  3  0  0  0  0  0  0
  190.4650  177.2700  141.4970 C   0  0  0  0  0  3  0  0  0  0  0  0
  189.2090  177.8860  141.5450 C   0  0  0  0  0  0  0  0  0  0  0  0
  188.4030  177.5750  145.1790 C   0  0  0  0  0  0  0  0  0  0  0  0
  187.8390  177.6630  146.1870 N   0  0  0  0  0  0  0  0  0  0  0  0
  1  7  1  6  0  0  0
  1 13  1  0  0  0  0
  1 15  1  0  0  0  0
  2 18  1  1  0  0  0
  3  8  1  0  0  0  0
  3  4  1  0  0  0  0
  4 16  1  0  0  0  0
  5  2  1  0  0  0  0
  5 18  1  1  0  0  0
  5 14  1  0  0  0  0
  8 10  2  0  0  0  0
  9  6  1  0  0  0  0
  9 19  1  0  0  0  0
 10  9  2  0  0  0  0
 11 24  1  6  0  0  0
 12 20  1  6  0  0  0
 12 14  1  0  0  0  0
 13  6  1  6  0  0  0
 13  5  1  0  0  0  0
 15 12  1  0  0  0  0
 16 17  1  0  0  0  0
 17 11  1  0  0  0  0
 19 11  1  0  0  0  0
 19  2  1  0  0  0  0
 21 23  2  0  0  0  0
 21 20  1  0  0  0  0
 22 21  1  0  0  0  0
 24 30  1  0  0  0  0
 25 26  1  0  0  0  0
 26 31  1  0  0  0  0
 27 28  1  0  0  0  0
 28 26  2  0  0  0  0
 29 30  1  0  0  0  0
 29 27  2  0  0  0  0
 30 25  2  0  0  0  0
 31 32  3  0  0  0  0
M  END
>  <MODEL>
6

>  <REMARK>
 VINA RESULT:      -5.2      3.236      6.625
  Name = 
  5 active torsions:
  status: ('A' for Active; 'I' for Inactive)
    1  A    between atoms: C_1  and  O_17
    2  A    between atoms: C_7  and  C_22
    3  A    between atoms: C_16  and  C_27
    4  A    between atoms: O_17  and  C_19
    5  A    between atoms: C_27  and  C_32
                            x       y       z     vdW  Elec       q    Type
                         _______ _______ _______ _____ _____    ______ ____

>  <TORSDO>
F 5

$$$$
=
 OpenBabel10272413273D

 32 36  0  0  1  0  0  0  0  0999 V2000
  181.1460  176.5230  136.1820 C   0  0  1  0  0  3  0  0  0  0  0  0
  184.5240  176.8030  137.3430 C   0  0  2  0  0  3  0  0  0  0  0  0
  184.1460  171.6920  135.8200 C   0  0  0  0  0  2  0  0  0  0  0  0
  184.1380  172.3160  137.2280 C   0  0  0  0  0  2  0  0  0  0  0  0
  183.3250  177.5980  136.8360 C   0  0  1  0  0  0  0  0  0  0  0  0
  183.1380  176.1120  134.8740 O   0  0  0  0  0  0  0  0  0  0  0  0
  180.2200  176.2080  135.0230 C   0  0  0  0  0  1  0  0  0  0  0  0
  184.0810  172.7140  134.7110 C   0  0  0  0  0  3  0  0  0  0  0  0
  184.0420  175.2140  135.4280 C   0  0  0  0  0  0  0  0  0  0  0  0
  184.0600  173.9890  134.9880 C   0  0  0  0  0  0  0  0  0  0  0  0
  186.1890  175.0430  136.8510 C   0  0  2  0  0  3  0  0  0  0  0  0
  181.3270  177.8470  138.3300 C   0  0  1  0  0  3  0  0  0  0  0  0
  182.4720  177.0920  135.6610 C   0  0  1  0  0  3  0  0  0  0  0  0
  182.6420  178.4760  137.8760 C   0  0  0  0  0  2  0  0  0  0  0  0
  180.4490  177.5110  137.1200 C   0  0  0  0  0  2  0  0  0  0  0  0
  185.5320  172.7150  137.7210 C   0  0  0  0  0  2  0  0  0  0  0  0
  186.3300  173.5240  136.7020 C   0  0  0  0  0  2  0  0  0  0  0  0
  184.7170  178.0600  136.4890 C   0  0  0  0  0  2  0  0  0  0  0  0
  184.8580  175.6120  136.5550 N   0  0  0  0  0  0  0  0  0  0  0  0
  181.5870  176.6820  139.1090 O   0  0  0  0  0  0  0  0  0  0  0  0
  180.5870  175.9830  139.7900 C   0  0  0  0  0  0  0  0  0  0  0  0
  180.2040  174.5920  139.4070 C   0  0  0  0  0  1  0  0  0  0  0  0
  179.9870  176.5410  140.7450 O   0  0  0  0  0  0  0  0  0  0  0  0
  187.3010  175.7770  136.0930 C   0  0  0  0  0  2  0  0  0  0  0  0
  188.2270  176.5870  138.2770 C   0  0  0  0  0  3  0  0  0  0  0  0
  188.8370  177.5700  139.0610 C   0  0  0  0  0  0  0  0  0  0  0  0
  188.9800  179.0210  137.1280 C   0  0  0  0  0  3  0  0  0  0  0  0
  189.2130  178.7870  138.4870 C   0  0  0  0  0  3  0  0  0  0  0  0
  188.3670  178.0390  136.3450 C   0  0  0  0  0  3  0  0  0  0  0  0
  187.9880  176.8190  136.9180 C   0  0  0  0  0  0  0  0  0  0  0  0
  189.0690  177.3300  140.4570 C   0  0  0  0  0  0  0  0  0  0  0  0
  189.2560  177.1370  141.5830 N   0  0  0  0  0  0  0  0  0  0  0  0
  1  7  1  6  0  0  0
  1 15  1  0  0  0  0
  2 18  1  6  0  0  0
  3  4  1  0  0  0  0
  4 16  1  0  0  0  0
  5 18  1  6  0  0  0
  5  2  1  0  0  0  0
  5 14  1  0  0  0  0
  6  9  1  0  0  0  0
  8 10  2  0  0  0  0
  8  3  1  0  0  0  0
  9 19  1  0  0  0  0
 10  9  2  0  0  0  0
 11 24  1  6  0  0  0
 12 20  1  6  0  0  0
 13  6  1  1  0  0  0
 13  1  1  0  0  0  0
 13  5  1  0  0  0  0
 14 12  1  0  0  0  0
 15 12  1  0  0  0  0
 17 11  1  0  0  0  0
 17 16  1  0  0  0  0
 19 11  1  0  0  0  0
 19  2  1  0  0  0  0
 20 21  1  0  0  0  0
 21 23  2  0  0  0  0
 22 21  1  0  0  0  0
 24 30  1  0  0  0  0
 25 26  1  0  0  0  0
 26 31  1  0  0  0  0
 27 28  1  0  0  0  0
 28 26  2  0  0  0  0
 29 30  1  0  0  0  0
 29 27  2  0  0  0  0
 30 25  2  0  0  0  0
 31 32  3  0  0  0  0
M  END
>  <MODEL>
7

>  <REMARK>
 VINA RESULT:      -5.0      4.408      8.089
  Name = 
  5 active torsions:
  status: ('A' for Active; 'I' for Inactive)
    1  A    between atoms: C_1  and  O_17
    2  A    between atoms: C_7  and  C_22
    3  A    between atoms: C_16  and  C_27
    4  A    between atoms: O_17  and  C_19
    5  A    between atoms: C_27  and  C_32
                            x       y       z     vdW  Elec       q    Type
                         _______ _______ _______ _____ _____    ______ ____

>  <TORSDO>
F 5

$$$$
=
 OpenBabel10272413273D

 32 36  0  0  1  0  0  0  0  0999 V2000
  188.7560  176.9460  136.5630 C   0  0  1  0  0  3  0  0  0  0  0  0
  186.2930  177.3070  139.1410 C   0  0  2  0  0  3  0  0  0  0  0  0
  190.9120  177.1920  141.8320 C   0  0  0  0  0  2  0  0  0  0  0  0
  189.8370  176.1050  141.6500 C   0  0  0  0  0  2  0  0  0  0  0  0
  186.5530  177.4920  137.6500 C   0  0  1  0  0  0  0  0  0  0  0  0
  188.6060  178.7730  138.1410 O   0  0  0  0  0  0  0  0  0  0  0  0
  189.9760  177.5290  135.8780 C   0  0  0  0  0  1  0  0  0  0  0  0
  190.6840  178.4100  140.9710 C   0  0  0  0  0  3  0  0  0  0  0  0
  188.5530  178.4040  139.4800 C   0  0  0  0  0  0  0  0  0  0  0  0
  189.6370  178.4850  140.1960 C   0  0  0  0  0  0  0  0  0  0  0  0
  186.9430  177.9380  141.4420 C   0  0  2  0  0  3  0  0  0  0  0  0
  186.7430  175.4570  136.1990 C   0  0  1  0  0  3  0  0  0  0  0  0
  187.8830  178.0690  137.1380 C   0  0  1  0  0  3  0  0  0  0  0  0
  185.8020  176.5330  136.7370 C   0  0  0  0  0  2  0  0  0  0  0  0
  187.9770  176.0990  135.5550 C   0  0  0  0  0  2  0  0  0  0  0  0
  188.6070  176.3140  142.5380 C   0  0  0  0  0  2  0  0  0  0  0  0
  188.0510  177.7340  142.4820 C   0  0  0  0  0  2  0  0  0  0  0  0
  185.6480  178.4610  138.3680 C   0  0  0  0  0  2  0  0  0  0  0  0
  187.3430  177.8280  140.0240 N   0  0  0  0  0  0  0  0  0  0  0  0
  187.1200  174.5700  137.2490 O   0  0  0  0  0  0  0  0  0  0  0  0
  186.6820  173.2450  137.3200 C   0  0  0  0  0  0  0  0  0  0  0  0
  185.2850  172.9020  137.7200 C   0  0  0  0  0  1  0  0  0  0  0  0
  187.4860  172.3160  137.0480 O   0  0  0  0  0  0  0  0  0  0  0  0
  186.1640  179.2300  141.7130 C   0  0  0  0  0  2  0  0  0  0  0  0
  185.6430  179.0540  144.1580 C   0  0  0  0  0  3  0  0  0  0  0  0
  184.7360  178.9020  145.2100 C   0  0  0  0  0  0  0  0  0  0  0  0
  182.9050  178.8580  143.6260 C   0  0  0  0  0  3  0  0  0  0  0  0
  183.3680  178.8040  144.9440 C   0  0  0  0  0  3  0  0  0  0  0  0
  183.8130  179.0080  142.5730 C   0  0  0  0  0  3  0  0  0  0  0  0
  185.1850  179.1040  142.8360 C   0  0  0  0  0  0  0  0  0  0  0  0
  185.2130  178.8390  146.5620 C   0  0  0  0  0  0  0  0  0  0  0  0
  185.5980  178.7880  147.6530 N   0  0  0  0  0  0  0  0  0  0  0  0
  1  7  1  6  0  0  0
  1 13  1  0  0  0  0
  2 18  1  1  0  0  0
  2 19  1  0  0  0  0
  4  3  1  0  0  0  0
  4 16  1  0  0  0  0
  5 14  1  6  0  0  0
  5 18  1  0  0  0  0
  5  2  1  0  0  0  0
  6  9  1  0  0  0  0
  8  3  1  0  0  0  0
  9 19  1  0  0  0  0
  9 10  2  0  0  0  0
 10  8  2  0  0  0  0
 11 24  1  6  0  0  0
 11 17  1  0  0  0  0
 12 14  1  0  0  0  0
 12 20  1  1  0  0  0
 13  5  1  0  0  0  0
 13  6  1  1  0  0  0
 15 12  1  0  0  0  0
 15  1  1  0  0  0  0
 17 16  1  0  0  0  0
 19 11  1  0  0  0  0
 20 21  1  0  0  0  0
 21 22  1  0  0  0  0
 23 21  2  0  0  0  0
 24 30  1  0  0  0  0
 25 26  1  0  0  0  0
 26 31  1  0  0  0  0
 27 28  1  0  0  0  0
 28 26  2  0  0  0  0
 29 30  1  0  0  0  0
 29 27  2  0  0  0  0
 30 25  2  0  0  0  0
 31 32  3  0  0  0  0
M  END
>  <MODEL>
8

>  <REMARK>
 VINA RESULT:      -4.8      1.625      2.205
  Name = 
  5 active torsions:
  status: ('A' for Active; 'I' for Inactive)
    1  A    between atoms: C_1  and  O_17
    2  A    between atoms: C_7  and  C_22
    3  A    between atoms: C_16  and  C_27
    4  A    between atoms: O_17  and  C_19
    5  A    between atoms: C_27  and  C_32
                            x       y       z     vdW  Elec       q    Type
                         _______ _______ _______ _____ _____    ______ ____

>  <TORSDO>
F 5

$$$$
=
 OpenBabel10272413273D

 32 36  0  0  1  0  0  0  0  0999 V2000
  183.1810  175.8940  135.7750 C   0  0  1  0  0  3  0  0  0  0  0  0
  183.9350  176.6470  139.1960 C   0  0  2  0  0  3  0  0  0  0  0  0
  188.4740  177.8260  136.6280 C   0  0  0  0  0  2  0  0  0  0  0  0
  188.1080  176.6090  137.4980 C   0  0  0  0  0  2  0  0  0  0  0  0
  182.7980  176.4480  138.2000 C   0  0  1  0  0  0  0  0  0  0  0  0
  183.8490  178.0510  136.6430 O   0  0  0  0  0  0  0  0  0  0  0  0
  183.0640  176.4100  134.3550 C   0  0  0  0  0  1  0  0  0  0  0  0
  187.2990  178.7260  136.3320 C   0  0  0  0  0  3  0  0  0  0  0  0
  185.0200  178.0580  137.3910 C   0  0  0  0  0  0  0  0  0  0  0  0
  186.1220  178.4600  136.8270 C   0  0  0  0  0  0  0  0  0  0  0  0
  185.9450  177.9550  139.7990 C   0  0  2  0  0  3  0  0  0  0  0  0
  182.3150  174.1320  137.3710 C   0  0  1  0  0  3  0  0  0  0  0  0
  182.8780  177.0190  136.7740 C   0  0  1  0  0  3  0  0  0  0  0  0
  181.9620  175.1930  138.4110 C   0  0  0  0  0  2  0  0  0  0  0  0
  182.2210  174.7170  135.9570 C   0  0  0  0  0  2  0  0  0  0  0  0
  188.1510  176.9040  139.0000 C   0  0  0  0  0  2  0  0  0  0  0  0
  187.4070  178.1770  139.3920 C   0  0  0  0  0  2  0  0  0  0  0  0
  182.6420  177.4600  139.3060 C   0  0  0  0  0  2  0  0  0  0  0  0
  185.0250  177.5110  138.7310 N   0  0  0  0  0  0  0  0  0  0  0  0
  183.6200  173.6170  137.6230 O   0  0  0  0  0  0  0  0  0  0  0  0
  184.2440  172.6860  136.7880 C   0  0  0  0  0  0  0  0  0  0  0  0
  183.7120  171.3020  136.6220 C   0  0  0  0  0  1  0  0  0  0  0  0
  185.2870  173.0190  136.1670 O   0  0  0  0  0  0  0  0  0  0  0  0
  185.3930  179.1690  140.5540 C   0  0  0  0  0  2  0  0  0  0  0  0
  186.2100  178.4540  142.8120 C   0  0  0  0  0  3  0  0  0  0  0  0
  185.9890  178.1700  144.1630 C   0  0  0  0  0  0  0  0  0  0  0  0
  183.6620  178.7890  143.9120 C   0  0  0  0  0  3  0  0  0  0  0  0
  184.7150  178.3380  144.7130 C   0  0  0  0  0  3  0  0  0  0  0  0
  183.8830  179.0710  142.5600 C   0  0  0  0  0  3  0  0  0  0  0  0
  185.1570  178.9020  142.0070 C   0  0  0  0  0  0  0  0  0  0  0  0
  187.0700  177.6990  144.9820 C   0  0  0  0  0  0  0  0  0  0  0  0
  187.9420  177.3200  145.6430 N   0  0  0  0  0  0  0  0  0  0  0  0
  1  7  1  6  0  0  0
  1 15  1  0  0  0  0
  1 13  1  0  0  0  0
  2 18  1  1  0  0  0
  3  4  1  0  0  0  0
  4 16  1  0  0  0  0
  5 14  1  1  0  0  0
  5  2  1  0  0  0  0
  5 18  1  0  0  0  0
  6  9  1  0  0  0  0
  8  3  1  0  0  0  0
  8 10  2  0  0  0  0
  9 19  1  0  0  0  0
 10  9  2  0  0  0  0
 11 24  1  6  0  0  0
 12 20  1  1  0  0  0
 12 14  1  0  0  0  0
 13  6  1  1  0  0  0
 13  5  1  0  0  0  0
 15 12  1  0  0  0  0
 16 17  1  0  0  0  0
 17 11  1  0  0  0  0
 19  2  1  0  0  0  0
 19 11  1  0  0  0  0
 21 20  1  0  0  0  0
 22 21  1  0  0  0  0
 23 21  2  0  0  0  0
 24 30  1  0  0  0  0
 25 26  1  0  0  0  0
 26 28  2  0  0  0  0
 26 31  1  0  0  0  0
 27 28  1  0  0  0  0
 29 27  2  0  0  0  0
 30 29  1  0  0  0  0
 30 25  2  0  0  0  0
 31 32  3  0  0  0  0
M  END
>  <MODEL>
9

>  <REMARK>
 VINA RESULT:      -4.5      3.404      5.593
  Name = 
  5 active torsions:
  status: ('A' for Active; 'I' for Inactive)
    1  A    between atoms: C_1  and  O_17
    2  A    between atoms: C_7  and  C_22
    3  A    between atoms: C_16  and  C_27
    4  A    between atoms: O_17  and  C_19
    5  A    between atoms: C_27  and  C_32
                            x       y       z     vdW  Elec       q    Type
                         _______ _______ _______ _____ _____    ______ ____

>  <TORSDO>
F 5

$$$$
