=
 OpenBabel10272413443D

 30 32  0  0  1  0  0  0  0  0999 V2000
  182.2790  177.7070  139.5520 C   0  0  2  0  0  3  0  0  0  0  0  0
  180.5950  178.2580  142.0610 C   0  0  2  0  0  3  0  0  0  0  0  0
  179.9830  178.8590  139.6900 C   0  0  0  0  0  2  0  0  0  0  0  0
  184.1030  178.6860  142.3650 C   0  0  0  0  0  2  0  0  0  0  0  0
  181.4910  179.0510  139.6470 C   0  0  1  0  0  0  0  0  0  0  0  0
  182.8110  179.3220  142.8600 C   0  0  0  0  0  2  0  0  0  0  0  0
  180.4220  178.9100  143.4250 C   0  0  0  0  0  2  0  0  0  0  0  0
  184.0270  178.3490  140.8830 C   0  0  0  0  0  2  0  0  0  0  0  0
  183.0680  177.3500  140.6690 O   0  0  0  0  0  0  0  0  0  0  0  0
  181.7420  178.2540  143.0870 C   0  0  1  0  0  3  0  0  0  0  0  0
  180.3950  180.6380  141.2420 O   0  0  0  0  0  1  0  0  0  0  0  0
  180.7090  179.3080  140.9410 C   0  0  2  0  0  0  0  0  0  0  0  0
  184.0290  177.9550  137.7860 C   0  0  0  0  0  1  0  0  0  0  0  0
  182.7860  177.1660  138.1910 C   0  0  2  0  0  0  0  0  0  0  0  0
  181.6640  177.2990  137.1210 C   0  0  2  0  0  3  0  0  0  0  0  0
  180.5730  176.2440  137.2980 C   0  0  0  0  0  2  0  0  0  0  0  0
  180.5010  175.3440  136.0790 C   0  0  0  0  0  1  0  0  0  0  0  0
  182.1560  177.2830  135.6990 C   0  0  0  0  0  3  0  0  0  0  0  0
  181.8210  178.2480  134.8470 C   0  0  0  0  0  2  0  0  0  0  0  0
  183.1830  175.6920  138.3820 C   0  0  0  0  0  2  0  0  0  0  0  0
  184.3130  175.3530  137.6310 O   0  0  0  0  0  0  0  0  0  0  0  0
  184.0070  174.1180  137.0630 C   0  0  1  0  0  3  0  0  0  0  0  0
  183.9690  174.2510  135.5540 C   0  0  0  0  0  1  0  0  0  0  0  0
  185.2750  172.9050  137.5270 S   0  0  0  0  0  1  0  0  0  0  0  0
  183.3400  180.4580  138.9600 O   0  0  0  0  0  1  0  0  0  0  0  0
  181.9510  180.3390  138.9330 C   0  0  1  0  0  3  0  0  0  0  0  0
  181.4450  180.4750  137.5020 C   0  0  0  0  0  2  0  0  0  0  0  0
  180.5080  181.6650  137.3380 C   0  0  0  0  0  2  0  0  0  0  0  0
  181.6480  183.7500  137.6090 O   0  0  0  0  0  1  0  0  0  0  0  0
  180.8840  182.7970  138.2810 C   0  0  0  0  0  2  0  0  0  0  0  0
  1 14  1  6  0  0  0
  1  5  1  0  0  0  0
  1  9  1  0  0  0  0
  2 10  1  0  0  0  0
  2  7  1  1  0  0  0
  3 12  1  0  0  0  0
  4  6  1  0  0  0  0
  5 26  1  6  0  0  0
  5  3  1  0  0  0  0
  5 12  1  0  0  0  0
  8  4  1  0  0  0  0
  9  8  1  0  0  0  0
 10  6  1  6  0  0  0
 10  7  1  0  0  0  0
 12 11  1  1  0  0  0
 12  2  1  0  0  0  0
 14 13  1  6  0  0  0
 14 20  1  0  0  0  0
 15 18  1  6  0  0  0
 15 16  1  0  0  0  0
 15 14  1  0  0  0  0
 17 16  1  0  0  0  0
 19 18  2  0  0  0  0
 21 20  1  0  0  0  0
 22 23  1  6  0  0  0
 22 24  1  0  0  0  0
 22 21  1  0  0  0  0
 26 25  1  6  0  0  0
 27 26  1  0  0  0  0
 28 27  1  0  0  0  0
 28 30  1  0  0  0  0
 29 30  1  0  0  0  0
M  END
>  <MODEL>
1

>  <REMARK>
 VINA RESULT:      -3.7      0.000      0.000
  Name = 
  11 active torsions:
  status: ('A' for Active; 'I' for Inactive)
    1  A    between atoms: C_2  and  C_14
    2  A    between atoms: C_3  and  O_19
    3  A    between atoms: C_4  and  C_22
    4  A    between atoms: C_6  and  C_12
    5  A    between atoms: C_6  and  C_17
    6  A    between atoms: C_12  and  C_13
    7  A    between atoms: C_14  and  C_20
    8  A    between atoms: C_14  and  C_22
    9  A    between atoms: C_17  and  C_21
   10  A    between atoms: O_19  and  C_29
   11  A    between atoms: C_22  and  C_29
                            x       y       z     vdW  Elec       q    Type
                         _______ _______ _______ _____ _____    ______ ____

>  <TORSDO>
F 11

$$$$
=
 OpenBabel10272413443D

 30 32  0  0  1  0  0  0  0  0999 V2000
  184.5140  177.7890  137.8590 C   0  0  2  0  0  3  0  0  0  0  0  0
  181.6490  178.8920  137.9730 C   0  0  2  0  0  3  0  0  0  0  0  0
  183.7420  180.0910  138.7100 C   0  0  0  0  0  2  0  0  0  0  0  0
  182.0760  175.4670  138.7900 C   0  0  0  0  0  2  0  0  0  0  0  0
  184.0920  178.6590  139.0840 C   0  0  1  0  0  0  0  0  0  0  0  0
  181.2380  176.6650  139.2180 C   0  0  0  0  0  2  0  0  0  0  0  0
  180.2150  178.8080  138.4720 C   0  0  0  0  0  2  0  0  0  0  0  0
  183.5340  175.8510  138.5820 C   0  0  0  0  0  2  0  0  0  0  0  0
  183.6460  176.7320  137.5000 O   0  0  0  0  0  0  0  0  0  0  0  0
  180.9070  177.5450  138.0130 C   0  0  1  0  0  3  0  0  0  0  0  0
  182.1230  179.5050  140.3770 O   0  0  0  0  0  1  0  0  0  0  0  0
  182.6370  179.1420  139.1260 C   0  0  2  0  0  0  0  0  0  0  0  0
  186.5550  178.8300  136.8640 C   0  0  0  0  0  1  0  0  0  0  0  0
  186.0060  177.5600  137.5090 C   0  0  2  0  0  0  0  0  0  0  0  0
  186.1400  176.3420  136.5520 C   0  0  2  0  0  3  0  0  0  0  0  0
  187.0410  175.2510  137.1300 C   0  0  0  0  0  2  0  0  0  0  0  0
  186.3020  173.9280  137.1910 C   0  0  0  0  0  1  0  0  0  0  0  0
  186.5980  176.6910  135.1620 C   0  0  0  0  0  3  0  0  0  0  0  0
  187.7670  176.2590  134.6960 C   0  0  0  0  0  2  0  0  0  0  0  0
  186.7690  177.3070  138.8210 C   0  0  0  0  0  2  0  0  0  0  0  0
  187.8100  178.2240  139.0050 O   0  0  0  0  0  0  0  0  0  0  0  0
  188.7100  177.5760  139.8500 C   0  0  1  0  0  3  0  0  0  0  0  0
  190.1170  177.7440  139.3140 C   0  0  0  0  0  1  0  0  0  0  0  0
  188.6090  178.3000  141.5120 S   0  0  0  0  0  1  0  0  0  0  0  0
  185.3590  179.6840  140.8780 O   0  0  0  0  0  1  0  0  0  0  0  0
  184.7350  178.5030  140.4780 C   0  0  1  0  0  3  0  0  0  0  0  0
  183.7730  178.0310  141.5610 C   0  0  0  0  0  2  0  0  0  0  0  0
  184.2620  178.3940  142.9570 C   0  0  0  0  0  2  0  0  0  0  0  0
  183.5880  179.2160  145.1000 O   0  0  0  0  0  1  0  0  0  0  0  0
  183.1260  178.9250  143.8170 C   0  0  0  0  0  2  0  0  0  0  0  0
  1 14  1  1  0  0  0
  1  5  1  0  0  0  0
  2 10  1  0  0  0  0
  2  7  1  1  0  0  0
  2 12  1  0  0  0  0
  3  5  1  0  0  0  0
  3 12  1  0  0  0  0
  4  6  1  0  0  0  0
  5 12  1  0  0  0  0
  5 26  1  1  0  0  0
  8  4  1  0  0  0  0
  9  1  1  0  0  0  0
  9  8  1  0  0  0  0
 10  7  1  1  0  0  0
 10  6  1  0  0  0  0
 12 11  1  1  0  0  0
 14 13  1  6  0  0  0
 14 20  1  0  0  0  0
 15 18  1  6  0  0  0
 15 16  1  0  0  0  0
 15 14  1  0  0  0  0
 16 17  1  0  0  0  0
 19 18  2  0  0  0  0
 20 21  1  0  0  0  0
 21 22  1  0  0  0  0
 22 23  1  6  0  0  0
 22 24  1  0  0  0  0
 26 25  1  1  0  0  0
 26 27  1  0  0  0  0
 27 28  1  0  0  0  0
 28 30  1  0  0  0  0
 30 29  1  0  0  0  0
M  END
>  <MODEL>
2

>  <REMARK>
 VINA RESULT:      -3.7      3.043      5.174
  Name = 
  11 active torsions:
  status: ('A' for Active; 'I' for Inactive)
    1  A    between atoms: C_2  and  C_14
    2  A    between atoms: C_3  and  O_19
    3  A    between atoms: C_4  and  C_22
    4  A    between atoms: C_6  and  C_12
    5  A    between atoms: C_6  and  C_17
    6  A    between atoms: C_12  and  C_13
    7  A    between atoms: C_14  and  C_20
    8  A    between atoms: C_14  and  C_22
    9  A    between atoms: C_17  and  C_21
   10  A    between atoms: O_19  and  C_29
   11  A    between atoms: C_22  and  C_29
                            x       y       z     vdW  Elec       q    Type
                         _______ _______ _______ _____ _____    ______ ____

>  <TORSDO>
F 11

$$$$
=
 OpenBabel10272413443D

 30 32  0  0  1  0  0  0  0  0999 V2000
  187.7500  175.9490  137.5080 C   0  0  2  0  0  3  0  0  0  0  0  0
  187.5710  172.9410  136.9100 C   0  0  2  0  0  3  0  0  0  0  0  0
  189.6760  174.2480  137.3770 C   0  0  0  0  0  2  0  0  0  0  0  0
  185.4200  175.0690  135.0580 C   0  0  0  0  0  2  0  0  0  0  0  0
  188.8590  175.2900  136.6290 C   0  0  1  0  0  0  0  0  0  0  0  0
  186.2480  173.8050  134.8650 C   0  0  0  0  0  2  0  0  0  0  0  0
  187.1900  171.7930  135.9880 C   0  0  0  0  0  2  0  0  0  0  0  0
  186.1860  176.1220  135.8450 C   0  0  0  0  0  2  0  0  0  0  0  0
  186.4090  175.6740  137.1530 O   0  0  0  0  0  0  0  0  0  0  0  0
  186.2400  172.9600  136.1380 C   0  0  1  0  0  3  0  0  0  0  0  0
  189.3840  173.3100  135.1910 O   0  0  0  0  0  1  0  0  0  0  0  0
  188.7000  173.7990  136.3100 C   0  0  2  0  0  0  0  0  0  0  0  0
  188.4320  178.3250  137.1500 C   0  0  0  0  0  1  0  0  0  0  0  0
  187.9780  177.3160  138.2020 C   0  0  2  0  0  0  0  0  0  0  0  0
  189.0400  177.1630  139.3280 C   0  0  2  0  0  3  0  0  0  0  0  0
  188.6260  177.8840  140.6100 C   0  0  0  0  0  2  0  0  0  0  0  0
  188.7860  176.9690  141.8100 C   0  0  0  0  0  1  0  0  0  0  0  0
  190.4280  177.5880  138.9350 C   0  0  0  0  0  3  0  0  0  0  0  0
  191.4980  177.0860  139.5450 C   0  0  0  0  0  2  0  0  0  0  0  0
  186.6320  177.7850  138.7830 C   0  0  0  0  0  2  0  0  0  0  0  0
  186.0790  178.8320  138.0390 O   0  0  0  0  0  0  0  0  0  0  0  0
  184.8060  179.0170  138.5760 C   0  0  1  0  0  3  0  0  0  0  0  0
  183.8740  177.9460  138.0490 C   0  0  0  0  0  1  0  0  0  0  0  0
  184.8890  178.9030  140.3860 S   0  0  0  0  0  1  0  0  0  0  0  0
  188.8750  177.0990  135.0170 O   0  0  0  0  0  1  0  0  0  0  0  0
  189.6480  176.0730  135.5600 C   0  0  1  0  0  3  0  0  0  0  0  0
  190.9800  176.6300  136.0480 C   0  0  0  0  0  2  0  0  0  0  0  0
  192.1650  175.8670  135.4690 C   0  0  0  0  0  2  0  0  0  0  0  0
  194.1290  176.6740  136.5710 O   0  0  0  0  0  1  0  0  0  0  0  0
  193.2270  175.6130  136.5280 C   0  0  0  0  0  2  0  0  0  0  0  0
  1 14  1  6  0  0  0
  2  7  1  6  0  0  0
  4  8  1  0  0  0  0
  5 26  1  6  0  0  0
  5  3  1  0  0  0  0
  5  1  1  0  0  0  0
  6  4  1  0  0  0  0
  7 10  1  0  0  0  0
  8  9  1  0  0  0  0
  9  1  1  0  0  0  0
 10  6  1  6  0  0  0
 10  2  1  0  0  0  0
 12 11  1  6  0  0  0
 12  5  1  0  0  0  0
 12  2  1  0  0  0  0
 12  3  1  0  0  0  0
 14 13  1  6  0  0  0
 14 20  1  0  0  0  0
 14 15  1  0  0  0  0
 15 18  1  6  0  0  0
 15 16  1  0  0  0  0
 16 17  1  0  0  0  0
 18 19  2  0  0  0  0
 21 22  1  0  0  0  0
 21 20  1  0  0  0  0
 22 23  1  6  0  0  0
 22 24  1  0  0  0  0
 26 25  1  1  0  0  0
 26 27  1  0  0  0  0
 28 27  1  0  0  0  0
 28 30  1  0  0  0  0
 30 29  1  0  0  0  0
M  END
>  <MODEL>
3

>  <REMARK>
 VINA RESULT:      -3.6      5.315      9.235
  Name = 
  11 active torsions:
  status: ('A' for Active; 'I' for Inactive)
    1  A    between atoms: C_2  and  C_14
    2  A    between atoms: C_3  and  O_19
    3  A    between atoms: C_4  and  C_22
    4  A    between atoms: C_6  and  C_12
    5  A    between atoms: C_6  and  C_17
    6  A    between atoms: C_12  and  C_13
    7  A    between atoms: C_14  and  C_20
    8  A    between atoms: C_14  and  C_22
    9  A    between atoms: C_17  and  C_21
   10  A    between atoms: O_19  and  C_29
   11  A    between atoms: C_22  and  C_29
                            x       y       z     vdW  Elec       q    Type
                         _______ _______ _______ _____ _____    ______ ____

>  <TORSDO>
F 11

$$$$
=
 OpenBabel10272413443D

 30 32  0  0  1  0  0  0  0  0999 V2000
  185.2050  175.3880  135.7750 C   0  0  2  0  0  3  0  0  0  0  0  0
  182.8720  173.8170  134.5420 C   0  0  2  0  0  3  0  0  0  0  0  0
  182.9860  176.3160  134.8640 C   0  0  0  0  0  2  0  0  0  0  0  0
  184.4990  172.3390  137.3260 C   0  0  0  0  0  2  0  0  0  0  0  0
  183.7460  175.8390  136.0920 C   0  0  1  0  0  0  0  0  0  0  0  0
  183.0990  172.4770  136.7400 C   0  0  0  0  0  2  0  0  0  0  0  0
  181.7840  172.7590  134.6450 C   0  0  0  0  0  2  0  0  0  0  0  0
  185.2600  173.6550  137.2700 C   0  0  0  0  0  2  0  0  0  0  0  0
  185.4970  174.0140  135.9370 O   0  0  0  0  0  0  0  0  0  0  0  0
  183.1540  172.4620  135.2130 C   0  0  1  0  0  3  0  0  0  0  0  0
  181.3600  175.0810  136.1210 O   0  0  0  0  0  1  0  0  0  0  0  0
  182.6120  174.9930  135.5010 C   0  0  2  0  0  0  0  0  0  0  0  0
  186.0280  177.7270  135.4690 C   0  0  0  0  0  1  0  0  0  0  0  0
  186.4080  176.3430  135.9880 C   0  0  2  0  0  0  0  0  0  0  0  0
  187.6570  175.7880  135.2440 C   0  0  2  0  0  3  0  0  0  0  0  0
  188.6770  175.1820  136.2060 C   0  0  0  0  0  2  0  0  0  0  0  0
  188.9170  173.7210  135.8750 C   0  0  0  0  0  1  0  0  0  0  0  0
  188.3390  176.7850  134.3460 C   0  0  0  0  0  3  0  0  0  0  0  0
  189.6240  177.0870  134.5080 C   0  0  0  0  0  2  0  0  0  0  0  0
  186.6750  176.4430  137.5000 C   0  0  0  0  0  2  0  0  0  0  0  0
  186.8830  177.7650  137.9070 O   0  0  0  0  0  0  0  0  0  0  0  0
  188.1600  177.7680  138.4680 C   0  0  1  0  0  3  0  0  0  0  0  0
  189.0320  178.7630  137.7310 C   0  0  0  0  0  1  0  0  0  0  0  0
  188.0520  178.2420  140.2170 S   0  0  0  0  0  1  0  0  0  0  0  0
  184.0990  176.0710  138.4790 O   0  0  0  0  0  1  0  0  0  0  0  0
  183.3630  176.5630  137.4010 C   0  0  1  0  0  3  0  0  0  0  0  0
  183.4870  178.0800  137.3350 C   0  0  0  0  0  2  0  0  0  0  0  0
  182.5950  178.7710  138.3580 C   0  0  0  0  0  2  0  0  0  0  0  0
  184.5730  179.8190  139.2010 O   0  0  0  0  0  1  0  0  0  0  0  0
  183.2370  180.0480  138.8760 C   0  0  0  0  0  2  0  0  0  0  0  0
  1  9  1  0  0  0  0
  1 14  1  1  0  0  0
  1  5  1  0  0  0  0
  2  7  1  6  0  0  0
  2 10  1  0  0  0  0
  2 12  1  0  0  0  0
  3 12  1  0  0  0  0
  3  5  1  0  0  0  0
  5 26  1  1  0  0  0
  6  4  1  0  0  0  0
  8  4  1  0  0  0  0
  9  8  1  0  0  0  0
 10  7  1  6  0  0  0
 10  6  1  0  0  0  0
 12  5  1  0  0  0  0
 12 11  1  1  0  0  0
 14 13  1  6  0  0  0
 14 20  1  0  0  0  0
 15 18  1  1  0  0  0
 15 14  1  0  0  0  0
 15 16  1  0  0  0  0
 17 16  1  0  0  0  0
 18 19  2  0  0  0  0
 20 21  1  0  0  0  0
 21 22  1  0  0  0  0
 22 23  1  6  0  0  0
 22 24  1  0  0  0  0
 26 25  1  1  0  0  0
 27 26  1  0  0  0  0
 27 28  1  0  0  0  0
 28 30  1  0  0  0  0
 30 29  1  0  0  0  0
M  END
>  <MODEL>
4

>  <REMARK>
 VINA RESULT:      -3.4      3.272      6.573
  Name = 
  11 active torsions:
  status: ('A' for Active; 'I' for Inactive)
    1  A    between atoms: C_2  and  C_14
    2  A    between atoms: C_3  and  O_19
    3  A    between atoms: C_4  and  C_22
    4  A    between atoms: C_6  and  C_12
    5  A    between atoms: C_6  and  C_17
    6  A    between atoms: C_12  and  C_13
    7  A    between atoms: C_14  and  C_20
    8  A    between atoms: C_14  and  C_22
    9  A    between atoms: C_17  and  C_21
   10  A    between atoms: O_19  and  C_29
   11  A    between atoms: C_22  and  C_29
                            x       y       z     vdW  Elec       q    Type
                         _______ _______ _______ _____ _____    ______ ____

>  <TORSDO>
F 11

$$$$
=
 OpenBabel10272413443D

 30 32  0  0  1  0  0  0  0  0999 V2000
  187.7740  175.9440  135.9030 C   0  0  2  0  0  3  0  0  0  0  0  0
  185.1150  175.6560  134.3930 C   0  0  2  0  0  3  0  0  0  0  0  0
  186.3440  177.8080  134.8570 C   0  0  0  0  0  2  0  0  0  0  0  0
  185.5790  173.5680  137.2230 C   0  0  0  0  0  2  0  0  0  0  0  0
  186.6680  177.0230  136.1180 C   0  0  1  0  0  0  0  0  0  0  0  0
  184.4710  174.3500  136.5280 C   0  0  0  0  0  2  0  0  0  0  0  0
  183.6560  175.2280  134.3460 C   0  0  0  0  0  2  0  0  0  0  0  0
  186.8660  174.3760  137.3020 C   0  0  0  0  0  2  0  0  0  0  0  0
  187.3760  174.5920  136.0160 O   0  0  0  0  0  0  0  0  0  0  0  0
  184.6660  174.3210  135.0130 C   0  0  1  0  0  3  0  0  0  0  0  0
  184.2140  177.4690  135.9020 O   0  0  0  0  0  1  0  0  0  0  0  0
  185.3370  176.8100  135.3870 C   0  0  2  0  0  0  0  0  0  0  0  0
  189.5840  177.6650  135.8920 C   0  0  0  0  0  1  0  0  0  0  0  0
  189.2540  176.2230  136.2690 C   0  0  2  0  0  0  0  0  0  0  0  0
  190.1780  175.2220  135.5180 C   0  0  2  0  0  3  0  0  0  0  0  0
  190.6470  174.0830  136.4230 C   0  0  0  0  0  2  0  0  0  0  0  0
  190.3570  172.7400  135.7800 C   0  0  0  0  0  1  0  0  0  0  0  0
  191.3670  175.8560  134.8480 C   0  0  0  0  0  3  0  0  0  0  0  0
  192.5900  175.7260  135.3540 C   0  0  0  0  0  2  0  0  0  0  0  0
  189.4070  176.0680  137.7920 C   0  0  0  0  0  2  0  0  0  0  0  0
  189.7960  177.2640  138.4030 O   0  0  0  0  0  0  0  0  0  0  0  0
  190.0320  176.9240  139.7340 C   0  0  1  0  0  3  0  0  0  0  0  0
  191.4510  177.3010  140.1070 C   0  0  0  0  0  1  0  0  0  0  0  0
  188.8720  177.8200  140.8040 S   0  0  0  0  0  1  0  0  0  0  0  0
  186.7870  179.1860  137.2050 O   0  0  0  0  0  1  0  0  0  0  0  0
  186.5360  177.8320  137.4250 C   0  0  1  0  0  3  0  0  0  0  0  0
  185.1980  177.6600  138.1350 C   0  0  0  0  0  2  0  0  0  0  0  0
  185.1310  178.4570  139.4310 C   0  0  0  0  0  2  0  0  0  0  0  0
  184.1190  180.5420  138.8360 O   0  0  0  0  0  1  0  0  0  0  0  0
  183.8850  179.3270  139.4790 C   0  0  0  0  0  2  0  0  0  0  0  0
  1  9  1  0  0  0  0
  1  5  1  0  0  0  0
  1 14  1  1  0  0  0
  2  7  1  6  0  0  0
  2 10  1  0  0  0  0
  2 12  1  0  0  0  0
  3 12  1  0  0  0  0
  3  5  1  0  0  0  0
  4  8  1  0  0  0  0
  5 26  1  1  0  0  0
  6  4  1  0  0  0  0
  9  8  1  0  0  0  0
 10  7  1  6  0  0  0
 10  6  1  0  0  0  0
 12 11  1  1  0  0  0
 12  5  1  0  0  0  0
 14 13  1  6  0  0  0
 14 20  1  0  0  0  0
 15 18  1  1  0  0  0
 15 14  1  0  0  0  0
 15 16  1  0  0  0  0
 17 16  1  0  0  0  0
 18 19  2  0  0  0  0
 20 21  1  0  0  0  0
 21 22  1  0  0  0  0
 22 23  1  1  0  0  0
 22 24  1  0  0  0  0
 26 25  1  6  0  0  0
 26 27  1  0  0  0  0
 27 28  1  0  0  0  0
 28 30  1  0  0  0  0
 29 30  1  0  0  0  0
M  END
>  <MODEL>
5

>  <REMARK>
 VINA RESULT:      -3.4      4.693      7.616
  Name = 
  11 active torsions:
  status: ('A' for Active; 'I' for Inactive)
    1  A    between atoms: C_2  and  C_14
    2  A    between atoms: C_3  and  O_19
    3  A    between atoms: C_4  and  C_22
    4  A    between atoms: C_6  and  C_12
    5  A    between atoms: C_6  and  C_17
    6  A    between atoms: C_12  and  C_13
    7  A    between atoms: C_14  and  C_20
    8  A    between atoms: C_14  and  C_22
    9  A    between atoms: C_17  and  C_21
   10  A    between atoms: O_19  and  C_29
   11  A    between atoms: C_22  and  C_29
                            x       y       z     vdW  Elec       q    Type
                         _______ _______ _______ _____ _____    ______ ____

>  <TORSDO>
F 11

$$$$
=
 OpenBabel10272413443D

 30 32  0  0  1  0  0  0  0  0999 V2000
  186.6100  176.1990  137.3850 C   0  0  2  0  0  3  0  0  0  0  0  0
  186.2230  173.1810  136.9650 C   0  0  2  0  0  3  0  0  0  0  0  0
  188.4140  174.4290  136.9030 C   0  0  0  0  0  2  0  0  0  0  0  0
  183.7730  175.3190  135.5470 C   0  0  0  0  0  2  0  0  0  0  0  0
  187.4790  175.4730  136.3110 C   0  0  1  0  0  0  0  0  0  0  0  0
  184.5030  174.0210  135.2280 C   0  0  0  0  0  2  0  0  0  0  0  0
  185.6170  172.0160  136.1970 C   0  0  0  0  0  2  0  0  0  0  0  0
  184.7230  176.3710  136.1020 C   0  0  0  0  0  2  0  0  0  0  0  0
  185.2180  175.9600  137.3460 O   0  0  0  0  0  0  0  0  0  0  0  0
  184.7560  173.2200  136.5050 C   0  0  1  0  0  3  0  0  0  0  0  0
  187.6200  173.4280  134.8750 O   0  0  0  0  0  1  0  0  0  0  0  0
  187.2140  173.9790  136.0960 C   0  0  2  0  0  0  0  0  0  0  0  0
  187.2260  178.5470  136.7900 C   0  0  0  0  0  1  0  0  0  0  0  0
  187.0220  177.5810  137.9550 C   0  0  2  0  0  0  0  0  0  0  0  0
  188.3220  177.4350  138.7970 C   0  0  2  0  0  3  0  0  0  0  0  0
  188.1970  178.1010  140.1670 C   0  0  0  0  0  2  0  0  0  0  0  0
  188.9750  177.3200  141.2100 C   0  0  0  0  0  1  0  0  0  0  0  0
  189.5670  177.9250  138.1090 C   0  0  0  0  0  3  0  0  0  0  0  0
  190.7070  177.2440  138.1870 C   0  0  0  0  0  2  0  0  0  0  0  0
  185.8650  178.1010  138.8260 C   0  0  0  0  0  2  0  0  0  0  0  0
  185.3630  179.3180  138.3550 O   0  0  0  0  0  0  0  0  0  0  0  0
  184.2010  179.5340  139.0940 C   0  0  1  0  0  3  0  0  0  0  0  0
  183.0380  178.8330  138.4230 C   0  0  0  0  0  1  0  0  0  0  0  0
  184.4160  178.8720  140.7700 S   0  0  0  0  0  1  0  0  0  0  0  0
  187.2570  177.3050  134.7400 O   0  0  0  0  0  1  0  0  0  0  0  0
  188.0330  176.1920  135.0630 C   0  0  1  0  0  3  0  0  0  0  0  0
  189.4990  176.5930  135.1710 C   0  0  0  0  0  2  0  0  0  0  0  0
  190.4020  175.6860  134.3460 C   0  0  0  0  0  2  0  0  0  0  0  0
  192.4260  175.4170  135.5920 O   0  0  0  0  0  1  0  0  0  0  0  0
  191.8640  176.0760  134.5010 C   0  0  0  0  0  2  0  0  0  0  0  0
  1 14  1  6  0  0  0
  2  7  1  6  0  0  0
  4  8  1  0  0  0  0
  5 26  1  6  0  0  0
  5  3  1  0  0  0  0
  5  1  1  0  0  0  0
  6  4  1  0  0  0  0
  7 10  1  0  0  0  0
  8  9  1  0  0  0  0
  9  1  1  0  0  0  0
 10  6  1  6  0  0  0
 10  2  1  0  0  0  0
 12 11  1  6  0  0  0
 12  5  1  0  0  0  0
 12  3  1  0  0  0  0
 12  2  1  0  0  0  0
 14 13  1  6  0  0  0
 14 15  1  0  0  0  0
 14 20  1  0  0  0  0
 15 18  1  6  0  0  0
 15 16  1  0  0  0  0
 16 17  1  0  0  0  0
 18 19  2  0  0  0  0
 21 20  1  0  0  0  0
 21 22  1  0  0  0  0
 22 23  1  6  0  0  0
 22 24  1  0  0  0  0
 26 25  1  1  0  0  0
 26 27  1  0  0  0  0
 28 30  1  0  0  0  0
 28 27  1  0  0  0  0
 30 29  1  0  0  0  0
M  END
>  <MODEL>
6

>  <REMARK>
 VINA RESULT:      -3.4      4.409      8.475
  Name = 
  11 active torsions:
  status: ('A' for Active; 'I' for Inactive)
    1  A    between atoms: C_2  and  C_14
    2  A    between atoms: C_3  and  O_19
    3  A    between atoms: C_4  and  C_22
    4  A    between atoms: C_6  and  C_12
    5  A    between atoms: C_6  and  C_17
    6  A    between atoms: C_12  and  C_13
    7  A    between atoms: C_14  and  C_20
    8  A    between atoms: C_14  and  C_22
    9  A    between atoms: C_17  and  C_21
   10  A    between atoms: O_19  and  C_29
   11  A    between atoms: C_22  and  C_29
                            x       y       z     vdW  Elec       q    Type
                         _______ _______ _______ _____ _____    ______ ____

>  <TORSDO>
F 11

$$$$
=
 OpenBabel10272413443D

 30 32  0  0  1  0  0  0  0  0999 V2000
  184.9390  177.8060  137.6790 C   0  0  2  0  0  3  0  0  0  0  0  0
  186.7410  178.1190  135.2110 C   0  0  2  0  0  3  0  0  0  0  0  0
  184.5560  176.8650  135.3160 C   0  0  0  0  0  2  0  0  0  0  0  0
  188.3680  177.6260  138.3250 C   0  0  0  0  0  2  0  0  0  0  0  0
  185.1010  176.5940  136.7100 C   0  0  1  0  0  0  0  0  0  0  0  0
  188.5230  177.2340  136.8610 C   0  0  0  0  0  2  0  0  0  0  0  0
  188.0750  177.9150  134.5090 C   0  0  0  0  0  2  0  0  0  0  0  0
  186.9220  177.5070  138.7840 C   0  0  0  0  0  2  0  0  0  0  0  0
  186.1270  178.4420  138.1090 O   0  0  0  0  0  0  0  0  0  0  0  0
  188.0660  178.3730  135.9500 C   0  0  1  0  0  3  0  0  0  0  0  0
  186.5640  175.6150  134.9300 O   0  0  0  0  0  1  0  0  0  0  0  0
  186.0540  176.7770  135.5220 C   0  0  2  0  0  0  0  0  0  0  0  0
  183.2240  176.4770  138.9180 C   0  0  0  0  0  1  0  0  0  0  0  0
  183.7550  177.8880  138.6760 C   0  0  2  0  0  0  0  0  0  0  0  0
  182.6460  178.8130  138.0980 C   0  0  2  0  0  3  0  0  0  0  0  0
  182.1440  179.8230  139.1290 C   0  0  0  0  0  2  0  0  0  0  0  0
  181.8780  181.1650  138.4730 C   0  0  0  0  0  1  0  0  0  0  0  0
  181.4760  178.0810  137.4980 C   0  0  0  0  0  3  0  0  0  0  0  0
  181.2280  178.1370  136.1920 C   0  0  0  0  0  2  0  0  0  0  0  0
  184.2890  178.4450  140.0060 C   0  0  0  0  0  2  0  0  0  0  0  0
  183.7800  177.7480  141.1070 O   0  0  0  0  0  0  0  0  0  0  0  0
  184.6030  178.1140  142.1720 C   0  0  1  0  0  3  0  0  0  0  0  0
  185.5870  179.1690  141.7110 C   0  0  0  0  0  1  0  0  0  0  0  0
  183.5880  178.7850  143.5190 S   0  0  0  0  0  1  0  0  0  0  0  0
  184.1270  174.4090  136.3250 O   0  0  0  0  0  1  0  0  0  0  0  0
  184.9640  175.1300  137.1760 C   0  0  1  0  0  3  0  0  0  0  0  0
  186.2910  174.3990  137.3410 C   0  0  0  0  0  2  0  0  0  0  0  0
  186.1190  172.8860  137.3050 C   0  0  0  0  0  2  0  0  0  0  0  0
  188.3630  173.0960  136.5040 O   0  0  0  0  0  1  0  0  0  0  0  0
  187.4380  172.1880  137.0180 C   0  0  0  0  0  2  0  0  0  0  0  0
  1  9  1  0  0  0  0
  1 14  1  1  0  0  0
  2  7  1  6  0  0  0
  2 12  1  0  0  0  0
  2 10  1  0  0  0  0
  3 12  1  0  0  0  0
  3  5  1  0  0  0  0
  4  8  1  0  0  0  0
  5 26  1  1  0  0  0
  5  1  1  0  0  0  0
  6  4  1  0  0  0  0
  9  8  1  0  0  0  0
 10  7  1  6  0  0  0
 10  6  1  0  0  0  0
 12 11  1  6  0  0  0
 12  5  1  0  0  0  0
 14 13  1  1  0  0  0
 14 20  1  0  0  0  0
 15 18  1  1  0  0  0
 15 14  1  0  0  0  0
 15 16  1  0  0  0  0
 17 16  1  0  0  0  0
 19 18  2  0  0  0  0
 20 21  1  0  0  0  0
 21 22  1  0  0  0  0
 22 23  1  6  0  0  0
 22 24  1  0  0  0  0
 26 25  1  6  0  0  0
 26 27  1  0  0  0  0
 28 27  1  0  0  0  0
 29 30  1  0  0  0  0
 30 28  1  0  0  0  0
M  END
>  <MODEL>
7

>  <REMARK>
 VINA RESULT:      -3.3      3.158      7.210
  Name = 
  11 active torsions:
  status: ('A' for Active; 'I' for Inactive)
    1  A    between atoms: C_2  and  C_14
    2  A    between atoms: C_3  and  O_19
    3  A    between atoms: C_4  and  C_22
    4  A    between atoms: C_6  and  C_12
    5  A    between atoms: C_6  and  C_17
    6  A    between atoms: C_12  and  C_13
    7  A    between atoms: C_14  and  C_20
    8  A    between atoms: C_14  and  C_22
    9  A    between atoms: C_17  and  C_21
   10  A    between atoms: O_19  and  C_29
   11  A    between atoms: C_22  and  C_29
                            x       y       z     vdW  Elec       q    Type
                         _______ _______ _______ _____ _____    ______ ____

>  <TORSDO>
F 11

$$$$
=
 OpenBabel10272413443D

 30 32  0  0  1  0  0  0  0  0999 V2000
  183.8230  176.4340  137.5590 C   0  0  2  0  0  3  0  0  0  0  0  0
  181.5780  175.7880  139.5540 C   0  0  2  0  0  3  0  0  0  0  0  0
  181.9880  174.6440  137.3450 C   0  0  0  0  0  2  0  0  0  0  0  0
  182.3860  179.2130  139.1120 C   0  0  0  0  0  2  0  0  0  0  0  0
  182.4110  176.0650  137.0070 C   0  0  1  0  0  0  0  0  0  0  0  0
  181.1660  178.3310  139.3440 C   0  0  0  0  0  2  0  0  0  0  0  0
  180.3500  176.2040  140.3490 C   0  0  0  0  0  2  0  0  0  0  0  0
  183.3270  178.6060  138.0810 C   0  0  0  0  0  2  0  0  0  0  0  0
  183.8740  177.4160  138.5750 O   0  0  0  0  0  0  0  0  0  0  0  0
  181.5210  177.1560  140.2550 C   0  0  1  0  0  3  0  0  0  0  0  0
  179.9830  175.9320  137.6020 O   0  0  0  0  0  1  0  0  0  0  0  0
  181.3070  175.8050  138.0390 C   0  0  2  0  0  0  0  0  0  0  0  0
  184.8920  177.2790  135.4650 C   0  0  0  0  0  1  0  0  0  0  0  0
  185.0850  176.3520  136.6630 C   0  0  2  0  0  0  0  0  0  0  0  0
  185.3090  174.8830  136.2040 C   0  0  2  0  0  3  0  0  0  0  0  0
  186.0620  174.0620  137.2510 C   0  0  0  0  0  2  0  0  0  0  0  0
  185.2180  172.8900  137.7150 C   0  0  0  0  0  1  0  0  0  0  0  0
  185.9900  174.7450  134.8690 C   0  0  0  0  0  3  0  0  0  0  0  0
  187.2530  174.3370  134.7820 C   0  0  0  0  0  2  0  0  0  0  0  0
  186.2850  176.8550  137.4830 C   0  0  0  0  0  2  0  0  0  0  0  0
  186.7500  178.0920  137.0240 O   0  0  0  0  0  0  0  0  0  0  0  0
  188.1310  178.0470  137.2140 C   0  0  1  0  0  3  0  0  0  0  0  0
  188.4660  176.9700  138.2250 C   0  0  0  0  0  1  0  0  0  0  0  0
  188.9470  177.6670  135.6380 S   0  0  0  0  0  1  0  0  0  0  0  0
  181.3950  175.5370  134.8710 O   0  0  0  0  0  1  0  0  0  0  0  0
  181.8850  176.5830  135.6520 C   0  0  1  0  0  3  0  0  0  0  0  0
  180.8340  177.6810  135.7680 C   0  0  0  0  0  2  0  0  0  0  0  0
  181.2650  178.9620  135.0660 C   0  0  0  0  0  2  0  0  0  0  0  0
  180.7670  181.2980  134.9370 O   0  0  0  0  0  1  0  0  0  0  0  0
  180.7300  180.1910  135.7830 C   0  0  0  0  0  2  0  0  0  0  0  0
  1 14  1  6  0  0  0
  1  9  1  0  0  0  0
  2 10  1  0  0  0  0
  2  7  1  1  0  0  0
  3 12  1  0  0  0  0
  4  6  1  0  0  0  0
  5 26  1  6  0  0  0
  5  3  1  0  0  0  0
  5  1  1  0  0  0  0
  5 12  1  0  0  0  0
  8  9  1  0  0  0  0
  8  4  1  0  0  0  0
 10  6  1  6  0  0  0
 10  7  1  0  0  0  0
 12 11  1  6  0  0  0
 12  2  1  0  0  0  0
 14 13  1  6  0  0  0
 14 20  1  0  0  0  0
 15 18  1  6  0  0  0
 15 14  1  0  0  0  0
 15 16  1  0  0  0  0
 16 17  1  0  0  0  0
 19 18  2  0  0  0  0
 21 22  1  0  0  0  0
 21 20  1  0  0  0  0
 22 23  1  1  0  0  0
 24 22  1  0  0  0  0
 26 25  1  1  0  0  0
 26 27  1  0  0  0  0
 28 27  1  0  0  0  0
 28 30  1  0  0  0  0
 29 30  1  0  0  0  0
M  END
>  <MODEL>
8

>  <REMARK>
 VINA RESULT:      -3.2      2.711      4.517
  Name = 
  11 active torsions:
  status: ('A' for Active; 'I' for Inactive)
    1  A    between atoms: C_2  and  C_14
    2  A    between atoms: C_3  and  O_19
    3  A    between atoms: C_4  and  C_22
    4  A    between atoms: C_6  and  C_12
    5  A    between atoms: C_6  and  C_17
    6  A    between atoms: C_12  and  C_13
    7  A    between atoms: C_14  and  C_20
    8  A    between atoms: C_14  and  C_22
    9  A    between atoms: C_17  and  C_21
   10  A    between atoms: O_19  and  C_29
   11  A    between atoms: C_22  and  C_29
                            x       y       z     vdW  Elec       q    Type
                         _______ _______ _______ _____ _____    ______ ____

>  <TORSDO>
F 11

$$$$
=
 OpenBabel10272413443D

 30 32  0  0  1  0  0  0  0  0999 V2000
  189.3540  175.3870  135.7280 C   0  0  2  0  0  3  0  0  0  0  0  0
  186.9800  176.9320  134.5400 C   0  0  2  0  0  3  0  0  0  0  0  0
  189.2360  177.8880  135.1370 C   0  0  0  0  0  2  0  0  0  0  0  0
  186.2240  174.4650  136.9740 C   0  0  0  0  0  2  0  0  0  0  0  0
  189.0780  176.8400  136.2270 C   0  0  1  0  0  0  0  0  0  0  0  0
  185.7530  175.8460  136.5380 C   0  0  0  0  0  2  0  0  0  0  0  0
  185.5410  177.4170  134.6190 C   0  0  0  0  0  2  0  0  0  0  0  0
  187.7430  174.3760  137.0010 C   0  0  0  0  0  2  0  0  0  0  0  0
  188.2530  174.5020  135.7030 O   0  0  0  0  0  0  0  0  0  0  0  0
  185.8590  175.9950  135.0210 C   0  0  1  0  0  3  0  0  0  0  0  0
  187.3250  178.6200  136.3860 O   0  0  0  0  0  1  0  0  0  0  0  0
  187.8500  177.5520  135.6480 C   0  0  2  0  0  0  0  0  0  0  0  0
  190.7130  173.9700  137.2730 C   0  0  0  0  0  1  0  0  0  0  0  0
  190.7340  174.7120  135.9390 C   0  0  2  0  0  0  0  0  0  0  0  0
  191.8550  175.7890  135.9130 C   0  0  2  0  0  3  0  0  0  0  0  0
  192.5420  175.8710  134.5500 C   0  0  0  0  0  2  0  0  0  0  0  0
  194.0350  175.6410  134.6930 C   0  0  0  0  0  1  0  0  0  0  0  0
  192.8920  175.6330  136.9920 C   0  0  0  0  0  3  0  0  0  0  0  0
  193.0210  176.5420  137.9560 C   0  0  0  0  0  2  0  0  0  0  0  0
  190.9390  173.6860  134.8110 C   0  0  0  0  0  2  0  0  0  0  0  0
  191.6000  172.5380  135.2620 O   0  0  0  0  0  0  0  0  0  0  0  0
  191.1500  171.5160  134.4270 C   0  0  1  0  0  3  0  0  0  0  0  0
  191.9230  170.2470  134.7210 C   0  0  0  0  0  1  0  0  0  0  0  0
  189.3830  171.2260  134.7200 S   0  0  0  0  0  1  0  0  0  0  0  0
  189.7310  178.6930  137.6460 O   0  0  0  0  0  1  0  0  0  0  0  0
  189.4670  177.3230  137.6400 C   0  0  1  0  0  3  0  0  0  0  0  0
  188.4470  176.9850  138.7200 C   0  0  0  0  0  2  0  0  0  0  0  0
  188.4120  178.0360  139.8220 C   0  0  0  0  0  2  0  0  0  0  0  0
  190.1170  176.7760  140.9320 O   0  0  0  0  0  1  0  0  0  0  0  0
  188.9260  177.4720  141.1370 C   0  0  0  0  0  2  0  0  0  0  0  0
  1 14  1  1  0  0  0
  1  5  1  0  0  0  0
  2  7  1  1  0  0  0
  2 10  1  0  0  0  0
  2 12  1  0  0  0  0
  3 12  1  0  0  0  0
  3  5  1  0  0  0  0
  4  8  1  0  0  0  0
  5 26  1  1  0  0  0
  6  4  1  0  0  0  0
  9  1  1  0  0  0  0
  9  8  1  0  0  0  0
 10  7  1  1  0  0  0
 10  6  1  0  0  0  0
 12  5  1  0  0  0  0
 12 11  1  1  0  0  0
 14 13  1  1  0  0  0
 15 16  1  6  0  0  0
 15 14  1  0  0  0  0
 15 18  1  0  0  0  0
 16 17  1  0  0  0  0
 18 19  2  0  0  0  0
 20 21  1  0  0  0  0
 20 14  1  0  0  0  0
 22 24  1  0  0  0  0
 22 23  1  1  0  0  0
 22 21  1  0  0  0  0
 26 25  1  6  0  0  0
 26 27  1  0  0  0  0
 27 28  1  0  0  0  0
 28 30  1  0  0  0  0
 29 30  1  0  0  0  0
M  END
>  <MODEL>
9

>  <REMARK>
 VINA RESULT:      -3.2      6.285      9.238
  Name = 
  11 active torsions:
  status: ('A' for Active; 'I' for Inactive)
    1  A    between atoms: C_2  and  C_14
    2  A    between atoms: C_3  and  O_19
    3  A    between atoms: C_4  and  C_22
    4  A    between atoms: C_6  and  C_12
    5  A    between atoms: C_6  and  C_17
    6  A    between atoms: C_12  and  C_13
    7  A    between atoms: C_14  and  C_20
    8  A    between atoms: C_14  and  C_22
    9  A    between atoms: C_17  and  C_21
   10  A    between atoms: O_19  and  C_29
   11  A    between atoms: C_22  and  C_29
                            x       y       z     vdW  Elec       q    Type
                         _______ _______ _______ _____ _____    ______ ____

>  <TORSDO>
F 11

$$$$
