=
 OpenBabel10272401083D

 27 31  0  0  1  0  0  0  0  0999 V2000
  187.5700  178.5140  142.1100 O   0  0  0  0  0  0  0  0  0  0  0  0
  187.9870  177.5720  144.2640 C   0  0  0  0  0  0  0  0  0  0  0  0
  189.6960  176.4630  142.7290 N   0  0  0  0  0  2  0  0  0  0  0  0
  190.5510  177.0090  147.4620 C   0  0  0  0  0  3  0  0  0  0  0  0
  192.6220  176.1020  148.4530 O   0  0  0  0  0  1  0  0  0  0  0  0
  187.6670  178.0240  145.4890 C   0  0  0  0  0  3  0  0  0  0  0  0
  191.4650  176.0170  144.8710 C   0  0  0  0  0  2  0  0  0  0  0  0
  190.1370  177.1120  139.1040 C   0  0  0  0  0  0  0  0  0  0  0  0
  192.2480  175.8370  146.1460 C   0  0  0  0  0  3  0  0  0  0  0  0
  190.9650  176.6280  138.0550 N   0  0  0  0  0  1  0  0  0  0  0  0
  190.1310  176.6980  145.0730 C   0  0  0  0  0  0  0  0  0  0  0  0
  187.0290  177.6790  143.1170 C   0  0  1  0  0  3  0  0  0  0  0  0
  191.8340  176.2990  147.3290 C   0  0  0  0  0  0  0  0  0  0  0  0
  189.7520  177.1950  146.4140 C   0  0  0  0  0  0  0  0  0  0  0  0
  188.4900  178.0520  141.1720 C   0  0  0  0  0  0  0  0  0  0  0  0
  189.2990  176.9140  144.0350 C   0  0  0  0  0  0  0  0  0  0  0  0
  190.2220  176.5470  140.3770 C   0  0  0  0  0  3  0  0  0  0  0  0
  188.5390  177.8660  146.5700 O   0  0  0  0  0  0  0  0  0  0  0  0
  189.2610  178.1700  138.8700 C   0  0  0  0  0  3  0  0  0  0  0  0
  188.4440  178.6350  139.9000 C   0  0  0  0  0  3  0  0  0  0  0  0
  189.4200  177.0100  141.4290 C   0  0  0  0  0  0  0  0  0  0  0  0
  183.0300  178.9050  144.1320 C   0  0  0  0  0  3  0  0  0  0  0  0
  185.6400  178.1230  143.4840 C   0  0  0  0  0  0  0  0  0  0  0  0
  184.6780  178.2660  142.4770 C   0  0  0  0  0  3  0  0  0  0  0  0
  183.3760  178.6590  142.8000 C   0  0  0  0  0  3  0  0  0  0  0  0
  183.9850  178.7570  145.1410 C   0  0  0  0  0  3  0  0  0  0  0  0
  185.2870  178.3660  144.8200 C   0  0  0  0  0  3  0  0  0  0  0  0
  1 12  1  0  0  0  0
  2  6  2  0  0  0  0
  3 16  1  0  0  0  0
  6 18  1  0  0  0  0
  7 11  1  0  0  0  0
  7  9  1  0  0  0  0
  8 17  1  0  0  0  0
  9 13  2  0  0  0  0
 10  8  1  0  0  0  0
 11 14  1  0  0  0  0
 12 23  1  1  0  0  0
 12  2  1  0  0  0  0
 13  4  1  0  0  0  0
 13  5  1  0  0  0  0
 14 18  1  0  0  0  0
 14  4  2  0  0  0  0
 15 21  1  0  0  0  0
 15  1  1  0  0  0  0
 16  2  1  0  0  0  0
 16 11  2  0  0  0  0
 17 21  2  0  0  0  0
 19  8  2  0  0  0  0
 19 20  1  0  0  0  0
 20 15  2  0  0  0  0
 21  3  1  0  0  0  0
 22 26  1  0  0  0  0
 23 27  1  0  0  0  0
 24 25  1  0  0  0  0
 24 23  2  0  0  0  0
 25 22  2  0  0  0  0
 27 26  2  0  0  0  0
M  END
>  <MODEL>
1

>  <REMARK>
 VINA RESULT:     -11.4      0.000      0.000
  Name = 
  1 active torsions:
  status: ('A' for Active; 'I' for Inactive)
    1  A    between atoms: C_9  and  C_15
                            x       y       z     vdW  Elec       q    Type
                         _______ _______ _______ _____ _____    ______ ____

>  <TORSDO>
F 1

$$$$
=
 OpenBabel10272401083D

 27 31  0  0  1  0  0  0  0  0999 V2000
  186.7900  178.8580  140.5410 O   0  0  0  0  0  0  0  0  0  0  0  0
  186.0080  178.3020  142.7270 C   0  0  0  0  0  0  0  0  0  0  0  0
  188.2470  177.0970  142.5140 N   0  0  0  0  0  2  0  0  0  0  0  0
  186.5220  178.4470  146.8300 C   0  0  0  0  0  3  0  0  0  0  0  0
  187.7580  177.8670  148.8880 O   0  0  0  0  0  1  0  0  0  0  0  0
  185.1060  178.9160  143.5120 C   0  0  0  0  0  3  0  0  0  0  0  0
  188.6330  177.1300  145.3000 C   0  0  0  0  0  2  0  0  0  0  0  0
  190.5210  177.1970  139.5860 C   0  0  0  0  0  0  0  0  0  0  0  0
  188.6350  177.2140  146.8050 C   0  0  0  0  0  3  0  0  0  0  0  0
  191.7660  176.6170  139.2170 N   0  0  0  0  0  1  0  0  0  0  0  0
  187.4010  177.7320  144.6640 C   0  0  0  0  0  0  0  0  0  0  0  0
  185.7890  178.1540  141.2530 C   0  0  1  0  0  3  0  0  0  0  0  0
  187.6730  177.8240  147.5030 C   0  0  0  0  0  0  0  0  0  0  0  0
  186.3890  178.4040  145.5070 C   0  0  0  0  0  0  0  0  0  0  0  0
  188.0560  178.3250  140.3090 C   0  0  0  0  0  0  0  0  0  0  0  0
  187.2360  177.7170  143.3260 C   0  0  0  0  0  0  0  0  0  0  0  0
  189.9210  176.8490  140.7960 C   0  0  0  0  0  3  0  0  0  0  0  0
  185.2840  178.9970  144.8960 O   0  0  0  0  0  0  0  0  0  0  0  0
  189.9140  178.1360  138.7540 C   0  0  0  0  0  3  0  0  0  0  0  0
  188.6890  178.6940  139.1160 C   0  0  0  0  0  3  0  0  0  0  0  0
  188.6980  177.4100  141.1850 C   0  0  0  0  0  0  0  0  0  0  0  0
  181.8880  179.2570  139.8070 C   0  0  0  0  0  3  0  0  0  0  0  0
  184.4210  178.5440  140.7680 C   0  0  0  0  0  0  0  0  0  0  0  0
  184.3020  179.3700  139.6440 C   0  0  0  0  0  3  0  0  0  0  0  0
  183.0380  179.7280  139.1660 C   0  0  0  0  0  3  0  0  0  0  0  0
  182.0020  178.4260  140.9250 C   0  0  0  0  0  3  0  0  0  0  0  0
  183.2650  178.0680  141.4040 C   0  0  0  0  0  3  0  0  0  0  0  0
  1 12  1  0  0  0  0
  2 16  1  0  0  0  0
  2  6  2  0  0  0  0
  3 16  1  0  0  0  0
  4 13  1  0  0  0  0
  6 18  1  0  0  0  0
  7  9  1  0  0  0  0
  8 17  1  0  0  0  0
  9 13  2  0  0  0  0
 10  8  1  0  0  0  0
 11  7  1  0  0  0  0
 11 14  1  0  0  0  0
 12 23  1  1  0  0  0
 12  2  1  0  0  0  0
 13  5  1  0  0  0  0
 14  4  2  0  0  0  0
 15  1  1  0  0  0  0
 15 21  1  0  0  0  0
 16 11  2  0  0  0  0
 17 21  2  0  0  0  0
 18 14  1  0  0  0  0
 19 20  1  0  0  0  0
 19  8  2  0  0  0  0
 20 15  2  0  0  0  0
 21  3  1  0  0  0  0
 22 26  1  0  0  0  0
 23 27  1  0  0  0  0
 24 23  2  0  0  0  0
 25 24  1  0  0  0  0
 25 22  2  0  0  0  0
 26 27  2  0  0  0  0
M  END
>  <MODEL>
2

>  <REMARK>
 VINA RESULT:     -10.6      1.983      3.090
  Name = 
  1 active torsions:
  status: ('A' for Active; 'I' for Inactive)
    1  A    between atoms: C_9  and  C_15
                            x       y       z     vdW  Elec       q    Type
                         _______ _______ _______ _____ _____    ______ ____

>  <TORSDO>
F 1

$$$$
=
 OpenBabel10272401083D

 27 31  0  0  1  0  0  0  0  0999 V2000
  189.5550  176.6720  142.8130 O   0  0  0  0  0  0  0  0  0  0  0  0
  187.7950  177.6760  144.0770 C   0  0  0  0  0  0  0  0  0  0  0  0
  187.5250  178.6220  141.7230 N   0  0  0  0  0  2  0  0  0  0  0  0
  183.7450  178.2210  144.7190 C   0  0  0  0  0  3  0  0  0  0  0  0
  181.5250  179.0480  144.0210 O   0  0  0  0  0  1  0  0  0  0  0  0
  187.2250  177.2930  145.2320 C   0  0  0  0  0  3  0  0  0  0  0  0
  184.7720  179.0530  142.1150 C   0  0  0  0  0  2  0  0  0  0  0  0
  189.6200  177.8020  138.7750 C   0  0  0  0  0  0  0  0  0  0  0  0
  183.3360  179.2390  142.5320 C   0  0  0  0  0  3  0  0  0  0  0  0
  189.6930  178.1950  137.4100 N   0  0  0  0  0  1  0  0  0  0  0  0
  185.6430  178.4580  143.1970 C   0  0  0  0  0  0  0  0  0  0  0  0
  189.2750  177.5770  143.8660 C   0  0  1  0  0  3  0  0  0  0  0  0
  182.8650  178.8500  143.7210 C   0  0  0  0  0  0  0  0  0  0  0  0
  185.0410  178.0390  144.4810 C   0  0  0  0  0  0  0  0  0  0  0  0
  189.4860  177.0420  141.4720 C   0  0  0  0  0  0  0  0  0  0  0  0
  186.9590  178.2480  142.9900 C   0  0  0  0  0  0  0  0  0  0  0  0
  188.7000  178.4120  139.6280 C   0  0  0  0  0  3  0  0  0  0  0  0
  185.8520  177.4450  145.4490 O   0  0  0  0  0  0  0  0  0  0  0  0
  190.4460  176.7870  139.2540 C   0  0  0  0  0  3  0  0  0  0  0  0
  190.3760  176.4120  140.5950 C   0  0  0  0  0  3  0  0  0  0  0  0
  188.6050  178.0390  140.9750 C   0  0  0  0  0  0  0  0  0  0  0  0
  191.5110  176.5620  147.4000 C   0  0  0  0  0  3  0  0  0  0  0  0
  190.0740  177.2290  145.0910 C   0  0  0  0  0  0  0  0  0  0  0  0
  189.6030  177.6190  146.3490 C   0  0  0  0  0  3  0  0  0  0  0  0
  190.3210  177.2880  147.5020 C   0  0  0  0  0  3  0  0  0  0  0  0
  191.9820  176.1630  146.1460 C   0  0  0  0  0  3  0  0  0  0  0  0
  191.2650  176.4940  144.9930 C   0  0  0  0  0  3  0  0  0  0  0  0
  1 12  1  0  0  0  0
  2  6  2  0  0  0  0
  3 16  1  0  0  0  0
  6 18  1  0  0  0  0
  7  9  1  0  0  0  0
  7 11  1  0  0  0  0
  8 19  2  0  0  0  0
  8 17  1  0  0  0  0
  9 13  2  0  0  0  0
 10  8  1  0  0  0  0
 11 14  1  0  0  0  0
 12  2  1  0  0  0  0
 12 23  1  1  0  0  0
 13  5  1  0  0  0  0
 13  4  1  0  0  0  0
 14  4  2  0  0  0  0
 14 18  1  0  0  0  0
 15  1  1  0  0  0  0
 16 11  2  0  0  0  0
 16  2  1  0  0  0  0
 17 21  2  0  0  0  0
 19 20  1  0  0  0  0
 20 15  2  0  0  0  0
 21 15  1  0  0  0  0
 21  3  1  0  0  0  0
 22 25  1  0  0  0  0
 23 24  1  0  0  0  0
 24 25  2  0  0  0  0
 26 22  2  0  0  0  0
 27 23  2  0  0  0  0
 27 26  1  0  0  0  0
M  END
>  <MODEL>
3

>  <REMARK>
 VINA RESULT:     -10.2      1.711      5.868
  Name = 
  1 active torsions:
  status: ('A' for Active; 'I' for Inactive)
    1  A    between atoms: C_9  and  C_15
                            x       y       z     vdW  Elec       q    Type
                         _______ _______ _______ _____ _____    ______ ____

>  <TORSDO>
F 1

$$$$
=
 OpenBabel10272401083D

 27 31  0  0  1  0  0  0  0  0999 V2000
  189.6350  178.3920  141.6640 O   0  0  0  0  0  0  0  0  0  0  0  0
  187.2770  178.1290  141.4010 C   0  0  0  0  0  0  0  0  0  0  0  0
  187.7470  177.3960  143.7980 N   0  0  0  0  0  2  0  0  0  0  0  0
  183.4370  179.1870  142.5200 C   0  0  0  0  0  3  0  0  0  0  0  0
  181.6070  179.2950  144.1740 O   0  0  0  0  0  1  0  0  0  0  0  0
  186.4320  178.6870  140.5160 C   0  0  0  0  0  3  0  0  0  0  0  0
  185.1370  178.0590  144.6100 C   0  0  0  0  0  3  0  0  0  0  0  0
  191.0540  177.3820  145.4800 C   0  0  0  0  0  0  0  0  0  0  0  0
  183.6950  178.4380  144.8350 C   0  0  0  0  0  3  0  0  0  0  0  0
  191.5710  177.0100  146.7510 N   0  0  0  0  0  1  0  0  0  0  0  0
  185.5970  178.2550  143.1840 C   0  0  0  0  0  0  0  0  0  0  0  0
  188.6350  177.6510  140.9890 C   0  0  1  0  0  3  0  0  0  0  0  0
  182.9210  178.9620  143.8800 C   0  0  0  0  0  0  0  0  0  0  0  0
  184.6830  178.8570  142.1890 C   0  0  1  0  0  3  0  0  0  0  0  0
  190.0330  178.0960  142.9660 C   0  0  0  0  0  0  0  0  0  0  0  0
  186.8550  177.9420  142.8130 C   0  0  0  0  0  0  0  0  0  0  0  0
  189.7070  177.1630  145.1840 C   0  0  0  0  0  3  0  0  0  0  0  0
  185.1430  179.0760  140.8910 O   0  0  0  0  0  0  0  0  0  0  0  0
  191.8820  177.9910  144.5400 C   0  0  0  0  0  3  0  0  0  0  0  0
  191.3710  178.3440  143.2910 C   0  0  0  0  0  3  0  0  0  0  0  0
  189.1720  177.5260  143.9410 C   0  0  0  0  0  0  0  0  0  0  0  0
  189.3170  177.5940  136.7400 C   0  0  0  0  0  3  0  0  0  0  0  0
  188.8890  177.6450  139.5070 C   0  0  0  0  0  0  0  0  0  0  0  0
  188.9600  176.4230  138.8290 C   0  0  0  0  0  3  0  0  0  0  0  0
  189.1760  176.3970  137.4480 C   0  0  0  0  0  3  0  0  0  0  0  0
  189.2400  178.8170  137.4110 C   0  0  0  0  0  3  0  0  0  0  0  0
  189.0250  178.8440  138.7920 C   0  0  0  0  0  3  0  0  0  0  0  0
  1 15  1  0  0  0  0
  2 16  1  0  0  0  0
  3 21  1  0  0  0  0
  4 13  2  0  0  0  0
  6 18  1  0  0  0  0
  6  2  2  0  0  0  0
  7  9  2  0  0  0  0
  8 10  1  0  0  0  0
 11  7  1  0  0  0  0
 12 23  1  6  0  0  0
 12  2  1  0  0  0  0
 12  1  1  0  0  0  0
 13  5  1  0  0  0  0
 13  9  1  0  0  0  0
 14  4  1  6  0  0  0
 14 11  1  0  0  0  0
 15 20  2  0  0  0  0
 15 21  1  0  0  0  0
 16 11  2  0  0  0  0
 16  3  1  0  0  0  0
 17  8  1  0  0  0  0
 18 14  1  0  0  0  0
 19  8  2  0  0  0  0
 20 19  1  0  0  0  0
 21 17  2  0  0  0  0
 22 26  2  0  0  0  0
 22 25  1  0  0  0  0
 24 23  1  0  0  0  0
 25 24  2  0  0  0  0
 26 27  1  0  0  0  0
 27 23  2  0  0  0  0
M  END
>  <MODEL>
4

>  <REMARK>
 VINA RESULT:      -9.9      2.550      6.693
  Name = 
  1 active torsions:
  status: ('A' for Active; 'I' for Inactive)
    1  A    between atoms: C_9  and  C_15
                            x       y       z     vdW  Elec       q    Type
                         _______ _______ _______ _____ _____    ______ ____

>  <TORSDO>
F 1

$$$$
=
 OpenBabel10272401083D

 27 31  0  0  1  0  0  0  0  0999 V2000
  188.1360  177.0530  143.1420 O   0  0  0  0  0  0  0  0  0  0  0  0
  186.0610  178.2290  143.2490 C   0  0  0  0  0  0  0  0  0  0  0  0
  186.9690  178.7260  140.9180 N   0  0  0  0  0  2  0  0  0  0  0  0
  182.2160  178.7880  141.8280 C   0  0  0  0  0  3  0  0  0  0  0  0
  180.6280  179.4240  140.0480 O   0  0  0  0  0  1  0  0  0  0  0  0
  184.9990  178.0490  144.0530 C   0  0  0  0  0  3  0  0  0  0  0  0
  184.3810  179.1580  139.9030 C   0  0  0  0  0  2  0  0  0  0  0  0
  190.1310  177.4340  139.4720 C   0  0  0  0  0  0  0  0  0  0  0  0
  182.9300  179.3840  139.5650 C   0  0  0  0  0  3  0  0  0  0  0  0
  190.8510  177.5750  138.2550 N   0  0  0  0  0  1  0  0  0  0  0  0
  184.6140  178.7890  141.3500 C   0  0  0  0  0  0  0  0  0  0  0  0
  187.4610  178.1260  143.7710 C   0  0  1  0  0  3  0  0  0  0  0  0
  181.9390  179.2060  140.4440 C   0  0  0  0  0  0  0  0  0  0  0  0
  183.4610  178.5960  142.2570 C   0  0  0  0  0  0  0  0  0  0  0  0
  188.7180  177.1720  141.8820 C   0  0  0  0  0  0  0  0  0  0  0  0
  185.8590  178.5750  141.8180 C   0  0  0  0  0  0  0  0  0  0  0  0
  188.9620  178.1670  139.6810 C   0  0  0  0  0  3  0  0  0  0  0  0
  183.6940  178.2060  143.5760 O   0  0  0  0  0  0  0  0  0  0  0  0
  190.5750  176.5410  140.4460 C   0  0  0  0  0  3  0  0  0  0  0  0
  189.8700  176.4140  141.6430 C   0  0  0  0  0  3  0  0  0  0  0  0
  188.2320  178.0420  140.8700 C   0  0  0  0  0  0  0  0  0  0  0  0
  187.8580  177.8560  148.0490 C   0  0  0  0  0  3  0  0  0  0  0  0
  187.5800  178.0240  145.2670 C   0  0  0  0  0  0  0  0  0  0  0  0
  188.7380  177.4720  145.8260 C   0  0  0  0  0  3  0  0  0  0  0  0
  188.8760  177.3860  147.2140 C   0  0  0  0  0  3  0  0  0  0  0  0
  186.7020  178.4140  147.4950 C   0  0  0  0  0  3  0  0  0  0  0  0
  186.5630  178.5000  146.1070 C   0  0  0  0  0  3  0  0  0  0  0  0
  1 12  1  0  0  0  0
  2 12  1  0  0  0  0
  2  6  2  0  0  0  0
  3 16  1  0  0  0  0
  4 14  2  0  0  0  0
  5 13  1  0  0  0  0
  7 11  1  0  0  0  0
  8 17  2  0  0  0  0
  8 19  1  0  0  0  0
  9  7  1  0  0  0  0
  9 13  2  0  0  0  0
 10  8  1  0  0  0  0
 11 16  2  0  0  0  0
 11 14  1  0  0  0  0
 12 23  1  1  0  0  0
 13  4  1  0  0  0  0
 14 18  1  0  0  0  0
 15  1  1  0  0  0  0
 16  2  1  0  0  0  0
 17 21  1  0  0  0  0
 18  6  1  0  0  0  0
 19 20  2  0  0  0  0
 20 15  1  0  0  0  0
 21  3  1  0  0  0  0
 21 15  2  0  0  0  0
 23 24  2  0  0  0  0
 23 27  1  0  0  0  0
 24 25  1  0  0  0  0
 25 22  2  0  0  0  0
 26 22  1  0  0  0  0
 27 26  2  0  0  0  0
M  END
>  <MODEL>
5

>  <REMARK>
 VINA RESULT:      -9.9      2.311      6.309
  Name = 
  1 active torsions:
  status: ('A' for Active; 'I' for Inactive)
    1  A    between atoms: C_9  and  C_15
                            x       y       z     vdW  Elec       q    Type
                         _______ _______ _______ _____ _____    ______ ____

>  <TORSDO>
F 1

$$$$
=
 OpenBabel10272401083D

 27 31  0  0  1  0  0  0  0  0999 V2000
  189.8370  178.0810  142.9090 O   0  0  0  0  0  0  0  0  0  0  0  0
  188.0860  177.8600  141.3020 C   0  0  0  0  0  0  0  0  0  0  0  0
  186.9630  177.4110  143.5480 N   0  0  0  0  0  2  0  0  0  0  0  0
  184.4600  179.1630  139.7940 C   0  0  0  0  0  3  0  0  0  0  0  0
  182.0260  179.5270  139.9980 O   0  0  0  0  0  1  0  0  0  0  0  0
  187.9930  178.3300  140.0460 C   0  0  0  0  0  3  0  0  0  0  0  0
  184.4620  178.2480  142.5680 C   0  0  0  0  0  3  0  0  0  0  0  0
  188.6000  177.5030  146.8750 C   0  0  0  0  0  0  0  0  0  0  0  0
  183.2160  178.6950  141.8480 C   0  0  0  0  0  3  0  0  0  0  0  0
  188.2200  177.2750  148.2260 N   0  0  0  0  0  1  0  0  0  0  0  0
  185.6980  178.2540  141.6970 C   0  0  0  0  0  0  0  0  0  0  0  0
  189.3680  177.2940  141.8300 C   0  0  1  0  0  3  0  0  0  0  0  0
  183.2170  179.1210  140.5820 C   0  0  0  0  0  0  0  0  0  0  0  0
  185.6180  178.7560  140.3080 C   0  0  2  0  0  3  0  0  0  0  0  0
  189.3500  177.9350  144.2070 C   0  0  0  0  0  0  0  0  0  0  0  0
  186.8910  177.8600  142.1840 C   0  0  0  0  0  0  0  0  0  0  0  0
  187.6800  177.2910  145.8470 C   0  0  0  0  0  3  0  0  0  0  0  0
  186.7790  178.8010  139.5360 O   0  0  0  0  0  0  0  0  0  0  0  0
  189.8790  177.9670  146.5780 C   0  0  0  0  0  3  0  0  0  0  0  0
  190.2490  178.1810  145.2510 C   0  0  0  0  0  3  0  0  0  0  0  0
  188.0280  177.5140  144.5080 C   0  0  0  0  0  0  0  0  0  0  0  0
  192.5050  176.7120  138.9410 C   0  0  0  0  0  3  0  0  0  0  0  0
  190.4510  177.0990  140.8060 C   0  0  0  0  0  0  0  0  0  0  0  0
  191.7610  177.4820  141.1140 C   0  0  0  0  0  3  0  0  0  0  0  0
  192.7870  177.2910  140.1820 C   0  0  0  0  0  3  0  0  0  0  0  0
  191.1990  176.3220  138.6320 C   0  0  0  0  0  3  0  0  0  0  0  0
  190.1730  176.5130  139.5630 C   0  0  0  0  0  3  0  0  0  0  0  0
  1 15  1  0  0  0  0
  2 12  1  0  0  0  0
  2 16  1  0  0  0  0
  3 21  1  0  0  0  0
  4 13  2  0  0  0  0
  5 13  1  0  0  0  0
  6  2  2  0  0  0  0
  8 10  1  0  0  0  0
  9  7  2  0  0  0  0
 11 16  2  0  0  0  0
 11  7  1  0  0  0  0
 12 23  1  6  0  0  0
 12  1  1  0  0  0  0
 13  9  1  0  0  0  0
 14  4  1  1  0  0  0
 14 11  1  0  0  0  0
 15 21  2  0  0  0  0
 15 20  1  0  0  0  0
 16  3  1  0  0  0  0
 17  8  2  0  0  0  0
 18  6  1  0  0  0  0
 18 14  1  0  0  0  0
 19  8  1  0  0  0  0
 20 19  2  0  0  0  0
 21 17  1  0  0  0  0
 22 25  1  0  0  0  0
 23 24  1  0  0  0  0
 25 24  2  0  0  0  0
 26 22  2  0  0  0  0
 26 27  1  0  0  0  0
 27 23  2  0  0  0  0
M  END
>  <MODEL>
6

>  <REMARK>
 VINA RESULT:      -9.9      2.559      7.672
  Name = 
  1 active torsions:
  status: ('A' for Active; 'I' for Inactive)
    1  A    between atoms: C_9  and  C_15
                            x       y       z     vdW  Elec       q    Type
                         _______ _______ _______ _____ _____    ______ ____

>  <TORSDO>
F 1

$$$$
=
 OpenBabel10272401083D

 27 31  0  0  1  0  0  0  0  0999 V2000
  189.4320  176.8970  140.7500 O   0  0  0  0  0  0  0  0  0  0  0  0
  187.6710  177.9560  141.9640 C   0  0  0  0  0  0  0  0  0  0  0  0
  187.2970  178.6530  139.5390 N   0  0  0  0  0  2  0  0  0  0  0  0
  183.6220  178.4130  142.6810 C   0  0  0  0  0  3  0  0  0  0  0  0
  181.3530  179.0850  141.9770 O   0  0  0  0  0  1  0  0  0  0  0  0
  187.1500  177.6690  143.1700 C   0  0  0  0  0  3  0  0  0  0  0  0
  184.5420  179.0200  139.9750 C   0  0  0  0  0  2  0  0  0  0  0  0
  189.3380  177.6220  136.6190 C   0  0  0  0  0  0  0  0  0  0  0  0
  183.1120  179.1940  140.4190 C   0  0  0  0  0  3  0  0  0  0  0  0
  189.3570  177.8800  135.2220 N   0  0  0  0  0  1  0  0  0  0  0  0
  185.4660  178.5670  141.0820 C   0  0  0  0  0  0  0  0  0  0  0  0
  189.1470  177.8910  141.7170 C   0  0  1  0  0  3  0  0  0  0  0  0
  182.6900  178.9080  141.6540 C   0  0  0  0  0  0  0  0  0  0  0  0
  184.9180  178.2560  142.4200 C   0  0  0  0  0  0  0  0  0  0  0  0
  189.3110  177.1290  139.3820 C   0  0  0  0  0  0  0  0  0  0  0  0
  186.7820  178.3860  140.8550 C   0  0  0  0  0  0  0  0  0  0  0  0
  188.4190  178.2800  137.4380 C   0  0  0  0  0  3  0  0  0  0  0  0
  185.7790  177.7920  143.4140 O   0  0  0  0  0  0  0  0  0  0  0  0
  190.2160  176.6900  137.1690 C   0  0  0  0  0  3  0  0  0  0  0  0
  190.2000  176.4480  138.5420 C   0  0  0  0  0  3  0  0  0  0  0  0
  188.3770  178.0390  138.8180 C   0  0  0  0  0  0  0  0  0  0  0  0
  191.6070  177.2950  145.1980 C   0  0  0  0  0  3  0  0  0  0  0  0
  189.9940  177.6950  142.9430 C   0  0  0  0  0  0  0  0  0  0  0  0
  190.4020  176.4040  143.2960 C   0  0  0  0  0  3  0  0  0  0  0  0
  191.2050  176.2030  144.4220 C   0  0  0  0  0  3  0  0  0  0  0  0
  191.2070  178.5870  144.8460 C   0  0  0  0  0  3  0  0  0  0  0  0
  190.4030  178.7880  143.7210 C   0  0  0  0  0  3  0  0  0  0  0  0
  1 12  1  0  0  0  0
  2  6  2  0  0  0  0
  3 16  1  0  0  0  0
  6 18  1  0  0  0  0
  7  9  1  0  0  0  0
  7 11  1  0  0  0  0
  8 19  2  0  0  0  0
  8 17  1  0  0  0  0
  9 13  2  0  0  0  0
 10  8  1  0  0  0  0
 11 14  1  0  0  0  0
 12  2  1  0  0  0  0
 12 23  1  1  0  0  0
 13  5  1  0  0  0  0
 13  4  1  0  0  0  0
 14  4  2  0  0  0  0
 14 18  1  0  0  0  0
 15  1  1  0  0  0  0
 16 11  2  0  0  0  0
 16  2  1  0  0  0  0
 17 21  2  0  0  0  0
 19 20  1  0  0  0  0
 20 15  2  0  0  0  0
 21 15  1  0  0  0  0
 21  3  1  0  0  0  0
 23 24  2  0  0  0  0
 23 27  1  0  0  0  0
 24 25  1  0  0  0  0
 25 22  2  0  0  0  0
 26 22  1  0  0  0  0
 27 26  2  0  0  0  0
M  END
>  <MODEL>
7

>  <REMARK>
 VINA RESULT:      -9.6      2.596      6.363
  Name = 
  1 active torsions:
  status: ('A' for Active; 'I' for Inactive)
    1  A    between atoms: C_9  and  C_15
                            x       y       z     vdW  Elec       q    Type
                         _______ _______ _______ _____ _____    ______ ____

>  <TORSDO>
F 1

$$$$
=
 OpenBabel10272401083D

 27 31  0  0  1  0  0  0  0  0999 V2000
  187.4910  177.2440  142.1420 O   0  0  0  0  0  0  0  0  0  0  0  0
  189.6820  177.1480  143.0870 C   0  0  0  0  0  0  0  0  0  0  0  0
  188.2220  178.1300  144.9340 N   0  0  0  0  0  2  0  0  0  0  0  0
  192.2490  175.6510  145.9650 C   0  0  0  0  0  3  0  0  0  0  0  0
  192.9870  175.4180  148.3100 O   0  0  0  0  0  1  0  0  0  0  0  0
  190.7480  176.4080  142.7380 C   0  0  0  0  0  3  0  0  0  0  0  0
  189.9510  177.1710  146.9350 C   0  0  0  0  0  3  0  0  0  0  0  0
  184.5690  178.7450  144.7500 C   0  0  0  0  0  0  0  0  0  0  0  0
  191.0140  176.6110  147.8460 C   0  0  0  0  0  3  0  0  0  0  0  0
  183.5620  179.2860  145.5960 N   0  0  0  0  0  1  0  0  0  0  0  0
  190.2250  176.9290  145.4680 C   0  0  0  0  0  0  0  0  0  0  0  0
  188.7980  177.7800  142.0540 C   0  0  1  0  0  3  0  0  0  0  0  0
  192.0600  175.9090  147.4020 C   0  0  0  0  0  0  0  0  0  0  0  0
  191.3980  176.1270  145.0590 C   0  0  1  0  0  3  0  0  0  0  0  0
  186.5600  177.6960  143.0750 C   0  0  0  0  0  0  0  0  0  0  0  0
  189.3810  177.3860  144.5220 C   0  0  0  0  0  0  0  0  0  0  0  0
  185.9020  178.7460  145.1630 C   0  0  0  0  0  3  0  0  0  0  0  0
  191.6060  175.8720  143.7030 O   0  0  0  0  0  0  0  0  0  0  0  0
  184.2220  178.1860  143.5220 C   0  0  0  0  0  3  0  0  0  0  0  0
  185.2140  177.6660  142.6920 C   0  0  0  0  0  3  0  0  0  0  0  0
  186.9110  178.2140  144.3500 C   0  0  0  0  0  0  0  0  0  0  0  0
  190.2550  177.6210  138.0080 C   0  0  0  0  0  3  0  0  0  0  0  0
  189.3090  177.7030  140.6430 C   0  0  0  0  0  0  0  0  0  0  0  0
  188.6470  178.4130  139.6350 C   0  0  0  0  0  3  0  0  0  0  0  0
  189.1170  178.3710  138.3190 C   0  0  0  0  0  3  0  0  0  0  0  0
  190.9240  176.9160  139.0120 C   0  0  0  0  0  3  0  0  0  0  0  0
  190.4540  176.9570  140.3270 C   0  0  0  0  0  3  0  0  0  0  0  0
  1 15  1  0  0  0  0
  2 16  1  0  0  0  0
  4 13  2  0  0  0  0
  6  2  2  0  0  0  0
  6 18  1  0  0  0  0
  7  9  2  0  0  0  0
  8 17  1  0  0  0  0
  8 10  1  0  0  0  0
 11  7  1  0  0  0  0
 12 23  1  6  0  0  0
 12  1  1  0  0  0  0
 12  2  1  0  0  0  0
 13  9  1  0  0  0  0
 13  5  1  0  0  0  0
 14 11  1  0  0  0  0
 14  4  1  6  0  0  0
 15 21  1  0  0  0  0
 16  3  1  0  0  0  0
 16 11  2  0  0  0  0
 18 14  1  0  0  0  0
 19  8  2  0  0  0  0
 20 15  2  0  0  0  0
 20 19  1  0  0  0  0
 21  3  1  0  0  0  0
 21 17  2  0  0  0  0
 22 25  2  0  0  0  0
 22 26  1  0  0  0  0
 24 23  2  0  0  0  0
 25 24  1  0  0  0  0
 26 27  2  0  0  0  0
 27 23  1  0  0  0  0
M  END
>  <MODEL>
8

>  <REMARK>
 VINA RESULT:      -9.6      1.980      5.225
  Name = 
  1 active torsions:
  status: ('A' for Active; 'I' for Inactive)
    1  A    between atoms: C_9  and  C_15
                            x       y       z     vdW  Elec       q    Type
                         _______ _______ _______ _____ _____    ______ ____

>  <TORSDO>
F 1

$$$$
=
 OpenBabel10272401083D

 27 31  0  0  1  0  0  0  0  0999 V2000
  184.9160  177.8450  141.0720 O   0  0  0  0  0  0  0  0  0  0  0  0
  186.7520  178.1410  142.5690 C   0  0  0  0  0  0  0  0  0  0  0  0
  184.7370  179.0790  143.8210 N   0  0  0  0  0  2  0  0  0  0  0  0
  188.5580  177.2880  146.1930 C   0  0  0  0  0  3  0  0  0  0  0  0
  188.6310  177.3790  148.6590 O   0  0  0  0  0  1  0  0  0  0  0  0
  187.9470  177.5270  142.6140 C   0  0  0  0  0  3  0  0  0  0  0  0
  185.9310  178.5590  146.3150 C   0  0  0  0  0  3  0  0  0  0  0  0
  181.2370  179.1640  142.5970 C   0  0  0  0  0  0  0  0  0  0  0  0
  186.7500  178.2400  147.5390 C   0  0  0  0  0  3  0  0  0  0  0  0
  179.9820  179.6360  143.0690 N   0  0  0  0  0  1  0  0  0  0  0  0
  186.6280  178.2220  145.0170 C   0  0  0  0  0  0  0  0  0  0  0  0
  186.1300  178.5450  141.2680 C   0  0  1  0  0  3  0  0  0  0  0  0
  187.9480  177.6500  147.4820 C   0  0  0  0  0  0  0  0  0  0  0  0
  187.9480  177.5550  145.0400 C   0  0  1  0  0  3  0  0  0  0  0  0
  183.7180  178.2480  141.6590 C   0  0  0  0  0  0  0  0  0  0  0  0
  186.0380  178.4680  143.8310 C   0  0  0  0  0  0  0  0  0  0  0  0
  182.3940  179.3880  143.3450 C   0  0  0  0  0  3  0  0  0  0  0  0
  188.5520  177.2070  143.8320 O   0  0  0  0  0  0  0  0  0  0  0  0
  181.3100  178.4500  141.4020 C   0  0  0  0  0  3  0  0  0  0  0  0
  182.5440  177.9970  140.9390 C   0  0  0  0  0  3  0  0  0  0  0  0
  183.6410  178.9270  142.9040 C   0  0  0  0  0  0  0  0  0  0  0  0
  188.6430  178.1930  137.7910 C   0  0  0  0  0  3  0  0  0  0  0  0
  187.0200  178.4090  140.0640 C   0  0  0  0  0  0  0  0  0  0  0  0
  186.4440  178.1960  138.8070 C   0  0  0  0  0  3  0  0  0  0  0  0
  187.2540  178.0850  137.6720 C   0  0  0  0  0  3  0  0  0  0  0  0
  189.2220  178.4130  139.0440 C   0  0  0  0  0  3  0  0  0  0  0  0
  188.4130  178.5230  140.1780 C   0  0  0  0  0  3  0  0  0  0  0  0
  1 12  1  0  0  0  0
  1 15  1  0  0  0  0
  2  6  2  0  0  0  0
  2 16  1  0  0  0  0
  3 16  1  0  0  0  0
  4 13  2  0  0  0  0
  6 18  1  0  0  0  0
  7  9  2  0  0  0  0
  8 10  1  0  0  0  0
  8 17  1  0  0  0  0
 11 14  1  0  0  0  0
 11  7  1  0  0  0  0
 12 23  1  6  0  0  0
 12  2  1  0  0  0  0
 13  9  1  0  0  0  0
 13  5  1  0  0  0  0
 14  4  1  6  0  0  0
 15 21  1  0  0  0  0
 16 11  2  0  0  0  0
 18 14  1  0  0  0  0
 19  8  2  0  0  0  0
 20 19  1  0  0  0  0
 20 15  2  0  0  0  0
 21 17  2  0  0  0  0
 21  3  1  0  0  0  0
 22 26  1  0  0  0  0
 23 27  1  0  0  0  0
 24 23  2  0  0  0  0
 25 22  2  0  0  0  0
 25 24  1  0  0  0  0
 26 27  2  0  0  0  0
M  END
>  <MODEL>
9

>  <REMARK>
 VINA RESULT:      -9.3      2.850      5.947
  Name = 
  1 active torsions:
  status: ('A' for Active; 'I' for Inactive)
    1  A    between atoms: C_9  and  C_15
                            x       y       z     vdW  Elec       q    Type
                         _______ _______ _______ _____ _____    ______ ____

>  <TORSDO>
F 1

$$$$
