=
 OpenBabel10262423433D

 34 38  0  0  1  0  0  0  0  0999 V2000
  189.1370  176.7310  141.5880 N   0  0  0  0  0  0  0  0  0  0  0  0
  191.4990  176.7600  142.0540 C   0  0  0  0  0  2  0  0  0  0  0  0
  189.3110  176.2480  142.9570 C   0  0  0  0  0  2  0  0  0  0  0  0
  190.7950  176.2850  143.3010 C   0  0  2  0  0  3  0  0  0  0  0  0
  190.4590  176.5640  140.9720 C   0  0  2  0  0  3  0  0  0  0  0  0
  191.0770  175.9530  137.7330 C   0  0  0  0  0  0  0  0  0  0  0  0
  193.0680  176.7430  138.8990 C   0  0  0  0  0  0  0  0  0  0  0  0
  190.6880  177.4120  139.7040 C   0  0  1  0  0  3  0  0  0  0  0  0
  193.2520  174.7380  137.4270 C   0  0  0  0  0  2  0  0  0  0  0  0
  193.8810  175.8370  138.1520 N   0  0  0  0  0  2  0  0  0  0  0  0
  191.6020  176.6960  138.7310 C   0  0  0  0  0  0  0  0  0  0  0  0
  191.9630  175.2200  136.7580 C   0  0  0  0  0  2  0  0  0  0  0  0
  189.4190  177.6940  139.0960 O   0  0  0  0  0  0  0  0  0  0  0  0
  189.6320  175.9990  137.4610 C   0  0  0  0  0  3  0  0  0  0  0  0
  193.6050  177.5830  139.6670 O   0  0  0  0  0  0  0  0  0  0  0  0
  188.8600  176.8600  138.1200 C   0  0  0  0  0  3  0  0  0  0  0  0
  191.0710  177.2170  144.4750 C   0  0  0  0  0  2  0  0  0  0  0  0
  190.6880  176.6090  145.7050 O   0  0  0  0  0  0  0  0  0  0  0  0
  191.4540  177.4470  148.2560 O   0  0  0  0  0  1  0  0  0  0  0  0
  189.7430  177.1710  146.5670 C   0  0  0  0  0  0  0  0  0  0  0  0
  190.1350  177.5880  147.8450 C   0  0  0  0  0  0  0  0  0  0  0  0
  187.8730  178.2900  148.2920 C   0  0  0  0  0  3  0  0  0  0  0  0
  187.5060  177.8820  147.0480 N   0  0  0  0  0  0  0  0  0  0  0  0
  188.4030  177.3320  146.1860 C   0  0  0  0  0  3  0  0  0  0  0  0
  189.1960  178.1500  148.7130 C   0  0  0  0  0  3  0  0  0  0  0  0
  188.7830  178.1490  141.6890 C   0  0  0  0  0  2  0  0  0  0  0  0
  184.5300  178.5660  142.0260 C   0  0  0  0  0  0  0  0  0  0  0  0
  186.5540  178.7190  140.7040 C   0  0  0  0  0  3  0  0  0  0  0  0
  185.2820  178.1430  143.1280 C   0  0  0  0  0  3  0  0  0  0  0  0
  185.1670  178.8490  140.8140 C   0  0  0  0  0  3  0  0  0  0  0  0
  186.6700  178.0120  143.0190 C   0  0  0  0  0  3  0  0  0  0  0  0
  187.3070  178.3060  141.8090 C   0  0  0  0  0  0  0  0  0  0  0  0
  182.7550  178.7270  142.1640 S   0  0  0  0  0  0  0  0  0  0  0  0
  182.8430  178.9560  144.2790 S   0  0  0  0  0  1  0  0  0  0  0  0
  1 26  1  0  0  0  0
  1  3  1  0  0  0  0
  2  4  1  0  0  0  0
  3  4  1  0  0  0  0
  4 17  1  1  0  0  0
  5  1  1  0  0  0  0
  5  2  1  1  0  0  0
  6 11  2  0  0  0  0
  7 15  2  0  0  0  0
  8 11  1  6  0  0  0
  8  5  1  0  0  0  0
  9 10  1  0  0  0  0
 10  7  1  0  0  0  0
 11  7  1  0  0  0  0
 12  9  1  0  0  0  0
 12  6  1  0  0  0  0
 13  8  1  0  0  0  0
 14  6  1  0  0  0  0
 14 16  2  0  0  0  0
 16 13  1  0  0  0  0
 17 18  1  0  0  0  0
 18 20  1  0  0  0  0
 20 21  1  0  0  0  0
 21 19  1  0  0  0  0
 21 25  2  0  0  0  0
 22 25  1  0  0  0  0
 23 22  2  0  0  0  0
 24 20  2  0  0  0  0
 24 23  1  0  0  0  0
 26 32  1  0  0  0  0
 27 33  1  0  0  0  0
 27 29  1  0  0  0  0
 28 30  1  0  0  0  0
 28 32  2  0  0  0  0
 30 27  2  0  0  0  0
 31 29  2  0  0  0  0
 32 31  1  0  0  0  0
 33 34  1  0  0  0  0
M  END
>  <MODEL>
1

>  <REMARK>
 VINA RESULT:      -8.8      0.000      0.000
  Name = 
  7 active torsions:
  status: ('A' for Active; 'I' for Inactive)
    1  A    between atoms: O_3  and  C_13
    2  A    between atoms: O_3  and  C_17
    3  A    between atoms: C_4  and  C_31
    4  A    between atoms: N_5  and  C_26
    5  A    between atoms: S_7  and  C_8
    6  A    between atoms: C_17  and  C_29
    7  A    between atoms: C_26  and  C_28
                            x       y       z     vdW  Elec       q    Type
                         _______ _______ _______ _____ _____    ______ ____

>  <TORSDO>
F 7

$$$$
=
 OpenBabel10262423433D

 34 38  0  0  1  0  0  0  0  0999 V2000
  188.9430  176.9230  140.8220 N   0  0  0  0  0  0  0  0  0  0  0  0
  191.2150  176.9610  141.6200 C   0  0  0  0  0  2  0  0  0  0  0  0
  188.9030  176.6000  142.2470 C   0  0  0  0  0  2  0  0  0  0  0  0
  190.3250  176.6480  142.7970 C   0  0  2  0  0  3  0  0  0  0  0  0
  190.3330  176.6610  140.4270 C   0  0  2  0  0  3  0  0  0  0  0  0
  191.4620  175.6680  137.4290 C   0  0  0  0  0  0  0  0  0  0  0  0
  193.2440  176.6190  138.7960 C   0  0  0  0  0  0  0  0  0  0  0  0
  190.7700  177.3520  139.1190 C   0  0  1  0  0  3  0  0  0  0  0  0
  193.6490  174.4530  137.6280 C   0  0  0  0  0  2  0  0  0  0  0  0
  194.1600  175.6390  138.3060 N   0  0  0  0  0  2  0  0  0  0  0  0
  191.8240  176.5340  138.4000 C   0  0  0  0  0  0  0  0  0  0  0  0
  192.4880  174.8340  136.7070 C   0  0  0  0  0  2  0  0  0  0  0  0
  189.6180  177.5420  138.2850 O   0  0  0  0  0  0  0  0  0  0  0  0
  190.0800  175.6630  136.9240 C   0  0  0  0  0  3  0  0  0  0  0  0
  193.6560  177.5530  139.5320 O   0  0  0  0  0  0  0  0  0  0  0  0
  189.2180  176.5880  137.3410 C   0  0  0  0  0  3  0  0  0  0  0  0
  190.4630  177.7050  143.8860 C   0  0  0  0  0  2  0  0  0  0  0  0
  190.3420  177.1190  145.1780 O   0  0  0  0  0  0  0  0  0  0  0  0
  190.8600  177.1730  147.9220 O   0  0  0  0  0  1  0  0  0  0  0  0
  189.3240  177.4600  146.0740 C   0  0  0  0  0  0  0  0  0  0  0  0
  189.5920  177.4840  147.4480 C   0  0  0  0  0  0  0  0  0  0  0  0
  187.3100  178.1360  147.8650 C   0  0  0  0  0  3  0  0  0  0  0  0
  187.0640  178.1100  146.5280 N   0  0  0  0  0  0  0  0  0  0  0  0
  188.0330  177.7820  145.6320 C   0  0  0  0  0  3  0  0  0  0  0  0
  188.5810  177.8230  148.3500 C   0  0  0  0  0  3  0  0  0  0  0  0
  188.6290  178.3500  140.7100 C   0  0  0  0  0  2  0  0  0  0  0  0
  184.4060  178.8740  140.2010 C   0  0  0  0  0  0  0  0  0  0  0  0
  186.5840  178.3720  139.2680 C   0  0  0  0  0  3  0  0  0  0  0  0
  184.9840  179.0360  141.4650 C   0  0  0  0  0  3  0  0  0  0  0  0
  185.2060  178.5380  139.1040 C   0  0  0  0  0  3  0  0  0  0  0  0
  186.3620  178.8690  141.6300 C   0  0  0  0  0  3  0  0  0  0  0  0
  187.1640  178.5440  140.5300 C   0  0  0  0  0  0  0  0  0  0  0  0
  182.6430  179.0800  139.9920 S   0  0  0  0  0  0  0  0  0  0  0  0
  182.6450  178.0500  138.1280 S   0  0  0  0  0  1  0  0  0  0  0  0
  1  3  1  0  0  0  0
  2  4  1  0  0  0  0
  3  4  1  0  0  0  0
  4 17  1  1  0  0  0
  5  1  1  0  0  0  0
  5  2  1  1  0  0  0
  6 11  2  0  0  0  0
  7 15  2  0  0  0  0
  8 13  1  6  0  0  0
  8  5  1  0  0  0  0
  9 10  1  0  0  0  0
 10  7  1  0  0  0  0
 11  7  1  0  0  0  0
 11  8  1  0  0  0  0
 12  6  1  0  0  0  0
 12  9  1  0  0  0  0
 14 16  2  0  0  0  0
 14  6  1  0  0  0  0
 16 13  1  0  0  0  0
 17 18  1  0  0  0  0
 18 20  1  0  0  0  0
 20 21  1  0  0  0  0
 21 19  1  0  0  0  0
 21 25  2  0  0  0  0
 22 25  1  0  0  0  0
 23 22  2  0  0  0  0
 24 20  2  0  0  0  0
 24 23  1  0  0  0  0
 26  1  1  0  0  0  0
 27 29  1  0  0  0  0
 28 32  2  0  0  0  0
 29 31  2  0  0  0  0
 30 28  1  0  0  0  0
 30 27  2  0  0  0  0
 32 26  1  0  0  0  0
 32 31  1  0  0  0  0
 33 27  1  0  0  0  0
 34 33  1  0  0  0  0
M  END
>  <MODEL>
2

>  <REMARK>
 VINA RESULT:      -8.2      1.158      1.469
  Name = 
  7 active torsions:
  status: ('A' for Active; 'I' for Inactive)
    1  A    between atoms: O_3  and  C_13
    2  A    between atoms: O_3  and  C_17
    3  A    between atoms: C_4  and  C_31
    4  A    between atoms: N_5  and  C_26
    5  A    between atoms: S_7  and  C_8
    6  A    between atoms: C_17  and  C_29
    7  A    between atoms: C_26  and  C_28
                            x       y       z     vdW  Elec       q    Type
                         _______ _______ _______ _____ _____    ______ ____

>  <TORSDO>
F 7

$$$$
=
 OpenBabel10262423433D

 34 38  0  0  1  0  0  0  0  0999 V2000
  186.8480  178.5300  142.4570 N   0  0  0  0  0  0  0  0  0  0  0  0
  188.8180  177.5410  141.4890 C   0  0  0  0  0  2  0  0  0  0  0  0
  187.1160  179.2410  141.2080 C   0  0  0  0  0  2  0  0  0  0  0  0
  188.3400  178.6180  140.5460 C   0  0  2  0  0  3  0  0  0  0  0  0
  188.1240  177.8820  142.7890 C   0  0  2  0  0  3  0  0  0  0  0  0
  189.3510  177.1480  145.8220 C   0  0  0  0  0  0  0  0  0  0  0  0
  190.4500  175.8600  144.0660 C   0  0  0  0  0  0  0  0  0  0  0  0
  188.0080  176.7070  143.7800 C   0  0  1  0  0  3  0  0  0  0  0  0
  191.8560  176.9940  145.7860 C   0  0  0  0  0  2  0  0  0  0  0  0
  191.7040  175.9920  144.7370 N   0  0  0  0  0  2  0  0  0  0  0  0
  189.2720  176.5670  144.6050 C   0  0  0  0  0  0  0  0  0  0  0  0
  190.6000  177.0360  146.6580 C   0  0  0  0  0  2  0  0  0  0  0  0
  186.8700  176.9210  144.6270 O   0  0  0  0  0  0  0  0  0  0  0  0
  188.1520  177.7390  146.4370 C   0  0  0  0  0  3  0  0  0  0  0  0
  190.3550  175.1270  143.0470 O   0  0  0  0  0  0  0  0  0  0  0  0
  186.9670  177.5990  145.8480 C   0  0  0  0  0  3  0  0  0  0  0  0
  187.9980  178.0390  139.1790 C   0  0  0  0  0  2  0  0  0  0  0  0
  186.9250  178.7570  138.5790 O   0  0  0  0  0  0  0  0  0  0  0  0
  184.4180  179.9510  138.8780 O   0  0  0  0  0  1  0  0  0  0  0  0
  185.7870  178.1300  138.0620 C   0  0  0  0  0  0  0  0  0  0  0  0
  184.5340  178.7350  138.2170 C   0  0  0  0  0  0  0  0  0  0  0  0
  183.5180  176.8940  137.0390 C   0  0  0  0  0  3  0  0  0  0  0  0
  184.7410  176.3180  136.8950 N   0  0  0  0  0  0  0  0  0  0  0  0
  185.8660  176.9040  137.3860 C   0  0  0  0  0  3  0  0  0  0  0  0
  183.3920  178.1150  137.7040 C   0  0  0  0  0  3  0  0  0  0  0  0
  185.8190  177.5320  142.1560 C   0  0  0  0  0  2  0  0  0  0  0  0
  181.9040  179.1640  142.7730 C   0  0  0  0  0  0  0  0  0  0  0  0
  183.5180  178.0720  141.3340 C   0  0  0  0  0  3  0  0  0  0  0  0
  182.8460  179.1930  143.8080 C   0  0  0  0  0  3  0  0  0  0  0  0
  182.2390  178.5990  141.5390 C   0  0  0  0  0  3  0  0  0  0  0  0
  184.1240  178.6650  143.6040 C   0  0  0  0  0  3  0  0  0  0  0  0
  184.4630  178.1090  142.3650 C   0  0  0  0  0  0  0  0  0  0  0  0
  180.2680  179.8340  143.0360 S   0  0  0  0  0  0  0  0  0  0  0  0
  179.9850  180.2150  140.9600 S   0  0  0  0  0  1  0  0  0  0  0  0
  1  5  1  0  0  0  0
  3  1  1  0  0  0  0
  4 17  1  6  0  0  0
  4  3  1  0  0  0  0
  4  2  1  0  0  0  0
  5  2  1  6  0  0  0
  5  8  1  0  0  0  0
  6 14  1  0  0  0  0
  6 12  1  0  0  0  0
  7 11  1  0  0  0  0
  7 10  1  0  0  0  0
  8 11  1  1  0  0  0
  8 13  1  0  0  0  0
  9 12  1  0  0  0  0
 10  9  1  0  0  0  0
 11  6  2  0  0  0  0
 13 16  1  0  0  0  0
 15  7  2  0  0  0  0
 16 14  2  0  0  0  0
 18 17  1  0  0  0  0
 20 21  1  0  0  0  0
 20 18  1  0  0  0  0
 21 19  1  0  0  0  0
 22 25  1  0  0  0  0
 23 22  2  0  0  0  0
 23 24  1  0  0  0  0
 24 20  2  0  0  0  0
 25 21  2  0  0  0  0
 26 32  1  0  0  0  0
 26  1  1  0  0  0  0
 27 33  1  0  0  0  0
 27 29  1  0  0  0  0
 28 30  1  0  0  0  0
 28 32  2  0  0  0  0
 30 27  2  0  0  0  0
 31 29  2  0  0  0  0
 32 31  1  0  0  0  0
 34 33  1  0  0  0  0
M  END
>  <MODEL>
3

>  <REMARK>
 VINA RESULT:      -8.1      3.256      7.132
  Name = 
  7 active torsions:
  status: ('A' for Active; 'I' for Inactive)
    1  A    between atoms: O_3  and  C_13
    2  A    between atoms: O_3  and  C_17
    3  A    between atoms: C_4  and  C_31
    4  A    between atoms: N_5  and  C_26
    5  A    between atoms: S_7  and  C_8
    6  A    between atoms: C_17  and  C_29
    7  A    between atoms: C_26  and  C_28
                            x       y       z     vdW  Elec       q    Type
                         _______ _______ _______ _____ _____    ______ ____

>  <TORSDO>
F 7

$$$$
=
 OpenBabel10262423433D

 34 38  0  0  1  0  0  0  0  0999 V2000
  186.5970  178.6000  142.3940 N   0  0  0  0  0  0  0  0  0  0  0  0
  188.5730  177.6850  141.3690 C   0  0  0  0  0  2  0  0  0  0  0  0
  186.8150  179.3360  141.1500 C   0  0  0  0  0  2  0  0  0  0  0  0
  188.0420  178.7600  140.4530 C   0  0  2  0  0  3  0  0  0  0  0  0
  187.8980  177.9860  142.6890 C   0  0  2  0  0  3  0  0  0  0  0  0
  189.1260  177.2880  145.7310 C   0  0  0  0  0  0  0  0  0  0  0  0
  190.3230  176.0900  143.9760 C   0  0  0  0  0  0  0  0  0  0  0  0
  187.8390  176.7940  143.6650 C   0  0  1  0  0  3  0  0  0  0  0  0
  191.6360  177.2840  145.7290 C   0  0  0  0  0  2  0  0  0  0  0  0
  191.5570  176.2880  144.6660 N   0  0  0  0  0  2  0  0  0  0  0  0
  189.0970  176.7190  144.5060 C   0  0  0  0  0  0  0  0  0  0  0  0
  190.3670  177.2410  146.5830 C   0  0  0  0  0  2  0  0  0  0  0  0
  186.6780  176.9290  144.4970 O   0  0  0  0  0  0  0  0  0  0  0  0
  187.8850  177.8000  146.3360 C   0  0  0  0  0  3  0  0  0  0  0  0
  190.2860  175.3660  142.9470 O   0  0  0  0  0  0  0  0  0  0  0  0
  186.7180  177.5970  145.7270 C   0  0  0  0  0  3  0  0  0  0  0  0
  187.6870  178.1900  139.0850 C   0  0  0  0  0  2  0  0  0  0  0  0
  188.2970  176.9180  138.8920 O   0  0  0  0  0  0  0  0  0  0  0  0
  190.8960  176.0910  139.4890 O   0  0  0  0  0  1  0  0  0  0  0  0
  189.2010  176.6590  137.8580 C   0  0  0  0  0  0  0  0  0  0  0  0
  190.5030  176.2450  138.1660 C   0  0  0  0  0  0  0  0  0  0  0  0
  191.0080  176.1400  135.8120 C   0  0  0  0  0  3  0  0  0  0  0  0
  189.7410  176.5410  135.5270 N   0  0  0  0  0  0  0  0  0  0  0  0
  188.8390  176.8010  136.5110 C   0  0  0  0  0  3  0  0  0  0  0  0
  191.4130  175.9840  137.1390 C   0  0  0  0  0  3  0  0  0  0  0  0
  185.5910  177.5760  142.1000 C   0  0  0  0  0  2  0  0  0  0  0  0
  181.6360  179.1750  142.5190 C   0  0  0  0  0  0  0  0  0  0  0  0
  183.3500  178.1510  141.1470 C   0  0  0  0  0  3  0  0  0  0  0  0
  182.5040  179.1560  143.6170 C   0  0  0  0  0  3  0  0  0  0  0  0
  182.0580  178.6670  141.2860 C   0  0  0  0  0  3  0  0  0  0  0  0
  183.7950  178.6390  143.4780 C   0  0  0  0  0  3  0  0  0  0  0  0
  184.2210  178.1420  142.2420 C   0  0  0  0  0  0  0  0  0  0  0  0
  179.9830  179.8300  142.6980 S   0  0  0  0  0  0  0  0  0  0  0  0
  179.9820  180.6310  140.7260 S   0  0  0  0  0  1  0  0  0  0  0  0
  1  5  1  0  0  0  0
  3  1  1  0  0  0  0
  4 17  1  6  0  0  0
  4  3  1  0  0  0  0
  4  2  1  0  0  0  0
  5  2  1  6  0  0  0
  5  8  1  0  0  0  0
  6 14  1  0  0  0  0
  6 12  1  0  0  0  0
  7 11  1  0  0  0  0
  7 10  1  0  0  0  0
  8 13  1  1  0  0  0
  8 11  1  0  0  0  0
  9 12  1  0  0  0  0
 10  9  1  0  0  0  0
 11  6  2  0  0  0  0
 13 16  1  0  0  0  0
 15  7  2  0  0  0  0
 16 14  2  0  0  0  0
 18 17  1  0  0  0  0
 20 21  1  0  0  0  0
 20 18  1  0  0  0  0
 21 19  1  0  0  0  0
 22 25  1  0  0  0  0
 23 22  2  0  0  0  0
 23 24  1  0  0  0  0
 24 20  2  0  0  0  0
 25 21  2  0  0  0  0
 26 32  1  0  0  0  0
 26  1  1  0  0  0  0
 27 33  1  0  0  0  0
 27 29  1  0  0  0  0
 28 30  1  0  0  0  0
 28 32  2  0  0  0  0
 30 27  2  0  0  0  0
 31 29  2  0  0  0  0
 32 31  1  0  0  0  0
 34 33  1  0  0  0  0
M  END
>  <MODEL>
4

>  <REMARK>
 VINA RESULT:      -8.0      2.366      7.017
  Name = 
  7 active torsions:
  status: ('A' for Active; 'I' for Inactive)
    1  A    between atoms: O_3  and  C_13
    2  A    between atoms: O_3  and  C_17
    3  A    between atoms: C_4  and  C_31
    4  A    between atoms: N_5  and  C_26
    5  A    between atoms: S_7  and  C_8
    6  A    between atoms: C_17  and  C_29
    7  A    between atoms: C_26  and  C_28
                            x       y       z     vdW  Elec       q    Type
                         _______ _______ _______ _____ _____    ______ ____

>  <TORSDO>
F 7

$$$$
=
 OpenBabel10262423433D

 34 38  0  0  1  0  0  0  0  0999 V2000
  189.9470  177.8880  139.1980 N   0  0  0  0  0  0  0  0  0  0  0  0
  189.3600  177.2180  136.9620 C   0  0  0  0  0  2  0  0  0  0  0  0
  188.9170  178.8130  138.7300 C   0  0  0  0  0  2  0  0  0  0  0  0
  188.4930  178.3980  137.3250 C   0  0  2  0  0  3  0  0  0  0  0  0
  190.4850  177.2880  137.9700 C   0  0  2  0  0  3  0  0  0  0  0  0
  192.0820  175.0770  136.0190 C   0  0  0  0  0  0  0  0  0  0  0  0
  189.9160  174.2330  136.7570 C   0  0  0  0  0  0  0  0  0  0  0  0
  191.2390  175.9600  138.1820 C   0  0  1  0  0  3  0  0  0  0  0  0
  190.5260  174.0370  134.3460 C   0  0  0  0  0  2  0  0  0  0  0  0
  189.7010  173.6330  135.4790 N   0  0  0  0  0  2  0  0  0  0  0  0
  191.1170  175.0670  136.9630 C   0  0  0  0  0  0  0  0  0  0  0  0
  191.9800  174.2100  134.7910 C   0  0  0  0  0  2  0  0  0  0  0  0
  192.6160  176.2440  138.4670 O   0  0  0  0  0  0  0  0  0  0  0  0
  193.3450  175.7920  136.2630 C   0  0  0  0  0  3  0  0  0  0  0  0
  189.1040  174.0250  137.6950 O   0  0  0  0  0  0  0  0  0  0  0  0
  193.5830  176.3300  137.4570 C   0  0  0  0  0  3  0  0  0  0  0  0
  187.0150  178.0300  137.2770 C   0  0  0  0  0  2  0  0  0  0  0  0
  186.2630  178.8340  138.1800 O   0  0  0  0  0  0  0  0  0  0  0  0
  185.7690  179.5370  140.8370 O   0  0  0  0  0  1  0  0  0  0  0  0
  185.1050  178.3790  138.8180 C   0  0  0  0  0  0  0  0  0  0  0  0
  184.8660  178.7350  140.1510 C   0  0  0  0  0  0  0  0  0  0  0  0
  182.8080  177.4820  140.0990 C   0  0  0  0  0  3  0  0  0  0  0  0
  183.0530  177.1440  138.8050 N   0  0  0  0  0  0  0  0  0  0  0  0
  184.1690  177.5710  138.1560 C   0  0  0  0  0  3  0  0  0  0  0  0
  183.7120  178.2850  140.7960 C   0  0  0  0  0  3  0  0  0  0  0  0
  189.2630  176.8820  140.0140 C   0  0  0  0  0  2  0  0  0  0  0  0
  190.6490  177.0890  144.0650 C   0  0  0  0  0  0  0  0  0  0  0  0
  191.1120  177.0950  141.6870 C   0  0  0  0  0  3  0  0  0  0  0  0
  189.2830  176.9470  143.7980 C   0  0  0  0  0  3  0  0  0  0  0  0
  191.5620  177.1680  143.0080 C   0  0  0  0  0  3  0  0  0  0  0  0
  188.8320  176.8740  142.4770 C   0  0  0  0  0  3  0  0  0  0  0  0
  189.7470  176.9420  141.4210 C   0  0  0  0  0  0  0  0  0  0  0  0
  191.2250  177.1890  145.7540 S   0  0  0  0  0  0  0  0  0  0  0  0
  189.2440  177.2940  146.5260 S   0  0  0  0  0  1  0  0  0  0  0  0
  1 26  1  0  0  0  0
  2  4  1  0  0  0  0
  3  1  1  0  0  0  0
  4 17  1  1  0  0  0
  4  3  1  0  0  0  0
  5  2  1  6  0  0  0
  5  8  1  0  0  0  0
  5  1  1  0  0  0  0
  6 14  1  0  0  0  0
  6 11  2  0  0  0  0
  7 11  1  0  0  0  0
  7 15  2  0  0  0  0
  8 11  1  6  0  0  0
  8 13  1  0  0  0  0
  9 12  1  0  0  0  0
  9 10  1  0  0  0  0
 10  7  1  0  0  0  0
 12  6  1  0  0  0  0
 14 16  2  0  0  0  0
 16 13  1  0  0  0  0
 17 18  1  0  0  0  0
 18 20  1  0  0  0  0
 20 21  1  0  0  0  0
 21 25  2  0  0  0  0
 21 19  1  0  0  0  0
 22 25  1  0  0  0  0
 23 22  2  0  0  0  0
 24 23  1  0  0  0  0
 24 20  2  0  0  0  0
 26 32  1  0  0  0  0
 27 33  1  0  0  0  0
 28 30  1  0  0  0  0
 29 27  1  0  0  0  0
 30 27  2  0  0  0  0
 31 29  2  0  0  0  0
 32 28  2  0  0  0  0
 32 31  1  0  0  0  0
 33 34  1  0  0  0  0
M  END
>  <MODEL>
5

>  <REMARK>
 VINA RESULT:      -7.8      3.809      6.309
  Name = 
  7 active torsions:
  status: ('A' for Active; 'I' for Inactive)
    1  A    between atoms: O_3  and  C_13
    2  A    between atoms: O_3  and  C_17
    3  A    between atoms: C_4  and  C_31
    4  A    between atoms: N_5  and  C_26
    5  A    between atoms: S_7  and  C_8
    6  A    between atoms: C_17  and  C_29
    7  A    between atoms: C_26  and  C_28
                            x       y       z     vdW  Elec       q    Type
                         _______ _______ _______ _____ _____    ______ ____

>  <TORSDO>
F 7

$$$$
=
 OpenBabel10262423433D

 34 38  0  0  1  0  0  0  0  0999 V2000
  189.4440  177.6860  140.8560 N   0  0  0  0  0  0  0  0  0  0  0  0
  187.8560  177.7120  139.0470 C   0  0  0  0  0  2  0  0  0  0  0  0
  188.4660  178.7290  141.1590 C   0  0  0  0  0  2  0  0  0  0  0  0
  187.4210  178.7520  140.0490 C   0  0  2  0  0  3  0  0  0  0  0  0
  189.3020  177.4600  139.4120 C   0  0  2  0  0  3  0  0  0  0  0  0
  190.8200  176.3470  136.6360 C   0  0  0  0  0  0  0  0  0  0  0  0
  188.5010  175.6020  136.7590 C   0  0  0  0  0  0  0  0  0  0  0  0
  189.8620  176.1110  138.9160 C   0  0  1  0  0  3  0  0  0  0  0  0
  189.3390  176.5810  134.6240 C   0  0  0  0  0  2  0  0  0  0  0  0
  188.3530  175.7890  135.3510 N   0  0  0  0  0  2  0  0  0  0  0  0
  189.7640  176.0070  137.4070 C   0  0  0  0  0  0  0  0  0  0  0  0
  190.7460  176.2650  135.1330 C   0  0  0  0  0  2  0  0  0  0  0  0
  191.2250  175.9850  139.3460 O   0  0  0  0  0  0  0  0  0  0  0  0
  192.1270  176.6220  137.2550 C   0  0  0  0  0  3  0  0  0  0  0  0
  187.5730  175.0730  137.4250 O   0  0  0  0  0  0  0  0  0  0  0  0
  192.2980  176.4220  138.5600 C   0  0  0  0  0  3  0  0  0  0  0  0
  186.0290  178.4460  140.5900 C   0  0  0  0  0  2  0  0  0  0  0  0
  185.9810  178.6370  142.0000 O   0  0  0  0  0  0  0  0  0  0  0  0
  186.0260  178.8000  144.7880 O   0  0  0  0  0  1  0  0  0  0  0  0
  184.7820  178.7270  142.7130 C   0  0  0  0  0  0  0  0  0  0  0  0
  184.8140  178.8080  144.1110 C   0  0  0  0  0  0  0  0  0  0  0  0
  182.4060  178.9070  144.1430 C   0  0  0  0  0  3  0  0  0  0  0  0
  182.3900  178.8290  142.7860 N   0  0  0  0  0  0  0  0  0  0  0  0
  183.5390  178.7400  142.0640 C   0  0  0  0  0  3  0  0  0  0  0  0
  183.6200  178.8970  144.8310 C   0  0  0  0  0  3  0  0  0  0  0  0
  189.0340  176.4990  141.6130 C   0  0  0  0  0  2  0  0  0  0  0  0
  190.4020  176.8110  145.6630 C   0  0  0  0  0  0  0  0  0  0  0  0
  190.8660  176.4340  143.3160 C   0  0  0  0  0  3  0  0  0  0  0  0
  189.0450  176.9830  145.3660 C   0  0  0  0  0  3  0  0  0  0  0  0
  191.3120  176.5410  144.6360 C   0  0  0  0  0  3  0  0  0  0  0  0
  188.5990  176.8770  144.0460 C   0  0  0  0  0  3  0  0  0  0  0  0
  189.5080  176.5960  143.0210 C   0  0  0  0  0  0  0  0  0  0  0  0
  190.9730  176.9540  147.3510 S   0  0  0  0  0  0  0  0  0  0  0  0
  189.1360  177.8130  148.0020 S   0  0  0  0  0  1  0  0  0  0  0  0
  1  3  1  0  0  0  0
  1 26  1  0  0  0  0
  2  4  1  0  0  0  0
  4 17  1  1  0  0  0
  4  3  1  0  0  0  0
  5  2  1  1  0  0  0
  5  1  1  0  0  0  0
  6 14  1  0  0  0  0
  6 11  2  0  0  0  0
  7 11  1  0  0  0  0
  7 15  2  0  0  0  0
  8 11  1  6  0  0  0
  8 13  1  0  0  0  0
  8  5  1  0  0  0  0
  9 12  1  0  0  0  0
  9 10  1  0  0  0  0
 10  7  1  0  0  0  0
 12  6  1  0  0  0  0
 14 16  2  0  0  0  0
 16 13  1  0  0  0  0
 17 18  1  0  0  0  0
 18 20  1  0  0  0  0
 20 21  1  0  0  0  0
 21 19  1  0  0  0  0
 21 25  2  0  0  0  0
 22 25  1  0  0  0  0
 23 22  2  0  0  0  0
 24 20  2  0  0  0  0
 24 23  1  0  0  0  0
 26 32  1  0  0  0  0
 27 33  1  0  0  0  0
 28 30  1  0  0  0  0
 29 27  1  0  0  0  0
 30 27  2  0  0  0  0
 31 29  2  0  0  0  0
 32 28  2  0  0  0  0
 32 31  1  0  0  0  0
 33 34  1  0  0  0  0
M  END
>  <MODEL>
6

>  <REMARK>
 VINA RESULT:      -7.6      3.212      5.342
  Name = 
  7 active torsions:
  status: ('A' for Active; 'I' for Inactive)
    1  A    between atoms: O_3  and  C_13
    2  A    between atoms: O_3  and  C_17
    3  A    between atoms: C_4  and  C_31
    4  A    between atoms: N_5  and  C_26
    5  A    between atoms: S_7  and  C_8
    6  A    between atoms: C_17  and  C_29
    7  A    between atoms: C_26  and  C_28
                            x       y       z     vdW  Elec       q    Type
                         _______ _______ _______ _____ _____    ______ ____

>  <TORSDO>
F 7

$$$$
=
 OpenBabel10262423433D

 34 38  0  0  1  0  0  0  0  0999 V2000
  189.3850  178.0310  140.3710 N   0  0  0  0  0  0  0  0  0  0  0  0
  189.1960  177.3860  138.0590 C   0  0  0  0  0  2  0  0  0  0  0  0
  188.2870  178.8070  139.7970 C   0  0  0  0  0  2  0  0  0  0  0  0
  188.1140  178.3990  138.3380 C   0  0  2  0  0  3  0  0  0  0  0  0
  190.1610  177.5820  139.2080 C   0  0  2  0  0  3  0  0  0  0  0  0
  192.9200  176.2860  137.8080 C   0  0  0  0  0  0  0  0  0  0  0  0
  190.9410  174.9500  137.3100 C   0  0  0  0  0  0  0  0  0  0  0  0
  191.0850  176.3770  139.4800 C   0  0  1  0  0  3  0  0  0  0  0  0
  192.4900  175.5450  135.4490 C   0  0  0  0  0  2  0  0  0  0  0  0
  191.4170  174.7140  135.9850 N   0  0  0  0  0  2  0  0  0  0  0  0
  191.6960  175.8620  138.1920 C   0  0  0  0  0  0  0  0  0  0  0  0
  193.5460  175.8000  136.5260 C   0  0  0  0  0  2  0  0  0  0  0  0
  192.1080  176.7730  140.4050 O   0  0  0  0  0  0  0  0  0  0  0  0
  193.7470  177.0830  138.7280 C   0  0  0  0  0  3  0  0  0  0  0  0
  189.9060  174.3630  137.7210 O   0  0  0  0  0  0  0  0  0  0  0  0
  193.3390  177.2870  139.9780 C   0  0  0  0  0  3  0  0  0  0  0  0
  186.7310  177.8090  138.0870 C   0  0  0  0  0  2  0  0  0  0  0  0
  185.7170  178.7860  138.2990 O   0  0  0  0  0  0  0  0  0  0  0  0
  185.2860  179.5380  140.9530 O   0  0  0  0  0  1  0  0  0  0  0  0
  184.4980  178.4930  138.9180 C   0  0  0  0  0  0  0  0  0  0  0  0
  184.2910  178.8730  140.2490 C   0  0  0  0  0  0  0  0  0  0  0  0
  182.0800  177.9160  140.1600 C   0  0  0  0  0  3  0  0  0  0  0  0
  182.2950  177.5540  138.8670 N   0  0  0  0  0  0  0  0  0  0  0  0
  183.4700  177.8250  138.2380 C   0  0  0  0  0  3  0  0  0  0  0  0
  183.0760  178.5830  140.8750 C   0  0  0  0  0  3  0  0  0  0  0  0
  188.7740  176.8930  141.0620 C   0  0  0  0  0  2  0  0  0  0  0  0
  189.1920  177.3570  145.3030 C   0  0  0  0  0  0  0  0  0  0  0  0
  190.1360  177.4870  143.0750 C   0  0  0  0  0  3  0  0  0  0  0  0
  187.9770  176.9240  144.7620 C   0  0  0  0  0  3  0  0  0  0  0  0
  190.2700  177.6430  144.4580 C   0  0  0  0  0  3  0  0  0  0  0  0
  187.8420  176.7680  143.3790 C   0  0  0  0  0  3  0  0  0  0  0  0
  188.9240  177.0430  142.5360 C   0  0  0  0  0  0  0  0  0  0  0  0
  189.3620  177.5620  147.0700 S   0  0  0  0  0  0  0  0  0  0  0  0
  191.2290  176.5390  147.1080 S   0  0  0  0  0  1  0  0  0  0  0  0
  1 26  1  0  0  0  0
  2  4  1  0  0  0  0
  3  1  1  0  0  0  0
  4 17  1  1  0  0  0
  4  3  1  0  0  0  0
  5  2  1  6  0  0  0
  5  8  1  0  0  0  0
  5  1  1  0  0  0  0
  6 11  2  0  0  0  0
  6 14  1  0  0  0  0
  7 15  2  0  0  0  0
  7 11  1  0  0  0  0
  8 11  1  6  0  0  0
  8 13  1  0  0  0  0
  9 10  1  0  0  0  0
  9 12  1  0  0  0  0
 10  7  1  0  0  0  0
 12  6  1  0  0  0  0
 14 16  2  0  0  0  0
 16 13  1  0  0  0  0
 17 18  1  0  0  0  0
 18 20  1  0  0  0  0
 20 21  1  0  0  0  0
 21 25  2  0  0  0  0
 21 19  1  0  0  0  0
 22 25  1  0  0  0  0
 23 22  2  0  0  0  0
 24 23  1  0  0  0  0
 24 20  2  0  0  0  0
 26 32  1  0  0  0  0
 27 33  1  0  0  0  0
 28 30  1  0  0  0  0
 29 27  1  0  0  0  0
 30 27  2  0  0  0  0
 31 29  2  0  0  0  0
 32 28  2  0  0  0  0
 32 31  1  0  0  0  0
 33 34  1  0  0  0  0
M  END
>  <MODEL>
7

>  <REMARK>
 VINA RESULT:      -7.4      3.301      6.115
  Name = 
  7 active torsions:
  status: ('A' for Active; 'I' for Inactive)
    1  A    between atoms: O_3  and  C_13
    2  A    between atoms: O_3  and  C_17
    3  A    between atoms: C_4  and  C_31
    4  A    between atoms: N_5  and  C_26
    5  A    between atoms: S_7  and  C_8
    6  A    between atoms: C_17  and  C_29
    7  A    between atoms: C_26  and  C_28
                            x       y       z     vdW  Elec       q    Type
                         _______ _______ _______ _____ _____    ______ ____

>  <TORSDO>
F 7

$$$$
=
 OpenBabel10262423433D

 34 38  0  0  1  0  0  0  0  0999 V2000
  189.5580  177.6790  140.9270 N   0  0  0  0  0  0  0  0  0  0  0  0
  187.6420  177.9080  139.4870 C   0  0  0  0  0  2  0  0  0  0  0  0
  188.7440  178.7670  141.4650 C   0  0  0  0  0  2  0  0  0  0  0  0
  187.5000  178.9200  140.5970 C   0  0  2  0  0  3  0  0  0  0  0  0
  189.1090  177.5410  139.5350 C   0  0  2  0  0  3  0  0  0  0  0  0
  190.3940  176.5280  136.6080 C   0  0  0  0  0  0  0  0  0  0  0  0
  187.9920  176.1210  136.7310 C   0  0  0  0  0  0  0  0  0  0  0  0
  189.4530  176.1880  138.8810 C   0  0  1  0  0  3  0  0  0  0  0  0
  188.9280  177.1930  134.6820 C   0  0  0  0  0  2  0  0  0  0  0  0
  187.8480  176.4790  135.3560 N   0  0  0  0  0  2  0  0  0  0  0  0
  189.3130  176.2640  137.3740 C   0  0  0  0  0  0  0  0  0  0  0  0
  190.2810  176.6210  135.1080 C   0  0  0  0  0  2  0  0  0  0  0  0
  190.7890  175.8170  139.2500 O   0  0  0  0  0  0  0  0  0  0  0  0
  191.7380  176.5390  137.2070 C   0  0  0  0  0  3  0  0  0  0  0  0
  187.0070  175.6640  137.3680 O   0  0  0  0  0  0  0  0  0  0  0  0
  191.9010  176.1760  138.4770 C   0  0  0  0  0  3  0  0  0  0  0  0
  186.2280  178.6770  141.4020 C   0  0  0  0  0  2  0  0  0  0  0  0
  185.1810  179.5380  140.9660 O   0  0  0  0  0  0  0  0  0  0  0  0
  182.9740  178.7900  142.5030 O   0  0  0  0  0  1  0  0  0  0  0  0
  184.0230  179.0680  140.3400 C   0  0  0  0  0  0  0  0  0  0  0  0
  182.9210  178.6940  141.1190 C   0  0  0  0  0  0  0  0  0  0  0  0
  181.7140  178.1310  139.1100 C   0  0  0  0  0  3  0  0  0  0  0  0
  182.7910  178.4990  138.3660 N   0  0  0  0  0  0  0  0  0  0  0  0
  183.9320  178.9600  138.9450 C   0  0  0  0  0  3  0  0  0  0  0  0
  181.7600  178.2220  140.5020 C   0  0  0  0  0  3  0  0  0  0  0  0
  189.2220  176.4840  141.7040 C   0  0  0  0  0  2  0  0  0  0  0  0
  190.2090  177.0360  145.8390 C   0  0  0  0  0  0  0  0  0  0  0  0
  188.5560  176.9590  144.0690 C   0  0  0  0  0  3  0  0  0  0  0  0
  191.2170  176.7550  144.9100 C   0  0  0  0  0  3  0  0  0  0  0  0
  188.8780  177.1340  145.4180 C   0  0  0  0  0  3  0  0  0  0  0  0
  190.8950  176.5790  143.5610 C   0  0  0  0  0  3  0  0  0  0  0  0
  189.5650  176.6880  143.1390 C   0  0  0  0  0  0  0  0  0  0  0  0
  190.6200  177.2540  147.5650 S   0  0  0  0  0  0  0  0  0  0  0  0
  192.1770  175.8050  147.4770 S   0  0  0  0  0  1  0  0  0  0  0  0
  1  3  1  0  0  0  0
  1 26  1  0  0  0  0
  2  4  1  0  0  0  0
  4 17  1  1  0  0  0
  4  3  1  0  0  0  0
  5  2  1  1  0  0  0
  5  1  1  0  0  0  0
  6 14  1  0  0  0  0
  6 11  2  0  0  0  0
  7 15  2  0  0  0  0
  7 11  1  0  0  0  0
  8 11  1  6  0  0  0
  8 13  1  0  0  0  0
  8  5  1  0  0  0  0
  9 12  1  0  0  0  0
  9 10  1  0  0  0  0
 10  7  1  0  0  0  0
 12  6  1  0  0  0  0
 14 16  2  0  0  0  0
 16 13  1  0  0  0  0
 18 17  1  0  0  0  0
 20 18  1  0  0  0  0
 20 21  1  0  0  0  0
 21 19  1  0  0  0  0
 22 25  1  0  0  0  0
 23 24  1  0  0  0  0
 23 22  2  0  0  0  0
 24 20  2  0  0  0  0
 25 21  2  0  0  0  0
 26 32  1  0  0  0  0
 27 33  1  0  0  0  0
 28 30  2  0  0  0  0
 29 27  2  0  0  0  0
 30 27  1  0  0  0  0
 31 29  1  0  0  0  0
 32 31  2  0  0  0  0
 32 28  1  0  0  0  0
 34 33  1  0  0  0  0
M  END
>  <MODEL>
8

>  <REMARK>
 VINA RESULT:      -7.4      3.632      6.503
  Name = 
  7 active torsions:
  status: ('A' for Active; 'I' for Inactive)
    1  A    between atoms: O_3  and  C_13
    2  A    between atoms: O_3  and  C_17
    3  A    between atoms: C_4  and  C_31
    4  A    between atoms: N_5  and  C_26
    5  A    between atoms: S_7  and  C_8
    6  A    between atoms: C_17  and  C_29
    7  A    between atoms: C_26  and  C_28
                            x       y       z     vdW  Elec       q    Type
                         _______ _______ _______ _____ _____    ______ ____

>  <TORSDO>
F 7

$$$$
=
 OpenBabel10262423433D

 34 38  0  0  1  0  0  0  0  0999 V2000
  189.0260  178.0730  144.3870 N   0  0  0  0  0  0  0  0  0  0  0  0
  191.0940  176.8510  144.2180 C   0  0  0  0  0  2  0  0  0  0  0  0
  189.6140  178.4010  143.0890 C   0  0  0  0  0  2  0  0  0  0  0  0
  190.9120  177.6160  142.9310 C   0  0  2  0  0  3  0  0  0  0  0  0
  190.1490  177.5470  145.1740 C   0  0  2  0  0  3  0  0  0  0  0  0
  190.7440  177.6120  148.4730 C   0  0  0  0  0  0  0  0  0  0  0  0
  191.9840  175.8270  147.3660 C   0  0  0  0  0  0  0  0  0  0  0  0
  189.7350  176.7010  146.3950 C   0  0  1  0  0  3  0  0  0  0  0  0
  193.1850  177.3100  148.9720 C   0  0  0  0  0  2  0  0  0  0  0  0
  193.1090  176.0670  148.2120 N   0  0  0  0  0  2  0  0  0  0  0  0
  190.8140  176.7230  147.4590 C   0  0  0  0  0  0  0  0  0  0  0  0
  191.8090  177.6640  149.5380 C   0  0  0  0  0  2  0  0  0  0  0  0
  188.4980  177.2060  146.9150 O   0  0  0  0  0  0  0  0  0  0  0  0
  189.5280  178.4180  148.6650 C   0  0  0  0  0  3  0  0  0  0  0  0
  191.9880  174.8470  146.5760 O   0  0  0  0  0  0  0  0  0  0  0  0
  188.4550  178.1890  147.9110 C   0  0  0  0  0  3  0  0  0  0  0  0
  190.8480  176.6730  141.7350 C   0  0  0  0  0  2  0  0  0  0  0  0
  190.9960  177.3910  140.5150 O   0  0  0  0  0  0  0  0  0  0  0  0
  190.9560  175.4110  138.5470 O   0  0  0  0  0  1  0  0  0  0  0  0
  190.0110  177.4130  139.5230 C   0  0  0  0  0  0  0  0  0  0  0  0
  189.9990  176.4170  138.5400 C   0  0  0  0  0  0  0  0  0  0  0  0
  188.0580  177.4450  137.5460 C   0  0  0  0  0  3  0  0  0  0  0  0
  188.0810  178.4060  138.5080 N   0  0  0  0  0  0  0  0  0  0  0  0
  189.0270  178.4110  139.4860 C   0  0  0  0  0  3  0  0  0  0  0  0
  189.0180  176.4320  137.5450 C   0  0  0  0  0  3  0  0  0  0  0  0
  188.0270  177.0300  144.1400 C   0  0  0  0  0  2  0  0  0  0  0  0
  184.1290  178.7880  143.8480 C   0  0  0  0  0  0  0  0  0  0  0  0
  185.9800  178.0040  145.1990 C   0  0  0  0  0  3  0  0  0  0  0  0
  184.8220  178.4240  142.6880 C   0  0  0  0  0  3  0  0  0  0  0  0
  184.7110  178.5820  145.1030 C   0  0  0  0  0  3  0  0  0  0  0  0
  186.0910  177.8460  142.7840 C   0  0  0  0  0  3  0  0  0  0  0  0
  186.6680  177.6300  144.0400 C   0  0  0  0  0  0  0  0  0  0  0  0
  182.5090  179.5330  143.7250 S   0  0  0  0  0  0  0  0  0  0  0  0
  182.2100  178.7890  141.7530 S   0  0  0  0  0  1  0  0  0  0  0  0
  1  5  1  0  0  0  0
  3  1  1  0  0  0  0
  4 17  1  6  0  0  0
  4  3  1  0  0  0  0
  4  2  1  0  0  0  0
  5  2  1  6  0  0  0
  5  8  1  0  0  0  0
  6 14  1  0  0  0  0
  6 12  1  0  0  0  0
  7 11  1  0  0  0  0
  7 10  1  0  0  0  0
  8 13  1  1  0  0  0
  8 11  1  0  0  0  0
  9 12  1  0  0  0  0
 10  9  1  0  0  0  0
 11  6  2  0  0  0  0
 13 16  1  0  0  0  0
 15  7  2  0  0  0  0
 16 14  2  0  0  0  0
 18 17  1  0  0  0  0
 20 18  1  0  0  0  0
 21 19  1  0  0  0  0
 21 20  2  0  0  0  0
 22 23  1  0  0  0  0
 23 24  2  0  0  0  0
 24 20  1  0  0  0  0
 25 22  2  0  0  0  0
 25 21  1  0  0  0  0
 26  1  1  0  0  0  0
 27 30  1  0  0  0  0
 29 31  1  0  0  0  0
 29 27  2  0  0  0  0
 30 28  2  0  0  0  0
 31 32  2  0  0  0  0
 32 26  1  0  0  0  0
 32 28  1  0  0  0  0
 33 27  1  0  0  0  0
 34 33  1  0  0  0  0
M  END
>  <MODEL>
9

>  <REMARK>
 VINA RESULT:      -7.0      2.125      7.314
  Name = 
  7 active torsions:
  status: ('A' for Active; 'I' for Inactive)
    1  A    between atoms: O_3  and  C_13
    2  A    between atoms: O_3  and  C_17
    3  A    between atoms: C_4  and  C_31
    4  A    between atoms: N_5  and  C_26
    5  A    between atoms: S_7  and  C_8
    6  A    between atoms: C_17  and  C_29
    7  A    between atoms: C_26  and  C_28
                            x       y       z     vdW  Elec       q    Type
                         _______ _______ _______ _____ _____    ______ ____

>  <TORSDO>
F 7

$$$$
