=
 OpenBabel10272413573D

 30 34  0  0  1  0  0  0  0  0999 V2000
  187.9750  178.4360  141.9410 C   0  0  2  0  0  3  0  0  0  0  0  0
  191.0150  175.5880  143.2830 C   0  0  0  0  0  2  0  0  0  0  0  0
  187.5080  177.1650  142.6790 C   0  0  2  0  0  3  0  0  0  0  0  0
  186.8320  179.2400  141.3020 C   0  0  0  0  0  2  0  0  0  0  0  0
  185.6030  178.5580  145.7940 C   0  0  0  0  0  0  0  0  0  0  0  0
  185.1570  178.1470  142.8270 C   0  0  0  0  0  2  0  0  0  0  0  0
  187.8830  177.5640  145.5740 C   0  0  2  0  0  3  0  0  0  0  0  0
  190.2230  176.6480  145.4000 C   0  0  0  0  0  2  0  0  0  0  0  0
  185.4970  178.5030  141.3740 C   0  0  1  0  0  3  0  0  0  0  0  0
  186.3040  177.4560  143.5970 C   0  0  2  0  0  3  0  0  0  0  0  0
  188.2490  178.3520  146.8380 C   0  0  0  0  0  2  0  0  0  0  0  0
  185.7060  178.0960  147.2160 C   0  0  0  0  0  2  0  0  0  0  0  0
  189.8560  176.2170  142.4990 C   0  0  1  0  0  3  0  0  0  0  0  0
  189.1020  178.1230  140.9510 C   0  0  1  0  0  3  0  0  0  0  0  0
  188.6690  176.5120  143.4410 C   0  0  1  0  0  3  0  0  0  0  0  0
  191.4170  176.4540  144.4740 C   0  0  0  0  0  2  0  0  0  0  0  0
  189.0900  177.3580  144.6560 C   0  0  1  0  0  3  0  0  0  0  0  0
  187.0650  178.4870  147.8140 C   0  0  0  0  0  2  0  0  0  0  0  0
  184.6320  179.2100  145.4440 O   0  0  0  0  0  0  0  0  0  0  0  0
  190.2880  177.4640  141.6980 C   0  0  2  0  0  3  0  0  0  0  0  0
  186.7380  178.2780  144.8300 C   0  0  1  0  0  3  0  0  0  0  0  0
  184.7090  178.5330  138.6250 O   0  0  0  0  0  0  0  0  0  0  0  0
  184.4490  179.3370  140.8050 N   0  0  0  0  0  2  0  0  0  0  0  0
  182.9970  180.1560  138.9170 C   0  0  0  0  0  1  0  0  0  0  0  0
  184.0960  179.2930  139.4220 C   0  0  0  0  0  0  0  0  0  0  0  0
  188.5930  177.4100  139.6760 C   0  0  0  0  0  3  0  0  0  0  0  0
  189.4870  176.2880  139.1730 C   0  0  0  0  0  1  0  0  0  0  0  0
  188.2950  178.3940  138.5620 C   0  0  0  0  0  1  0  0  0  0  0  0
  192.6330  177.7790  141.0220 C   0  0  0  0  0  2  0  0  0  0  0  0
  191.4610  177.1880  140.8040 C   0  0  0  0  0  3  0  0  0  0  0  0
  1  4  1  6  0  0  0
  1  3  1  0  0  0  0
  2 16  1  0  0  0  0
  3 15  1  0  0  0  0
  3 10  1  0  0  0  0
  4  9  1  0  0  0  0
  5 12  1  0  0  0  0
  6 10  1  0  0  0  0
  7 11  1  0  0  0  0
  9  6  1  0  0  0  0
 10 21  1  0  0  0  0
 11 18  1  0  0  0  0
 12 18  1  0  0  0  0
 13  2  1  0  0  0  0
 13 15  1  0  0  0  0
 14 20  1  0  0  0  0
 14  1  1  0  0  0  0
 15 17  1  0  0  0  0
 16  8  1  0  0  0  0
 17  8  1  0  0  0  0
 17  7  1  0  0  0  0
 19  5  2  0  0  0  0
 20 13  1  0  0  0  0
 21  7  1  0  0  0  0
 21  5  1  0  0  0  0
 22 25  2  0  0  0  0
 23  9  1  0  0  0  0
 24 25  1  0  0  0  0
 25 23  1  0  0  0  0
 26 14  1  0  0  0  0
 27 26  1  0  0  0  0
 28 26  1  0  0  0  0
 30 29  2  0  0  0  0
 30 20  1  0  0  0  0
M  END
>  <MODEL>
1

>  <REMARK>
 VINA RESULT:      -9.4      0.000      0.000
  Name = 
  3 active torsions:
  status: ('A' for Active; 'I' for Inactive)
    1  A    between atoms: C_2  and  C_22
    2  A    between atoms: N_9  and  C_12
    3  A    between atoms: C_28  and  C_29
                            x       y       z     vdW  Elec       q    Type
                         _______ _______ _______ _____ _____    ______ ____

>  <TORSDO>
F 3

$$$$
=
 OpenBabel10272413573D

 30 34  0  0  1  0  0  0  0  0999 V2000
  189.1700  178.2290  143.3690 C   0  0  2  0  0  3  0  0  0  0  0  0
  188.6260  176.6460  147.4120 C   0  0  0  0  0  2  0  0  0  0  0  0
  188.1110  177.1300  143.5850 C   0  0  2  0  0  3  0  0  0  0  0  0
  189.4530  178.5400  141.8910 C   0  0  0  0  0  2  0  0  0  0  0  0
  184.7840  178.8160  142.4180 C   0  0  0  0  0  0  0  0  0  0  0  0
  187.2490  177.5330  141.2160 C   0  0  0  0  0  2  0  0  0  0  0  0
  185.6830  178.3660  144.7050 C   0  0  2  0  0  3  0  0  0  0  0  0
  186.5740  178.0150  147.0340 C   0  0  0  0  0  2  0  0  0  0  0  0
  188.7600  177.5560  140.9520 C   0  0  1  0  0  3  0  0  0  0  0  0
  186.8680  177.3630  142.7030 C   0  0  2  0  0  3  0  0  0  0  0  0
  184.8000  179.5260  145.1800 C   0  0  0  0  0  2  0  0  0  0  0  0
  183.4510  178.7890  143.1040 C   0  0  0  0  0  2  0  0  0  0  0  0
  189.0060  176.7490  145.9290 C   0  0  1  0  0  3  0  0  0  0  0  0
  190.4470  177.9380  144.1660 C   0  0  1  0  0  3  0  0  0  0  0  0
  187.7480  176.9970  145.0700 C   0  0  1  0  0  3  0  0  0  0  0  0
  187.8370  177.8680  147.8730 C   0  0  0  0  0  2  0  0  0  0  0  0
  186.9410  178.2130  145.5620 C   0  0  1  0  0  3  0  0  0  0  0  0
  183.4850  179.6350  144.3840 C   0  0  0  0  0  2  0  0  0  0  0  0
  184.8430  179.1020  141.2330 O   0  0  0  0  0  0  0  0  0  0  0  0
  190.1050  177.8020  145.6710 C   0  0  2  0  0  3  0  0  0  0  0  0
  186.0450  178.5640  143.2190 C   0  0  1  0  0  3  0  0  0  0  0  0
  190.2980  176.0420  139.0750 O   0  0  0  0  0  0  0  0  0  0  0  0
  189.0200  177.9360  139.5710 N   0  0  0  0  0  2  0  0  0  0  0  0
  189.9900  177.5650  137.2770 C   0  0  0  0  0  1  0  0  0  0  0  0
  189.7880  177.1240  138.6810 C   0  0  0  0  0  0  0  0  0  0  0  0
  191.2970  176.8110  143.5340 C   0  0  0  0  0  3  0  0  0  0  0  0
  192.0900  177.2250  142.3040 C   0  0  0  0  0  1  0  0  0  0  0  0
  190.4680  175.5760  143.2430 C   0  0  0  0  0  1  0  0  0  0  0  0
  191.7580  176.3490  146.7720 C   0  0  0  0  0  2  0  0  0  0  0  0
  191.3180  177.5810  146.5260 C   0  0  0  0  0  3  0  0  0  0  0  0
  1  4  1  6  0  0  0
  1  3  1  0  0  0  0
  1 14  1  0  0  0  0
  2 16  1  0  0  0  0
  3 15  1  0  0  0  0
  5 12  1  0  0  0  0
  5 21  1  0  0  0  0
  6 10  1  0  0  0  0
  7 11  1  0  0  0  0
  7 17  1  0  0  0  0
  8 16  1  0  0  0  0
  9  6  1  0  0  0  0
  9  4  1  0  0  0  0
 10 21  1  0  0  0  0
 10  3  1  0  0  0  0
 12 18  1  0  0  0  0
 13  2  1  0  0  0  0
 14 20  1  0  0  0  0
 15 17  1  0  0  0  0
 15 13  1  0  0  0  0
 17  8  1  0  0  0  0
 18 11  1  0  0  0  0
 19  5  2  0  0  0  0
 20 13  1  0  0  0  0
 20 30  1  0  0  0  0
 21  7  1  0  0  0  0
 23  9  1  0  0  0  0
 24 25  1  0  0  0  0
 25 22  2  0  0  0  0
 25 23  1  0  0  0  0
 26 14  1  0  0  0  0
 27 26  1  0  0  0  0
 28 26  1  0  0  0  0
 30 29  2  0  0  0  0
M  END
>  <MODEL>
2

>  <REMARK>
 VINA RESULT:      -9.2      2.012      4.307
  Name = 
  3 active torsions:
  status: ('A' for Active; 'I' for Inactive)
    1  A    between atoms: C_2  and  C_22
    2  A    between atoms: N_9  and  C_12
    3  A    between atoms: C_28  and  C_29
                            x       y       z     vdW  Elec       q    Type
                         _______ _______ _______ _____ _____    ______ ____

>  <TORSDO>
F 3

$$$$
=
 OpenBabel10272413573D

 30 34  0  0  1  0  0  0  0  0999 V2000
  187.2700  177.4070  143.6150 C   0  0  2  0  0  3  0  0  0  0  0  0
  191.3830  178.0580  144.9590 C   0  0  0  0  0  2  0  0  0  0  0  0
  188.0460  178.6060  143.0330 C   0  0  2  0  0  3  0  0  0  0  0  0
  185.7730  177.4090  143.2700 C   0  0  0  0  0  2  0  0  0  0  0  0
  188.0560  177.9160  139.1860 C   0  0  0  0  0  0  0  0  0  0  0  0
  186.1800  178.9510  141.3250 C   0  0  0  0  0  2  0  0  0  0  0  0
  189.8400  177.6280  140.9100 C   0  0  2  0  0  3  0  0  0  0  0  0
  191.6510  177.2370  142.6170 C   0  0  0  0  0  2  0  0  0  0  0  0
  185.3390  178.7020  142.5840 C   0  0  1  0  0  3  0  0  0  0  0  0
  187.7040  178.8320  141.5460 C   0  0  2  0  0  3  0  0  0  0  0  0
  190.4490  176.5790  139.9720 C   0  0  0  0  0  2  0  0  0  0  0  0
  189.2090  178.0340  138.2350 C   0  0  0  0  0  2  0  0  0  0  0  0
  189.8730  178.2390  144.7550 C   0  0  1  0  0  3  0  0  0  0  0  0
  187.5300  177.2500  145.1160 C   0  0  1  0  0  3  0  0  0  0  0  0
  189.5550  178.4480  143.2600 C   0  0  1  0  0  3  0  0  0  0  0  0
  191.9330  176.9360  144.0830 C   0  0  0  0  0  2  0  0  0  0  0  0
  190.1420  177.3290  142.3800 C   0  0  1  0  0  3  0  0  0  0  0  0
  190.2320  176.9170  138.4850 C   0  0  0  0  0  2  0  0  0  0  0  0
  186.9160  177.9140  138.7500 O   0  0  0  0  0  0  0  0  0  0  0  0
  189.0500  177.0870  145.3710 C   0  0  2  0  0  3  0  0  0  0  0  0
  188.3210  177.7230  140.6650 C   0  0  1  0  0  3  0  0  0  0  0  0
  183.1660  179.5400  144.2440 O   0  0  0  0  0  0  0  0  0  0  0  0
  183.9290  178.6190  142.2340 N   0  0  0  0  0  2  0  0  0  0  0  0
  181.4740  178.9750  142.6720 C   0  0  0  0  0  1  0  0  0  0  0  0
  182.8920  179.0690  143.1080 C   0  0  0  0  0  0  0  0  0  0  0  0
  186.7870  178.3110  145.9620 C   0  0  0  0  0  3  0  0  0  0  0  0
  187.4540  178.6520  147.2850 C   0  0  0  0  0  1  0  0  0  0  0  0
  185.3330  177.9400  146.1780 C   0  0  0  0  0  1  0  0  0  0  0  0
  190.4070  176.0920  147.1660 C   0  0  0  0  0  2  0  0  0  0  0  0
  189.3780  176.8620  146.8170 C   0  0  0  0  0  3  0  0  0  0  0  0
  1  4  1  1  0  0  0
  1 14  1  0  0  0  0
  3 15  1  0  0  0  0
  3  1  1  0  0  0  0
  5 21  1  0  0  0  0
  6 10  1  0  0  0  0
  6  9  1  0  0  0  0
  7 17  1  0  0  0  0
  8 16  1  0  0  0  0
  9  4  1  0  0  0  0
 10  3  1  0  0  0  0
 11  7  1  0  0  0  0
 12 18  1  0  0  0  0
 12  5  1  0  0  0  0
 13  2  1  0  0  0  0
 13 20  1  0  0  0  0
 14 20  1  0  0  0  0
 14 26  1  0  0  0  0
 15 13  1  0  0  0  0
 16  2  1  0  0  0  0
 17  8  1  0  0  0  0
 17 15  1  0  0  0  0
 18 11  1  0  0  0  0
 19  5  2  0  0  0  0
 20 30  1  0  0  0  0
 21  7  1  0  0  0  0
 21 10  1  0  0  0  0
 23  9  1  0  0  0  0
 23 25  1  0  0  0  0
 24 25  1  0  0  0  0
 25 22  2  0  0  0  0
 26 28  1  0  0  0  0
 26 27  1  0  0  0  0
 30 29  2  0  0  0  0
M  END
>  <MODEL>
3

>  <REMARK>
 VINA RESULT:      -8.8      1.481      5.299
  Name = 
  3 active torsions:
  status: ('A' for Active; 'I' for Inactive)
    1  A    between atoms: C_2  and  C_22
    2  A    between atoms: N_9  and  C_12
    3  A    between atoms: C_28  and  C_29
                            x       y       z     vdW  Elec       q    Type
                         _______ _______ _______ _____ _____    ______ ____

>  <TORSDO>
F 3

$$$$
=
 OpenBabel10272413573D

 30 34  0  0  1  0  0  0  0  0999 V2000
  188.1980  177.1410  142.2770 C   0  0  2  0  0  3  0  0  0  0  0  0
  192.3090  177.5390  140.8310 C   0  0  0  0  0  2  0  0  0  0  0  0
  188.5440  178.3530  141.3880 C   0  0  2  0  0  3  0  0  0  0  0  0
  186.8070  177.2230  142.9260 C   0  0  0  0  0  2  0  0  0  0  0  0
  186.1480  177.9630  138.3250 C   0  0  0  0  0  0  0  0  0  0  0  0
  186.0570  178.8960  141.2050 C   0  0  0  0  0  2  0  0  0  0  0  0
  188.5860  177.4790  138.5750 C   0  0  2  0  0  3  0  0  0  0  0  0
  191.0260  176.8930  138.7900 C   0  0  0  0  0  2  0  0  0  0  0  0
  186.1450  178.5800  142.7030 C   0  0  1  0  0  3  0  0  0  0  0  0
  187.3830  178.7060  140.4360 C   0  0  2  0  0  3  0  0  0  0  0  0
  188.4130  176.4850  137.4200 C   0  0  0  0  0  2  0  0  0  0  0  0
  186.4840  178.1140  136.8720 C   0  0  0  0  0  2  0  0  0  0  0  0
  191.0090  177.7890  141.6070 C   0  0  1  0  0  3  0  0  0  0  0  0
  189.3090  176.8590  143.2930 C   0  0  1  0  0  3  0  0  0  0  0  0
  189.8600  178.1250  140.6330 C   0  0  1  0  0  3  0  0  0  0  0  0
  192.1220  176.4690  139.7590 C   0  0  0  0  0  2  0  0  0  0  0  0
  189.7000  177.0570  139.5350 C   0  0  1  0  0  3  0  0  0  0  0  0
  187.3580  176.9450  136.3960 C   0  0  0  0  0  2  0  0  0  0  0  0
  184.9830  178.0360  138.6830 O   0  0  0  0  0  0  0  0  0  0  0  0
  190.6490  176.6230  142.5530 C   0  0  2  0  0  3  0  0  0  0  0  0
  187.2470  177.6480  139.3200 C   0  0  1  0  0  3  0  0  0  0  0  0
  185.5200  179.3030  145.3990 O   0  0  0  0  0  0  0  0  0  0  0  0
  184.8140  178.5750  143.2920 N   0  0  0  0  0  2  0  0  0  0  0  0
  183.1790  178.9540  145.1700 C   0  0  0  0  0  1  0  0  0  0  0  0
  184.5690  178.9610  144.6450 C   0  0  0  0  0  0  0  0  0  0  0  0
  189.3200  177.8770  144.4580 C   0  0  0  0  0  3  0  0  0  0  0  0
  190.4960  178.8410  144.4490 C   0  0  0  0  0  1  0  0  0  0  0  0
  189.2030  177.1920  145.8050 C   0  0  0  0  0  1  0  0  0  0  0  0
  191.8090  175.0910  144.0900 C   0  0  0  0  0  2  0  0  0  0  0  0
  191.7750  176.2740  143.4810 C   0  0  0  0  0  3  0  0  0  0  0  0
  1  4  1  1  0  0  0
  1 14  1  0  0  0  0
  2 13  1  0  0  0  0
  3  1  1  0  0  0  0
  5 19  2  0  0  0  0
  5 21  1  0  0  0  0
  6  9  1  0  0  0  0
  7 21  1  0  0  0  0
  7 17  1  0  0  0  0
  8 17  1  0  0  0  0
  8 16  1  0  0  0  0
  9  4  1  0  0  0  0
  9 23  1  0  0  0  0
 10  6  1  0  0  0  0
 10  3  1  0  0  0  0
 11  7  1  0  0  0  0
 12  5  1  0  0  0  0
 13 20  1  0  0  0  0
 14 26  1  0  0  0  0
 15  3  1  0  0  0  0
 15 13  1  0  0  0  0
 16  2  1  0  0  0  0
 17 15  1  0  0  0  0
 18 12  1  0  0  0  0
 18 11  1  0  0  0  0
 20 14  1  0  0  0  0
 20 30  1  0  0  0  0
 21 10  1  0  0  0  0
 23 25  1  0  0  0  0
 25 24  1  0  0  0  0
 25 22  2  0  0  0  0
 26 28  1  0  0  0  0
 27 26  1  0  0  0  0
 30 29  2  0  0  0  0
M  END
>  <MODEL>
4

>  <REMARK>
 VINA RESULT:      -8.2      1.599      5.598
  Name = 
  3 active torsions:
  status: ('A' for Active; 'I' for Inactive)
    1  A    between atoms: C_2  and  C_22
    2  A    between atoms: N_9  and  C_12
    3  A    between atoms: C_28  and  C_29
                            x       y       z     vdW  Elec       q    Type
                         _______ _______ _______ _____ _____    ______ ____

>  <TORSDO>
F 3

$$$$
=
 OpenBabel10272413573D

 30 34  0  0  1  0  0  0  0  0999 V2000
  187.4890  178.5840  141.4400 C   0  0  2  0  0  3  0  0  0  0  0  0
  190.7880  176.5400  139.4170 C   0  0  0  0  0  2  0  0  0  0  0  0
  187.8560  177.1600  141.9010 C   0  0  2  0  0  3  0  0  0  0  0  0
  186.1770  179.1130  142.0390 C   0  0  0  0  0  2  0  0  0  0  0  0
  188.7640  177.6200  145.6750 C   0  0  0  0  0  0  0  0  0  0  0  0
  186.3090  177.4410  143.9120 C   0  0  0  0  0  2  0  0  0  0  0  0
  190.2130  177.3160  143.6630 C   0  0  2  0  0  3  0  0  0  0  0  0
  191.7270  177.0980  141.6620 C   0  0  0  0  0  2  0  0  0  0  0  0
  185.4200  178.0370  142.8140 C   0  0  1  0  0  3  0  0  0  0  0  0
  187.7100  177.0050  143.4290 C   0  0  2  0  0  3  0  0  0  0  0  0
  191.3130  178.0250  144.4610 C   0  0  0  0  0  2  0  0  0  0  0  0
  189.9350  177.0450  146.4150 C   0  0  0  0  0  2  0  0  0  0  0  0
  189.3740  176.9140  139.8820 C   0  0  1  0  0  3  0  0  0  0  0  0
  187.5330  178.7050  139.9130 C   0  0  1  0  0  3  0  0  0  0  0  0
  189.2560  176.7660  141.4140 C   0  0  1  0  0  3  0  0  0  0  0  0
  191.8500  177.3420  140.1640 C   0  0  0  0  0  2  0  0  0  0  0  0
  190.3530  177.5520  142.1580 C   0  0  1  0  0  3  0  0  0  0  0  0
  191.2390  177.7220  145.9700 C   0  0  0  0  0  2  0  0  0  0  0  0
  187.7950  178.0170  146.3020 O   0  0  0  0  0  0  0  0  0  0  0  0
  188.9400  178.3140  139.3970 C   0  0  2  0  0  3  0  0  0  0  0  0
  188.8290  177.7700  144.1690 C   0  0  1  0  0  3  0  0  0  0  0  0
  182.9020  178.3280  141.4890 O   0  0  0  0  0  0  0  0  0  0  0  0
  184.2190  178.6130  143.4000 N   0  0  0  0  0  2  0  0  0  0  0  0
  181.7940  179.2930  143.3580 C   0  0  0  0  0  1  0  0  0  0  0  0
  182.9870  178.7160  142.6850 C   0  0  0  0  0  0  0  0  0  0  0  0
  186.3210  178.0290  139.2290 C   0  0  0  0  0  3  0  0  0  0  0  0
  186.6670  177.1820  138.0150 C   0  0  0  0  0  1  0  0  0  0  0  0
  185.2360  179.0310  138.8890 C   0  0  0  0  0  1  0  0  0  0  0  0
  188.9820  179.6710  137.3450 C   0  0  0  0  0  2  0  0  0  0  0  0
  189.0810  178.4700  137.9120 C   0  0  0  0  0  3  0  0  0  0  0  0
  1  3  1  0  0  0  0
  1  4  1  6  0  0  0
  2 13  1  0  0  0  0
  2 16  1  0  0  0  0
  3 10  1  0  0  0  0
  4  9  1  0  0  0  0
  5 19  2  0  0  0  0
  5 12  1  0  0  0  0
  7 21  1  0  0  0  0
  7 11  1  0  0  0  0
  8 17  1  0  0  0  0
  9 23  1  0  0  0  0
  9  6  1  0  0  0  0
 10  6  1  0  0  0  0
 10 21  1  0  0  0  0
 11 18  1  0  0  0  0
 13 15  1  0  0  0  0
 14  1  1  0  0  0  0
 15  3  1  0  0  0  0
 15 17  1  0  0  0  0
 16  8  1  0  0  0  0
 17  7  1  0  0  0  0
 18 12  1  0  0  0  0
 20 13  1  0  0  0  0
 20 14  1  0  0  0  0
 21  5  1  0  0  0  0
 22 25  2  0  0  0  0
 25 24  1  0  0  0  0
 25 23  1  0  0  0  0
 26 14  1  0  0  0  0
 27 26  1  0  0  0  0
 28 26  1  0  0  0  0
 29 30  2  0  0  0  0
 30 20  1  0  0  0  0
M  END
>  <MODEL>
5

>  <REMARK>
 VINA RESULT:      -8.0      1.737      3.222
  Name = 
  3 active torsions:
  status: ('A' for Active; 'I' for Inactive)
    1  A    between atoms: C_2  and  C_22
    2  A    between atoms: N_9  and  C_12
    3  A    between atoms: C_28  and  C_29
                            x       y       z     vdW  Elec       q    Type
                         _______ _______ _______ _____ _____    ______ ____

>  <TORSDO>
F 3

$$$$
=
 OpenBabel10272413573D

 30 34  0  0  1  0  0  0  0  0999 V2000
  189.8550  178.1700  143.7060 C   0  0  2  0  0  3  0  0  0  0  0  0
  187.0060  176.9970  146.8140 C   0  0  0  0  0  2  0  0  0  0  0  0
  188.8570  177.0370  143.3910 C   0  0  2  0  0  3  0  0  0  0  0  0
  190.9600  178.3370  142.6510 C   0  0  0  0  0  2  0  0  0  0  0  0
  186.8860  178.3840  140.2970 C   0  0  0  0  0  0  0  0  0  0  0  0
  189.5660  177.1320  140.9400 C   0  0  0  0  0  2  0  0  0  0  0  0
  186.2540  178.2360  142.7090 C   0  0  2  0  0  3  0  0  0  0  0  0
  185.5930  178.1910  145.1390 C   0  0  0  0  0  2  0  0  0  0  0  0
  190.9420  177.2180  141.6130 C   0  0  1  0  0  3  0  0  0  0  0  0
  188.3780  177.0990  141.9260 C   0  0  2  0  0  3  0  0  0  0  0  0
  185.2780  179.3850  142.4290 C   0  0  0  0  0  2  0  0  0  0  0  0
  185.4040  178.3490  140.0650 C   0  0  0  0  0  2  0  0  0  0  0  0
  188.1900  176.9640  145.8380 C   0  0  1  0  0  3  0  0  0  0  0  0
  190.4110  178.0430  145.1290 C   0  0  1  0  0  3  0  0  0  0  0  0
  187.6860  177.0420  144.3810 C   0  0  1  0  0  3  0  0  0  0  0  0
  186.1150  178.2110  146.5700 C   0  0  0  0  0  2  0  0  0  0  0  0
  186.7610  178.2520  144.1520 C   0  0  1  0  0  3  0  0  0  0  0  0
  184.6880  179.3280  141.0070 C   0  0  0  0  0  2  0  0  0  0  0  0
  187.6370  178.5450  139.3480 O   0  0  0  0  0  0  0  0  0  0  0  0
  189.2450  178.0480  146.1490 C   0  0  2  0  0  3  0  0  0  0  0  0
  187.4270  178.2960  141.7090 C   0  0  1  0  0  3  0  0  0  0  0  0
  191.1550  175.8920  139.0880 O   0  0  0  0  0  0  0  0  0  0  0  0
  191.9720  177.4630  140.6150 N   0  0  0  0  0  2  0  0  0  0  0  0
  193.0810  177.0940  138.3840 C   0  0  0  0  0  1  0  0  0  0  0  0
  192.0120  176.7730  139.3650 C   0  0  0  0  0  0  0  0  0  0  0  0
  191.4540  176.9090  145.2600 C   0  0  0  0  0  3  0  0  0  0  0  0
  191.2180  175.7170  144.3460 C   0  0  0  0  0  1  0  0  0  0  0  0
  191.6130  176.4540  146.6980 C   0  0  0  0  0  1  0  0  0  0  0  0
  188.9690  178.5000  148.5520 C   0  0  0  0  0  2  0  0  0  0  0  0
  189.7150  177.9940  147.5720 C   0  0  0  0  0  3  0  0  0  0  0  0
  1  4  1  6  0  0  0
  1 14  1  0  0  0  0
  3  1  1  0  0  0  0
  3 15  1  0  0  0  0
  5 21  1  0  0  0  0
  6  9  1  0  0  0  0
  6 10  1  0  0  0  0
  7 17  1  0  0  0  0
  8 16  1  0  0  0  0
  9  4  1  0  0  0  0
 10  3  1  0  0  0  0
 11  7  1  0  0  0  0
 12  5  1  0  0  0  0
 12 18  1  0  0  0  0
 13 20  1  0  0  0  0
 13  2  1  0  0  0  0
 14 26  1  0  0  0  0
 14 20  1  0  0  0  0
 15 13  1  0  0  0  0
 16  2  1  0  0  0  0
 17 15  1  0  0  0  0
 17  8  1  0  0  0  0
 18 11  1  0  0  0  0
 19  5  2  0  0  0  0
 20 30  1  0  0  0  0
 21 10  1  0  0  0  0
 21  7  1  0  0  0  0
 22 25  2  0  0  0  0
 23  9  1  0  0  0  0
 24 25  1  0  0  0  0
 25 23  1  0  0  0  0
 26 28  1  0  0  0  0
 27 26  1  0  0  0  0
 30 29  2  0  0  0  0
M  END
>  <MODEL>
6

>  <REMARK>
 VINA RESULT:      -8.0      2.349      5.883
  Name = 
  3 active torsions:
  status: ('A' for Active; 'I' for Inactive)
    1  A    between atoms: C_2  and  C_22
    2  A    between atoms: N_9  and  C_12
    3  A    between atoms: C_28  and  C_29
                            x       y       z     vdW  Elec       q    Type
                         _______ _______ _______ _____ _____    ______ ____

>  <TORSDO>
F 3

$$$$
=
 OpenBabel10272413573D

 30 34  0  0  1  0  0  0  0  0999 V2000
  186.5990  178.9220  142.6590 C   0  0  2  0  0  3  0  0  0  0  0  0
  190.1010  176.5090  141.6280 C   0  0  0  0  0  2  0  0  0  0  0  0
  186.7060  177.5030  143.2520 C   0  0  2  0  0  3  0  0  0  0  0  0
  185.2310  179.5870  142.8800 C   0  0  0  0  0  2  0  0  0  0  0  0
  186.6700  178.1140  147.1120 C   0  0  0  0  0  0  0  0  0  0  0  0
  184.7340  178.0240  144.7860 C   0  0  0  0  0  2  0  0  0  0  0  0
  188.5460  177.5780  145.5520 C   0  0  2  0  0  3  0  0  0  0  0  0
  190.4900  177.1230  144.0160 C   0  0  0  0  0  2  0  0  0  0  0  0
  184.2090  178.6220  143.4750 C   0  0  1  0  0  3  0  0  0  0  0  0
  186.1660  177.4520  144.6950 C   0  0  2  0  0  3  0  0  0  0  0  0
  189.4690  178.2450  146.5790 C   0  0  0  0  0  2  0  0  0  0  0  0
  187.5590  177.4940  148.1480 C   0  0  0  0  0  2  0  0  0  0  0  0
  188.6560  177.0190  141.7000 C   0  0  1  0  0  3  0  0  0  0  0  0
  187.0380  178.9480  141.1910 C   0  0  1  0  0  3  0  0  0  0  0  0
  188.1420  176.9720  143.1550 C   0  0  1  0  0  3  0  0  0  0  0  0
  191.0090  177.2680  142.5910 C   0  0  0  0  0  2  0  0  0  0  0  0
  189.0820  177.7120  144.1250 C   0  0  1  0  0  3  0  0  0  0  0  0
  188.9890  178.0380  148.0280 C   0  0  0  0  0  2  0  0  0  0  0  0
  185.6150  178.6220  147.4540 O   0  0  0  0  0  0  0  0  0  0  0  0
  188.4880  178.4170  141.0680 C   0  0  2  0  0  3  0  0  0  0  0  0
  187.1270  178.1690  145.6680 C   0  0  1  0  0  3  0  0  0  0  0  0
  181.8580  178.4120  141.8590 O   0  0  0  0  0  0  0  0  0  0  0  0
  182.9560  179.3240  143.7110 N   0  0  0  0  0  2  0  0  0  0  0  0
  180.5600  179.8950  143.1880 C   0  0  0  0  0  1  0  0  0  0  0  0
  181.8140  179.1630  142.8700 C   0  0  0  0  0  0  0  0  0  0  0  0
  185.9810  178.3300  140.2440 C   0  0  0  0  0  3  0  0  0  0  0  0
  186.4830  178.0280  138.8410 C   0  0  0  0  0  1  0  0  0  0  0  0
  184.7160  179.1640  140.1910 C   0  0  0  0  0  1  0  0  0  0  0  0
  189.6670  177.4380  139.1430 C   0  0  0  0  0  2  0  0  0  0  0  0
  189.0120  178.4740  139.6630 C   0  0  0  0  0  3  0  0  0  0  0  0
  1  4  1  6  0  0  0
  1  3  1  0  0  0  0
  2 13  1  0  0  0  0
  2 16  1  0  0  0  0
  3 10  1  0  0  0  0
  4  9  1  0  0  0  0
  5 19  2  0  0  0  0
  5 12  1  0  0  0  0
  7 21  1  0  0  0  0
  7 11  1  0  0  0  0
  8 17  1  0  0  0  0
  9 23  1  0  0  0  0
  9  6  1  0  0  0  0
 10  6  1  0  0  0  0
 10 21  1  0  0  0  0
 11 18  1  0  0  0  0
 13 15  1  0  0  0  0
 14  1  1  0  0  0  0
 15  3  1  0  0  0  0
 15 17  1  0  0  0  0
 16  8  1  0  0  0  0
 17  7  1  0  0  0  0
 18 12  1  0  0  0  0
 20 14  1  0  0  0  0
 20 13  1  0  0  0  0
 21  5  1  0  0  0  0
 22 25  2  0  0  0  0
 25 24  1  0  0  0  0
 25 23  1  0  0  0  0
 26 14  1  0  0  0  0
 27 26  1  0  0  0  0
 28 26  1  0  0  0  0
 29 30  2  0  0  0  0
 30 20  1  0  0  0  0
M  END
>  <MODEL>
7

>  <REMARK>
 VINA RESULT:      -7.8      1.855      2.534
  Name = 
  3 active torsions:
  status: ('A' for Active; 'I' for Inactive)
    1  A    between atoms: C_2  and  C_22
    2  A    between atoms: N_9  and  C_12
    3  A    between atoms: C_28  and  C_29
                            x       y       z     vdW  Elec       q    Type
                         _______ _______ _______ _____ _____    ______ ____

>  <TORSDO>
F 3

$$$$
=
 OpenBabel10272413573D

 30 34  0  0  1  0  0  0  0  0999 V2000
  186.7700  177.4640  144.0320 C   0  0  2  0  0  3  0  0  0  0  0  0
  190.5420  177.9370  146.1990 C   0  0  0  0  0  2  0  0  0  0  0  0
  187.7130  178.6080  143.6110 C   0  0  2  0  0  3  0  0  0  0  0  0
  185.3790  177.5330  143.3820 C   0  0  0  0  0  2  0  0  0  0  0  0
  188.4870  177.8290  139.8600 C   0  0  0  0  0  0  0  0  0  0  0  0
  186.2650  179.0070  141.5470 C   0  0  0  0  0  2  0  0  0  0  0  0
  189.8540  177.4920  141.9220 C   0  0  2  0  0  3  0  0  0  0  0  0
  191.2470  177.0500  143.9750 C   0  0  0  0  0  2  0  0  0  0  0  0
  185.1690  178.8300  142.6040 C   0  0  1  0  0  3  0  0  0  0  0  0
  187.7010  178.8160  142.0830 C   0  0  2  0  0  3  0  0  0  0  0  0
  190.5880  176.3920  141.1460 C   0  0  0  0  0  2  0  0  0  0  0  0
  189.8170  177.8670  139.1690 C   0  0  0  0  0  2  0  0  0  0  0  0
  189.1200  178.1890  145.6820 C   0  0  1  0  0  3  0  0  0  0  0  0
  186.7030  177.3290  145.5570 C   0  0  1  0  0  3  0  0  0  0  0  0
  189.1310  178.3800  144.1500 C   0  0  1  0  0  3  0  0  0  0  0  0
  191.2010  176.7690  145.4710 C   0  0  0  0  0  2  0  0  0  0  0  0
  189.8270  177.2120  143.4260 C   0  0  1  0  0  3  0  0  0  0  0  0
  190.7040  176.7060  139.6420 C   0  0  0  0  0  2  0  0  0  0  0  0
  187.4640  177.8740  139.1950 O   0  0  0  0  0  0  0  0  0  0  0  0
  188.1250  177.0950  146.1250 C   0  0  2  0  0  3  0  0  0  0  0  0
  188.4270  177.6580  141.3640 C   0  0  1  0  0  3  0  0  0  0  0  0
  182.6730  179.2640  143.9320 O   0  0  0  0  0  0  0  0  0  0  0  0
  183.8600  178.8100  141.9690 N   0  0  0  0  0  2  0  0  0  0  0  0
  181.3510  179.0370  141.9690 C   0  0  0  0  0  1  0  0  0  0  0  0
  182.6500  179.0480  142.6900 C   0  0  0  0  0  0  0  0  0  0  0  0
  185.8580  178.4450  146.2150 C   0  0  0  0  0  3  0  0  0  0  0  0
  186.6480  179.4170  147.0770 C   0  0  0  0  0  1  0  0  0  0  0  0
  184.6830  177.8790  146.9890 C   0  0  0  0  0  1  0  0  0  0  0  0
  188.6030  177.8300  148.4240 C   0  0  0  0  0  2  0  0  0  0  0  0
  188.1320  176.8870  147.6110 C   0  0  0  0  0  3  0  0  0  0  0  0
  1  4  1  1  0  0  0
  1 14  1  0  0  0  0
  3  1  1  0  0  0  0
  3 15  1  0  0  0  0
  5 21  1  0  0  0  0
  6 10  1  0  0  0  0
  6  9  1  0  0  0  0
  7 17  1  0  0  0  0
  8 16  1  0  0  0  0
  9  4  1  0  0  0  0
 10  3  1  0  0  0  0
 11  7  1  0  0  0  0
 12 18  1  0  0  0  0
 12  5  1  0  0  0  0
 13 20  1  0  0  0  0
 13  2  1  0  0  0  0
 14 20  1  0  0  0  0
 14 26  1  0  0  0  0
 15 13  1  0  0  0  0
 16  2  1  0  0  0  0
 17  8  1  0  0  0  0
 17 15  1  0  0  0  0
 18 11  1  0  0  0  0
 19  5  2  0  0  0  0
 20 30  1  0  0  0  0
 21  7  1  0  0  0  0
 21 10  1  0  0  0  0
 23  9  1  0  0  0  0
 23 25  1  0  0  0  0
 24 25  1  0  0  0  0
 25 22  2  0  0  0  0
 26 28  1  0  0  0  0
 26 27  1  0  0  0  0
 30 29  2  0  0  0  0
M  END
>  <MODEL>
8

>  <REMARK>
 VINA RESULT:      -7.8      1.560      5.352
  Name = 
  3 active torsions:
  status: ('A' for Active; 'I' for Inactive)
    1  A    between atoms: C_2  and  C_22
    2  A    between atoms: N_9  and  C_12
    3  A    between atoms: C_28  and  C_29
                            x       y       z     vdW  Elec       q    Type
                         _______ _______ _______ _____ _____    ______ ____

>  <TORSDO>
F 3

$$$$
=
 OpenBabel10272413573D

 30 34  0  0  1  0  0  0  0  0999 V2000
  188.5590  178.1850  144.6380 C   0  0  2  0  0  3  0  0  0  0  0  0
  184.6310  178.0380  142.7140 C   0  0  0  0  0  2  0  0  0  0  0  0
  188.2270  176.9690  143.7510 C   0  0  2  0  0  3  0  0  0  0  0  0
  189.8510  178.0260  145.4540 C   0  0  0  0  0  2  0  0  0  0  0  0
  190.9950  177.0580  140.9930 C   0  0  0  0  0  0  0  0  0  0  0  0
  190.6690  176.2350  143.8880 C   0  0  0  0  0  2  0  0  0  0  0  0
  188.5900  177.7310  140.9290 C   0  0  2  0  0  3  0  0  0  0  0  0
  186.1950  178.5050  140.8270 C   0  0  0  0  0  2  0  0  0  0  0  0
  190.4270  176.6150  145.3550 C   0  0  1  0  0  3  0  0  0  0  0  0
  189.4620  176.4930  142.9590 C   0  0  2  0  0  3  0  0  0  0  0  0
  188.9770  178.6640  139.7740 C   0  0  0  0  0  2  0  0  0  0  0  0
  190.8240  176.8760  139.5140 C   0  0  0  0  0  2  0  0  0  0  0  0
  185.8060  177.7220  143.6500 C   0  0  1  0  0  3  0  0  0  0  0  0
  187.3600  178.5890  145.5020 C   0  0  1  0  0  3  0  0  0  0  0  0
  187.0330  177.2640  142.8340 C   0  0  1  0  0  3  0  0  0  0  0  0
  185.0290  179.0470  141.6410 C   0  0  0  0  0  2  0  0  0  0  0  0
  187.4060  178.2730  141.7320 C   0  0  1  0  0  3  0  0  0  0  0  0
  190.1070  178.0870  138.9000 C   0  0  0  0  0  2  0  0  0  0  0  0
  192.0990  176.9130  141.4910 O   0  0  0  0  0  0  0  0  0  0  0  0
  186.1410  178.8950  144.5970 C   0  0  2  0  0  3  0  0  0  0  0  0
  189.8140  177.4940  141.8360 C   0  0  1  0  0  3  0  0  0  0  0  0
  190.7970  175.2590  147.8450 O   0  0  0  0  0  0  0  0  0  0  0  0
  191.6750  176.5450  146.1010 N   0  0  0  0  0  2  0  0  0  0  0  0
  193.1070  175.7880  148.0300 C   0  0  0  0  0  1  0  0  0  0  0  0
  191.7940  175.8380  147.3360 C   0  0  0  0  0  0  0  0  0  0  0  0
  187.1300  177.6210  146.6880 C   0  0  0  0  0  3  0  0  0  0  0  0
  185.6700  177.3740  147.0320 C   0  0  0  0  0  1  0  0  0  0  0  0
  187.9050  178.0460  147.9190 C   0  0  0  0  0  1  0  0  0  0  0  0
  183.7140  179.1630  144.9010 C   0  0  0  0  0  2  0  0  0  0  0  0
  184.9430  179.3620  145.3700 C   0  0  0  0  0  3  0  0  0  0  0  0
  1  4  1  1  0  0  0
  1 14  1  0  0  0  0
  2 13  1  0  0  0  0
  3  1  1  0  0  0  0
  5 19  2  0  0  0  0
  5 21  1  0  0  0  0
  6  9  1  0  0  0  0
  7 17  1  0  0  0  0
  7 21  1  0  0  0  0
  8 16  1  0  0  0  0
  8 17  1  0  0  0  0
  9  4  1  0  0  0  0
  9 23  1  0  0  0  0
 10  3  1  0  0  0  0
 10  6  1  0  0  0  0
 11  7  1  0  0  0  0
 12  5  1  0  0  0  0
 13 20  1  0  0  0  0
 14 26  1  0  0  0  0
 15 13  1  0  0  0  0
 15  3  1  0  0  0  0
 16  2  1  0  0  0  0
 17 15  1  0  0  0  0
 18 12  1  0  0  0  0
 18 11  1  0  0  0  0
 20 30  1  0  0  0  0
 20 14  1  0  0  0  0
 21 10  1  0  0  0  0
 23 25  1  0  0  0  0
 25 22  2  0  0  0  0
 25 24  1  0  0  0  0
 26 27  1  0  0  0  0
 26 28  1  0  0  0  0
 29 30  2  0  0  0  0
M  END
>  <MODEL>
9

>  <REMARK>
 VINA RESULT:      -7.7      2.955      7.521
  Name = 
  3 active torsions:
  status: ('A' for Active; 'I' for Inactive)
    1  A    between atoms: C_2  and  C_22
    2  A    between atoms: N_9  and  C_12
    3  A    between atoms: C_28  and  C_29
                            x       y       z     vdW  Elec       q    Type
                         _______ _______ _______ _____ _____    ______ ____

>  <TORSDO>
F 3

$$$$
