=
 OpenBabel10272401213D

 55 60  0  0  1  0  0  0  0  0999 V2000
  190.1880  178.3360  138.2650 C   0  0  0  0  0  2  0  0  0  0  0  0
  186.3860  174.2480  136.8620 C   0  0  0  0  0  2  0  0  0  0  0  0
  188.5300  171.0420  137.6000 O   0  0  0  0  0  0  0  0  0  0  0  0
  185.7660  176.9760  136.8370 C   0  0  0  0  0  2  0  0  0  0  0  0
  185.3680  176.7330  134.3890 C   0  0  0  0  0  2  0  0  0  0  0  0
  190.3820  172.3670  135.7600 C   0  0  0  0  0  2  0  0  0  0  0  0
  181.4990  175.8050  136.5430 C   0  0  0  0  0  2  0  0  0  0  0  0
  182.2980  176.0440  138.9400 C   0  0  2  0  0  3  0  0  0  0  0  0
  182.5760  177.4290  138.8990 O   0  0  0  0  0  0  0  0  0  0  0  0
  190.9330  172.6840  134.3710 C   0  0  0  0  0  2  0  0  0  0  0  0
  191.5290  174.3690  136.6770 C   0  0  2  0  0  3  0  0  0  0  0  0
  192.0850  174.7170  135.3020 C   0  0  0  0  0  2  0  0  0  0  0  0
  189.2870  174.7980  138.6260 C   0  0  0  0  0  2  0  0  0  0  0  0
  183.5000  177.5030  135.8830 C   0  0  1  0  0  3  0  0  0  0  0  0
  183.8610  176.7070  134.6300 C   0  0  0  0  0  2  0  0  0  0  0  0
  192.2560  173.4390  134.4800 C   0  0  0  0  0  2  0  0  0  0  0  0
  188.7680  180.2910  136.0060 C   0  0  0  0  0  2  0  0  0  0  0  0
  181.6810  177.5570  136.0540 S   0  0  0  0  0  0  0  0  0  0  0  0
  190.1710  173.6660  136.5350 C   0  0  2  0  0  3  0  0  0  0  0  0
  189.3240  178.0860  135.0980 C   0  0  0  0  0  0  0  0  0  0  0  0
  190.0990  177.0960  139.0230 N   0  0  2  0  0  0  0  0  0  0  0  0
  181.1310  175.6720  138.0180 C   0  0  1  0  0  3  0  0  0  0  0  0
  190.1870  177.2890  134.6420 O   0  0  0  0  0  0  0  0  0  0  0  0
  192.4100  175.3690  138.8070 C   0  0  2  0  0  3  0  0  0  0  0  0
  191.2980  177.0710  139.8790 C   0  0  0  0  0  2  0  0  0  0  0  0
  185.7830  174.7840  135.7100 O   0  0  0  0  0  0  0  0  0  0  0  0
  191.5000  175.5980  137.5920 C   0  0  2  0  0  3  0  0  0  0  0  0
  187.0980  172.9600  136.5250 C   0  0  0  0  0  2  0  0  0  0  0  0
  188.0610  172.4450  137.9560 S   0  0  2  0  0  0  0  0  0  0  0  0
  189.0000  180.3740  137.5120 C   0  0  0  0  0  2  0  0  0  0  0  0
  184.2570  176.9630  137.1230 C   0  0  2  0  0  3  0  0  0  0  0  0
  186.1330  176.1540  135.5800 C   0  0  2  0  0  0  0  0  0  0  0  0
  188.8390  179.0260  138.2010 C   0  0  0  0  0  2  0  0  0  0  0  0
  189.5700  173.4550  137.9330 C   0  0  2  0  0  3  0  0  0  0  0  0
  190.0790  175.9890  138.0530 C   0  0  1  0  0  3  0  0  0  0  0  0
  179.9870  176.4200  138.3090 O   0  0  0  0  0  1  0  0  0  0  0  0
  187.6300  176.2970  135.2760 C   0  0  0  0  0  2  0  0  0  0  0  0
  191.8120  175.7660  140.0290 O   0  0  0  0  0  0  0  0  0  0  0  0
  183.9150  177.6780  138.4790 C   0  0  1  0  0  0  0  0  0  0  0  0
  188.0160  177.6620  135.3320 O   0  0  0  0  0  0  0  0  0  0  0  0
  189.6870  179.4000  135.3860 O   0  0  0  0  0  0  0  0  0  0  0  0
  184.0510  179.1720  138.2880 C   0  0  0  0  0  0  0  0  0  0  0  0
  185.3090  179.7630  138.2410 O   0  0  0  0  0  1  0  0  0  0  0  0
  183.0270  179.9040  138.2040 O   0  0  0  0  0  0  0  0  0  0  0  0
  181.6560  176.7090  141.3020 C   0  0  0  0  0  1  0  0  0  0  0  0
  182.0540  175.5720  140.3750 C   0  0  0  0  0  2  0  0  0  0  0  0
  184.8980  177.3050  139.6200 C   0  0  0  0  0  2  0  0  0  0  0  0
  184.8850  178.2550  140.8110 C   0  0  0  0  0  1  0  0  0  0  0  0
  193.7740  176.0160  138.6000 C   0  0  0  0  0  2  0  0  0  0  0  0
  194.7490  175.0040  138.0230 C   0  0  0  0  0  2  0  0  0  0  0  0
  195.9900  175.4490  140.1140 C   0  0  0  0  0  1  0  0  0  0  0  0
  195.5720  174.3740  139.1310 C   0  0  2  0  0  3  0  0  0  0  0  0
  196.7590  173.7460  138.5730 N   0  0  0  0  0  2  0  0  0  0  0  0
  196.7530  174.0230  137.1470 C   0  0  0  0  0  2  0  0  0  0  0  0
  198.1780  174.1390  136.6490 C   0  0  0  0  0  1  0  0  0  0  0  0
  3 29  2  0  0  0  0
  4 31  1  0  0  0  0
  5 15  1  0  0  0  0
  5 32  1  0  0  0  0
  7 22  1  0  0  0  0
  8 46  1  1  0  0  0
  9  8  1  0  0  0  0
 10 16  1  0  0  0  0
 10  6  1  0  0  0  0
 11 12  1  6  0  0  0
 11 27  1  0  0  0  0
 14 15  1  6  0  0  0
 14 18  1  0  0  0  0
 14 31  1  0  0  0  0
 16 12  1  0  0  0  0
 17 30  1  0  0  0  0
 18  7  1  0  0  0  0
 19  6  1  1  0  0  0
 19 11  1  0  0  0  0
 19 34  1  0  0  0  0
 20 40  1  0  0  0  0
 20 41  1  0  0  0  0
 21  1  1  6  0  0  0
 21 25  1  0  0  0  0
 22 36  1  1  0  0  0
 22  8  1  0  0  0  0
 23 20  2  0  0  0  0
 24 49  1  6  0  0  0
 24 38  1  0  0  0  0
 25 38  1  0  0  0  0
 26  2  1  0  0  0  0
 27 35  1  0  0  0  0
 27 24  1  0  0  0  0
 28  2  1  0  0  0  0
 28 29  1  0  0  0  0
 30 33  1  0  0  0  0
 31 39  1  0  0  0  0
 32 26  1  0  0  0  0
 32  4  1  0  0  0  0
 33  1  1  0  0  0  0
 34 29  1  0  0  0  0
 34 13  1  0  0  0  0
 35 13  1  0  0  0  0
 35 21  1  0  0  0  0
 37 40  1  0  0  0  0
 37 32  1  0  0  0  0
 39  9  1  0  0  0  0
 39 47  1  0  0  0  0
 41 17  1  0  0  0  0
 42 39  1  0  0  0  0
 43 42  1  0  0  0  0
 44 42  2  0  0  0  0
 46 45  1  0  0  0  0
 47 48  1  0  0  0  0
 50 49  1  0  0  0  0
 50 52  1  0  0  0  0
 52 51  1  0  0  0  0
 53 52  1  0  0  0  0
 54 53  1  0  0  0  0
 55 54  1  0  0  0  0
M  END
>  <MODEL>
1

>  <REMARK>
 VINA RESULT:      10.6      0.000      0.000
  Name = 
  8 active torsions:
  status: ('A' for Active; 'I' for Inactive)
    1  A    between atoms: C_1  and  C_53
    2  A    between atoms: C_6  and  C_53
    3  A    between atoms: C_12  and  C_38
    4  A    between atoms: C_13  and  C_33
    5  A    between atoms: C_13  and  C_48
    6  A    between atoms: C_18  and  N_39
    7  A    between atoms: C_32  and  N_39
    8  A    between atoms: C_32  and  C_48
                            x       y       z     vdW  Elec       q    Type
                         _______ _______ _______ _____ _____    ______ ____

>  <TORSDO>
F 8

$$$$
=
 OpenBabel10272401213D

 55 60  0  0  1  0  0  0  0  0999 V2000
  187.6400  175.1340  136.9720 C   0  0  0  0  0  2  0  0  0  0  0  0
  183.2240  176.5770  140.3730 C   0  0  0  0  0  2  0  0  0  0  0  0
  180.7080  173.6970  139.4790 O   0  0  0  0  0  0  0  0  0  0  0  0
  185.6600  177.9520  140.3760 C   0  0  0  0  0  2  0  0  0  0  0  0
  184.3850  179.9550  139.6190 C   0  0  0  0  0  2  0  0  0  0  0  0
  181.1810  174.6930  136.7670 C   0  0  0  0  0  2  0  0  0  0  0  0
  184.3400  179.8870  144.1420 C   0  0  0  0  0  2  0  0  0  0  0  0
  185.6020  177.7200  144.5310 C   0  0  2  0  0  3  0  0  0  0  0  0
  186.8460  178.1410  144.0080 O   0  0  0  0  0  0  0  0  0  0  0  0
  180.8940  175.6110  135.5800 C   0  0  0  0  0  2  0  0  0  0  0  0
  183.4190  174.1690  135.8270 C   0  0  2  0  0  3  0  0  0  0  0  0
  183.1650  175.0850  134.6360 C   0  0  0  0  0  2  0  0  0  0  0  0
  184.5650  173.9570  138.5930 C   0  0  0  0  0  2  0  0  0  0  0  0
  185.6580  180.0370  141.7820 C   0  0  1  0  0  3  0  0  0  0  0  0
  184.4170  180.5190  141.0360 C   0  0  0  0  0  2  0  0  0  0  0  0
  181.6660  175.1470  134.3460 C   0  0  0  0  0  2  0  0  0  0  0  0
  188.4000  178.3470  136.7660 C   0  0  0  0  0  2  0  0  0  0  0  0
  185.7210  180.8430  143.4220 S   0  0  0  0  0  0  0  0  0  0  0  0
  182.6800  174.6960  137.0660 C   0  0  2  0  0  3  0  0  0  0  0  0
  186.0370  177.9250  136.2800 C   0  0  0  0  0  0  0  0  0  0  0  0
  186.8390  174.1180  137.6410 N   0  0  2  0  0  0  0  0  0  0  0  0
  184.8360  178.8810  145.1750 C   0  0  1  0  0  3  0  0  0  0  0  0
  185.1500  177.5380  135.4740 O   0  0  0  0  0  0  0  0  0  0  0  0
  185.2590  172.4580  135.8750 C   0  0  2  0  0  3  0  0  0  0  0  0
  187.2190  172.8410  137.0130 C   0  0  0  0  0  2  0  0  0  0  0  0
  183.1990  177.9780  140.2500 O   0  0  0  0  0  0  0  0  0  0  0  0
  184.9190  173.9460  136.0470 C   0  0  2  0  0  3  0  0  0  0  0  0
  181.9380  175.9860  139.8460 C   0  0  0  0  0  2  0  0  0  0  0  0
  182.1140  174.1950  139.7840 S   0  0  2  0  0  0  0  0  0  0  0  0
  189.1230  177.0960  137.2560 C   0  0  0  0  0  2  0  0  0  0  0  0
  185.7220  178.4880  141.8150 C   0  0  2  0  0  3  0  0  0  0  0  0
  184.3930  178.4250  139.6270 C   0  0  2  0  0  0  0  0  0  0  0  0
  188.1930  176.1290  137.9750 C   0  0  0  0  0  2  0  0  0  0  0  0
  183.0650  173.8370  138.2790 C   0  0  2  0  0  3  0  0  0  0  0  0
  185.4230  174.4560  137.4140 C   0  0  1  0  0  3  0  0  0  0  0  0
  185.6000  179.5200  146.1570 O   0  0  0  0  0  1  0  0  0  0  0  0
  184.4410  177.9600  138.1660 C   0  0  0  0  0  2  0  0  0  0  0  0
  186.1190  171.9660  136.8880 O   0  0  0  0  0  0  0  0  0  0  0  0
  186.9350  177.8850  142.6090 C   0  0  1  0  0  0  0  0  0  0  0  0
  185.7120  178.2430  137.5990 O   0  0  0  0  0  0  0  0  0  0  0  0
  187.3600  178.0220  135.8520 O   0  0  0  0  0  0  0  0  0  0  0  0
  188.2090  178.5350  142.1170 C   0  0  0  0  0  0  0  0  0  0  0  0
  189.3610  178.5030  142.8950 O   0  0  0  0  0  1  0  0  0  0  0  0
  188.2340  179.1440  141.0130 O   0  0  0  0  0  0  0  0  0  0  0  0
  187.0940  176.6210  146.2640 C   0  0  0  0  0  1  0  0  0  0  0  0
  185.7790  176.5520  145.5040 C   0  0  0  0  0  2  0  0  0  0  0  0
  187.1160  176.3630  142.3670 C   0  0  0  0  0  2  0  0  0  0  0  0
  188.4670  175.8040  142.7930 C   0  0  0  0  0  1  0  0  0  0  0  0
  185.7990  172.1770  134.4780 C   0  0  0  0  0  2  0  0  0  0  0  0
  186.4200  170.7920  134.4280 C   0  0  0  0  0  2  0  0  0  0  0  0
  186.0500  168.3800  134.8230 C   0  0  0  0  0  1  0  0  0  0  0  0
  185.4680  169.7660  135.0160 C   0  0  2  0  0  3  0  0  0  0  0  0
  184.1790  169.8440  134.3460 N   0  0  0  0  0  2  0  0  0  0  0  0
  183.4880  168.5950  134.6140 C   0  0  0  0  0  2  0  0  0  0  0  0
  183.2550  168.4560  136.1030 C   0  0  0  0  0  1  0  0  0  0  0  0
  1 33  1  0  0  0  0
  3 29  2  0  0  0  0
  4 31  1  0  0  0  0
  5 32  1  0  0  0  0
  5 15  1  0  0  0  0
  7 22  1  0  0  0  0
  8 22  1  0  0  0  0
  8 46  1  1  0  0  0
  9  8  1  0  0  0  0
 10  6  1  0  0  0  0
 11 12  1  6  0  0  0
 11 27  1  0  0  0  0
 11 19  1  0  0  0  0
 14 15  1  1  0  0  0
 14 31  1  0  0  0  0
 14 18  1  0  0  0  0
 16 12  1  0  0  0  0
 16 10  1  0  0  0  0
 17 30  1  0  0  0  0
 18  7  1  0  0  0  0
 19  6  1  6  0  0  0
 19 34  1  0  0  0  0
 20 40  1  0  0  0  0
 21  1  1  6  0  0  0
 22 36  1  1  0  0  0
 23 20  2  0  0  0  0
 24 49  1  6  0  0  0
 24 27  1  0  0  0  0
 24 38  1  0  0  0  0
 25 21  1  0  0  0  0
 26  2  1  0  0  0  0
 27 35  1  0  0  0  0
 28  2  1  0  0  0  0
 29 28  1  0  0  0  0
 30 33  1  0  0  0  0
 31 39  1  0  0  0  0
 32 26  1  0  0  0  0
 32  4  1  0  0  0  0
 34 13  1  0  0  0  0
 34 29  1  0  0  0  0
 35 21  1  0  0  0  0
 35 13  1  0  0  0  0
 37 32  1  0  0  0  0
 38 25  1  0  0  0  0
 39  9  1  0  0  0  0
 40 37  1  0  0  0  0
 41 20  1  0  0  0  0
 41 17  1  0  0  0  0
 42 39  1  0  0  0  0
 42 43  1  0  0  0  0
 44 42  2  0  0  0  0
 46 45  1  0  0  0  0
 47 39  1  0  0  0  0
 47 48  1  0  0  0  0
 50 49  1  0  0  0  0
 50 52  1  0  0  0  0
 51 52  1  0  0  0  0
 53 54  1  0  0  0  0
 53 52  1  0  0  0  0
 54 55  1  0  0  0  0
M  END
>  <MODEL>
2

>  <REMARK>
 VINA RESULT:      11.3      3.834      7.708
  Name = 
  8 active torsions:
  status: ('A' for Active; 'I' for Inactive)
    1  A    between atoms: C_1  and  C_53
    2  A    between atoms: C_6  and  C_53
    3  A    between atoms: C_12  and  C_38
    4  A    between atoms: C_13  and  C_33
    5  A    between atoms: C_13  and  C_48
    6  A    between atoms: C_18  and  N_39
    7  A    between atoms: C_32  and  N_39
    8  A    between atoms: C_32  and  C_48
                            x       y       z     vdW  Elec       q    Type
                         _______ _______ _______ _____ _____    ______ ____

>  <TORSDO>
F 8

$$$$
=
 OpenBabel10272401213D

 55 60  0  0  1  0  0  0  0  0999 V2000
  187.3990  177.7270  140.2010 C   0  0  0  0  0  2  0  0  0  0  0  0
  186.4830  174.5380  135.4960 C   0  0  0  0  0  2  0  0  0  0  0  0
  190.0790  173.0490  134.9720 O   0  0  0  0  0  0  0  0  0  0  0  0
  184.4450  175.9300  136.8120 C   0  0  0  0  0  2  0  0  0  0  0  0
  184.1600  177.2430  134.7140 C   0  0  0  0  0  2  0  0  0  0  0  0
  190.8050  175.8850  135.0080 C   0  0  0  0  0  2  0  0  0  0  0  0
  181.5530  173.5570  134.4290 C   0  0  0  0  0  2  0  0  0  0  0  0
  182.1700  172.4490  136.6270 C   0  0  2  0  0  3  0  0  0  0  0  0
  181.6250  173.4330  137.4820 O   0  0  0  0  0  0  0  0  0  0  0  0
  191.0320  177.2440  134.3490 C   0  0  0  0  0  2  0  0  0  0  0  0
  190.6690  176.9800  137.2330 C   0  0  2  0  0  3  0  0  0  0  0  0
  190.8850  178.3510  136.6040 C   0  0  0  0  0  2  0  0  0  0  0  0
  188.6440  174.9580  138.1390 C   0  0  0  0  0  2  0  0  0  0  0  0
  182.2380  175.8960  135.6070 C   0  0  1  0  0  3  0  0  0  0  0  0
  182.9350  176.4100  134.3500 C   0  0  0  0  0  2  0  0  0  0  0  0
  191.7110  178.2050  135.3250 C   0  0  0  0  0  2  0  0  0  0  0  0
  185.0470  179.7940  139.1350 C   0  0  0  0  0  2  0  0  0  0  0  0
  180.7070  175.0190  135.1260 S   0  0  0  0  0  0  0  0  0  0  0  0
  189.9320  176.0580  136.2500 C   0  0  2  0  0  3  0  0  0  0  0  0
  186.7070  179.3130  137.4000 C   0  0  0  0  0  0  0  0  0  0  0  0
  188.0470  176.4340  140.0280 N   0  0  2  0  0  0  0  0  0  0  0  0
  181.3770  172.3320  135.3200 C   0  0  1  0  0  3  0  0  0  0  0  0
  187.8500  179.5140  136.9100 O   0  0  0  0  0  0  0  0  0  0  0  0
  190.9180  176.5460  139.6950 C   0  0  2  0  0  3  0  0  0  0  0  0
  189.0850  176.3710  141.0700 C   0  0  0  0  0  2  0  0  0  0  0  0
  185.6420  175.3680  134.7320 O   0  0  0  0  0  0  0  0  0  0  0  0
  189.9920  177.0980  138.6020 C   0  0  2  0  0  3  0  0  0  0  0  0
  187.7810  174.2980  134.7610 C   0  0  0  0  0  2  0  0  0  0  0  0
  188.9190  173.4520  135.8710 S   0  0  2  0  0  0  0  0  0  0  0  0
  185.2490  178.9390  140.3840 C   0  0  0  0  0  2  0  0  0  0  0  0
  183.2120  175.0720  136.4870 C   0  0  2  0  0  3  0  0  0  0  0  0
  185.1610  176.4330  135.5380 C   0  0  2  0  0  0  0  0  0  0  0  0
  185.8930  177.5960  140.0720 C   0  0  0  0  0  2  0  0  0  0  0  0
  189.6040  174.7360  136.9580 C   0  0  2  0  0  3  0  0  0  0  0  0
  188.6140  176.4060  138.6680 C   0  0  1  0  0  3  0  0  0  0  0  0
  180.0220  172.0890  135.5600 O   0  0  0  0  0  1  0  0  0  0  0  0
  186.3100  177.3760  135.9190 C   0  0  0  0  0  2  0  0  0  0  0  0
  190.2470  175.7080  140.6190 O   0  0  0  0  0  0  0  0  0  0  0  0
  182.5790  174.4480  137.7820 C   0  0  1  0  0  0  0  0  0  0  0  0
  185.8690  178.3310  136.8740 O   0  0  0  0  0  0  0  0  0  0  0  0
  186.2840  180.0720  138.4900 O   0  0  0  0  0  0  0  0  0  0  0  0
  181.8490  175.5360  138.5390 C   0  0  0  0  0  0  0  0  0  0  0  0
  182.5600  176.5390  139.1880 O   0  0  0  0  0  1  0  0  0  0  0  0
  180.5910  175.5280  138.6190 O   0  0  0  0  0  0  0  0  0  0  0  0
  183.2330  170.1460  136.6330 C   0  0  0  0  0  1  0  0  0  0  0  0
  182.2850  171.1000  137.3400 C   0  0  0  0  0  2  0  0  0  0  0  0
  183.6430  173.8910  138.7630 C   0  0  0  0  0  2  0  0  0  0  0  0
  184.7940  173.1440  138.1020 C   0  0  0  0  0  1  0  0  0  0  0  0
  191.6800  177.6690  140.3880 C   0  0  0  0  0  2  0  0  0  0  0  0
  193.0760  177.7900  139.8050 C   0  0  0  0  0  2  0  0  0  0  0  0
  194.8750  176.1800  140.3360 C   0  0  0  0  0  1  0  0  0  0  0  0
  193.6380  176.4150  139.4930 C   0  0  2  0  0  3  0  0  0  0  0  0
  193.9930  176.3320  138.0850 N   0  0  0  0  0  2  0  0  0  0  0  0
  194.2930  174.9390  137.8060 C   0  0  0  0  0  2  0  0  0  0  0  0
  193.0120  174.2020  137.4780 C   0  0  0  0  0  1  0  0  0  0  0  0
  3 29  2  0  0  0  0
  5 32  1  0  0  0  0
  7 18  1  0  0  0  0
  7 22  1  0  0  0  0
  8 46  1  1  0  0  0
  8  9  1  0  0  0  0
  9 39  1  0  0  0  0
 10  6  1  0  0  0  0
 10 16  1  0  0  0  0
 11 12  1  6  0  0  0
 11 27  1  0  0  0  0
 13 35  1  0  0  0  0
 14 15  1  6  0  0  0
 14 31  1  0  0  0  0
 15  5  1  0  0  0  0
 16 12  1  0  0  0  0
 17 30  1  0  0  0  0
 18 14  1  0  0  0  0
 19  6  1  6  0  0  0
 19 34  1  0  0  0  0
 19 11  1  0  0  0  0
 20 41  1  0  0  0  0
 21  1  1  1  0  0  0
 21 25  1  0  0  0  0
 22 36  1  1  0  0  0
 22  8  1  0  0  0  0
 23 20  2  0  0  0  0
 24 49  1  1  0  0  0
 24 38  1  0  0  0  0
 26  2  1  0  0  0  0
 26 32  1  0  0  0  0
 27 35  1  0  0  0  0
 27 24  1  0  0  0  0
 28  2  1  0  0  0  0
 28 29  1  0  0  0  0
 29 34  1  0  0  0  0
 31  4  1  0  0  0  0
 31 39  1  0  0  0  0
 32 37  1  0  0  0  0
 32  4  1  0  0  0  0
 33  1  1  0  0  0  0
 33 30  1  0  0  0  0
 34 13  1  0  0  0  0
 35 21  1  0  0  0  0
 37 40  1  0  0  0  0
 38 25  1  0  0  0  0
 39 42  1  0  0  0  0
 39 47  1  0  0  0  0
 40 20  1  0  0  0  0
 41 17  1  0  0  0  0
 42 44  2  0  0  0  0
 42 43  1  0  0  0  0
 45 46  1  0  0  0  0
 48 47  1  0  0  0  0
 50 49  1  0  0  0  0
 52 50  1  0  0  0  0
 52 51  1  0  0  0  0
 53 52  1  0  0  0  0
 54 53  1  0  0  0  0
 55 54  1  0  0  0  0
M  END
>  <MODEL>
3

>  <REMARK>
 VINA RESULT:      11.6      2.249      3.570
  Name = 
  8 active torsions:
  status: ('A' for Active; 'I' for Inactive)
    1  A    between atoms: C_1  and  C_53
    2  A    between atoms: C_6  and  C_53
    3  A    between atoms: C_12  and  C_38
    4  A    between atoms: C_13  and  C_33
    5  A    between atoms: C_13  and  C_48
    6  A    between atoms: C_18  and  N_39
    7  A    between atoms: C_32  and  N_39
    8  A    between atoms: C_32  and  C_48
                            x       y       z     vdW  Elec       q    Type
                         _______ _______ _______ _____ _____    ______ ____

>  <TORSDO>
F 8

$$$$
=
 OpenBabel10272401213D

 55 60  0  0  1  0  0  0  0  0999 V2000
  186.0240  177.8360  140.6660 C   0  0  0  0  0  2  0  0  0  0  0  0
  185.7320  175.2210  135.5460 C   0  0  0  0  0  2  0  0  0  0  0  0
  189.5590  174.7380  134.8090 O   0  0  0  0  0  0  0  0  0  0  0  0
  183.4680  175.8740  137.0520 C   0  0  0  0  0  2  0  0  0  0  0  0
  182.8010  177.3630  135.1690 C   0  0  0  0  0  2  0  0  0  0  0  0
  189.5840  177.6310  135.2590 C   0  0  0  0  0  2  0  0  0  0  0  0
  181.1470  173.2330  134.3500 C   0  0  0  0  0  2  0  0  0  0  0  0
  182.0900  172.0090  136.3620 C   0  0  2  0  0  3  0  0  0  0  0  0
  181.3550  172.6990  137.3520 O   0  0  0  0  0  0  0  0  0  0  0  0
  189.4550  179.0840  134.8050 C   0  0  0  0  0  2  0  0  0  0  0  0
  189.2690  178.3340  137.6190 C   0  0  2  0  0  3  0  0  0  0  0  0
  189.1270  179.7910  137.1970 C   0  0  0  0  0  2  0  0  0  0  0  0
  187.8220  175.7740  138.2210 C   0  0  0  0  0  2  0  0  0  0  0  0
  181.2910  175.4770  135.8570 C   0  0  1  0  0  3  0  0  0  0  0  0
  181.8000  176.3170  134.6870 C   0  0  0  0  0  2  0  0  0  0  0  0
  189.9170  180.0320  135.9110 C   0  0  0  0  0  2  0  0  0  0  0  0
  183.2080  179.4000  139.9150 C   0  0  0  0  0  2  0  0  0  0  0  0
  180.0000  174.3320  135.2530 S   0  0  0  0  0  0  0  0  0  0  0  0
  188.7400  177.4090  136.5130 C   0  0  2  0  0  3  0  0  0  0  0  0
  184.8720  179.5880  138.1280 C   0  0  0  0  0  0  0  0  0  0  0  0
  186.9560  176.7780  140.3060 N   0  0  2  0  0  0  0  0  0  0  0  0
  181.3020  171.8880  135.0530 C   0  0  1  0  0  3  0  0  0  0  0  0
  185.9140  180.1270  137.6720 O   0  0  0  0  0  0  0  0  0  0  0  0
  189.7030  177.6290  139.9920 C   0  0  2  0  0  3  0  0  0  0  0  0
  188.0160  176.8210  141.3280 C   0  0  0  0  0  2  0  0  0  0  0  0
  184.6890  175.9210  134.9130 O   0  0  0  0  0  0  0  0  0  0  0  0
  188.6330  178.0880  138.9920 C   0  0  2  0  0  3  0  0  0  0  0  0
  187.0220  175.4090  134.7840 C   0  0  0  0  0  2  0  0  0  0  0  0
  188.3690  174.7160  135.7580 S   0  0  2  0  0  0  0  0  0  0  0  0
  183.6530  178.4530  141.0250 C   0  0  0  0  0  2  0  0  0  0  0  0
  182.4660  174.7980  136.6070 C   0  0  2  0  0  3  0  0  0  0  0  0
  183.9960  176.7120  135.8660 C   0  0  2  0  0  0  0  0  0  0  0  0
  184.5900  177.3640  140.5200 C   0  0  0  0  0  2  0  0  0  0  0  0
  188.7640  175.9600  137.0200 C   0  0  2  0  0  3  0  0  0  0  0  0
  187.4640  177.0800  138.9570 C   0  0  1  0  0  3  0  0  0  0  0  0
  180.0540  171.2920  135.2550 O   0  0  0  0  0  1  0  0  0  0  0  0
  184.8980  177.8420  136.3790 C   0  0  0  0  0  2  0  0  0  0  0  0
  189.2860  176.5310  140.7840 O   0  0  0  0  0  0  0  0  0  0  0  0
  182.0480  173.8630  137.7970 C   0  0  1  0  0  0  0  0  0  0  0  0
  184.2750  178.5160  137.4640 O   0  0  0  0  0  0  0  0  0  0  0  0
  184.3170  180.0590  139.3160 O   0  0  0  0  0  0  0  0  0  0  0  0
  181.1060  174.6230  138.7040 C   0  0  0  0  0  0  0  0  0  0  0  0
  181.4830  175.8490  139.2410 O   0  0  0  0  0  1  0  0  0  0  0  0
  179.9830  174.1390  139.0130 O   0  0  0  0  0  0  0  0  0  0  0  0
  182.9450  169.7020  135.7420 C   0  0  0  0  0  1  0  0  0  0  0  0
  182.5500  170.6410  136.8710 C   0  0  0  0  0  2  0  0  0  0  0  0
  183.2500  173.4470  138.6860 C   0  0  0  0  0  2  0  0  0  0  0  0
  184.5170  173.0870  137.9210 C   0  0  0  0  0  1  0  0  0  0  0  0
  190.1970  178.7940  140.8410 C   0  0  0  0  0  2  0  0  0  0  0  0
  189.5520  178.7490  142.2150 C   0  0  0  0  0  2  0  0  0  0  0  0
  191.6330  177.7060  143.0450 C   0  0  0  0  0  1  0  0  0  0  0  0
  190.6140  178.7990  143.2980 C   0  0  2  0  0  3  0  0  0  0  0  0
  190.0030  178.5950  144.6010 N   0  0  0  0  0  2  0  0  0  0  0  0
  190.4480  177.2970  145.0790 C   0  0  0  0  0  2  0  0  0  0  0  0
  189.7860  176.9930  146.4060 C   0  0  0  0  0  1  0  0  0  0  0  0
  3 29  2  0  0  0  0
  5 32  1  0  0  0  0
  7 22  1  0  0  0  0
  7 18  1  0  0  0  0
  8 46  1  1  0  0  0
  8  9  1  0  0  0  0
  9 39  1  0  0  0  0
 10  6  1  0  0  0  0
 10 16  1  0  0  0  0
 11 12  1  6  0  0  0
 11 27  1  0  0  0  0
 13 35  1  0  0  0  0
 14 15  1  6  0  0  0
 14 31  1  0  0  0  0
 15  5  1  0  0  0  0
 16 12  1  0  0  0  0
 17 30  1  0  0  0  0
 18 14  1  0  0  0  0
 19  6  1  6  0  0  0
 19 34  1  0  0  0  0
 19 11  1  0  0  0  0
 20 41  1  0  0  0  0
 21  1  1  1  0  0  0
 21 25  1  0  0  0  0
 22 36  1  1  0  0  0
 22  8  1  0  0  0  0
 23 20  2  0  0  0  0
 24 38  1  0  0  0  0
 24 49  1  1  0  0  0
 26  2  1  0  0  0  0
 26 32  1  0  0  0  0
 27 24  1  0  0  0  0
 28  2  1  0  0  0  0
 28 29  1  0  0  0  0
 29 34  1  0  0  0  0
 31  4  1  0  0  0  0
 31 39  1  0  0  0  0
 32 37  1  0  0  0  0
 32  4  1  0  0  0  0
 33  1  1  0  0  0  0
 33 30  1  0  0  0  0
 34 13  1  0  0  0  0
 35 27  1  0  0  0  0
 35 21  1  0  0  0  0
 37 40  1  0  0  0  0
 38 25  1  0  0  0  0
 39 47  1  0  0  0  0
 39 42  1  0  0  0  0
 40 20  1  0  0  0  0
 41 17  1  0  0  0  0
 42 44  2  0  0  0  0
 42 43  1  0  0  0  0
 45 46  1  0  0  0  0
 48 47  1  0  0  0  0
 49 50  1  0  0  0  0
 50 52  1  0  0  0  0
 51 52  1  0  0  0  0
 52 53  1  0  0  0  0
 53 54  1  0  0  0  0
 54 55  1  0  0  0  0
M  END
>  <MODEL>
4

>  <REMARK>
 VINA RESULT:      12.3      3.564      5.479
  Name = 
  8 active torsions:
  status: ('A' for Active; 'I' for Inactive)
    1  A    between atoms: C_1  and  C_53
    2  A    between atoms: C_6  and  C_53
    3  A    between atoms: C_12  and  C_38
    4  A    between atoms: C_13  and  C_33
    5  A    between atoms: C_13  and  C_48
    6  A    between atoms: C_18  and  N_39
    7  A    between atoms: C_32  and  N_39
    8  A    between atoms: C_32  and  C_48
                            x       y       z     vdW  Elec       q    Type
                         _______ _______ _______ _____ _____    ______ ____

>  <TORSDO>
F 8

$$$$
=
 OpenBabel10272401213D

 55 60  0  0  1  0  0  0  0  0999 V2000
  187.8330  177.9260  140.0610 C   0  0  0  0  0  2  0  0  0  0  0  0
  186.6450  174.2750  135.7720 C   0  0  0  0  0  2  0  0  0  0  0  0
  190.0890  172.4070  135.4940 O   0  0  0  0  0  0  0  0  0  0  0  0
  184.7390  176.0010  136.8730 C   0  0  0  0  0  2  0  0  0  0  0  0
  184.5880  177.0640  134.6240 C   0  0  0  0  0  2  0  0  0  0  0  0
  191.0760  175.1470  135.1920 C   0  0  0  0  0  2  0  0  0  0  0  0
  181.6500  173.6270  134.7550 C   0  0  0  0  0  2  0  0  0  0  0  0
  182.1510  172.7490  137.0820 C   0  0  2  0  0  3  0  0  0  0  0  0
  181.6960  173.8780  137.8010 O   0  0  0  0  0  0  0  0  0  0  0  0
  191.4320  176.3860  134.3740 C   0  0  0  0  0  2  0  0  0  0  0  0
  191.0330  176.5180  137.2610 C   0  0  2  0  0  3  0  0  0  0  0  0
  191.3790  177.7740  136.4710 C   0  0  0  0  0  2  0  0  0  0  0  0
  188.8230  174.8200  138.3770 C   0  0  0  0  0  2  0  0  0  0  0  0
  182.5440  176.0210  135.6460 C   0  0  1  0  0  3  0  0  0  0  0  0
  183.2930  176.3080  134.3460 C   0  0  0  0  0  2  0  0  0  0  0  0
  192.1930  177.3940  135.2340 C   0  0  0  0  0  2  0  0  0  0  0  0
  185.6890  180.0520  138.7100 C   0  0  0  0  0  2  0  0  0  0  0  0
  180.9410  175.2360  135.2520 S   0  0  0  0  0  0  0  0  0  0  0  0
  190.2170  175.5530  136.3880 C   0  0  2  0  0  3  0  0  0  0  0  0
  187.3050  179.2090  137.0750 C   0  0  0  0  0  0  0  0  0  0  0  0
  188.3580  176.5670  140.0590 N   0  0  2  0  0  0  0  0  0  0  0  0
  181.3560  172.5430  135.7880 C   0  0  1  0  0  3  0  0  0  0  0  0
  188.4640  179.2410  136.5830 O   0  0  0  0  0  0  0  0  0  0  0  0
  191.2290  176.3720  139.7620 C   0  0  2  0  0  3  0  0  0  0  0  0
  189.3810  176.5390  141.1190 C   0  0  0  0  0  2  0  0  0  0  0  0
  185.8880  175.0770  134.8980 O   0  0  0  0  0  0  0  0  0  0  0  0
  190.3630  176.8670  138.5940 C   0  0  2  0  0  3  0  0  0  0  0  0
  187.9180  173.8260  135.0940 C   0  0  0  0  0  2  0  0  0  0  0  0
  188.9670  173.0240  136.3170 S   0  0  2  0  0  0  0  0  0  0  0  0
  185.8050  179.3450  140.0580 C   0  0  0  0  0  2  0  0  0  0  0  0
  183.4330  175.2260  136.6370 C   0  0  2  0  0  3  0  0  0  0  0  0
  185.5060  176.2740  135.5580 C   0  0  2  0  0  0  0  0  0  0  0  0
  186.3220  177.9200  139.9250 C   0  0  0  0  0  2  0  0  0  0  0  0
  189.7640  174.3640  137.2480 C   0  0  2  0  0  3  0  0  0  0  0  0
  188.9260  176.3180  138.7230 C   0  0  1  0  0  3  0  0  0  0  0  0
  179.9830  172.4580  136.0340 O   0  0  0  0  0  1  0  0  0  0  0  0
  186.7360  177.1470  135.8380 C   0  0  0  0  0  2  0  0  0  0  0  0
  190.4780  175.7210  140.7720 O   0  0  0  0  0  0  0  0  0  0  0  0
  182.7390  174.8300  137.9880 C   0  0  1  0  0  0  0  0  0  0  0  0
  186.3820  178.2490  136.6610 O   0  0  0  0  0  0  0  0  0  0  0  0
  186.9490  180.1330  138.0560 O   0  0  0  0  0  0  0  0  0  0  0  0
  182.1110  176.0660  138.5930 C   0  0  0  0  0  0  0  0  0  0  0  0
  182.6990  176.6910  139.6860 O   0  0  0  0  0  1  0  0  0  0  0  0
  181.0290  176.5250  138.1350 O   0  0  0  0  0  0  0  0  0  0  0  0
  182.8060  170.3070  137.2880 C   0  0  0  0  0  1  0  0  0  0  0  0
  182.1350  171.4940  137.9590 C   0  0  0  0  0  2  0  0  0  0  0  0
  183.7420  174.3040  139.0480 C   0  0  0  0  0  2  0  0  0  0  0  0
  185.0540  173.7780  138.4800 C   0  0  0  0  0  1  0  0  0  0  0  0
  192.0890  177.4980  140.3230 C   0  0  0  0  0  2  0  0  0  0  0  0
  192.2470  177.3360  141.8240 C   0  0  0  0  0  2  0  0  0  0  0  0
  192.3280  179.0890  143.5660 C   0  0  0  0  0  1  0  0  0  0  0  0
  191.4380  178.3910  142.5570 C   0  0  2  0  0  3  0  0  0  0  0  0
  190.3220  177.7690  143.2500 N   0  0  0  0  0  2  0  0  0  0  0  0
  190.4620  178.0970  144.6570 C   0  0  0  0  0  2  0  0  0  0  0  0
  189.0910  178.1800  145.2950 C   0  0  0  0  0  1  0  0  0  0  0  0
  3 29  2  0  0  0  0
  5 32  1  0  0  0  0
  7 18  1  0  0  0  0
  7 22  1  0  0  0  0
  8  9  1  0  0  0  0
  8 46  1  1  0  0  0
  9 39  1  0  0  0  0
 10  6  1  0  0  0  0
 10 16  1  0  0  0  0
 11 12  1  6  0  0  0
 11 27  1  0  0  0  0
 13 35  1  0  0  0  0
 14 15  1  6  0  0  0
 14 31  1  0  0  0  0
 15  5  1  0  0  0  0
 16 12  1  0  0  0  0
 17 30  1  0  0  0  0
 18 14  1  0  0  0  0
 19  6  1  6  0  0  0
 19 34  1  0  0  0  0
 19 11  1  0  0  0  0
 20 41  1  0  0  0  0
 21  1  1  6  0  0  0
 21 25  1  0  0  0  0
 22 36  1  1  0  0  0
 22  8  1  0  0  0  0
 23 20  2  0  0  0  0
 24 49  1  1  0  0  0
 24 38  1  0  0  0  0
 26 32  1  0  0  0  0
 26  2  1  0  0  0  0
 27 35  1  0  0  0  0
 27 24  1  0  0  0  0
 28  2  1  0  0  0  0
 28 29  1  0  0  0  0
 29 34  1  0  0  0  0
 31  4  1  0  0  0  0
 31 39  1  0  0  0  0
 32 37  1  0  0  0  0
 32  4  1  0  0  0  0
 33 30  1  0  0  0  0
 33  1  1  0  0  0  0
 34 13  1  0  0  0  0
 35 21  1  0  0  0  0
 37 40  1  0  0  0  0
 38 25  1  0  0  0  0
 39 42  1  0  0  0  0
 39 47  1  0  0  0  0
 40 20  1  0  0  0  0
 41 17  1  0  0  0  0
 42 43  1  0  0  0  0
 44 42  2  0  0  0  0
 45 46  1  0  0  0  0
 48 47  1  0  0  0  0
 49 50  1  0  0  0  0
 50 52  1  0  0  0  0
 52 53  1  0  0  0  0
 52 51  1  0  0  0  0
 53 54  1  0  0  0  0
 54 55  1  0  0  0  0
M  END
>  <MODEL>
5

>  <REMARK>
 VINA RESULT:      13.0      2.658      4.140
  Name = 
  8 active torsions:
  status: ('A' for Active; 'I' for Inactive)
    1  A    between atoms: C_1  and  C_53
    2  A    between atoms: C_6  and  C_53
    3  A    between atoms: C_12  and  C_38
    4  A    between atoms: C_13  and  C_33
    5  A    between atoms: C_13  and  C_48
    6  A    between atoms: C_18  and  N_39
    7  A    between atoms: C_32  and  N_39
    8  A    between atoms: C_32  and  C_48
                            x       y       z     vdW  Elec       q    Type
                         _______ _______ _______ _____ _____    ______ ____

>  <TORSDO>
F 8

$$$$
=
 OpenBabel10272401213D

 55 60  0  0  1  0  0  0  0  0999 V2000
  187.1910  174.9100  136.7650 C   0  0  0  0  0  2  0  0  0  0  0  0
  182.8680  176.5220  140.2080 C   0  0  0  0  0  2  0  0  0  0  0  0
  180.3680  173.5550  139.5960 O   0  0  0  0  0  0  0  0  0  0  0  0
  185.2800  177.9260  140.0370 C   0  0  0  0  0  2  0  0  0  0  0  0
  183.9510  179.8560  139.1900 C   0  0  0  0  0  2  0  0  0  0  0  0
  180.7360  174.3710  136.8090 C   0  0  0  0  0  2  0  0  0  0  0  0
  184.0560  180.0940  143.7060 C   0  0  0  0  0  2  0  0  0  0  0  0
  185.3630  177.9750  144.1970 C   0  0  2  0  0  3  0  0  0  0  0  0
  186.5820  178.3760  143.6050 O   0  0  0  0  0  0  0  0  0  0  0  0
  180.3960  175.2030  135.5740 C   0  0  0  0  0  2  0  0  0  0  0  0
  182.9490  173.8140  135.8310 C   0  0  2  0  0  3  0  0  0  0  0  0
  182.6430  174.6440  134.5900 C   0  0  0  0  0  2  0  0  0  0  0  0
  184.1890  173.8050  138.5640 C   0  0  0  0  0  2  0  0  0  0  0  0
  185.2930  180.1010  141.2990 C   0  0  1  0  0  3  0  0  0  0  0  0
  184.0200  180.5150  140.5640 C   0  0  0  0  0  2  0  0  0  0  0  0
  181.1340  174.6660  134.3480 C   0  0  0  0  0  2  0  0  0  0  0  0
  187.8930  178.1120  136.3180 C   0  0  0  0  0  2  0  0  0  0  0  0
  185.3970  181.0170  142.8780 S   0  0  0  0  0  0  0  0  0  0  0  0
  182.2430  174.4140  137.0560 C   0  0  2  0  0  3  0  0  0  0  0  0
  185.5230  177.6270  135.9420 C   0  0  0  0  0  0  0  0  0  0  0  0
  186.4280  173.9320  137.5270 N   0  0  2  0  0  0  0  0  0  0  0  0
  184.6010  179.1670  144.7880 C   0  0  1  0  0  3  0  0  0  0  0  0
  184.6150  177.1750  135.1940 O   0  0  0  0  0  0  0  0  0  0  0  0
  184.8160  172.1350  135.9310 C   0  0  2  0  0  3  0  0  0  0  0  0
  186.8070  172.6200  136.9740 C   0  0  0  0  0  2  0  0  0  0  0  0
  182.8160  177.9110  139.9930 O   0  0  0  0  0  0  0  0  0  0  0  0
  184.4590  173.6260  136.0140 C   0  0  2  0  0  3  0  0  0  0  0  0
  181.5740  175.8800  139.7660 C   0  0  0  0  0  2  0  0  0  0  0  0
  181.7750  174.0910  139.8190 S   0  0  2  0  0  0  0  0  0  0  0  0
  188.6520  176.9060  136.8660 C   0  0  0  0  0  2  0  0  0  0  0  0
  185.3810  178.5590  141.4330 C   0  0  2  0  0  3  0  0  0  0  0  0
  183.9820  178.3310  139.3010 C   0  0  2  0  0  0  0  0  0  0  0  0
  187.7610  175.9780  137.6790 C   0  0  0  0  0  2  0  0  0  0  0  0
  182.6810  173.6450  138.3100 C   0  0  2  0  0  3  0  0  0  0  0  0
  185.0000  174.2350  137.3260 C   0  0  1  0  0  3  0  0  0  0  0  0
  185.3860  179.8810  145.6980 O   0  0  0  0  0  1  0  0  0  0  0  0
  183.9890  177.7680  137.8740 C   0  0  0  0  0  2  0  0  0  0  0  0
  185.7160  171.7240  136.9460 O   0  0  0  0  0  0  0  0  0  0  0  0
  186.6290  178.0270  142.2250 C   0  0  1  0  0  0  0  0  0  0  0  0
  185.2360  178.0290  137.2460 O   0  0  0  0  0  0  0  0  0  0  0  0
  186.8290  177.7120  135.4630 O   0  0  0  0  0  0  0  0  0  0  0  0
  187.8760  178.6590  141.6470 C   0  0  0  0  0  0  0  0  0  0  0  0
  188.1750  178.5200  140.2970 O   0  0  0  0  0  0  0  0  0  0  0  0
  188.6770  179.2910  142.3890 O   0  0  0  0  0  1  0  0  0  0  0  0
  186.7670  177.1790  146.1550 C   0  0  0  0  0  1  0  0  0  0  0  0
  185.5900  176.8780  145.2400 C   0  0  0  0  0  2  0  0  0  0  0  0
  186.8250  176.4950  142.0790 C   0  0  0  0  0  2  0  0  0  0  0  0
  188.1920  175.9810  142.5140 C   0  0  0  0  0  1  0  0  0  0  0  0
  185.3140  171.7670  134.5390 C   0  0  0  0  0  2  0  0  0  0  0  0
  186.1450  170.4980  134.6010 C   0  0  0  0  0  2  0  0  0  0  0  0
  188.3580  170.2460  135.6740 C   0  0  0  0  0  1  0  0  0  0  0  0
  187.6220  170.8290  134.4850 C   0  0  2  0  0  3  0  0  0  0  0  0
  187.8070  172.2720  134.4650 N   0  0  0  0  0  2  0  0  0  0  0  0
  189.0180  172.5530  135.2150 C   0  0  0  0  0  2  0  0  0  0  0  0
  189.9760  173.3420  134.3490 C   0  0  0  0  0  1  0  0  0  0  0  0
  1 33  1  0  0  0  0
  3 29  2  0  0  0  0
  4 31  1  0  0  0  0
  5 32  1  0  0  0  0
  5 15  1  0  0  0  0
  7 22  1  0  0  0  0
  8 22  1  0  0  0  0
  8 46  1  1  0  0  0
  9  8  1  0  0  0  0
 10  6  1  0  0  0  0
 11 12  1  6  0  0  0
 11 27  1  0  0  0  0
 11 19  1  0  0  0  0
 14 15  1  1  0  0  0
 14 31  1  0  0  0  0
 14 18  1  0  0  0  0
 16 12  1  0  0  0  0
 16 10  1  0  0  0  0
 17 30  1  0  0  0  0
 18  7  1  0  0  0  0
 19  6  1  6  0  0  0
 19 34  1  0  0  0  0
 20 40  1  0  0  0  0
 21  1  1  6  0  0  0
 22 36  1  1  0  0  0
 23 20  2  0  0  0  0
 24 49  1  6  0  0  0
 24 27  1  0  0  0  0
 24 38  1  0  0  0  0
 25 21  1  0  0  0  0
 26  2  1  0  0  0  0
 27 35  1  0  0  0  0
 28 29  1  0  0  0  0
 28  2  1  0  0  0  0
 30 33  1  0  0  0  0
 31 39  1  0  0  0  0
 32 26  1  0  0  0  0
 32  4  1  0  0  0  0
 34 13  1  0  0  0  0
 34 29  1  0  0  0  0
 35 21  1  0  0  0  0
 35 13  1  0  0  0  0
 37 32  1  0  0  0  0
 38 25  1  0  0  0  0
 39  9  1  0  0  0  0
 40 37  1  0  0  0  0
 41 20  1  0  0  0  0
 41 17  1  0  0  0  0
 42 39  1  0  0  0  0
 42 44  1  0  0  0  0
 43 42  2  0  0  0  0
 46 45  1  0  0  0  0
 47 39  1  0  0  0  0
 47 48  1  0  0  0  0
 49 50  1  0  0  0  0
 52 50  1  0  0  0  0
 52 51  1  0  0  0  0
 53 52  1  0  0  0  0
 53 54  1  0  0  0  0
 55 54  1  0  0  0  0
M  END
>  <MODEL>
6

>  <REMARK>
 VINA RESULT:      13.1      3.713      7.111
  Name = 
  8 active torsions:
  status: ('A' for Active; 'I' for Inactive)
    1  A    between atoms: C_1  and  C_53
    2  A    between atoms: C_6  and  C_53
    3  A    between atoms: C_12  and  C_38
    4  A    between atoms: C_13  and  C_33
    5  A    between atoms: C_13  and  C_48
    6  A    between atoms: C_18  and  N_39
    7  A    between atoms: C_32  and  N_39
    8  A    between atoms: C_32  and  C_48
                            x       y       z     vdW  Elec       q    Type
                         _______ _______ _______ _____ _____    ______ ____

>  <TORSDO>
F 8

$$$$
=
 OpenBabel10272401213D

 55 60  0  0  1  0  0  0  0  0999 V2000
  188.7030  177.4910  140.2000 C   0  0  0  0  0  2  0  0  0  0  0  0
  187.2860  174.3580  135.5830 C   0  0  0  0  0  2  0  0  0  0  0  0
  190.5840  172.2720  135.1380 O   0  0  0  0  0  0  0  0  0  0  0  0
  185.5040  176.1110  136.8380 C   0  0  0  0  0  2  0  0  0  0  0  0
  185.4530  177.3880  134.7000 C   0  0  0  0  0  2  0  0  0  0  0  0
  191.7750  174.9460  135.0970 C   0  0  0  0  0  2  0  0  0  0  0  0
  182.2660  174.1830  134.5000 C   0  0  0  0  0  2  0  0  0  0  0  0
  182.6790  173.0560  136.7350 C   0  0  2  0  0  3  0  0  0  0  0  0
  182.3030  174.1440  137.5560 O   0  0  0  0  0  0  0  0  0  0  0  0
  192.2300  176.2270  134.4000 C   0  0  0  0  0  2  0  0  0  0  0  0
  191.8150  176.1170  137.2860 C   0  0  2  0  0  3  0  0  0  0  0  0
  192.2600  177.4120  136.6190 C   0  0  0  0  0  2  0  0  0  0  0  0
  189.4750  174.4920  138.2330 C   0  0  0  0  0  2  0  0  0  0  0  0
  183.3280  176.4100  135.6140 C   0  0  1  0  0  3  0  0  0  0  0  0
  184.1070  176.7600  134.3480 C   0  0  0  0  0  2  0  0  0  0  0  0
  193.0550  177.0900  135.3540 C   0  0  0  0  0  2  0  0  0  0  0  0
  186.7360  179.8890  139.0510 C   0  0  0  0  0  2  0  0  0  0  0  0
  181.6740  175.7870  135.1450 S   0  0  0  0  0  0  0  0  0  0  0  0
  190.9380  175.3020  136.3250 C   0  0  2  0  0  3  0  0  0  0  0  0
  188.2990  179.0840  137.3470 C   0  0  0  0  0  0  0  0  0  0  0  0
  189.1260  176.1040  140.0710 N   0  0  2  0  0  0  0  0  0  0  0  0
  181.8840  173.0330  135.4250 C   0  0  1  0  0  3  0  0  0  0  0  0
  189.4620  179.0760  136.8620 O   0  0  0  0  0  0  0  0  0  0  0  0
  191.9770  175.7230  139.7630 C   0  0  2  0  0  3  0  0  0  0  0  0
  190.1340  175.9000  141.1250 C   0  0  0  0  0  2  0  0  0  0  0  0
  186.5990  175.2930  134.7880 O   0  0  0  0  0  0  0  0  0  0  0  0
  191.1610  176.3880  138.6450 C   0  0  2  0  0  3  0  0  0  0  0  0
  188.5290  173.8810  134.8690 C   0  0  0  0  0  2  0  0  0  0  0  0
  189.5040  172.8910  136.0140 S   0  0  2  0  0  0  0  0  0  0  0  0
  186.7860  179.0520  140.3260 C   0  0  0  0  0  2  0  0  0  0  0  0
  184.1460  175.4620  136.5280 C   0  0  2  0  0  3  0  0  0  0  0  0
  186.3010  176.4480  135.5570 C   0  0  2  0  0  0  0  0  0  0  0  0
  187.1970  177.6110  140.0610 C   0  0  0  0  0  2  0  0  0  0  0  0
  190.3890  174.0750  137.0680 C   0  0  2  0  0  3  0  0  0  0  0  0
  189.6860  175.9390  138.7190 C   0  0  1  0  0  3  0  0  0  0  0  0
  180.5050  173.0280  135.6590 O   0  0  0  0  0  1  0  0  0  0  0  0
  187.5900  177.1960  135.9200 C   0  0  0  0  0  2  0  0  0  0  0  0
  191.1700  175.0380  140.7050 O   0  0  0  0  0  0  0  0  0  0  0  0
  183.4120  174.9930  137.8340 C   0  0  1  0  0  0  0  0  0  0  0  0
  187.3110  178.2400  136.8420 O   0  0  0  0  0  0  0  0  0  0  0  0
  188.0040  179.9370  138.4090 O   0  0  0  0  0  0  0  0  0  0  0  0
  182.8720  176.2110  138.5510 C   0  0  0  0  0  0  0  0  0  0  0  0
  183.7370  177.1950  139.0150 O   0  0  0  0  0  1  0  0  0  0  0  0
  181.6350  176.3320  138.7670 O   0  0  0  0  0  0  0  0  0  0  0  0
  183.5030  170.6660  136.9460 C   0  0  0  0  0  1  0  0  0  0  0  0
  182.5630  171.7300  137.4890 C   0  0  0  0  0  2  0  0  0  0  0  0
  184.3640  174.2960  138.8420 C   0  0  0  0  0  2  0  0  0  0  0  0
  185.4020  173.3780  138.2100 C   0  0  0  0  0  1  0  0  0  0  0  0
  192.9130  176.7240  140.4290 C   0  0  0  0  0  2  0  0  0  0  0  0
  194.1880  176.8670  139.6170 C   0  0  0  0  0  2  0  0  0  0  0  0
  195.9710  175.2770  140.2540 C   0  0  0  0  0  1  0  0  0  0  0  0
  194.7870  175.5010  139.3340 C   0  0  2  0  0  3  0  0  0  0  0  0
  195.2330  175.4320  137.9520 N   0  0  0  0  0  2  0  0  0  0  0  0
  195.4430  174.0290  137.6440 C   0  0  0  0  0  2  0  0  0  0  0  0
  194.1050  173.3330  137.5210 C   0  0  0  0  0  1  0  0  0  0  0  0
  3 29  2  0  0  0  0
  5 32  1  0  0  0  0
  7 18  1  0  0  0  0
  7 22  1  0  0  0  0
  8 46  1  1  0  0  0
  8  9  1  0  0  0  0
  9 39  1  0  0  0  0
 10  6  1  0  0  0  0
 10 16  1  0  0  0  0
 11 12  1  6  0  0  0
 11 27  1  0  0  0  0
 13 35  1  0  0  0  0
 14 15  1  6  0  0  0
 14 31  1  0  0  0  0
 15  5  1  0  0  0  0
 16 12  1  0  0  0  0
 17 30  1  0  0  0  0
 18 14  1  0  0  0  0
 19  6  1  6  0  0  0
 19 34  1  0  0  0  0
 19 11  1  0  0  0  0
 20 41  1  0  0  0  0
 21  1  1  6  0  0  0
 21 25  1  0  0  0  0
 22 36  1  1  0  0  0
 22  8  1  0  0  0  0
 23 20  2  0  0  0  0
 24 49  1  1  0  0  0
 24 38  1  0  0  0  0
 26 32  1  0  0  0  0
 26  2  1  0  0  0  0
 27 35  1  0  0  0  0
 27 24  1  0  0  0  0
 28  2  1  0  0  0  0
 28 29  1  0  0  0  0
 29 34  1  0  0  0  0
 31  4  1  0  0  0  0
 31 39  1  0  0  0  0
 32 37  1  0  0  0  0
 32  4  1  0  0  0  0
 33  1  1  0  0  0  0
 33 30  1  0  0  0  0
 34 13  1  0  0  0  0
 35 21  1  0  0  0  0
 37 40  1  0  0  0  0
 38 25  1  0  0  0  0
 39 42  1  0  0  0  0
 39 47  1  0  0  0  0
 40 20  1  0  0  0  0
 41 17  1  0  0  0  0
 42 44  2  0  0  0  0
 42 43  1  0  0  0  0
 45 46  1  0  0  0  0
 48 47  1  0  0  0  0
 50 49  1  0  0  0  0
 52 50  1  0  0  0  0
 52 51  1  0  0  0  0
 53 52  1  0  0  0  0
 54 53  1  0  0  0  0
 55 54  1  0  0  0  0
M  END
>  <MODEL>
7

>  <REMARK>
 VINA RESULT:      13.3      2.051      2.867
  Name = 
  8 active torsions:
  status: ('A' for Active; 'I' for Inactive)
    1  A    between atoms: C_1  and  C_53
    2  A    between atoms: C_6  and  C_53
    3  A    between atoms: C_12  and  C_38
    4  A    between atoms: C_13  and  C_33
    5  A    between atoms: C_13  and  C_48
    6  A    between atoms: C_18  and  N_39
    7  A    between atoms: C_32  and  N_39
    8  A    between atoms: C_32  and  C_48
                            x       y       z     vdW  Elec       q    Type
                         _______ _______ _______ _____ _____    ______ ____

>  <TORSDO>
F 8

$$$$
