=
 OpenBabel10272415333D

 34 40  0  0  1  0  0  0  0  0999 V2000
  186.3420  178.0040  137.4680 C   0  0  1  0  0  3  0  0  0  0  0  0
  187.5420  177.7830  139.8050 C   0  0  1  0  0  3  0  0  0  0  0  0
  185.3020  174.4950  135.1230 C   0  0  2  0  0  3  0  0  0  0  0  0
  185.1810  178.5880  139.6860 C   0  0  0  0  0  0  0  0  0  0  0  0
  185.7820  174.3370  137.6490 C   0  0  0  0  0  2  0  0  0  0  0  0
  188.8330  175.2160  134.9890 N   0  0  0  0  0  0  0  0  0  0  0  0
  184.8150  176.5000  136.6520 C   0  0  1  0  0  0  0  0  0  0  0  0
  186.0870  177.0800  136.4300 O   0  0  0  0  0  0  0  0  0  0  0  0
  184.3460  176.9060  138.0510 C   0  0  2  0  0  3  0  0  0  0  0  0
  188.5040  173.8290  135.0700 C   0  0  0  0  0  0  0  0  0  0  0  0
  182.2310  178.0930  139.0110 C   0  0  0  0  0  2  0  0  0  0  0  0
  188.7300  176.6380  135.4350 C   0  0  2  0  0  3  0  0  0  0  0  0
  189.1200  173.0040  134.3460 O   0  0  0  0  0  0  0  0  0  0  0  0
  186.0980  173.1930  135.1440 C   0  0  0  0  0  2  0  0  0  0  0  0
  182.8130  176.9050  138.2440 C   0  0  0  0  0  2  0  0  0  0  0  0
  183.8650  177.0490  135.5810 C   0  0  0  0  0  1  0  0  0  0  0  0
  184.0040  179.1790  140.3950 C   0  0  0  0  0  2  0  0  0  0  0  0
  185.0470  178.2110  138.2410 C   0  0  2  0  0  3  0  0  0  0  0  0
  189.6220  176.3480  134.4250 C   0  0  0  0  0  2  0  0  0  0  0  0
  182.8250  178.2160  140.4070 C   0  0  0  0  0  2  0  0  0  0  0  0
  188.9890  178.7700  140.2680 S   0  0  0  0  0  0  0  0  0  0  0  0
  189.9110  178.0400  138.8910 C   0  0  2  0  0  3  0  0  0  0  0  0
  187.2390  174.2210  137.2070 C   0  0  0  0  0  2  0  0  0  0  0  0
  188.9440  177.8630  137.7060 C   0  0  2  0  0  0  0  0  0  0  0  0
  187.3930  173.3470  135.9510 C   0  0  2  0  0  3  0  0  0  0  0  0
  189.4720  176.7720  136.7540 C   0  0  0  0  0  2  0  0  0  0  0  0
  184.9050  174.9610  136.5420 C   0  0  1  0  0  3  0  0  0  0  0  0
  184.1570  174.3190  134.3460 O   0  0  0  0  0  1  0  0  0  0  0  0
  186.3040  178.4000  140.3740 C   0  0  0  0  0  3  0  0  0  0  0  0
  188.9160  179.2030  136.9720 C   0  0  0  0  0  1  0  0  0  0  0  0
  187.5540  177.5000  138.2930 C   0  0  2  0  0  3  0  0  0  0  0  0
  190.6050  176.7880  139.3590 C   0  0  0  0  0  0  0  0  0  0  0  0
  190.1640  176.1320  140.3410 O   0  0  0  0  0  1  0  0  0  0  0  0
  191.7560  176.3620  138.7090 O   0  0  0  0  0  0  0  0  0  0  0  0
  1  8  1  6  0  0  0
  1 18  1  0  0  0  0
  1 31  1  0  0  0  0
  2 21  1  0  0  0  0
  2 29  1  6  0  0  0
  3 28  1  6  0  0  0
  3 14  1  0  0  0  0
  3 27  1  0  0  0  0
  4 29  2  0  0  0  0
  4 17  1  0  0  0  0
  6 10  1  0  0  0  0
  6 12  1  0  0  0  0
  7 16  1  6  0  0  0
  7  9  1  0  0  0  0
  8  7  1  0  0  0  0
  9 18  1  0  0  0  0
  9 15  1  6  0  0  0
 10 25  1  0  0  0  0
 11 20  1  0  0  0  0
 12 19  1  6  0  0  0
 12 26  1  0  0  0  0
 13 10  2  0  0  0  0
 15 11  1  0  0  0  0
 17 20  1  0  0  0  0
 18  4  1  1  0  0  0
 19  6  1  0  0  0  0
 22 32  1  1  0  0  0
 22 21  1  0  0  0  0
 23  5  1  0  0  0  0
 24 30  1  6  0  0  0
 24 31  1  0  0  0  0
 24 22  1  0  0  0  0
 25 14  1  6  0  0  0
 25 23  1  0  0  0  0
 26 24  1  0  0  0  0
 27  7  1  0  0  0  0
 27  5  1  1  0  0  0
 31  2  1  0  0  0  0
 32 33  1  0  0  0  0
 34 32  2  0  0  0  0
M  END
>  <MODEL>
1

>  <REMARK>
 VINA RESULT:      -5.9      0.000      0.000
  Name = 
  1 active torsions:
  status: ('A' for Active; 'I' for Inactive)
    1  A    between atoms: C_3  and  C_25
                            x       y       z     vdW  Elec       q    Type
                         _______ _______ _______ _____ _____    ______ ____

>  <TORSDO>
F 1

$$$$
=
 OpenBabel10272415333D

 34 40  0  0  1  0  0  0  0  0999 V2000
  183.2570  174.8760  135.9060 C   0  0  1  0  0  3  0  0  0  0  0  0
  182.8460  176.0770  138.2170 C   0  0  1  0  0  3  0  0  0  0  0  0
  186.6950  172.2890  135.2840 C   0  0  2  0  0  3  0  0  0  0  0  0
  181.3130  174.2530  137.4690 C   0  0  0  0  0  0  0  0  0  0  0  0
  185.8590  172.8790  137.6490 C   0  0  0  0  0  2  0  0  0  0  0  0
  187.6030  175.7790  135.2610 N   0  0  0  0  0  0  0  0  0  0  0  0
  184.2090  172.8010  135.6780 C   0  0  1  0  0  0  0  0  0  0  0  0
  184.3620  174.1750  135.3730 O   0  0  0  0  0  0  0  0  0  0  0  0
  183.0600  172.6640  136.6790 C   0  0  2  0  0  3  0  0  0  0  0  0
  188.5340  174.9190  135.9170 C   0  0  0  0  0  0  0  0  0  0  0  0
  180.8290  171.3130  136.7440 C   0  0  0  0  0  2  0  0  0  0  0  0
  186.2290  176.3080  135.0040 C   0  0  2  0  0  3  0  0  0  0  0  0
  189.7680  175.0780  135.7200 O   0  0  0  0  0  0  0  0  0  0  0  0
  188.0380  172.4810  135.9820 C   0  0  0  0  0  2  0  0  0  0  0  0
  182.3560  171.2880  136.6690 C   0  0  0  0  0  2  0  0  0  0  0  0
  183.8810  172.0720  134.3710 C   0  0  0  0  0  1  0  0  0  0  0  0
  180.0470  173.4880  137.6910 C   0  0  0  0  0  2  0  0  0  0  0  0
  182.2190  173.8510  136.3440 C   0  0  2  0  0  3  0  0  0  0  0  0
  187.2800  176.9110  134.3460 C   0  0  0  0  0  2  0  0  0  0  0  0
  180.3320  172.0230  137.9960 C   0  0  0  0  0  2  0  0  0  0  0  0
  182.4340  177.8350  138.3550 S   0  0  0  0  0  0  0  0  0  0  0  0
  184.0120  178.2540  137.5740 C   0  0  2  0  0  3  0  0  0  0  0  0
  186.7390  174.1160  137.4820 C   0  0  0  0  0  2  0  0  0  0  0  0
  184.3060  177.2000  136.4890 C   0  0  2  0  0  0  0  0  0  0  0  0
  188.0680  173.7890  136.7820 C   0  0  2  0  0  3  0  0  0  0  0  0
  185.8190  177.1510  136.2000 C   0  0  0  0  0  2  0  0  0  0  0  0
  185.5170  172.2430  136.2840 C   0  0  1  0  0  3  0  0  0  0  0  0
  186.7290  171.1100  134.5390 O   0  0  0  0  0  1  0  0  0  0  0  0
  181.6000  175.2550  138.2970 C   0  0  0  0  0  3  0  0  0  0  0  0
  183.5660  177.6610  135.2340 C   0  0  0  0  0  1  0  0  0  0  0  0
  183.7670  175.8410  137.0080 C   0  0  2  0  0  3  0  0  0  0  0  0
  185.0720  178.4110  138.6330 C   0  0  0  0  0  0  0  0  0  0  0  0
  184.8040  178.2170  139.8500 O   0  0  0  0  0  1  0  0  0  0  0  0
  186.3550  178.7930  138.2650 O   0  0  0  0  0  0  0  0  0  0  0  0
  1  8  1  1  0  0  0
  1 18  1  0  0  0  0
  1 31  1  0  0  0  0
  2 29  1  6  0  0  0
  2 21  1  0  0  0  0
  3 28  1  1  0  0  0
  3 14  1  0  0  0  0
  3 27  1  0  0  0  0
  4 17  1  0  0  0  0
  4 29  2  0  0  0  0
  6 10  1  0  0  0  0
  7 16  1  6  0  0  0
  7 27  1  0  0  0  0
  7  9  1  0  0  0  0
  8  7  1  0  0  0  0
  9 15  1  6  0  0  0
 10 25  1  0  0  0  0
 11 20  1  0  0  0  0
 12 19  1  6  0  0  0
 12  6  1  0  0  0  0
 12 26  1  0  0  0  0
 13 10  2  0  0  0  0
 15 11  1  0  0  0  0
 17 20  1  0  0  0  0
 18  9  1  0  0  0  0
 18  4  1  1  0  0  0
 19  6  1  0  0  0  0
 22 21  1  0  0  0  0
 22 32  1  1  0  0  0
 23  5  1  0  0  0  0
 24 30  1  6  0  0  0
 24 31  1  0  0  0  0
 24 22  1  0  0  0  0
 25 14  1  6  0  0  0
 25 23  1  0  0  0  0
 26 24  1  0  0  0  0
 27  5  1  1  0  0  0
 31  2  1  0  0  0  0
 32 33  1  0  0  0  0
 34 32  2  0  0  0  0
M  END
>  <MODEL>
2

>  <REMARK>
 VINA RESULT:      -5.1      2.750      4.737
  Name = 
  1 active torsions:
  status: ('A' for Active; 'I' for Inactive)
    1  A    between atoms: C_3  and  C_25
                            x       y       z     vdW  Elec       q    Type
                         _______ _______ _______ _____ _____    ______ ____

>  <TORSDO>
F 1

$$$$
=
 OpenBabel10272415333D

 34 40  0  0  1  0  0  0  0  0999 V2000
  188.9000  178.5900  140.6850 C   0  0  1  0  0  3  0  0  0  0  0  0
  188.3050  176.8830  142.6040 C   0  0  1  0  0  3  0  0  0  0  0  0
  190.0610  177.2210  136.7260 C   0  0  2  0  0  3  0  0  0  0  0  0
  186.5170  178.3130  141.6080 C   0  0  0  0  0  0  0  0  0  0  0  0
  188.7960  175.6900  138.3660 C   0  0  0  0  0  2  0  0  0  0  0  0
  192.7110  176.8020  139.1350 N   0  0  0  0  0  0  0  0  0  0  0  0
  188.4630  178.2370  138.4600 C   0  0  1  0  0  0  0  0  0  0  0  0
  189.4930  178.4320  139.4120 O   0  0  0  0  0  0  0  0  0  0  0  0
  187.1530  178.0130  139.2190 C   0  0  2  0  0  3  0  0  0  0  0  0
  192.5760  175.7350  138.1970 C   0  0  0  0  0  0  0  0  0  0  0  0
  184.8020  179.1410  139.2040 C   0  0  0  0  0  2  0  0  0  0  0  0
  192.1750  177.7670  140.1420 C   0  0  2  0  0  3  0  0  0  0  0  0
  193.6070  175.2370  137.6730 O   0  0  0  0  0  0  0  0  0  0  0  0
  190.7990  175.9110  136.4630 C   0  0  0  0  0  2  0  0  0  0  0  0
  185.8770  178.3810  138.4280 C   0  0  0  0  0  2  0  0  0  0  0  0
  188.3830  179.5050  137.6010 C   0  0  0  0  0  1  0  0  0  0  0  0
  185.1020  178.7970  141.6590 C   0  0  0  0  0  2  0  0  0  0  0  0
  187.4010  178.7660  140.4840 C   0  0  2  0  0  3  0  0  0  0  0  0
  193.5360  177.7630  139.9210 C   0  0  0  0  0  2  0  0  0  0  0  0
  184.3240  178.3660  140.4240 C   0  0  0  0  0  2  0  0  0  0  0  0
  188.9730  177.0150  144.2830 S   0  0  0  0  0  0  0  0  0  0  0  0
  190.6460  176.8280  143.6190 C   0  0  2  0  0  3  0  0  0  0  0  0
  190.1900  175.3730  138.9020 C   0  0  0  0  0  2  0  0  0  0  0  0
  190.7130  177.5670  142.2690 C   0  0  2  0  0  0  0  0  0  0  0  0
  191.2260  175.2410  137.7740 C   0  0  2  0  0  3  0  0  0  0  0  0
  191.8570  176.9940  141.4110 C   0  0  0  0  0  2  0  0  0  0  0  0
  188.7850  177.0140  137.5720 C   0  0  1  0  0  3  0  0  0  0  0  0
  189.7280  177.8120  135.5070 O   0  0  0  0  0  1  0  0  0  0  0  0
  186.9330  177.4770  142.5550 C   0  0  0  0  0  3  0  0  0  0  0  0
  191.0110  179.0300  142.5970 C   0  0  0  0  0  1  0  0  0  0  0  0
  189.3310  177.4010  141.5830 C   0  0  2  0  0  3  0  0  0  0  0  0
  191.0110  175.3660  143.5800 C   0  0  0  0  0  0  0  0  0  0  0  0
  190.2590  174.5270  143.0140 O   0  0  0  0  0  0  0  0  0  0  0  0
  192.1810  174.9390  144.1920 O   0  0  0  0  0  1  0  0  0  0  0  0
  1  8  1  6  0  0  0
  1 31  1  0  0  0  0
  2 29  1  1  0  0  0
  2 21  1  0  0  0  0
  3 28  1  6  0  0  0
  3 27  1  0  0  0  0
  4 17  1  0  0  0  0
  4 29  2  0  0  0  0
  5 23  1  0  0  0  0
  6 19  1  0  0  0  0
  6 12  1  0  0  0  0
  7 16  1  6  0  0  0
  7  9  1  0  0  0  0
  7  8  1  0  0  0  0
  9 15  1  6  0  0  0
  9 18  1  0  0  0  0
 10  6  1  0  0  0  0
 11 20  1  0  0  0  0
 12 19  1  1  0  0  0
 12 26  1  0  0  0  0
 13 10  2  0  0  0  0
 14  3  1  0  0  0  0
 15 11  1  0  0  0  0
 18  1  1  0  0  0  0
 18  4  1  1  0  0  0
 20 17  1  0  0  0  0
 22 32  1  6  0  0  0
 22 21  1  0  0  0  0
 24 30  1  1  0  0  0
 24 22  1  0  0  0  0
 25 14  1  6  0  0  0
 25 10  1  0  0  0  0
 25 23  1  0  0  0  0
 26 24  1  0  0  0  0
 27  5  1  1  0  0  0
 27  7  1  0  0  0  0
 31 24  1  0  0  0  0
 31  2  1  0  0  0  0
 32 34  1  0  0  0  0
 33 32  2  0  0  0  0
M  END
>  <MODEL>
3

>  <REMARK>
 VINA RESULT:      -4.9      3.087      4.608
  Name = 
  1 active torsions:
  status: ('A' for Active; 'I' for Inactive)
    1  A    between atoms: C_3  and  C_25
                            x       y       z     vdW  Elec       q    Type
                         _______ _______ _______ _____ _____    ______ ____

>  <TORSDO>
F 1

$$$$
=
 OpenBabel10272415333D

 34 40  0  0  1  0  0  0  0  0999 V2000
  184.6500  175.7070  135.8220 C   0  0  1  0  0  3  0  0  0  0  0  0
  184.8270  177.0640  138.0750 C   0  0  1  0  0  3  0  0  0  0  0  0
  186.4360  171.7640  135.4140 C   0  0  2  0  0  3  0  0  0  0  0  0
  182.6200  176.1640  137.3320 C   0  0  0  0  0  0  0  0  0  0  0  0
  185.9460  172.7920  137.7250 C   0  0  0  0  0  2  0  0  0  0  0  0
  188.9070  174.3880  135.3090 N   0  0  0  0  0  0  0  0  0  0  0  0
  184.4940  173.4210  135.6980 C   0  0  1  0  0  0  0  0  0  0  0  0
  185.2920  174.5380  135.3540 O   0  0  0  0  0  0  0  0  0  0  0  0
  183.4030  173.8970  136.6590 C   0  0  2  0  0  3  0  0  0  0  0  0
  189.3000  173.2190  136.0270 C   0  0  0  0  0  0  0  0  0  0  0  0
  180.7970  173.7840  136.6870 C   0  0  0  0  0  2  0  0  0  0  0  0
  187.9590  175.4970  134.9840 C   0  0  2  0  0  3  0  0  0  0  0  0
  190.4620  172.7590  135.8710 O   0  0  0  0  0  0  0  0  0  0  0  0
  187.6940  171.3220  136.1550 C   0  0  0  0  0  2  0  0  0  0  0  0
  182.1250  173.0270  136.6690 C   0  0  0  0  0  2  0  0  0  0  0  0
  183.8780  172.8770  134.4040 C   0  0  0  0  0  1  0  0  0  0  0  0
  181.1390  176.1090  137.5320 C   0  0  0  0  0  2  0  0  0  0  0  0
  183.2410  175.3250  136.2540 C   0  0  2  0  0  3  0  0  0  0  0  0
  189.1820  175.4930  134.3460 C   0  0  0  0  0  2  0  0  0  0  0  0
  180.6810  174.7030  137.8950 C   0  0  0  0  0  2  0  0  0  0  0  0
  185.3070  178.8100  138.1400 S   0  0  0  0  0  0  0  0  0  0  0  0
  186.9050  178.3850  137.4040 C   0  0  2  0  0  3  0  0  0  0  0  0
  187.3140  173.4480  137.5510 C   0  0  0  0  0  2  0  0  0  0  0  0
  186.6760  177.2700  136.3660 C   0  0  2  0  0  0  0  0  0  0  0  0
  188.3340  172.4920  136.9110 C   0  0  2  0  0  3  0  0  0  0  0  0
  187.9840  176.4890  136.1350 C   0  0  0  0  0  2  0  0  0  0  0  0
  185.3630  172.3340  136.3700 C   0  0  1  0  0  3  0  0  0  0  0  0
  185.9120  170.6790  134.7110 O   0  0  0  0  0  1  0  0  0  0  0  0
  183.3380  176.9440  138.1350 C   0  0  0  0  0  3  0  0  0  0  0  0
  186.2690  177.9690  135.0690 C   0  0  0  0  0  1  0  0  0  0  0  0
  185.5420  176.3610  136.9090 C   0  0  2  0  0  3  0  0  0  0  0  0
  187.8920  178.0650  138.4960 C   0  0  0  0  0  0  0  0  0  0  0  0
  187.8460  176.9640  139.1080 O   0  0  0  0  0  1  0  0  0  0  0  0
  188.8530  179.0060  138.8450 O   0  0  0  0  0  0  0  0  0  0  0  0
  1  8  1  1  0  0  0
  1 18  1  0  0  0  0
  1 31  1  0  0  0  0
  2 29  1  6  0  0  0
  2 21  1  0  0  0  0
  3 28  1  1  0  0  0
  3 14  1  0  0  0  0
  3 27  1  0  0  0  0
  4 17  1  0  0  0  0
  4 29  2  0  0  0  0
  6 10  1  0  0  0  0
  7 16  1  6  0  0  0
  7 27  1  0  0  0  0
  7  9  1  0  0  0  0
  8  7  1  0  0  0  0
  9 15  1  6  0  0  0
 10 25  1  0  0  0  0
 11 20  1  0  0  0  0
 12 19  1  6  0  0  0
 12  6  1  0  0  0  0
 12 26  1  0  0  0  0
 13 10  2  0  0  0  0
 15 11  1  0  0  0  0
 17 20  1  0  0  0  0
 18  9  1  0  0  0  0
 18  4  1  1  0  0  0
 19  6  1  0  0  0  0
 22 21  1  0  0  0  0
 22 32  1  1  0  0  0
 23  5  1  0  0  0  0
 24 30  1  6  0  0  0
 24 31  1  0  0  0  0
 24 22  1  0  0  0  0
 25 14  1  6  0  0  0
 25 23  1  0  0  0  0
 26 24  1  0  0  0  0
 27  5  1  1  0  0  0
 31  2  1  0  0  0  0
 32 34  2  0  0  0  0
 32 33  1  0  0  0  0
M  END
>  <MODEL>
4

>  <REMARK>
 VINA RESULT:      -4.9      2.094      3.256
  Name = 
  1 active torsions:
  status: ('A' for Active; 'I' for Inactive)
    1  A    between atoms: C_3  and  C_25
                            x       y       z     vdW  Elec       q    Type
                         _______ _______ _______ _____ _____    ______ ____

>  <TORSDO>
F 1

$$$$
=
 OpenBabel10272415333D

 34 40  0  0  1  0  0  0  0  0999 V2000
  184.9870  178.8340  138.8800 C   0  0  1  0  0  3  0  0  0  0  0  0
  187.1890  177.5470  139.5450 C   0  0  1  0  0  3  0  0  0  0  0  0
  181.3160  176.6980  137.9530 C   0  0  2  0  0  3  0  0  0  0  0  0
  185.9850  178.9200  141.2470 C   0  0  0  0  0  0  0  0  0  0  0  0
  183.2250  175.5890  139.2810 C   0  0  0  0  0  2  0  0  0  0  0  0
  183.7160  176.4950  135.2690 N   0  0  0  0  0  0  0  0  0  0  0  0
  182.8690  178.1320  139.4120 C   0  0  1  0  0  0  0  0  0  0  0  0
  183.7530  178.4070  138.3410 O   0  0  0  0  0  0  0  0  0  0  0  0
  183.6770  178.1530  140.7110 C   0  0  2  0  0  3  0  0  0  0  0  0
  182.9850  175.2940  135.5160 C   0  0  0  0  0  0  0  0  0  0  0  0
  183.5020  179.4500  142.9670 C   0  0  0  0  0  2  0  0  0  0  0  0
  184.5440  177.6630  135.6970 C   0  0  2  0  0  3  0  0  0  0  0  0
  182.5410  174.6290  134.5430 O   0  0  0  0  0  0  0  0  0  0  0  0
  181.2780  175.3070  137.3280 C   0  0  0  0  0  2  0  0  0  0  0  0
  182.8560  178.4790  141.9780 C   0  0  0  0  0  2  0  0  0  0  0  0
  181.7990  179.2300  139.4210 C   0  0  0  0  0  1  0  0  0  0  0  0
  185.9740  179.5200  142.6180 C   0  0  0  0  0  2  0  0  0  0  0  0
  184.7840  179.0940  140.3660 C   0  0  2  0  0  3  0  0  0  0  0  0
  184.3040  177.5090  134.3480 C   0  0  0  0  0  2  0  0  0  0  0  0
  184.8490  178.9440  143.4660 C   0  0  0  0  0  2  0  0  0  0  0  0
  188.8060  177.9170  138.8170 S   0  0  0  0  0  0  0  0  0  0  0  0
  188.1580  177.4800  137.1850 C   0  0  2  0  0  3  0  0  0  0  0  0
  183.7840  175.2590  137.8990 C   0  0  0  0  0  2  0  0  0  0  0  0
  186.6970  177.9610  137.1030 C   0  0  2  0  0  0  0  0  0  0  0  0
  182.6800  174.8460  136.9120 C   0  0  2  0  0  3  0  0  0  0  0  0
  185.9360  177.1540  136.0340 C   0  0  0  0  0  2  0  0  0  0  0  0
  182.2070  176.7490  139.2140 C   0  0  1  0  0  3  0  0  0  0  0  0
  180.0170  177.0910  138.2770 O   0  0  0  0  0  1  0  0  0  0  0  0
  187.0590  178.2330  140.8670 C   0  0  0  0  0  3  0  0  0  0  0  0
  186.7540  179.4300  136.6820 C   0  0  0  0  0  1  0  0  0  0  0  0
  186.0750  177.7910  138.5140 C   0  0  2  0  0  3  0  0  0  0  0  0
  188.3740  176.0100  136.9360 C   0  0  0  0  0  0  0  0  0  0  0  0
  187.9660  175.1470  137.7600 O   0  0  0  0  0  1  0  0  0  0  0  0
  189.0480  175.6030  135.7920 O   0  0  0  0  0  0  0  0  0  0  0  0
  1  8  1  1  0  0  0
  1 18  1  0  0  0  0
  2 29  1  1  0  0  0
  3 28  1  1  0  0  0
  3 27  1  0  0  0  0
  4 17  1  0  0  0  0
  6 10  1  0  0  0  0
  6 12  1  0  0  0  0
  7 16  1  1  0  0  0
  7  9  1  0  0  0  0
  8  7  1  0  0  0  0
  9 15  1  1  0  0  0
 10 25  1  0  0  0  0
 11 20  1  0  0  0  0
 12 19  1  6  0  0  0
 12 26  1  0  0  0  0
 13 10  2  0  0  0  0
 14  3  1  0  0  0  0
 15 11  1  0  0  0  0
 17 20  1  0  0  0  0
 18  9  1  0  0  0  0
 18  4  1  1  0  0  0
 19  6  1  0  0  0  0
 21  2  1  0  0  0  0
 22 32  1  1  0  0  0
 22 21  1  0  0  0  0
 23  5  1  0  0  0  0
 24 30  1  6  0  0  0
 24 22  1  0  0  0  0
 24 31  1  0  0  0  0
 25 14  1  1  0  0  0
 25 23  1  0  0  0  0
 26 24  1  0  0  0  0
 27  5  1  6  0  0  0
 27  7  1  0  0  0  0
 29  4  2  0  0  0  0
 31  1  1  0  0  0  0
 31  2  1  0  0  0  0
 32 33  1  0  0  0  0
 34 32  2  0  0  0  0
M  END
>  <MODEL>
5

>  <REMARK>
 VINA RESULT:      -4.4      2.295      3.946
  Name = 
  1 active torsions:
  status: ('A' for Active; 'I' for Inactive)
    1  A    between atoms: C_3  and  C_25
                            x       y       z     vdW  Elec       q    Type
                         _______ _______ _______ _____ _____    ______ ____

>  <TORSDO>
F 1

$$$$
=
 OpenBabel10272415333D

 34 40  0  0  1  0  0  0  0  0999 V2000
  185.3120  178.2600  137.7270 C   0  0  1  0  0  3  0  0  0  0  0  0
  187.1040  176.3460  137.4570 C   0  0  1  0  0  3  0  0  0  0  0  0
  181.2530  177.3870  139.0160 C   0  0  2  0  0  3  0  0  0  0  0  0
  187.3440  178.0310  139.2840 C   0  0  0  0  0  0  0  0  0  0  0  0
  183.1860  175.7360  139.4310 C   0  0  0  0  0  2  0  0  0  0  0  0
  181.8180  176.4350  135.5850 N   0  0  0  0  0  0  0  0  0  0  0  0
  183.6500  178.2610  139.3090 C   0  0  1  0  0  0  0  0  0  0  0  0
  183.9110  178.2420  137.9180 O   0  0  0  0  0  0  0  0  0  0  0  0
  184.9720  178.0290  140.0420 C   0  0  2  0  0  3  0  0  0  0  0  0
  181.0170  175.5250  136.3380 C   0  0  0  0  0  0  0  0  0  0  0  0
  186.3150  179.3180  141.8700 C   0  0  0  0  0  2  0  0  0  0  0  0
  183.0300  177.2830  135.3730 C   0  0  2  0  0  3  0  0  0  0  0  0
  179.9820  175.0330  135.8150 O   0  0  0  0  0  0  0  0  0  0  0  0
  180.5290  176.0780  138.7160 C   0  0  0  0  0  2  0  0  0  0  0  0
  185.0240  178.5990  141.4780 C   0  0  0  0  0  2  0  0  0  0  0  0
  183.0740  179.6410  139.6510 C   0  0  0  0  0  1  0  0  0  0  0  0
  188.1870  178.6070  140.3780 C   0  0  0  0  0  2  0  0  0  0  0  0
  185.9630  178.5730  139.0670 C   0  0  2  0  0  3  0  0  0  0  0  0
  182.1130  177.2100  134.3460 C   0  0  0  0  0  2  0  0  0  0  0  0
  187.5330  178.4150  141.7390 C   0  0  0  0  0  2  0  0  0  0  0  0
  188.1660  176.1870  135.9980 S   0  0  0  0  0  0  0  0  0  0  0  0
  186.6940  175.9740  134.9660 C   0  0  2  0  0  3  0  0  0  0  0  0
  182.8610  175.2440  138.0230 C   0  0  0  0  0  2  0  0  0  0  0  0
  185.5850  176.8910  135.5150 C   0  0  2  0  0  0  0  0  0  0  0  0
  181.3460  175.1980  137.7620 C   0  0  2  0  0  3  0  0  0  0  0  0
  184.2030  176.3630  135.0820 C   0  0  0  0  0  2  0  0  0  0  0  0
  182.6320  177.1570  139.6740 C   0  0  1  0  0  3  0  0  0  0  0  0
  180.4560  178.1700  139.8530 O   0  0  0  0  0  1  0  0  0  0  0  0
  187.8480  177.0400  138.5530 C   0  0  0  0  0  3  0  0  0  0  0  0
  185.8190  178.2660  134.8900 C   0  0  0  0  0  1  0  0  0  0  0  0
  185.7370  176.9270  137.0580 C   0  0  2  0  0  3  0  0  0  0  0  0
  186.3470  174.5100  134.8820 C   0  0  0  0  0  0  0  0  0  0  0  0
  185.2250  174.1350  134.4470 O   0  0  0  0  0  0  0  0  0  0  0  0
  187.2700  173.5640  135.3080 O   0  0  0  0  0  1  0  0  0  0  0  0
  1  8  1  1  0  0  0
  1 18  1  0  0  0  0
  2 29  1  1  0  0  0
  3 27  1  0  0  0  0
  3 28  1  1  0  0  0
  4 17  1  0  0  0  0
  6 10  1  0  0  0  0
  7 16  1  1  0  0  0
  7 27  1  0  0  0  0
  7  9  1  0  0  0  0
  8  7  1  0  0  0  0
  9 15  1  1  0  0  0
 10 25  1  0  0  0  0
 12 19  1  6  0  0  0
 12  6  1  0  0  0  0
 13 10  2  0  0  0  0
 14  3  1  0  0  0  0
 15 11  1  0  0  0  0
 17 20  1  0  0  0  0
 18  4  1  6  0  0  0
 18  9  1  0  0  0  0
 19  6  1  0  0  0  0
 20 11  1  0  0  0  0
 21  2  1  0  0  0  0
 22 32  1  1  0  0  0
 22 24  1  0  0  0  0
 22 21  1  0  0  0  0
 23  5  1  0  0  0  0
 24 30  1  6  0  0  0
 24 31  1  0  0  0  0
 25 23  1  6  0  0  0
 25 14  1  0  0  0  0
 26 12  1  0  0  0  0
 26 24  1  0  0  0  0
 27  5  1  6  0  0  0
 29  4  2  0  0  0  0
 31  2  1  0  0  0  0
 31  1  1  0  0  0  0
 32 34  1  0  0  0  0
 33 32  2  0  0  0  0
M  END
>  <MODEL>
6

>  <REMARK>
 VINA RESULT:      -4.1      2.755      5.332
  Name = 
  1 active torsions:
  status: ('A' for Active; 'I' for Inactive)
    1  A    between atoms: C_3  and  C_25
                            x       y       z     vdW  Elec       q    Type
                         _______ _______ _______ _____ _____    ______ ____

>  <TORSDO>
F 1

$$$$
=
 OpenBabel10272415333D

 34 40  0  0  1  0  0  0  0  0999 V2000
  185.3430  178.1510  137.6620 C   0  0  1  0  0  3  0  0  0  0  0  0
  186.7320  177.8760  139.8860 C   0  0  1  0  0  3  0  0  0  0  0  0
  183.9140  174.6920  135.4500 C   0  0  2  0  0  3  0  0  0  0  0  0
  184.4160  178.8050  139.9690 C   0  0  0  0  0  0  0  0  0  0  0  0
  184.6090  174.5190  137.9250 C   0  0  0  0  0  2  0  0  0  0  0  0
  187.4520  175.2230  134.9970 N   0  0  0  0  0  0  0  0  0  0  0  0
  183.6710  176.7260  136.9980 C   0  0  1  0  0  0  0  0  0  0  0  0
  184.9480  177.2360  136.6600 O   0  0  0  0  0  0  0  0  0  0  0  0
  183.3510  177.1630  138.4290 C   0  0  2  0  0  3  0  0  0  0  0  0
  187.0590  173.8570  135.1190 C   0  0  0  0  0  0  0  0  0  0  0  0
  181.3960  178.4640  139.5630 C   0  0  0  0  0  2  0  0  0  0  0  0
  187.4650  176.6510  135.4380 C   0  0  2  0  0  3  0  0  0  0  0  0
  187.5650  172.9970  134.3500 O   0  0  0  0  0  0  0  0  0  0  0  0
  184.6400  173.3500  135.4110 C   0  0  0  0  0  2  0  0  0  0  0  0
  181.8430  177.2440  138.7580 C   0  0  0  0  0  2  0  0  0  0  0  0
  182.6600  177.3210  136.0110 C   0  0  0  0  0  1  0  0  0  0  0  0
  183.3390  179.4600  140.7750 C   0  0  0  0  0  2  0  0  0  0  0  0
  184.1340  178.4290  138.5450 C   0  0  2  0  0  3  0  0  0  0  0  0
  188.2470  176.3090  134.3550 C   0  0  0  0  0  2  0  0  0  0  0  0
  182.1170  178.5610  140.9000 C   0  0  0  0  0  2  0  0  0  0  0  0
  188.2650  178.7850  140.2100 S   0  0  0  0  0  0  0  0  0  0  0  0
  189.0210  178.0020  138.7630 C   0  0  2  0  0  3  0  0  0  0  0  0
  186.0120  174.3240  137.3560 C   0  0  0  0  0  2  0  0  0  0  0  0
  187.9440  177.8720  137.6700 C   0  0  2  0  0  0  0  0  0  0  0  0
  186.0070  173.4370  136.0990 C   0  0  2  0  0  3  0  0  0  0  0  0
  188.3270  176.7510  136.6850 C   0  0  0  0  0  2  0  0  0  0  0  0
  183.6700  175.1840  136.8940 C   0  0  1  0  0  3  0  0  0  0  0  0
  182.6970  174.5740  134.7790 O   0  0  0  0  0  1  0  0  0  0  0  0
  185.5840  178.5600  140.5570 C   0  0  0  0  0  3  0  0  0  0  0  0
  187.9210  179.2090  136.9290 C   0  0  0  0  0  1  0  0  0  0  0  0
  186.5950  177.5860  138.3810 C   0  0  2  0  0  3  0  0  0  0  0  0
  189.6870  176.7160  139.1780 C   0  0  0  0  0  0  0  0  0  0  0  0
  190.0710  175.8790  138.3170 O   0  0  0  0  0  0  0  0  0  0  0  0
  189.8630  176.4440  140.5290 O   0  0  0  0  0  1  0  0  0  0  0  0
  1  8  1  6  0  0  0
  1 31  1  0  0  0  0
  1 18  1  0  0  0  0
  2 21  1  0  0  0  0
  2 29  1  6  0  0  0
  3 28  1  1  0  0  0
  3 27  1  0  0  0  0
  4 29  2  0  0  0  0
  4 17  1  0  0  0  0
  6 10  1  0  0  0  0
  6 12  1  0  0  0  0
  7 16  1  6  0  0  0
  7  9  1  0  0  0  0
  8  7  1  0  0  0  0
  9 18  1  0  0  0  0
  9 15  1  6  0  0  0
 10 25  1  0  0  0  0
 11 20  1  0  0  0  0
 12 19  1  6  0  0  0
 12 26  1  0  0  0  0
 13 10  2  0  0  0  0
 14  3  1  0  0  0  0
 15 11  1  0  0  0  0
 17 20  1  0  0  0  0
 18  4  1  1  0  0  0
 19  6  1  0  0  0  0
 22 32  1  1  0  0  0
 22 21  1  0  0  0  0
 23  5  1  0  0  0  0
 24 30  1  6  0  0  0
 24 31  1  0  0  0  0
 24 22  1  0  0  0  0
 25 14  1  6  0  0  0
 25 23  1  0  0  0  0
 26 24  1  0  0  0  0
 27  7  1  0  0  0  0
 27  5  1  1  0  0  0
 31  2  1  0  0  0  0
 32 34  1  0  0  0  0
 33 32  2  0  0  0  0
M  END
>  <MODEL>
7

>  <REMARK>
 VINA RESULT:      -4.1      1.098      1.267
  Name = 
  1 active torsions:
  status: ('A' for Active; 'I' for Inactive)
    1  A    between atoms: C_3  and  C_25
                            x       y       z     vdW  Elec       q    Type
                         _______ _______ _______ _____ _____    ______ ____

>  <TORSDO>
F 1

$$$$
=
 OpenBabel10272415333D

 34 40  0  0  1  0  0  0  0  0999 V2000
  185.0260  175.7420  138.0610 C   0  0  1  0  0  3  0  0  0  0  0  0
  184.5490  178.2430  137.3770 C   0  0  1  0  0  3  0  0  0  0  0  0
  184.1320  172.4530  135.3620 C   0  0  2  0  0  3  0  0  0  0  0  0
  186.9020  177.4400  137.6090 C   0  0  0  0  0  0  0  0  0  0  0  0
  184.3770  174.8720  134.5090 C   0  0  0  0  0  2  0  0  0  0  0  0
  181.1550  173.8050  136.8830 N   0  0  0  0  0  0  0  0  0  0  0  0
  185.6700  174.1010  136.5930 C   0  0  1  0  0  0  0  0  0  0  0  0
  184.6530  174.5040  137.4900 O   0  0  0  0  0  0  0  0  0  0  0  0
  186.6290  175.2780  136.4030 C   0  0  2  0  0  3  0  0  0  0  0  0
  181.0190  173.4440  135.5090 C   0  0  0  0  0  0  0  0  0  0  0  0
  189.1980  175.6250  136.6920 C   0  0  0  0  0  2  0  0  0  0  0  0
  181.8440  174.4890  138.0190 C   0  0  2  0  0  3  0  0  0  0  0  0
  179.9840  172.8350  135.1300 O   0  0  0  0  0  0  0  0  0  0  0  0
  182.9940  172.4740  134.3460 C   0  0  0  0  0  2  0  0  0  0  0  0
  188.0630  174.8830  135.9850 C   0  0  0  0  0  2  0  0  0  0  0  0
  186.3960  172.9070  137.2240 C   0  0  0  0  0  1  0  0  0  0  0  0
  188.3600  177.7740  137.6490 C   0  0  0  0  0  2  0  0  0  0  0  0
  186.4820  176.0030  137.7000 C   0  0  2  0  0  3  0  0  0  0  0  0
  180.6540  173.8450  138.2870 C   0  0  0  0  0  2  0  0  0  0  0  0
  189.1070  177.1310  136.4890 C   0  0  0  0  0  2  0  0  0  0  0  0
  183.7050  179.4190  138.4660 S   0  0  0  0  0  0  0  0  0  0  0  0
  182.2400  178.3570  138.4570 C   0  0  2  0  0  3  0  0  0  0  0  0
  182.9010  174.9880  134.8820 C   0  0  0  0  0  2  0  0  0  0  0  0
  182.7090  176.8900  138.4550 C   0  0  2  0  0  0  0  0  0  0  0  0
  182.1130  173.7170  134.5240 C   0  0  2  0  0  3  0  0  0  0  0  0
  181.6010  175.9840  137.8850 C   0  0  0  0  0  2  0  0  0  0  0  0
  185.0520  173.6890  135.2380 C   0  0  1  0  0  3  0  0  0  0  0  0
  184.8800  171.2880  135.1890 O   0  0  0  0  0  1  0  0  0  0  0  0
  186.0290  178.4350  137.4720 C   0  0  0  0  0  3  0  0  0  0  0  0
  182.9630  176.5200  139.9170 C   0  0  0  0  0  1  0  0  0  0  0  0
  184.0090  176.8220  137.6110 C   0  0  2  0  0  3  0  0  0  0  0  0
  181.3390  178.7540  137.3170 C   0  0  0  0  0  0  0  0  0  0  0  0
  181.8010  178.9250  136.1560 O   0  0  0  0  0  0  0  0  0  0  0  0
  179.9850  178.9520  137.5540 O   0  0  0  0  0  1  0  0  0  0  0  0
  1  8  1  6  0  0  0
  2 29  1  1  0  0  0
  2 31  1  0  0  0  0
  2 21  1  0  0  0  0
  3 28  1  6  0  0  0
  4 17  1  0  0  0  0
  5 23  1  0  0  0  0
  6 12  1  0  0  0  0
  6 19  1  0  0  0  0
  7 16  1  1  0  0  0
  7  8  1  0  0  0  0
  9 15  1  1  0  0  0
  9  7  1  0  0  0  0
  9 18  1  0  0  0  0
 10  6  1  0  0  0  0
 12 26  1  6  0  0  0
 12 19  1  0  0  0  0
 13 10  2  0  0  0  0
 14  3  1  0  0  0  0
 15 11  1  0  0  0  0
 18  4  1  6  0  0  0
 18  1  1  0  0  0  0
 20 11  1  0  0  0  0
 20 17  1  0  0  0  0
 22 32  1  6  0  0  0
 22 21  1  0  0  0  0
 24 22  1  0  0  0  0
 24 30  1  1  0  0  0
 25 14  1  1  0  0  0
 25 23  1  0  0  0  0
 25 10  1  0  0  0  0
 26 24  1  0  0  0  0
 27  5  1  1  0  0  0
 27  3  1  0  0  0  0
 27  7  1  0  0  0  0
 29  4  2  0  0  0  0
 31  1  1  0  0  0  0
 31 24  1  0  0  0  0
 32 34  1  0  0  0  0
 33 32  2  0  0  0  0
M  END
>  <MODEL>
8

>  <REMARK>
 VINA RESULT:      -3.4      3.010      6.275
  Name = 
  1 active torsions:
  status: ('A' for Active; 'I' for Inactive)
    1  A    between atoms: C_3  and  C_25
                            x       y       z     vdW  Elec       q    Type
                         _______ _______ _______ _____ _____    ______ ____

>  <TORSDO>
F 1

$$$$
=
 OpenBabel10272415333D

 34 40  0  0  1  0  0  0  0  0999 V2000
  185.8610  176.3450  136.3460 C   0  0  1  0  0  3  0  0  0  0  0  0
  185.8810  173.8360  137.1570 C   0  0  1  0  0  3  0  0  0  0  0  0
  183.9370  179.4600  138.6890 C   0  0  2  0  0  3  0  0  0  0  0  0
  188.0040  175.1500  137.1160 C   0  0  0  0  0  0  0  0  0  0  0  0
  184.6160  177.2070  139.7370 C   0  0  0  0  0  2  0  0  0  0  0  0
  181.5420  177.3860  136.9660 N   0  0  0  0  0  0  0  0  0  0  0  0
  185.9410  178.1580  137.7500 C   0  0  1  0  0  0  0  0  0  0  0  0
  185.1540  177.4880  136.7820 O   0  0  0  0  0  0  0  0  0  0  0  0
  187.1100  177.2440  138.1250 C   0  0  2  0  0  3  0  0  0  0  0  0
  181.1660  177.7700  138.2880 C   0  0  0  0  0  0  0  0  0  0  0  0
  189.7070  177.4880  138.1340 C   0  0  0  0  0  2  0  0  0  0  0  0
  182.4970  176.8270  135.9620 C   0  0  2  0  0  3  0  0  0  0  0  0
  179.9830  178.1400  138.5120 O   0  0  0  0  0  0  0  0  0  0  0  0
  182.7200  179.2240  139.5790 C   0  0  0  0  0  2  0  0  0  0  0  0
  188.3590  177.9800  138.6610 C   0  0  0  0  0  2  0  0  0  0  0  0
  186.4500  179.4560  137.1130 C   0  0  0  0  0  1  0  0  0  0  0  0
  189.4930  175.1610  137.2540 C   0  0  0  0  0  2  0  0  0  0  0  0
  187.2850  176.4450  136.8760 C   0  0  2  0  0  3  0  0  0  0  0  0
  181.2340  177.1650  135.5250 C   0  0  0  0  0  2  0  0  0  0  0  0
  189.9340  176.0130  138.4360 C   0  0  0  0  0  2  0  0  0  0  0  0
  185.4580  172.4470  136.0740 S   0  0  0  0  0  0  0  0  0  0  0  0
  183.8010  173.1400  135.8520 C   0  0  2  0  0  3  0  0  0  0  0  0
  183.2590  176.7350  139.2200 C   0  0  0  0  0  2  0  0  0  0  0  0
  183.9250  174.6740  135.7960 C   0  0  2  0  0  0  0  0  0  0  0  0
  182.1690  177.8050  139.4010 C   0  0  2  0  0  3  0  0  0  0  0  0
  182.5820  175.3250  136.1780 C   0  0  0  0  0  2  0  0  0  0  0  0
  185.0890  178.4790  138.9990 C   0  0  1  0  0  3  0  0  0  0  0  0
  184.3780  180.7740  138.8540 O   0  0  0  0  0  1  0  0  0  0  0  0
  187.3660  173.9880  137.2320 C   0  0  0  0  0  3  0  0  0  0  0  0
  184.2610  175.0240  134.3460 C   0  0  0  0  0  1  0  0  0  0  0  0
  185.0660  175.0810  136.7640 C   0  0  2  0  0  3  0  0  0  0  0  0
  182.8830  172.6000  136.9170 C   0  0  0  0  0  0  0  0  0  0  0  0
  181.9680  173.3150  137.4070 O   0  0  0  0  0  1  0  0  0  0  0  0
  183.0610  171.3010  137.3770 O   0  0  0  0  0  0  0  0  0  0  0  0
  1 31  1  0  0  0  0
  1  8  1  1  0  0  0
  1 18  1  0  0  0  0
  2 29  1  6  0  0  0
  3 28  1  1  0  0  0
  3 27  1  0  0  0  0
  3 14  1  0  0  0  0
  4 29  2  0  0  0  0
  4 17  1  0  0  0  0
  6 10  1  0  0  0  0
  7 16  1  6  0  0  0
  7  9  1  0  0  0  0
  7 27  1  0  0  0  0
  8  7  1  0  0  0  0
  9 15  1  6  0  0  0
 10 13  2  0  0  0  0
 10 25  1  0  0  0  0
 11 20  1  0  0  0  0
 11 15  1  0  0  0  0
 12 19  1  6  0  0  0
 12 26  1  0  0  0  0
 12  6  1  0  0  0  0
 17 20  1  0  0  0  0
 18  4  1  1  0  0  0
 18  9  1  0  0  0  0
 19  6  1  0  0  0  0
 21  2  1  0  0  0  0
 22 21  1  0  0  0  0
 22 32  1  1  0  0  0
 23  5  1  0  0  0  0
 24 30  1  6  0  0  0
 24 22  1  0  0  0  0
 24 26  1  0  0  0  0
 24 31  1  0  0  0  0
 25 23  1  6  0  0  0
 25 14  1  0  0  0  0
 27  5  1  6  0  0  0
 31  2  1  0  0  0  0
 32 34  2  0  0  0  0
 32 33  1  0  0  0  0
M  END
>  <MODEL>
9

>  <REMARK>
 VINA RESULT:      -3.4      3.144      6.766
  Name = 
  1 active torsions:
  status: ('A' for Active; 'I' for Inactive)
    1  A    between atoms: C_3  and  C_25
                            x       y       z     vdW  Elec       q    Type
                         _______ _______ _______ _____ _____    ______ ____

>  <TORSDO>
F 1

$$$$
