=
 OpenBabel10272415103D

 34 39  0  0  1  0  0  0  0  0999 V2000
  189.3650  176.9520  145.1810 C   0  0  0  0  0  0  0  0  0  0  0  0
  185.9580  177.8820  146.6690 C   0  0  0  0  0  2  0  0  0  0  0  0
  188.2400  177.7450  147.6570 C   0  0  0  0  0  3  0  0  0  0  0  0
  191.6060  176.8590  146.5510 C   0  0  1  0  0  3  0  0  0  0  0  0
  191.9050  177.3080  147.9210 N   0  0  0  0  0  0  0  0  0  0  0  0
  191.9070  175.4400  146.4430 N   0  0  0  0  0  1  0  0  0  0  0  0
  189.6000  177.4860  147.5280 C   0  0  0  0  0  0  0  0  0  0  0  0
  190.1520  177.0820  146.3500 C   0  0  0  0  0  0  0  0  0  0  0  0
  190.6260  177.6100  148.5760 C   0  0  0  0  0  3  0  0  0  0  0  0
  185.6320  178.9960  145.8850 O   0  0  0  0  0  0  0  0  0  0  0  0
  185.1620  178.4790  144.6700 C   0  0  2  0  0  3  0  0  0  0  0  0
  186.3280  178.2610  143.7070 C   0  0  0  0  0  2  0  0  0  0  0  0
  187.4180  177.5870  146.5350 C   0  0  0  0  0  0  0  0  0  0  0  0
  187.0980  176.9990  144.0810 C   0  0  0  0  0  2  0  0  0  0  0  0
  187.9760  177.2020  145.2870 C   0  0  0  0  0  0  0  0  0  0  0  0
  184.1770  179.4560  144.0550 C   0  0  0  0  0  3  0  0  0  0  0  0
  182.7900  178.8440  144.0530 C   0  0  0  0  0  2  0  0  0  0  0  0
  183.6110  178.8610  142.7820 C   0  0  0  0  0  2  0  0  0  0  0  0
  190.5760  177.4120  143.1260 C   0  0  0  0  0  3  0  0  0  0  0  0
  189.9090  176.6130  143.8940 N   0  0  0  0  0  0  0  0  0  0  0  0
  191.0620  176.9360  141.7990 C   0  0  0  0  0  2  0  0  0  0  0  0
  187.8950  178.0830  140.2460 C   0  0  0  0  0  2  0  0  0  0  0  0
  190.5510  177.0810  139.5040 C   0  0  0  0  0  2  0  0  0  0  0  0
  187.5030  177.5640  136.4980 C   0  0  0  0  0  0  0  0  0  0  0  0
  187.2430  177.9170  137.8320 C   0  0  0  0  0  3  0  0  0  0  0  0
  188.2240  177.7550  138.8150 C   0  0  0  0  0  0  0  0  0  0  0  0
  189.7420  176.8650  137.1400 C   0  0  0  0  0  3  0  0  0  0  0  0
  189.4740  177.2070  138.4670 C   0  0  0  0  0  0  0  0  0  0  0  0
  188.7590  177.0390  136.1610 C   0  0  0  0  0  3  0  0  0  0  0  0
  189.9680  176.9270  140.8400 N   0  0  0  0  0  0  0  0  0  0  0  0
  189.1540  178.1100  141.1150 C   0  0  0  0  0  2  0  0  0  0  0  0
  186.4660  177.7340  135.4620 C   0  0  0  0  0  0  0  0  0  0  0  0
  185.1470  177.2390  135.6770 N   0  0  0  0  0  1  0  0  0  0  0  0
  186.7440  178.3250  134.3460 N   0  0  0  0  0  2  0  0  0  0  0  0
  1 15  2  0  0  0  0
  1  8  1  0  0  0  0
  4  6  1  1  0  0  0
  4  5  1  0  0  0  0
  5  9  2  0  0  0  0
  7  3  1  0  0  0  0
  7  9  1  0  0  0  0
  8  4  1  0  0  0  0
  8  7  2  0  0  0  0
 10  2  1  0  0  0  0
 11 16  1  6  0  0  0
 11 10  1  0  0  0  0
 12 14  1  0  0  0  0
 12 11  1  0  0  0  0
 13  2  1  0  0  0  0
 13  3  2  0  0  0  0
 14 15  1  0  0  0  0
 15 13  1  0  0  0  0
 17 16  1  0  0  0  0
 18 17  1  0  0  0  0
 18 16  1  0  0  0  0
 19 20  2  0  0  0  0
 20  1  1  0  0  0  0
 21 19  1  0  0  0  0
 22 31  1  0  0  0  0
 23 30  1  0  0  0  0
 24 25  1  0  0  0  0
 25 26  2  0  0  0  0
 26 22  1  0  0  0  0
 27 28  2  0  0  0  0
 28 26  1  0  0  0  0
 28 23  1  0  0  0  0
 29 24  2  0  0  0  0
 29 27  1  0  0  0  0
 30 31  1  0  0  0  0
 30 21  1  0  0  0  0
 32 33  1  0  0  0  0
 32 24  1  0  0  0  0
 34 32  2  0  0  0  0
M  END
>  <MODEL>
1

>  <REMARK>
 VINA RESULT:      -9.8      0.000      0.000
  Name = 
  5 active torsions:
  status: ('A' for Active; 'I' for Inactive)
    1  A    between atoms: C_1  and  N_9
    2  A    between atoms: C_3  and  C_25
    3  A    between atoms: C_7  and  C_11
    4  A    between atoms: C_8  and  C_18
    5  A    between atoms: C_18  and  N_30
                            x       y       z     vdW  Elec       q    Type
                         _______ _______ _______ _____ _____    ______ ____

>  <TORSDO>
F 5

$$$$
=
 OpenBabel10272415103D

 34 39  0  0  1  0  0  0  0  0999 V2000
  189.2740  177.7290  144.8350 C   0  0  0  0  0  0  0  0  0  0  0  0
  191.3820  177.3730  141.6540 C   0  0  0  0  0  2  0  0  0  0  0  0
  191.7420  176.6180  144.0000 C   0  0  0  0  0  3  0  0  0  0  0  0
  189.9970  176.8400  147.2000 C   0  0  1  0  0  3  0  0  0  0  0  0
  191.1180  175.9700  147.5890 N   0  0  0  0  0  0  0  0  0  0  0  0
  190.1060  178.1000  147.9190 N   0  0  0  0  0  1  0  0  0  0  0  0
  191.3170  176.5300  145.3200 C   0  0  0  0  0  0  0  0  0  0  0  0
  190.1430  177.0780  145.7410 C   0  0  0  0  0  0  0  0  0  0  0  0
  192.0100  175.8520  146.4280 C   0  0  0  0  0  3  0  0  0  0  0  0
  190.5010  176.6470  140.8440 O   0  0  0  0  0  0  0  0  0  0  0  0
  189.5840  177.5830  140.3470 C   0  0  2  0  0  3  0  0  0  0  0  0
  188.4140  177.7380  141.3180 C   0  0  0  0  0  2  0  0  0  0  0  0
  190.9320  177.2930  143.0780 C   0  0  0  0  0  0  0  0  0  0  0  0
  188.8220  178.5940  142.5110 C   0  0  0  0  0  2  0  0  0  0  0  0
  189.6870  177.8410  143.4860 C   0  0  0  0  0  0  0  0  0  0  0  0
  189.0630  177.1140  139.0010 C   0  0  0  0  0  3  0  0  0  0  0  0
  189.2730  178.2030  137.9680 C   0  0  0  0  0  2  0  0  0  0  0  0
  187.9050  177.9940  138.5780 C   0  0  0  0  0  2  0  0  0  0  0  0
  186.8930  177.5640  145.2900 C   0  0  0  0  0  3  0  0  0  0  0  0
  187.9870  178.2510  145.2070 N   0  0  0  0  0  0  0  0  0  0  0  0
  185.6170  178.2390  145.6640 C   0  0  0  0  0  2  0  0  0  0  0  0
  182.3860  178.7590  143.9180 C   0  0  0  0  0  2  0  0  0  0  0  0
  185.2690  178.6890  143.3770 C   0  0  0  0  0  2  0  0  0  0  0  0
  182.4610  178.9040  140.1180 C   0  0  0  0  0  0  0  0  0  0  0  0
  182.0040  178.9020  141.4460 C   0  0  0  0  0  3  0  0  0  0  0  0
  182.9090  178.8230  142.5080 C   0  0  0  0  0  0  0  0  0  0  0  0
  184.7490  178.7320  140.9250 C   0  0  0  0  0  3  0  0  0  0  0  0
  184.2880  178.7180  142.2430 C   0  0  0  0  0  0  0  0  0  0  0  0
  183.8390  178.8200  139.8670 C   0  0  0  0  0  3  0  0  0  0  0  0
  184.6540  178.1210  144.5800 N   0  0  0  0  0  0  0  0  0  0  0  0
  183.5090  178.9570  144.9380 C   0  0  0  0  0  2  0  0  0  0  0  0
  181.5050  178.9860  138.9960 C   0  0  0  0  0  0  0  0  0  0  0  0
  180.1860  178.4650  139.1380 N   0  0  0  0  0  1  0  0  0  0  0  0
  181.8560  179.5210  137.8720 N   0  0  0  0  0  2  0  0  0  0  0  0
  1 20  1  0  0  0  0
  1  8  1  0  0  0  0
  2 13  1  0  0  0  0
  3  7  1  0  0  0  0
  4  5  1  0  0  0  0
  4  6  1  1  0  0  0
  7  8  2  0  0  0  0
  7  9  1  0  0  0  0
  8  4  1  0  0  0  0
  9  5  2  0  0  0  0
 10  2  1  0  0  0  0
 11 16  1  6  0  0  0
 11 10  1  0  0  0  0
 11 12  1  0  0  0  0
 12 14  1  0  0  0  0
 13 15  1  0  0  0  0
 13  3  2  0  0  0  0
 14 15  1  0  0  0  0
 15  1  2  0  0  0  0
 17 18  1  0  0  0  0
 17 16  1  0  0  0  0
 18 16  1  0  0  0  0
 19 21  1  0  0  0  0
 20 19  2  0  0  0  0
 22 31  1  0  0  0  0
 23 30  1  0  0  0  0
 24 25  1  0  0  0  0
 25 26  2  0  0  0  0
 26 22  1  0  0  0  0
 27 28  2  0  0  0  0
 28 26  1  0  0  0  0
 28 23  1  0  0  0  0
 29 24  2  0  0  0  0
 29 27  1  0  0  0  0
 30 31  1  0  0  0  0
 30 21  1  0  0  0  0
 32 33  1  0  0  0  0
 32 24  1  0  0  0  0
 34 32  2  0  0  0  0
M  END
>  <MODEL>
2

>  <REMARK>
 VINA RESULT:      -9.6      2.572      5.566
  Name = 
  5 active torsions:
  status: ('A' for Active; 'I' for Inactive)
    1  A    between atoms: C_1  and  N_9
    2  A    between atoms: C_3  and  C_25
    3  A    between atoms: C_7  and  C_11
    4  A    between atoms: C_8  and  C_18
    5  A    between atoms: C_18  and  N_30
                            x       y       z     vdW  Elec       q    Type
                         _______ _______ _______ _____ _____    ______ ____

>  <TORSDO>
F 5

$$$$
=
 OpenBabel10272415103D

 34 39  0  0  1  0  0  0  0  0999 V2000
  183.7590  178.4200  141.9920 C   0  0  0  0  0  0  0  0  0  0  0  0
  185.6530  178.8930  145.2890 C   0  0  0  0  0  2  0  0  0  0  0  0
  183.2250  178.8690  144.7370 C   0  0  0  0  0  3  0  0  0  0  0  0
  181.1420  178.5070  141.7590 C   0  0  1  0  0  3  0  0  0  0  0  0
  180.0940  178.5400  142.7920 N   0  0  0  0  0  0  0  0  0  0  0  0
  181.0050  179.6800  140.9100 N   0  0  0  0  0  1  0  0  0  0  0  0
  182.1980  178.7510  143.8090 C   0  0  0  0  0  0  0  0  0  0  0  0
  182.4390  178.5570  142.4820 C   0  0  0  0  0  0  0  0  0  0  0  0
  180.7520  178.7950  144.0800 C   0  0  0  0  0  3  0  0  0  0  0  0
  186.3350  177.6720  145.3700 O   0  0  0  0  0  0  0  0  0  0  0  0
  187.4360  177.7960  144.5110 C   0  0  2  0  0  3  0  0  0  0  0  0
  187.0460  177.3770  143.0950 C   0  0  0  0  0  2  0  0  0  0  0  0
  184.5480  178.7830  144.2880 C   0  0  0  0  0  0  0  0  0  0  0  0
  186.2430  178.4800  142.4150 C   0  0  0  0  0  2  0  0  0  0  0  0
  184.8240  178.5450  142.9150 C   0  0  0  0  0  0  0  0  0  0  0  0
  188.5630  176.9090  145.0060 C   0  0  0  0  0  3  0  0  0  0  0  0
  189.7520  177.7680  145.3910 C   0  0  0  0  0  2  0  0  0  0  0  0
  189.7470  177.0330  144.0680 C   0  0  0  0  0  2  0  0  0  0  0  0
  184.8440  178.8330  139.8570 C   0  0  0  0  0  3  0  0  0  0  0  0
  184.0670  178.1310  140.6180 N   0  0  0  0  0  0  0  0  0  0  0  0
  185.0560  178.4330  138.4370 C   0  0  0  0  0  2  0  0  0  0  0  0
  188.2050  177.5160  136.7050 C   0  0  0  0  0  2  0  0  0  0  0  0
  187.2230  178.3100  139.3530 C   0  0  0  0  0  2  0  0  0  0  0  0
  191.2880  176.9710  138.8650 C   0  0  0  0  0  0  0  0  0  0  0  0
  190.4350  177.0630  137.7530 C   0  0  0  0  0  3  0  0  0  0  0  0
  189.1120  177.4880  137.9040 C   0  0  0  0  0  0  0  0  0  0  0  0
  189.4710  177.7230  140.2960 C   0  0  0  0  0  3  0  0  0  0  0  0
  188.6240  177.8010  139.1880 C   0  0  0  0  0  0  0  0  0  0  0  0
  190.7960  177.3050  140.1350 C   0  0  0  0  0  3  0  0  0  0  0  0
  186.3580  177.8030  138.2840 N   0  0  0  0  0  0  0  0  0  0  0  0
  186.9040  178.2610  137.0080 C   0  0  0  0  0  2  0  0  0  0  0  0
  192.6840  176.5200  138.7030 C   0  0  0  0  0  0  0  0  0  0  0  0
  193.7260  177.1220  139.4670 N   0  0  0  0  0  1  0  0  0  0  0  0
  192.9790  175.5830  137.8630 N   0  0  0  0  0  2  0  0  0  0  0  0
  1  8  2  0  0  0  0
  1 15  1  0  0  0  0
  2 10  1  0  0  0  0
  4  6  1  6  0  0  0
  4  8  1  0  0  0  0
  4  5  1  0  0  0  0
  5  9  2  0  0  0  0
  7  9  1  0  0  0  0
  7  3  2  0  0  0  0
  8  7  1  0  0  0  0
 11 16  1  1  0  0  0
 11 10  1  0  0  0  0
 12 11  1  0  0  0  0
 13  3  1  0  0  0  0
 13  2  1  0  0  0  0
 14 15  1  0  0  0  0
 14 12  1  0  0  0  0
 15 13  2  0  0  0  0
 16 17  1  0  0  0  0
 18 16  1  0  0  0  0
 18 17  1  0  0  0  0
 19 20  2  0  0  0  0
 20  1  1  0  0  0  0
 21 19  1  0  0  0  0
 22 31  1  0  0  0  0
 22 26  1  0  0  0  0
 24 29  1  0  0  0  0
 25 26  1  0  0  0  0
 25 24  2  0  0  0  0
 26 28  2  0  0  0  0
 28 23  1  0  0  0  0
 28 27  1  0  0  0  0
 29 27  2  0  0  0  0
 30 21  1  0  0  0  0
 30 23  1  0  0  0  0
 31 30  1  0  0  0  0
 32 24  1  0  0  0  0
 32 33  1  0  0  0  0
 34 32  2  0  0  0  0
M  END
>  <MODEL>
3

>  <REMARK>
 VINA RESULT:      -9.5      2.792      6.550
  Name = 
  5 active torsions:
  status: ('A' for Active; 'I' for Inactive)
    1  A    between atoms: C_1  and  N_9
    2  A    between atoms: C_3  and  C_25
    3  A    between atoms: C_7  and  C_11
    4  A    between atoms: C_8  and  C_18
    5  A    between atoms: C_18  and  N_30
                            x       y       z     vdW  Elec       q    Type
                         _______ _______ _______ _____ _____    ______ ____

>  <TORSDO>
F 5

$$$$
=
 OpenBabel10272415103D

 34 39  0  0  1  0  0  0  0  0999 V2000
  189.6820  176.9410  144.4560 C   0  0  0  0  0  0  0  0  0  0  0  0
  185.9910  177.5550  145.2810 C   0  0  0  0  0  2  0  0  0  0  0  0
  188.0400  177.5050  146.6940 C   0  0  0  0  0  3  0  0  0  0  0  0
  191.6140  176.9080  146.2370 C   0  0  1  0  0  3  0  0  0  0  0  0
  191.6060  177.2890  147.6590 N   0  0  0  0  0  0  0  0  0  0  0  0
  192.0360  175.5210  146.1230 N   0  0  0  0  0  1  0  0  0  0  0  0
  189.4140  177.3420  146.8260 C   0  0  0  0  0  0  0  0  0  0  0  0
  190.2140  177.0490  145.7620 C   0  0  0  0  0  0  0  0  0  0  0  0
  190.2050  177.4680  148.0610 C   0  0  0  0  0  3  0  0  0  0  0  0
  185.7400  178.6920  144.5020 O   0  0  0  0  0  0  0  0  0  0  0  0
  185.5560  178.2230  143.1950 C   0  0  2  0  0  3  0  0  0  0  0  0
  186.9000  178.1400  142.4730 C   0  0  0  0  0  2  0  0  0  0  0  0
  187.4670  177.3630  145.4250 C   0  0  0  0  0  0  0  0  0  0  0  0
  187.6750  176.9100  142.9310 C   0  0  0  0  0  2  0  0  0  0  0  0
  188.2840  177.0940  144.2960 C   0  0  0  0  0  0  0  0  0  0  0  0
  184.6380  179.1690  142.4440 C   0  0  0  0  0  3  0  0  0  0  0  0
  183.2170  178.6450  142.4940 C   0  0  0  0  0  2  0  0  0  0  0  0
  184.0500  178.4520  141.2460 C   0  0  0  0  0  2  0  0  0  0  0  0
  190.7500  177.5970  142.3740 C   0  0  0  0  0  3  0  0  0  0  0  0
  190.4900  176.7170  143.2880 N   0  0  0  0  0  0  0  0  0  0  0  0
  191.5830  177.2220  141.1960 C   0  0  0  0  0  2  0  0  0  0  0  0
  190.7210  176.9030  137.6030 C   0  0  0  0  0  2  0  0  0  0  0  0
  189.4450  177.3160  140.2120 C   0  0  0  0  0  2  0  0  0  0  0  0
  187.1400  177.6920  136.5930 C   0  0  0  0  0  0  0  0  0  0  0  0
  188.4970  177.3380  136.5330 C   0  0  0  0  0  3  0  0  0  0  0  0
  189.2540  177.2230  137.7030 C   0  0  0  0  0  0  0  0  0  0  0  0
  187.3030  177.8320  139.0150 C   0  0  0  0  0  3  0  0  0  0  0  0
  188.6550  177.4910  138.9500 C   0  0  0  0  0  0  0  0  0  0  0  0
  186.5500  177.9360  137.8420 C   0  0  0  0  0  3  0  0  0  0  0  0
  190.8740  177.5270  139.9640 N   0  0  0  0  0  0  0  0  0  0  0  0
  191.3080  176.5470  138.9700 C   0  0  0  0  0  2  0  0  0  0  0  0
  186.3420  177.8150  135.3580 C   0  0  0  0  0  0  0  0  0  0  0  0
  185.0650  177.1890  135.2610 N   0  0  0  0  0  1  0  0  0  0  0  0
  186.7950  178.4830  134.3470 N   0  0  0  0  0  2  0  0  0  0  0  0
  1  8  1  0  0  0  0
  2 13  1  0  0  0  0
  3  7  1  0  0  0  0
  4  6  1  1  0  0  0
  4  5  1  0  0  0  0
  5  9  2  0  0  0  0
  7  9  1  0  0  0  0
  8  4  1  0  0  0  0
  8  7  2  0  0  0  0
 10  2  1  0  0  0  0
 11 16  1  6  0  0  0
 11 10  1  0  0  0  0
 12 14  1  0  0  0  0
 12 11  1  0  0  0  0
 13  3  2  0  0  0  0
 14 15  1  0  0  0  0
 15  1  2  0  0  0  0
 15 13  1  0  0  0  0
 16 17  1  0  0  0  0
 18 16  1  0  0  0  0
 18 17  1  0  0  0  0
 19 20  2  0  0  0  0
 20  1  1  0  0  0  0
 21 19  1  0  0  0  0
 22 26  1  0  0  0  0
 22 31  1  0  0  0  0
 24 29  1  0  0  0  0
 25 24  2  0  0  0  0
 25 26  1  0  0  0  0
 26 28  2  0  0  0  0
 28 27  1  0  0  0  0
 28 23  1  0  0  0  0
 29 27  2  0  0  0  0
 30 23  1  0  0  0  0
 30 21  1  0  0  0  0
 31 30  1  0  0  0  0
 32 24  1  0  0  0  0
 33 32  1  0  0  0  0
 34 32  2  0  0  0  0
M  END
>  <MODEL>
4

>  <REMARK>
 VINA RESULT:      -9.5      0.933      1.575
  Name = 
  5 active torsions:
  status: ('A' for Active; 'I' for Inactive)
    1  A    between atoms: C_1  and  N_9
    2  A    between atoms: C_3  and  C_25
    3  A    between atoms: C_7  and  C_11
    4  A    between atoms: C_8  and  C_18
    5  A    between atoms: C_18  and  N_30
                            x       y       z     vdW  Elec       q    Type
                         _______ _______ _______ _____ _____    ______ ____

>  <TORSDO>
F 5

$$$$
=
 OpenBabel10272415103D

 34 39  0  0  1  0  0  0  0  0999 V2000
  186.3510  178.0780  138.3980 C   0  0  0  0  0  0  0  0  0  0  0  0
  183.0590  178.8980  140.1800 C   0  0  0  0  0  2  0  0  0  0  0  0
  183.5600  177.9280  137.9420 C   0  0  0  0  0  3  0  0  0  0  0  0
  186.5170  177.0900  135.9680 C   0  0  1  0  0  3  0  0  0  0  0  0
  185.4680  176.5570  135.0830 N   0  0  0  0  0  0  0  0  0  0  0  0
  187.1870  178.1910  135.2950 N   0  0  0  0  0  1  0  0  0  0  0  0
  184.4750  177.5040  136.9850 C   0  0  0  0  0  0  0  0  0  0  0  0
  185.8200  177.5900  137.1810 C   0  0  0  0  0  0  0  0  0  0  0  0
  184.1700  176.9060  135.6750 C   0  0  0  0  0  3  0  0  0  0  0  0
  183.1670  178.0740  141.3070 O   0  0  0  0  0  0  0  0  0  0  0  0
  184.0210  178.7500  142.1900 C   0  0  2  0  0  3  0  0  0  0  0  0
  185.4750  178.3800  141.8980 C   0  0  0  0  0  2  0  0  0  0  0  0
  184.0440  178.4580  139.1430 C   0  0  0  0  0  0  0  0  0  0  0  0
  185.9740  179.1190  140.6620 C   0  0  0  0  0  2  0  0  0  0  0  0
  185.4420  178.5240  139.3860 C   0  0  0  0  0  0  0  0  0  0  0  0
  183.6800  178.3630  143.6170 C   0  0  0  0  0  3  0  0  0  0  0  0
  183.6270  179.6070  144.4800 C   0  0  0  0  0  2  0  0  0  0  0  0
  184.8440  178.7100  144.5220 C   0  0  0  0  0  2  0  0  0  0  0  0
  188.4850  177.0890  139.0070 C   0  0  0  0  0  3  0  0  0  0  0  0
  187.7590  178.1120  138.6910 N   0  0  0  0  0  0  0  0  0  0  0  0
  189.9330  177.2700  139.3130 C   0  0  0  0  0  2  0  0  0  0  0  0
  191.9040  177.1030  142.4510 C   0  0  0  0  0  2  0  0  0  0  0  0
  189.1750  177.6330  141.5140 C   0  0  0  0  0  2  0  0  0  0  0  0
  189.9800  177.2540  145.7290 C   0  0  0  0  0  0  0  0  0  0  0  0
  191.0270  177.1590  144.7970 C   0  0  0  0  0  3  0  0  0  0  0  0
  190.7720  177.2720  143.4280 C   0  0  0  0  0  0  0  0  0  0  0  0
  188.4070  177.5630  143.9000 C   0  0  0  0  0  3  0  0  0  0  0  0
  189.4500  177.4560  142.9770 C   0  0  0  0  0  0  0  0  0  0  0  0
  188.6710  177.4580  145.2690 C   0  0  0  0  0  3  0  0  0  0  0  0
  190.1930  176.9520  140.7090 N   0  0  0  0  0  0  0  0  0  0  0  0
  191.4920  177.5320  141.0420 C   0  0  0  0  0  2  0  0  0  0  0  0
  190.2500  177.1330  147.1740 C   0  0  0  0  0  0  0  0  0  0  0  0
  189.3490  177.6970  148.1230 N   0  0  0  0  0  1  0  0  0  0  0  0
  191.3100  176.5220  147.5960 N   0  0  0  0  0  2  0  0  0  0  0  0
  1 20  1  0  0  0  0
  1 15  1  0  0  0  0
  2 10  1  0  0  0  0
  3 13  1  0  0  0  0
  4  6  1  6  0  0  0
  4  8  1  0  0  0  0
  5  9  2  0  0  0  0
  5  4  1  0  0  0  0
  7  8  1  0  0  0  0
  7  3  2  0  0  0  0
  8  1  2  0  0  0  0
  9  7  1  0  0  0  0
 10 11  1  0  0  0  0
 11 16  1  1  0  0  0
 12 11  1  0  0  0  0
 13 15  2  0  0  0  0
 13  2  1  0  0  0  0
 14 12  1  0  0  0  0
 15 14  1  0  0  0  0
 16 17  1  0  0  0  0
 16 18  1  0  0  0  0
 17 18  1  0  0  0  0
 19 21  1  0  0  0  0
 20 19  2  0  0  0  0
 21 30  1  0  0  0  0
 22 26  1  0  0  0  0
 23 28  1  0  0  0  0
 24 32  1  0  0  0  0
 25 24  2  0  0  0  0
 26 25  1  0  0  0  0
 27 29  2  0  0  0  0
 28 26  2  0  0  0  0
 28 27  1  0  0  0  0
 29 24  1  0  0  0  0
 30 31  1  0  0  0  0
 30 23  1  0  0  0  0
 31 22  1  0  0  0  0
 32 34  2  0  0  0  0
 32 33  1  0  0  0  0
M  END
>  <MODEL>
5

>  <REMARK>
 VINA RESULT:      -9.4      1.934      8.229
  Name = 
  5 active torsions:
  status: ('A' for Active; 'I' for Inactive)
    1  A    between atoms: C_1  and  N_9
    2  A    between atoms: C_3  and  C_25
    3  A    between atoms: C_7  and  C_11
    4  A    between atoms: C_8  and  C_18
    5  A    between atoms: C_18  and  N_30
                            x       y       z     vdW  Elec       q    Type
                         _______ _______ _______ _____ _____    ______ ____

>  <TORSDO>
F 5

$$$$
=
 OpenBabel10272415103D

 34 39  0  0  1  0  0  0  0  0999 V2000
  188.8690  177.6080  143.6010 C   0  0  0  0  0  0  0  0  0  0  0  0
  185.6710  177.4120  145.7040 C   0  0  0  0  0  2  0  0  0  0  0  0
  188.0840  177.2740  146.3020 C   0  0  0  0  0  3  0  0  0  0  0  0
  191.2990  177.3650  144.5710 C   0  0  1  0  0  3  0  0  0  0  0  0
  191.7690  177.3280  145.9660 N   0  0  0  0  0  0  0  0  0  0  0  0
  191.7160  176.1430  143.9000 N   0  0  0  0  0  1  0  0  0  0  0  0
  189.4240  177.2860  145.9320 C   0  0  0  0  0  0  0  0  0  0  0  0
  189.8160  177.4240  144.6350 C   0  0  0  0  0  0  0  0  0  0  0  0
  190.5880  177.1770  146.8260 C   0  0  0  0  0  3  0  0  0  0  0  0
  185.1160  178.6710  145.4430 O   0  0  0  0  0  0  0  0  0  0  0  0
  184.5090  178.5640  144.1840 C   0  0  2  0  0  3  0  0  0  0  0  0
  185.5210  178.8870  143.0850 C   0  0  0  0  0  2  0  0  0  0  0  0
  187.1120  177.4090  145.3040 C   0  0  0  0  0  0  0  0  0  0  0  0
  186.4610  177.7070  142.8630 C   0  0  0  0  0  2  0  0  0  0  0  0
  187.4970  177.5900  143.9490 C   0  0  0  0  0  0  0  0  0  0  0  0
  183.3470  179.5360  144.1000 C   0  0  0  0  0  3  0  0  0  0  0  0
  182.0460  178.7930  144.3290 C   0  0  0  0  0  2  0  0  0  0  0  0
  182.4670  179.1640  142.9240 C   0  0  0  0  0  2  0  0  0  0  0  0
  189.4530  176.9250  141.3430 C   0  0  0  0  0  3  0  0  0  0  0  0
  189.2290  177.8420  142.2290 N   0  0  0  0  0  0  0  0  0  0  0  0
  189.8480  177.3090  139.9580 C   0  0  0  0  0  2  0  0  0  0  0  0
  190.1790  174.6780  137.3640 C   0  0  0  0  0  2  0  0  0  0  0  0
  191.8170  176.5670  138.8990 C   0  0  0  0  0  2  0  0  0  0  0  0
  193.6990  173.5630  136.4510 C   0  0  0  0  0  0  0  0  0  0  0  0
  192.2990  173.6660  136.4930 C   0  0  0  0  0  3  0  0  0  0  0  0
  191.6810  174.6330  137.2920 C   0  0  0  0  0  0  0  0  0  0  0  0
  193.8620  175.4010  138.0350 C   0  0  0  0  0  3  0  0  0  0  0  0
  192.4690  175.4920  138.0820 C   0  0  0  0  0  0  0  0  0  0  0  0
  194.4740  174.4380  137.2270 C   0  0  0  0  0  3  0  0  0  0  0  0
  190.4570  176.1750  139.2790 N   0  0  0  0  0  0  0  0  0  0  0  0
  189.6930  175.9540  138.0530 C   0  0  0  0  0  2  0  0  0  0  0  0
  194.3510  172.5420  135.6090 C   0  0  0  0  0  0  0  0  0  0  0  0
  193.8880  171.1940  135.6270 N   0  0  0  0  0  1  0  0  0  0  0  0
  195.3520  172.8550  134.8530 N   0  0  0  0  0  2  0  0  0  0  0  0
  1 15  2  0  0  0  0
  1  8  1  0  0  0  0
  4  6  1  6  0  0  0
  4  8  1  0  0  0  0
  4  5  1  0  0  0  0
  5  9  2  0  0  0  0
  7  3  1  0  0  0  0
  7  9  1  0  0  0  0
  8  7  2  0  0  0  0
 10  2  1  0  0  0  0
 11 16  1  1  0  0  0
 11 10  1  0  0  0  0
 12 11  1  0  0  0  0
 13  2  1  0  0  0  0
 13  3  2  0  0  0  0
 14 12  1  0  0  0  0
 14 15  1  0  0  0  0
 15 13  1  0  0  0  0
 16 17  1  0  0  0  0
 18 16  1  0  0  0  0
 18 17  1  0  0  0  0
 19 20  2  0  0  0  0
 20  1  1  0  0  0  0
 21 19  1  0  0  0  0
 22 31  1  0  0  0  0
 23 30  1  0  0  0  0
 24 25  2  0  0  0  0
 24 29  1  0  0  0  0
 25 26  1  0  0  0  0
 26 22  1  0  0  0  0
 26 28  2  0  0  0  0
 27 28  1  0  0  0  0
 28 23  1  0  0  0  0
 29 27  2  0  0  0  0
 30 21  1  0  0  0  0
 31 30  1  0  0  0  0
 32 33  1  0  0  0  0
 32 24  1  0  0  0  0
 34 32  2  0  0  0  0
M  END
>  <MODEL>
6

>  <REMARK>
 VINA RESULT:      -9.1      3.191      4.216
  Name = 
  5 active torsions:
  status: ('A' for Active; 'I' for Inactive)
    1  A    between atoms: C_1  and  N_9
    2  A    between atoms: C_3  and  C_25
    3  A    between atoms: C_7  and  C_11
    4  A    between atoms: C_8  and  C_18
    5  A    between atoms: C_18  and  N_30
                            x       y       z     vdW  Elec       q    Type
                         _______ _______ _______ _____ _____    ______ ____

>  <TORSDO>
F 5

$$$$
=
 OpenBabel10272415103D

 34 39  0  0  1  0  0  0  0  0999 V2000
  190.7120  177.1260  138.7330 C   0  0  0  0  0  0  0  0  0  0  0  0
  187.7750  178.0980  136.4720 C   0  0  0  0  0  2  0  0  0  0  0  0
  189.8440  176.7750  136.0600 C   0  0  0  0  0  3  0  0  0  0  0  0
  192.7980  175.7380  137.9400 C   0  0  1  0  0  3  0  0  0  0  0  0
  193.0380  175.0130  136.6810 N   0  0  0  0  0  0  0  0  0  0  0  0
  193.8440  176.7330  138.1170 N   0  0  0  0  0  1  0  0  0  0  0  0
  191.0420  176.2320  136.5100 C   0  0  0  0  0  0  0  0  0  0  0  0
  191.4830  176.4100  137.7870 C   0  0  0  0  0  0  0  0  0  0  0  0
  191.9810  175.4020  135.7390 C   0  0  0  0  0  3  0  0  0  0  0  0
  186.7140  177.4890  137.1550 O   0  0  0  0  0  0  0  0  0  0  0  0
  186.4100  178.3440  138.2220 C   0  0  2  0  0  3  0  0  0  0  0  0
  187.2680  177.9940  139.4370 C   0  0  0  0  0  2  0  0  0  0  0  0
  189.0710  177.5270  136.9520 C   0  0  0  0  0  0  0  0  0  0  0  0
  188.6850  178.5280  139.2590 C   0  0  0  0  0  2  0  0  0  0  0  0
  189.4930  177.6970  138.2980 C   0  0  0  0  0  0  0  0  0  0  0  0
  184.9430  178.1970  138.5830 C   0  0  0  0  0  3  0  0  0  0  0  0
  184.3140  179.5700  138.7190 C   0  0  0  0  0  2  0  0  0  0  0  0
  184.7030  178.7910  139.9570 C   0  0  0  0  0  2  0  0  0  0  0  0
  190.9330  176.3760  141.0330 C   0  0  0  0  0  3  0  0  0  0  0  0
  191.0890  177.2720  140.1130 N   0  0  0  0  0  0  0  0  0  0  0  0
  191.3450  176.6700  142.4360 C   0  0  0  0  0  2  0  0  0  0  0  0
  189.4440  177.3890  145.5380 C   0  0  0  0  0  2  0  0  0  0  0  0
  189.1690  177.5520  142.6220 C   0  0  0  0  0  2  0  0  0  0  0  0
  185.7690  178.2940  145.1610 C   0  0  0  0  0  0  0  0  0  0  0  0
  187.0230  178.0070  145.7240 C   0  0  0  0  0  3  0  0  0  0  0  0
  188.1290  177.7560  144.9070 C   0  0  0  0  0  0  0  0  0  0  0  0
  186.7350  178.0630  142.9410 C   0  0  0  0  0  3  0  0  0  0  0  0
  187.9770  177.7660  143.5060 C   0  0  0  0  0  0  0  0  0  0  0  0
  185.6350  178.3210  143.7650 C   0  0  0  0  0  3  0  0  0  0  0  0
  190.1750  176.7300  143.2990 N   0  0  0  0  0  0  0  0  0  0  0  0
  190.5820  177.4270  144.5170 C   0  0  0  0  0  2  0  0  0  0  0  0
  184.6020  178.5570  146.0250 C   0  0  0  0  0  0  0  0  0  0  0  0
  184.7270  178.4840  147.4430 N   0  0  0  0  0  1  0  0  0  0  0  0
  183.4530  178.8470  145.5070 N   0  0  0  0  0  2  0  0  0  0  0  0
  1 20  1  0  0  0  0
  2 13  1  0  0  0  0
  2 10  1  0  0  0  0
  3  7  2  0  0  0  0
  3 13  1  0  0  0  0
  4  6  1  6  0  0  0
  5  4  1  0  0  0  0
  7  8  1  0  0  0  0
  8  4  1  0  0  0  0
  8  1  2  0  0  0  0
  9  7  1  0  0  0  0
  9  5  2  0  0  0  0
 10 11  1  0  0  0  0
 11 16  1  1  0  0  0
 11 12  1  0  0  0  0
 13 15  2  0  0  0  0
 14 12  1  0  0  0  0
 15  1  1  0  0  0  0
 15 14  1  0  0  0  0
 16 17  1  0  0  0  0
 16 18  1  0  0  0  0
 17 18  1  0  0  0  0
 19 21  1  0  0  0  0
 20 19  2  0  0  0  0
 21 30  1  0  0  0  0
 23 30  1  0  0  0  0
 23 28  1  0  0  0  0
 24 25  1  0  0  0  0
 24 32  1  0  0  0  0
 26 22  1  0  0  0  0
 26 25  2  0  0  0  0
 27 28  2  0  0  0  0
 27 29  1  0  0  0  0
 28 26  1  0  0  0  0
 29 24  2  0  0  0  0
 30 31  1  0  0  0  0
 31 22  1  0  0  0  0
 32 33  1  0  0  0  0
 34 32  2  0  0  0  0
M  END
>  <MODEL>
7

>  <REMARK>
 VINA RESULT:      -9.1      2.963      7.915
  Name = 
  5 active torsions:
  status: ('A' for Active; 'I' for Inactive)
    1  A    between atoms: C_1  and  N_9
    2  A    between atoms: C_3  and  C_25
    3  A    between atoms: C_7  and  C_11
    4  A    between atoms: C_8  and  C_18
    5  A    between atoms: C_18  and  N_30
                            x       y       z     vdW  Elec       q    Type
                         _______ _______ _______ _____ _____    ______ ____

>  <TORSDO>
F 5

$$$$
=
 OpenBabel10272415103D

 34 39  0  0  1  0  0  0  0  0999 V2000
  188.8130  177.2360  143.6070 C   0  0  0  0  0  0  0  0  0  0  0  0
  185.8020  177.5520  145.9560 C   0  0  0  0  0  2  0  0  0  0  0  0
  188.2510  177.3910  146.3780 C   0  0  0  0  0  3  0  0  0  0  0  0
  191.3070  177.0330  144.4110 C   0  0  1  0  0  3  0  0  0  0  0  0
  191.8930  177.2020  145.7510 N   0  0  0  0  0  0  0  0  0  0  0  0
  191.6190  175.6990  143.9240 N   0  0  0  0  0  1  0  0  0  0  0  0
  189.5540  177.2750  145.9080 C   0  0  0  0  0  0  0  0  0  0  0  0
  189.8380  177.1770  144.5790 C   0  0  0  0  0  0  0  0  0  0  0  0
  190.7850  177.2550  146.7140 C   0  0  0  0  0  3  0  0  0  0  0  0
  185.2740  178.7770  145.5310 O   0  0  0  0  0  0  0  0  0  0  0  0
  184.5580  178.4950  144.3600 C   0  0  2  0  0  3  0  0  0  0  0  0
  185.4830  178.5810  143.1460 C   0  0  0  0  0  2  0  0  0  0  0  0
  187.2030  177.4090  145.4510 C   0  0  0  0  0  0  0  0  0  0  0  0
  186.3560  177.3350  143.0530 C   0  0  0  0  0  2  0  0  0  0  0  0
  187.4760  177.3460  144.0590 C   0  0  0  0  0  0  0  0  0  0  0  0
  183.4300  179.4980  144.2040 C   0  0  0  0  0  3  0  0  0  0  0  0
  182.1030  178.8130  144.4650 C   0  0  0  0  0  2  0  0  0  0  0  0
  182.5470  179.0840  143.0440 C   0  0  0  0  0  2  0  0  0  0  0  0
  188.8810  178.2200  141.3860 C   0  0  0  0  0  3  0  0  0  0  0  0
  189.0630  177.2230  142.1910 N   0  0  0  0  0  0  0  0  0  0  0  0
  189.1560  178.0610  139.9290 C   0  0  0  0  0  2  0  0  0  0  0  0
  186.5140  177.2970  137.4400 C   0  0  0  0  0  2  0  0  0  0  0  0
  186.8400  178.4520  140.1170 C   0  0  0  0  0  2  0  0  0  0  0  0
  183.0330  178.6710  138.1150 C   0  0  0  0  0  0  0  0  0  0  0  0
  184.1150  178.0160  137.5050 C   0  0  0  0  0  3  0  0  0  0  0  0
  185.3570  177.9490  138.1450 C   0  0  0  0  0  0  0  0  0  0  0  0
  184.4520  179.2080  140.0150 C   0  0  0  0  0  3  0  0  0  0  0  0
  185.5280  178.5660  139.4000 C   0  0  0  0  0  0  0  0  0  0  0  0
  183.2100  179.2640  139.3730 C   0  0  0  0  0  3  0  0  0  0  0  0
  187.9400  178.2890  139.1630 N   0  0  0  0  0  0  0  0  0  0  0  0
  187.6910  177.0730  138.3920 C   0  0  0  0  0  2  0  0  0  0  0  0
  181.7230  178.7430  137.4380 C   0  0  0  0  0  0  0  0  0  0  0  0
  181.0800  180.0000  137.2490 N   0  0  0  0  0  1  0  0  0  0  0  0
  181.1410  177.6670  137.0170 N   0  0  0  0  0  2  0  0  0  0  0  0
  1 15  2  0  0  0  0
  1  8  1  0  0  0  0
  4  6  1  1  0  0  0
  4  8  1  0  0  0  0
  4  5  1  0  0  0  0
  5  9  2  0  0  0  0
  7  3  1  0  0  0  0
  7  9  1  0  0  0  0
  8  7  2  0  0  0  0
 10  2  1  0  0  0  0
 11 16  1  6  0  0  0
 11 10  1  0  0  0  0
 12 11  1  0  0  0  0
 13  2  1  0  0  0  0
 13  3  2  0  0  0  0
 14 12  1  0  0  0  0
 14 15  1  0  0  0  0
 15 13  1  0  0  0  0
 16 17  1  0  0  0  0
 18 16  1  0  0  0  0
 18 17  1  0  0  0  0
 19 20  2  0  0  0  0
 20  1  1  0  0  0  0
 21 19  1  0  0  0  0
 22 26  1  0  0  0  0
 22 31  1  0  0  0  0
 24 29  1  0  0  0  0
 25 24  2  0  0  0  0
 25 26  1  0  0  0  0
 26 28  2  0  0  0  0
 28 27  1  0  0  0  0
 28 23  1  0  0  0  0
 29 27  2  0  0  0  0
 30 21  1  0  0  0  0
 30 23  1  0  0  0  0
 31 30  1  0  0  0  0
 32 24  1  0  0  0  0
 33 32  1  0  0  0  0
 34 32  2  0  0  0  0
M  END
>  <MODEL>
8

>  <REMARK>
 VINA RESULT:      -9.1      2.227      3.191
  Name = 
  5 active torsions:
  status: ('A' for Active; 'I' for Inactive)
    1  A    between atoms: C_1  and  N_9
    2  A    between atoms: C_3  and  C_25
    3  A    between atoms: C_7  and  C_11
    4  A    between atoms: C_8  and  C_18
    5  A    between atoms: C_18  and  N_30
                            x       y       z     vdW  Elec       q    Type
                         _______ _______ _______ _____ _____    ______ ____

>  <TORSDO>
F 5

$$$$
=
 OpenBabel10272415103D

 34 39  0  0  1  0  0  0  0  0999 V2000
  183.7820  178.9850  140.9820 C   0  0  0  0  0  0  0  0  0  0  0  0
  186.0900  177.5020  138.3070 C   0  0  0  0  0  2  0  0  0  0  0  0
  183.7560  178.3640  138.2190 C   0  0  0  0  0  3  0  0  0  0  0  0
  181.3090  179.7590  140.5440 C   0  0  1  0  0  3  0  0  0  0  0  0
  180.5710  179.9200  139.2800 N   0  0  0  0  0  0  0  0  0  0  0  0
  180.5970  178.8140  141.3900 N   0  0  0  0  0  1  0  0  0  0  0  0
  182.6490  178.9220  138.8470 C   0  0  0  0  0  0  0  0  0  0  0  0
  182.6390  179.2070  140.1800 C   0  0  0  0  0  0  0  0  0  0  0  0
  181.3730  179.3010  138.2180 C   0  0  0  0  0  3  0  0  0  0  0  0
  187.1450  178.4230  138.3400 O   0  0  0  0  0  0  0  0  0  0  0  0
  187.9180  178.0750  139.4560 C   0  0  2  0  0  3  0  0  0  0  0  0
  187.3870  178.7820  140.7020 C   0  0  0  0  0  2  0  0  0  0  0  0
  184.8940  178.0880  138.9860 C   0  0  0  0  0  0  0  0  0  0  0  0
  186.1270  178.0890  141.2110 C   0  0  0  0  0  2  0  0  0  0  0  0
  184.9200  178.4080  140.3690 C   0  0  0  0  0  0  0  0  0  0  0  0
  189.3590  178.4870  139.2200 C   0  0  0  0  0  3  0  0  0  0  0  0
  190.1330  177.3160  138.6470 C   0  0  0  0  0  2  0  0  0  0  0  0
  190.2670  177.6670  140.1130 C   0  0  0  0  0  2  0  0  0  0  0  0
  183.7550  178.5230  143.3670 C   0  0  0  0  0  3  0  0  0  0  0  0
  183.8550  179.3440  142.3730 N   0  0  0  0  0  0  0  0  0  0  0  0
  183.8220  179.0350  144.7660 C   0  0  0  0  0  2  0  0  0  0  0  0
  186.4750  178.4430  147.2890 C   0  0  0  0  0  2  0  0  0  0  0  0
  185.8830  177.9360  144.4610 C   0  0  0  0  0  2  0  0  0  0  0  0
  189.8020  177.0900  146.0370 C   0  0  0  0  0  0  0  0  0  0  0  0
  188.7900  177.5770  146.8800 C   0  0  0  0  0  3  0  0  0  0  0  0
  187.5190  177.8630  146.3740 C   0  0  0  0  0  0  0  0  0  0  0  0
  188.2580  177.1890  144.1610 C   0  0  0  0  0  3  0  0  0  0  0  0
  187.2590  177.6850  145.0010 C   0  0  0  0  0  0  0  0  0  0  0  0
  189.5250  176.8970  144.6750 C   0  0  0  0  0  3  0  0  0  0  0  0
  185.1820  178.9360  145.2710 N   0  0  0  0  0  0  0  0  0  0  0  0
  185.0910  178.4250  146.6380 C   0  0  0  0  0  2  0  0  0  0  0  0
  191.1440  176.7910  146.5710 C   0  0  0  0  0  0  0  0  0  0  0  0
  191.5350  177.2850  147.8500 N   0  0  0  0  0  1  0  0  0  0  0  0
  191.9830  176.0860  145.8840 N   0  0  0  0  0  2  0  0  0  0  0  0
  1 20  1  0  0  0  0
  2 10  1  0  0  0  0
  2 13  1  0  0  0  0
  3  7  2  0  0  0  0
  3 13  1  0  0  0  0
  4  6  1  1  0  0  0
  5  4  1  0  0  0  0
  7  8  1  0  0  0  0
  8  4  1  0  0  0  0
  8  1  2  0  0  0  0
  9  7  1  0  0  0  0
  9  5  2  0  0  0  0
 10 11  1  0  0  0  0
 11 16  1  6  0  0  0
 11 12  1  0  0  0  0
 12 14  1  0  0  0  0
 13 15  2  0  0  0  0
 15  1  1  0  0  0  0
 15 14  1  0  0  0  0
 16 18  1  0  0  0  0
 17 16  1  0  0  0  0
 17 18  1  0  0  0  0
 19 21  1  0  0  0  0
 20 19  2  0  0  0  0
 21 30  1  0  0  0  0
 23 28  1  0  0  0  0
 23 30  1  0  0  0  0
 24 32  1  0  0  0  0
 24 25  1  0  0  0  0
 26 25  2  0  0  0  0
 26 22  1  0  0  0  0
 27 29  1  0  0  0  0
 27 28  2  0  0  0  0
 28 26  1  0  0  0  0
 29 24  2  0  0  0  0
 30 31  1  0  0  0  0
 31 22  1  0  0  0  0
 32 33  1  0  0  0  0
 34 32  2  0  0  0  0
M  END
>  <MODEL>
9

>  <REMARK>
 VINA RESULT:      -8.7      3.176      9.149
  Name = 
  5 active torsions:
  status: ('A' for Active; 'I' for Inactive)
    1  A    between atoms: C_1  and  N_9
    2  A    between atoms: C_3  and  C_25
    3  A    between atoms: C_7  and  C_11
    4  A    between atoms: C_8  and  C_18
    5  A    between atoms: C_18  and  N_30
                            x       y       z     vdW  Elec       q    Type
                         _______ _______ _______ _____ _____    ______ ____

>  <TORSDO>
F 5

$$$$
