=
 OpenBabel10272401023D

 27 30  0  0  0  0  0  0  0  0999 V2000
  187.8320  178.7790  141.6060 C   0  0  0  0  0  2  0  0  0  0  0  0
  189.5620  177.3400  142.7730 C   0  0  0  0  0  0  0  0  0  0  0  0
  187.7620  178.0150  144.2830 O   0  0  0  0  0  0  0  0  0  0  0  0
  191.9660  176.2480  146.0340 C   0  0  0  0  0  3  0  0  0  0  0  0
  192.3220  176.0960  148.3850 F   0  0  0  0  0  0  0  0  0  0  0  0
  190.8420  176.7820  142.6180 C   0  0  0  0  0  3  0  0  0  0  0  0
  189.4420  177.3490  146.5140 C   0  0  0  0  0  3  0  0  0  0  0  0
  185.1220  179.1930  144.5940 C   0  0  0  0  0  2  0  0  0  0  0  0
  190.2670  176.9950  147.5850 C   0  0  0  0  0  3  0  0  0  0  0  0
  184.3500  178.2650  143.6680 C   0  0  0  0  0  2  0  0  0  0  0  0
  189.0520  177.5020  144.0880 C   0  0  0  0  0  0  0  0  0  0  0  0
  188.8070  177.6890  141.5900 N   0  0  0  0  0  0  0  0  0  0  0  0
  191.5250  176.4400  147.3460 C   0  0  0  0  0  0  0  0  0  0  0  0
  191.1470  176.6020  144.9590 C   0  0  0  0  0  0  0  0  0  0  0  0
  186.4180  178.2350  141.5180 C   0  0  0  0  0  2  0  0  0  0  0  0
  189.8640  177.1470  145.1900 C   0  0  0  0  0  0  0  0  0  0  0  0
  185.8200  178.4120  145.6990 C   0  0  0  0  0  2  0  0  0  0  0  0
  191.5930  176.4300  143.6910 N   0  0  0  0  0  0  0  0  0  0  0  0
  184.1290  178.9130  142.3020 C   0  0  0  0  0  2  0  0  0  0  0  0
  185.4360  179.3830  141.6680 C   0  0  0  0  0  2  0  0  0  0  0  0
  186.8210  177.3970  145.1560 C   0  0  0  0  0  2  0  0  0  0  0  0
  190.1040  177.5170  137.6330 O   0  0  0  0  0  0  0  0  0  0  0  0
  189.1810  177.0900  140.3030 C   0  0  0  0  0  3  0  0  0  0  0  0
  190.6510  177.3540  139.9690 C   0  0  0  0  0  2  0  0  0  0  0  0
  190.9360  176.8530  138.5530 C   0  0  0  0  0  2  0  0  0  0  0  0
  188.8000  177.0310  137.8440 C   0  0  0  0  0  2  0  0  0  0  0  0
  188.2580  177.5530  139.1740 C   0  0  0  0  0  2  0  0  0  0  0  0
  2 11  1  0  0  0  0
  3 21  1  0  0  0  0
  4 13  2  0  0  0  0
  6  2  2  0  0  0  0
  6 18  1  0  0  0  0
  7  9  2  0  0  0  0
  8 17  1  0  0  0  0
 10  8  1  0  0  0  0
 11  3  1  0  0  0  0
 11 16  2  0  0  0  0
 12  1  1  0  0  0  0
 12  2  1  0  0  0  0
 13  9  1  0  0  0  0
 13  5  1  0  0  0  0
 14 16  1  0  0  0  0
 14  4  1  0  0  0  0
 15  1  1  0  0  0  0
 15 20  1  0  0  0  0
 16  7  1  0  0  0  0
 18 14  2  0  0  0  0
 19 10  1  0  0  0  0
 20 19  1  0  0  0  0
 21 17  1  0  0  0  0
 22 26  1  0  0  0  0
 22 25  1  0  0  0  0
 23 12  1  0  0  0  0
 24 23  1  0  0  0  0
 25 24  1  0  0  0  0
 26 27  1  0  0  0  0
 27 23  1  0  0  0  0
M  END
>  <MODEL>
1

>  <REMARK>
 VINA RESULT:     -10.7      0.000      0.000
  Name = 
  1 active torsions:
  status: ('A' for Active; 'I' for Inactive)
    1  A    between atoms: C_9  and  N_15
                            x       y       z     vdW  Elec       q    Type
                         _______ _______ _______ _____ _____    ______ ____

>  <TORSDO>
F 1

$$$$
=
 OpenBabel10272401023D

 27 30  0  0  0  0  0  0  0  0999 V2000
  190.1380  176.0530  143.4380 C   0  0  0  0  0  2  0  0  0  0  0  0
  188.2670  177.5960  142.6970 C   0  0  0  0  0  0  0  0  0  0  0  0
  188.2550  177.2350  145.1150 O   0  0  0  0  0  0  0  0  0  0  0  0
  184.3550  179.1050  142.8440 C   0  0  0  0  0  3  0  0  0  0  0  0
  182.3770  179.6150  144.0720 F   0  0  0  0  0  0  0  0  0  0  0  0
  187.5960  178.0750  141.5600 C   0  0  0  0  0  3  0  0  0  0  0  0
  185.5480  178.1870  145.2000 C   0  0  0  0  0  3  0  0  0  0  0  0
  189.6430  176.2190  147.4590 C   0  0  0  0  0  2  0  0  0  0  0  0
  184.2390  178.6760  145.2230 C   0  0  0  0  0  3  0  0  0  0  0  0
  190.9330  177.0150  147.3210 C   0  0  0  0  0  2  0  0  0  0  0  0
  187.6040  177.6630  143.9500 C   0  0  0  0  0  0  0  0  0  0  0  0
  189.6150  177.0900  142.5490 N   0  0  0  0  0  0  0  0  0  0  0  0
  183.6450  179.1390  144.0480 C   0  0  0  0  0  0  0  0  0  0  0  0
  185.6630  178.6140  142.8150 C   0  0  0  0  0  0  0  0  0  0  0  0
  191.1850  176.6270  144.3750 C   0  0  0  0  0  2  0  0  0  0  0  0
  186.2800  178.1590  144.0020 C   0  0  0  0  0  0  0  0  0  0  0  0
  188.4340  177.1400  147.5430 C   0  0  0  0  0  2  0  0  0  0  0  0
  186.3350  178.5660  141.6400 N   0  0  0  0  0  0  0  0  0  0  0  0
  192.0370  176.1660  146.6930 C   0  0  0  0  0  2  0  0  0  0  0  0
  191.6070  175.5550  145.3620 C   0  0  0  0  0  2  0  0  0  0  0  0
  188.2800  178.0190  146.3050 C   0  0  0  0  0  2  0  0  0  0  0  0
  192.2970  176.6650  139.3890 O   0  0  0  0  0  0  0  0  0  0  0  0
  190.3890  177.4630  141.3590 C   0  0  0  0  0  3  0  0  0  0  0  0
  190.0190  176.5920  140.1560 C   0  0  0  0  0  2  0  0  0  0  0  0
  190.9680  176.9130  139.0020 C   0  0  0  0  0  2  0  0  0  0  0  0
  192.6410  177.6630  140.3190 C   0  0  0  0  0  2  0  0  0  0  0  0
  191.8950  177.4330  141.6320 C   0  0  0  0  0  2  0  0  0  0  0  0
  1 15  1  0  0  0  0
  2 11  1  0  0  0  0
  3 21  1  0  0  0  0
  4 13  2  0  0  0  0
  6 18  1  0  0  0  0
  6  2  2  0  0  0  0
  7  9  2  0  0  0  0
  8 17  1  0  0  0  0
 10  8  1  0  0  0  0
 11 16  2  0  0  0  0
 11  3  1  0  0  0  0
 12  2  1  0  0  0  0
 12  1  1  0  0  0  0
 13  5  1  0  0  0  0
 13  9  1  0  0  0  0
 14  4  1  0  0  0  0
 14 16  1  0  0  0  0
 15 20  1  0  0  0  0
 16  7  1  0  0  0  0
 18 14  2  0  0  0  0
 19 10  1  0  0  0  0
 20 19  1  0  0  0  0
 21 17  1  0  0  0  0
 22 26  1  0  0  0  0
 23 27  1  0  0  0  0
 23 12  1  0  0  0  0
 24 23  1  0  0  0  0
 25 22  1  0  0  0  0
 25 24  1  0  0  0  0
 26 27  1  0  0  0  0
M  END
>  <MODEL>
2

>  <REMARK>
 VINA RESULT:     -10.4      2.601      5.543
  Name = 
  1 active torsions:
  status: ('A' for Active; 'I' for Inactive)
    1  A    between atoms: C_9  and  N_15
                            x       y       z     vdW  Elec       q    Type
                         _______ _______ _______ _____ _____    ______ ____

>  <TORSDO>
F 1

$$$$
=
 OpenBabel10272401023D

 27 30  0  0  0  0  0  0  0  0999 V2000
  187.5390  176.8960  144.7010 C   0  0  0  0  0  2  0  0  0  0  0  0
  189.2070  177.3420  142.8440 C   0  0  0  0  0  0  0  0  0  0  0  0
  186.9380  177.9990  142.2160 O   0  0  0  0  0  0  0  0  0  0  0  0
  190.4200  177.4770  138.8290 C   0  0  0  0  0  3  0  0  0  0  0  0
  189.9120  177.7920  136.5220 F   0  0  0  0  0  0  0  0  0  0  0  0
  190.5290  177.0870  142.4420 C   0  0  0  0  0  3  0  0  0  0  0  0
  187.7480  178.0070  139.4620 C   0  0  0  0  0  3  0  0  0  0  0  0
  184.1990  178.4990  143.0540 C   0  0  0  0  0  2  0  0  0  0  0  0
  188.1700  178.0270  138.1300 C   0  0  0  0  0  3  0  0  0  0  0  0
  184.4790  179.5320  144.1360 C   0  0  0  0  0  2  0  0  0  0  0  0
  188.2570  177.6960  141.8510 C   0  0  0  0  0  0  0  0  0  0  0  0
  188.8810  177.2680  144.2520 N   0  0  0  0  0  0  0  0  0  0  0  0
  189.5050  177.7690  137.8140 C   0  0  0  0  0  0  0  0  0  0  0  0
  190.0030  177.4520  140.1630 C   0  0  0  0  0  0  0  0  0  0  0  0
  186.8210  178.0940  145.2950 C   0  0  0  0  0  2  0  0  0  0  0  0
  188.6580  177.7300  140.4950 C   0  0  0  0  0  0  0  0  0  0  0  0
  184.7530  178.9480  141.7090 C   0  0  0  0  0  2  0  0  0  0  0  0
  190.8940  177.1480  141.1380 N   0  0  0  0  0  0  0  0  0  0  0  0
  184.4510  178.8950  145.5240 C   0  0  0  0  0  2  0  0  0  0  0  0
  185.3950  177.6990  145.6290 C   0  0  0  0  0  2  0  0  0  0  0  0
  186.2640  179.1590  141.7380 C   0  0  0  0  0  2  0  0  0  0  0  0
  191.2950  176.1330  147.4520 O   0  0  0  0  0  0  0  0  0  0  0  0
  189.9630  177.3530  145.2400 C   0  0  0  0  0  3  0  0  0  0  0  0
  190.9650  176.2080  145.0720 C   0  0  0  0  0  2  0  0  0  0  0  0
  191.9680  176.2540  146.2230 C   0  0  0  0  0  2  0  0  0  0  0  0
  190.5900  177.3350  147.6480 C   0  0  0  0  0  2  0  0  0  0  0  0
  189.4200  177.4190  146.6690 C   0  0  0  0  0  2  0  0  0  0  0  0
  1 15  1  0  0  0  0
  2 12  1  0  0  0  0
  4 14  1  0  0  0  0
  5 13  1  0  0  0  0
  6  2  1  0  0  0  0
  7 16  1  0  0  0  0
  8 10  1  0  0  0  0
  9  7  2  0  0  0  0
 10 19  1  0  0  0  0
 11  3  1  0  0  0  0
 11  2  2  0  0  0  0
 12  1  1  0  0  0  0
 12 23  1  0  0  0  0
 13  9  1  0  0  0  0
 13  4  2  0  0  0  0
 14 16  2  0  0  0  0
 14 18  1  0  0  0  0
 15 20  1  0  0  0  0
 16 11  1  0  0  0  0
 17 21  1  0  0  0  0
 17  8  1  0  0  0  0
 18  6  2  0  0  0  0
 19 20  1  0  0  0  0
 21  3  1  0  0  0  0
 22 26  1  0  0  0  0
 23 27  1  0  0  0  0
 24 23  1  0  0  0  0
 24 25  1  0  0  0  0
 25 22  1  0  0  0  0
 27 26  1  0  0  0  0
M  END
>  <MODEL>
3

>  <REMARK>
 VINA RESULT:     -10.3      2.800      6.051
  Name = 
  1 active torsions:
  status: ('A' for Active; 'I' for Inactive)
    1  A    between atoms: C_9  and  N_15
                            x       y       z     vdW  Elec       q    Type
                         _______ _______ _______ _____ _____    ______ ____

>  <TORSDO>
F 1

$$$$
=
 OpenBabel10272401023D

 27 30  0  0  0  0  0  0  0  0999 V2000
  187.8120  177.1460  144.0800 C   0  0  0  0  0  2  0  0  0  0  0  0
  187.1080  178.1880  141.8780 C   0  0  0  0  0  0  0  0  0  0  0  0
  185.3510  178.3440  143.5710 O   0  0  0  0  0  0  0  0  0  0  0  0
  184.3440  179.0650  138.8460 C   0  0  0  0  0  3  0  0  0  0  0  0
  182.1090  179.5060  138.1450 F   0  0  0  0  0  0  0  0  0  0  0  0
  187.4760  178.3080  140.5280 C   0  0  0  0  0  3  0  0  0  0  0  0
  183.4470  178.8580  141.4860 C   0  0  0  0  0  3  0  0  0  0  0  0
  184.5930  178.0700  146.3650 C   0  0  0  0  0  2  0  0  0  0  0  0
  182.5400  179.1310  140.4570 C   0  0  0  0  0  3  0  0  0  0  0  0
  185.6240  179.0110  146.9720 C   0  0  0  0  0  2  0  0  0  0  0  0
  185.7510  178.4120  142.2290 C   0  0  0  0  0  0  0  0  0  0  0  0
  188.1300  177.8790  142.8540 N   0  0  0  0  0  0  0  0  0  0  0  0
  182.9890  179.2390  139.1400 C   0  0  0  0  0  0  0  0  0  0  0  0
  185.2540  178.7890  139.8700 C   0  0  0  0  0  0  0  0  0  0  0  0
  187.8950  178.0590  145.2880 C   0  0  0  0  0  2  0  0  0  0  0  0
  184.8130  178.6950  141.2090 C   0  0  0  0  0  0  0  0  0  0  0  0
  183.7320  178.7880  145.3360 C   0  0  0  0  0  2  0  0  0  0  0  0
  186.5620  178.6010  139.5710 N   0  0  0  0  0  0  0  0  0  0  0  0
  186.8060  178.2330  147.5460 C   0  0  0  0  0  2  0  0  0  0  0  0
  187.4350  177.2970  146.5170 C   0  0  0  0  0  2  0  0  0  0  0  0
  184.5500  179.3530  144.1780 C   0  0  0  0  0  2  0  0  0  0  0  0
  192.2430  177.2240  142.7390 O   0  0  0  0  0  0  0  0  0  0  0  0
  189.5380  178.1110  142.5100 C   0  0  0  0  0  3  0  0  0  0  0  0
  190.1050  176.9620  141.6710 C   0  0  0  0  0  2  0  0  0  0  0  0
  191.6060  177.1780  141.4860 C   0  0  0  0  0  2  0  0  0  0  0  0
  191.8600  178.4350  143.3440 C   0  0  0  0  0  2  0  0  0  0  0  0
  190.3900  178.3710  143.7540 C   0  0  0  0  0  2  0  0  0  0  0  0
  1 15  1  0  0  0  0
  2 11  1  0  0  0  0
  2 12  1  0  0  0  0
  3 21  1  0  0  0  0
  4 13  2  0  0  0  0
  4 14  1  0  0  0  0
  5 13  1  0  0  0  0
  6  2  2  0  0  0  0
  8 10  1  0  0  0  0
  9  7  2  0  0  0  0
 10 19  1  0  0  0  0
 11  3  1  0  0  0  0
 12  1  1  0  0  0  0
 13  9  1  0  0  0  0
 14 16  1  0  0  0  0
 15 20  1  0  0  0  0
 16  7  1  0  0  0  0
 16 11  2  0  0  0  0
 17  8  1  0  0  0  0
 18 14  2  0  0  0  0
 18  6  1  0  0  0  0
 20 19  1  0  0  0  0
 21 17  1  0  0  0  0
 22 26  1  0  0  0  0
 23 12  1  0  0  0  0
 23 27  1  0  0  0  0
 24 23  1  0  0  0  0
 25 24  1  0  0  0  0
 25 22  1  0  0  0  0
 26 27  1  0  0  0  0
M  END
>  <MODEL>
4

>  <REMARK>
 VINA RESULT:     -10.2      3.697      6.418
  Name = 
  1 active torsions:
  status: ('A' for Active; 'I' for Inactive)
    1  A    between atoms: C_9  and  N_15
                            x       y       z     vdW  Elec       q    Type
                         _______ _______ _______ _____ _____    ______ ____

>  <TORSDO>
F 1

$$$$
=
 OpenBabel10272401023D

 27 30  0  0  0  0  0  0  0  0999 V2000
  185.2690  179.4180  142.4150 C   0  0  0  0  0  2  0  0  0  0  0  0
  186.9300  178.3860  140.8000 C   0  0  0  0  0  0  0  0  0  0  0  0
  187.6610  178.1810  143.1240 O   0  0  0  0  0  0  0  0  0  0  0  0
  190.7980  177.4900  139.4440 C   0  0  0  0  0  3  0  0  0  0  0  0
  193.0910  177.0160  139.8890 F   0  0  0  0  0  0  0  0  0  0  0  0
  187.2510  178.2860  139.4370 C   0  0  0  0  0  3  0  0  0  0  0  0
  190.3250  177.6540  142.1950 C   0  0  0  0  0  3  0  0  0  0  0  0
  186.9930  178.4130  145.9440 C   0  0  0  0  0  2  0  0  0  0  0  0
  191.6100  177.3760  141.7200 C   0  0  0  0  0  3  0  0  0  0  0  0
  185.7870  177.4850  145.9680 C   0  0  0  0  0  2  0  0  0  0  0  0
  187.9510  178.1340  141.7540 C   0  0  0  0  0  0  0  0  0  0  0  0
  185.5690  178.7020  141.1740 N   0  0  0  0  0  0  0  0  0  0  0  0
  191.8450  177.2880  140.3470 C   0  0  0  0  0  0  0  0  0  0  0  0
  189.5120  177.7720  139.9130 C   0  0  0  0  0  0  0  0  0  0  0  0
  184.6090  178.4940  143.4210 C   0  0  0  0  0  2  0  0  0  0  0  0
  189.2590  177.8440  141.3010 C   0  0  0  0  0  0  0  0  0  0  0  0
  188.2330  177.6900  145.4410 C   0  0  0  0  0  2  0  0  0  0  0  0
  188.5080  177.9860  139.0280 N   0  0  0  0  0  0  0  0  0  0  0  0
  184.4830  178.2780  145.9210 C   0  0  0  0  0  2  0  0  0  0  0  0
  184.4330  179.2360  144.7320 C   0  0  0  0  0  2  0  0  0  0  0  0
  188.0630  177.1520  144.0230 C   0  0  0  0  0  2  0  0  0  0  0  0
  181.7590  178.9430  139.5040 O   0  0  0  0  0  0  0  0  0  0  0  0
  184.4950  178.5000  140.1940 C   0  0  0  0  0  3  0  0  0  0  0  0
  183.9890  179.8320  139.6350 C   0  0  0  0  0  2  0  0  0  0  0  0
  182.7700  179.5680  138.7520 C   0  0  0  0  0  2  0  0  0  0  0  0
  182.2010  177.6340  139.7670 C   0  0  0  0  0  2  0  0  0  0  0  0
  183.3510  177.6640  140.7730 C   0  0  0  0  0  2  0  0  0  0  0  0
  1 15  1  0  0  0  0
  2 12  1  0  0  0  0
  2 11  1  0  0  0  0
  3 21  1  0  0  0  0
  4 14  1  0  0  0  0
  4 13  2  0  0  0  0
  5 13  1  0  0  0  0
  6  2  2  0  0  0  0
  8 10  1  0  0  0  0
  9  7  2  0  0  0  0
 11  3  1  0  0  0  0
 12  1  1  0  0  0  0
 13  9  1  0  0  0  0
 14 16  1  0  0  0  0
 15 20  1  0  0  0  0
 16 11  2  0  0  0  0
 16  7  1  0  0  0  0
 17  8  1  0  0  0  0
 18  6  1  0  0  0  0
 18 14  2  0  0  0  0
 19 10  1  0  0  0  0
 20 19  1  0  0  0  0
 21 17  1  0  0  0  0
 22 26  1  0  0  0  0
 23 27  1  0  0  0  0
 23 12  1  0  0  0  0
 24 23  1  0  0  0  0
 25 22  1  0  0  0  0
 25 24  1  0  0  0  0
 26 27  1  0  0  0  0
M  END
>  <MODEL>
5

>  <REMARK>
 VINA RESULT:      -9.8      2.906      5.171
  Name = 
  1 active torsions:
  status: ('A' for Active; 'I' for Inactive)
    1  A    between atoms: C_9  and  N_15
                            x       y       z     vdW  Elec       q    Type
                         _______ _______ _______ _____ _____    ______ ____

>  <TORSDO>
F 1

$$$$
=
 OpenBabel10272401023D

 27 30  0  0  0  0  0  0  0  0999 V2000
  185.0500  179.5430  143.1700 C   0  0  0  0  0  2  0  0  0  0  0  0
  185.8630  178.6530  140.9390 C   0  0  0  0  0  0  0  0  0  0  0  0
  187.4130  178.1320  142.7550 O   0  0  0  0  0  0  0  0  0  0  0  0
  188.8150  177.7780  138.0890 C   0  0  0  0  0  3  0  0  0  0  0  0
  191.0520  177.1600  137.5470 F   0  0  0  0  0  0  0  0  0  0  0  0
  185.6220  178.7110  139.5570 C   0  0  0  0  0  3  0  0  0  0  0  0
  189.4570  177.6170  140.8050 C   0  0  0  0  0  3  0  0  0  0  0  0
  187.9090  178.0380  145.6190 C   0  0  0  0  0  2  0  0  0  0  0  0
  190.4290  177.3480  139.8390 C   0  0  0  0  0  3  0  0  0  0  0  0
  186.7310  177.1640  146.0240 C   0  0  0  0  0  2  0  0  0  0  0  0
  187.1470  178.2440  141.3840 C   0  0  0  0  0  0  0  0  0  0  0  0
  184.7840  178.9760  141.8480 N   0  0  0  0  0  0  0  0  0  0  0  0
  190.1080  177.4230  138.4830 C   0  0  0  0  0  0  0  0  0  0  0  0
  187.8380  178.0510  139.0510 C   0  0  0  0  0  0  0  0  0  0  0  0
  184.7520  178.5280  144.2590 C   0  0  0  0  0  2  0  0  0  0  0  0
  188.1490  177.9600  140.4270 C   0  0  0  0  0  0  0  0  0  0  0  0
  188.7920  177.3340  144.5990 C   0  0  0  0  0  2  0  0  0  0  0  0
  186.5940  178.4130  138.6590 N   0  0  0  0  0  0  0  0  0  0  0  0
  185.5830  178.0090  146.5720 C   0  0  0  0  0  2  0  0  0  0  0  0
  185.1610  179.1080  145.6000 C   0  0  0  0  0  2  0  0  0  0  0  0
  188.0420  176.9830  143.3170 C   0  0  0  0  0  2  0  0  0  0  0  0
  180.8550  177.6510  141.4390 O   0  0  0  0  0  0  0  0  0  0  0  0
  183.4020  178.9400  141.3550 C   0  0  0  0  0  3  0  0  0  0  0  0
  182.3980  179.1680  142.4870 C   0  0  0  0  0  2  0  0  0  0  0  0
  180.9840  178.9560  141.9460 C   0  0  0  0  0  2  0  0  0  0  0  0
  181.6160  177.5990  140.2570 C   0  0  0  0  0  2  0  0  0  0  0  0
  183.1060  177.6460  140.5940 C   0  0  0  0  0  2  0  0  0  0  0  0
  1 15  1  0  0  0  0
  2 11  1  0  0  0  0
  2 12  1  0  0  0  0
  3 21  1  0  0  0  0
  4 13  2  0  0  0  0
  4 14  1  0  0  0  0
  5 13  1  0  0  0  0
  6  2  2  0  0  0  0
  8 10  1  0  0  0  0
  9  7  2  0  0  0  0
 10 19  1  0  0  0  0
 11  3  1  0  0  0  0
 12  1  1  0  0  0  0
 13  9  1  0  0  0  0
 14 16  1  0  0  0  0
 15 20  1  0  0  0  0
 16  7  1  0  0  0  0
 16 11  2  0  0  0  0
 17  8  1  0  0  0  0
 18 14  2  0  0  0  0
 18  6  1  0  0  0  0
 20 19  1  0  0  0  0
 21 17  1  0  0  0  0
 22 25  1  0  0  0  0
 23 12  1  0  0  0  0
 23 24  1  0  0  0  0
 25 24  1  0  0  0  0
 26 27  1  0  0  0  0
 26 22  1  0  0  0  0
 27 23  1  0  0  0  0
M  END
>  <MODEL>
6

>  <REMARK>
 VINA RESULT:      -9.6      3.303      6.392
  Name = 
  1 active torsions:
  status: ('A' for Active; 'I' for Inactive)
    1  A    between atoms: C_9  and  N_15
                            x       y       z     vdW  Elec       q    Type
                         _______ _______ _______ _____ _____    ______ ____

>  <TORSDO>
F 1

$$$$
=
 OpenBabel10272401023D

 27 30  0  0  0  0  0  0  0  0999 V2000
  185.6090  179.3060  141.8400 C   0  0  0  0  0  2  0  0  0  0  0  0
  186.8810  178.2280  139.9300 C   0  0  0  0  0  0  0  0  0  0  0  0
  188.0040  177.9070  142.0770 O   0  0  0  0  0  0  0  0  0  0  0  0
  190.3740  177.1460  137.8740 C   0  0  0  0  0  3  0  0  0  0  0  0
  192.6740  176.5230  137.8840 F   0  0  0  0  0  0  0  0  0  0  0  0
  186.9430  178.1520  138.5290 C   0  0  0  0  0  3  0  0  0  0  0  0
  190.4180  177.2520  140.6670 C   0  0  0  0  0  3  0  0  0  0  0  0
  187.8740  178.0910  144.9760 C   0  0  0  0  0  2  0  0  0  0  0  0
  191.5750  176.9120  139.9610 C   0  0  0  0  0  3  0  0  0  0  0  0
  186.6350  177.2350  145.2000 C   0  0  0  0  0  2  0  0  0  0  0  0
  188.0390  177.8860  140.6760 C   0  0  0  0  0  0  0  0  0  0  0  0
  185.6320  178.6130  140.5520 N   0  0  0  0  0  0  0  0  0  0  0  0
  191.5520  176.8540  138.5660 C   0  0  0  0  0  0  0  0  0  0  0  0
  189.2140  177.4890  138.5740 C   0  0  0  0  0  0  0  0  0  0  0  0
  185.0830  178.3920  142.9310 C   0  0  0  0  0  2  0  0  0  0  0  0
  189.2220  177.5330  139.9860 C   0  0  0  0  0  0  0  0  0  0  0  0
  188.9540  177.3110  144.2400 C   0  0  0  0  0  2  0  0  0  0  0  0
  188.0840  177.7900  137.8920 N   0  0  0  0  0  0  0  0  0  0  0  0
  185.3970  178.1060  145.4080 C   0  0  0  0  0  2  0  0  0  0  0  0
  185.1950  179.1010  144.2680 C   0  0  0  0  0  2  0  0  0  0  0  0
  188.4960  176.8280  142.8670 C   0  0  0  0  0  2  0  0  0  0  0  0
  181.5850  179.0370  139.6590 O   0  0  0  0  0  0  0  0  0  0  0  0
  184.3880  178.5060  139.7800 C   0  0  0  0  0  3  0  0  0  0  0  0
  183.8230  179.8850  139.4350 C   0  0  0  0  0  2  0  0  0  0  0  0
  182.4530  179.7100  138.7810 C   0  0  0  0  0  2  0  0  0  0  0  0
  182.0330  177.7050  139.7280 C   0  0  0  0  0  2  0  0  0  0  0  0
  183.3520  177.6370  140.4970 C   0  0  0  0  0  2  0  0  0  0  0  0
  1 15  1  0  0  0  0
  2 12  1  0  0  0  0
  2 11  1  0  0  0  0
  3 21  1  0  0  0  0
  4 13  2  0  0  0  0
  4 14  1  0  0  0  0
  5 13  1  0  0  0  0
  6  2  2  0  0  0  0
  8 10  1  0  0  0  0
  9  7  2  0  0  0  0
 10 19  1  0  0  0  0
 11  3  1  0  0  0  0
 12  1  1  0  0  0  0
 13  9  1  0  0  0  0
 14 16  1  0  0  0  0
 15 20  1  0  0  0  0
 16  7  1  0  0  0  0
 16 11  2  0  0  0  0
 17  8  1  0  0  0  0
 18  6  1  0  0  0  0
 18 14  2  0  0  0  0
 20 19  1  0  0  0  0
 21 17  1  0  0  0  0
 22 26  1  0  0  0  0
 23 27  1  0  0  0  0
 23 12  1  0  0  0  0
 24 23  1  0  0  0  0
 25 24  1  0  0  0  0
 25 22  1  0  0  0  0
 26 27  1  0  0  0  0
M  END
>  <MODEL>
7

>  <REMARK>
 VINA RESULT:      -9.5      3.174      5.880
  Name = 
  1 active torsions:
  status: ('A' for Active; 'I' for Inactive)
    1  A    between atoms: C_9  and  N_15
                            x       y       z     vdW  Elec       q    Type
                         _______ _______ _______ _____ _____    ______ ____

>  <TORSDO>
F 1

$$$$
=
 OpenBabel10272401023D

 27 30  0  0  0  0  0  0  0  0999 V2000
  184.3460  177.6550  138.9820 C   0  0  0  0  0  2  0  0  0  0  0  0
  183.6870  178.5690  141.2540 C   0  0  0  0  0  0  0  0  0  0  0  0
  186.0810  178.0960  141.1140 O   0  0  0  0  0  0  0  0  0  0  0  0
  183.9110  178.7630  145.4390 C   0  0  0  0  0  3  0  0  0  0  0  0
  185.1620  178.5610  147.4570 F   0  0  0  0  0  0  0  0  0  0  0  0
  182.5770  178.8730  142.0590 C   0  0  0  0  0  3  0  0  0  0  0  0
  186.2150  178.1430  143.9810 C   0  0  0  0  0  3  0  0  0  0  0  0
  188.3690  177.4430  139.4410 C   0  0  0  0  0  2  0  0  0  0  0  0
  186.2620  178.1940  145.3770 C   0  0  0  0  0  3  0  0  0  0  0  0
  188.2770  178.6100  138.4680 C   0  0  0  0  0  2  0  0  0  0  0  0
  184.9410  178.3580  141.8850 C   0  0  0  0  0  0  0  0  0  0  0  0
  183.5140  178.5210  139.8180 N   0  0  0  0  0  0  0  0  0  0  0  0
  185.1130  178.5090  146.1040 C   0  0  0  0  0  0  0  0  0  0  0  0
  183.8570  178.7100  144.0430 C   0  0  0  0  0  0  0  0  0  0  0  0
  185.3140  178.4780  138.1530 C   0  0  0  0  0  2  0  0  0  0  0  0
  185.0180  178.4100  143.2960 C   0  0  0  0  0  0  0  0  0  0  0  0
  188.5010  177.9330  140.8760 C   0  0  0  0  0  2  0  0  0  0  0  0
  182.6820  178.9380  143.4090 N   0  0  0  0  0  0  0  0  0  0  0  0
  187.6050  178.1860  137.1640 C   0  0  0  0  0  2  0  0  0  0  0  0
  186.2410  177.5420  137.4010 C   0  0  0  0  0  2  0  0  0  0  0  0
  187.3130  178.7830  141.3170 C   0  0  0  0  0  2  0  0  0  0  0  0
  181.2010  180.3850  136.8970 O   0  0  0  0  0  0  0  0  0  0  0  0
  182.3480  179.1800  139.2180 C   0  0  0  0  0  3  0  0  0  0  0  0
  181.7770  178.3610  138.0580 C   0  0  0  0  0  2  0  0  0  0  0  0
  180.6770  179.1700  137.3740 C   0  0  0  0  0  2  0  0  0  0  0  0
  181.4710  181.1810  138.0260 C   0  0  0  0  0  2  0  0  0  0  0  0
  182.6670  180.6140  138.7890 C   0  0  0  0  0  2  0  0  0  0  0  0
  1 12  1  0  0  0  0
  2 11  2  0  0  0  0
  2  6  1  0  0  0  0
  3 21  1  0  0  0  0
  3 11  1  0  0  0  0
  4 13  1  0  0  0  0
  6 18  2  0  0  0  0
  7  9  1  0  0  0  0
  8 17  1  0  0  0  0
  9 13  2  0  0  0  0
 10  8  1  0  0  0  0
 11 16  1  0  0  0  0
 12  2  1  0  0  0  0
 13  5  1  0  0  0  0
 14  4  2  0  0  0  0
 15  1  1  0  0  0  0
 16  7  2  0  0  0  0
 16 14  1  0  0  0  0
 17 21  1  0  0  0  0
 18 14  1  0  0  0  0
 19 20  1  0  0  0  0
 19 10  1  0  0  0  0
 20 15  1  0  0  0  0
 22 25  1  0  0  0  0
 22 26  1  0  0  0  0
 23 12  1  0  0  0  0
 24 23  1  0  0  0  0
 25 24  1  0  0  0  0
 26 27  1  0  0  0  0
 27 23  1  0  0  0  0
M  END
>  <MODEL>
8

>  <REMARK>
 VINA RESULT:      -9.4      3.901      6.776
  Name = 
  1 active torsions:
  status: ('A' for Active; 'I' for Inactive)
    1  A    between atoms: C_9  and  N_15
                            x       y       z     vdW  Elec       q    Type
                         _______ _______ _______ _____ _____    ______ ____

>  <TORSDO>
F 1

$$$$
=
 OpenBabel10272401023D

 27 30  0  0  0  0  0  0  0  0999 V2000
  190.4890  178.1140  142.8870 C   0  0  0  0  0  2  0  0  0  0  0  0
  188.1100  177.7880  143.7010 C   0  0  0  0  0  0  0  0  0  0  0  0
  188.2210  178.0540  141.2740 O   0  0  0  0  0  0  0  0  0  0  0  0
  183.9820  178.5380  143.6530 C   0  0  0  0  0  3  0  0  0  0  0  0
  181.9950  179.1100  142.4690 F   0  0  0  0  0  0  0  0  0  0  0  0
  187.3190  177.7520  144.8620 C   0  0  0  0  0  3  0  0  0  0  0  0
  185.4130  178.6520  141.2550 C   0  0  0  0  0  3  0  0  0  0  0  0
  189.8690  178.1510  138.8810 C   0  0  0  0  0  2  0  0  0  0  0  0
  184.0410  178.9170  141.2650 C   0  0  0  0  0  3  0  0  0  0  0  0
  190.5580  176.8010  139.0270 C   0  0  0  0  0  2  0  0  0  0  0  0
  187.4740  178.0510  142.4600 C   0  0  0  0  0  0  0  0  0  0  0  0
  189.5270  177.5190  143.8160 N   0  0  0  0  0  0  0  0  0  0  0  0
  183.3260  178.8550  142.4620 C   0  0  0  0  0  0  0  0  0  0  0  0
  185.3550  178.2750  143.6500 C   0  0  0  0  0  0  0  0  0  0  0  0
  191.0580  177.0590  141.9560 C   0  0  0  0  0  2  0  0  0  0  0  0
  186.0850  178.3180  142.4410 C   0  0  0  0  0  0  0  0  0  0  0  0
  188.3560  177.9930  138.8420 C   0  0  0  0  0  2  0  0  0  0  0  0
  185.9850  177.9890  144.8140 N   0  0  0  0  0  0  0  0  0  0  0  0
  191.9600  176.9620  139.6130 C   0  0  0  0  0  2  0  0  0  0  0  0
  191.9490  177.7340  140.9300 C   0  0  0  0  0  2  0  0  0  0  0  0
  187.8010  177.3490  140.1090 C   0  0  0  0  0  2  0  0  0  0  0  0
  191.8210  176.8470  147.2290 O   0  0  0  0  0  0  0  0  0  0  0  0
  190.0270  176.8210  145.0060 C   0  0  0  0  0  3  0  0  0  0  0  0
  189.7510  177.6220  146.2810 C   0  0  0  0  0  2  0  0  0  0  0  0
  190.4360  176.9300  147.4590 C   0  0  0  0  0  2  0  0  0  0  0  0
  192.0040  175.9000  146.2040 C   0  0  0  0  0  2  0  0  0  0  0  0
  191.5100  176.4680  144.8740 C   0  0  0  0  0  2  0  0  0  0  0  0
  1 12  1  0  0  0  0
  2 12  1  0  0  0  0
  2  6  1  0  0  0  0
  3 11  1  0  0  0  0
  7  9  2  0  0  0  0
  7 16  1  0  0  0  0
  8 10  1  0  0  0  0
  9 13  1  0  0  0  0
 10 19  1  0  0  0  0
 11  2  2  0  0  0  0
 12 23  1  0  0  0  0
 13  5  1  0  0  0  0
 13  4  2  0  0  0  0
 14  4  1  0  0  0  0
 14 18  1  0  0  0  0
 15  1  1  0  0  0  0
 16 11  1  0  0  0  0
 16 14  2  0  0  0  0
 17  8  1  0  0  0  0
 17 21  1  0  0  0  0
 18  6  2  0  0  0  0
 19 20  1  0  0  0  0
 20 15  1  0  0  0  0
 21  3  1  0  0  0  0
 22 25  1  0  0  0  0
 23 24  1  0  0  0  0
 24 25  1  0  0  0  0
 26 22  1  0  0  0  0
 27 23  1  0  0  0  0
 27 26  1  0  0  0  0
M  END
>  <MODEL>
9

>  <REMARK>
 VINA RESULT:      -9.3      2.918      6.943
  Name = 
  1 active torsions:
  status: ('A' for Active; 'I' for Inactive)
    1  A    between atoms: C_9  and  N_15
                            x       y       z     vdW  Elec       q    Type
                         _______ _______ _______ _____ _____    ______ ____

>  <TORSDO>
F 1

$$$$
