=
 OpenBabel10272400063D

 34 37  0  0  1  0  0  0  0  0999 V2000
  190.3110  176.9480  137.7470 C   0  0  2  0  0  3  0  0  0  0  0  0
  187.5880  175.5440  136.8010 C   0  0  2  0  0  3  0  0  0  0  0  0
  187.1210  178.1580  137.1260 C   0  0  0  0  0  0  0  0  0  0  0  0
  189.3550  177.5880  136.7260 C   0  0  2  0  0  3  0  0  0  0  0  0
  186.2790  176.5800  135.0370 O   0  0  0  0  0  1  0  0  0  0  0  0
  185.8850  178.1750  137.3690 O   0  0  0  0  0  0  0  0  0  0  0  0
  189.2590  178.9930  136.9690 O   0  0  0  0  0  0  0  0  0  0  0  0
  187.9430  177.0210  136.7590 C   0  0  1  0  0  0  0  0  0  0  0  0
  187.5840  176.3040  135.4630 C   0  0  1  0  0  3  0  0  0  0  0  0
  186.2960  175.3590  137.3000 O   0  0  0  0  0  1  0  0  0  0  0  0
  187.9520  179.2450  137.2250 O   0  0  0  0  0  0  0  0  0  0  0  0
  192.8710  175.4900  135.4540 C   0  0  0  0  0  2  0  0  0  0  0  0
  193.2880  174.8820  136.7130 N   0  0  0  0  0  0  0  0  0  0  0  0
  191.1510  175.8220  137.1190 C   0  0  2  0  0  3  0  0  0  0  0  0
  192.5150  175.5670  137.7610 C   0  0  2  0  0  3  0  0  0  0  0  0
  191.4710  176.0560  135.6540 C   0  0  2  0  0  3  0  0  0  0  0  0
  190.5670  175.3560  134.8560 O   0  0  0  0  0  1  0  0  0  0  0  0
  193.6670  176.8950  139.3910 O   0  0  0  0  0  0  0  0  0  0  0  0
  193.1720  176.8390  138.2770 C   0  0  0  0  0  3  0  0  0  0  0  0
  194.7360  175.0210  136.8510 C   0  0  0  0  0  2  0  0  0  0  0  0
  195.3250  175.6610  135.6060 C   0  0  0  0  0  2  0  0  0  0  0  0
  196.6030  176.1530  135.8770 O   0  0  0  0  0  1  0  0  0  0  0  0
  189.5840  176.4510  138.9120 N   0  0  0  0  0  2  0  0  0  0  0  0
  189.7810  177.4020  139.9930 C   0  0  0  0  0  2  0  0  0  0  0  0
  190.6970  176.8030  141.0390 C   0  0  0  0  0  2  0  0  0  0  0  0
  189.7220  176.3020  142.4830 S   0  0  0  0  0  0  0  0  0  0  0  0
  191.2090  175.9260  143.4590 C   0  0  0  0  0  2  0  0  0  0  0  0
  190.8870  179.4220  144.0790 C   0  0  0  0  0  1  0  0  0  0  0  0
  191.5100  177.0670  144.4220 C   0  0  1  0  0  3  0  0  0  0  0  0
  190.3710  178.0390  144.4180 C   0  0  1  0  0  3  0  0  0  0  0  0
  188.4090  177.8760  145.6690 C   0  0  0  0  0  1  0  0  0  0  0  0
  190.3430  176.8660  146.3790 N   0  0  0  0  0  2  0  0  0  0  0  0
  191.5800  176.5640  145.7800 N   0  0  0  0  0  2  0  0  0  0  0  0
  189.8480  178.0340  145.7700 N   0  0  0  0  0  0  0  0  0  0  0  0
  1 23  1  1  0  0  0
  2 10  1  1  0  0  0
  3 11  1  0  0  0  0
  3  6  2  0  0  0  0
  4  8  1  0  0  0  0
  4  7  1  0  0  0  0
  4  1  1  1  0  0  0
  7 11  1  0  0  0  0
  8  2  1  0  0  0  0
  8  3  1  1  0  0  0
  9  5  1  1  0  0  0
  9  8  1  0  0  0  0
  9  2  1  0  0  0  0
 12 16  1  0  0  0  0
 12 13  1  0  0  0  0
 13 20  1  0  0  0  0
 13 15  1  0  0  0  0
 14  1  1  1  0  0  0
 14 15  1  0  0  0  0
 15 19  1  6  0  0  0
 16 17  1  6  0  0  0
 16 14  1  0  0  0  0
 19 18  2  0  0  0  0
 21 22  1  0  0  0  0
 21 20  1  0  0  0  0
 23 24  1  0  0  0  0
 24 25  1  0  0  0  0
 25 26  1  0  0  0  0
 26 27  1  0  0  0  0
 29 27  1  6  0  0  0
 29 33  1  0  0  0  0
 30 28  1  1  0  0  0
 30 29  1  0  0  0  0
 30 34  1  0  0  0  0
 31 34  1  0  0  0  0
 33 32  1  0  0  0  0
 34 32  1  0  0  0  0
M  END
>  <MODEL>
1

>  <REMARK>
 VINA RESULT:      -6.3      0.000      0.000
  Name = 
  11 active torsions:
  status: ('A' for Active; 'I' for Inactive)
    1  A    between atoms: C_3  and  C_13
    2  A    between atoms: C_3  and  S_17
    3  A    between atoms: C_4  and  C_31
    4  A    between atoms: N_5  and  C_18
    5  A    between atoms: N_5  and  C_31
    6  A    between atoms: N_8  and  C_27
    7  A    between atoms: C_12  and  C_27
    8  A    between atoms: S_17  and  C_29
    9  A    between atoms: C_18  and  C_29
   10  A    between atoms: C_21  and  C_31
   11  A    between atoms: C_26  and  C_28
                            x       y       z     vdW  Elec       q    Type
                         _______ _______ _______ _____ _____    ______ ____

>  <TORSDO>
F 11

$$$$
=
 OpenBabel10272400063D

 34 37  0  0  1  0  0  0  0  0999 V2000
  190.3100  176.9800  137.9050 C   0  0  2  0  0  3  0  0  0  0  0  0
  187.5780  175.5980  136.9520 C   0  0  2  0  0  3  0  0  0  0  0  0
  187.1580  178.2300  137.1820 C   0  0  0  0  0  0  0  0  0  0  0  0
  189.3860  177.6040  136.8450 C   0  0  2  0  0  3  0  0  0  0  0  0
  186.3240  176.6010  135.1300 O   0  0  0  0  0  1  0  0  0  0  0  0
  185.9180  178.2790  137.4010 O   0  0  0  0  0  0  0  0  0  0  0  0
  189.3140  179.0180  137.0400 O   0  0  0  0  0  0  0  0  0  0  0  0
  187.9630  177.0660  136.8680 C   0  0  1  0  0  0  0  0  0  0  0  0
  187.6140  176.3140  135.5900 C   0  0  1  0  0  3  0  0  0  0  0  0
  186.2730  175.4560  137.4310 O   0  0  0  0  0  1  0  0  0  0  0  0
  188.0080  179.3040  137.2620 O   0  0  0  0  0  0  0  0  0  0  0  0
  192.8370  175.3840  135.6670 C   0  0  0  0  0  2  0  0  0  0  0  0
  193.2660  174.8450  136.9530 N   0  0  0  0  0  0  0  0  0  0  0  0
  191.1380  175.8170  137.3310 C   0  0  2  0  0  3  0  0  0  0  0  0
  192.5080  175.5910  137.9700 C   0  0  2  0  0  3  0  0  0  0  0  0
  191.4420  175.9670  135.8510 C   0  0  2  0  0  3  0  0  0  0  0  0
  190.5260  175.2290  135.1030 O   0  0  0  0  0  1  0  0  0  0  0  0
  193.5030  177.0760  139.5690 O   0  0  0  0  0  0  0  0  0  0  0  0
  193.1760  176.8860  138.4080 C   0  0  0  0  0  3  0  0  0  0  0  0
  194.7170  174.9840  137.0680 C   0  0  0  0  0  2  0  0  0  0  0  0
  195.2570  174.0210  138.1100 C   0  0  0  0  0  2  0  0  0  0  0  0
  195.8200  174.7290  139.1730 O   0  0  0  0  0  1  0  0  0  0  0  0
  189.5520  176.5370  139.0710 N   0  0  0  0  0  2  0  0  0  0  0  0
  189.9220  177.3910  140.1870 C   0  0  0  0  0  2  0  0  0  0  0  0
  190.4600  176.5440  141.3210 C   0  0  0  0  0  2  0  0  0  0  0  0
  191.1830  177.6180  142.5900 S   0  0  0  0  0  0  0  0  0  0  0  0
  189.5510  178.0930  143.2340 C   0  0  0  0  0  2  0  0  0  0  0  0
  189.2000  177.0440  146.6230 C   0  0  0  0  0  1  0  0  0  0  0  0
  189.0180  177.0160  144.1690 C   0  0  1  0  0  3  0  0  0  0  0  0
  188.5040  177.6530  145.4230 C   0  0  1  0  0  3  0  0  0  0  0  0
  186.3850  178.5770  145.7380 C   0  0  0  0  0  1  0  0  0  0  0  0
  186.7320  176.9380  144.1700 N   0  0  0  0  0  2  0  0  0  0  0  0
  187.8690  176.3640  143.5710 N   0  0  0  0  0  2  0  0  0  0  0  0
  187.0910  177.3360  145.4710 N   0  0  0  0  0  0  0  0  0  0  0  0
  1 23  1  1  0  0  0
  2 10  1  1  0  0  0
  3 11  1  0  0  0  0
  3  6  2  0  0  0  0
  4  8  1  0  0  0  0
  4  7  1  0  0  0  0
  4  1  1  1  0  0  0
  7 11  1  0  0  0  0
  8  2  1  0  0  0  0
  8  3  1  1  0  0  0
  9  5  1  1  0  0  0
  9  8  1  0  0  0  0
  9  2  1  0  0  0  0
 12 16  1  0  0  0  0
 12 13  1  0  0  0  0
 13 20  1  0  0  0  0
 13 15  1  0  0  0  0
 14  1  1  1  0  0  0
 14 15  1  0  0  0  0
 15 19  1  6  0  0  0
 16 17  1  6  0  0  0
 16 14  1  0  0  0  0
 19 18  2  0  0  0  0
 20 21  1  0  0  0  0
 21 22  1  0  0  0  0
 23 24  1  0  0  0  0
 24 25  1  0  0  0  0
 25 26  1  0  0  0  0
 26 27  1  0  0  0  0
 29 27  1  6  0  0  0
 29 30  1  0  0  0  0
 30 34  1  0  0  0  0
 30 28  1  1  0  0  0
 32 34  1  0  0  0  0
 33 29  1  0  0  0  0
 33 32  1  0  0  0  0
 34 31  1  0  0  0  0
M  END
>  <MODEL>
2

>  <REMARK>
 VINA RESULT:      -6.3      1.515      1.799
  Name = 
  11 active torsions:
  status: ('A' for Active; 'I' for Inactive)
    1  A    between atoms: C_3  and  C_13
    2  A    between atoms: C_3  and  S_17
    3  A    between atoms: C_4  and  C_31
    4  A    between atoms: N_5  and  C_18
    5  A    between atoms: N_5  and  C_31
    6  A    between atoms: N_8  and  C_27
    7  A    between atoms: C_12  and  C_27
    8  A    between atoms: S_17  and  C_29
    9  A    between atoms: C_18  and  C_29
   10  A    between atoms: C_21  and  C_31
   11  A    between atoms: C_26  and  C_28
                            x       y       z     vdW  Elec       q    Type
                         _______ _______ _______ _____ _____    ______ ____

>  <TORSDO>
F 11

$$$$
=
 OpenBabel10272400063D

 34 37  0  0  1  0  0  0  0  0999 V2000
  190.3110  177.0160  137.7330 C   0  0  2  0  0  3  0  0  0  0  0  0
  187.6610  175.4540  136.8270 C   0  0  2  0  0  3  0  0  0  0  0  0
  187.0370  178.0280  137.2030 C   0  0  0  0  0  0  0  0  0  0  0  0
  189.2920  177.6070  136.7440 C   0  0  2  0  0  3  0  0  0  0  0  0
  186.2470  176.4290  135.1100 O   0  0  0  0  0  1  0  0  0  0  0  0
  185.8080  177.9620  137.4750 O   0  0  0  0  0  0  0  0  0  0  0  0
  189.1130  179.0000  137.0100 O   0  0  0  0  0  0  0  0  0  0  0  0
  187.9200  176.9510  136.8000 C   0  0  1  0  0  0  0  0  0  0  0  0
  187.5770  176.2310  135.5010 C   0  0  1  0  0  3  0  0  0  0  0  0
  186.3950  175.1800  137.3520 O   0  0  0  0  0  1  0  0  0  0  0  0
  187.7990  179.1640  137.3010 O   0  0  0  0  0  0  0  0  0  0  0  0
  192.8820  175.5660  135.4460 C   0  0  0  0  0  2  0  0  0  0  0  0
  193.2720  174.9270  136.6980 N   0  0  0  0  0  0  0  0  0  0  0  0
  191.1430  175.8900  137.0930 C   0  0  2  0  0  3  0  0  0  0  0  0
  192.4940  175.6020  137.7490 C   0  0  2  0  0  3  0  0  0  0  0  0
  191.4880  176.1480  135.6380 C   0  0  2  0  0  3  0  0  0  0  0  0
  190.5850  175.4780  134.8130 O   0  0  0  0  0  1  0  0  0  0  0  0
  193.5370  176.9190  139.4600 O   0  0  0  0  0  0  0  0  0  0  0  0
  193.1620  176.8530  138.2990 C   0  0  0  0  0  3  0  0  0  0  0  0
  194.7200  175.0410  136.8590 C   0  0  0  0  0  2  0  0  0  0  0  0
  195.3580  175.5220  135.5670 C   0  0  0  0  0  2  0  0  0  0  0  0
  196.5290  176.2290  135.8430 O   0  0  0  0  0  1  0  0  0  0  0  0
  189.6540  176.5370  138.9450 N   0  0  0  0  0  2  0  0  0  0  0  0
  189.9160  177.5010  139.9990 C   0  0  0  0  0  2  0  0  0  0  0  0
  189.7650  176.8340  141.3500 C   0  0  0  0  0  2  0  0  0  0  0  0
  188.4600  177.6660  142.2950 S   0  0  0  0  0  0  0  0  0  0  0  0
  188.8670  176.7560  143.8150 C   0  0  0  0  0  2  0  0  0  0  0  0
  189.0760  177.3610  147.3220 C   0  0  0  0  0  1  0  0  0  0  0  0
  189.3240  177.7210  144.9010 C   0  0  1  0  0  3  0  0  0  0  0  0
  189.8320  176.9450  146.0770 C   0  0  1  0  0  3  0  0  0  0  0  0
  191.9820  176.0760  146.3380 C   0  0  0  0  0  1  0  0  0  0  0  0
  191.6040  177.8930  144.9880 N   0  0  0  0  0  2  0  0  0  0  0  0
  190.4590  178.4930  144.4320 N   0  0  0  0  0  2  0  0  0  0  0  0
  191.2280  177.3110  146.2130 N   0  0  0  0  0  0  0  0  0  0  0  0
  1 23  1  1  0  0  0
  2 10  1  1  0  0  0
  3 11  1  0  0  0  0
  3  6  2  0  0  0  0
  4  8  1  0  0  0  0
  4  7  1  0  0  0  0
  4  1  1  1  0  0  0
  7 11  1  0  0  0  0
  8  2  1  0  0  0  0
  8  3  1  1  0  0  0
  9  5  1  1  0  0  0
  9  8  1  0  0  0  0
  9  2  1  0  0  0  0
 12 16  1  0  0  0  0
 12 13  1  0  0  0  0
 13 20  1  0  0  0  0
 13 15  1  0  0  0  0
 14  1  1  1  0  0  0
 14 15  1  0  0  0  0
 15 19  1  6  0  0  0
 16 17  1  6  0  0  0
 16 14  1  0  0  0  0
 19 18  2  0  0  0  0
 21 22  1  0  0  0  0
 21 20  1  0  0  0  0
 23 24  1  0  0  0  0
 24 25  1  0  0  0  0
 25 26  1  0  0  0  0
 26 27  1  0  0  0  0
 29 27  1  6  0  0  0
 29 30  1  0  0  0  0
 30 34  1  0  0  0  0
 30 28  1  1  0  0  0
 32 34  1  0  0  0  0
 33 29  1  0  0  0  0
 33 32  1  0  0  0  0
 34 31  1  0  0  0  0
M  END
>  <MODEL>
3

>  <REMARK>
 VINA RESULT:      -6.3      0.926      1.428
  Name = 
  11 active torsions:
  status: ('A' for Active; 'I' for Inactive)
    1  A    between atoms: C_3  and  C_13
    2  A    between atoms: C_3  and  S_17
    3  A    between atoms: C_4  and  C_31
    4  A    between atoms: N_5  and  C_18
    5  A    between atoms: N_5  and  C_31
    6  A    between atoms: N_8  and  C_27
    7  A    between atoms: C_12  and  C_27
    8  A    between atoms: S_17  and  C_29
    9  A    between atoms: C_18  and  C_29
   10  A    between atoms: C_21  and  C_31
   11  A    between atoms: C_26  and  C_28
                            x       y       z     vdW  Elec       q    Type
                         _______ _______ _______ _____ _____    ______ ____

>  <TORSDO>
F 11

$$$$
=
 OpenBabel10272400063D

 34 37  0  0  1  0  0  0  0  0999 V2000
  187.9890  177.5350  144.0260 C   0  0  2  0  0  3  0  0  0  0  0  0
  188.9820  176.4690  146.8830 C   0  0  2  0  0  3  0  0  0  0  0  0
  191.0410  177.6690  145.6670 C   0  0  0  0  0  0  0  0  0  0  0  0
  188.9240  178.3460  144.9390 C   0  0  2  0  0  3  0  0  0  0  0  0
  190.2940  177.9420  148.2990 O   0  0  0  0  0  1  0  0  0  0  0  0
  192.0290  177.0950  146.1990 O   0  0  0  0  0  0  0  0  0  0  0  0
  189.9260  178.9930  144.1530 O   0  0  0  0  0  0  0  0  0  0  0  0
  189.6370  177.5140  145.9950 C   0  0  1  0  0  0  0  0  0  0  0  0
  189.2150  177.8970  147.4080 C   0  0  1  0  0  3  0  0  0  0  0  0
  189.9330  175.5710  147.3740 O   0  0  0  0  0  1  0  0  0  0  0  0
  191.1180  178.5300  144.6030 O   0  0  0  0  0  0  0  0  0  0  0  0
  184.9260  179.2480  145.3000 C   0  0  0  0  0  2  0  0  0  0  0  0
  184.3610  178.5470  144.1520 N   0  0  0  0  0  0  0  0  0  0  0  0
  186.5220  177.6290  144.4790 C   0  0  2  0  0  3  0  0  0  0  0  0
  185.5130  178.0230  143.4000 C   0  0  2  0  0  3  0  0  0  0  0  0
  186.2960  178.6450  145.5830 C   0  0  2  0  0  3  0  0  0  0  0  0
  186.2750  178.0020  146.8200 O   0  0  0  0  0  1  0  0  0  0  0  0
  185.9060  178.8620  141.1880 O   0  0  0  0  0  0  0  0  0  0  0  0
  186.0840  179.0050  142.3870 C   0  0  0  0  0  3  0  0  0  0  0  0
  183.5240  179.4740  143.3930 C   0  0  0  0  0  2  0  0  0  0  0  0
  182.2330  178.7930  142.9710 C   0  0  0  0  0  2  0  0  0  0  0  0
  182.1830  178.6760  141.5820 O   0  0  0  0  0  1  0  0  0  0  0  0
  188.4090  176.1390  143.9480 N   0  0  0  0  0  2  0  0  0  0  0  0
  189.2760  176.0030  142.7900 C   0  0  0  0  0  2  0  0  0  0  0  0
  188.8080  176.9340  141.6910 C   0  0  0  0  0  2  0  0  0  0  0  0
  190.1290  177.1390  140.4670 S   0  0  0  0  0  0  0  0  0  0  0  0
  189.2160  178.4350  139.5780 C   0  0  0  0  0  2  0  0  0  0  0  0
  188.4030  175.9430  137.1620 C   0  0  0  0  0  1  0  0  0  0  0  0
  189.1320  178.1000  138.0950 C   0  0  1  0  0  3  0  0  0  0  0  0
  187.9500  177.2150  137.8490 C   0  0  1  0  0  3  0  0  0  0  0  0
  185.7450  177.9090  137.5280 C   0  0  0  0  0  1  0  0  0  0  0  0
  187.5000  179.3030  137.0360 N   0  0  0  0  0  2  0  0  0  0  0  0
  188.8770  179.3040  137.3270 N   0  0  0  0  0  2  0  0  0  0  0  0
  187.0810  177.9610  136.9610 N   0  0  0  0  0  0  0  0  0  0  0  0
  1 23  1  1  0  0  0
  2 10  1  1  0  0  0
  2  9  1  0  0  0  0
  3  6  2  0  0  0  0
  4  1  1  6  0  0  0
  4  8  1  0  0  0  0
  7 11  1  0  0  0  0
  7  4  1  0  0  0  0
  8  3  1  6  0  0  0
  8  2  1  0  0  0  0
  8  9  1  0  0  0  0
  9  5  1  1  0  0  0
 11  3  1  0  0  0  0
 12 16  1  0  0  0  0
 13 12  1  0  0  0  0
 14  1  1  6  0  0  0
 14 16  1  0  0  0  0
 15 19  1  6  0  0  0
 15 13  1  0  0  0  0
 15 14  1  0  0  0  0
 16 17  1  1  0  0  0
 18 19  2  0  0  0  0
 20 13  1  0  0  0  0
 21 20  1  0  0  0  0
 22 21  1  0  0  0  0
 24 23  1  0  0  0  0
 25 24  1  0  0  0  0
 26 25  1  0  0  0  0
 27 26  1  0  0  0  0
 29 27  1  1  0  0  0
 30 28  1  6  0  0  0
 30 29  1  0  0  0  0
 32 33  1  0  0  0  0
 33 29  1  0  0  0  0
 34 32  1  0  0  0  0
 34 31  1  0  0  0  0
 34 30  1  0  0  0  0
M  END
>  <MODEL>
4

>  <REMARK>
 VINA RESULT:      -6.2      4.489      9.798
  Name = 
  11 active torsions:
  status: ('A' for Active; 'I' for Inactive)
    1  A    between atoms: C_3  and  C_13
    2  A    between atoms: C_3  and  S_17
    3  A    between atoms: C_4  and  C_31
    4  A    between atoms: N_5  and  C_18
    5  A    between atoms: N_5  and  C_31
    6  A    between atoms: N_8  and  C_27
    7  A    between atoms: C_12  and  C_27
    8  A    between atoms: S_17  and  C_29
    9  A    between atoms: C_18  and  C_29
   10  A    between atoms: C_21  and  C_31
   11  A    between atoms: C_26  and  C_28
                            x       y       z     vdW  Elec       q    Type
                         _______ _______ _______ _____ _____    ______ ____

>  <TORSDO>
F 11

$$$$
=
 OpenBabel10272400063D

 34 37  0  0  1  0  0  0  0  0999 V2000
  184.4350  178.4500  141.5540 C   0  0  2  0  0  3  0  0  0  0  0  0
  182.5900  180.3510  139.7470 C   0  0  2  0  0  3  0  0  0  0  0  0
  182.7560  177.9590  138.5600 C   0  0  0  0  0  0  0  0  0  0  0  0
  183.1510  177.9550  140.8660 C   0  0  2  0  0  3  0  0  0  0  0  0
  180.4910  179.4830  138.8870 O   0  0  0  0  0  1  0  0  0  0  0  0
  182.5560  178.2530  137.3510 O   0  0  0  0  0  0  0  0  0  0  0  0
  183.3580  176.6400  140.3460 O   0  0  0  0  0  0  0  0  0  0  0  0
  182.6870  178.8340  139.7140 C   0  0  1  0  0  0  0  0  0  0  0  0
  181.3400  179.4880  140.0000 C   0  0  1  0  0  3  0  0  0  0  0  0
  182.6080  180.8760  138.4530 O   0  0  0  0  0  1  0  0  0  0  0  0
  183.1480  176.7240  139.0090 O   0  0  0  0  0  0  0  0  0  0  0  0
  182.9960  178.7810  144.9830 C   0  0  0  0  0  2  0  0  0  0  0  0
  184.3630  179.2170  145.2430 N   0  0  0  0  0  0  0  0  0  0  0  0
  184.1330  179.1610  142.8850 C   0  0  2  0  0  3  0  0  0  0  0  0
  185.1210  178.8990  144.0220 C   0  0  2  0  0  3  0  0  0  0  0  0
  182.7850  178.7890  143.4750 C   0  0  2  0  0  3  0  0  0  0  0  0
  181.8400  179.7580  143.1410 O   0  0  0  0  0  1  0  0  0  0  0  0
  186.8470  177.2580  144.3000 O   0  0  0  0  0  0  0  0  0  0  0  0
  185.6860  177.4860  144.0000 C   0  0  0  0  0  3  0  0  0  0  0  0
  184.8570  178.5460  146.4440 C   0  0  0  0  0  2  0  0  0  0  0  0
  186.0240  179.3180  147.0370 C   0  0  0  0  0  2  0  0  0  0  0  0
  186.9740  178.4330  147.5500 O   0  0  0  0  0  1  0  0  0  0  0  0
  185.2030  179.3240  140.6730 N   0  0  0  0  0  2  0  0  0  0  0  0
  186.3460  178.5670  140.1890 C   0  0  0  0  0  2  0  0  0  0  0  0
  187.5160  178.7510  141.1320 C   0  0  0  0  0  2  0  0  0  0  0  0
  188.9600  177.8640  140.4870 S   0  0  0  0  0  0  0  0  0  0  0  0
  189.2960  177.0780  142.0910 C   0  0  0  0  0  2  0  0  0  0  0  0
  190.8770  179.5660  144.0960 C   0  0  0  0  0  1  0  0  0  0  0  0
  190.6140  177.5840  142.6620 C   0  0  1  0  0  3  0  0  0  0  0  0
  190.3850  178.1340  144.0350 C   0  0  1  0  0  3  0  0  0  0  0  0
  190.3200  176.9130  146.0220 C   0  0  0  0  0  1  0  0  0  0  0  0
  191.4890  176.1400  144.2050 N   0  0  0  0  0  2  0  0  0  0  0  0
  191.5350  176.4780  142.8400 N   0  0  0  0  0  2  0  0  0  0  0  0
  191.1820  177.3110  144.9230 N   0  0  0  0  0  0  0  0  0  0  0  0
  1 23  1  6  0  0  0
  2 10  1  6  0  0  0
  2  9  1  0  0  0  0
  3 11  1  0  0  0  0
  4  1  1  6  0  0  0
  6  3  2  0  0  0  0
  7  4  1  0  0  0  0
  8  3  1  6  0  0  0
  8  2  1  0  0  0  0
  8  9  1  0  0  0  0
  8  4  1  0  0  0  0
  9  5  1  6  0  0  0
 11  7  1  0  0  0  0
 12 13  1  0  0  0  0
 13 20  1  0  0  0  0
 14  1  1  6  0  0  0
 14 16  1  0  0  0  0
 14 15  1  0  0  0  0
 15 19  1  1  0  0  0
 15 13  1  0  0  0  0
 16 17  1  1  0  0  0
 16 12  1  0  0  0  0
 19 18  2  0  0  0  0
 20 21  1  0  0  0  0
 21 22  1  0  0  0  0
 24 23  1  0  0  0  0
 24 25  1  0  0  0  0
 26 25  1  0  0  0  0
 26 27  1  0  0  0  0
 29 27  1  1  0  0  0
 29 33  1  0  0  0  0
 29 30  1  0  0  0  0
 30 28  1  6  0  0  0
 30 34  1  0  0  0  0
 32 34  1  0  0  0  0
 33 32  1  0  0  0  0
 34 31  1  0  0  0  0
M  END
>  <MODEL>
5

>  <REMARK>
 VINA RESULT:      -5.8      5.365      8.215
  Name = 
  11 active torsions:
  status: ('A' for Active; 'I' for Inactive)
    1  A    between atoms: C_3  and  C_13
    2  A    between atoms: C_3  and  S_17
    3  A    between atoms: C_4  and  C_31
    4  A    between atoms: N_5  and  C_18
    5  A    between atoms: N_5  and  C_31
    6  A    between atoms: N_8  and  C_27
    7  A    between atoms: C_12  and  C_27
    8  A    between atoms: S_17  and  C_29
    9  A    between atoms: C_18  and  C_29
   10  A    between atoms: C_21  and  C_31
   11  A    between atoms: C_26  and  C_28
                            x       y       z     vdW  Elec       q    Type
                         _______ _______ _______ _____ _____    ______ ____

>  <TORSDO>
F 11

$$$$
=
 OpenBabel10272400063D

 34 37  0  0  1  0  0  0  0  0999 V2000
  188.0760  177.6580  138.3920 C   0  0  2  0  0  3  0  0  0  0  0  0
  190.5640  175.6360  138.3890 C   0  0  2  0  0  3  0  0  0  0  0  0
  190.1760  176.5000  135.8870 C   0  0  0  0  0  0  0  0  0  0  0  0
  189.3490  177.9050  137.5650 C   0  0  2  0  0  3  0  0  0  0  0  0
  192.5840  176.2550  137.1910 O   0  0  0  0  0  1  0  0  0  0  0  0
  190.6590  175.5560  135.2060 O   0  0  0  0  0  0  0  0  0  0  0  0
  188.9990  178.4360  136.2850 O   0  0  0  0  0  0  0  0  0  0  0  0
  190.1880  176.6570  137.3280 C   0  0  1  0  0  0  0  0  0  0  0  0
  191.5530  176.7490  137.9980 C   0  0  1  0  0  3  0  0  0  0  0  0
  190.8980  174.4130  137.8010 O   0  0  0  0  0  1  0  0  0  0  0  0
  189.4760  177.5590  135.3680 O   0  0  0  0  0  0  0  0  0  0  0  0
  184.7640  176.3820  137.2320 C   0  0  0  0  0  2  0  0  0  0  0  0
  184.4580  177.8040  137.3470 N   0  0  0  0  0  0  0  0  0  0  0  0
  186.8160  177.6300  137.5090 C   0  0  2  0  0  3  0  0  0  0  0  0
  185.6100  178.4050  138.0390 C   0  0  2  0  0  3  0  0  0  0  0  0
  186.2790  176.2300  137.2710 C   0  0  2  0  0  3  0  0  0  0  0  0
  186.7310  175.7530  136.0410 O   0  0  0  0  0  1  0  0  0  0  0  0
  185.1780  179.3510  140.2000 O   0  0  0  0  0  0  0  0  0  0  0  0
  185.5030  178.3650  139.5560 C   0  0  0  0  0  3  0  0  0  0  0  0
  183.1880  177.9620  138.0530 C   0  0  0  0  0  2  0  0  0  0  0  0
  182.4010  176.6630  138.0170 C   0  0  0  0  0  2  0  0  0  0  0  0
  182.0410  176.2840  139.3110 O   0  0  0  0  0  1  0  0  0  0  0  0
  187.9330  178.6540  139.4500 N   0  0  0  0  0  2  0  0  0  0  0  0
  189.0370  178.4730  140.3770 C   0  0  0  0  0  2  0  0  0  0  0  0
  188.7740  177.2660  141.2530 C   0  0  0  0  0  2  0  0  0  0  0  0
  187.7140  177.7460  142.6440 S   0  0  0  0  0  0  0  0  0  0  0  0
  188.7610  176.8750  143.8480 C   0  0  0  0  0  2  0  0  0  0  0  0
  189.2250  177.6900  147.2880 C   0  0  0  0  0  1  0  0  0  0  0  0
  189.3620  177.8650  144.8380 C   0  0  1  0  0  3  0  0  0  0  0  0
  189.8680  177.1260  146.0380 C   0  0  1  0  0  3  0  0  0  0  0  0
  191.9470  176.0870  146.2470 C   0  0  0  0  0  1  0  0  0  0  0  0
  191.6490  177.8360  144.7930 N   0  0  0  0  0  2  0  0  0  0  0  0
  190.5300  178.4990  144.2570 N   0  0  0  0  0  2  0  0  0  0  0  0
  191.2960  177.3730  146.0750 N   0  0  0  0  0  0  0  0  0  0  0  0
  1 23  1  1  0  0  0
  2 10  1  6  0  0  0
  4  1  1  6  0  0  0
  6  3  2  0  0  0  0
  7  4  1  0  0  0  0
  8  3  1  6  0  0  0
  8  4  1  0  0  0  0
  8  9  1  0  0  0  0
  8  2  1  0  0  0  0
  9  5  1  6  0  0  0
  9  2  1  0  0  0  0
 11  3  1  0  0  0  0
 11  7  1  0  0  0  0
 12 16  1  0  0  0  0
 12 13  1  0  0  0  0
 13 15  1  0  0  0  0
 13 20  1  0  0  0  0
 14 15  1  0  0  0  0
 14  1  1  1  0  0  0
 15 19  1  1  0  0  0
 16 17  1  6  0  0  0
 16 14  1  0  0  0  0
 19 18  2  0  0  0  0
 21 20  1  0  0  0  0
 21 22  1  0  0  0  0
 23 24  1  0  0  0  0
 24 25  1  0  0  0  0
 25 26  1  0  0  0  0
 26 27  1  0  0  0  0
 29 27  1  6  0  0  0
 29 30  1  0  0  0  0
 30 34  1  0  0  0  0
 30 28  1  1  0  0  0
 32 34  1  0  0  0  0
 33 32  1  0  0  0  0
 33 29  1  0  0  0  0
 34 31  1  0  0  0  0
M  END
>  <MODEL>
6

>  <REMARK>
 VINA RESULT:      -5.8      2.436      5.981
  Name = 
  11 active torsions:
  status: ('A' for Active; 'I' for Inactive)
    1  A    between atoms: C_3  and  C_13
    2  A    between atoms: C_3  and  S_17
    3  A    between atoms: C_4  and  C_31
    4  A    between atoms: N_5  and  C_18
    5  A    between atoms: N_5  and  C_31
    6  A    between atoms: N_8  and  C_27
    7  A    between atoms: C_12  and  C_27
    8  A    between atoms: S_17  and  C_29
    9  A    between atoms: C_18  and  C_29
   10  A    between atoms: C_21  and  C_31
   11  A    between atoms: C_26  and  C_28
                            x       y       z     vdW  Elec       q    Type
                         _______ _______ _______ _____ _____    ______ ____

>  <TORSDO>
F 11

$$$$
=
 OpenBabel10272400063D

 34 37  0  0  1  0  0  0  0  0999 V2000
  189.9410  176.0280  137.4000 C   0  0  2  0  0  3  0  0  0  0  0  0
  193.0650  176.1300  136.6820 C   0  0  2  0  0  3  0  0  0  0  0  0
  192.7580  176.9000  139.2260 C   0  0  0  0  0  0  0  0  0  0  0  0
  191.0360  175.5640  138.3750 C   0  0  2  0  0  3  0  0  0  0  0  0
  194.6640  175.1800  138.2430 O   0  0  0  0  0  1  0  0  0  0  0  0
  193.7710  177.6280  139.4030 O   0  0  0  0  0  0  0  0  0  0  0  0
  190.7070  175.9750  139.7030 O   0  0  0  0  0  0  0  0  0  0  0  0
  192.4220  176.1080  138.0590 C   0  0  1  0  0  0  0  0  0  0  0  0
  193.3970  175.0020  137.6750 C   0  0  1  0  0  3  0  0  0  0  0  0
  194.0790  177.0900  136.6260 O   0  0  0  0  0  1  0  0  0  0  0  0
  191.7240  176.7690  140.1180 O   0  0  0  0  0  0  0  0  0  0  0  0
  188.9870  172.7880  135.8090 C   0  0  0  0  0  2  0  0  0  0  0  0
  188.2900  173.7160  134.9240 N   0  0  0  0  0  0  0  0  0  0  0  0
  189.7550  175.0400  136.2350 C   0  0  2  0  0  3  0  0  0  0  0  0
  188.3730  175.0300  135.5820 C   0  0  2  0  0  3  0  0  0  0  0  0
  189.9860  173.5930  136.6300 C   0  0  2  0  0  3  0  0  0  0  0  0
  191.2840  173.2120  136.2900 O   0  0  0  0  0  1  0  0  0  0  0  0
  186.4930  176.2430  136.4440 O   0  0  0  0  0  0  0  0  0  0  0  0
  187.2490  175.2930  136.5730 C   0  0  0  0  0  3  0  0  0  0  0  0
  186.9250  173.2380  134.7140 C   0  0  0  0  0  2  0  0  0  0  0  0
  186.7200  171.9060  135.4150 C   0  0  0  0  0  2  0  0  0  0  0  0
  185.5380  171.9310  136.1560 O   0  0  0  0  0  1  0  0  0  0  0  0
  190.2220  177.3670  136.8910 N   0  0  0  0  0  2  0  0  0  0  0  0
  189.1060  178.2220  137.2610 C   0  0  0  0  0  2  0  0  0  0  0  0
  189.2550  178.6590  138.7030 C   0  0  0  0  0  2  0  0  0  0  0  0
  187.7950  178.1440  139.6460 S   0  0  0  0  0  0  0  0  0  0  0  0
  188.6440  178.3650  141.2380 C   0  0  0  0  0  2  0  0  0  0  0  0
  190.1720  175.6790  143.0160 C   0  0  0  0  0  1  0  0  0  0  0  0
  188.4130  177.1550  142.1320 C   0  0  1  0  0  3  0  0  0  0  0  0
  189.5280  177.0460  143.1250 C   0  0  1  0  0  3  0  0  0  0  0  0
  189.6800  178.1690  145.1650 C   0  0  0  0  0  1  0  0  0  0  0  0
  187.6400  177.7540  144.2010 N   0  0  0  0  0  2  0  0  0  0  0  0
  187.2120  177.3450  142.9240 N   0  0  0  0  0  2  0  0  0  0  0  0
  188.9070  177.1860  144.4280 N   0  0  0  0  0  0  0  0  0  0  0  0
  1 23  1  6  0  0  0
  2 10  1  1  0  0  0
  2  9  1  0  0  0  0
  2  8  1  0  0  0  0
  3  6  2  0  0  0  0
  3 11  1  0  0  0  0
  4  1  1  6  0  0  0
  4  7  1  0  0  0  0
  7 11  1  0  0  0  0
  8  4  1  0  0  0  0
  8  3  1  1  0  0  0
  9  8  1  0  0  0  0
  9  5  1  1  0  0  0
 12 16  1  0  0  0  0
 13 15  1  0  0  0  0
 13 12  1  0  0  0  0
 14 16  1  0  0  0  0
 14  1  1  1  0  0  0
 15 14  1  0  0  0  0
 15 19  1  1  0  0  0
 16 17  1  6  0  0  0
 18 19  2  0  0  0  0
 20 13  1  0  0  0  0
 20 21  1  0  0  0  0
 21 22  1  0  0  0  0
 23 24  1  0  0  0  0
 24 25  1  0  0  0  0
 25 26  1  0  0  0  0
 26 27  1  0  0  0  0
 29 27  1  6  0  0  0
 29 33  1  0  0  0  0
 29 30  1  0  0  0  0
 30 28  1  1  0  0  0
 30 34  1  0  0  0  0
 32 34  1  0  0  0  0
 33 32  1  0  0  0  0
 34 31  1  0  0  0  0
M  END
>  <MODEL>
7

>  <REMARK>
 VINA RESULT:      -5.8      2.415      5.510
  Name = 
  11 active torsions:
  status: ('A' for Active; 'I' for Inactive)
    1  A    between atoms: C_3  and  C_13
    2  A    between atoms: C_3  and  S_17
    3  A    between atoms: C_4  and  C_31
    4  A    between atoms: N_5  and  C_18
    5  A    between atoms: N_5  and  C_31
    6  A    between atoms: N_8  and  C_27
    7  A    between atoms: C_12  and  C_27
    8  A    between atoms: S_17  and  C_29
    9  A    between atoms: C_18  and  C_29
   10  A    between atoms: C_21  and  C_31
   11  A    between atoms: C_26  and  C_28
                            x       y       z     vdW  Elec       q    Type
                         _______ _______ _______ _____ _____    ______ ____

>  <TORSDO>
F 11

$$$$
=
 OpenBabel10272400063D

 34 37  0  0  1  0  0  0  0  0999 V2000
  189.2570  178.1500  141.2500 C   0  0  2  0  0  3  0  0  0  0  0  0
  188.4780  178.4040  138.1500 C   0  0  2  0  0  3  0  0  0  0  0  0
  190.5570  176.7340  138.3640 C   0  0  0  0  0  0  0  0  0  0  0  0
  189.2490  176.9470  140.2910 C   0  0  2  0  0  3  0  0  0  0  0  0
  188.3170  176.3880  136.8060 O   0  0  0  0  0  1  0  0  0  0  0  0
  191.1000  176.8470  137.2320 O   0  0  0  0  0  0  0  0  0  0  0  0
  190.3670  176.1020  140.5670 O   0  0  0  0  0  0  0  0  0  0  0  0
  189.3140  177.3260  138.8190 C   0  0  1  0  0  0  0  0  0  0  0  0
  188.0480  176.9290  138.0690 C   0  0  1  0  0  3  0  0  0  0  0  0
  189.0830  178.8370  136.9670 O   0  0  0  0  0  1  0  0  0  0  0  0
  191.0960  176.0520  139.4250 O   0  0  0  0  0  0  0  0  0  0  0  0
  190.1230  176.1050  144.2520 C   0  0  0  0  0  2  0  0  0  0  0  0
  190.2250  177.4430  144.8230 N   0  0  0  0  0  0  0  0  0  0  0  0
  189.1620  177.7110  142.7220 C   0  0  2  0  0  3  0  0  0  0  0  0
  190.1520  178.3700  143.6820 C   0  0  2  0  0  3  0  0  0  0  0  0
  189.3890  176.2230  142.9220 C   0  0  2  0  0  3  0  0  0  0  0  0
  188.1630  175.5650  143.0070 O   0  0  0  0  0  1  0  0  0  0  0  0
  192.0690  177.8220  142.3510 O   0  0  0  0  0  0  0  0  0  0  0  0
  191.5000  178.6560  143.0360 C   0  0  0  0  0  3  0  0  0  0  0  0
  191.4640  177.5400  145.5930 C   0  0  0  0  0  2  0  0  0  0  0  0
  191.7560  176.2200  146.2870 C   0  0  0  0  0  2  0  0  0  0  0  0
  192.1880  176.4500  147.5940 O   0  0  0  0  0  1  0  0  0  0  0  0
  188.1860  179.0880  140.9290 N   0  0  0  0  0  2  0  0  0  0  0  0
  186.9890  178.6430  141.6220 C   0  0  0  0  0  2  0  0  0  0  0  0
  185.8260  178.5990  140.6540 C   0  0  0  0  0  2  0  0  0  0  0  0
  184.2980  179.0500  141.5200 S   0  0  0  0  0  0  0  0  0  0  0  0
  185.1790  179.3740  143.0760 C   0  0  0  0  0  2  0  0  0  0  0  0
  186.6160  177.0100  145.3250 C   0  0  0  0  0  1  0  0  0  0  0  0
  184.9030  178.2630  144.0800 C   0  0  1  0  0  3  0  0  0  0  0  0
  185.8990  178.3380  145.1950 C   0  0  1  0  0  3  0  0  0  0  0  0
  185.7580  179.6960  147.0870 C   0  0  0  0  0  1  0  0  0  0  0  0
  183.8660  179.0480  145.9620 N   0  0  0  0  0  2  0  0  0  0  0  0
  183.6110  178.4690  144.7050 N   0  0  0  0  0  2  0  0  0  0  0  0
  185.1240  178.5890  146.3950 N   0  0  0  0  0  0  0  0  0  0  0  0
  1 23  1  6  0  0  0
  2 10  1  6  0  0  0
  2  8  1  0  0  0  0
  3 11  1  0  0  0  0
  4  7  1  0  0  0  0
  4  1  1  1  0  0  0
  6  3  2  0  0  0  0
  8  3  1  6  0  0  0
  8  4  1  0  0  0  0
  9  5  1  6  0  0  0
  9  2  1  0  0  0  0
  9  8  1  0  0  0  0
 11  7  1  0  0  0  0
 12 13  1  0  0  0  0
 13 20  1  0  0  0  0
 14  1  1  6  0  0  0
 14 16  1  0  0  0  0
 14 15  1  0  0  0  0
 15 19  1  6  0  0  0
 15 13  1  0  0  0  0
 16 17  1  1  0  0  0
 16 12  1  0  0  0  0
 18 19  2  0  0  0  0
 20 21  1  0  0  0  0
 21 22  1  0  0  0  0
 23 24  1  0  0  0  0
 25 26  1  0  0  0  0
 25 24  1  0  0  0  0
 26 27  1  0  0  0  0
 29 27  1  6  0  0  0
 29 33  1  0  0  0  0
 29 30  1  0  0  0  0
 30 28  1  1  0  0  0
 30 34  1  0  0  0  0
 32 34  1  0  0  0  0
 33 32  1  0  0  0  0
 34 31  1  0  0  0  0
M  END
>  <MODEL>
8

>  <REMARK>
 VINA RESULT:      -5.7      3.499      6.311
  Name = 
  11 active torsions:
  status: ('A' for Active; 'I' for Inactive)
    1  A    between atoms: C_3  and  C_13
    2  A    between atoms: C_3  and  S_17
    3  A    between atoms: C_4  and  C_31
    4  A    between atoms: N_5  and  C_18
    5  A    between atoms: N_5  and  C_31
    6  A    between atoms: N_8  and  C_27
    7  A    between atoms: C_12  and  C_27
    8  A    between atoms: S_17  and  C_29
    9  A    between atoms: C_18  and  C_29
   10  A    between atoms: C_21  and  C_31
   11  A    between atoms: C_26  and  C_28
                            x       y       z     vdW  Elec       q    Type
                         _______ _______ _______ _____ _____    ______ ____

>  <TORSDO>
F 11

$$$$
=
 OpenBabel10272400063D

 34 37  0  0  1  0  0  0  0  0999 V2000
  190.9410  176.5860  136.9760 C   0  0  2  0  0  3  0  0  0  0  0  0
  187.7880  176.3000  137.4870 C   0  0  2  0  0  3  0  0  0  0  0  0
  188.1550  177.7230  135.2520 C   0  0  0  0  0  0  0  0  0  0  0  0
  189.9340  176.3230  135.8440 C   0  0  2  0  0  3  0  0  0  0  0  0
  186.3450  175.6890  135.6320 O   0  0  0  0  0  1  0  0  0  0  0  0
  187.0980  178.4060  135.1990 O   0  0  0  0  0  0  0  0  0  0  0  0
  190.2930  177.0860  134.6900 O   0  0  0  0  0  0  0  0  0  0  0  0
  188.4960  176.6780  136.1960 C   0  0  1  0  0  0  0  0  0  0  0  0
  187.5930  175.4510  136.2190 C   0  0  1  0  0  3  0  0  0  0  0  0
  186.7010  177.1470  137.7200 O   0  0  0  0  0  1  0  0  0  0  0  0
  189.2380  177.8940  134.4260 O   0  0  0  0  0  0  0  0  0  0  0  0
  192.4300  173.1820  136.6140 C   0  0  0  0  0  2  0  0  0  0  0  0
  193.4700  173.8260  137.4100 N   0  0  0  0  0  0  0  0  0  0  0  0
  191.6050  175.2870  137.4660 C   0  0  2  0  0  3  0  0  0  0  0  0
  193.1330  175.2590  137.4200 C   0  0  2  0  0  3  0  0  0  0  0  0
  191.1890  174.0620  136.6730 C   0  0  2  0  0  3  0  0  0  0  0  0
  190.1710  173.3870  137.3450 O   0  0  0  0  0  1  0  0  0  0  0  0
  194.5220  176.9230  136.3970 O   0  0  0  0  0  0  0  0  0  0  0  0
  193.7030  176.0320  136.2400 C   0  0  0  0  0  3  0  0  0  0  0  0
  194.7740  173.5230  136.8250 C   0  0  0  0  0  2  0  0  0  0  0  0
  195.8690  173.6860  137.8660 C   0  0  0  0  0  2  0  0  0  0  0  0
  196.1850  172.4480  138.4280 O   0  0  0  0  0  1  0  0  0  0  0  0
  190.3110  177.2870  138.0910 N   0  0  0  0  0  2  0  0  0  0  0  0
  190.6530  176.5740  139.3100 C   0  0  0  0  0  2  0  0  0  0  0  0
  190.6250  177.5290  140.4840 C   0  0  0  0  0  2  0  0  0  0  0  0
  189.0900  177.2940  141.4200 S   0  0  0  0  0  0  0  0  0  0  0  0
  189.8880  176.1670  142.6030 C   0  0  0  0  0  2  0  0  0  0  0  0
  191.2160  179.1600  144.0130 C   0  0  0  0  0  1  0  0  0  0  0  0
  191.1080  176.8320  143.2240 C   0  0  1  0  0  3  0  0  0  0  0  0
  190.6700  177.7760  144.3000 C   0  0  1  0  0  3  0  0  0  0  0  0
  190.1940  177.2240  146.5170 C   0  0  0  0  0  1  0  0  0  0  0  0
  191.6240  175.9370  145.2660 N   0  0  0  0  0  2  0  0  0  0  0  0
  191.9260  175.8390  143.8950 N   0  0  0  0  0  2  0  0  0  0  0  0
  191.2550  177.2700  145.5260 N   0  0  0  0  0  0  0  0  0  0  0  0
  1 23  1  1  0  0  0
  2 10  1  6  0  0  0
  4  8  1  0  0  0  0
  4  1  1  1  0  0  0
  6  3  2  0  0  0  0
  7  4  1  0  0  0  0
  8  3  1  6  0  0  0
  8  9  1  0  0  0  0
  8  2  1  0  0  0  0
  9  5  1  6  0  0  0
  9  2  1  0  0  0  0
 11  7  1  0  0  0  0
 11  3  1  0  0  0  0
 12 16  1  0  0  0  0
 12 13  1  0  0  0  0
 13 15  1  0  0  0  0
 14  1  1  6  0  0  0
 15 19  1  6  0  0  0
 15 14  1  0  0  0  0
 16 17  1  1  0  0  0
 16 14  1  0  0  0  0
 19 18  2  0  0  0  0
 20 13  1  0  0  0  0
 20 21  1  0  0  0  0
 21 22  1  0  0  0  0
 23 24  1  0  0  0  0
 24 25  1  0  0  0  0
 25 26  1  0  0  0  0
 26 27  1  0  0  0  0
 29 27  1  1  0  0  0
 29 33  1  0  0  0  0
 29 30  1  0  0  0  0
 30 28  1  6  0  0  0
 30 34  1  0  0  0  0
 32 34  1  0  0  0  0
 33 32  1  0  0  0  0
 34 31  1  0  0  0  0
M  END
>  <MODEL>
9

>  <REMARK>
 VINA RESULT:      -5.7      1.741      2.045
  Name = 
  11 active torsions:
  status: ('A' for Active; 'I' for Inactive)
    1  A    between atoms: C_3  and  C_13
    2  A    between atoms: C_3  and  S_17
    3  A    between atoms: C_4  and  C_31
    4  A    between atoms: N_5  and  C_18
    5  A    between atoms: N_5  and  C_31
    6  A    between atoms: N_8  and  C_27
    7  A    between atoms: C_12  and  C_27
    8  A    between atoms: S_17  and  C_29
    9  A    between atoms: C_18  and  C_29
   10  A    between atoms: C_21  and  C_31
   11  A    between atoms: C_26  and  C_28
                            x       y       z     vdW  Elec       q    Type
                         _______ _______ _______ _____ _____    ______ ____

>  <TORSDO>
F 11

$$$$
