=
 OpenBabel10272413223D

 32 38  0  0  1  0  0  0  0  0999 V2000
  186.8590  177.5150  136.8850 C   0  0  0  0  0  3  0  0  0  0  0  0
  187.6040  178.0360  142.1310 C   0  0  0  0  0  0  0  0  0  0  0  0
  183.0340  179.0650  143.5150 C   0  0  0  0  0  3  0  0  0  0  0  0
  183.3920  178.8740  144.8490 C   0  0  0  0  0  3  0  0  0  0  0  0
  189.3620  177.4770  143.9120 C   0  0  0  0  0  0  0  0  0  0  0  0
  189.5980  177.2990  145.3420 C   0  0  0  0  0  0  0  0  0  0  0  0
  188.2380  178.4130  139.7060 C   0  0  2  0  0  3  0  0  0  0  0  0
  185.8740  178.6780  140.3670 C   0  0  0  0  0  2  0  0  0  0  0  0
  189.0410  177.2590  147.5840 C   0  0  0  0  0  0  0  0  0  0  0  0
  186.4420  178.4940  137.9540 C   0  0  0  0  0  2  0  0  0  0  0  0
  183.9860  178.9040  142.5080 C   0  0  0  0  0  3  0  0  0  0  0  0
  186.2670  178.3800  141.8000 C   0  0  0  0  0  0  0  0  0  0  0  0
  185.3100  178.5470  142.8180 C   0  0  0  0  0  0  0  0  0  0  0  0
  186.9850  178.0080  144.5120 C   0  0  0  0  0  0  0  0  0  0  0  0
  190.4910  176.9130  147.4710 C   0  0  0  0  0  2  0  0  0  0  0  0
  188.9530  176.6710  138.0200 C   0  0  0  0  0  2  0  0  0  0  0  0
  186.8010  178.0270  139.3560 C   0  0  1  0  0  3  0  0  0  0  0  0
  190.7240  176.9760  145.9740 C   0  0  0  0  0  3  0  0  0  0  0  0
  189.2570  178.0350  138.6250 C   0  0  0  0  0  2  0  0  0  0  0  0
  187.9660  176.7410  136.8740 C   0  0  0  0  0  0  0  0  0  0  0  0
  184.7020  178.5210  145.1750 C   0  0  0  0  0  3  0  0  0  0  0  0
  185.6700  178.3550  144.1720 C   0  0  0  0  0  0  0  0  0  0  0  0
  187.3230  177.8150  145.9060 N   0  0  0  0  0  0  0  0  0  0  0  0
  188.6060  177.7610  141.0300 C   0  0  0  0  0  2  0  0  0  0  0  0
  190.3090  177.3290  143.0930 O   0  0  0  0  0  0  0  0  0  0  0  0
  188.3850  177.3370  148.6550 O   0  0  0  0  0  0  0  0  0  0  0  0
  187.9700  177.8450  143.4900 C   0  0  0  0  0  0  0  0  0  0  0  0
  188.5260  177.4890  146.2620 C   0  0  0  0  0  0  0  0  0  0  0  0
  187.8210  174.4760  135.8290 C   0  0  0  0  0  0  0  0  0  0  0  0
  188.2600  175.9340  135.6360 C   0  0  1  0  0  3  0  0  0  0  0  0
  187.9660  173.3610  136.3010 O   0  0  0  0  0  0  0  0  0  0  0  0
  187.0540  175.4960  134.9960 C   0  0  0  0  0  2  0  0  0  0  0  0
  1 10  1  0  0  0  0
  2 27  1  0  0  0  0
  3  4  1  0  0  0  0
  4 21  2  0  0  0  0
  5  6  1  0  0  0  0
  6 18  2  0  0  0  0
  6 28  1  0  0  0  0
  7 19  1  6  0  0  0
  7 24  1  0  0  0  0
  8 12  1  0  0  0  0
  9 26  2  0  0  0  0
 11 13  1  0  0  0  0
 11  3  2  0  0  0  0
 12  2  2  0  0  0  0
 12 13  1  0  0  0  0
 13 22  2  0  0  0  0
 14 23  1  0  0  0  0
 15  9  1  0  0  0  0
 16 19  1  0  0  0  0
 17 10  1  6  0  0  0
 17  7  1  0  0  0  0
 17  8  1  0  0  0  0
 18 15  1  0  0  0  0
 20  1  2  0  0  0  0
 20 16  1  0  0  0  0
 22 14  1  0  0  0  0
 22 21  1  0  0  0  0
 23 28  2  0  0  0  0
 24  2  1  0  0  0  0
 25  5  2  0  0  0  0
 27  5  1  0  0  0  0
 27 14  2  0  0  0  0
 28  9  1  0  0  0  0
 29 31  2  0  0  0  0
 30 29  1  0  0  0  0
 30 20  1  1  0  0  0
 32 30  1  0  0  0  0
 32 29  1  0  0  0  0
M  END
>  <MODEL>
1

>  <REMARK>
 VINA RESULT:     -11.5      0.000      0.000
  Name = 
  1 active torsions:
  status: ('A' for Active; 'I' for Inactive)
    1  A    between atoms: C_10  and  C_24
                            x       y       z     vdW  Elec       q    Type
                         _______ _______ _______ _____ _____    ______ ____

>  <TORSDO>
F 1

$$$$
=
 OpenBabel10272413223D

 32 38  0  0  1  0  0  0  0  0999 V2000
  189.4910  176.5270  136.4580 C   0  0  0  0  0  3  0  0  0  0  0  0
  189.3310  177.4540  141.6980 C   0  0  0  0  0  0  0  0  0  0  0  0
  184.6910  178.9150  142.1360 C   0  0  0  0  0  3  0  0  0  0  0  0
  184.7880  178.8170  143.5230 C   0  0  0  0  0  3  0  0  0  0  0  0
  190.6900  176.9330  143.8090 C   0  0  0  0  0  0  0  0  0  0  0  0
  190.6520  176.8660  145.2670 C   0  0  0  0  0  0  0  0  0  0  0  0
  190.4170  177.5720  139.4100 C   0  0  2  0  0  3  0  0  0  0  0  0
  188.0030  178.0570  139.6030 C   0  0  0  0  0  2  0  0  0  0  0  0
  189.7040  177.0620  147.3640 C   0  0  0  0  0  0  0  0  0  0  0  0
  188.9740  177.6230  137.3560 C   0  0  0  0  0  2  0  0  0  0  0  0
  185.7890  178.6000  141.3360 C   0  0  0  0  0  3  0  0  0  0  0  0
  188.1080  177.8590  141.1020 C   0  0  0  0  0  0  0  0  0  0  0  0
  187.0030  178.1810  141.9110 C   0  0  0  0  0  0  0  0  0  0  0  0
  188.2980  177.6780  143.9200 C   0  0  0  0  0  0  0  0  0  0  0  0
  191.1160  176.6080  147.5470 C   0  0  0  0  0  2  0  0  0  0  0  0
  191.2700  175.6430  138.0180 C   0  0  0  0  0  2  0  0  0  0  0  0
  189.0370  177.2570  138.8300 C   0  0  1  0  0  3  0  0  0  0  0  0
  191.6160  176.5220  146.1180 C   0  0  0  0  0  3  0  0  0  0  0  0
  191.5760  177.0310  138.5660 C   0  0  0  0  0  2  0  0  0  0  0  0
  190.5130  175.6800  136.7080 C   0  0  0  0  0  0  0  0  0  0  0  0
  185.9850  178.4040  144.1110 C   0  0  0  0  0  3  0  0  0  0  0  0
  187.0980  178.0840  143.3180 C   0  0  0  0  0  0  0  0  0  0  0  0
  188.3650  177.5860  145.3630 N   0  0  0  0  0  0  0  0  0  0  0  0
  190.4860  177.0140  140.8240 C   0  0  0  0  0  2  0  0  0  0  0  0
  191.7520  176.6490  143.1920 O   0  0  0  0  0  0  0  0  0  0  0  0
  188.8760  177.2780  148.2880 O   0  0  0  0  0  0  0  0  0  0  0  0
  189.4320  177.3580  143.1110 C   0  0  0  0  0  0  0  0  0  0  0  0
  189.4530  177.2100  145.9570 C   0  0  0  0  0  0  0  0  0  0  0  0
  192.3000  175.2020  135.0290 C   0  0  0  0  0  0  0  0  0  0  0  0
  190.9530  174.7490  135.6080 C   0  0  1  0  0  3  0  0  0  0  0  0
  192.9840  175.9480  134.3480 O   0  0  0  0  0  0  0  0  0  0  0  0
  192.1320  174.0210  135.9760 C   0  0  0  0  0  2  0  0  0  0  0  0
  1 20  2  0  0  0  0
  1 10  1  0  0  0  0
  2 27  1  0  0  0  0
  3  4  1  0  0  0  0
  4 21  2  0  0  0  0
  5  6  1  0  0  0  0
  6 28  1  0  0  0  0
  6 18  2  0  0  0  0
  7 19  1  6  0  0  0
  7 24  1  0  0  0  0
  8 12  1  0  0  0  0
  9 15  1  0  0  0  0
  9 26  2  0  0  0  0
 11 13  1  0  0  0  0
 11  3  2  0  0  0  0
 12  2  2  0  0  0  0
 12 13  1  0  0  0  0
 13 22  2  0  0  0  0
 14 23  1  0  0  0  0
 16 19  1  0  0  0  0
 17 10  1  6  0  0  0
 17  7  1  0  0  0  0
 17  8  1  0  0  0  0
 18 15  1  0  0  0  0
 20 16  1  0  0  0  0
 22 14  1  0  0  0  0
 22 21  1  0  0  0  0
 23 28  2  0  0  0  0
 24  2  1  0  0  0  0
 25  5  2  0  0  0  0
 27  5  1  0  0  0  0
 27 14  2  0  0  0  0
 28  9  1  0  0  0  0
 29 30  1  0  0  0  0
 29 32  1  0  0  0  0
 30 32  1  0  0  0  0
 30 20  1  1  0  0  0
 31 29  2  0  0  0  0
M  END
>  <MODEL>
2

>  <REMARK>
 VINA RESULT:     -10.9      1.972      2.483
  Name = 
  1 active torsions:
  status: ('A' for Active; 'I' for Inactive)
    1  A    between atoms: C_10  and  C_24
                            x       y       z     vdW  Elec       q    Type
                         _______ _______ _______ _____ _____    ______ ____

>  <TORSDO>
F 1

$$$$
=
 OpenBabel10272413223D

 32 38  0  0  1  0  0  0  0  0999 V2000
  183.2620  178.7880  145.0500 C   0  0  0  0  0  3  0  0  0  0  0  0
  187.7210  178.0510  142.2350 C   0  0  0  0  0  0  0  0  0  0  0  0
  190.6840  176.4700  145.7820 C   0  0  0  0  0  3  0  0  0  0  0  0
  191.6250  176.0850  144.8280 C   0  0  0  0  0  3  0  0  0  0  0  0
  188.4690  177.8550  139.7900 C   0  0  0  0  0  0  0  0  0  0  0  0
  189.5330  177.3990  138.9000 C   0  0  0  0  0  0  0  0  0  0  0  0
  185.6480  179.3550  142.8930 C   0  0  2  0  0  3  0  0  0  0  0  0
  187.0160  178.3260  144.6730 C   0  0  0  0  0  2  0  0  0  0  0  0
  191.5780  176.4700  138.3590 C   0  0  0  0  0  0  0  0  0  0  0  0
  184.7240  179.1210  145.2150 C   0  0  0  0  0  2  0  0  0  0  0  0
  189.4810  177.0510  145.3800 C   0  0  0  0  0  3  0  0  0  0  0  0
  187.9830  177.8370  143.6140 C   0  0  0  0  0  0  0  0  0  0  0  0
  189.1990  177.2560  144.0170 C   0  0  0  0  0  0  0  0  0  0  0  0
  189.9070  177.0640  141.6870 C   0  0  0  0  0  0  0  0  0  0  0  0
  190.9050  176.8610  137.0820 C   0  0  0  0  0  2  0  0  0  0  0  0
  183.2380  178.6880  142.5260 C   0  0  0  0  0  2  0  0  0  0  0  0
  185.6000  178.4830  144.1490 C   0  0  1  0  0  3  0  0  0  0  0  0
  189.5970  177.4500  137.5720 C   0  0  0  0  0  3  0  0  0  0  0  0
  184.2670  179.8040  142.4040 C   0  0  0  0  0  2  0  0  0  0  0  0
  182.5860  178.6340  143.8900 C   0  0  0  0  0  0  0  0  0  0  0  0
  191.3620  176.2810  143.4710 C   0  0  0  0  0  3  0  0  0  0  0  0
  190.1560  176.8650  143.0530 C   0  0  0  0  0  0  0  0  0  0  0  0
  190.9040  176.6510  140.7230 N   0  0  0  0  0  0  0  0  0  0  0  0
  186.3740  178.5860  141.7990 C   0  0  0  0  0  2  0  0  0  0  0  0
  187.4340  178.3920  139.3120 O   0  0  0  0  0  0  0  0  0  0  0  0
  192.7110  175.9310  138.4580 O   0  0  0  0  0  0  0  0  0  0  0  0
  188.6810  177.6630  141.2630 C   0  0  0  0  0  0  0  0  0  0  0  0
  190.7100  176.8130  139.4520 C   0  0  0  0  0  0  0  0  0  0  0  0
  180.3760  179.5210  143.1360 C   0  0  0  0  0  0  0  0  0  0  0  0
  181.0940  178.4400  143.9550 C   0  0  1  0  0  3  0  0  0  0  0  0
  179.9820  180.6630  142.9700 O   0  0  0  0  0  0  0  0  0  0  0  0
  180.5540  178.0790  142.6770 C   0  0  0  0  0  2  0  0  0  0  0  0
  1 10  1  0  0  0  0
  2 12  1  0  0  0  0
  4  3  1  0  0  0  0
  5 27  1  0  0  0  0
  6 28  1  0  0  0  0
  6  5  1  0  0  0  0
  7 24  1  6  0  0  0
  7 17  1  0  0  0  0
  9 26  2  0  0  0  0
  9 28  1  0  0  0  0
 11  3  2  0  0  0  0
 12 13  2  0  0  0  0
 12  8  1  0  0  0  0
 13 11  1  0  0  0  0
 14 22  2  0  0  0  0
 15 18  1  0  0  0  0
 15  9  1  0  0  0  0
 16 20  1  0  0  0  0
 17  8  1  1  0  0  0
 17 10  1  0  0  0  0
 18  6  2  0  0  0  0
 19 16  1  0  0  0  0
 19  7  1  0  0  0  0
 20  1  2  0  0  0  0
 21  4  2  0  0  0  0
 22 21  1  0  0  0  0
 22 13  1  0  0  0  0
 23 14  1  0  0  0  0
 24  2  1  0  0  0  0
 25  5  2  0  0  0  0
 27 14  1  0  0  0  0
 27  2  2  0  0  0  0
 28 23  2  0  0  0  0
 29 30  1  0  0  0  0
 30 20  1  6  0  0  0
 31 29  2  0  0  0  0
 32 29  1  0  0  0  0
 32 30  1  0  0  0  0
M  END
>  <MODEL>
3

>  <REMARK>
 VINA RESULT:     -10.8      2.893      7.504
  Name = 
  1 active torsions:
  status: ('A' for Active; 'I' for Inactive)
    1  A    between atoms: C_10  and  C_24
                            x       y       z     vdW  Elec       q    Type
                         _______ _______ _______ _____ _____    ______ ____

>  <TORSDO>
F 1

$$$$
=
 OpenBabel10272413223D

 32 38  0  0  1  0  0  0  0  0999 V2000
  180.7090  178.2390  140.3840 C   0  0  0  0  0  3  0  0  0  0  0  0
  185.7670  178.3760  142.0420 C   0  0  0  0  0  0  0  0  0  0  0  0
  185.0500  178.4130  146.8740 C   0  0  0  0  0  3  0  0  0  0  0  0
  186.4060  178.1620  147.0790 C   0  0  0  0  0  3  0  0  0  0  0  0
  188.1280  177.9780  141.1230 C   0  0  0  0  0  0  0  0  0  0  0  0
  189.5180  177.7090  141.4800 C   0  0  0  0  0  0  0  0  0  0  0  0
  183.8570  179.0960  140.5390 C   0  0  2  0  0  3  0  0  0  0  0  0
  183.4340  178.8590  142.9600 C   0  0  0  0  0  2  0  0  0  0  0  0
  191.2990  177.3510  142.9080 C   0  0  0  0  0  0  0  0  0  0  0  0
  181.5020  179.0160  141.4040 C   0  0  0  0  0  2  0  0  0  0  0  0
  184.5510  178.5260  145.5760 C   0  0  0  0  0  3  0  0  0  0  0  0
  184.8940  178.5000  143.1550 C   0  0  0  0  0  0  0  0  0  0  0  0
  185.4000  178.3900  144.4630 C   0  0  0  0  0  0  0  0  0  0  0  0
  187.6470  178.0050  143.5850 C   0  0  0  0  0  0  0  0  0  0  0  0
  191.8200  177.2890  141.5080 C   0  0  0  0  0  2  0  0  0  0  0  0
  182.6300  177.6860  138.8380 C   0  0  0  0  0  2  0  0  0  0  0  0
  182.9170  178.4890  141.5810 C   0  0  1  0  0  3  0  0  0  0  0  0
  190.5710  177.5380  140.6850 C   0  0  0  0  0  3  0  0  0  0  0  0
  183.3180  179.0170  139.1060 C   0  0  0  0  0  2  0  0  0  0  0  0
  181.1710  177.6840  139.2410 C   0  0  0  0  0  0  0  0  0  0  0  0
  187.2630  178.0250  145.9860 C   0  0  0  0  0  3  0  0  0  0  0  0
  186.7750  178.1370  144.6750 C   0  0  0  0  0  0  0  0  0  0  0  0
  189.0480  177.7430  143.8340 N   0  0  0  0  0  0  0  0  0  0  0  0
  185.2040  178.3970  140.6370 C   0  0  0  0  0  2  0  0  0  0  0  0
  187.7970  178.0860  139.9120 O   0  0  0  0  0  0  0  0  0  0  0  0
  191.9820  177.2030  143.9540 O   0  0  0  0  0  0  0  0  0  0  0  0
  187.1490  178.1240  142.2510 C   0  0  0  0  0  0  0  0  0  0  0  0
  189.8860  177.6090  142.8540 C   0  0  0  0  0  0  0  0  0  0  0  0
  180.2230  177.7730  136.9310 C   0  0  0  0  0  0  0  0  0  0  0  0
  180.1740  177.0690  138.2940 C   0  0  1  0  0  3  0  0  0  0  0  0
  179.9820  178.7160  136.1960 O   0  0  0  0  0  0  0  0  0  0  0  0
  180.8260  176.4000  137.2060 C   0  0  0  0  0  2  0  0  0  0  0  0
  1 10  1  0  0  0  0
  2 27  2  0  0  0  0
  2 12  1  0  0  0  0
  3  4  1  0  0  0  0
  5  6  1  0  0  0  0
  5 27  1  0  0  0  0
  6 28  1  0  0  0  0
  7 19  1  6  0  0  0
  7 24  1  0  0  0  0
  7 17  1  0  0  0  0
  8 12  1  0  0  0  0
  9 26  2  0  0  0  0
 11  3  2  0  0  0  0
 12 13  2  0  0  0  0
 13 22  1  0  0  0  0
 13 11  1  0  0  0  0
 14 23  1  0  0  0  0
 14 22  2  0  0  0  0
 15  9  1  0  0  0  0
 16 19  1  0  0  0  0
 16 20  1  0  0  0  0
 17 10  1  6  0  0  0
 17  8  1  0  0  0  0
 18  6  2  0  0  0  0
 18 15  1  0  0  0  0
 20  1  2  0  0  0  0
 21  4  2  0  0  0  0
 22 21  1  0  0  0  0
 24  2  1  0  0  0  0
 25  5  2  0  0  0  0
 27 14  1  0  0  0  0
 28  9  1  0  0  0  0
 28 23  2  0  0  0  0
 29 32  1  0  0  0  0
 29 30  1  0  0  0  0
 30 20  1  1  0  0  0
 31 29  2  0  0  0  0
 32 30  1  0  0  0  0
M  END
>  <MODEL>
4

>  <REMARK>
 VINA RESULT:     -10.3      3.254      5.052
  Name = 
  1 active torsions:
  status: ('A' for Active; 'I' for Inactive)
    1  A    between atoms: C_10  and  C_24
                            x       y       z     vdW  Elec       q    Type
                         _______ _______ _______ _____ _____    ______ ____

>  <TORSDO>
F 1

$$$$
=
 OpenBabel10272413223D

 32 38  0  0  1  0  0  0  0  0999 V2000
  182.6890  178.3040  138.0740 C   0  0  0  0  0  3  0  0  0  0  0  0
  186.4400  178.1280  141.8480 C   0  0  0  0  0  0  0  0  0  0  0  0
  183.6640  178.8350  145.8040 C   0  0  0  0  0  3  0  0  0  0  0  0
  184.7340  178.4750  146.6220 C   0  0  0  0  0  3  0  0  0  0  0  0
  188.8760  177.3800  142.1370 C   0  0  0  0  0  0  0  0  0  0  0  0
  189.9060  177.0160  143.1070 C   0  0  0  0  0  0  0  0  0  0  0  0
  185.5270  178.8480  139.5950 C   0  0  2  0  0  3  0  0  0  0  0  0
  184.0430  178.9570  141.5650 C   0  0  0  0  0  2  0  0  0  0  0  0
  190.7920  176.6570  145.2100 C   0  0  0  0  0  0  0  0  0  0  0  0
  183.0500  179.1170  139.2920 C   0  0  0  0  0  2  0  0  0  0  0  0
  183.8180  178.8380  144.4170 C   0  0  0  0  0  3  0  0  0  0  0  0
  185.1930  178.4770  142.4280 C   0  0  0  0  0  0  0  0  0  0  0  0
  185.0420  178.4790  143.8270 C   0  0  0  0  0  0  0  0  0  0  0  0
  187.3610  177.7600  144.1000 C   0  0  0  0  0  0  0  0  0  0  0  0
  191.8660  176.3700  144.2100 C   0  0  0  0  0  2  0  0  0  0  0  0
  184.9920  177.3710  137.6150 C   0  0  0  0  0  2  0  0  0  0  0  0
  184.1440  178.4740  140.1290 C   0  0  1  0  0  3  0  0  0  0  0  0
  191.1650  176.6410  142.8940 C   0  0  0  0  0  3  0  0  0  0  0  0
  185.6770  178.6480  138.0830 C   0  0  0  0  0  2  0  0  0  0  0  0
  183.5230  177.5690  137.3070 C   0  0  0  0  0  0  0  0  0  0  0  0
  185.9570  178.1160  146.0530 C   0  0  0  0  0  3  0  0  0  0  0  0
  186.1250  178.1140  144.6600 C   0  0  0  0  0  0  0  0  0  0  0  0
  188.4500  177.3890  144.9780 N   0  0  0  0  0  0  0  0  0  0  0  0
  186.5710  178.0320  140.3430 C   0  0  0  0  0  2  0  0  0  0  0  0
  189.1380  177.3710  140.9050 O   0  0  0  0  0  0  0  0  0  0  0  0
  190.9090  176.5710  146.4600 O   0  0  0  0  0  0  0  0  0  0  0  0
  187.5320  177.7640  142.6810 C   0  0  0  0  0  0  0  0  0  0  0  0
  189.6060  177.0500  144.5000 C   0  0  0  0  0  0  0  0  0  0  0  0
  182.6500  175.4640  136.2820 C   0  0  0  0  0  0  0  0  0  0  0  0
  182.9730  176.9460  136.0500 C   0  0  1  0  0  3  0  0  0  0  0  0
  182.9800  174.3000  136.4300 O   0  0  0  0  0  0  0  0  0  0  0  0
  181.6000  176.5660  136.2090 C   0  0  0  0  0  2  0  0  0  0  0  0
  1 10  1  0  0  0  0
  2 12  2  0  0  0  0
  2 27  1  0  0  0  0
  3  4  1  0  0  0  0
  5 27  1  0  0  0  0
  5  6  1  0  0  0  0
  6 28  1  0  0  0  0
  7 19  1  6  0  0  0
  7 17  1  0  0  0  0
  7 24  1  0  0  0  0
  8 12  1  0  0  0  0
  9 26  2  0  0  0  0
 11  3  2  0  0  0  0
 12 13  1  0  0  0  0
 13 11  1  0  0  0  0
 13 22  2  0  0  0  0
 14 22  1  0  0  0  0
 14 23  1  0  0  0  0
 15  9  1  0  0  0  0
 16 19  1  0  0  0  0
 17 10  1  6  0  0  0
 17  8  1  0  0  0  0
 18  6  2  0  0  0  0
 18 15  1  0  0  0  0
 20 16  1  0  0  0  0
 20  1  2  0  0  0  0
 21  4  2  0  0  0  0
 22 21  1  0  0  0  0
 24  2  1  0  0  0  0
 25  5  2  0  0  0  0
 27 14  2  0  0  0  0
 28 23  2  0  0  0  0
 28  9  1  0  0  0  0
 29 31  2  0  0  0  0
 30 32  1  0  0  0  0
 30 29  1  0  0  0  0
 30 20  1  1  0  0  0
 32 29  1  0  0  0  0
M  END
>  <MODEL>
5

>  <REMARK>
 VINA RESULT:     -10.0      2.351      3.120
  Name = 
  1 active torsions:
  status: ('A' for Active; 'I' for Inactive)
    1  A    between atoms: C_10  and  C_24
                            x       y       z     vdW  Elec       q    Type
                         _______ _______ _______ _____ _____    ______ ____

>  <TORSDO>
F 1

$$$$
=
 OpenBabel10272413223D

 32 38  0  0  1  0  0  0  0  0999 V2000
  191.8990  176.7150  144.4050 C   0  0  0  0  0  3  0  0  0  0  0  0
  187.0830  178.2780  142.7590 C   0  0  0  0  0  0  0  0  0  0  0  0
  187.7920  178.1840  137.9270 C   0  0  0  0  0  3  0  0  0  0  0  0
  186.4210  178.3230  137.7210 C   0  0  0  0  0  3  0  0  0  0  0  0
  184.7030  178.5380  143.6770 C   0  0  0  0  0  0  0  0  0  0  0  0
  183.2930  178.6710  143.3190 C   0  0  0  0  0  0  0  0  0  0  0  0
  189.1150  178.4160  144.2690 C   0  0  2  0  0  3  0  0  0  0  0  0
  189.4600  178.1060  141.8440 C   0  0  0  0  0  2  0  0  0  0  0  0
  181.4860  178.8440  141.8900 C   0  0  0  0  0  0  0  0  0  0  0  0
  191.3560  177.6980  143.3980 C   0  0  0  0  0  2  0  0  0  0  0  0
  188.3000  178.1350  139.2260 C   0  0  0  0  0  3  0  0  0  0  0  0
  187.9590  178.1700  141.6470 C   0  0  0  0  0  0  0  0  0  0  0  0
  187.4440  178.2240  140.3380 C   0  0  0  0  0  0  0  0  0  0  0  0
  185.1770  178.4660  141.2150 C   0  0  0  0  0  0  0  0  0  0  0  0
  180.9650  178.9080  143.2900 C   0  0  0  0  0  2  0  0  0  0  0  0
  189.8980  176.6960  145.9470 C   0  0  0  0  0  2  0  0  0  0  0  0
  189.8510  177.5870  143.2160 C   0  0  1  0  0  3  0  0  0  0  0  0
  182.2320  178.7880  144.1130 C   0  0  0  0  0  3  0  0  0  0  0  0
  189.6070  178.1700  145.6990 C   0  0  0  0  0  2  0  0  0  0  0  0
  191.3000  176.2940  145.5410 C   0  0  0  0  0  0  0  0  0  0  0  0
  185.5560  178.4130  138.8130 C   0  0  0  0  0  3  0  0  0  0  0  0
  186.0540  178.3660  140.1250 C   0  0  0  0  0  0  0  0  0  0  0  0
  183.7590  178.6080  140.9650 N   0  0  0  0  0  0  0  0  0  0  0  0
  187.6260  178.1210  144.1640 C   0  0  0  0  0  2  0  0  0  0  0  0
  185.0480  178.5320  144.8890 O   0  0  0  0  0  0  0  0  0  0  0  0
  180.7910  178.9060  140.8430 O   0  0  0  0  0  0  0  0  0  0  0  0
  185.6860  178.4230  142.5500 C   0  0  0  0  0  0  0  0  0  0  0  0
  182.9150  178.6980  141.9450 C   0  0  0  0  0  0  0  0  0  0  0  0
  192.2350  176.0860  147.8480 C   0  0  0  0  0  0  0  0  0  0  0  0
  192.0840  175.4130  146.4770 C   0  0  1  0  0  3  0  0  0  0  0  0
  192.7320  176.9140  148.5930 O   0  0  0  0  0  0  0  0  0  0  0  0
  191.2710  174.9410  147.5590 C   0  0  0  0  0  2  0  0  0  0  0  0
  1 20  2  0  0  0  0
  2 24  1  0  0  0  0
  3 11  1  0  0  0  0
  4  3  2  0  0  0  0
  4 21  1  0  0  0  0
  5 25  2  0  0  0  0
  6  5  1  0  0  0  0
  6 18  2  0  0  0  0
  7 24  1  1  0  0  0
  7 19  1  0  0  0  0
  9 28  1  0  0  0  0
  9 15  1  0  0  0  0
 10  1  1  0  0  0  0
 11 13  2  0  0  0  0
 12  8  1  0  0  0  0
 12  2  2  0  0  0  0
 13 12  1  0  0  0  0
 14 27  2  0  0  0  0
 15 18  1  0  0  0  0
 17  8  1  6  0  0  0
 17 10  1  0  0  0  0
 17  7  1  0  0  0  0
 19 16  1  0  0  0  0
 20 16  1  0  0  0  0
 21 22  2  0  0  0  0
 22 13  1  0  0  0  0
 22 14  1  0  0  0  0
 23 14  1  0  0  0  0
 23 28  2  0  0  0  0
 26  9  2  0  0  0  0
 27  2  1  0  0  0  0
 27  5  1  0  0  0  0
 28  6  1  0  0  0  0
 29 31  2  0  0  0  0
 30 20  1  6  0  0  0
 30 32  1  0  0  0  0
 30 29  1  0  0  0  0
 32 29  1  0  0  0  0
M  END
>  <MODEL>
6

>  <REMARK>
 VINA RESULT:      -9.9      2.901      7.712
  Name = 
  1 active torsions:
  status: ('A' for Active; 'I' for Inactive)
    1  A    between atoms: C_10  and  C_24
                            x       y       z     vdW  Elec       q    Type
                         _______ _______ _______ _____ _____    ______ ____

>  <TORSDO>
F 1

$$$$
=
 OpenBabel10272413223D

 32 38  0  0  1  0  0  0  0  0999 V2000
  181.3200  178.3260  142.6430 C   0  0  0  0  0  3  0  0  0  0  0  0
  186.6300  178.2400  142.2710 C   0  0  0  0  0  0  0  0  0  0  0  0
  187.7770  177.6230  146.9780 C   0  0  0  0  0  3  0  0  0  0  0  0
  189.0970  177.3470  146.6230 C   0  0  0  0  0  3  0  0  0  0  0  0
  188.4520  177.9710  140.4860 C   0  0  0  0  0  0  0  0  0  0  0  0
  189.8590  177.6570  140.2540 C   0  0  0  0  0  0  0  0  0  0  0  0
  184.3350  179.1560  141.7030 C   0  0  2  0  0  3  0  0  0  0  0  0
  184.8390  178.5930  144.0540 C   0  0  0  0  0  2  0  0  0  0  0  0
  192.0240  177.1100  140.8460 C   0  0  0  0  0  0  0  0  0  0  0  0
  182.4750  178.9590  143.3770 C   0  0  0  0  0  2  0  0  0  0  0  0
  186.8350  177.9100  145.9900 C   0  0  0  0  0  3  0  0  0  0  0  0
  186.2450  178.2120  143.6370 C   0  0  0  0  0  0  0  0  0  0  0  0
  187.1980  177.9260  144.6310 C   0  0  0  0  0  0  0  0  0  0  0  0
  188.9300  177.6640  142.9290 C   0  0  0  0  0  0  0  0  0  0  0  0
  191.9800  177.2380  139.3570 C   0  0  0  0  0  2  0  0  0  0  0  0
  182.4910  177.9880  140.4300 C   0  0  0  0  0  2  0  0  0  0  0  0
  183.8250  178.4130  142.9380 C   0  0  1  0  0  3  0  0  0  0  0  0
  190.5290  177.5960  139.1060 C   0  0  0  0  0  3  0  0  0  0  0  0
  183.2960  179.2720  140.5830 C   0  0  0  0  0  2  0  0  0  0  0  0
  181.2910  177.9310  141.3510 C   0  0  0  0  0  0  0  0  0  0  0  0
  189.4750  177.3590  145.2790 C   0  0  0  0  0  3  0  0  0  0  0  0
  188.5370  177.6470  144.2750 C   0  0  0  0  0  0  0  0  0  0  0  0
  190.3080  177.3720  142.5950 N   0  0  0  0  0  0  0  0  0  0  0  0
  185.5840  178.4500  141.1960 C   0  0  0  0  0  2  0  0  0  0  0  0
  187.6980  178.2420  139.5130 O   0  0  0  0  0  0  0  0  0  0  0  0
  193.0410  176.8220  141.5300 O   0  0  0  0  0  0  0  0  0  0  0  0
  187.9750  177.9630  141.9080 C   0  0  0  0  0  0  0  0  0  0  0  0
  190.7100  177.3730  141.3630 C   0  0  0  0  0  0  0  0  0  0  0  0
  180.0210  177.4800  139.2470 C   0  0  0  0  0  0  0  0  0  0  0  0
  179.9830  177.4500  140.7810 C   0  0  1  0  0  3  0  0  0  0  0  0
  179.9950  178.0710  138.1800 O   0  0  0  0  0  0  0  0  0  0  0  0
  180.1390  176.2090  140.0790 C   0  0  0  0  0  2  0  0  0  0  0  0
  1 10  1  0  0  0  0
  2 12  1  0  0  0  0
  4  3  1  0  0  0  0
  5 27  1  0  0  0  0
  6  5  1  0  0  0  0
  6 28  1  0  0  0  0
  7 19  1  6  0  0  0
  7 17  1  0  0  0  0
  9 28  1  0  0  0  0
  9 26  2  0  0  0  0
 11  3  2  0  0  0  0
 12  8  1  0  0  0  0
 12 13  2  0  0  0  0
 13 11  1  0  0  0  0
 14 22  2  0  0  0  0
 15  9  1  0  0  0  0
 16 19  1  0  0  0  0
 16 20  1  0  0  0  0
 17 10  1  1  0  0  0
 17  8  1  0  0  0  0
 18 15  1  0  0  0  0
 18  6  2  0  0  0  0
 20  1  2  0  0  0  0
 21  4  2  0  0  0  0
 22 13  1  0  0  0  0
 22 21  1  0  0  0  0
 23 14  1  0  0  0  0
 24  7  1  0  0  0  0
 24  2  1  0  0  0  0
 25  5  2  0  0  0  0
 27  2  2  0  0  0  0
 27 14  1  0  0  0  0
 28 23  2  0  0  0  0
 29 32  1  0  0  0  0
 29 30  1  0  0  0  0
 30 20  1  1  0  0  0
 31 29  2  0  0  0  0
 32 30  1  0  0  0  0
M  END
>  <MODEL>
7

>  <REMARK>
 VINA RESULT:      -9.6      2.988      6.058
  Name = 
  1 active torsions:
  status: ('A' for Active; 'I' for Inactive)
    1  A    between atoms: C_10  and  C_24
                            x       y       z     vdW  Elec       q    Type
                         _______ _______ _______ _____ _____    ______ ____

>  <TORSDO>
F 1

$$$$
=
 OpenBabel10272413223D

 32 38  0  0  1  0  0  0  0  0999 V2000
  190.2960  176.4260  136.5470 C   0  0  0  0  0  3  0  0  0  0  0  0
  188.1310  177.8530  141.1970 C   0  0  0  0  0  0  0  0  0  0  0  0
  183.6640  179.1130  139.6760 C   0  0  0  0  0  3  0  0  0  0  0  0
  183.2230  179.1570  140.9980 C   0  0  0  0  0  3  0  0  0  0  0  0
  188.5830  177.6110  143.7100 C   0  0  0  0  0  0  0  0  0  0  0  0
  187.9900  177.6860  145.0420 C   0  0  0  0  0  0  0  0  0  0  0  0
  190.0100  177.8010  139.4950 C   0  0  2  0  0  3  0  0  0  0  0  0
  187.7020  178.1800  138.7020 C   0  0  0  0  0  2  0  0  0  0  0  0
  186.3080  178.0380  146.5860 C   0  0  0  0  0  0  0  0  0  0  0  0
  189.4640  177.5770  137.0560 C   0  0  0  0  0  2  0  0  0  0  0  0
  184.9880  178.7770  139.3930 C   0  0  0  0  0  3  0  0  0  0  0  0
  187.2260  178.1350  140.1400 C   0  0  0  0  0  0  0  0  0  0  0  0
  185.8930  178.4790  140.4280 C   0  0  0  0  0  0  0  0  0  0  0  0
  186.3240  178.2410  142.8200 C   0  0  0  0  0  0  0  0  0  0  0  0
  187.5480  177.6760  147.3400 C   0  0  0  0  0  2  0  0  0  0  0  0
  191.3500  175.7910  138.7530 C   0  0  0  0  0  2  0  0  0  0  0  0
  188.9610  177.3610  138.4740 C   0  0  1  0  0  3  0  0  0  0  0  0
  188.5570  177.4770  146.2270 C   0  0  0  0  0  3  0  0  0  0  0  0
  191.4090  177.2390  139.2200 C   0  0  0  0  0  2  0  0  0  0  0  0
  191.1520  175.6600  137.2580 C   0  0  0  0  0  0  0  0  0  0  0  0
  184.1070  178.8640  142.0370 C   0  0  0  0  0  3  0  0  0  0  0  0
  185.4430  178.5250  141.7680 C   0  0  0  0  0  0  0  0  0  0  0  0
  185.8340  178.2940  144.1810 N   0  0  0  0  0  0  0  0  0  0  0  0
  189.5370  177.3890  140.8820 C   0  0  0  0  0  2  0  0  0  0  0  0
  189.8030  177.3220  143.5770 O   0  0  0  0  0  0  0  0  0  0  0  0
  185.1880  178.3020  147.0960 O   0  0  0  0  0  0  0  0  0  0  0  0
  187.6840  177.9010  142.5440 C   0  0  0  0  0  0  0  0  0  0  0  0
  186.6140  178.0340  145.1820 C   0  0  0  0  0  0  0  0  0  0  0  0
  191.0920  173.6680  135.7520 C   0  0  0  0  0  0  0  0  0  0  0  0
  191.9890  174.6500  136.5180 C   0  0  1  0  0  3  0  0  0  0  0  0
  190.3300  172.7170  135.7050 O   0  0  0  0  0  0  0  0  0  0  0  0
  191.8670  174.8060  135.0980 C   0  0  0  0  0  2  0  0  0  0  0  0
  1 10  1  0  0  0  0
  1 20  2  0  0  0  0
  2 27  1  0  0  0  0
  3  4  1  0  0  0  0
  4 21  2  0  0  0  0
  5  6  1  0  0  0  0
  6 28  1  0  0  0  0
  6 18  2  0  0  0  0
  7 19  1  6  0  0  0
  7 24  1  0  0  0  0
  8 12  1  0  0  0  0
  9 26  2  0  0  0  0
  9 15  1  0  0  0  0
 11  3  2  0  0  0  0
 11 13  1  0  0  0  0
 12 13  1  0  0  0  0
 12  2  2  0  0  0  0
 13 22  2  0  0  0  0
 14 23  1  0  0  0  0
 16 19  1  0  0  0  0
 17 10  1  6  0  0  0
 17  8  1  0  0  0  0
 17  7  1  0  0  0  0
 18 15  1  0  0  0  0
 20 16  1  0  0  0  0
 22 21  1  0  0  0  0
 22 14  1  0  0  0  0
 23 28  2  0  0  0  0
 24  2  1  0  0  0  0
 25  5  2  0  0  0  0
 27 14  2  0  0  0  0
 27  5  1  0  0  0  0
 28  9  1  0  0  0  0
 29 30  1  0  0  0  0
 30 20  1  1  0  0  0
 31 29  2  0  0  0  0
 32 29  1  0  0  0  0
 32 30  1  0  0  0  0
M  END
>  <MODEL>
8

>  <REMARK>
 VINA RESULT:      -9.5      1.934      2.774
  Name = 
  1 active torsions:
  status: ('A' for Active; 'I' for Inactive)
    1  A    between atoms: C_10  and  C_24
                            x       y       z     vdW  Elec       q    Type
                         _______ _______ _______ _____ _____    ______ ____

>  <TORSDO>
F 1

$$$$
=
 OpenBabel10272413223D

 32 38  0  0  1  0  0  0  0  0999 V2000
  191.2080  177.1560  145.3770 C   0  0  0  0  0  3  0  0  0  0  0  0
  189.4790  177.5980  140.3610 C   0  0  0  0  0  0  0  0  0  0  0  0
  193.4860  176.1430  137.9760 C   0  0  0  0  0  3  0  0  0  0  0  0
  192.7540  176.0580  136.7930 C   0  0  0  0  0  3  0  0  0  0  0  0
  187.2730  177.8500  139.0780 C   0  0  0  0  0  0  0  0  0  0  0  0
  186.6260  177.7100  137.7760 C   0  0  0  0  0  0  0  0  0  0  0  0
  189.7310  178.4120  142.7490 C   0  0  2  0  0  3  0  0  0  0  0  0
  191.6950  177.4310  141.6180 C   0  0  0  0  0  2  0  0  0  0  0  0
  186.5110  177.2410  135.5170 C   0  0  0  0  0  0  0  0  0  0  0  0
  191.7410  177.7230  144.0850 C   0  0  0  0  0  2  0  0  0  0  0  0
  192.8590  176.5430  139.1560 C   0  0  0  0  0  3  0  0  0  0  0  0
  190.8580  177.2620  140.3650 C   0  0  0  0  0  0  0  0  0  0  0  0
  191.4890  176.8640  139.1720 C   0  0  0  0  0  0  0  0  0  0  0  0
  189.3860  177.0990  137.9540 C   0  0  0  0  0  0  0  0  0  0  0  0
  185.1470  177.6630  135.9630 C   0  0  0  0  0  2  0  0  0  0  0  0
  188.7500  177.3720  144.8330 C   0  0  0  0  0  2  0  0  0  0  0  0
  190.8640  177.3940  142.8880 C   0  0  1  0  0  3  0  0  0  0  0  0
  185.3600  177.9390  137.4380 C   0  0  0  0  0  3  0  0  0  0  0  0
  188.9670  178.6620  144.0530 C   0  0  0  0  0  2  0  0  0  0  0  0
  189.9120  177.0290  145.7400 C   0  0  0  0  0  0  0  0  0  0  0  0
  191.3940  176.3730  136.7900 C   0  0  0  0  0  3  0  0  0  0  0  0
  190.7500  176.7770  137.9700 C   0  0  0  0  0  0  0  0  0  0  0  0
  188.6540  176.9980  136.7080 N   0  0  0  0  0  0  0  0  0  0  0  0
  188.7810  177.9310  141.6620 C   0  0  0  0  0  2  0  0  0  0  0  0
  186.6090  178.2470  140.0730 O   0  0  0  0  0  0  0  0  0  0  0  0
  186.8310  176.9080  134.3460 O   0  0  0  0  0  0  0  0  0  0  0  0
  188.7330  177.5150  139.1550 C   0  0  0  0  0  0  0  0  0  0  0  0
  187.3910  177.2810  136.6520 C   0  0  0  0  0  0  0  0  0  0  0  0
  189.1570  177.7430  148.0120 C   0  0  0  0  0  0  0  0  0  0  0  0
  189.6060  176.5630  147.1390 C   0  0  1  0  0  3  0  0  0  0  0  0
  189.3810  178.7550  148.6540 O   0  0  0  0  0  0  0  0  0  0  0  0
  188.2110  176.6920  147.4430 C   0  0  0  0  0  2  0  0  0  0  0  0
  1 20  2  0  0  0  0
  2 12  1  0  0  0  0
  2 24  1  0  0  0  0
  3 11  2  0  0  0  0
  4  3  1  0  0  0  0
  5 27  1  0  0  0  0
  5 25  2  0  0  0  0
  6  5  1  0  0  0  0
  7 24  1  6  0  0  0
  7 17  1  0  0  0  0
  7 19  1  0  0  0  0
  9 15  1  0  0  0  0
  9 28  1  0  0  0  0
 10  1  1  0  0  0  0
 11 13  1  0  0  0  0
 12  8  1  0  0  0  0
 13 12  2  0  0  0  0
 14 22  2  0  0  0  0
 14 27  1  0  0  0  0
 15 18  1  0  0  0  0
 16 20  1  0  0  0  0
 17  8  1  6  0  0  0
 17 10  1  0  0  0  0
 18  6  2  0  0  0  0
 19 16  1  0  0  0  0
 21  4  2  0  0  0  0
 21 22  1  0  0  0  0
 22 13  1  0  0  0  0
 23 14  1  0  0  0  0
 26  9  2  0  0  0  0
 27  2  2  0  0  0  0
 28 23  2  0  0  0  0
 28  6  1  0  0  0  0
 29 31  2  0  0  0  0
 30 20  1  6  0  0  0
 30 32  1  0  0  0  0
 30 29  1  0  0  0  0
 32 29  1  0  0  0  0
M  END
>  <MODEL>
9

>  <REMARK>
 VINA RESULT:      -9.2      3.107      9.185
  Name = 
  1 active torsions:
  status: ('A' for Active; 'I' for Inactive)
    1  A    between atoms: C_10  and  C_24
                            x       y       z     vdW  Elec       q    Type
                         _______ _______ _______ _____ _____    ______ ____

>  <TORSDO>
F 1

$$$$
