=
 OpenBabel10272401523D

 28 32  0  0  1  0  0  0  0  0999 V2000
  190.0810  176.3010  143.8460 C   0  0  0  0  0  0  0  0  0  0  0  0
  185.4440  177.9190  142.9330 C   0  0  0  0  0  2  0  0  0  0  0  0
  188.8410  178.2640  148.2190 C   0  0  0  0  0  1  0  0  0  0  0  0
  184.9620  179.1350  145.0270 C   0  0  1  0  0  3  0  0  0  0  0  0
  186.9160  177.5800  144.9590 C   0  0  0  0  0  0  0  0  0  0  0  0
  183.1510  178.9510  143.3350 C   0  0  0  0  0  0  0  0  0  0  0  0
  185.5170  177.8260  144.4550 C   0  0  2  0  0  3  0  0  0  0  0  0
  186.3550  178.9110  147.0190 N   0  0  0  0  0  2  0  0  0  0  0  0
  183.5780  179.4090  144.5180 C   0  0  0  0  0  3  0  0  0  0  0  0
  189.4010  176.7950  146.1700 C   0  0  2  0  0  3  0  0  0  0  0  0
  187.7760  176.9310  144.2300 N   0  0  0  0  0  0  0  0  0  0  0  0
  184.9860  179.0990  146.5490 C   0  0  0  0  0  2  0  0  0  0  0  0
  191.7830  176.6090  145.5610 C   0  0  0  0  0  3  0  0  0  0  0  0
  188.4820  177.7750  146.8520 C   0  0  0  0  0  0  0  0  0  0  0  0
  190.7800  177.0950  146.4080 O   0  0  0  0  0  0  0  0  0  0  0  0
  181.8750  179.2860  142.9050 O   0  0  0  0  0  1  0  0  0  0  0  0
  183.9830  178.0190  142.4850 C   0  0  0  0  0  2  0  0  0  0  0  0
  187.2840  178.0740  146.3160 C   0  0  0  0  0  0  0  0  0  0  0  0
  191.4720  176.1980  144.3300 C   0  0  0  0  0  3  0  0  0  0  0  0
  189.1070  176.6750  144.6930 C   0  0  0  0  0  0  0  0  0  0  0  0
  189.8120  176.1070  142.3810 C   0  0  0  0  0  2  0  0  0  0  0  0
  190.1020  177.3640  141.5570 C   0  0  2  0  0  3  0  0  0  0  0  0
  190.1570  177.7670  139.2920 C   0  0  1  0  0  3  0  0  0  0  0  0
  188.9100  178.0460  141.2540 O   0  0  0  0  0  0  0  0  0  0  0  0
  192.1620  177.5850  140.4650 C   0  0  0  0  0  1  0  0  0  0  0  0
  190.8260  177.0270  140.3360 N   0  0  0  0  0  0  0  0  0  0  0  0
  189.5040  176.7960  138.3260 C   0  0  0  0  0  1  0  0  0  0  0  0
  189.0970  178.5820  139.9770 C   0  0  0  0  0  2  0  0  0  0  0  0
  1 19  1  0  0  0  0
  1 20  2  0  0  0  0
  4  9  1  1  0  0  0
  4 12  1  0  0  0  0
  5 18  1  0  0  0  0
  6  9  2  0  0  0  0
  7  2  1  6  0  0  0
  7  5  1  0  0  0  0
  7  4  1  0  0  0  0
 10 20  1  6  0  0  0
 10 15  1  0  0  0  0
 10 14  1  0  0  0  0
 11 20  1  0  0  0  0
 11  5  2  0  0  0  0
 12  8  1  0  0  0  0
 13 15  1  0  0  0  0
 14  3  1  0  0  0  0
 16  6  1  0  0  0  0
 17  2  1  0  0  0  0
 17  6  1  0  0  0  0
 18 14  2  0  0  0  0
 18  8  1  0  0  0  0
 19 13  2  0  0  0  0
 21  1  1  0  0  0  0
 22 21  1  6  0  0  0
 23 27  1  6  0  0  0
 23 28  1  0  0  0  0
 23 26  1  0  0  0  0
 24 22  1  0  0  0  0
 26 25  1  0  0  0  0
 26 22  1  0  0  0  0
 28 24  1  0  0  0  0
M  END
>  <MODEL>
1

>  <REMARK>
 VINA RESULT:     -10.2      0.000      0.000
  Name = 
  2 active torsions:
  status: ('A' for Active; 'I' for Inactive)
    1  A    between atoms: C_1  and  C_2
    2  A    between atoms: C_2  and  C_3
                            x       y       z     vdW  Elec       q    Type
                         _______ _______ _______ _____ _____    ______ ____

>  <TORSDO>
F 2

$$$$
=
 OpenBabel10272401523D

 28 32  0  0  1  0  0  0  0  0999 V2000
  189.4060  177.2340  141.2860 C   0  0  0  0  0  0  0  0  0  0  0  0
  184.6980  178.3600  142.5160 C   0  0  0  0  0  2  0  0  0  0  0  0
  189.7530  177.6910  146.2030 C   0  0  0  0  0  1  0  0  0  0  0  0
  184.9590  178.8580  144.9210 C   0  0  1  0  0  3  0  0  0  0  0  0
  186.8100  177.6820  143.7260 C   0  0  0  0  0  0  0  0  0  0  0  0
  182.6680  178.8980  143.9570 C   0  0  0  0  0  0  0  0  0  0  0  0
  185.3170  177.8560  143.8170 C   0  0  2  0  0  3  0  0  0  0  0  0
  186.9820  178.2860  146.1620 N   0  0  0  0  0  2  0  0  0  0  0  0
  183.4760  179.0620  145.0120 C   0  0  0  0  0  3  0  0  0  0  0  0
  189.5910  176.9530  143.7330 C   0  0  2  0  0  3  0  0  0  0  0  0
  187.3730  177.3940  142.5880 N   0  0  0  0  0  0  0  0  0  0  0  0
  185.5300  178.4000  146.2560 C   0  0  0  0  0  2  0  0  0  0  0  0
  191.6000  177.2890  142.3440 C   0  0  0  0  0  3  0  0  0  0  0  0
  188.9440  177.5600  144.9530 C   0  0  0  0  0  0  0  0  0  0  0  0
  190.9520  177.3690  143.5830 O   0  0  0  0  0  0  0  0  0  0  0  0
  181.3120  179.1540  144.1020 O   0  0  0  0  0  1  0  0  0  0  0  0
  183.1710  178.3710  142.6330 C   0  0  0  0  0  2  0  0  0  0  0  0
  187.6250  177.8220  144.9660 C   0  0  0  0  0  0  0  0  0  0  0  0
  190.8810  177.2000  141.2230 C   0  0  0  0  0  3  0  0  0  0  0  0
  188.7900  177.2110  142.4800 C   0  0  0  0  0  0  0  0  0  0  0  0
  188.6360  177.4230  140.0100 C   0  0  0  0  0  2  0  0  0  0  0  0
  189.4880  178.0260  138.8910 C   0  0  2  0  0  3  0  0  0  0  0  0
  189.3370  177.9400  136.5960 C   0  0  1  0  0  3  0  0  0  0  0  0
  188.9710  179.2710  138.4880 O   0  0  0  0  0  0  0  0  0  0  0  0
  190.9500  176.6550  137.6790 C   0  0  0  0  0  1  0  0  0  0  0  0
  189.5720  177.1130  137.7550 N   0  0  0  0  0  0  0  0  0  0  0  0
  188.0410  177.5160  135.9290 C   0  0  0  0  0  1  0  0  0  0  0  0
  189.1990  179.3460  137.1120 C   0  0  0  0  0  2  0  0  0  0  0  0
  1 20  2  0  0  0  0
  2 17  1  0  0  0  0
  4  9  1  1  0  0  0
  4 12  1  0  0  0  0
  5  7  1  0  0  0  0
  5 18  1  0  0  0  0
  6 16  1  0  0  0  0
  6  9  2  0  0  0  0
  7  2  1  6  0  0  0
  7  4  1  0  0  0  0
  8 12  1  0  0  0  0
 10 20  1  6  0  0  0
 10 14  1  0  0  0  0
 11  5  2  0  0  0  0
 13 15  1  0  0  0  0
 14 18  2  0  0  0  0
 14  3  1  0  0  0  0
 15 10  1  0  0  0  0
 17  6  1  0  0  0  0
 18  8  1  0  0  0  0
 19  1  1  0  0  0  0
 19 13  2  0  0  0  0
 20 11  1  0  0  0  0
 21  1  1  0  0  0  0
 22 21  1  1  0  0  0
 23 27  1  1  0  0  0
 23 28  1  0  0  0  0
 23 26  1  0  0  0  0
 24 22  1  0  0  0  0
 25 26  1  0  0  0  0
 26 22  1  0  0  0  0
 28 24  1  0  0  0  0
M  END
>  <MODEL>
2

>  <REMARK>
 VINA RESULT:      -9.9      1.607      2.248
  Name = 
  2 active torsions:
  status: ('A' for Active; 'I' for Inactive)
    1  A    between atoms: C_1  and  C_2
    2  A    between atoms: C_2  and  C_3
                            x       y       z     vdW  Elec       q    Type
                         _______ _______ _______ _____ _____    ______ ____

>  <TORSDO>
F 2

$$$$
=
 OpenBabel10272401523D

 28 32  0  0  1  0  0  0  0  0999 V2000
  189.9930  177.3890  140.7320 C   0  0  0  0  0  0  0  0  0  0  0  0
  185.7380  178.4440  143.1260 C   0  0  0  0  0  2  0  0  0  0  0  0
  191.3480  176.8060  145.4580 C   0  0  0  0  0  1  0  0  0  0  0  0
  186.5130  178.4220  145.4710 C   0  0  1  0  0  3  0  0  0  0  0  0
  187.9820  177.4380  143.7060 C   0  0  0  0  0  0  0  0  0  0  0  0
  184.0890  178.7610  145.0410 C   0  0  0  0  0  0  0  0  0  0  0  0
  186.5570  177.6550  144.1440 C   0  0  2  0  0  3  0  0  0  0  0  0
  188.6860  177.5180  146.1210 N   0  0  0  0  0  2  0  0  0  0  0  0
  185.1010  178.6680  145.9120 C   0  0  0  0  0  3  0  0  0  0  0  0
  190.6350  176.6020  142.9840 C   0  0  2  0  0  3  0  0  0  0  0  0
  188.2810  177.3660  142.4420 N   0  0  0  0  0  0  0  0  0  0  0  0
  187.2960  177.6740  146.5400 C   0  0  0  0  0  2  0  0  0  0  0  0
  192.3490  177.1290  141.2920 C   0  0  0  0  0  3  0  0  0  0  0  0
  190.2990  176.9720  144.4060 C   0  0  0  0  0  0  0  0  0  0  0  0
  191.9700  176.9800  142.6310 O   0  0  0  0  0  0  0  0  0  0  0  0
  182.8160  179.0410  145.5170 O   0  0  0  0  0  1  0  0  0  0  0  0
  184.2710  178.4980  143.5640 C   0  0  0  0  0  2  0  0  0  0  0  0
  189.0350  177.2830  144.7490 C   0  0  0  0  0  0  0  0  0  0  0  0
  191.4170  177.3050  140.3530 C   0  0  0  0  0  3  0  0  0  0  0  0
  189.6260  177.1480  142.0020 C   0  0  0  0  0  0  0  0  0  0  0  0
  189.0040  177.8720  139.7100 C   0  0  0  0  0  2  0  0  0  0  0  0
  189.4630  177.6080  138.2740 C   0  0  2  0  0  3  0  0  0  0  0  0
  188.3640  176.8540  136.3970 C   0  0  1  0  0  3  0  0  0  0  0  0
  189.2500  178.7400  137.4680 O   0  0  0  0  0  0  0  0  0  0  0  0
  189.7820  175.4050  137.5450 C   0  0  0  0  0  1  0  0  0  0  0  0
  188.7800  176.4450  137.7170 N   0  0  0  0  0  0  0  0  0  0  0  0
  186.8480  176.8850  136.3340 C   0  0  0  0  0  1  0  0  0  0  0  0
  188.9020  178.2450  136.2080 C   0  0  0  0  0  2  0  0  0  0  0  0
  1 20  2  0  0  0  0
  2 17  1  0  0  0  0
  4  9  1  1  0  0  0
  4 12  1  0  0  0  0
  5  7  1  0  0  0  0
  5 18  1  0  0  0  0
  6 16  1  0  0  0  0
  6  9  2  0  0  0  0
  7  2  1  6  0  0  0
  7  4  1  0  0  0  0
  8 12  1  0  0  0  0
 10 20  1  6  0  0  0
 10 14  1  0  0  0  0
 11  5  2  0  0  0  0
 13 15  1  0  0  0  0
 14 18  2  0  0  0  0
 14  3  1  0  0  0  0
 15 10  1  0  0  0  0
 17  6  1  0  0  0  0
 18  8  1  0  0  0  0
 19  1  1  0  0  0  0
 19 13  2  0  0  0  0
 20 11  1  0  0  0  0
 21  1  1  0  0  0  0
 22 21  1  1  0  0  0
 23 27  1  1  0  0  0
 23 26  1  0  0  0  0
 24 22  1  0  0  0  0
 25 26  1  0  0  0  0
 26 22  1  0  0  0  0
 28 23  1  0  0  0  0
 28 24  1  0  0  0  0
M  END
>  <MODEL>
3

>  <REMARK>
 VINA RESULT:      -9.7      1.845      3.069
  Name = 
  2 active torsions:
  status: ('A' for Active; 'I' for Inactive)
    1  A    between atoms: C_1  and  C_2
    2  A    between atoms: C_2  and  C_3
                            x       y       z     vdW  Elec       q    Type
                         _______ _______ _______ _____ _____    ______ ____

>  <TORSDO>
F 2

$$$$
=
 OpenBabel10272401523D

 28 32  0  0  1  0  0  0  0  0999 V2000
  187.3130  178.2150  140.0450 C   0  0  0  0  0  0  0  0  0  0  0  0
  187.2790  177.9270  145.0320 C   0  0  0  0  0  2  0  0  0  0  0  0
  192.0950  177.3810  141.0190 C   0  0  0  0  0  1  0  0  0  0  0  0
  189.7000  177.7960  145.5000 C   0  0  1  0  0  3  0  0  0  0  0  0
  188.9020  177.4150  143.1640 C   0  0  0  0  0  0  0  0  0  0  0  0
  188.1240  177.6040  147.4120 C   0  0  0  0  0  0  0  0  0  0  0  0
  188.5750  177.2320  144.6230 C   0  0  2  0  0  3  0  0  0  0  0  0
  191.3470  177.3550  143.7530 N   0  0  0  0  0  2  0  0  0  0  0  0
  189.3820  177.6440  146.9580 C   0  0  0  0  0  3  0  0  0  0  0  0
  189.5940  177.3260  140.3750 C   0  0  2  0  0  3  0  0  0  0  0  0
  187.9510  177.5750  142.2890 N   0  0  0  0  0  0  0  0  0  0  0  0
  191.0230  177.1250  145.1570 C   0  0  0  0  0  2  0  0  0  0  0  0
  188.9680  178.4500  138.2730 C   0  0  0  0  0  3  0  0  0  0  0  0
  190.6600  177.4240  141.4370 C   0  0  0  0  0  0  0  0  0  0  0  0
  189.9450  178.0490  139.1920 O   0  0  0  0  0  0  0  0  0  0  0  0
  187.9050  177.5130  148.7800 O   0  0  0  0  0  1  0  0  0  0  0  0
  186.9330  177.5780  146.4820 C   0  0  0  0  0  2  0  0  0  0  0  0
  190.3300  177.3830  142.7410 C   0  0  0  0  0  0  0  0  0  0  0  0
  187.6890  178.5180  138.6500 C   0  0  0  0  0  3  0  0  0  0  0  0
  188.2370  177.7370  140.8960 C   0  0  0  0  0  0  0  0  0  0  0  0
  185.9320  178.5750  140.5120 C   0  0  0  0  0  2  0  0  0  0  0  0
  184.9590  178.8070  139.3520 C   0  0  2  0  0  3  0  0  0  0  0  0
  182.6660  178.6940  139.1930 C   0  0  1  0  0  3  0  0  0  0  0  0
  184.5040  180.1380  139.3450 O   0  0  0  0  0  0  0  0  0  0  0  0
  183.9560  176.9730  138.2960 C   0  0  0  0  0  1  0  0  0  0  0  0
  183.8350  177.8800  139.4260 N   0  0  0  0  0  0  0  0  0  0  0  0
  181.8090  178.7160  140.4450 C   0  0  0  0  0  1  0  0  0  0  0  0
  183.1770  180.0790  138.9100 C   0  0  0  0  0  2  0  0  0  0  0  0
  1 21  1  0  0  0  0
  1 20  2  0  0  0  0
  2 17  1  0  0  0  0
  3 14  1  0  0  0  0
  4 12  1  1  0  0  0
  4  9  1  0  0  0  0
  5  7  1  0  0  0  0
  6 16  1  0  0  0  0
  7  2  1  1  0  0  0
  7  4  1  0  0  0  0
  8 12  1  0  0  0  0
  9  6  2  0  0  0  0
 10 15  1  6  0  0  0
 10 20  1  0  0  0  0
 10 14  1  0  0  0  0
 11  5  2  0  0  0  0
 13 19  2  0  0  0  0
 13 15  1  0  0  0  0
 14 18  2  0  0  0  0
 17  6  1  0  0  0  0
 18  5  1  0  0  0  0
 18  8  1  0  0  0  0
 19  1  1  0  0  0  0
 20 11  1  0  0  0  0
 22 26  1  0  0  0  0
 22 21  1  1  0  0  0
 23 26  1  0  0  0  0
 23 27  1  1  0  0  0
 24 22  1  0  0  0  0
 25 26  1  0  0  0  0
 28 23  1  0  0  0  0
 28 24  1  0  0  0  0
M  END
>  <MODEL>
4

>  <REMARK>
 VINA RESULT:      -9.4      2.647      6.140
  Name = 
  2 active torsions:
  status: ('A' for Active; 'I' for Inactive)
    1  A    between atoms: C_1  and  C_2
    2  A    between atoms: C_2  and  C_3
                            x       y       z     vdW  Elec       q    Type
                         _______ _______ _______ _____ _____    ______ ____

>  <TORSDO>
F 2

$$$$
=
 OpenBabel10272401523D

 28 32  0  0  1  0  0  0  0  0999 V2000
  188.4160  178.1100  139.5310 C   0  0  0  0  0  0  0  0  0  0  0  0
  190.6370  177.2380  143.9190 C   0  0  0  0  0  2  0  0  0  0  0  0
  184.5790  178.3720  142.6490 C   0  0  0  0  0  1  0  0  0  0  0  0
  188.6710  177.0940  145.4070 C   0  0  1  0  0  3  0  0  0  0  0  0
  188.3840  178.0580  143.1210 C   0  0  0  0  0  0  0  0  0  0  0  0
  190.9310  176.9430  146.4320 C   0  0  0  0  0  0  0  0  0  0  0  0
  189.3230  177.9190  144.2920 C   0  0  2  0  0  3  0  0  0  0  0  0
  186.4460  177.8140  144.7070 N   0  0  0  0  0  2  0  0  0  0  0  0
  189.6000  176.9250  146.5730 C   0  0  0  0  0  3  0  0  0  0  0  0
  186.5480  178.7430  141.0190 C   0  0  2  0  0  3  0  0  0  0  0  0
  188.8500  178.1690  141.9110 N   0  0  0  0  0  0  0  0  0  0  0  0
  187.3610  177.7340  145.8420 C   0  0  0  0  0  2  0  0  0  0  0  0
  186.1450  178.1810  138.6520 C   0  0  0  0  0  3  0  0  0  0  0  0
  186.0490  178.3300  142.3800 C   0  0  0  0  0  0  0  0  0  0  0  0
  185.6850  178.2920  139.9700 O   0  0  0  0  0  0  0  0  0  0  0  0
  191.7290  176.7290  147.5470 O   0  0  0  0  0  1  0  0  0  0  0  0
  191.5950  177.2640  145.1130 C   0  0  0  0  0  2  0  0  0  0  0  0
  186.9170  178.0900  143.3800 C   0  0  0  0  0  0  0  0  0  0  0  0
  187.4560  178.1150  138.4100 C   0  0  0  0  0  3  0  0  0  0  0  0
  187.9770  178.3150  140.7850 C   0  0  0  0  0  0  0  0  0  0  0  0
  189.8460  177.7470  139.2520 C   0  0  0  0  0  2  0  0  0  0  0  0
  189.9780  176.5840  138.2650 C   0  0  2  0  0  3  0  0  0  0  0  0
  191.6690  175.9220  136.8500 C   0  0  1  0  0  3  0  0  0  0  0  0
  190.5890  175.4770  138.8800 O   0  0  0  0  0  0  0  0  0  0  0  0
  189.7960  176.9900  135.9660 C   0  0  0  0  0  1  0  0  0  0  0  0
  190.7280  176.9930  137.0820 N   0  0  0  0  0  0  0  0  0  0  0  0
  193.0800  176.4410  137.0490 C   0  0  0  0  0  1  0  0  0  0  0  0
  191.3680  174.8770  137.8880 C   0  0  0  0  0  2  0  0  0  0  0  0
  1 20  2  0  0  0  0
  2 17  1  0  0  0  0
  4 12  1  1  0  0  0
  4  9  1  0  0  0  0
  5 18  1  0  0  0  0
  5  7  1  0  0  0  0
  6  9  2  0  0  0  0
  6 16  1  0  0  0  0
  7  2  1  6  0  0  0
  7  4  1  0  0  0  0
  8 12  1  0  0  0  0
 10 15  1  6  0  0  0
 10 14  1  0  0  0  0
 11  5  2  0  0  0  0
 13 15  1  0  0  0  0
 14  3  1  0  0  0  0
 14 18  2  0  0  0  0
 17  6  1  0  0  0  0
 18  8  1  0  0  0  0
 19 13  2  0  0  0  0
 19  1  1  0  0  0  0
 20 10  1  0  0  0  0
 20 11  1  0  0  0  0
 21  1  1  0  0  0  0
 22 24  1  0  0  0  0
 22 21  1  1  0  0  0
 23 27  1  1  0  0  0
 23 26  1  0  0  0  0
 23 28  1  0  0  0  0
 25 26  1  0  0  0  0
 26 22  1  0  0  0  0
 28 24  1  0  0  0  0
M  END
>  <MODEL>
5

>  <REMARK>
 VINA RESULT:      -9.3      2.114      5.664
  Name = 
  2 active torsions:
  status: ('A' for Active; 'I' for Inactive)
    1  A    between atoms: C_1  and  C_2
    2  A    between atoms: C_2  and  C_3
                            x       y       z     vdW  Elec       q    Type
                         _______ _______ _______ _____ _____    ______ ____

>  <TORSDO>
F 2

$$$$
=
 OpenBabel10272401523D

 28 32  0  0  1  0  0  0  0  0999 V2000
  187.1350  178.3490  140.6780 C   0  0  0  0  0  0  0  0  0  0  0  0
  190.2150  177.1580  144.4250 C   0  0  0  0  0  2  0  0  0  0  0  0
  184.1060  178.6570  144.5810 C   0  0  0  0  0  1  0  0  0  0  0  0
  188.6230  177.0440  146.3090 C   0  0  1  0  0  3  0  0  0  0  0  0
  187.8950  178.1290  144.1800 C   0  0  0  0  0  0  0  0  0  0  0  0
  191.0400  176.7310  146.7970 C   0  0  0  0  0  0  0  0  0  0  0  0
  189.0590  177.8870  145.1050 C   0  0  2  0  0  3  0  0  0  0  0  0
  186.3450  177.9090  146.1490 N   0  0  0  0  0  2  0  0  0  0  0  0
  189.7750  176.7730  147.2310 C   0  0  0  0  0  3  0  0  0  0  0  0
  185.6840  179.0050  142.5660 C   0  0  2  0  0  3  0  0  0  0  0  0
  188.0870  178.2740  142.9010 N   0  0  0  0  0  0  0  0  0  0  0  0
  187.4820  177.7290  147.0480 C   0  0  0  0  0  2  0  0  0  0  0  0
  184.7350  178.5770  140.3310 C   0  0  0  0  0  3  0  0  0  0  0  0
  185.4750  178.5530  143.9890 C   0  0  0  0  0  0  0  0  0  0  0  0
  184.5850  178.6480  141.7220 O   0  0  0  0  0  0  0  0  0  0  0  0
  192.0500  176.4240  147.6970 O   0  0  0  0  0  1  0  0  0  0  0  0
  191.4140  177.0800  145.3750 C   0  0  0  0  0  2  0  0  0  0  0  0
  186.5260  178.2230  144.7610 C   0  0  0  0  0  0  0  0  0  0  0  0
  185.9530  178.4550  139.8000 C   0  0  0  0  0  3  0  0  0  0  0  0
  186.9970  178.5170  142.0040 C   0  0  0  0  0  0  0  0  0  0  0  0
  188.4440  177.9270  140.0730 C   0  0  0  0  0  2  0  0  0  0  0  0
  188.3330  177.6240  138.5770 C   0  0  2  0  0  3  0  0  0  0  0  0
  189.8940  177.0870  136.9730 C   0  0  1  0  0  3  0  0  0  0  0  0
  188.2060  176.2400  138.3590 O   0  0  0  0  0  0  0  0  0  0  0  0
  188.9960  179.2370  137.0140 C   0  0  0  0  0  1  0  0  0  0  0  0
  189.4840  178.1550  137.8540 N   0  0  0  0  0  0  0  0  0  0  0  0
  191.2720  176.6010  137.3790 C   0  0  0  0  0  1  0  0  0  0  0  0
  188.8940  175.9820  137.1700 C   0  0  0  0  0  2  0  0  0  0  0  0
  1 20  2  0  0  0  0
  2 17  1  0  0  0  0
  4 12  1  1  0  0  0
  4  9  1  0  0  0  0
  5 18  1  0  0  0  0
  5  7  1  0  0  0  0
  6  9  2  0  0  0  0
  6 16  1  0  0  0  0
  7  2  1  6  0  0  0
  7  4  1  0  0  0  0
  8 12  1  0  0  0  0
 10 15  1  6  0  0  0
 10 14  1  0  0  0  0
 11  5  2  0  0  0  0
 13 15  1  0  0  0  0
 14  3  1  0  0  0  0
 14 18  2  0  0  0  0
 17  6  1  0  0  0  0
 18  8  1  0  0  0  0
 19 13  2  0  0  0  0
 19  1  1  0  0  0  0
 20 10  1  0  0  0  0
 20 11  1  0  0  0  0
 21  1  1  0  0  0  0
 22 21  1  1  0  0  0
 23 28  1  0  0  0  0
 23 27  1  1  0  0  0
 23 26  1  0  0  0  0
 24 22  1  0  0  0  0
 25 26  1  0  0  0  0
 26 22  1  0  0  0  0
 28 24  1  0  0  0  0
M  END
>  <MODEL>
6

>  <REMARK>
 VINA RESULT:      -9.3      1.850      5.425
  Name = 
  2 active torsions:
  status: ('A' for Active; 'I' for Inactive)
    1  A    between atoms: C_1  and  C_2
    2  A    between atoms: C_2  and  C_3
                            x       y       z     vdW  Elec       q    Type
                         _______ _______ _______ _____ _____    ______ ____

>  <TORSDO>
F 2

$$$$
=
 OpenBabel10272401523D

 28 32  0  0  1  0  0  0  0  0999 V2000
  189.0310  177.6230  141.2210 C   0  0  0  0  0  0  0  0  0  0  0  0
  184.4350  178.4130  143.0130 C   0  0  0  0  0  2  0  0  0  0  0  0
  186.4440  178.2750  137.0510 C   0  0  0  0  0  1  0  0  0  0  0  0
  183.1270  178.4520  140.9180 C   0  0  1  0  0  3  0  0  0  0  0  0
  185.6140  178.6410  140.7900 C   0  0  0  0  0  0  0  0  0  0  0  0
  181.9410  178.9260  143.0510 C   0  0  0  0  0  0  0  0  0  0  0  0
  184.3920  178.9880  141.5990 C   0  0  2  0  0  3  0  0  0  0  0  0
  184.1810  178.6190  138.7220 N   0  0  0  0  0  2  0  0  0  0  0  0
  181.9000  178.7680  141.7220 C   0  0  0  0  0  3  0  0  0  0  0  0
  187.9570  178.4090  139.1400 C   0  0  2  0  0  3  0  0  0  0  0  0
  186.7610  178.4490  141.3740 N   0  0  0  0  0  0  0  0  0  0  0  0
  183.0120  179.0080  139.5060 C   0  0  0  0  0  2  0  0  0  0  0  0
  190.0550  177.1170  139.0700 C   0  0  0  0  0  3  0  0  0  0  0  0
  186.5760  178.3570  138.5380 C   0  0  0  0  0  0  0  0  0  0  0  0
  188.8750  177.5510  138.4550 O   0  0  0  0  0  0  0  0  0  0  0  0
  180.7580  179.1650  143.7360 O   0  0  0  0  0  1  0  0  0  0  0  0
  183.2400  178.9260  143.8220 C   0  0  0  0  0  2  0  0  0  0  0  0
  185.4890  178.5480  139.3080 C   0  0  0  0  0  0  0  0  0  0  0  0
  190.1670  177.1610  140.4000 C   0  0  0  0  0  3  0  0  0  0  0  0
  187.9390  178.1310  140.6240 C   0  0  0  0  0  0  0  0  0  0  0  0
  189.0750  177.3930  142.7050 C   0  0  0  0  0  2  0  0  0  0  0  0
  190.5040  177.2560  143.2380 C   0  0  2  0  0  3  0  0  0  0  0  0
  191.3760  177.1960  145.3670 C   0  0  1  0  0  3  0  0  0  0  0  0
  190.8110  175.9070  143.4950 O   0  0  0  0  0  0  0  0  0  0  0  0
  191.6070  179.1350  144.0960 C   0  0  0  0  0  1  0  0  0  0  0  0
  190.6870  178.0620  144.4400 N   0  0  0  0  0  0  0  0  0  0  0  0
  190.4760  176.9130  146.5550 C   0  0  0  0  0  1  0  0  0  0  0  0
  191.6380  175.9170  144.6210 C   0  0  0  0  0  2  0  0  0  0  0  0
  1 21  1  0  0  0  0
  2 17  1  0  0  0  0
  3 14  1  0  0  0  0
  4 12  1  6  0  0  0
  4  7  1  0  0  0  0
  4  9  1  0  0  0  0
  5 11  2  0  0  0  0
  5  7  1  0  0  0  0
  6 16  1  0  0  0  0
  6 17  1  0  0  0  0
  7  2  1  1  0  0  0
  8 18  1  0  0  0  0
  8 12  1  0  0  0  0
  9  6  2  0  0  0  0
 10 15  1  6  0  0  0
 10 20  1  0  0  0  0
 13 19  2  0  0  0  0
 14 10  1  0  0  0  0
 14 18  2  0  0  0  0
 15 13  1  0  0  0  0
 18  5  1  0  0  0  0
 19  1  1  0  0  0  0
 20  1  2  0  0  0  0
 20 11  1  0  0  0  0
 22 21  1  1  0  0  0
 22 24  1  0  0  0  0
 22 26  1  0  0  0  0
 23 27  1  1  0  0  0
 24 28  1  0  0  0  0
 25 26  1  0  0  0  0
 26 23  1  0  0  0  0
 28 23  1  0  0  0  0
M  END
>  <MODEL>
7

>  <REMARK>
 VINA RESULT:      -8.5      2.471      5.589
  Name = 
  2 active torsions:
  status: ('A' for Active; 'I' for Inactive)
    1  A    between atoms: C_1  and  C_2
    2  A    between atoms: C_2  and  C_3
                            x       y       z     vdW  Elec       q    Type
                         _______ _______ _______ _____ _____    ______ ____

>  <TORSDO>
F 2

$$$$
=
 OpenBabel10272401523D

 28 32  0  0  1  0  0  0  0  0999 V2000
  188.8040  176.8540  143.9320 C   0  0  0  0  0  0  0  0  0  0  0  0
  184.5290  177.9200  141.5790 C   0  0  0  0  0  2  0  0  0  0  0  0
  186.3050  179.2600  147.4650 C   0  0  0  0  0  1  0  0  0  0  0  0
  183.4260  179.3550  143.2590 C   0  0  1  0  0  3  0  0  0  0  0  0
  185.3950  177.9840  143.9510 C   0  0  0  0  0  0  0  0  0  0  0  0
  182.1660  178.7890  141.1920 C   0  0  0  0  0  0  0  0  0  0  0  0
  184.1820  178.0360  143.0610 C   0  0  2  0  0  3  0  0  0  0  0  0
  184.2210  179.5200  145.5610 N   0  0  0  0  0  0  0  0  0  0  0  0
  182.2250  179.4350  142.3630 C   0  0  0  0  0  3  0  0  0  0  0  0
  187.4840  177.5880  145.8870 C   0  0  2  0  0  3  0  0  0  0  0  0
  186.4550  177.3230  143.5860 N   0  0  0  0  0  0  0  0  0  0  0  0
  183.0290  179.5220  144.7190 C   0  0  0  0  0  2  0  0  0  0  0  0
  189.9470  177.5350  145.9720 C   0  0  0  0  0  3  0  0  0  0  0  0
  186.3640  178.5650  146.1420 C   0  0  1  0  0  3  0  0  0  0  0  0
  188.7260  178.0390  146.4370 O   0  0  0  0  0  0  0  0  0  0  0  0
  181.0450  178.9500  140.3910 O   0  0  0  0  0  1  0  0  0  0  0  0
  183.2460  177.8300  140.7470 C   0  0  0  0  0  2  0  0  0  0  0  0
  185.3490  178.6830  145.2670 C   0  0  0  0  0  0  0  0  0  0  0  0
  190.0100  176.9400  144.7790 C   0  0  0  0  0  3  0  0  0  0  0  0
  187.6160  177.2490  144.4210 C   0  0  0  0  0  0  0  0  0  0  0  0
  188.9620  176.4460  142.4950 C   0  0  0  0  0  2  0  0  0  0  0  0
  189.4960  177.5780  141.6150 C   0  0  2  0  0  3  0  0  0  0  0  0
  190.1620  177.6630  139.4130 C   0  0  1  0  0  3  0  0  0  0  0  0
  188.4470  178.2020  140.9160 O   0  0  0  0  0  0  0  0  0  0  0  0
  191.7780  177.6620  141.0920 C   0  0  0  0  0  1  0  0  0  0  0  0
  190.5070  177.0810  140.6880 N   0  0  0  0  0  0  0  0  0  0  0  0
  189.7600  176.5630  138.4500 C   0  0  0  0  0  1  0  0  0  0  0  0
  188.9810  178.5570  139.6740 C   0  0  0  0  0  2  0  0  0  0  0  0
  1 20  2  0  0  0  0
  1 19  1  0  0  0  0
  4  9  1  6  0  0  0
  4 12  1  0  0  0  0
  5 18  1  0  0  0  0
  6  9  2  0  0  0  0
  7  2  1  6  0  0  0
  7  4  1  0  0  0  0
  7  5  1  0  0  0  0
 10 20  1  6  0  0  0
 10 14  1  0  0  0  0
 10 15  1  0  0  0  0
 11  5  2  0  0  0  0
 11 20  1  0  0  0  0
 12  8  1  0  0  0  0
 13 15  1  0  0  0  0
 14  3  1  1  0  0  0
 16  6  1  0  0  0  0
 17  6  1  0  0  0  0
 17  2  1  0  0  0  0
 18  8  2  0  0  0  0
 18 14  1  0  0  0  0
 19 13  2  0  0  0  0
 21  1  1  0  0  0  0
 22 21  1  6  0  0  0
 23 27  1  6  0  0  0
 23 28  1  0  0  0  0
 23 26  1  0  0  0  0
 24 22  1  0  0  0  0
 26 25  1  0  0  0  0
 26 22  1  0  0  0  0
 28 24  1  0  0  0  0
M  END
>  <MODEL>
8

>  <REMARK>
 VINA RESULT:      -8.5      1.318      1.869
  Name = 
  2 active torsions:
  status: ('A' for Active; 'I' for Inactive)
    1  A    between atoms: C_1  and  C_2
    2  A    between atoms: C_2  and  C_3
                            x       y       z     vdW  Elec       q    Type
                         _______ _______ _______ _____ _____    ______ ____

>  <TORSDO>
F 2

$$$$
=
 OpenBabel10272401523D

 28 32  0  0  1  0  0  0  0  0999 V2000
  183.7990  178.6710  142.2200 C   0  0  0  0  0  0  0  0  0  0  0  0
  188.6030  177.3070  142.1160 C   0  0  0  0  0  2  0  0  0  0  0  0
  184.8570  178.4130  147.0490 C   0  0  0  0  0  1  0  0  0  0  0  0
  189.0200  176.9130  144.5190 C   0  0  1  0  0  3  0  0  0  0  0  0
  186.9620  178.1550  143.8400 C   0  0  0  0  0  0  0  0  0  0  0  0
  190.9330  176.7000  142.9470 C   0  0  0  0  0  0  0  0  0  0  0  0
  188.4090  177.8950  143.5120 C   0  0  2  0  0  3  0  0  0  0  0  0
  187.4680  177.6510  146.2530 N   0  0  0  0  0  2  0  0  0  0  0  0
  190.4560  176.6230  144.1950 C   0  0  0  0  0  3  0  0  0  0  0  0
  184.3380  179.0510  144.6010 C   0  0  2  0  0  3  0  0  0  0  0  0
  186.1110  178.4360  142.8960 N   0  0  0  0  0  0  0  0  0  0  0  0
  188.8790  177.4530  145.9350 C   0  0  0  0  0  2  0  0  0  0  0  0
  182.0020  178.7870  143.8600 C   0  0  0  0  0  3  0  0  0  0  0  0
  185.2780  178.4500  145.6160 C   0  0  0  0  0  0  0  0  0  0  0  0
  182.9730  178.7120  144.8650 O   0  0  0  0  0  0  0  0  0  0  0  0
  192.2600  176.3680  142.7130 O   0  0  0  0  0  1  0  0  0  0  0  0
  190.0970  177.2070  141.7950 C   0  0  0  0  0  2  0  0  0  0  0  0
  186.5320  178.1100  145.2660 C   0  0  0  0  0  0  0  0  0  0  0  0
  182.3720  178.7910  142.5780 C   0  0  0  0  0  3  0  0  0  0  0  0
  184.7330  178.6990  143.1860 C   0  0  0  0  0  0  0  0  0  0  0  0
  184.1610  178.3890  140.7900 C   0  0  0  0  0  2  0  0  0  0  0  0
  182.9710  177.8890  139.9670 C   0  0  2  0  0  3  0  0  0  0  0  0
  182.7170  177.3840  137.7360 C   0  0  1  0  0  3  0  0  0  0  0  0
  182.9810  176.4850  139.8830 O   0  0  0  0  0  0  0  0  0  0  0  0
  181.8270  179.3720  138.5620 C   0  0  0  0  0  1  0  0  0  0  0  0
  182.9750  178.4840  138.6350 N   0  0  0  0  0  0  0  0  0  0  0  0
  183.9350  177.1530  136.8600 C   0  0  0  0  0  1  0  0  0  0  0  0
  182.4920  176.1810  138.6090 C   0  0  0  0  0  2  0  0  0  0  0  0
  1 19  1  0  0  0  0
  1 20  2  0  0  0  0
  4  9  1  6  0  0  0
  4 12  1  0  0  0  0
  5 18  1  0  0  0  0
  6  9  2  0  0  0  0
  7  2  1  6  0  0  0
  7  5  1  0  0  0  0
  7  4  1  0  0  0  0
 10 20  1  6  0  0  0
 10 15  1  0  0  0  0
 10 14  1  0  0  0  0
 11 20  1  0  0  0  0
 11  5  2  0  0  0  0
 12  8  1  0  0  0  0
 13 15  1  0  0  0  0
 14  3  1  0  0  0  0
 16  6  1  0  0  0  0
 17  2  1  0  0  0  0
 17  6  1  0  0  0  0
 18 14  2  0  0  0  0
 18  8  1  0  0  0  0
 19 13  2  0  0  0  0
 21  1  1  0  0  0  0
 22 21  1  1  0  0  0
 23 27  1  6  0  0  0
 23 28  1  0  0  0  0
 23 26  1  0  0  0  0
 24 22  1  0  0  0  0
 25 26  1  0  0  0  0
 26 22  1  0  0  0  0
 28 24  1  0  0  0  0
M  END
>  <MODEL>
9

>  <REMARK>
 VINA RESULT:      -8.4      2.893      6.554
  Name = 
  2 active torsions:
  status: ('A' for Active; 'I' for Inactive)
    1  A    between atoms: C_1  and  C_2
    2  A    between atoms: C_2  and  C_3
                            x       y       z     vdW  Elec       q    Type
                         _______ _______ _______ _____ _____    ______ ____

>  <TORSDO>
F 2

$$$$
