=
 OpenBabel10272413123D

 32 37  0  0  1  0  0  0  0  0999 V2000
  187.8150  177.8850  138.3770 C   0  0  1  0  0  3  0  0  0  0  0  0
  187.6160  177.9180  140.7030 C   0  0  0  0  0  0  0  0  0  0  0  0
  188.6210  178.7650  137.4730 C   0  0  0  0  0  3  0  0  0  0  0  0
  188.5110  177.6070  139.6860 C   0  0  0  0  0  0  0  0  0  0  0  0
  188.9030  177.1460  142.8070 C   0  0  0  0  0  0  0  0  0  0  0  0
  184.8820  178.7950  144.1870 C   0  0  0  0  0  3  0  0  0  0  0  0
  187.7790  177.7300  142.0710 C   0  0  0  0  0  0  0  0  0  0  0  0
  186.7260  177.8360  145.4710 C   0  0  0  0  0  3  0  0  0  0  0  0
  187.4110  177.6600  144.2700 C   0  0  0  0  0  0  0  0  0  0  0  0
  190.1030  176.6750  142.3000 C   0  0  0  0  0  0  0  0  0  0  0  0
  189.8210  177.0610  139.7870 C   0  0  0  0  0  0  0  0  0  0  0  0
  188.6360  177.1250  144.1350 N   0  0  0  0  0  0  0  0  0  0  0  0
  190.7630  176.9200  138.6070 C   0  0  0  0  0  2  0  0  0  0  0  0
  190.1800  176.9940  137.2010 C   0  0  0  0  0  2  0  0  0  0  0  0
  186.4150  178.4720  140.1880 N   0  0  0  0  0  2  0  0  0  0  0  0
  190.4670  176.6740  140.9610 C   0  0  0  0  0  3  0  0  0  0  0  0
  186.5010  178.5630  138.7450 C   0  0  2  0  0  3  0  0  0  0  0  0
  186.8650  178.0340  143.0660 C   0  0  0  0  0  0  0  0  0  0  0  0
  191.0360  176.1700  143.1990 O   0  0  0  0  0  1  0  0  0  0  0  0
  189.7040  178.3300  136.9350 N   0  0  0  0  0  0  0  0  0  0  0  0
  185.4450  178.4120  145.4210 C   0  0  0  0  0  3  0  0  0  0  0  0
  185.5930  178.6070  142.9910 C   0  0  0  0  0  3  0  0  0  0  0  0
  182.9750  177.7430  137.5660 C   0  0  0  0  0  0  0  0  0  0  0  0
  181.5810  178.2640  137.6460 C   0  0  0  0  0  1  0  0  0  0  0  0
  185.3370  177.8750  138.0950 C   0  0  0  0  0  0  0  0  0  0  0  0
  183.2110  176.6080  136.8560 N   0  0  0  0  0  0  0  0  0  0  0  0
  185.5400  176.7050  137.3510 C   0  0  0  0  0  3  0  0  0  0  0  0
  184.0390  178.4060  138.2040 C   0  0  0  0  0  0  0  0  0  0  0  0
  183.7510  179.8860  139.1240 Cl  0  0  0  0  0  0  0  0  0  0  0  0
  184.4550  176.0760  136.7430 C   0  0  0  0  0  0  0  0  0  0  0  0
  185.6800  174.0770  136.5030 O   0  0  0  0  0  1  0  0  0  0  0  0
  184.6680  174.8470  135.9320 C   0  0  0  0  0  2  0  0  0  0  0  0
  1  3  1  6  0  0  0
  1 17  1  0  0  0  0
  1  4  1  0  0  0  0
  2  7  1  0  0  0  0
  4 11  1  0  0  0  0
  4  2  2  0  0  0  0
  5 12  1  0  0  0  0
  6 21  1  0  0  0  0
  7  5  1  0  0  0  0
  7 18  2  0  0  0  0
  9  8  1  0  0  0  0
 10  5  2  0  0  0  0
 10 19  1  0  0  0  0
 11 16  2  0  0  0  0
 12  9  2  0  0  0  0
 13 11  1  0  0  0  0
 14 13  1  0  0  0  0
 15  2  1  0  0  0  0
 16 10  1  0  0  0  0
 17 25  1  6  0  0  0
 17 15  1  0  0  0  0
 18  9  1  0  0  0  0
 20 14  1  0  0  0  0
 20  3  2  0  0  0  0
 21  8  2  0  0  0  0
 22 18  1  0  0  0  0
 22  6  2  0  0  0  0
 23 24  1  0  0  0  0
 23 28  1  0  0  0  0
 25 28  2  0  0  0  0
 26 23  2  0  0  0  0
 27 25  1  0  0  0  0
 28 29  1  0  0  0  0
 30 26  1  0  0  0  0
 30 27  2  0  0  0  0
 32 31  1  0  0  0  0
 32 30  1  0  0  0  0
M  END
>  <MODEL>
1

>  <REMARK>
 VINA RESULT:      -8.9      0.000      0.000
  Name = 
  2 active torsions:
  status: ('A' for Active; 'I' for Inactive)
    1  A    between atoms: C_15  and  CA_26
    2  A    between atoms: C_16  and  C_27
                            x       y       z     vdW  Elec       q    Type
                         _______ _______ _______ _____ _____    ______ ____

>  <TORSDO>
F 2

$$$$
=
 OpenBabel10272413123D

 32 37  0  0  1  0  0  0  0  0999 V2000
  187.8960  177.9160  139.0550 C   0  0  1  0  0  3  0  0  0  0  0  0
  187.1060  178.1400  141.2400 C   0  0  0  0  0  0  0  0  0  0  0  0
  188.9200  178.7240  138.3200 C   0  0  0  0  0  3  0  0  0  0  0  0
  188.2280  177.7520  140.5180 C   0  0  0  0  0  0  0  0  0  0  0  0
  187.7990  177.5540  143.6610 C   0  0  0  0  0  0  0  0  0  0  0  0
  183.5810  179.2820  143.8200 C   0  0  0  0  0  3  0  0  0  0  0  0
  186.9100  178.0670  142.6160 C   0  0  0  0  0  0  0  0  0  0  0  0
  185.0200  178.4460  145.6100 C   0  0  0  0  0  3  0  0  0  0  0  0
  185.9880  178.1760  144.6440 C   0  0  0  0  0  0  0  0  0  0  0  0
  189.0820  177.0510  143.5200 C   0  0  0  0  0  0  0  0  0  0  0  0
  189.4600  177.2260  140.9960 C   0  0  0  0  0  0  0  0  0  0  0  0
  187.1990  177.6410  144.8730 N   0  0  0  0  0  0  0  0  0  0  0  0
  190.6720  176.9950  140.1140 C   0  0  0  0  0  2  0  0  0  0  0  0
  190.4710  176.9480  138.6040 C   0  0  0  0  0  2  0  0  0  0  0  0
  186.0860  178.6400  140.3910 N   0  0  0  0  0  2  0  0  0  0  0  0
  189.7780  176.9420  142.3250 C   0  0  0  0  0  3  0  0  0  0  0  0
  186.5420  178.6120  139.0160 C   0  0  2  0  0  3  0  0  0  0  0  0
  185.7750  178.4450  143.3140 C   0  0  0  0  0  0  0  0  0  0  0  0
  189.7450  176.6290  144.6670 O   0  0  0  0  0  1  0  0  0  0  0  0
  190.0980  178.2530  138.1160 N   0  0  0  0  0  0  0  0  0  0  0  0
  183.8030  179.0060  145.1850 C   0  0  0  0  0  3  0  0  0  0  0  0
  184.5730  179.0010  142.8660 C   0  0  0  0  0  3  0  0  0  0  0  0
  183.3510  177.5430  137.2340 C   0  0  0  0  0  0  0  0  0  0  0  0
  181.9140  177.9190  137.1160 C   0  0  0  0  0  1  0  0  0  0  0  0
  185.5740  177.8640  138.1470 C   0  0  0  0  0  0  0  0  0  0  0  0
  183.8150  176.4910  136.5080 N   0  0  0  0  0  0  0  0  0  0  0  0
  186.0150  176.7770  137.3810 C   0  0  0  0  0  3  0  0  0  0  0  0
  184.2250  178.2570  138.0740 C   0  0  0  0  0  0  0  0  0  0  0  0
  183.6400  179.6300  139.0170 Cl  0  0  0  0  0  0  0  0  0  0  0  0
  185.1120  176.0920  136.5690 C   0  0  0  0  0  0  0  0  0  0  0  0
  186.9720  174.8810  135.7760 O   0  0  0  0  0  1  0  0  0  0  0  0
  185.5800  174.9530  135.7350 C   0  0  0  0  0  2  0  0  0  0  0  0
  1  3  1  6  0  0  0
  1  4  1  0  0  0  0
  2  7  1  0  0  0  0
  4 11  1  0  0  0  0
  4  2  2  0  0  0  0
  5 12  1  0  0  0  0
  6 21  1  0  0  0  0
  7 18  2  0  0  0  0
  7  5  1  0  0  0  0
  9 12  2  0  0  0  0
  9  8  1  0  0  0  0
 10  5  2  0  0  0  0
 10 19  1  0  0  0  0
 11 16  2  0  0  0  0
 13 11  1  0  0  0  0
 14 13  1  0  0  0  0
 15  2  1  0  0  0  0
 16 10  1  0  0  0  0
 17 25  1  6  0  0  0
 17  1  1  0  0  0  0
 17 15  1  0  0  0  0
 18  9  1  0  0  0  0
 20  3  2  0  0  0  0
 20 14  1  0  0  0  0
 21  8  2  0  0  0  0
 22 18  1  0  0  0  0
 22  6  2  0  0  0  0
 23 28  1  0  0  0  0
 24 23  1  0  0  0  0
 26 30  1  0  0  0  0
 26 23  2  0  0  0  0
 27 25  1  0  0  0  0
 28 25  2  0  0  0  0
 28 29  1  0  0  0  0
 30 27  2  0  0  0  0
 32 31  1  0  0  0  0
 32 30  1  0  0  0  0
M  END
>  <MODEL>
2

>  <REMARK>
 VINA RESULT:      -8.8      0.927      1.188
  Name = 
  2 active torsions:
  status: ('A' for Active; 'I' for Inactive)
    1  A    between atoms: C_15  and  CA_26
    2  A    between atoms: C_16  and  C_27
                            x       y       z     vdW  Elec       q    Type
                         _______ _______ _______ _____ _____    ______ ____

>  <TORSDO>
F 2

$$$$
=
 OpenBabel10272413123D

 32 37  0  0  1  0  0  0  0  0999 V2000
  190.1790  177.3710  141.8780 C   0  0  1  0  0  3  0  0  0  0  0  0
  187.9110  177.9150  141.9860 C   0  0  0  0  0  0  0  0  0  0  0  0
  191.3690  178.1270  142.3800 C   0  0  0  0  0  3  0  0  0  0  0  0
  188.9790  177.5140  142.7810 C   0  0  0  0  0  0  0  0  0  0  0  0
  185.9440  177.8580  143.6620 C   0  0  0  0  0  0  0  0  0  0  0  0
  184.2690  179.1590  139.6250 C   0  0  0  0  0  3  0  0  0  0  0  0
  186.5810  178.0780  142.3620 C   0  0  0  0  0  0  0  0  0  0  0  0
  183.1480  178.8140  141.7680 C   0  0  0  0  0  3  0  0  0  0  0  0
  184.3860  178.4680  142.3080 C   0  0  0  0  0  0  0  0  0  0  0  0
  186.5400  177.4670  144.8500 C   0  0  0  0  0  0  0  0  0  0  0  0
  188.9920  177.2090  144.1700 C   0  0  0  0  0  0  0  0  0  0  0  0
  184.6150  178.1070  143.5830 N   0  0  0  0  0  0  0  0  0  0  0  0
  190.2600  176.9410  144.9570 C   0  0  0  0  0  2  0  0  0  0  0  0
  191.5300  176.5960  144.1890 C   0  0  0  0  0  2  0  0  0  0  0  0
  188.3170  178.1470  140.6470 N   0  0  0  0  0  2  0  0  0  0  0  0
  187.8910  177.2080  145.0270 C   0  0  0  0  0  3  0  0  0  0  0  0
  189.7400  177.9110  140.5220 C   0  0  2  0  0  3  0  0  0  0  0  0
  185.5300  178.4640  141.5480 C   0  0  0  0  0  0  0  0  0  0  0  0
  185.7280  177.3320  145.9720 O   0  0  0  0  0  1  0  0  0  0  0  0
  191.9820  177.7460  143.4430 N   0  0  0  0  0  0  0  0  0  0  0  0
  183.0980  179.1630  140.4080 C   0  0  0  0  0  3  0  0  0  0  0  0
  185.5040  178.8060  140.1930 C   0  0  0  0  0  3  0  0  0  0  0  0
  191.5760  175.6230  138.0940 C   0  0  0  0  0  0  0  0  0  0  0  0
  192.9580  175.2070  137.7210 C   0  0  0  0  0  1  0  0  0  0  0  0
  190.0250  176.9220  139.4280 C   0  0  0  0  0  0  0  0  0  0  0  0
  190.5240  175.0690  137.4340 N   0  0  0  0  0  0  0  0  0  0  0  0
  188.9670  176.3270  138.7280 C   0  0  0  0  0  3  0  0  0  0  0  0
  191.3490  176.5660  139.1120 C   0  0  0  0  0  0  0  0  0  0  0  0
  192.7040  177.2890  139.9850 Cl  0  0  0  0  0  0  0  0  0  0  0  0
  189.2400  175.4040  137.7200 C   0  0  0  0  0  0  0  0  0  0  0  0
  186.9440  175.4710  137.1930 O   0  0  0  0  0  1  0  0  0  0  0  0
  188.1200  174.7510  136.9900 C   0  0  0  0  0  2  0  0  0  0  0  0
  1  3  1  1  0  0  0
  1  4  1  0  0  0  0
  2  7  2  0  0  0  0
  2  4  1  0  0  0  0
  3 20  2  0  0  0  0
  4 11  2  0  0  0  0
  5 10  1  0  0  0  0
  6 22  2  0  0  0  0
  6 21  1  0  0  0  0
  7  5  1  0  0  0  0
  8  9  1  0  0  0  0
  9 12  1  0  0  0  0
 10 16  2  0  0  0  0
 10 19  1  0  0  0  0
 11 13  1  0  0  0  0
 11 16  1  0  0  0  0
 12  5  2  0  0  0  0
 14 13  1  0  0  0  0
 15  2  1  0  0  0  0
 17 25  1  6  0  0  0
 17 15  1  0  0  0  0
 17  1  1  0  0  0  0
 18  9  2  0  0  0  0
 18  7  1  0  0  0  0
 20 14  1  0  0  0  0
 21  8  2  0  0  0  0
 22 18  1  0  0  0  0
 23 28  1  0  0  0  0
 24 23  1  0  0  0  0
 26 30  1  0  0  0  0
 26 23  2  0  0  0  0
 27 25  1  0  0  0  0
 28 25  2  0  0  0  0
 28 29  1  0  0  0  0
 30 27  2  0  0  0  0
 32 31  1  0  0  0  0
 32 30  1  0  0  0  0
M  END
>  <MODEL>
3

>  <REMARK>
 VINA RESULT:      -8.6      3.052      5.457
  Name = 
  2 active torsions:
  status: ('A' for Active; 'I' for Inactive)
    1  A    between atoms: C_15  and  CA_26
    2  A    between atoms: C_16  and  C_27
                            x       y       z     vdW  Elec       q    Type
                         _______ _______ _______ _____ _____    ______ ____

>  <TORSDO>
F 2

$$$$
=
 OpenBabel10272413123D

 32 37  0  0  1  0  0  0  0  0999 V2000
  187.4220  178.2790  140.9230 C   0  0  1  0  0  3  0  0  0  0  0  0
  188.0720  177.9060  143.1340 C   0  0  0  0  0  0  0  0  0  0  0  0
  188.0040  179.2000  139.8960 C   0  0  0  0  0  3  0  0  0  0  0  0
  188.4720  177.6760  141.8220 C   0  0  0  0  0  0  0  0  0  0  0  0
  189.8530  176.5980  144.4750 C   0  0  0  0  0  0  0  0  0  0  0  0
  186.9740  178.4660  147.4770 C   0  0  0  0  0  3  0  0  0  0  0  0
  188.6730  177.4470  144.3020 C   0  0  0  0  0  0  0  0  0  0  0  0
  188.9380  177.0560  147.8310 C   0  0  0  0  0  3  0  0  0  0  0  0
  189.1050  177.0190  146.4480 C   0  0  0  0  0  0  0  0  0  0  0  0
  190.6830  176.0780  143.4940 C   0  0  0  0  0  0  0  0  0  0  0  0
  189.6030  176.9560  141.3470 C   0  0  0  0  0  0  0  0  0  0  0  0
  190.0770  176.3650  145.7900 N   0  0  0  0  0  0  0  0  0  0  0  0
  190.0190  176.9160  139.8900 C   0  0  0  0  0  2  0  0  0  0  0  0
  189.0000  177.3240  138.8340 C   0  0  0  0  0  2  0  0  0  0  0  0
  186.8950  178.6960  143.1890 N   0  0  0  0  0  2  0  0  0  0  0  0
  190.5390  176.2780  142.1290 C   0  0  0  0  0  3  0  0  0  0  0  0
  186.4780  179.0410  141.8450 C   0  0  2  0  0  3  0  0  0  0  0  0
  188.2470  177.6770  145.5990 C   0  0  0  0  0  0  0  0  0  0  0  0
  191.7610  175.2990  143.8990 O   0  0  0  0  0  1  0  0  0  0  0  0
  188.7220  178.7360  138.9370 N   0  0  0  0  0  0  0  0  0  0  0  0
  187.8570  177.7920  148.3450 C   0  0  0  0  0  3  0  0  0  0  0  0
  187.1640  178.4130  146.0860 C   0  0  0  0  0  3  0  0  0  0  0  0
  182.7330  178.5310  142.3100 C   0  0  0  0  0  0  0  0  0  0  0  0
  181.6480  178.7900  143.2980 C   0  0  0  0  0  1  0  0  0  0  0  0
  185.0510  178.6410  141.6080 C   0  0  0  0  0  0  0  0  0  0  0  0
  182.4190  177.9280  141.1340 N   0  0  0  0  0  0  0  0  0  0  0  0
  184.6870  178.0210  140.4060 C   0  0  0  0  0  3  0  0  0  0  0  0
  184.0640  178.9040  142.5750 C   0  0  0  0  0  0  0  0  0  0  0  0
  184.4880  179.6960  144.0960 Cl  0  0  0  0  0  0  0  0  0  0  0  0
  183.3580  177.6600  140.1900 C   0  0  0  0  0  0  0  0  0  0  0  0
  182.8300  175.6460  139.0850 O   0  0  0  0  0  1  0  0  0  0  0  0
  182.9610  177.0230  138.9060 C   0  0  0  0  0  2  0  0  0  0  0  0
  1  3  1  6  0  0  0
  1  4  1  0  0  0  0
  1 17  1  0  0  0  0
  2 15  1  0  0  0  0
  2  7  1  0  0  0  0
  4  2  2  0  0  0  0
  5 12  1  0  0  0  0
  6 21  1  0  0  0  0
  7  5  1  0  0  0  0
  7 18  2  0  0  0  0
  8 21  2  0  0  0  0
  9  8  1  0  0  0  0
 10 19  1  0  0  0  0
 10  5  2  0  0  0  0
 11  4  1  0  0  0  0
 11 16  2  0  0  0  0
 12  9  2  0  0  0  0
 13 11  1  0  0  0  0
 14 20  1  0  0  0  0
 14 13  1  0  0  0  0
 16 10  1  0  0  0  0
 17 25  1  6  0  0  0
 17 15  1  0  0  0  0
 18 22  1  0  0  0  0
 18  9  1  0  0  0  0
 20  3  2  0  0  0  0
 22  6  2  0  0  0  0
 23 28  1  0  0  0  0
 23 24  1  0  0  0  0
 25 28  2  0  0  0  0
 26 23  2  0  0  0  0
 27 25  1  0  0  0  0
 28 29  1  0  0  0  0
 30 27  2  0  0  0  0
 30 26  1  0  0  0  0
 32 31  1  0  0  0  0
 32 30  1  0  0  0  0
M  END
>  <MODEL>
4

>  <REMARK>
 VINA RESULT:      -8.4      2.291      3.270
  Name = 
  2 active torsions:
  status: ('A' for Active; 'I' for Inactive)
    1  A    between atoms: C_15  and  CA_26
    2  A    between atoms: C_16  and  C_27
                            x       y       z     vdW  Elec       q    Type
                         _______ _______ _______ _____ _____    ______ ____

>  <TORSDO>
F 2

$$$$
=
 OpenBabel10272413123D

 32 37  0  0  1  0  0  0  0  0999 V2000
  187.8560  178.0400  139.5670 C   0  0  1  0  0  3  0  0  0  0  0  0
  187.7850  177.9570  141.9000 C   0  0  0  0  0  0  0  0  0  0  0  0
  188.6670  178.9180  138.6660 C   0  0  0  0  0  3  0  0  0  0  0  0
  188.6020  177.6480  140.8190 C   0  0  0  0  0  0  0  0  0  0  0  0
  189.1310  176.9920  143.8840 C   0  0  0  0  0  0  0  0  0  0  0  0
  185.3060  178.8060  145.5760 C   0  0  0  0  0  3  0  0  0  0  0  0
  188.0090  177.6830  143.2450 C   0  0  0  0  0  0  0  0  0  0  0  0
  187.1510  177.6650  146.7010 C   0  0  0  0  0  3  0  0  0  0  0  0
  187.7570  177.5140  145.4550 C   0  0  0  0  0  0  0  0  0  0  0  0
  190.2690  176.4760  143.2850 C   0  0  0  0  0  0  0  0  0  0  0  0
  189.8770  177.0170  140.8150 C   0  0  0  0  0  0  0  0  0  0  0  0
  188.9360  176.9130  145.2220 N   0  0  0  0  0  0  0  0  0  0  0  0
  190.7430  176.8840  139.5780 C   0  0  0  0  0  2  0  0  0  0  0  0
  190.0910  177.0720  138.2130 C   0  0  0  0  0  2  0  0  0  0  0  0
  186.5970  178.6120  141.4840 N   0  0  0  0  0  2  0  0  0  0  0  0
  190.5590  176.5260  141.9290 C   0  0  0  0  0  3  0  0  0  0  0  0
  186.6100  178.7770  140.0450 C   0  0  2  0  0  3  0  0  0  0  0  0
  187.1720  177.9870  144.3050 C   0  0  0  0  0  0  0  0  0  0  0  0
  191.2150  175.8650  144.1010 O   0  0  0  0  0  1  0  0  0  0  0  0
  189.6880  178.4470  138.0450 N   0  0  0  0  0  0  0  0  0  0  0  0
  185.9090  178.3210  146.7540 C   0  0  0  0  0  3  0  0  0  0  0  0
  185.9370  178.6410  144.3330 C   0  0  0  0  0  3  0  0  0  0  0  0
  183.0050  177.6760  139.5100 C   0  0  0  0  0  0  0  0  0  0  0  0
  181.6860  177.6660  140.2050 C   0  0  0  0  0  1  0  0  0  0  0  0
  185.3700  178.1990  139.4280 C   0  0  0  0  0  0  0  0  0  0  0  0
  183.0880  177.1610  138.2550 N   0  0  0  0  0  0  0  0  0  0  0  0
  185.4150  177.6620  138.1350 C   0  0  0  0  0  3  0  0  0  0  0  0
  184.1500  178.2110  140.1280 C   0  0  0  0  0  0  0  0  0  0  0  0
  184.0570  178.8910  141.7550 Cl  0  0  0  0  0  0  0  0  0  0  0  0
  184.2580  177.1350  137.5650 C   0  0  0  0  0  0  0  0  0  0  0  0
  185.4950  176.9380  135.5690 O   0  0  0  0  0  1  0  0  0  0  0  0
  184.2940  176.5860  136.1830 C   0  0  0  0  0  2  0  0  0  0  0  0
  1  3  1  6  0  0  0
  1 17  1  0  0  0  0
  1  4  1  0  0  0  0
  2  7  1  0  0  0  0
  4  2  2  0  0  0  0
  5 12  1  0  0  0  0
  6 21  1  0  0  0  0
  7  5  1  0  0  0  0
  7 18  2  0  0  0  0
  8 21  2  0  0  0  0
  9  8  1  0  0  0  0
 10  5  2  0  0  0  0
 10 19  1  0  0  0  0
 11  4  1  0  0  0  0
 11 16  2  0  0  0  0
 12  9  2  0  0  0  0
 13 11  1  0  0  0  0
 14 13  1  0  0  0  0
 15  2  1  0  0  0  0
 16 10  1  0  0  0  0
 17 25  1  6  0  0  0
 17 15  1  0  0  0  0
 18 22  1  0  0  0  0
 18  9  1  0  0  0  0
 20 14  1  0  0  0  0
 20  3  2  0  0  0  0
 22  6  2  0  0  0  0
 23 28  1  0  0  0  0
 23 24  1  0  0  0  0
 25 28  2  0  0  0  0
 26 23  2  0  0  0  0
 27 25  1  0  0  0  0
 28 29  1  0  0  0  0
 30 27  2  0  0  0  0
 30 26  1  0  0  0  0
 31 32  1  0  0  0  0
 32 30  1  0  0  0  0
M  END
>  <MODEL>
5

>  <REMARK>
 VINA RESULT:      -8.3      1.373      1.516
  Name = 
  2 active torsions:
  status: ('A' for Active; 'I' for Inactive)
    1  A    between atoms: C_15  and  CA_26
    2  A    between atoms: C_16  and  C_27
                            x       y       z     vdW  Elec       q    Type
                         _______ _______ _______ _____ _____    ______ ____

>  <TORSDO>
F 2

$$$$
=
 OpenBabel10272413123D

 32 37  0  0  1  0  0  0  0  0999 V2000
  189.9260  177.4050  141.4500 C   0  0  1  0  0  3  0  0  0  0  0  0
  187.7080  177.9280  141.9560 C   0  0  0  0  0  0  0  0  0  0  0  0
  191.1810  178.1640  141.7510 C   0  0  0  0  0  3  0  0  0  0  0  0
  188.8990  177.5250  142.5480 C   0  0  0  0  0  0  0  0  0  0  0  0
  186.0590  177.8290  143.9440 C   0  0  0  0  0  0  0  0  0  0  0  0
  183.7060  179.1740  140.2770 C   0  0  0  0  0  3  0  0  0  0  0  0
  186.4620  178.0740  142.5570 C   0  0  0  0  0  0  0  0  0  0  0  0
  182.9740  178.7880  142.5760 C   0  0  0  0  0  3  0  0  0  0  0  0
  184.2880  178.4450  142.8890 C   0  0  0  0  0  0  0  0  0  0  0  0
  186.8530  177.4260  145.0060 C   0  0  0  0  0  0  0  0  0  0  0  0
  189.1540  177.1990  143.9100 C   0  0  0  0  0  0  0  0  0  0  0  0
  184.7350  178.0680  144.0990 N   0  0  0  0  0  0  0  0  0  0  0  0
  190.5400  176.9310  144.4620 C   0  0  0  0  0  2  0  0  0  0  0  0
  191.6610  176.6090  143.4810 C   0  0  0  0  0  2  0  0  0  0  0  0
  187.8750  178.1830  140.5700 N   0  0  0  0  0  2  0  0  0  0  0  0
  188.2170  177.1770  144.9430 C   0  0  0  0  0  3  0  0  0  0  0  0
  189.2570  177.9610  140.1990 C   0  0  2  0  0  3  0  0  0  0  0  0
  185.2840  178.4620  141.9430 C   0  0  0  0  0  0  0  0  0  0  0  0
  186.2480  177.2670  146.2480 O   0  0  0  0  0  1  0  0  0  0  0  0
  191.9700  177.7730  142.6870 N   0  0  0  0  0  0  0  0  0  0  0  0
  182.6870  179.1570  141.2500 C   0  0  0  0  0  3  0  0  0  0  0  0
  185.0230  178.8240  140.6180 C   0  0  0  0  0  3  0  0  0  0  0  0
  188.4740  176.0120  137.0230 C   0  0  0  0  0  0  0  0  0  0  0  0
  187.4280  175.8980  135.9670 C   0  0  0  0  0  1  0  0  0  0  0  0
  189.3560  176.9910  139.0570 C   0  0  0  0  0  0  0  0  0  0  0  0
  189.5770  175.2220  136.9400 N   0  0  0  0  0  0  0  0  0  0  0  0
  190.4790  176.1630  138.9350 C   0  0  0  0  0  3  0  0  0  0  0  0
  188.3380  176.9200  138.0890 C   0  0  0  0  0  0  0  0  0  0  0  0
  186.9150  177.9590  138.2060 Cl  0  0  0  0  0  0  0  0  0  0  0  0
  190.5670  175.2710  137.8680 C   0  0  0  0  0  0  0  0  0  0  0  0
  192.9090  175.2020  137.6130 O   0  0  0  0  0  1  0  0  0  0  0  0
  191.7690  174.4070  137.7200 C   0  0  0  0  0  2  0  0  0  0  0  0
  1  3  1  1  0  0  0
  1  4  1  0  0  0  0
  2  4  2  0  0  0  0
  2  7  1  0  0  0  0
  3 20  2  0  0  0  0
  4 11  1  0  0  0  0
  5 12  1  0  0  0  0
  5 10  2  0  0  0  0
  6 22  2  0  0  0  0
  6 21  1  0  0  0  0
  7  5  1  0  0  0  0
  8  9  1  0  0  0  0
  9 12  2  0  0  0  0
 10 19  1  0  0  0  0
 11 13  1  0  0  0  0
 11 16  2  0  0  0  0
 14 13  1  0  0  0  0
 15  2  1  0  0  0  0
 16 10  1  0  0  0  0
 17 25  1  6  0  0  0
 17 15  1  0  0  0  0
 17  1  1  0  0  0  0
 18  7  2  0  0  0  0
 18  9  1  0  0  0  0
 20 14  1  0  0  0  0
 21  8  2  0  0  0  0
 22 18  1  0  0  0  0
 23 28  1  0  0  0  0
 24 23  1  0  0  0  0
 26 23  2  0  0  0  0
 26 30  1  0  0  0  0
 27 25  1  0  0  0  0
 28 29  1  0  0  0  0
 28 25  2  0  0  0  0
 30 27  2  0  0  0  0
 31 32  1  0  0  0  0
 32 30  1  0  0  0  0
M  END
>  <MODEL>
6

>  <REMARK>
 VINA RESULT:      -8.3      2.820      4.775
  Name = 
  2 active torsions:
  status: ('A' for Active; 'I' for Inactive)
    1  A    between atoms: C_15  and  CA_26
    2  A    between atoms: C_16  and  C_27
                            x       y       z     vdW  Elec       q    Type
                         _______ _______ _______ _____ _____    ______ ____

>  <TORSDO>
F 2

$$$$
=
 OpenBabel10272413123D

 32 37  0  0  1  0  0  0  0  0999 V2000
  187.8970  177.8070  139.0260 C   0  0  1  0  0  3  0  0  0  0  0  0
  187.0810  178.0800  141.1970 C   0  0  0  0  0  0  0  0  0  0  0  0
  188.9250  178.6020  138.2830 C   0  0  0  0  0  3  0  0  0  0  0  0
  188.2140  177.6800  140.4960 C   0  0  0  0  0  0  0  0  0  0  0  0
  187.7500  177.5550  143.6390 C   0  0  0  0  0  0  0  0  0  0  0  0
  183.5240  179.2660  143.7100 C   0  0  0  0  0  3  0  0  0  0  0  0
  186.8700  178.0380  142.5720 C   0  0  0  0  0  0  0  0  0  0  0  0
  184.9460  178.4800  145.5350 C   0  0  0  0  0  3  0  0  0  0  0  0
  185.9260  178.1920  144.5870 C   0  0  0  0  0  0  0  0  0  0  0  0
  189.0370  177.0550  143.5240 C   0  0  0  0  0  0  0  0  0  0  0  0
  189.4420  177.1710  141.0000 C   0  0  0  0  0  0  0  0  0  0  0  0
  187.1370  177.6680  144.8420 N   0  0  0  0  0  0  0  0  0  0  0  0
  190.6640  176.9250  140.1380 C   0  0  0  0  0  2  0  0  0  0  0  0
  190.4800  176.8410  138.6270 C   0  0  0  0  0  2  0  0  0  0  0  0
  186.0690  178.5550  140.3250 N   0  0  0  0  0  2  0  0  0  0  0  0
  189.7460  176.9210  142.3390 C   0  0  0  0  0  3  0  0  0  0  0  0
  186.5390  178.4960  138.9560 C   0  0  2  0  0  3  0  0  0  0  0  0
  185.7260  178.4270  143.2480 C   0  0  0  0  0  0  0  0  0  0  0  0
  189.6900  176.6640  144.6880 O   0  0  0  0  0  1  0  0  0  0  0  0
  190.1070  178.1320  138.1040 N   0  0  0  0  0  0  0  0  0  0  0  0
  183.7320  179.0240  145.0830 C   0  0  0  0  0  3  0  0  0  0  0  0
  184.5270  178.9670  142.7740 C   0  0  0  0  0  3  0  0  0  0  0  0
  184.8590  176.9140  135.9280 C   0  0  0  0  0  0  0  0  0  0  0  0
  185.0030  176.8160  134.4480 C   0  0  0  0  0  1  0  0  0  0  0  0
  185.5840  177.7220  138.0950 C   0  0  0  0  0  0  0  0  0  0  0  0
  183.8320  176.2570  136.5310 N   0  0  0  0  0  0  0  0  0  0  0  0
  184.5160  177.0290  138.6800 C   0  0  0  0  0  3  0  0  0  0  0  0
  185.7640  177.6640  136.7010 C   0  0  0  0  0  0  0  0  0  0  0  0
  187.1070  178.5160  135.9340 Cl  0  0  0  0  0  0  0  0  0  0  0  0
  183.6390  176.3050  137.8740 C   0  0  0  0  0  0  0  0  0  0  0  0
  182.2300  176.0760  139.7490 O   0  0  0  0  0  1  0  0  0  0  0  0
  182.5180  175.5480  138.4920 C   0  0  0  0  0  2  0  0  0  0  0  0
  1  3  1  6  0  0  0
  1  4  1  0  0  0  0
  2  7  1  0  0  0  0
  4 11  1  0  0  0  0
  4  2  2  0  0  0  0
  5 12  1  0  0  0  0
  6 21  1  0  0  0  0
  7 18  2  0  0  0  0
  7  5  1  0  0  0  0
  9 12  2  0  0  0  0
  9  8  1  0  0  0  0
 10  5  2  0  0  0  0
 10 19  1  0  0  0  0
 11 16  2  0  0  0  0
 13 11  1  0  0  0  0
 14 13  1  0  0  0  0
 15  2  1  0  0  0  0
 16 10  1  0  0  0  0
 17 25  1  6  0  0  0
 17  1  1  0  0  0  0
 17 15  1  0  0  0  0
 18  9  1  0  0  0  0
 20  3  2  0  0  0  0
 20 14  1  0  0  0  0
 21  8  2  0  0  0  0
 22 18  1  0  0  0  0
 22  6  2  0  0  0  0
 23 26  2  0  0  0  0
 23 28  1  0  0  0  0
 24 23  1  0  0  0  0
 25 27  1  0  0  0  0
 26 30  1  0  0  0  0
 28 25  2  0  0  0  0
 29 28  1  0  0  0  0
 30 32  1  0  0  0  0
 30 27  2  0  0  0  0
 32 31  1  0  0  0  0
M  END
>  <MODEL>
7

>  <REMARK>
 VINA RESULT:      -8.3      1.699      2.127
  Name = 
  2 active torsions:
  status: ('A' for Active; 'I' for Inactive)
    1  A    between atoms: C_15  and  CA_26
    2  A    between atoms: C_16  and  C_27
                            x       y       z     vdW  Elec       q    Type
                         _______ _______ _______ _____ _____    ______ ____

>  <TORSDO>
F 2

$$$$
=
 OpenBabel10272413123D

 32 37  0  0  1  0  0  0  0  0999 V2000
  186.5810  178.1160  138.2310 C   0  0  1  0  0  3  0  0  0  0  0  0
  186.3060  178.3040  140.5420 C   0  0  0  0  0  0  0  0  0  0  0  0
  187.3070  179.0140  137.2780 C   0  0  0  0  0  3  0  0  0  0  0  0
  187.2630  178.0240  139.5740 C   0  0  0  0  0  0  0  0  0  0  0  0
  187.6080  177.8530  142.7290 C   0  0  0  0  0  0  0  0  0  0  0  0
  183.3810  179.1150  143.8840 C   0  0  0  0  0  3  0  0  0  0  0  0
  186.4470  178.2410  141.9250 C   0  0  0  0  0  0  0  0  0  0  0  0
  185.2830  178.4820  145.2810 C   0  0  0  0  0  3  0  0  0  0  0  0
  186.0210  178.2970  144.1140 C   0  0  0  0  0  0  0  0  0  0  0  0
  188.8700  177.4890  142.2880 C   0  0  0  0  0  0  0  0  0  0  0  0
  188.6230  177.6450  139.7460 C   0  0  0  0  0  0  0  0  0  0  0  0
  187.3040  177.9020  144.0490 N   0  0  0  0  0  0  0  0  0  0  0  0
  189.6120  177.5270  138.6030 C   0  0  0  0  0  2  0  0  0  0  0  0
  189.0690  177.4240  137.1830 C   0  0  0  0  0  2  0  0  0  0  0  0
  185.0660  178.6710  139.9580 N   0  0  0  0  0  2  0  0  0  0  0  0
  189.2730  177.4290  140.9620 C   0  0  0  0  0  3  0  0  0  0  0  0
  185.1860  178.6600  138.5150 C   0  0  2  0  0  3  0  0  0  0  0  0
  185.4730  178.5100  142.8720 C   0  0  0  0  0  0  0  0  0  0  0  0
  189.8270  177.1690  143.2450 O   0  0  0  0  0  1  0  0  0  0  0  0
  188.4490  178.6690  136.8010 N   0  0  0  0  0  0  0  0  0  0  0  0
  183.9460  178.8970  145.1570 C   0  0  0  0  0  3  0  0  0  0  0  0
  184.1460  178.9210  142.7220 C   0  0  0  0  0  3  0  0  0  0  0  0
  181.8280  177.3720  137.2660 C   0  0  0  0  0  0  0  0  0  0  0  0
  180.3910  177.7630  137.2080 C   0  0  0  0  0  1  0  0  0  0  0  0
  184.1300  177.7910  137.8960 C   0  0  0  0  0  0  0  0  0  0  0  0
  182.2070  176.1880  136.7160 N   0  0  0  0  0  0  0  0  0  0  0  0
  184.4830  176.5660  137.3160 C   0  0  0  0  0  3  0  0  0  0  0  0
  182.7860  178.2050  137.8710 C   0  0  0  0  0  0  0  0  0  0  0  0
  182.3110  179.7500  138.5830 Cl  0  0  0  0  0  0  0  0  0  0  0  0
  183.4980  175.7680  136.7350 C   0  0  0  0  0  0  0  0  0  0  0  0
  182.7380  173.6740  135.9650 O   0  0  0  0  0  1  0  0  0  0  0  0
  183.8700  174.4770  136.0960 C   0  0  0  0  0  2  0  0  0  0  0  0
  1  3  1  6  0  0  0
  1 17  1  0  0  0  0
  1  4  1  0  0  0  0
  2  7  1  0  0  0  0
  4 11  1  0  0  0  0
  4  2  2  0  0  0  0
  5 12  1  0  0  0  0
  6 21  1  0  0  0  0
  7  5  1  0  0  0  0
  7 18  2  0  0  0  0
  9  8  1  0  0  0  0
 10  5  2  0  0  0  0
 10 19  1  0  0  0  0
 11 16  2  0  0  0  0
 12  9  2  0  0  0  0
 13 11  1  0  0  0  0
 14 13  1  0  0  0  0
 15  2  1  0  0  0  0
 16 10  1  0  0  0  0
 17 25  1  6  0  0  0
 17 15  1  0  0  0  0
 18  9  1  0  0  0  0
 20 14  1  0  0  0  0
 20  3  2  0  0  0  0
 21  8  2  0  0  0  0
 22 18  1  0  0  0  0
 22  6  2  0  0  0  0
 23 28  1  0  0  0  0
 24 23  1  0  0  0  0
 26 30  1  0  0  0  0
 26 23  2  0  0  0  0
 27 25  1  0  0  0  0
 28 25  2  0  0  0  0
 28 29  1  0  0  0  0
 30 27  2  0  0  0  0
 31 32  1  0  0  0  0
 32 30  1  0  0  0  0
M  END
>  <MODEL>
8

>  <REMARK>
 VINA RESULT:      -8.1      1.239      1.450
  Name = 
  2 active torsions:
  status: ('A' for Active; 'I' for Inactive)
    1  A    between atoms: C_15  and  CA_26
    2  A    between atoms: C_16  and  C_27
                            x       y       z     vdW  Elec       q    Type
                         _______ _______ _______ _____ _____    ______ ____

>  <TORSDO>
F 2

$$$$
=
 OpenBabel10272413123D

 32 37  0  0  1  0  0  0  0  0999 V2000
  183.5510  178.3080  141.1280 C   0  0  1  0  0  3  0  0  0  0  0  0
  184.8790  178.1190  139.2170 C   0  0  0  0  0  0  0  0  0  0  0  0
  182.4040  179.2280  141.4090 C   0  0  0  0  0  3  0  0  0  0  0  0
  183.5960  177.8620  139.6880 C   0  0  0  0  0  0  0  0  0  0  0  0
  184.8040  177.0680  136.8560 C   0  0  0  0  0  0  0  0  0  0  0  0
  188.9820  178.7930  137.4590 C   0  0  0  0  0  3  0  0  0  0  0  0
  185.4150  177.7850  137.9780 C   0  0  0  0  0  0  0  0  0  0  0  0
  188.0170  177.6080  135.5530 C   0  0  0  0  0  3  0  0  0  0  0  0
  186.8260  177.5150  136.2710 C   0  0  0  0  0  0  0  0  0  0  0  0
  183.5100  176.5830  136.7560 C   0  0  0  0  0  0  0  0  0  0  0  0
  182.5080  177.2350  139.0190 C   0  0  0  0  0  0  0  0  0  0  0  0
  185.6950  176.9290  135.8450 N   0  0  0  0  0  0  0  0  0  0  0  0
  181.1050  177.1610  139.5880 C   0  0  0  0  0  2  0  0  0  0  0  0
  180.9140  177.4080  141.0790 C   0  0  0  0  0  2  0  0  0  0  0  0
  185.6660  178.7880  140.1890 N   0  0  0  0  0  2  0  0  0  0  0  0
  182.5300  176.6960  137.7320 C   0  0  0  0  0  3  0  0  0  0  0  0
  184.8750  179.0190  141.3800 C   0  0  2  0  0  3  0  0  0  0  0  0
  186.7030  178.0380  137.5360 C   0  0  0  0  0  0  0  0  0  0  0  0
  183.1450  175.9390  135.5790 O   0  0  0  0  0  1  0  0  0  0  0  0
  181.1970  178.7890  141.3890 N   0  0  0  0  0  0  0  0  0  0  0  0
  189.1050  178.2570  136.1610 C   0  0  0  0  0  3  0  0  0  0  0  0
  187.7710  178.6870  138.1620 C   0  0  0  0  0  3  0  0  0  0  0  0
  185.7210  178.1740  144.9960 C   0  0  0  0  0  0  0  0  0  0  0  0
  185.2300  178.4140  146.3820 C   0  0  0  0  0  1  0  0  0  0  0  0
  185.5630  178.4660  142.5940 C   0  0  0  0  0  0  0  0  0  0  0  0
  186.8270  177.4040  144.8160 N   0  0  0  0  0  0  0  0  0  0  0  0
  186.7030  177.6640  142.4500 C   0  0  0  0  0  3  0  0  0  0  0  0
  185.0600  178.7250  143.8820 C   0  0  0  0  0  0  0  0  0  0  0  0
  183.6180  179.7220  144.0980 Cl  0  0  0  0  0  0  0  0  0  0  0  0
  187.3310  177.1460  143.5820 C   0  0  0  0  0  0  0  0  0  0  0  0
  189.1520  176.5380  142.2160 O   0  0  0  0  0  1  0  0  0  0  0  0
  188.5270  176.2750  143.4330 C   0  0  0  0  0  2  0  0  0  0  0  0
  1 17  1  0  0  0  0
  1  3  1  6  0  0  0
  2  4  1  0  0  0  0
  2 15  1  0  0  0  0
  4  1  1  0  0  0  0
  5  7  1  0  0  0  0
  6 22  1  0  0  0  0
  7  2  2  0  0  0  0
  8 21  1  0  0  0  0
  8  9  2  0  0  0  0
  9 18  1  0  0  0  0
 10  5  1  0  0  0  0
 10 16  2  0  0  0  0
 11 13  1  0  0  0  0
 11  4  2  0  0  0  0
 12  9  1  0  0  0  0
 12  5  2  0  0  0  0
 13 14  1  0  0  0  0
 14 20  1  0  0  0  0
 15 17  1  0  0  0  0
 16 11  1  0  0  0  0
 17 25  1  1  0  0  0
 18  7  1  0  0  0  0
 18 22  2  0  0  0  0
 19 10  1  0  0  0  0
 20  3  2  0  0  0  0
 21  6  2  0  0  0  0
 23 24  1  0  0  0  0
 25 28  1  0  0  0  0
 26 23  1  0  0  0  0
 27 25  2  0  0  0  0
 27 30  1  0  0  0  0
 28 29  1  0  0  0  0
 28 23  2  0  0  0  0
 30 26  2  0  0  0  0
 31 32  1  0  0  0  0
 32 30  1  0  0  0  0
M  END
>  <MODEL>
9

>  <REMARK>
 VINA RESULT:      -7.7      2.173      7.475
  Name = 
  2 active torsions:
  status: ('A' for Active; 'I' for Inactive)
    1  A    between atoms: C_15  and  CA_26
    2  A    between atoms: C_16  and  C_27
                            x       y       z     vdW  Elec       q    Type
                         _______ _______ _______ _____ _____    ______ ____

>  <TORSDO>
F 2

$$$$
