=
 OpenBabel10272413323D

 32 36  0  0  1  0  0  0  0  0999 V2000
  188.7660  177.0930  147.1020 C   0  0  2  0  0  3  0  0  0  0  0  0
  189.3540  177.6810  142.8840 C   0  0  0  0  0  0  0  0  0  0  0  0
  184.6940  178.8560  142.2170 C   0  0  0  0  0  3  0  0  0  0  0  0
  184.9710  179.0010  140.8580 C   0  0  0  0  0  3  0  0  0  0  0  0
  190.2390  177.1490  145.0740 C   0  0  0  0  0  0  0  0  0  0  0  0
  187.8930  177.7130  144.8280 C   0  0  0  0  0  3  0  0  0  0  0  0
  188.1250  175.8790  147.2660 F   0  0  0  0  0  0  0  0  0  0  0  0
  185.7180  178.4850  143.0880 C   0  0  0  0  0  3  0  0  0  0  0  0
  188.0730  177.8880  143.4460 C   0  0  0  0  0  0  0  0  0  0  0  0
  187.0140  178.2600  142.6000 C   0  0  0  0  0  0  0  0  0  0  0  0
  188.5400  178.1960  140.7080 C   0  0  0  0  0  0  0  0  0  0  0  0
  191.2340  176.7710  147.2050 C   0  0  0  0  0  0  0  0  0  0  0  0
  188.9710  177.3520  145.6400 C   0  0  0  0  0  0  0  0  0  0  0  0
  191.3470  176.8030  145.9090 N   0  0  0  0  0  0  0  0  0  0  0  0
  190.0070  177.0710  147.8160 O   0  0  0  0  0  0  0  0  0  0  0  0
  186.2290  178.7810  140.3900 N   0  0  0  0  0  0  0  0  0  0  0  0
  187.2500  178.4180  141.2150 C   0  0  0  0  0  0  0  0  0  0  0  0
  190.4280  177.3140  143.7000 C   0  0  0  0  0  3  0  0  0  0  0  0
  189.5490  177.8420  141.5490 N   0  0  0  0  0  0  0  0  0  0  0  0
  192.3970  176.4530  148.0400 C   0  0  0  0  0  0  0  0  0  0  0  0
  193.0670  175.4060  147.8180 O   0  0  0  0  0  0  0  0  0  0  0  0
  192.7530  177.3150  149.0770 O   0  0  0  0  0  0  0  0  0  0  0  0
  193.7510  176.9760  150.0260 C   0  0  0  0  0  1  0  0  0  0  0  0
  188.8410  178.3860  139.2560 C   0  0  0  0  0  2  0  0  0  0  0  0
  186.5270  175.0900  137.4400 C   0  0  0  0  0  1  0  0  0  0  0  0
  187.8300  177.2170  137.4980 C   0  0  0  0  0  2  0  0  0  0  0  0
  190.1620  176.8800  138.0020 C   0  0  2  0  0  3  0  0  0  0  0  0
  190.1580  175.9350  136.7860 C   0  0  0  0  0  2  0  0  0  0  0  0
  188.9250  175.0380  136.7870 C   0  0  0  0  0  2  0  0  0  0  0  0
  187.6440  175.8750  136.7830 C   0  0  1  0  0  3  0  0  0  0  0  0
  191.0810  176.3000  139.0640 C   0  0  0  0  0  1  0  0  0  0  0  0
  188.8190  177.1010  138.5720 N   0  0  0  0  0  0  0  0  0  0  0  0
  1  7  1  6  0  0  0
  1 15  1  0  0  0  0
  2  9  2  0  0  0  0
  2 18  1  0  0  0  0
  3  8  1  0  0  0  0
  4  3  2  0  0  0  0
  5 13  1  0  0  0  0
  5 14  1  0  0  0  0
  6 13  2  0  0  0  0
  9  6  1  0  0  0  0
 10  8  2  0  0  0  0
 10  9  1  0  0  0  0
 11 17  1  0  0  0  0
 11 19  2  0  0  0  0
 12 15  1  0  0  0  0
 12 20  1  0  0  0  0
 13  1  1  0  0  0  0
 14 12  2  0  0  0  0
 16  4  1  0  0  0  0
 16 17  2  0  0  0  0
 17 10  1  0  0  0  0
 18  5  2  0  0  0  0
 19  2  1  0  0  0  0
 20 22  1  0  0  0  0
 21 20  2  0  0  0  0
 22 23  1  0  0  0  0
 24 11  1  0  0  0  0
 26 32  1  0  0  0  0
 27 32  1  0  0  0  0
 27 31  1  1  0  0  0
 28 29  1  0  0  0  0
 28 27  1  0  0  0  0
 30 29  1  0  0  0  0
 30 25  1  1  0  0  0
 30 26  1  0  0  0  0
 32 24  1  0  0  0  0
M  END
>  <MODEL>
1

>  <REMARK>
 VINA RESULT:      -9.2      0.000      0.000
  Name = 
  4 active torsions:
  status: ('A' for Active; 'I' for Inactive)
    1  A    between atoms: C_1  and  O_10
    2  A    between atoms: C_1  and  C_19
    3  A    between atoms: C_16  and  C_27
    4  A    between atoms: C_27  and  N_32
                            x       y       z     vdW  Elec       q    Type
                         _______ _______ _______ _____ _____    ______ ____

>  <TORSDO>
F 4

$$$$
=
 OpenBabel10272413323D

 32 36  0  0  1  0  0  0  0  0999 V2000
  184.6300  178.3970  145.2430 C   0  0  2  0  0  3  0  0  0  0  0  0
  187.2550  178.1380  141.8480 C   0  0  0  0  0  0  0  0  0  0  0  0
  190.9820  176.7200  144.6140 C   0  0  0  0  0  3  0  0  0  0  0  0
  191.7660  176.6860  143.4610 C   0  0  0  0  0  3  0  0  0  0  0  0
  185.0630  178.5740  142.7800 C   0  0  0  0  0  0  0  0  0  0  0  0
  186.8740  177.8800  144.2370 C   0  0  0  0  0  3  0  0  0  0  0  0
  184.9510  179.5540  145.9280 F   0  0  0  0  0  0  0  0  0  0  0  0
  189.6420  177.0950  144.5180 C   0  0  0  0  0  3  0  0  0  0  0  0
  187.7430  177.8130  143.1350 C   0  0  0  0  0  0  0  0  0  0  0  0
  189.0900  177.4330  143.2730 C   0  0  0  0  0  0  0  0  0  0  0  0
  189.3880  177.7230  140.8770 C   0  0  0  0  0  0  0  0  0  0  0  0
  182.8380  178.8660  143.5770 C   0  0  0  0  0  0  0  0  0  0  0  0
  185.5390  178.2520  144.0600 C   0  0  0  0  0  0  0  0  0  0  0  0
  183.6910  178.9310  142.5970 N   0  0  0  0  0  0  0  0  0  0  0  0
  183.2540  178.4480  144.8500 O   0  0  0  0  0  0  0  0  0  0  0  0
  191.2270  177.0160  142.2570 N   0  0  0  0  0  0  0  0  0  0  0  0
  189.9210  177.3860  142.1310 C   0  0  0  0  0  0  0  0  0  0  0  0
  185.9200  178.5150  141.6790 C   0  0  0  0  0  3  0  0  0  0  0  0
  188.0800  178.0810  140.7700 N   0  0  0  0  0  0  0  0  0  0  0  0
  181.4280  179.1990  143.3520 C   0  0  0  0  0  0  0  0  0  0  0  0
  180.5440  178.7840  144.1520 O   0  0  0  0  0  0  0  0  0  0  0  0
  181.0750  179.9750  142.2470 O   0  0  0  0  0  0  0  0  0  0  0  0
  180.3180  179.4470  141.1700 C   0  0  0  0  0  1  0  0  0  0  0  0
  190.2230  177.6520  139.6390 C   0  0  0  0  0  2  0  0  0  0  0  0
  186.4690  178.3200  137.4080 C   0  0  0  0  0  1  0  0  0  0  0  0
  188.8710  178.6400  138.0030 C   0  0  0  0  0  2  0  0  0  0  0  0
  190.2370  176.7300  137.4630 C   0  0  2  0  0  3  0  0  0  0  0  0
  189.7010  176.9100  136.0310 C   0  0  0  0  0  2  0  0  0  0  0  0
  188.2000  177.1830  136.0340 C   0  0  0  0  0  2  0  0  0  0  0  0
  187.8770  178.4310  136.8570 C   0  0  1  0  0  3  0  0  0  0  0  0
  190.3750  175.2440  137.7470 C   0  0  0  0  0  1  0  0  0  0  0  0
  189.3810  177.3560  138.4890 N   0  0  0  0  0  0  0  0  0  0  0  0
  1  7  1  6  0  0  0
  2  9  1  0  0  0  0
  4  3  2  0  0  0  0
  5 13  2  0  0  0  0
  8  3  1  0  0  0  0
  9 10  1  0  0  0  0
  9  6  2  0  0  0  0
 10  8  2  0  0  0  0
 11 17  1  0  0  0  0
 12 15  1  0  0  0  0
 13  6  1  0  0  0  0
 13  1  1  0  0  0  0
 14  5  1  0  0  0  0
 14 12  2  0  0  0  0
 15  1  1  0  0  0  0
 16  4  1  0  0  0  0
 17 16  2  0  0  0  0
 17 10  1  0  0  0  0
 18  2  2  0  0  0  0
 18  5  1  0  0  0  0
 19 11  2  0  0  0  0
 19  2  1  0  0  0  0
 20 12  1  0  0  0  0
 20 21  2  0  0  0  0
 22 20  1  0  0  0  0
 23 22  1  0  0  0  0
 24 11  1  0  0  0  0
 26 32  1  0  0  0  0
 27 31  1  1  0  0  0
 27 32  1  0  0  0  0
 28 29  1  0  0  0  0
 28 27  1  0  0  0  0
 29 30  1  0  0  0  0
 30 25  1  1  0  0  0
 30 26  1  0  0  0  0
 32 24  1  0  0  0  0
M  END
>  <MODEL>
2

>  <REMARK>
 VINA RESULT:      -9.0      3.642      6.488
  Name = 
  4 active torsions:
  status: ('A' for Active; 'I' for Inactive)
    1  A    between atoms: C_1  and  O_10
    2  A    between atoms: C_1  and  C_19
    3  A    between atoms: C_16  and  C_27
    4  A    between atoms: C_27  and  N_32
                            x       y       z     vdW  Elec       q    Type
                         _______ _______ _______ _____ _____    ______ ____

>  <TORSDO>
F 4

$$$$
=
 OpenBabel10272413323D

 32 36  0  0  1  0  0  0  0  0999 V2000
  187.2610  177.6600  146.4680 C   0  0  2  0  0  3  0  0  0  0  0  0
  186.3250  178.2800  142.3190 C   0  0  0  0  0  0  0  0  0  0  0  0
  181.6380  179.0510  143.3070 C   0  0  0  0  0  3  0  0  0  0  0  0
  181.4230  179.2140  141.9390 C   0  0  0  0  0  3  0  0  0  0  0  0
  187.9450  177.8330  144.0620 C   0  0  0  0  0  0  0  0  0  0  0  0
  185.6180  178.1950  144.6440 C   0  0  0  0  0  3  0  0  0  0  0  0
  186.8160  176.3960  146.8090 F   0  0  0  0  0  0  0  0  0  0  0  0
  182.9240  178.7720  143.7680 C   0  0  0  0  0  3  0  0  0  0  0  0
  185.3010  178.3790  143.2880 C   0  0  0  0  0  0  0  0  0  0  0  0
  183.9890  178.6560  142.8620 C   0  0  0  0  0  0  0  0  0  0  0  0
  184.7790  178.7150  140.5630 C   0  0  0  0  0  0  0  0  0  0  0  0
  189.6340  177.5490  145.7170 C   0  0  0  0  0  0  0  0  0  0  0  0
  186.9340  177.9290  145.0310 C   0  0  0  0  0  0  0  0  0  0  0  0
  189.2950  177.5850  144.4620 N   0  0  0  0  0  0  0  0  0  0  0  0
  188.6690  177.7460  146.7160 O   0  0  0  0  0  0  0  0  0  0  0  0
  182.4580  179.1010  141.0650 N   0  0  0  0  0  0  0  0  0  0  0  0
  183.7260  178.8290  141.4850 C   0  0  0  0  0  0  0  0  0  0  0  0
  187.6390  178.0090  142.7110 C   0  0  0  0  0  3  0  0  0  0  0  0
  186.0390  178.4520  141.0010 N   0  0  0  0  0  0  0  0  0  0  0  0
  191.0340  177.3340  146.0980 C   0  0  0  0  0  0  0  0  0  0  0  0
  191.9610  177.6240  145.2910 O   0  0  0  0  0  0  0  0  0  0  0  0
  191.3290  176.8070  147.3560 O   0  0  0  0  0  0  0  0  0  0  0  0
  192.2300  175.7230  147.5220 C   0  0  0  0  0  1  0  0  0  0  0  0
  184.5500  178.9260  139.1010 C   0  0  0  0  0  2  0  0  0  0  0  0
  183.4190  174.7890  138.0380 C   0  0  0  0  0  1  0  0  0  0  0  0
  183.5720  177.2650  137.7710 C   0  0  0  0  0  2  0  0  0  0  0  0
  185.8120  178.0260  137.3160 C   0  0  2  0  0  3  0  0  0  0  0  0
  185.7630  177.0590  136.1190 C   0  0  0  0  0  2  0  0  0  0  0  0
  185.1500  175.7200  136.5170 C   0  0  0  0  0  2  0  0  0  0  0  0
  183.7380  175.9130  137.0720 C   0  0  1  0  0  3  0  0  0  0  0  0
  187.2170  178.0120  137.8940 C   0  0  0  0  0  1  0  0  0  0  0  0
  184.8360  177.6980  138.3720 N   0  0  0  0  0  0  0  0  0  0  0  0
  1 15  1  0  0  0  0
  1  7  1  6  0  0  0
  2 18  2  0  0  0  0
  2  9  1  0  0  0  0
  3  8  1  0  0  0  0
  4  3  2  0  0  0  0
  5 14  1  0  0  0  0
  5 13  2  0  0  0  0
  6 13  1  0  0  0  0
  9  6  2  0  0  0  0
 10  9  1  0  0  0  0
 10  8  2  0  0  0  0
 11 19  2  0  0  0  0
 11 17  1  0  0  0  0
 12 20  1  0  0  0  0
 12 15  1  0  0  0  0
 13  1  1  0  0  0  0
 14 12  2  0  0  0  0
 16 17  2  0  0  0  0
 16  4  1  0  0  0  0
 17 10  1  0  0  0  0
 18  5  1  0  0  0  0
 19  2  1  0  0  0  0
 20 22  1  0  0  0  0
 21 20  2  0  0  0  0
 22 23  1  0  0  0  0
 24 11  1  0  0  0  0
 26 32  1  0  0  0  0
 27 31  1  1  0  0  0
 27 32  1  0  0  0  0
 28 29  1  0  0  0  0
 28 27  1  0  0  0  0
 29 30  1  0  0  0  0
 30 26  1  0  0  0  0
 30 25  1  1  0  0  0
 32 24  1  0  0  0  0
M  END
>  <MODEL>
3

>  <REMARK>
 VINA RESULT:      -8.9      2.175      3.311
  Name = 
  4 active torsions:
  status: ('A' for Active; 'I' for Inactive)
    1  A    between atoms: C_1  and  O_10
    2  A    between atoms: C_1  and  C_19
    3  A    between atoms: C_16  and  C_27
    4  A    between atoms: C_27  and  N_32
                            x       y       z     vdW  Elec       q    Type
                         _______ _______ _______ _____ _____    ______ ____

>  <TORSDO>
F 4

$$$$
=
 OpenBabel10272413323D

 32 36  0  0  1  0  0  0  0  0999 V2000
  187.5620  177.7960  146.1270 C   0  0  2  0  0  3  0  0  0  0  0  0
  185.8310  178.3380  142.2300 C   0  0  0  0  0  0  0  0  0  0  0  0
  181.4070  179.0380  144.0960 C   0  0  0  0  0  3  0  0  0  0  0  0
  180.9280  179.1770  142.7940 C   0  0  0  0  0  3  0  0  0  0  0  0
  187.7650  177.9460  143.6330 C   0  0  0  0  0  0  0  0  0  0  0  0
  185.5870  178.2740  144.6490 C   0  0  0  0  0  3  0  0  0  0  0  0
  187.2170  176.5290  146.5610 F   0  0  0  0  0  0  0  0  0  0  0  0
  182.7630  178.7880  144.3030 C   0  0  0  0  0  3  0  0  0  0  0  0
  185.0100  178.4330  143.3780 C   0  0  0  0  0  0  0  0  0  0  0  0
  183.6360  178.6800  143.2100 C   0  0  0  0  0  0  0  0  0  0  0  0
  183.9660  178.7200  140.8010 C   0  0  0  0  0  0  0  0  0  0  0  0
  189.7470  177.7180  144.9330 C   0  0  0  0  0  0  0  0  0  0  0  0
  186.9580  178.0390  144.7770 C   0  0  0  0  0  0  0  0  0  0  0  0
  189.1720  177.7300  143.7670 N   0  0  0  0  0  0  0  0  0  0  0  0
  188.9880  177.9120  146.0980 O   0  0  0  0  0  0  0  0  0  0  0  0
  181.7780  179.0700  141.7380 N   0  0  0  0  0  0  0  0  0  0  0  0
  183.1090  178.8270  141.9070 C   0  0  0  0  0  0  0  0  0  0  0  0
  187.2010  178.0970  142.3640 C   0  0  0  0  0  3  0  0  0  0  0  0
  185.2920  178.4860  140.9910 N   0  0  0  0  0  0  0  0  0  0  0  0
  191.1980  177.5340  145.0390 C   0  0  0  0  0  0  0  0  0  0  0  0
  191.9810  178.4380  144.6360 O   0  0  0  0  0  0  0  0  0  0  0  0
  191.7010  176.3540  145.5860 O   0  0  0  0  0  0  0  0  0  0  0  0
  191.8100  176.1640  146.9880 C   0  0  0  0  0  1  0  0  0  0  0  0
  183.4550  178.9050  139.4080 C   0  0  0  0  0  2  0  0  0  0  0  0
  181.1640  175.1320  139.2180 C   0  0  0  0  0  1  0  0  0  0  0  0
  181.7800  177.4730  138.6160 C   0  0  0  0  0  2  0  0  0  0  0  0
  183.8940  177.6260  137.4700 C   0  0  2  0  0  3  0  0  0  0  0  0
  183.2750  176.6390  136.4620 C   0  0  0  0  0  2  0  0  0  0  0  0
  182.5260  175.5180  137.1760 C   0  0  0  0  0  2  0  0  0  0  0  0
  181.4240  176.0870  138.0710 C   0  0  1  0  0  3  0  0  0  0  0  0
  185.3670  177.2910  137.6350 C   0  0  0  0  0  1  0  0  0  0  0  0
  183.2290  177.6070  138.7870 N   0  0  0  0  0  0  0  0  0  0  0  0
  1  7  1  6  0  0  0
  2 18  2  0  0  0  0
  2  9  1  0  0  0  0
  3  8  1  0  0  0  0
  4  3  2  0  0  0  0
  5 14  1  0  0  0  0
  5 13  2  0  0  0  0
  6 13  1  0  0  0  0
  9  6  2  0  0  0  0
 10  9  1  0  0  0  0
 10  8  2  0  0  0  0
 11 19  2  0  0  0  0
 11 17  1  0  0  0  0
 12 20  1  0  0  0  0
 12 15  1  0  0  0  0
 13  1  1  0  0  0  0
 14 12  2  0  0  0  0
 15  1  1  0  0  0  0
 16 17  2  0  0  0  0
 16  4  1  0  0  0  0
 17 10  1  0  0  0  0
 18  5  1  0  0  0  0
 19  2  1  0  0  0  0
 20 22  1  0  0  0  0
 21 20  2  0  0  0  0
 22 23  1  0  0  0  0
 24 11  1  0  0  0  0
 26 32  1  0  0  0  0
 27 31  1  1  0  0  0
 27 32  1  0  0  0  0
 28 29  1  0  0  0  0
 28 27  1  0  0  0  0
 29 30  1  0  0  0  0
 30 26  1  0  0  0  0
 30 25  1  1  0  0  0
 32 24  1  0  0  0  0
M  END
>  <MODEL>
4

>  <REMARK>
 VINA RESULT:      -8.7      2.819      4.387
  Name = 
  4 active torsions:
  status: ('A' for Active; 'I' for Inactive)
    1  A    between atoms: C_1  and  O_10
    2  A    between atoms: C_1  and  C_19
    3  A    between atoms: C_16  and  C_27
    4  A    between atoms: C_27  and  N_32
                            x       y       z     vdW  Elec       q    Type
                         _______ _______ _______ _____ _____    ______ ____

>  <TORSDO>
F 4

$$$$
=
 OpenBabel10272413323D

 32 36  0  0  1  0  0  0  0  0999 V2000
  187.2570  177.7930  145.6300 C   0  0  2  0  0  3  0  0  0  0  0  0
  188.4130  177.7640  141.4890 C   0  0  0  0  0  0  0  0  0  0  0  0
  183.9930  179.1670  140.0610 C   0  0  0  0  0  3  0  0  0  0  0  0
  184.4490  179.1070  138.7450 C   0  0  0  0  0  3  0  0  0  0  0  0
  188.9700  177.4700  143.8270 C   0  0  0  0  0  0  0  0  0  0  0  0
  186.7310  178.1620  143.2000 C   0  0  0  0  0  3  0  0  0  0  0  0
  186.4970  176.6610  145.8550 F   0  0  0  0  0  0  0  0  0  0  0  0
  184.8650  178.8440  141.1010 C   0  0  0  0  0  3  0  0  0  0  0  0
  187.0960  178.1350  141.8440 C   0  0  0  0  0  0  0  0  0  0  0  0
  186.1860  178.4640  140.8230 C   0  0  0  0  0  0  0  0  0  0  0  0
  187.9240  178.0380  139.1760 C   0  0  0  0  0  0  0  0  0  0  0  0
  189.6560  177.3130  146.1030 C   0  0  0  0  0  0  0  0  0  0  0  0
  187.6640  177.8370  144.1880 C   0  0  0  0  0  0  0  0  0  0  0  0
  189.9310  177.1620  144.8400 N   0  0  0  0  0  0  0  0  0  0  0  0
  188.3940  177.7790  146.5010 O   0  0  0  0  0  0  0  0  0  0  0  0
  185.7300  178.7380  138.4800 N   0  0  0  0  0  0  0  0  0  0  0  0
  186.6060  178.4170  139.4750 C   0  0  0  0  0  0  0  0  0  0  0  0
  189.3410  177.4350  142.4810 C   0  0  0  0  0  3  0  0  0  0  0  0
  188.7860  177.7300  140.1830 N   0  0  0  0  0  0  0  0  0  0  0  0
  190.6740  177.0280  147.1190 C   0  0  0  0  0  0  0  0  0  0  0  0
  190.5740  177.5300  148.2730 O   0  0  0  0  0  0  0  0  0  0  0  0
  191.7500  176.2000  146.7970 O   0  0  0  0  0  0  0  0  0  0  0  0
  192.5930  175.6440  147.7940 C   0  0  0  0  0  1  0  0  0  0  0  0
  188.4180  178.0090  137.7660 C   0  0  0  0  0  2  0  0  0  0  0  0
  186.7340  174.0030  136.9720 C   0  0  0  0  0  1  0  0  0  0  0  0
  187.5040  176.3140  136.4340 C   0  0  0  0  0  2  0  0  0  0  0  0
  189.8940  176.5730  136.6050 C   0  0  2  0  0  3  0  0  0  0  0  0
  189.9650  175.4130  135.5950 C   0  0  0  0  0  2  0  0  0  0  0  0
  188.9830  174.3040  135.9580 C   0  0  0  0  0  2  0  0  0  0  0  0
  187.5520  174.8430  136.0120 C   0  0  1  0  0  3  0  0  0  0  0  0
  191.0410  176.4310  137.5900 C   0  0  0  0  0  1  0  0  0  0  0  0
  188.6140  176.6320  137.3360 N   0  0  0  0  0  0  0  0  0  0  0  0
  1  7  1  6  0  0  0
  1 15  1  0  0  0  0
  2  9  2  0  0  0  0
  2 18  1  0  0  0  0
  3  8  1  0  0  0  0
  4  3  2  0  0  0  0
  5 13  1  0  0  0  0
  5 14  1  0  0  0  0
  6 13  2  0  0  0  0
  9  6  1  0  0  0  0
 10  8  2  0  0  0  0
 10  9  1  0  0  0  0
 11 17  1  0  0  0  0
 11 19  2  0  0  0  0
 12 15  1  0  0  0  0
 12 20  1  0  0  0  0
 13  1  1  0  0  0  0
 14 12  2  0  0  0  0
 16  4  1  0  0  0  0
 16 17  2  0  0  0  0
 17 10  1  0  0  0  0
 18  5  2  0  0  0  0
 19  2  1  0  0  0  0
 20 21  2  0  0  0  0
 22 20  1  0  0  0  0
 22 23  1  0  0  0  0
 24 11  1  0  0  0  0
 26 32  1  0  0  0  0
 27 32  1  0  0  0  0
 27 31  1  1  0  0  0
 28 29  1  0  0  0  0
 28 27  1  0  0  0  0
 29 30  1  0  0  0  0
 30 26  1  0  0  0  0
 30 25  1  1  0  0  0
 32 24  1  0  0  0  0
M  END
>  <MODEL>
5

>  <REMARK>
 VINA RESULT:      -8.5      1.325      1.949
  Name = 
  4 active torsions:
  status: ('A' for Active; 'I' for Inactive)
    1  A    between atoms: C_1  and  O_10
    2  A    between atoms: C_1  and  C_19
    3  A    between atoms: C_16  and  C_27
    4  A    between atoms: C_27  and  N_32
                            x       y       z     vdW  Elec       q    Type
                         _______ _______ _______ _____ _____    ______ ____

>  <TORSDO>
F 4

$$$$
=
 OpenBabel10272413323D

 32 36  0  0  1  0  0  0  0  0999 V2000
  190.7000  177.0080  142.6970 C   0  0  2  0  0  3  0  0  0  0  0  0
  186.9290  178.3120  141.0970 C   0  0  0  0  0  0  0  0  0  0  0  0
  184.8940  178.4190  145.5010 C   0  0  0  0  0  3  0  0  0  0  0  0
  183.7050  178.8170  144.8920 C   0  0  0  0  0  3  0  0  0  0  0  0
  189.2500  177.7020  140.7730 C   0  0  0  0  0  0  0  0  0  0  0  0
  188.3090  177.7170  143.0090 C   0  0  0  0  0  3  0  0  0  0  0  0
  190.5780  175.6650  143.0020 F   0  0  0  0  0  0  0  0  0  0  0  0
  186.0200  178.1840  144.7110 C   0  0  0  0  0  3  0  0  0  0  0  0
  187.0680  178.1240  142.4910 C   0  0  0  0  0  0  0  0  0  0  0  0
  185.9540  178.3480  143.3200 C   0  0  0  0  0  0  0  0  0  0  0  0
  184.6430  178.9200  141.3540 C   0  0  0  0  0  0  0  0  0  0  0  0
  191.5580  177.2760  140.3740 C   0  0  0  0  0  0  0  0  0  0  0  0
  189.3970  177.5130  142.1560 C   0  0  0  0  0  0  0  0  0  0  0  0
  190.3700  177.5170  139.9040 N   0  0  0  0  0  0  0  0  0  0  0  0
  191.7670  177.1830  141.7580 O   0  0  0  0  0  0  0  0  0  0  0  0
  183.6450  178.9740  143.5430 N   0  0  0  0  0  0  0  0  0  0  0  0
  184.7280  178.7530  142.7450 C   0  0  0  0  0  0  0  0  0  0  0  0
  188.0190  178.1010  140.2480 C   0  0  0  0  0  3  0  0  0  0  0  0
  185.7360  178.7030  140.5760 N   0  0  0  0  0  0  0  0  0  0  0  0
  192.6970  177.1300  139.4610 C   0  0  0  0  0  0  0  0  0  0  0  0
  193.8730  177.3180  139.8810 O   0  0  0  0  0  0  0  0  0  0  0  0
  192.4680  176.7850  138.1290 O   0  0  0  0  0  0  0  0  0  0  0  0
  193.4730  176.1870  137.3250 C   0  0  0  0  0  1  0  0  0  0  0  0
  183.3750  179.3810  140.7100 C   0  0  0  0  0  2  0  0  0  0  0  0
  180.0620  178.0930  143.3330 C   0  0  0  0  0  1  0  0  0  0  0  0
  181.1420  179.2440  141.4010 C   0  0  0  0  0  2  0  0  0  0  0  0
  182.0030  177.7110  139.7530 C   0  0  2  0  0  3  0  0  0  0  0  0
  180.5660  177.1600  139.7000 C   0  0  0  0  0  2  0  0  0  0  0  0
  179.9820  177.0050  141.1000 C   0  0  0  0  0  2  0  0  0  0  0  0
  179.9840  178.3440  141.8400 C   0  0  1  0  0  3  0  0  0  0  0  0
  182.9730  176.5540  139.5930 C   0  0  0  0  0  1  0  0  0  0  0  0
  182.3000  178.4420  141.0000 N   0  0  0  0  0  0  0  0  0  0  0  0
  1  7  1  6  0  0  0
  2  9  1  0  0  0  0
  4  3  1  0  0  0  0
  5 13  1  0  0  0  0
  8  3  2  0  0  0  0
  9  6  1  0  0  0  0
  9 10  2  0  0  0  0
 10  8  1  0  0  0  0
 11 17  2  0  0  0  0
 12 15  1  0  0  0  0
 13  1  1  0  0  0  0
 13  6  2  0  0  0  0
 14 12  2  0  0  0  0
 14  5  1  0  0  0  0
 15  1  1  0  0  0  0
 16  4  2  0  0  0  0
 17 10  1  0  0  0  0
 17 16  1  0  0  0  0
 18  5  2  0  0  0  0
 18  2  1  0  0  0  0
 19  2  2  0  0  0  0
 19 11  1  0  0  0  0
 20 21  2  0  0  0  0
 20 12  1  0  0  0  0
 22 20  1  0  0  0  0
 23 22  1  0  0  0  0
 24 32  1  0  0  0  0
 24 11  1  0  0  0  0
 26 30  1  0  0  0  0
 27 31  1  1  0  0  0
 27 32  1  0  0  0  0
 28 27  1  0  0  0  0
 28 29  1  0  0  0  0
 29 30  1  0  0  0  0
 30 25  1  1  0  0  0
 32 26  1  0  0  0  0
M  END
>  <MODEL>
6

>  <REMARK>
 VINA RESULT:      -8.5      3.736      6.652
  Name = 
  4 active torsions:
  status: ('A' for Active; 'I' for Inactive)
    1  A    between atoms: C_1  and  O_10
    2  A    between atoms: C_1  and  C_19
    3  A    between atoms: C_16  and  C_27
    4  A    between atoms: C_27  and  N_32
                            x       y       z     vdW  Elec       q    Type
                         _______ _______ _______ _____ _____    ______ ____

>  <TORSDO>
F 4

$$$$
=
 OpenBabel10272413323D

 32 36  0  0  1  0  0  0  0  0999 V2000
  190.4750  177.0840  142.4560 C   0  0  2  0  0  3  0  0  0  0  0  0
  186.9590  178.3880  140.3540 C   0  0  0  0  0  0  0  0  0  0  0  0
  184.3720  178.6070  144.4540 C   0  0  0  0  0  3  0  0  0  0  0  0
  183.2760  179.0040  143.6880 C   0  0  0  0  0  3  0  0  0  0  0  0
  189.2950  177.7500  140.3470 C   0  0  0  0  0  0  0  0  0  0  0  0
  188.0730  177.8210  142.4410 C   0  0  0  0  0  3  0  0  0  0  0  0
  190.2990  175.7490  142.7700 F   0  0  0  0  0  0  0  0  0  0  0  0
  185.5880  178.3450  143.8220 C   0  0  0  0  0  3  0  0  0  0  0  0
  186.9140  178.2290  141.7590 C   0  0  0  0  0  0  0  0  0  0  0  0
  185.7050  178.4800  142.4310 C   0  0  0  0  0  0  0  0  0  0  0  0
  184.6660  179.0230  140.3010 C   0  0  0  0  0  0  0  0  0  0  0  0
  191.6310  177.2940  140.2590 C   0  0  0  0  0  0  0  0  0  0  0  0
  189.2590  177.5890  141.7410 C   0  0  0  0  0  0  0  0  0  0  0  0
  190.5160  177.5360  139.6340 N   0  0  0  0  0  0  0  0  0  0  0  0
  191.6560  177.2290  141.6610 O   0  0  0  0  0  0  0  0  0  0  0  0
  183.3950  179.1330  142.3400 N   0  0  0  0  0  0  0  0  0  0  0  0
  184.5690  178.8840  141.6940 C   0  0  0  0  0  0  0  0  0  0  0  0
  188.1470  178.1490  139.6580 C   0  0  0  0  0  3  0  0  0  0  0  0
  185.8490  178.7790  139.6750 N   0  0  0  0  0  0  0  0  0  0  0  0
  192.8760  177.1180  139.5050 C   0  0  0  0  0  0  0  0  0  0  0  0
  193.9900  177.3020  140.0710 O   0  0  0  0  0  0  0  0  0  0  0  0
  192.8170  176.7500  138.1610 O   0  0  0  0  0  0  0  0  0  0  0  0
  193.1290  175.4340  137.7300 C   0  0  0  0  0  1  0  0  0  0  0  0
  183.4980  179.4820  139.4880 C   0  0  0  0  0  2  0  0  0  0  0  0
  180.2940  176.6240  140.5280 C   0  0  0  0  0  1  0  0  0  0  0  0
  181.3010  178.6730  139.5230 C   0  0  0  0  0  2  0  0  0  0  0  0
  182.7450  178.1930  137.6550 C   0  0  2  0  0  3  0  0  0  0  0  0
  181.5190  177.4840  137.0520 C   0  0  0  0  0  2  0  0  0  0  0  0
  180.8050  176.6310  138.0960 C   0  0  0  0  0  2  0  0  0  0  0  0
  180.3630  177.4870  139.2850 C   0  0  1  0  0  3  0  0  0  0  0  0
  183.9920  177.4100  137.2820 C   0  0  0  0  0  1  0  0  0  0  0  0
  182.6700  178.3420  139.1210 N   0  0  0  0  0  0  0  0  0  0  0  0
  1  7  1  6  0  0  0
  2  9  1  0  0  0  0
  4  3  2  0  0  0  0
  5 13  2  0  0  0  0
  8  3  1  0  0  0  0
  9 10  1  0  0  0  0
  9  6  2  0  0  0  0
 10  8  2  0  0  0  0
 11 17  1  0  0  0  0
 12 15  1  0  0  0  0
 13  6  1  0  0  0  0
 13  1  1  0  0  0  0
 14 12  2  0  0  0  0
 14  5  1  0  0  0  0
 15  1  1  0  0  0  0
 16  4  1  0  0  0  0
 17 16  2  0  0  0  0
 17 10  1  0  0  0  0
 18  5  1  0  0  0  0
 18  2  2  0  0  0  0
 19 11  2  0  0  0  0
 19  2  1  0  0  0  0
 20 21  2  0  0  0  0
 20 12  1  0  0  0  0
 22 20  1  0  0  0  0
 23 22  1  0  0  0  0
 24 11  1  0  0  0  0
 27 31  1  1  0  0  0
 27 32  1  0  0  0  0
 28 27  1  0  0  0  0
 28 29  1  0  0  0  0
 29 30  1  0  0  0  0
 30 26  1  0  0  0  0
 30 25  1  1  0  0  0
 32 24  1  0  0  0  0
 32 26  1  0  0  0  0
M  END
>  <MODEL>
7

>  <REMARK>
 VINA RESULT:      -8.4      3.813      6.216
  Name = 
  4 active torsions:
  status: ('A' for Active; 'I' for Inactive)
    1  A    between atoms: C_1  and  O_10
    2  A    between atoms: C_1  and  C_19
    3  A    between atoms: C_16  and  C_27
    4  A    between atoms: C_27  and  N_32
                            x       y       z     vdW  Elec       q    Type
                         _______ _______ _______ _____ _____    ______ ____

>  <TORSDO>
F 4

$$$$
=
 OpenBabel10272413323D

 32 36  0  0  1  0  0  0  0  0999 V2000
  191.0310  176.9140  144.4140 C   0  0  2  0  0  3  0  0  0  0  0  0
  188.4590  177.8060  141.0870 C   0  0  0  0  0  0  0  0  0  0  0  0
  191.7750  176.2880  137.8870 C   0  0  0  0  0  3  0  0  0  0  0  0
  190.8840  176.6290  136.8690 C   0  0  0  0  0  3  0  0  0  0  0  0
  188.8490  177.7170  143.4750 C   0  0  0  0  0  0  0  0  0  0  0  0
  190.5670  176.9490  141.9440 C   0  0  0  0  0  3  0  0  0  0  0  0
  191.9860  177.9110  144.4780 F   0  0  0  0  0  0  0  0  0  0  0  0
  191.4060  176.4940  139.2160 C   0  0  0  0  0  3  0  0  0  0  0  0
  189.7400  177.2570  140.8510 C   0  0  0  0  0  0  0  0  0  0  0  0
  190.1500  177.0380  139.5240 C   0  0  0  0  0  0  0  0  0  0  0  0
  188.0190  177.9160  138.7510 C   0  0  0  0  0  0  0  0  0  0  0  0
  189.0770  177.5170  145.8370 C   0  0  0  0  0  0  0  0  0  0  0  0
  190.1230  177.1720  143.2500 C   0  0  0  0  0  0  0  0  0  0  0  0
  188.3860  177.9220  144.8120 N   0  0  0  0  0  0  0  0  0  0  0  0
  190.3090  176.8720  145.6500 O   0  0  0  0  0  0  0  0  0  0  0  0
  189.6680  177.1570  137.1730 N   0  0  0  0  0  0  0  0  0  0  0  0
  189.2790  177.3690  138.4620 C   0  0  0  0  0  0  0  0  0  0  0  0
  188.0210  178.0310  142.3950 C   0  0  0  0  0  3  0  0  0  0  0  0
  187.6440  178.1130  140.0430 N   0  0  0  0  0  0  0  0  0  0  0  0
  188.5590  177.7040  147.1970 C   0  0  0  0  0  0  0  0  0  0  0  0
  189.3460  177.9920  148.1400 O   0  0  0  0  0  0  0  0  0  0  0  0
  187.1920  177.5580  147.4340 O   0  0  0  0  0  0  0  0  0  0  0  0
  186.2930  178.6520  147.3380 C   0  0  0  0  0  1  0  0  0  0  0  0
  187.0530  178.2480  137.6590 C   0  0  0  0  0  2  0  0  0  0  0  0
  183.3650  177.5950  140.0020 C   0  0  0  0  0  1  0  0  0  0  0  0
  184.7840  178.5160  138.1680 C   0  0  0  0  0  2  0  0  0  0  0  0
  185.4870  176.8390  136.5880 C   0  0  2  0  0  3  0  0  0  0  0  0
  183.9840  176.5510  136.4170 C   0  0  0  0  0  2  0  0  0  0  0  0
  183.2710  176.5160  137.7650 C   0  0  0  0  0  2  0  0  0  0  0  0
  183.4530  177.8400  138.5090 C   0  0  1  0  0  3  0  0  0  0  0  0
  186.2450  175.5250  136.5010 C   0  0  0  0  0  1  0  0  0  0  0  0
  185.8090  177.5170  137.8570 N   0  0  0  0  0  0  0  0  0  0  0  0
  1  7  1  1  0  0  0
  1 15  1  0  0  0  0
  2 18  1  0  0  0  0
  3  8  1  0  0  0  0
  4 16  1  0  0  0  0
  4  3  2  0  0  0  0
  5 14  1  0  0  0  0
  6 13  2  0  0  0  0
  8 10  2  0  0  0  0
  9  2  2  0  0  0  0
  9  6  1  0  0  0  0
 10  9  1  0  0  0  0
 11 19  2  0  0  0  0
 12 20  1  0  0  0  0
 13  5  1  0  0  0  0
 13  1  1  0  0  0  0
 14 12  2  0  0  0  0
 15 12  1  0  0  0  0
 16 17  2  0  0  0  0
 17 11  1  0  0  0  0
 17 10  1  0  0  0  0
 18  5  2  0  0  0  0
 19  2  1  0  0  0  0
 20 22  1  0  0  0  0
 20 21  2  0  0  0  0
 23 22  1  0  0  0  0
 24 32  1  0  0  0  0
 24 11  1  0  0  0  0
 26 30  1  0  0  0  0
 27 31  1  1  0  0  0
 27 32  1  0  0  0  0
 28 27  1  0  0  0  0
 28 29  1  0  0  0  0
 29 30  1  0  0  0  0
 30 25  1  1  0  0  0
 32 26  1  0  0  0  0
M  END
>  <MODEL>
8

>  <REMARK>
 VINA RESULT:      -8.4      2.367      4.688
  Name = 
  4 active torsions:
  status: ('A' for Active; 'I' for Inactive)
    1  A    between atoms: C_1  and  O_10
    2  A    between atoms: C_1  and  C_19
    3  A    between atoms: C_16  and  C_27
    4  A    between atoms: C_27  and  N_32
                            x       y       z     vdW  Elec       q    Type
                         _______ _______ _______ _____ _____    ______ ____

>  <TORSDO>
F 4

$$$$
=
 OpenBabel10272413323D

 32 36  0  0  1  0  0  0  0  0999 V2000
  188.0470  177.6240  144.3350 C   0  0  2  0  0  3  0  0  0  0  0  0
  190.2410  176.9690  140.6970 C   0  0  0  0  0  0  0  0  0  0  0  0
  186.4970  178.4140  137.9690 C   0  0  0  0  0  3  0  0  0  0  0  0
  187.2750  178.1510  136.8420 C   0  0  0  0  0  3  0  0  0  0  0  0
  190.1360  176.9630  143.1160 C   0  0  0  0  0  0  0  0  0  0  0  0
  188.2120  177.6890  141.8280 C   0  0  0  0  0  3  0  0  0  0  0  0
  187.1540  176.5770  144.4740 F   0  0  0  0  0  0  0  0  0  0  0  0
  187.0320  178.1860  139.2370 C   0  0  0  0  0  3  0  0  0  0  0  0
  188.9160  177.4590  140.6350 C   0  0  0  0  0  0  0  0  0  0  0  0
  188.3400  177.6980  139.3740 C   0  0  0  0  0  0  0  0  0  0  0  0
  190.4030  176.9550  138.3230 C   0  0  0  0  0  0  0  0  0  0  0  0
  190.1830  177.0770  145.4940 C   0  0  0  0  0  0  0  0  0  0  0  0
  188.8200  177.4490  143.0630 C   0  0  0  0  0  0  0  0  0  0  0  0
  190.7650  176.7410  144.3800 N   0  0  0  0  0  0  0  0  0  0  0  0
  188.9080  177.6630  145.4780 O   0  0  0  0  0  0  0  0  0  0  0  0
  188.5420  177.6780  136.9800 N   0  0  0  0  0  0  0  0  0  0  0  0
  189.0930  177.4450  138.2050 C   0  0  0  0  0  0  0  0  0  0  0  0
  190.8420  176.7260  141.9350 C   0  0  0  0  0  3  0  0  0  0  0  0
  190.9380  176.7370  139.5540 N   0  0  0  0  0  0  0  0  0  0  0  0
  190.8690  176.8750  146.7750 C   0  0  0  0  0  0  0  0  0  0  0  0
  190.3440  177.2890  147.8460 O   0  0  0  0  0  0  0  0  0  0  0  0
  192.1020  176.2240  146.7960 O   0  0  0  0  0  0  0  0  0  0  0  0
  192.7000  175.7880  148.0070 C   0  0  0  0  0  1  0  0  0  0  0  0
  191.2450  176.7080  137.1120 C   0  0  0  0  0  2  0  0  0  0  0  0
  189.2020  172.8980  136.2030 C   0  0  0  0  0  1  0  0  0  0  0  0
  190.4270  175.0160  135.7160 C   0  0  0  0  0  2  0  0  0  0  0  0
  192.7160  174.9730  136.4680 C   0  0  2  0  0  3  0  0  0  0  0  0
  192.8470  173.7130  135.5940 C   0  0  0  0  0  2  0  0  0  0  0  0
  191.6470  172.7880  135.7740 C   0  0  0  0  0  2  0  0  0  0  0  0
  190.3470  173.5150  135.4250 C   0  0  1  0  0  3  0  0  0  0  0  0
  193.5570  174.7860  137.7200 C   0  0  0  0  0  1  0  0  0  0  0  0
  191.3220  175.2780  136.8450 N   0  0  0  0  0  0  0  0  0  0  0  0
  1  7  1  1  0  0  0
  1 15  1  0  0  0  0
  2 18  1  0  0  0  0
  3  8  1  0  0  0  0
  4 16  1  0  0  0  0
  4  3  2  0  0  0  0
  5 14  1  0  0  0  0
  6 13  2  0  0  0  0
  8 10  2  0  0  0  0
  9  2  2  0  0  0  0
  9  6  1  0  0  0  0
 10  9  1  0  0  0  0
 11 19  2  0  0  0  0
 12 20  1  0  0  0  0
 13  5  1  0  0  0  0
 13  1  1  0  0  0  0
 14 12  2  0  0  0  0
 15 12  1  0  0  0  0
 16 17  2  0  0  0  0
 17 11  1  0  0  0  0
 17 10  1  0  0  0  0
 18  5  2  0  0  0  0
 19  2  1  0  0  0  0
 20 22  1  0  0  0  0
 20 21  2  0  0  0  0
 22 23  1  0  0  0  0
 24 11  1  0  0  0  0
 26 32  1  0  0  0  0
 27 32  1  0  0  0  0
 27 31  1  1  0  0  0
 28 29  1  0  0  0  0
 28 27  1  0  0  0  0
 30 26  1  0  0  0  0
 30 29  1  0  0  0  0
 30 25  1  1  0  0  0
 32 24  1  0  0  0  0
M  END
>  <MODEL>
9

>  <REMARK>
 VINA RESULT:      -8.2      1.979      3.254
  Name = 
  4 active torsions:
  status: ('A' for Active; 'I' for Inactive)
    1  A    between atoms: C_1  and  O_10
    2  A    between atoms: C_1  and  C_19
    3  A    between atoms: C_16  and  C_27
    4  A    between atoms: C_27  and  N_32
                            x       y       z     vdW  Elec       q    Type
                         _______ _______ _______ _____ _____    ______ ____

>  <TORSDO>
F 4

$$$$
