=
 OpenBabel10272402023D

 28 30  0  0  1  0  0  0  0  0999 V2000
  191.9300  173.8850  136.0140 N   0  0  0  0  0  2  0  0  0  0  0  0
  189.3600  173.4360  137.0380 C   0  0  0  0  0  1  0  0  0  0  0  0
  189.6030  174.7060  136.2210 C   0  0  1  0  0  0  0  0  0  0  0  0
  195.0760  175.5140  136.9700 O   0  0  0  0  0  0  0  0  0  0  0  0
  190.0160  173.1530  134.3960 O   0  0  0  0  0  1  0  0  0  0  0  0
  188.7930  176.3060  138.0590 C   0  0  0  0  0  2  0  0  0  0  0  0
  190.1020  176.9570  138.4900 C   0  0  2  0  0  3  0  0  0  0  0  0
  188.7480  175.9430  136.5720 C   0  0  1  0  0  3  0  0  0  0  0  0
  192.9610  176.5360  137.2320 C   0  0  0  0  0  2  0  0  0  0  0  0
  191.1520  175.8970  138.8400 C   0  0  0  0  0  2  0  0  0  0  0  0
  194.0320  173.0550  136.5020 O   0  0  0  0  0  0  0  0  0  0  0  0
  192.5590  176.4530  138.6950 C   0  0  0  0  0  2  0  0  0  0  0  0
  193.8280  175.3760  136.8700 C   0  0  0  0  0  0  0  0  0  0  0  0
  193.2780  174.0640  136.4640 C   0  0  0  0  0  0  0  0  0  0  0  0
  191.0100  174.9690  135.6880 C   0  0  2  0  0  3  0  0  0  0  0  0
  189.8930  174.5070  134.7350 C   0  0  2  0  0  3  0  0  0  0  0  0
  187.7140  178.4980  140.6140 C   0  0  0  0  0  3  0  0  0  0  0  0
  189.5950  177.2520  140.8920 N   0  0  0  0  0  0  0  0  0  0  0  0
  188.3370  177.6480  141.4090 C   0  0  0  0  0  0  0  0  0  0  0  0
  189.8290  177.9440  139.6360 C   0  0  2  0  0  3  0  0  0  0  0  0
  188.5630  178.7890  139.4150 C   0  0  0  0  0  2  0  0  0  0  0  0
  188.1840  177.6060  143.7830 O   0  0  0  0  0  0  0  0  0  0  0  0
  187.7890  177.1510  142.6770 C   0  0  0  0  0  3  0  0  0  0  0  0
  190.6080  176.5030  141.6280 C   0  0  0  0  0  2  0  0  0  0  0  0
  191.5270  177.4380  142.3920 C   0  0  0  0  0  2  0  0  0  0  0  0
  191.6120  177.0340  143.8490 C   0  0  0  0  0  1  0  0  0  0  0  0
  187.7410  178.0870  135.7730 C   0  0  0  0  0  1  0  0  0  0  0  0
  188.9520  177.1790  135.6940 C   0  0  0  0  0  2  0  0  0  0  0  0
  1 14  1  0  0  0  0
  3  8  1  0  0  0  0
  3  2  1  1  0  0  0
  7  6  1  1  0  0  0
  7 10  1  0  0  0  0
  7 20  1  0  0  0  0
  8 28  1  6  0  0  0
  8  6  1  0  0  0  0
  9 12  1  0  0  0  0
 12 10  1  0  0  0  0
 13  4  2  0  0  0  0
 13  9  1  0  0  0  0
 14 11  2  0  0  0  0
 14 13  1  0  0  0  0
 15  1  1  1  0  0  0
 15  3  1  0  0  0  0
 16  5  1  1  0  0  0
 16 15  1  0  0  0  0
 16  3  1  0  0  0  0
 17 19  2  0  0  0  0
 18 19  1  0  0  0  0
 18 24  1  0  0  0  0
 19 23  1  0  0  0  0
 20 21  1  6  0  0  0
 20 18  1  0  0  0  0
 21 17  1  0  0  0  0
 23 22  2  0  0  0  0
 24 25  1  0  0  0  0
 25 26  1  0  0  0  0
 28 27  1  0  0  0  0
M  END
>  <MODEL>
1

>  <REMARK>
 VINA RESULT:      -5.6      0.000      0.000
  Name = 
  5 active torsions:
  status: ('A' for Active; 'I' for Inactive)
    1  A    between atoms: N_9  and  C_18
    2  A    between atoms: C_10  and  C_13
    3  A    between atoms: C_11  and  C_22
    4  A    between atoms: C_12  and  C_23
    5  A    between atoms: C_14  and  C_18
                            x       y       z     vdW  Elec       q    Type
                         _______ _______ _______ _____ _____    ______ ____

>  <TORSDO>
F 5

$$$$
=
 OpenBabel10272402023D

 28 30  0  0  1  0  0  0  0  0999 V2000
  182.6470  177.7340  137.8450 N   0  0  0  0  0  2  0  0  0  0  0  0
  182.5550  176.4270  135.3670 C   0  0  0  0  0  1  0  0  0  0  0  0
  183.1310  175.6710  136.5650 C   0  0  1  0  0  0  0  0  0  0  0  0
  184.9140  179.8520  139.8060 O   0  0  0  0  0  0  0  0  0  0  0  0
  180.8740  175.8590  137.4520 O   0  0  0  0  0  1  0  0  0  0  0  0
  185.3820  175.1620  135.4390 C   0  0  0  0  0  2  0  0  0  0  0  0
  186.3230  176.0700  136.2220 C   0  0  2  0  0  3  0  0  0  0  0  0
  184.2200  174.6150  136.2730 C   0  0  1  0  0  3  0  0  0  0  0  0
  185.6180  177.8850  138.7000 C   0  0  0  0  0  2  0  0  0  0  0  0
  185.8090  177.5140  136.2320 C   0  0  0  0  0  2  0  0  0  0  0  0
  182.5330  179.9460  138.5110 O   0  0  0  0  0  0  0  0  0  0  0  0
  186.3500  178.2790  137.4280 C   0  0  0  0  0  2  0  0  0  0  0  0
  184.5860  178.9100  139.0370 C   0  0  0  0  0  0  0  0  0  0  0  0
  183.2250  178.8940  138.4560 C   0  0  0  0  0  0  0  0  0  0  0  0
  183.2120  176.3900  137.9100 C   0  0  2  0  0  3  0  0  0  0  0  0
  182.1440  175.3070  137.6730 C   0  0  2  0  0  3  0  0  0  0  0  0
  189.6810  177.2150  136.2600 C   0  0  0  0  0  3  0  0  0  0  0  0
  188.6210  175.2310  136.5850 N   0  0  0  0  0  0  0  0  0  0  0  0
  189.7420  176.0470  136.8710 C   0  0  0  0  0  0  0  0  0  0  0  0
  187.7480  175.9360  135.6610 C   0  0  2  0  0  3  0  0  0  0  0  0
  188.4360  177.2920  135.4320 C   0  0  0  0  0  2  0  0  0  0  0  0
  190.7160  175.6970  139.0130 O   0  0  0  0  0  0  0  0  0  0  0  0
  190.8360  175.6380  137.7610 C   0  0  0  0  0  3  0  0  0  0  0  0
  188.5000  173.8180  136.9260 C   0  0  0  0  0  2  0  0  0  0  0  0
  188.6760  172.9450  135.6970 C   0  0  0  0  0  2  0  0  0  0  0  0
  187.5450  171.9450  135.5840 C   0  0  0  0  0  1  0  0  0  0  0  0
  184.3580  172.3540  137.3290 C   0  0  0  0  0  1  0  0  0  0  0  0
  184.7280  173.8160  137.4750 C   0  0  0  0  0  2  0  0  0  0  0  0
  1 14  1  0  0  0  0
  3  2  1  6  0  0  0
  3 16  1  0  0  0  0
  3 15  1  0  0  0  0
  6  8  1  0  0  0  0
  7  6  1  6  0  0  0
  7 10  1  0  0  0  0
  8  3  1  0  0  0  0
  8 28  1  1  0  0  0
  9 13  1  0  0  0  0
 10 12  1  0  0  0  0
 12  9  1  0  0  0  0
 13  4  2  0  0  0  0
 14 11  2  0  0  0  0
 14 13  1  0  0  0  0
 15  1  1  6  0  0  0
 16  5  1  6  0  0  0
 16 15  1  0  0  0  0
 17 19  2  0  0  0  0
 18 19  1  0  0  0  0
 18 24  1  0  0  0  0
 19 23  1  0  0  0  0
 20 21  1  1  0  0  0
 20  7  1  0  0  0  0
 20 18  1  0  0  0  0
 21 17  1  0  0  0  0
 23 22  2  0  0  0  0
 25 24  1  0  0  0  0
 26 25  1  0  0  0  0
 27 28  1  0  0  0  0
M  END
>  <MODEL>
2

>  <REMARK>
 VINA RESULT:      -5.1      4.537      7.723
  Name = 
  5 active torsions:
  status: ('A' for Active; 'I' for Inactive)
    1  A    between atoms: N_9  and  C_18
    2  A    between atoms: C_10  and  C_13
    3  A    between atoms: C_11  and  C_22
    4  A    between atoms: C_12  and  C_23
    5  A    between atoms: C_14  and  C_18
                            x       y       z     vdW  Elec       q    Type
                         _______ _______ _______ _____ _____    ______ ____

>  <TORSDO>
F 5

$$$$
=
 OpenBabel10272402023D

 28 30  0  0  1  0  0  0  0  0999 V2000
  188.2590  177.1260  137.7930 N   0  0  0  0  0  2  0  0  0  0  0  0
  188.2620  176.8370  135.0050 C   0  0  0  0  0  1  0  0  0  0  0  0
  188.3700  175.5770  135.8640 C   0  0  1  0  0  0  0  0  0  0  0  0
  190.6260  177.5870  140.5590 O   0  0  0  0  0  0  0  0  0  0  0  0
  186.1340  176.1880  136.5990 O   0  0  0  0  0  1  0  0  0  0  0  0
  190.5560  174.7660  134.7860 C   0  0  0  0  0  2  0  0  0  0  0  0
  191.5520  174.9930  135.9170 C   0  0  2  0  0  3  0  0  0  0  0  0
  189.1530  174.3850  135.2700 C   0  0  1  0  0  3  0  0  0  0  0  0
  190.9400  175.9920  138.8430 C   0  0  0  0  0  2  0  0  0  0  0  0
  191.4720  176.4330  136.4370 C   0  0  0  0  0  2  0  0  0  0  0  0
  188.6490  178.8900  139.2350 O   0  0  0  0  0  0  0  0  0  0  0  0
  191.9760  176.5260  137.8680 C   0  0  0  0  0  2  0  0  0  0  0  0
  190.1940  177.1230  139.4710 C   0  0  0  0  0  0  0  0  0  0  0  0
  189.0150  177.7530  138.8350 C   0  0  0  0  0  0  0  0  0  0  0  0
  188.4000  175.7320  137.3830 C   0  0  2  0  0  3  0  0  0  0  0  0
  187.1340  175.2090  136.6820 C   0  0  2  0  0  3  0  0  0  0  0  0
  195.0490  175.0730  136.5140 C   0  0  0  0  0  3  0  0  0  0  0  0
  193.4750  173.4640  136.2000 N   0  0  0  0  0  0  0  0  0  0  0  0
  194.7150  173.8250  136.7810 C   0  0  0  0  0  0  0  0  0  0  0  0
  192.9600  174.5940  135.4460 C   0  0  2  0  0  3  0  0  0  0  0  0
  194.0010  175.7060  135.6500 C   0  0  0  0  0  2  0  0  0  0  0  0
  195.2790  172.7470  138.8260 O   0  0  0  0  0  0  0  0  0  0  0  0
  195.5220  172.9130  137.6010 C   0  0  0  0  0  3  0  0  0  0  0  0
  192.9430  172.1070  136.1290 C   0  0  0  0  0  2  0  0  0  0  0  0
  192.6890  171.6980  134.6900 C   0  0  0  0  0  2  0  0  0  0  0  0
  191.7750  170.4930  134.6280 C   0  0  0  0  0  1  0  0  0  0  0  0
  188.4560  171.9890  135.3980 C   0  0  0  0  0  1  0  0  0  0  0  0
  189.1850  173.1080  136.1120 C   0  0  0  0  0  2  0  0  0  0  0  0
  1 14  1  0  0  0  0
  3  2  1  6  0  0  0
  3 16  1  0  0  0  0
  3 15  1  0  0  0  0
  6  8  1  0  0  0  0
  7  6  1  6  0  0  0
  7 10  1  0  0  0  0
  8  3  1  0  0  0  0
  8 28  1  1  0  0  0
  9 13  1  0  0  0  0
 10 12  1  0  0  0  0
 12  9  1  0  0  0  0
 13  4  2  0  0  0  0
 14 11  2  0  0  0  0
 14 13  1  0  0  0  0
 15  1  1  6  0  0  0
 16  5  1  6  0  0  0
 16 15  1  0  0  0  0
 17 19  2  0  0  0  0
 18 19  1  0  0  0  0
 19 23  1  0  0  0  0
 20 21  1  1  0  0  0
 20  7  1  0  0  0  0
 20 18  1  0  0  0  0
 21 17  1  0  0  0  0
 23 22  2  0  0  0  0
 24 18  1  0  0  0  0
 25 24  1  0  0  0  0
 26 25  1  0  0  0  0
 27 28  1  0  0  0  0
M  END
>  <MODEL>
3

>  <REMARK>
 VINA RESULT:      -5.1      2.393      6.404
  Name = 
  5 active torsions:
  status: ('A' for Active; 'I' for Inactive)
    1  A    between atoms: N_9  and  C_18
    2  A    between atoms: C_10  and  C_13
    3  A    between atoms: C_11  and  C_22
    4  A    between atoms: C_12  and  C_23
    5  A    between atoms: C_14  and  C_18
                            x       y       z     vdW  Elec       q    Type
                         _______ _______ _______ _____ _____    ______ ____

>  <TORSDO>
F 5

$$$$
=
 OpenBabel10272402023D

 28 30  0  0  1  0  0  0  0  0999 V2000
  185.3480  174.9540  135.4820 N   0  0  0  0  0  2  0  0  0  0  0  0
  186.3340  177.5050  134.8710 C   0  0  0  0  0  1  0  0  0  0  0  0
  186.7540  176.8630  136.1950 C   0  0  1  0  0  0  0  0  0  0  0  0
  182.4930  173.3930  137.1810 O   0  0  0  0  0  0  0  0  0  0  0  0
  187.8440  175.2240  134.7670 O   0  0  0  0  0  1  0  0  0  0  0  0
  185.9220  178.8060  137.6530 C   0  0  0  0  0  2  0  0  0  0  0  0
  184.7110  178.1770  138.3310 C   0  0  2  0  0  3  0  0  0  0  0  0
  187.0550  177.8140  137.3740 C   0  0  1  0  0  3  0  0  0  0  0  0
  183.7140  175.1970  138.0990 C   0  0  0  0  0  2  0  0  0  0  0  0
  183.7590  177.5670  137.2960 C   0  0  0  0  0  2  0  0  0  0  0  0
  183.5800  173.6780  134.7130 O   0  0  0  0  0  0  0  0  0  0  0  0
  182.9070  176.4720  137.9160 C   0  0  0  0  0  2  0  0  0  0  0  0
  183.4120  174.2350  136.9980 C   0  0  0  0  0  0  0  0  0  0  0  0
  184.1030  174.2760  135.6900 C   0  0  0  0  0  0  0  0  0  0  0  0
  186.1930  175.4860  136.5450 C   0  0  2  0  0  3  0  0  0  0  0  0
  187.6570  175.6360  136.0940 C   0  0  2  0  0  3  0  0  0  0  0  0
  181.6930  179.6510  139.4750 C   0  0  0  0  0  3  0  0  0  0  0  0
  183.4700  178.6030  140.4280 N   0  0  0  0  0  0  0  0  0  0  0  0
  182.0920  178.9220  140.4990 C   0  0  0  0  0  0  0  0  0  0  0  0
  184.0360  179.2180  139.2390 C   0  0  2  0  0  3  0  0  0  0  0  0
  182.8500  179.9270  138.5650 C   0  0  0  0  0  2  0  0  0  0  0  0
  180.9810  179.2050  142.5840 O   0  0  0  0  0  0  0  0  0  0  0  0
  181.2120  178.4730  141.5860 C   0  0  0  0  0  3  0  0  0  0  0  0
  184.2520  178.0040  141.5040 C   0  0  0  0  0  2  0  0  0  0  0  0
  185.1910  179.0220  142.1240 C   0  0  0  0  0  2  0  0  0  0  0  0
  186.6350  178.6390  141.8780 C   0  0  0  0  0  1  0  0  0  0  0  0
  188.9150  177.6890  139.0380 C   0  0  0  0  0  1  0  0  0  0  0  0
  187.5460  177.1570  138.6650 C   0  0  0  0  0  2  0  0  0  0  0  0
  1 14  1  0  0  0  0
  3  2  1  6  0  0  0
  3 15  1  0  0  0  0
  3  8  1  0  0  0  0
  6  7  1  0  0  0  0
  7 10  1  6  0  0  0
  7 20  1  0  0  0  0
  8  6  1  0  0  0  0
  8 28  1  1  0  0  0
 10 12  1  0  0  0  0
 11 14  2  0  0  0  0
 12  9  1  0  0  0  0
 13  4  2  0  0  0  0
 13  9  1  0  0  0  0
 14 13  1  0  0  0  0
 15  1  1  6  0  0  0
 16  5  1  6  0  0  0
 16  3  1  0  0  0  0
 16 15  1  0  0  0  0
 17 19  2  0  0  0  0
 18 19  1  0  0  0  0
 18 24  1  0  0  0  0
 19 23  1  0  0  0  0
 20 21  1  6  0  0  0
 20 18  1  0  0  0  0
 21 17  1  0  0  0  0
 23 22  2  0  0  0  0
 24 25  1  0  0  0  0
 26 25  1  0  0  0  0
 28 27  1  0  0  0  0
M  END
>  <MODEL>
4

>  <REMARK>
 VINA RESULT:      -5.0      4.689      6.880
  Name = 
  5 active torsions:
  status: ('A' for Active; 'I' for Inactive)
    1  A    between atoms: N_9  and  C_18
    2  A    between atoms: C_10  and  C_13
    3  A    between atoms: C_11  and  C_22
    4  A    between atoms: C_12  and  C_23
    5  A    between atoms: C_14  and  C_18
                            x       y       z     vdW  Elec       q    Type
                         _______ _______ _______ _____ _____    ______ ____

>  <TORSDO>
F 5

$$$$
=
 OpenBabel10272402023D

 28 30  0  0  1  0  0  0  0  0999 V2000
  188.0570  178.3150  139.3850 N   0  0  0  0  0  2  0  0  0  0  0  0
  188.3350  179.1690  136.7310 C   0  0  0  0  0  1  0  0  0  0  0  0
  188.0010  177.6990  136.9880 C   0  0  1  0  0  0  0  0  0  0  0  0
  190.0960  176.9320  142.1060 O   0  0  0  0  0  0  0  0  0  0  0  0
  185.9290  178.5880  137.8980 O   0  0  0  0  0  1  0  0  0  0  0  0
  190.0150  176.7860  135.6830 C   0  0  0  0  0  2  0  0  0  0  0  0
  190.8860  176.2450  136.8110 C   0  0  2  0  0  3  0  0  0  0  0  0
  188.5130  176.6700  135.9560 C   0  0  1  0  0  3  0  0  0  0  0  0
  190.1950  176.1330  139.8830 C   0  0  0  0  0  2  0  0  0  0  0  0
  191.1210  177.3170  137.8820 C   0  0  0  0  0  2  0  0  0  0  0  0
  188.7120  179.1650  141.4330 O   0  0  0  0  0  0  0  0  0  0  0  0
  191.4480  176.6850  139.2250 C   0  0  0  0  0  2  0  0  0  0  0  0
  189.6980  177.0850  140.9210 C   0  0  0  0  0  0  0  0  0  0  0  0
  188.8150  178.2280  140.5980 C   0  0  0  0  0  0  0  0  0  0  0  0
  187.8800  177.2230  138.4340 C   0  0  2  0  0  3  0  0  0  0  0  0
  186.6190  177.4120  137.5720 C   0  0  2  0  0  3  0  0  0  0  0  0
  194.3210  175.5010  137.2980 C   0  0  0  0  0  3  0  0  0  0  0  0
  192.4570  174.3370  136.7200 N   0  0  0  0  0  0  0  0  0  0  0  0
  193.7380  174.3180  137.3210 C   0  0  0  0  0  0  0  0  0  0  0  0
  192.1880  175.6770  136.2240 C   0  0  2  0  0  3  0  0  0  0  0  0
  193.4320  176.4930  136.6130 C   0  0  0  0  0  2  0  0  0  0  0  0
  195.1520  173.1950  138.8710 O   0  0  0  0  0  0  0  0  0  0  0  0
  194.3360  173.1150  137.9160 C   0  0  0  0  0  3  0  0  0  0  0  0
  191.6610  173.1580  136.3960 C   0  0  0  0  0  2  0  0  0  0  0  0
  191.3590  173.0980  134.9100 C   0  0  0  0  0  2  0  0  0  0  0  0
  190.1910  172.1740  134.6370 C   0  0  0  0  0  1  0  0  0  0  0  0
  187.3850  174.6670  134.9740 C   0  0  0  0  0  1  0  0  0  0  0  0
  188.1040  175.2140  136.1910 C   0  0  0  0  0  2  0  0  0  0  0  0
  1 14  1  0  0  0  0
  3  2  1  6  0  0  0
  3 16  1  0  0  0  0
  3 15  1  0  0  0  0
  6  8  1  0  0  0  0
  7  6  1  6  0  0  0
  7 10  1  0  0  0  0
  8 28  1  1  0  0  0
  8  3  1  0  0  0  0
  9 13  1  0  0  0  0
 10 12  1  0  0  0  0
 12  9  1  0  0  0  0
 13  4  2  0  0  0  0
 14 13  1  0  0  0  0
 14 11  2  0  0  0  0
 15  1  1  1  0  0  0
 16  5  1  1  0  0  0
 16 15  1  0  0  0  0
 17 19  2  0  0  0  0
 18 19  1  0  0  0  0
 19 23  1  0  0  0  0
 20 21  1  1  0  0  0
 20 18  1  0  0  0  0
 20  7  1  0  0  0  0
 21 17  1  0  0  0  0
 23 22  2  0  0  0  0
 24 18  1  0  0  0  0
 25 24  1  0  0  0  0
 26 25  1  0  0  0  0
 27 28  1  0  0  0  0
M  END
>  <MODEL>
5

>  <REMARK>
 VINA RESULT:      -5.0      2.185      6.256
  Name = 
  5 active torsions:
  status: ('A' for Active; 'I' for Inactive)
    1  A    between atoms: N_9  and  C_18
    2  A    between atoms: C_10  and  C_13
    3  A    between atoms: C_11  and  C_22
    4  A    between atoms: C_12  and  C_23
    5  A    between atoms: C_14  and  C_18
                            x       y       z     vdW  Elec       q    Type
                         _______ _______ _______ _____ _____    ______ ____

>  <TORSDO>
F 5

$$$$
=
 OpenBabel10272402023D

 28 30  0  0  1  0  0  0  0  0999 V2000
  188.4010  174.6460  135.7500 N   0  0  0  0  0  2  0  0  0  0  0  0
  188.5110  177.3860  135.1710 C   0  0  0  0  0  1  0  0  0  0  0  0
  188.4620  176.9570  136.6380 C   0  0  1  0  0  0  0  0  0  0  0  0
  185.9160  172.0010  136.2900 O   0  0  0  0  0  0  0  0  0  0  0  0
  190.6240  175.9530  136.1570 O   0  0  0  0  0  1  0  0  0  0  0  0
  186.3760  178.3450  137.2010 C   0  0  0  0  0  2  0  0  0  0  0  0
  185.3290  177.2530  137.3880 C   0  0  2  0  0  3  0  0  0  0  0  0
  187.7850  177.9250  137.6320 C   0  0  1  0  0  3  0  0  0  0  0  0
  185.7710  174.1340  137.2980 C   0  0  0  0  0  2  0  0  0  0  0  0
  185.2910  176.3180  136.1740 C   0  0  0  0  0  2  0  0  0  0  0  0
  187.8400  172.7600  134.5370 O   0  0  0  0  0  0  0  0  0  0  0  0
  184.7340  174.9550  136.5510 C   0  0  0  0  0  2  0  0  0  0  0  0
  186.4150  173.1540  136.3750 C   0  0  0  0  0  0  0  0  0  0  0  0
  187.5680  173.5050  135.5150 C   0  0  0  0  0  0  0  0  0  0  0  0
  188.3710  175.4660  136.9560 C   0  0  2  0  0  3  0  0  0  0  0  0
  189.6930  176.2240  137.1690 C   0  0  2  0  0  3  0  0  0  0  0  0
  181.7940  176.9460  137.3880 C   0  0  0  0  0  3  0  0  0  0  0  0
  183.4030  177.3760  138.9340 N   0  0  0  0  0  0  0  0  0  0  0  0
  182.1160  176.8520  138.6640 C   0  0  0  0  0  0  0  0  0  0  0  0
  183.9690  177.8970  137.7010 C   0  0  2  0  0  3  0  0  0  0  0  0
  182.9040  177.6080  136.6310 C   0  0  0  0  0  2  0  0  0  0  0  0
  180.7870  175.0930  139.5590 O   0  0  0  0  0  0  0  0  0  0  0  0
  181.2520  176.2560  139.6910 C   0  0  0  0  0  3  0  0  0  0  0  0
  183.9520  177.6160  140.2650 C   0  0  0  0  0  2  0  0  0  0  0  0
  184.4910  179.0290  140.3840 C   0  0  0  0  0  2  0  0  0  0  0  0
  185.4340  179.1460  141.5620 C   0  0  0  0  0  1  0  0  0  0  0  0
  188.6910  178.4590  139.9000 C   0  0  0  0  0  1  0  0  0  0  0  0
  187.8140  177.5130  139.1050 C   0  0  0  0  0  2  0  0  0  0  0  0
  3  2  1  6  0  0  0
  3 15  1  0  0  0  0
  3 16  1  0  0  0  0
  3  8  1  0  0  0  0
  4 13  2  0  0  0  0
  6  7  1  0  0  0  0
  6  8  1  0  0  0  0
  7 10  1  6  0  0  0
  7 20  1  0  0  0  0
  8 28  1  1  0  0  0
 10 12  1  0  0  0  0
 11 14  2  0  0  0  0
 12  9  1  0  0  0  0
 13  9  1  0  0  0  0
 14  1  1  0  0  0  0
 14 13  1  0  0  0  0
 15  1  1  6  0  0  0
 15 16  1  0  0  0  0
 16  5  1  6  0  0  0
 17 19  2  0  0  0  0
 18 24  1  0  0  0  0
 19 18  1  0  0  0  0
 19 23  1  0  0  0  0
 20 21  1  6  0  0  0
 20 18  1  0  0  0  0
 21 17  1  0  0  0  0
 22 23  2  0  0  0  0
 24 25  1  0  0  0  0
 25 26  1  0  0  0  0
 28 27  1  0  0  0  0
M  END
>  <MODEL>
6

>  <REMARK>
 VINA RESULT:      -4.8      4.000      6.093
  Name = 
  5 active torsions:
  status: ('A' for Active; 'I' for Inactive)
    1  A    between atoms: N_9  and  C_18
    2  A    between atoms: C_10  and  C_13
    3  A    between atoms: C_11  and  C_22
    4  A    between atoms: C_12  and  C_23
    5  A    between atoms: C_14  and  C_18
                            x       y       z     vdW  Elec       q    Type
                         _______ _______ _______ _____ _____    ______ ____

>  <TORSDO>
F 5

$$$$
=
 OpenBabel10272402023D

 28 30  0  0  1  0  0  0  0  0999 V2000
  191.3970  177.2360  141.6200 N   0  0  0  0  0  2  0  0  0  0  0  0
  190.5670  179.2430  143.3900 C   0  0  0  0  0  1  0  0  0  0  0  0
  189.8150  177.9110  143.4000 C   0  0  1  0  0  0  0  0  0  0  0  0
  190.7160  176.0560  138.2120 O   0  0  0  0  0  0  0  0  0  0  0  0
  191.9370  177.0030  144.1630 O   0  0  0  0  0  1  0  0  0  0  0  0
  187.5110  178.9590  142.9640 C   0  0  0  0  0  2  0  0  0  0  0  0
  187.2390  178.5070  141.5340 C   0  0  2  0  0  3  0  0  0  0  0  0
  188.3190  177.9510  143.7850 C   0  0  1  0  0  3  0  0  0  0  0  0
  189.0100  176.6020  139.7550 C   0  0  0  0  0  2  0  0  0  0  0  0
  188.4070  178.8750  140.6120 C   0  0  0  0  0  2  0  0  0  0  0  0
  192.6740  177.2080  139.6920 O   0  0  0  0  0  0  0  0  0  0  0  0
  188.4490  177.9670  139.3940 C   0  0  0  0  0  2  0  0  0  0  0  0
  190.4450  176.5140  139.3540 C   0  0  0  0  0  0  0  0  0  0  0  0
  191.5460  177.0010  140.2140 C   0  0  0  0  0  0  0  0  0  0  0  0
  190.2440  176.8260  142.4150 C   0  0  2  0  0  3  0  0  0  0  0  0
  190.5930  176.7000  143.9080 C   0  0  2  0  0  3  0  0  0  0  0  0
  184.5600  178.3460  139.2140 C   0  0  0  0  0  3  0  0  0  0  0  0
  184.7830  178.2310  141.4730 N   0  0  0  0  0  0  0  0  0  0  0  0
  184.0400  177.8600  140.3260 C   0  0  0  0  0  0  0  0  0  0  0  0
  185.8910  179.0770  141.0650 C   0  0  2  0  0  3  0  0  0  0  0  0
  185.7730  179.1640  139.5350 C   0  0  0  0  0  2  0  0  0  0  0  0
  181.6880  177.5100  140.2640 O   0  0  0  0  0  0  0  0  0  0  0  0
  182.8400  177.0150  140.3750 C   0  0  0  0  0  3  0  0  0  0  0  0
  184.3500  178.0380  142.8530 C   0  0  0  0  0  2  0  0  0  0  0  0
  184.1690  179.3700  143.5570 C   0  0  0  0  0  2  0  0  0  0  0  0
  183.8250  179.1630  145.0170 C   0  0  0  0  0  1  0  0  0  0  0  0
  186.7290  176.5380  145.0980 C   0  0  0  0  0  1  0  0  0  0  0  0
  187.6040  176.6000  143.8630 C   0  0  0  0  0  2  0  0  0  0  0  0
  3  2  1  6  0  0  0
  3  8  1  0  0  0  0
  3 16  1  0  0  0  0
  4 13  2  0  0  0  0
  6  8  1  0  0  0  0
  7 10  1  6  0  0  0
  7  6  1  0  0  0  0
  8 28  1  6  0  0  0
 11 14  2  0  0  0  0
 12  9  1  0  0  0  0
 12 10  1  0  0  0  0
 13  9  1  0  0  0  0
 13 14  1  0  0  0  0
 14  1  1  0  0  0  0
 15  1  1  6  0  0  0
 15  3  1  0  0  0  0
 15 16  1  0  0  0  0
 16  5  1  6  0  0  0
 17 21  1  0  0  0  0
 17 19  2  0  0  0  0
 18 24  1  0  0  0  0
 19 23  1  0  0  0  0
 19 18  1  0  0  0  0
 20 21  1  6  0  0  0
 20 18  1  0  0  0  0
 20  7  1  0  0  0  0
 22 23  2  0  0  0  0
 24 25  1  0  0  0  0
 25 26  1  0  0  0  0
 28 27  1  0  0  0  0
M  END
>  <MODEL>
7

>  <REMARK>
 VINA RESULT:      -4.7      3.307      6.527
  Name = 
  5 active torsions:
  status: ('A' for Active; 'I' for Inactive)
    1  A    between atoms: N_9  and  C_18
    2  A    between atoms: C_10  and  C_13
    3  A    between atoms: C_11  and  C_22
    4  A    between atoms: C_12  and  C_23
    5  A    between atoms: C_14  and  C_18
                            x       y       z     vdW  Elec       q    Type
                         _______ _______ _______ _____ _____    ______ ____

>  <TORSDO>
F 5

$$$$
=
 OpenBabel10272402023D

 28 30  0  0  1  0  0  0  0  0999 V2000
  190.3600  173.4360  136.0460 N   0  0  0  0  0  2  0  0  0  0  0  0
  191.2330  175.9890  135.2880 C   0  0  0  0  0  1  0  0  0  0  0  0
  190.5780  175.8240  136.6600 C   0  0  1  0  0  0  0  0  0  0  0  0
  187.3570  171.3360  135.8540 O   0  0  0  0  0  0  0  0  0  0  0  0
  192.5120  174.4310  137.1400 O   0  0  0  0  0  1  0  0  0  0  0  0
  188.7630  177.5940  136.2470 C   0  0  0  0  0  2  0  0  0  0  0  0
  187.5160  176.7250  136.1250 C   0  0  2  0  0  3  0  0  0  0  0  0
  189.8060  177.0390  137.2210 C   0  0  1  0  0  3  0  0  0  0  0  0
  187.3070  173.6050  136.5170 C   0  0  0  0  0  2  0  0  0  0  0  0
  187.7210  175.6160  135.0860 C   0  0  0  0  0  2  0  0  0  0  0  0
  189.8910  171.4820  134.9020 O   0  0  0  0  0  0  0  0  0  0  0  0
  186.7980  174.4390  135.3540 C   0  0  0  0  0  2  0  0  0  0  0  0
  188.0200  172.3960  136.0100 C   0  0  0  0  0  0  0  0  0  0  0  0
  189.4490  172.4140  135.6250 C   0  0  0  0  0  0  0  0  0  0  0  0
  190.0720  174.4410  137.0640 C   0  0  2  0  0  3  0  0  0  0  0  0
  191.3580  175.0100  137.6890 C   0  0  2  0  0  3  0  0  0  0  0  0
  184.4550  177.1390  134.3800 C   0  0  0  0  0  3  0  0  0  0  0  0
  185.1200  177.1630  136.5530 N   0  0  0  0  0  0  0  0  0  0  0  0
  184.0780  176.9230  135.6250 C   0  0  0  0  0  0  0  0  0  0  0  0
  186.2980  177.6150  135.8320 C   0  0  2  0  0  3  0  0  0  0  0  0
  185.8810  177.5970  134.3520 C   0  0  0  0  0  2  0  0  0  0  0  0
  182.5370  175.2910  136.4150 O   0  0  0  0  0  0  0  0  0  0  0  0
  182.7370  176.4670  136.0140 C   0  0  0  0  0  3  0  0  0  0  0  0
  184.9600  177.2250  138.0010 C   0  0  0  0  0  2  0  0  0  0  0  0
  185.3070  178.6050  138.5280 C   0  0  0  0  0  2  0  0  0  0  0  0
  184.0570  179.3530  138.9390 C   0  0  0  0  0  1  0  0  0  0  0  0
  188.9690  178.2400  139.2470 C   0  0  0  0  0  1  0  0  0  0  0  0
  189.2220  176.8810  138.6260 C   0  0  0  0  0  2  0  0  0  0  0  0
  3  2  1  6  0  0  0
  3 15  1  0  0  0  0
  3  8  1  0  0  0  0
  3 16  1  0  0  0  0
  4 13  2  0  0  0  0
  6  8  1  0  0  0  0
  7 10  1  6  0  0  0
  7  6  1  0  0  0  0
  8 28  1  1  0  0  0
 10 12  1  0  0  0  0
 11 14  2  0  0  0  0
 12  9  1  0  0  0  0
 13  9  1  0  0  0  0
 14 13  1  0  0  0  0
 14  1  1  0  0  0  0
 15  1  1  6  0  0  0
 15 16  1  0  0  0  0
 16  5  1  6  0  0  0
 17 19  2  0  0  0  0
 18 24  1  0  0  0  0
 19 23  1  0  0  0  0
 19 18  1  0  0  0  0
 20 21  1  6  0  0  0
 20  7  1  0  0  0  0
 20 18  1  0  0  0  0
 21 17  1  0  0  0  0
 23 22  2  0  0  0  0
 24 25  1  0  0  0  0
 25 26  1  0  0  0  0
 28 27  1  0  0  0  0
M  END
>  <MODEL>
8

>  <REMARK>
 VINA RESULT:      -4.7      3.078      5.732
  Name = 
  5 active torsions:
  status: ('A' for Active; 'I' for Inactive)
    1  A    between atoms: N_9  and  C_18
    2  A    between atoms: C_10  and  C_13
    3  A    between atoms: C_11  and  C_22
    4  A    between atoms: C_12  and  C_23
    5  A    between atoms: C_14  and  C_18
                            x       y       z     vdW  Elec       q    Type
                         _______ _______ _______ _____ _____    ______ ____

>  <TORSDO>
F 5

$$$$
=
 OpenBabel10272402023D

 28 30  0  0  1  0  0  0  0  0999 V2000
  186.9130  177.5030  143.2330 N   0  0  0  0  0  2  0  0  0  0  0  0
  188.7820  175.4180  143.3500 C   0  0  0  0  0  1  0  0  0  0  0  0
  189.2960  176.8570  143.4050 C   0  0  1  0  0  0  0  0  0  0  0  0
  185.2390  179.6230  140.7480 O   0  0  0  0  0  0  0  0  0  0  0  0
  188.0740  176.9500  145.5050 O   0  0  0  0  0  1  0  0  0  0  0  0
  190.8730  176.6010  141.3940 C   0  0  0  0  0  2  0  0  0  0  0  0
  190.1620  177.4470  140.3440 C   0  0  2  0  0  3  0  0  0  0  0  0
  190.7020  177.1240  142.8230 C   0  0  1  0  0  3  0  0  0  0  0  0
  187.5630  179.1880  140.7200 C   0  0  0  0  0  2  0  0  0  0  0  0
  188.6980  177.0200  140.1960 C   0  0  0  0  0  2  0  0  0  0  0  0
  184.7110  177.6630  142.5470 O   0  0  0  0  0  0  0  0  0  0  0  0
  187.8500  178.1540  139.6450 C   0  0  0  0  0  2  0  0  0  0  0  0
  186.1910  178.9870  141.2740 C   0  0  0  0  0  0  0  0  0  0  0  0
  185.9020  178.0280  142.3640 C   0  0  0  0  0  0  0  0  0  0  0  0
  188.2840  177.9960  143.3100 C   0  0  2  0  0  3  0  0  0  0  0  0
  188.9420  177.6540  144.6590 C   0  0  2  0  0  3  0  0  0  0  0  0
  192.9540  176.1630  138.5710 C   0  0  0  0  0  3  0  0  0  0  0  0
  190.6970  176.1520  138.3070 N   0  0  0  0  0  0  0  0  0  0  0  0
  191.9310  175.5020  138.0640 C   0  0  0  0  0  0  0  0  0  0  0  0
  190.9480  177.3900  139.0250 C   0  0  2  0  0  3  0  0  0  0  0  0
  192.4720  177.4190  139.2290 C   0  0  0  0  0  2  0  0  0  0  0  0
  193.1730  173.7280  137.0770 O   0  0  0  0  0  0  0  0  0  0  0  0
  192.0480  174.2260  137.3460 C   0  0  0  0  0  3  0  0  0  0  0  0
  189.4230  175.7920  137.6940 C   0  0  0  0  0  2  0  0  0  0  0  0
  189.1470  176.6470  136.4710 C   0  0  0  0  0  2  0  0  0  0  0  0
  187.6580  176.7670  136.2260 C   0  0  0  0  0  1  0  0  0  0  0  0
  191.9820  178.7180  144.2620 C   0  0  0  0  0  1  0  0  0  0  0  0
  191.2300  178.5540  142.9570 C   0  0  0  0  0  2  0  0  0  0  0  0
  3  2  1  6  0  0  0
  3 16  1  0  0  0  0
  4 13  2  0  0  0  0
  6  8  1  0  0  0  0
  7 10  1  6  0  0  0
  7  6  1  0  0  0  0
  8 28  1  6  0  0  0
  8  3  1  0  0  0  0
  9 13  1  0  0  0  0
 12 10  1  0  0  0  0
 12  9  1  0  0  0  0
 13 14  1  0  0  0  0
 14 11  2  0  0  0  0
 14  1  1  0  0  0  0
 15  1  1  1  0  0  0
 15  3  1  0  0  0  0
 15 16  1  0  0  0  0
 16  5  1  1  0  0  0
 17 21  1  0  0  0  0
 18 20  1  0  0  0  0
 19 18  1  0  0  0  0
 19 17  2  0  0  0  0
 20 21  1  1  0  0  0
 20  7  1  0  0  0  0
 22 23  2  0  0  0  0
 23 19  1  0  0  0  0
 24 18  1  0  0  0  0
 25 24  1  0  0  0  0
 26 25  1  0  0  0  0
 28 27  1  0  0  0  0
M  END
>  <MODEL>
9

>  <REMARK>
 VINA RESULT:      -4.7      1.927      7.673
  Name = 
  5 active torsions:
  status: ('A' for Active; 'I' for Inactive)
    1  A    between atoms: N_9  and  C_18
    2  A    between atoms: C_10  and  C_13
    3  A    between atoms: C_11  and  C_22
    4  A    between atoms: C_12  and  C_23
    5  A    between atoms: C_14  and  C_18
                            x       y       z     vdW  Elec       q    Type
                         _______ _______ _______ _____ _____    ______ ____

>  <TORSDO>
F 5

$$$$
