=
 OpenBabel10272413113D

 32 37  0  0  1  0  0  0  0  0999 V2000
  186.1010  178.4130  141.9770 C   0  0  0  0  0  0  0  0  0  0  0  0
  187.2080  178.4200  139.8900 N   0  0  0  0  0  0  0  0  0  0  0  0
  184.8040  178.3190  142.6850 C   0  0  0  0  0  3  0  0  0  0  0  0
  186.0790  178.6680  140.6700 C   0  0  0  0  0  0  0  0  0  0  0  0
  186.7810  178.2050  138.5690 C   0  0  0  0  0  0  0  0  0  0  0  0
  191.5000  176.4760  138.7400 C   0  0  0  0  0  3  0  0  0  0  0  0
  188.3950  177.8430  140.4090 C   0  0  0  0  0  0  0  0  0  0  0  0
  189.8180  176.8250  137.0930 C   0  0  0  0  0  3  0  0  0  0  0  0
  188.9320  177.3000  138.0610 C   0  0  0  0  0  0  0  0  0  0  0  0
  184.8430  178.8440  139.8470 C   0  0  2  0  0  3  0  0  0  0  0  0
  187.5800  177.6650  137.6930 N   0  0  0  0  0  0  0  0  0  0  0  0
  183.6830  178.0470  140.4750 C   0  0  0  0  0  2  0  0  0  0  0  0
  188.4850  177.6640  141.7360 C   0  0  0  0  0  3  0  0  0  0  0  0
  187.3660  178.0330  142.5870 N   0  0  0  0  0  0  0  0  0  0  0  0
  189.3620  177.3530  139.4120 C   0  0  0  0  0  0  0  0  0  0  0  0
  185.2960  178.4070  138.4100 C   0  0  2  0  0  3  0  0  0  0  0  0
  183.6640  178.1970  141.9830 C   0  0  0  0  0  3  0  0  0  0  0  0
  191.0720  176.4330  137.4480 N   0  0  0  0  0  0  0  0  0  0  0  0
  190.6510  176.9360  139.7500 C   0  0  0  0  0  3  0  0  0  0  0  0
  188.7500  177.1750  145.9750 C   0  0  0  0  0  0  0  0  0  0  0  0
  189.8730  176.6730  146.5480 F   0  0  0  0  0  0  0  0  0  0  0  0
  187.4880  177.8530  144.0060 C   0  0  0  0  0  0  0  0  0  0  0  0
  187.6720  177.5320  146.7880 C   0  0  0  0  0  3  0  0  0  0  0  0
  186.4110  178.1980  144.8350 C   0  0  0  0  0  3  0  0  0  0  0  0
  188.6650  177.3260  144.5820 C   0  0  0  0  0  0  0  0  0  0  0  0
  189.8080  176.8810  143.7290 C   0  0  0  0  0  1  0  0  0  0  0  0
  186.5010  178.0340  146.2190 C   0  0  0  0  0  0  0  0  0  0  0  0
  184.2920  178.8580  146.3020 O   0  0  0  0  0  1  0  0  0  0  0  0
  185.3610  178.4310  147.0900 C   0  0  0  0  0  2  0  0  0  0  0  0
  184.6700  177.1540  138.0090 N   0  0  0  0  0  2  0  0  0  0  0  0
  184.0560  177.3800  136.7120 C   0  0  0  0  0  2  0  0  0  0  0  0
  182.6050  177.7650  136.9020 C   0  0  0  0  0  1  0  0  0  0  0  0
  1 14  1  0  0  0  0
  1  3  1  0  0  0  0
  2  7  1  0  0  0  0
  2  4  1  0  0  0  0
  4  1  2  0  0  0  0
  5  2  1  0  0  0  0
  6 19  1  0  0  0  0
  7 13  2  0  0  0  0
  8 18  1  0  0  0  0
  8  9  2  0  0  0  0
  9 15  1  0  0  0  0
 10 12  1  1  0  0  0
 10  4  1  0  0  0  0
 11  9  1  0  0  0  0
 11  5  2  0  0  0  0
 12 17  1  0  0  0  0
 13 14  1  0  0  0  0
 14 22  1  0  0  0  0
 15 19  2  0  0  0  0
 15  7  1  0  0  0  0
 16 30  1  1  0  0  0
 16  5  1  0  0  0  0
 16 10  1  0  0  0  0
 17  3  2  0  0  0  0
 18  6  2  0  0  0  0
 20 21  1  0  0  0  0
 20 23  1  0  0  0  0
 22 25  1  0  0  0  0
 22 24  2  0  0  0  0
 24 27  1  0  0  0  0
 25 20  2  0  0  0  0
 26 25  1  0  0  0  0
 27 23  2  0  0  0  0
 27 29  1  0  0  0  0
 28 29  1  0  0  0  0
 31 32  1  0  0  0  0
 31 30  1  0  0  0  0
M  END
>  <MODEL>
1

>  <REMARK>
 VINA RESULT:      -9.8      0.000      0.000
  Name = 
  4 active torsions:
  status: ('A' for Active; 'I' for Inactive)
    1  A    between atoms: C_13  and  N_18
    2  A    between atoms: C_15  and  C_26
    3  A    between atoms: C_16  and  N_27
    4  A    between atoms: N_18  and  C_29
                            x       y       z     vdW  Elec       q    Type
                         _______ _______ _______ _____ _____    ______ ____

>  <TORSDO>
F 4

$$$$
=
 OpenBabel10272413113D

 32 37  0  0  1  0  0  0  0  0999 V2000
  186.9540  178.4470  143.7360 C   0  0  0  0  0  0  0  0  0  0  0  0
  186.8820  178.8160  141.4030 N   0  0  0  0  0  0  0  0  0  0  0  0
  186.1740  178.2180  144.9720 C   0  0  0  0  0  3  0  0  0  0  0  0
  186.3070  178.9150  142.6700 C   0  0  0  0  0  0  0  0  0  0  0  0
  185.8450  178.8160  140.4570 C   0  0  0  0  0  0  0  0  0  0  0  0
  189.8990  177.1550  137.9880 C   0  0  0  0  0  3  0  0  0  0  0  0
  188.1280  178.1790  141.1670 C   0  0  0  0  0  0  0  0  0  0  0  0
  187.6510  177.7460  137.4740 C   0  0  0  0  0  3  0  0  0  0  0  0
  187.3950  178.0410  138.8130 C   0  0  0  0  0  0  0  0  0  0  0  0
  184.8410  179.2050  142.6100 C   0  0  2  0  0  3  0  0  0  0  0  0
  186.0670  178.4410  139.2290 N   0  0  0  0  0  0  0  0  0  0  0  0
  184.0910  178.2990  143.6050 C   0  0  0  0  0  2  0  0  0  0  0  0
  188.8490  177.7840  142.2280 C   0  0  0  0  0  3  0  0  0  0  0  0
  188.3260  177.9910  143.5670 N   0  0  0  0  0  0  0  0  0  0  0  0
  188.4390  177.8760  139.7600 C   0  0  0  0  0  0  0  0  0  0  0  0
  184.4940  179.0190  141.0920 C   0  0  2  0  0  3  0  0  0  0  0  0
  184.8310  178.1960  144.9240 C   0  0  0  0  0  3  0  0  0  0  0  0
  188.8860  177.3190  137.0920 N   0  0  0  0  0  0  0  0  0  0  0  0
  189.6940  177.4280  139.3420 C   0  0  0  0  0  3  0  0  0  0  0  0
  191.0330  176.4140  145.6450 C   0  0  0  0  0  0  0  0  0  0  0  0
  192.1470  175.6540  145.5040 F   0  0  0  0  0  0  0  0  0  0  0  0
  189.1200  177.5810  144.6910 C   0  0  0  0  0  0  0  0  0  0  0  0
  190.6390  176.8160  146.9230 C   0  0  0  0  0  3  0  0  0  0  0  0
  188.7330  177.9670  145.9820 C   0  0  0  0  0  3  0  0  0  0  0  0
  190.2750  176.7860  144.5230 C   0  0  0  0  0  0  0  0  0  0  0  0
  190.6830  176.2940  143.1720 C   0  0  0  0  0  1  0  0  0  0  0  0
  189.4860  177.5840  147.0930 C   0  0  0  0  0  0  0  0  0  0  0  0
  187.7110  178.2950  148.4740 O   0  0  0  0  0  1  0  0  0  0  0  0
  189.0800  178.0250  148.4550 C   0  0  0  0  0  2  0  0  0  0  0  0
  183.6650  177.8400  140.8720 N   0  0  0  0  0  2  0  0  0  0  0  0
  182.5070  178.2690  140.1090 C   0  0  0  0  0  2  0  0  0  0  0  0
  181.4000  178.6750  141.0580 C   0  0  0  0  0  1  0  0  0  0  0  0
  1  3  1  0  0  0  0
  2  4  1  0  0  0  0
  4  1  2  0  0  0  0
  5 16  1  0  0  0  0
  5  2  1  0  0  0  0
  6 19  1  0  0  0  0
  7  2  1  0  0  0  0
  7 13  2  0  0  0  0
  8  9  2  0  0  0  0
  9 11  1  0  0  0  0
  9 15  1  0  0  0  0
 10  4  1  0  0  0  0
 10 12  1  1  0  0  0
 11  5  2  0  0  0  0
 12 17  1  0  0  0  0
 13 14  1  0  0  0  0
 14  1  1  0  0  0  0
 14 22  1  0  0  0  0
 15  7  1  0  0  0  0
 16 30  1  1  0  0  0
 16 10  1  0  0  0  0
 17  3  2  0  0  0  0
 18  8  1  0  0  0  0
 18  6  2  0  0  0  0
 19 15  2  0  0  0  0
 20 23  1  0  0  0  0
 21 20  1  0  0  0  0
 22 24  2  0  0  0  0
 23 27  2  0  0  0  0
 24 27  1  0  0  0  0
 25 22  1  0  0  0  0
 25 20  2  0  0  0  0
 26 25  1  0  0  0  0
 27 29  1  0  0  0  0
 29 28  1  0  0  0  0
 31 30  1  0  0  0  0
 31 32  1  0  0  0  0
M  END
>  <MODEL>
2

>  <REMARK>
 VINA RESULT:      -9.7      1.729      2.568
  Name = 
  4 active torsions:
  status: ('A' for Active; 'I' for Inactive)
    1  A    between atoms: C_13  and  N_18
    2  A    between atoms: C_15  and  C_26
    3  A    between atoms: C_16  and  N_27
    4  A    between atoms: N_18  and  C_29
                            x       y       z     vdW  Elec       q    Type
                         _______ _______ _______ _____ _____    ______ ____

>  <TORSDO>
F 4

$$$$
=
 OpenBabel10272413113D

 32 37  0  0  1  0  0  0  0  0999 V2000
  186.9830  178.4080  142.8520 C   0  0  0  0  0  0  0  0  0  0  0  0
  187.3390  178.4850  140.5180 N   0  0  0  0  0  0  0  0  0  0  0  0
  185.9870  178.3690  143.9470 C   0  0  0  0  0  3  0  0  0  0  0  0
  186.5610  178.7660  141.6410 C   0  0  0  0  0  0  0  0  0  0  0  0
  186.4830  178.4110  139.4070 C   0  0  0  0  0  0  0  0  0  0  0  0
  190.7850  176.2800  137.9130 C   0  0  0  0  0  3  0  0  0  0  0  0
  188.5620  177.7700  140.5830 C   0  0  0  0  0  0  0  0  0  0  0  0
  188.7030  176.8990  136.9400 C   0  0  0  0  0  3  0  0  0  0  0  0
  188.2400  177.3700  138.1680 C   0  0  0  0  0  0  0  0  0  0  0  0
  185.1490  179.1100  141.2860 C   0  0  2  0  0  3  0  0  0  0  0  0
  186.8880  177.8760  138.2900 N   0  0  0  0  0  0  0  0  0  0  0  0
  184.1820  178.3680  142.2280 C   0  0  0  0  0  2  0  0  0  0  0  0
  189.0630  177.4800  141.7950 C   0  0  0  0  0  3  0  0  0  0  0  0
  188.3300  177.8750  142.9860 N   0  0  0  0  0  0  0  0  0  0  0  0
  189.0910  177.2800  139.3000 C   0  0  0  0  0  0  0  0  0  0  0  0
  185.0580  178.7500  139.7620 C   0  0  2  0  0  3  0  0  0  0  0  0
  184.6740  178.3990  143.6610 C   0  0  0  0  0  3  0  0  0  0  0  0
  189.9550  176.3740  136.8380 N   0  0  0  0  0  0  0  0  0  0  0  0
  190.3680  176.7290  139.1680 C   0  0  0  0  0  3  0  0  0  0  0  0
  190.7580  176.9230  145.6940 C   0  0  0  0  0  0  0  0  0  0  0  0
  192.0560  176.5630  145.8520 F   0  0  0  0  0  0  0  0  0  0  0  0
  188.8900  177.5750  144.2730 C   0  0  0  0  0  0  0  0  0  0  0  0
  189.9330  177.0070  146.8170 C   0  0  0  0  0  3  0  0  0  0  0  0
  188.0720  177.6450  145.4100 C   0  0  0  0  0  3  0  0  0  0  0  0
  190.2440  177.1980  144.4160 C   0  0  0  0  0  0  0  0  0  0  0  0
  191.1310  177.0430  143.2240 C   0  0  0  0  0  1  0  0  0  0  0  0
  188.5890  177.3590  146.6750 C   0  0  0  0  0  0  0  0  0  0  0  0
  188.4360  178.0300  148.9310 O   0  0  0  0  0  1  0  0  0  0  0  0
  187.7180  177.4660  147.8760 C   0  0  0  0  0  2  0  0  0  0  0  0
  184.2050  177.5900  139.5350 N   0  0  0  0  0  2  0  0  0  0  0  0
  183.3510  177.9040  138.4040 C   0  0  0  0  0  2  0  0  0  0  0  0
  182.5110  179.1200  138.7300 C   0  0  0  0  0  1  0  0  0  0  0  0
  1 14  1  0  0  0  0
  1  3  1  0  0  0  0
  2  7  1  0  0  0  0
  2  4  1  0  0  0  0
  4  1  2  0  0  0  0
  5 16  1  0  0  0  0
  5  2  1  0  0  0  0
  6 19  1  0  0  0  0
  7 13  2  0  0  0  0
  8  9  2  0  0  0  0
  9 11  1  0  0  0  0
  9 15  1  0  0  0  0
 10  4  1  0  0  0  0
 10 12  1  1  0  0  0
 11  5  2  0  0  0  0
 12 17  1  0  0  0  0
 13 14  1  0  0  0  0
 14 22  1  0  0  0  0
 15  7  1  0  0  0  0
 16 30  1  1  0  0  0
 16 10  1  0  0  0  0
 17  3  2  0  0  0  0
 18  8  1  0  0  0  0
 18  6  2  0  0  0  0
 19 15  2  0  0  0  0
 20 21  1  0  0  0  0
 20 23  1  0  0  0  0
 22 25  1  0  0  0  0
 22 24  2  0  0  0  0
 24 27  1  0  0  0  0
 25 20  2  0  0  0  0
 26 25  1  0  0  0  0
 27 23  2  0  0  0  0
 27 29  1  0  0  0  0
 29 28  1  0  0  0  0
 31 32  1  0  0  0  0
 31 30  1  0  0  0  0
M  END
>  <MODEL>
3

>  <REMARK>
 VINA RESULT:      -9.6      1.493      1.763
  Name = 
  4 active torsions:
  status: ('A' for Active; 'I' for Inactive)
    1  A    between atoms: C_13  and  N_18
    2  A    between atoms: C_15  and  C_26
    3  A    between atoms: C_16  and  N_27
    4  A    between atoms: N_18  and  C_29
                            x       y       z     vdW  Elec       q    Type
                         _______ _______ _______ _____ _____    ______ ____

>  <TORSDO>
F 4

$$$$
=
 OpenBabel10272413113D

 32 37  0  0  1  0  0  0  0  0999 V2000
  186.9490  178.4890  141.1250 C   0  0  0  0  0  0  0  0  0  0  0  0
  189.0490  178.2470  142.1820 N   0  0  0  0  0  0  0  0  0  0  0  0
  186.1770  178.3480  139.8710 C   0  0  0  0  0  3  0  0  0  0  0  0
  188.2790  178.4760  141.0420 C   0  0  0  0  0  0  0  0  0  0  0  0
  190.2820  177.7160  141.7700 C   0  0  0  0  0  0  0  0  0  0  0  0
  190.0050  176.7650  146.7000 C   0  0  0  0  0  3  0  0  0  0  0  0
  188.4850  177.9640  143.4520 C   0  0  0  0  0  0  0  0  0  0  0  0
  191.6070  176.5330  144.9550 C   0  0  0  0  0  3  0  0  0  0  0  0
  190.7080  177.0540  144.0250 C   0  0  0  0  0  0  0  0  0  0  0  0
  189.0620  178.3030  139.7790 C   0  0  2  0  0  3  0  0  0  0  0  0
  191.0750  177.1380  142.6260 N   0  0  0  0  0  0  0  0  0  0  0  0
  188.2380  177.4850  138.7660 C   0  0  0  0  0  2  0  0  0  0  0  0
  187.1540  178.0640  143.5920 C   0  0  0  0  0  3  0  0  0  0  0  0
  186.3390  178.4260  142.4450 N   0  0  0  0  0  0  0  0  0  0  0  0
  189.4140  177.4340  144.4650 C   0  0  0  0  0  0  0  0  0  0  0  0
  190.4070  177.6640  140.2690 C   0  0  2  0  0  3  0  0  0  0  0  0
  186.7880  177.9240  138.7510 C   0  0  0  0  0  3  0  0  0  0  0  0
  191.2430  176.4050  146.2610 N   0  0  0  0  0  0  0  0  0  0  0  0
  189.0630  177.2850  145.8080 C   0  0  0  0  0  3  0  0  0  0  0  0
  182.9580  178.9220  144.0130 C   0  0  0  0  0  0  0  0  0  0  0  0
  182.3940  179.1640  145.2230 F   0  0  0  0  0  0  0  0  0  0  0  0
  184.9190  178.5490  142.6170 C   0  0  0  0  0  0  0  0  0  0  0  0
  182.1360  178.7880  142.8930 C   0  0  0  0  0  3  0  0  0  0  0  0
  184.0780  178.4070  141.5040 C   0  0  0  0  0  3  0  0  0  0  0  0
  184.3510  178.7970  143.8870 C   0  0  0  0  0  0  0  0  0  0  0  0
  185.2050  178.8850  145.1090 C   0  0  0  0  0  1  0  0  0  0  0  0
  182.6930  178.5220  141.6410 C   0  0  0  0  0  0  0  0  0  0  0  0
  180.7800  177.5030  140.7130 O   0  0  0  0  0  1  0  0  0  0  0  0
  181.8150  178.3990  140.4460 C   0  0  0  0  0  2  0  0  0  0  0  0
  190.5310  176.2780  139.8350 N   0  0  0  0  0  2  0  0  0  0  0  0
  191.5350  176.2480  138.7860 C   0  0  0  0  0  2  0  0  0  0  0  0
  191.0820  175.3160  137.6820 C   0  0  0  0  0  1  0  0  0  0  0  0
  1 14  1  0  0  0  0
  2  7  1  0  0  0  0
  3  1  1  0  0  0  0
  4  1  2  0  0  0  0
  4  2  1  0  0  0  0
  5  2  1  0  0  0  0
  5 11  2  0  0  0  0
  7 13  2  0  0  0  0
  7 15  1  0  0  0  0
  8 18  2  0  0  0  0
  9 15  2  0  0  0  0
  9  8  1  0  0  0  0
 10 12  1  6  0  0  0
 10 16  1  0  0  0  0
 10  4  1  0  0  0  0
 11  9  1  0  0  0  0
 14 22  1  0  0  0  0
 14 13  1  0  0  0  0
 15 19  1  0  0  0  0
 16 30  1  6  0  0  0
 16  5  1  0  0  0  0
 17 12  1  0  0  0  0
 17  3  2  0  0  0  0
 18  6  1  0  0  0  0
 19  6  2  0  0  0  0
 20 21  1  0  0  0  0
 22 25  2  0  0  0  0
 23 20  2  0  0  0  0
 24 27  2  0  0  0  0
 24 22  1  0  0  0  0
 25 20  1  0  0  0  0
 25 26  1  0  0  0  0
 27 23  1  0  0  0  0
 29 28  1  0  0  0  0
 29 27  1  0  0  0  0
 31 30  1  0  0  0  0
 32 31  1  0  0  0  0
M  END
>  <MODEL>
4

>  <REMARK>
 VINA RESULT:      -9.3      2.630      5.720
  Name = 
  4 active torsions:
  status: ('A' for Active; 'I' for Inactive)
    1  A    between atoms: C_13  and  N_18
    2  A    between atoms: C_15  and  C_26
    3  A    between atoms: C_16  and  N_27
    4  A    between atoms: N_18  and  C_29
                            x       y       z     vdW  Elec       q    Type
                         _______ _______ _______ _____ _____    ______ ____

>  <TORSDO>
F 4

$$$$
=
 OpenBabel10272413113D

 32 37  0  0  1  0  0  0  0  0999 V2000
  185.5140  178.6430  139.4910 C   0  0  0  0  0  0  0  0  0  0  0  0
  186.4730  178.8510  141.6410 N   0  0  0  0  0  0  0  0  0  0  0  0
  185.6950  178.1690  138.1010 C   0  0  0  0  0  3  0  0  0  0  0  0
  186.5990  178.7610  140.2540 C   0  0  0  0  0  0  0  0  0  0  0  0
  187.6690  178.3880  142.2140 C   0  0  0  0  0  0  0  0  0  0  0  0
  184.3210  178.4140  145.9650 C   0  0  0  0  0  3  0  0  0  0  0  0
  185.2260  178.7650  142.3110 C   0  0  0  0  0  0  0  0  0  0  0  0
  186.6520  178.0180  145.6960 C   0  0  0  0  0  3  0  0  0  0  0  0
  186.5590  178.2410  144.3230 C   0  0  0  0  0  0  0  0  0  0  0  0
  187.9940  178.4280  139.8280 C   0  0  2  0  0  3  0  0  0  0  0  0
  187.7250  178.0840  143.4790 N   0  0  0  0  0  0  0  0  0  0  0  0
  187.9570  177.3380  138.7390 C   0  0  0  0  0  2  0  0  0  0  0  0
  184.1080  178.7430  141.5690 C   0  0  0  0  0  3  0  0  0  0  0  0
  184.2090  178.7770  140.1200 N   0  0  0  0  0  0  0  0  0  0  0  0
  185.2910  178.5550  143.7670 C   0  0  0  0  0  0  0  0  0  0  0  0
  188.7070  178.0520  141.1730 C   0  0  2  0  0  3  0  0  0  0  0  0
  186.8560  177.6020  137.7320 C   0  0  0  0  0  3  0  0  0  0  0  0
  185.5450  178.1140  146.4820 N   0  0  0  0  0  0  0  0  0  0  0  0
  184.1700  178.6380  144.5950 C   0  0  0  0  0  3  0  0  0  0  0  0
  181.1050  177.6160  138.3450 C   0  0  0  0  0  0  0  0  0  0  0  0
  180.4040  176.4800  138.1030 F   0  0  0  0  0  0  0  0  0  0  0  0
  183.0020  178.7730  139.3430 C   0  0  0  0  0  0  0  0  0  0  0  0
  180.6420  178.8260  137.8240 C   0  0  0  0  0  3  0  0  0  0  0  0
  182.5280  179.9780  138.8050 C   0  0  0  0  0  3  0  0  0  0  0  0
  182.2880  177.5780  139.1000 C   0  0  0  0  0  0  0  0  0  0  0  0
  182.7950  176.2630  139.5960 C   0  0  0  0  0  1  0  0  0  0  0  0
  181.3560  180.0050  138.0460 C   0  0  0  0  0  0  0  0  0  0  0  0
  181.5370  182.3550  138.0960 O   0  0  0  0  0  1  0  0  0  0  0  0
  180.8500  181.2950  137.5050 C   0  0  0  0  0  2  0  0  0  0  0  0
  189.0200  176.6300  141.2340 N   0  0  0  0  0  2  0  0  0  0  0  0
  190.4080  176.5170  141.6460 C   0  0  0  0  0  2  0  0  0  0  0  0
  190.4820  175.7880  142.9710 C   0  0  0  0  0  1  0  0  0  0  0  0
  1 14  1  0  0  0  0
  1  4  2  0  0  0  0
  2  5  1  0  0  0  0
  2  7  1  0  0  0  0
  3  1  1  0  0  0  0
  4  2  1  0  0  0  0
  5 11  2  0  0  0  0
  6 18  1  0  0  0  0
  7 15  1  0  0  0  0
  8 18  2  0  0  0  0
  9  8  1  0  0  0  0
 10 12  1  6  0  0  0
 10  4  1  0  0  0  0
 10 16  1  0  0  0  0
 11  9  1  0  0  0  0
 13  7  2  0  0  0  0
 14 13  1  0  0  0  0
 15  9  2  0  0  0  0
 15 19  1  0  0  0  0
 16 30  1  6  0  0  0
 16  5  1  0  0  0  0
 17  3  2  0  0  0  0
 17 12  1  0  0  0  0
 19  6  2  0  0  0  0
 20 25  1  0  0  0  0
 21 20  1  0  0  0  0
 22 14  1  0  0  0  0
 23 27  1  0  0  0  0
 23 20  2  0  0  0  0
 24 22  1  0  0  0  0
 25 22  2  0  0  0  0
 25 26  1  0  0  0  0
 27 24  2  0  0  0  0
 29 27  1  0  0  0  0
 29 28  1  0  0  0  0
 30 31  1  0  0  0  0
 31 32  1  0  0  0  0
M  END
>  <MODEL>
5

>  <REMARK>
 VINA RESULT:      -9.1      3.349      7.536
  Name = 
  4 active torsions:
  status: ('A' for Active; 'I' for Inactive)
    1  A    between atoms: C_13  and  N_18
    2  A    between atoms: C_15  and  C_26
    3  A    between atoms: C_16  and  N_27
    4  A    between atoms: N_18  and  C_29
                            x       y       z     vdW  Elec       q    Type
                         _______ _______ _______ _____ _____    ______ ____

>  <TORSDO>
F 4

$$$$
=
 OpenBabel10272413113D

 32 37  0  0  1  0  0  0  0  0999 V2000
  189.3250  177.1920  142.6850 C   0  0  0  0  0  0  0  0  0  0  0  0
  187.5310  177.4140  141.1630 N   0  0  0  0  0  0  0  0  0  0  0  0
  190.7890  177.2670  142.8840 C   0  0  0  0  0  3  0  0  0  0  0  0
  188.8690  177.1290  141.4350 C   0  0  0  0  0  0  0  0  0  0  0  0
  187.4440  177.8440  139.8290 C   0  0  0  0  0  0  0  0  0  0  0  0
  183.1020  179.2230  141.9560 C   0  0  0  0  0  3  0  0  0  0  0  0
  186.6120  177.8330  142.1580 C   0  0  0  0  0  0  0  0  0  0  0  0
  184.0680  179.2230  139.7810 C   0  0  0  0  0  3  0  0  0  0  0  0
  185.2490  178.6720  140.2770 C   0  0  0  0  0  0  0  0  0  0  0  0
  189.7200  177.1540  140.2050 C   0  0  2  0  0  3  0  0  0  0  0  0
  186.3760  178.4510  139.3950 N   0  0  0  0  0  0  0  0  0  0  0  0
  191.0240  177.9240  140.4910 C   0  0  0  0  0  2  0  0  0  0  0  0
  187.0120  177.8140  143.4390 C   0  0  0  0  0  3  0  0  0  0  0  0
  188.3660  177.3980  143.7610 N   0  0  0  0  0  0  0  0  0  0  0  0
  185.3440  178.3980  141.6670 C   0  0  0  0  0  0  0  0  0  0  0  0
  188.7700  177.7620  139.1160 C   0  0  2  0  0  3  0  0  0  0  0  0
  191.5930  177.5610  141.8480 C   0  0  0  0  0  3  0  0  0  0  0  0
  183.0280  179.4790  140.6200 N   0  0  0  0  0  0  0  0  0  0  0  0
  184.2640  178.6790  142.5060 C   0  0  0  0  0  3  0  0  0  0  0  0
  188.3340  177.7370  147.5050 C   0  0  0  0  0  0  0  0  0  0  0  0
  187.5170  178.1440  148.5090 F   0  0  0  0  0  0  0  0  0  0  0  0
  188.7710  177.3650  145.1380 C   0  0  0  0  0  0  0  0  0  0  0  0
  189.6120  177.2670  147.8140 C   0  0  0  0  0  3  0  0  0  0  0  0
  190.0540  176.9050  145.4650 C   0  0  0  0  0  3  0  0  0  0  0  0
  187.9060  177.7960  146.1690 C   0  0  0  0  0  0  0  0  0  0  0  0
  186.5570  178.3580  145.8580 C   0  0  0  0  0  1  0  0  0  0  0  0
  190.4750  176.8600  146.7960 C   0  0  0  0  0  0  0  0  0  0  0  0
  192.3030  176.9720  148.2810 O   0  0  0  0  0  1  0  0  0  0  0  0
  191.8290  176.3420  147.1300 C   0  0  0  0  0  2  0  0  0  0  0  0
  189.1970  179.0970  138.7180 N   0  0  0  0  0  2  0  0  0  0  0  0
  189.0640  179.1750  137.2740 C   0  0  0  0  0  2  0  0  0  0  0  0
  189.3180  177.8100  136.6720 C   0  0  0  0  0  1  0  0  0  0  0  0
  1  3  1  0  0  0  0
  1 14  1  0  0  0  0
  2  4  1  0  0  0  0
  2  7  1  0  0  0  0
  4  1  2  0  0  0  0
  5  2  1  0  0  0  0
  6 19  1  0  0  0  0
  7 13  2  0  0  0  0
  8  9  2  0  0  0  0
  8 18  1  0  0  0  0
  9 15  1  0  0  0  0
 10 12  1  1  0  0  0
 10  4  1  0  0  0  0
 11  5  2  0  0  0  0
 11  9  1  0  0  0  0
 12 17  1  0  0  0  0
 13 14  1  0  0  0  0
 14 22  1  0  0  0  0
 15  7  1  0  0  0  0
 15 19  2  0  0  0  0
 16 30  1  1  0  0  0
 16  5  1  0  0  0  0
 16 10  1  0  0  0  0
 17  3  2  0  0  0  0
 18  6  2  0  0  0  0
 20 23  1  0  0  0  0
 20 21  1  0  0  0  0
 22 24  2  0  0  0  0
 22 25  1  0  0  0  0
 24 27  1  0  0  0  0
 25 20  2  0  0  0  0
 26 25  1  0  0  0  0
 27 29  1  0  0  0  0
 27 23  2  0  0  0  0
 29 28  1  0  0  0  0
 31 30  1  0  0  0  0
 32 31  1  0  0  0  0
M  END
>  <MODEL>
6

>  <REMARK>
 VINA RESULT:      -9.0      2.278      5.141
  Name = 
  4 active torsions:
  status: ('A' for Active; 'I' for Inactive)
    1  A    between atoms: C_13  and  N_18
    2  A    between atoms: C_15  and  C_26
    3  A    between atoms: C_16  and  N_27
    4  A    between atoms: N_18  and  C_29
                            x       y       z     vdW  Elec       q    Type
                         _______ _______ _______ _____ _____    ______ ____

>  <TORSDO>
F 4

$$$$
=
 OpenBabel10272413113D

 32 37  0  0  1  0  0  0  0  0999 V2000
  185.2940  177.9450  143.8850 C   0  0  0  0  0  0  0  0  0  0  0  0
  187.5230  177.1700  143.7650 N   0  0  0  0  0  0  0  0  0  0  0  0
  184.2380  178.5350  144.7380 C   0  0  0  0  0  3  0  0  0  0  0  0
  186.3550  177.4120  144.4890 C   0  0  0  0  0  0  0  0  0  0  0  0
  188.6000  177.1810  144.6670 C   0  0  0  0  0  0  0  0  0  0  0  0
  190.6800  177.6040  140.1090 C   0  0  0  0  0  3  0  0  0  0  0  0
  187.6730  177.5190  142.3980 C   0  0  0  0  0  0  0  0  0  0  0  0
  191.4170  177.3410  142.3560 C   0  0  0  0  0  3  0  0  0  0  0  0
  190.1010  177.3490  142.8170 C   0  0  0  0  0  0  0  0  0  0  0  0
  186.5830  177.3830  145.9660 C   0  0  2  0  0  3  0  0  0  0  0  0
  189.8260  177.2770  144.2370 N   0  0  0  0  0  0  0  0  0  0  0  0
  185.8660  178.5770  146.6250 C   0  0  0  0  0  2  0  0  0  0  0  0
  186.5940  177.9670  141.7370 C   0  0  0  0  0  3  0  0  0  0  0  0
  185.3300  178.1080  142.4400 N   0  0  0  0  0  0  0  0  0  0  0  0
  189.0490  177.4960  141.8750 C   0  0  0  0  0  0  0  0  0  0  0  0
  188.1450  177.3450  146.0950 C   0  0  2  0  0  3  0  0  0  0  0  0
  184.4870  178.7870  146.0340 C   0  0  0  0  0  3  0  0  0  0  0  0
  191.6770  177.4610  141.0260 N   0  0  0  0  0  0  0  0  0  0  0  0
  189.3440  177.6270  140.5170 C   0  0  0  0  0  3  0  0  0  0  0  0
  183.1130  179.3160  139.6540 C   0  0  0  0  0  0  0  0  0  0  0  0
  183.1660  179.6140  138.3320 F   0  0  0  0  0  0  0  0  0  0  0  0
  184.1830  178.5700  141.7120 C   0  0  0  0  0  0  0  0  0  0  0  0
  181.9030  179.4610  140.3370 C   0  0  0  0  0  3  0  0  0  0  0  0
  182.9630  178.7310  142.3840 C   0  0  0  0  0  3  0  0  0  0  0  0
  184.2600  178.8780  140.3350 C   0  0  0  0  0  0  0  0  0  0  0  0
  185.5560  178.7880  139.5970 C   0  0  0  0  0  1  0  0  0  0  0  0
  181.8290  179.1770  141.7020 C   0  0  0  0  0  0  0  0  0  0  0  0
  180.2700  180.6630  142.6630 O   0  0  0  0  0  1  0  0  0  0  0  0
  180.5340  179.3150  142.4210 C   0  0  0  0  0  2  0  0  0  0  0  0
  188.6690  178.5920  146.6380 N   0  0  0  0  0  2  0  0  0  0  0  0
  189.3590  178.2630  147.8720 C   0  0  0  0  0  2  0  0  0  0  0  0
  188.3430  178.0380  148.9720 C   0  0  0  0  0  1  0  0  0  0  0  0
  1  4  2  0  0  0  0
  1  3  1  0  0  0  0
  2  4  1  0  0  0  0
  2  5  1  0  0  0  0
  3 17  2  0  0  0  0
  4 10  1  0  0  0  0
  5 16  1  0  0  0  0
  6 19  2  0  0  0  0
  6 18  1  0  0  0  0
  7  2  1  0  0  0  0
  8  9  1  0  0  0  0
  9 11  1  0  0  0  0
 10 16  1  0  0  0  0
 10 12  1  1  0  0  0
 11  5  2  0  0  0  0
 13  7  2  0  0  0  0
 13 14  1  0  0  0  0
 14  1  1  0  0  0  0
 15  7  1  0  0  0  0
 15  9  2  0  0  0  0
 16 30  1  6  0  0  0
 17 12  1  0  0  0  0
 18  8  2  0  0  0  0
 19 15  1  0  0  0  0
 20 25  2  0  0  0  0
 20 23  1  0  0  0  0
 21 20  1  0  0  0  0
 22 24  2  0  0  0  0
 22 14  1  0  0  0  0
 23 27  2  0  0  0  0
 25 22  1  0  0  0  0
 26 25  1  0  0  0  0
 27 24  1  0  0  0  0
 27 29  1  0  0  0  0
 29 28  1  0  0  0  0
 30 31  1  0  0  0  0
 31 32  1  0  0  0  0
M  END
>  <MODEL>
7

>  <REMARK>
 VINA RESULT:      -8.9      3.017      6.454
  Name = 
  4 active torsions:
  status: ('A' for Active; 'I' for Inactive)
    1  A    between atoms: C_13  and  N_18
    2  A    between atoms: C_15  and  C_26
    3  A    between atoms: C_16  and  N_27
    4  A    between atoms: N_18  and  C_29
                            x       y       z     vdW  Elec       q    Type
                         _______ _______ _______ _____ _____    ______ ____

>  <TORSDO>
F 4

$$$$
=
 OpenBabel10272413113D

 32 37  0  0  1  0  0  0  0  0999 V2000
  189.0080  177.0860  143.6890 C   0  0  0  0  0  0  0  0  0  0  0  0
  188.8700  176.9060  141.3370 N   0  0  0  0  0  0  0  0  0  0  0  0
  189.8980  177.1850  144.8680 C   0  0  0  0  0  3  0  0  0  0  0  0
  189.5440  176.6840  142.5380 C   0  0  0  0  0  0  0  0  0  0  0  0
  189.8230  176.9470  140.3070 C   0  0  0  0  0  0  0  0  0  0  0  0
  185.6520  178.9460  138.3360 C   0  0  0  0  0  3  0  0  0  0  0  0
  187.6370  177.6040  141.2600 C   0  0  0  0  0  0  0  0  0  0  0  0
  187.8220  178.3210  137.5850 C   0  0  0  0  0  3  0  0  0  0  0  0
  188.1760  177.9080  138.8700 C   0  0  0  0  0  0  0  0  0  0  0  0
  190.9860  176.3480  142.3290 C   0  0  2  0  0  3  0  0  0  0  0  0
  189.5160  177.4290  139.1360 N   0  0  0  0  0  0  0  0  0  0  0  0
  191.8540  177.1440  143.3230 C   0  0  0  0  0  2  0  0  0  0  0  0
  187.0230  177.9360  142.4070 C   0  0  0  0  0  3  0  0  0  0  0  0
  187.6470  177.6020  143.6760 N   0  0  0  0  0  0  0  0  0  0  0  0
  187.2230  178.0320  139.9140 C   0  0  0  0  0  0  0  0  0  0  0  0
  191.2130  176.6460  140.8060 C   0  0  2  0  0  3  0  0  0  0  0  0
  191.2320  177.1640  144.7050 C   0  0  0  0  0  3  0  0  0  0  0  0
  186.5790  178.8210  137.3460 N   0  0  0  0  0  0  0  0  0  0  0  0
  185.9570  178.5560  139.6420 C   0  0  0  0  0  3  0  0  0  0  0  0
  184.9620  178.6000  146.1100 C   0  0  0  0  0  0  0  0  0  0  0  0
  183.6450  178.9190  146.1380 F   0  0  0  0  0  0  0  0  0  0  0  0
  186.9680  177.9460  144.8920 C   0  0  0  0  0  0  0  0  0  0  0  0
  185.6890  178.6040  147.3030 C   0  0  0  0  0  3  0  0  0  0  0  0
  187.6850  177.9650  146.0970 C   0  0  0  0  0  3  0  0  0  0  0  0
  185.5950  178.2790  144.8990 C   0  0  0  0  0  0  0  0  0  0  0  0
  184.8110  178.3410  143.6280 C   0  0  0  0  0  1  0  0  0  0  0  0
  187.0500  178.2950  147.2960 C   0  0  0  0  0  0  0  0  0  0  0  0
  189.1230  177.8540  148.3320 O   0  0  0  0  0  1  0  0  0  0  0  0
  187.8170  178.2820  148.5710 C   0  0  0  0  0  2  0  0  0  0  0  0
  192.0690  177.8090  140.6090 N   0  0  0  0  0  2  0  0  0  0  0  0
  193.2960  177.3360  139.9920 C   0  0  0  0  0  2  0  0  0  0  0  0
  192.9720  176.6710  138.6710 C   0  0  0  0  0  1  0  0  0  0  0  0
  1  3  1  0  0  0  0
  2  4  1  0  0  0  0
  4  1  2  0  0  0  0
  5 16  1  0  0  0  0
  5  2  1  0  0  0  0
  6 19  1  0  0  0  0
  7  2  1  0  0  0  0
  7 13  2  0  0  0  0
  8  9  2  0  0  0  0
  9 11  1  0  0  0  0
  9 15  1  0  0  0  0
 10  4  1  0  0  0  0
 10 12  1  1  0  0  0
 11  5  2  0  0  0  0
 12 17  1  0  0  0  0
 13 14  1  0  0  0  0
 14  1  1  0  0  0  0
 14 22  1  0  0  0  0
 15  7  1  0  0  0  0
 16 30  1  1  0  0  0
 16 10  1  0  0  0  0
 17  3  2  0  0  0  0
 18  8  1  0  0  0  0
 18  6  2  0  0  0  0
 19 15  2  0  0  0  0
 20 21  1  0  0  0  0
 20 23  1  0  0  0  0
 22 25  1  0  0  0  0
 22 24  2  0  0  0  0
 24 27  1  0  0  0  0
 25 20  2  0  0  0  0
 26 25  1  0  0  0  0
 27 23  2  0  0  0  0
 27 29  1  0  0  0  0
 28 29  1  0  0  0  0
 31 30  1  0  0  0  0
 32 31  1  0  0  0  0
M  END
>  <MODEL>
8

>  <REMARK>
 VINA RESULT:      -8.9      2.206      5.161
  Name = 
  4 active torsions:
  status: ('A' for Active; 'I' for Inactive)
    1  A    between atoms: C_13  and  N_18
    2  A    between atoms: C_15  and  C_26
    3  A    between atoms: C_16  and  N_27
    4  A    between atoms: N_18  and  C_29
                            x       y       z     vdW  Elec       q    Type
                         _______ _______ _______ _____ _____    ______ ____

>  <TORSDO>
F 4

$$$$
=
 OpenBabel10272413113D

 32 37  0  0  1  0  0  0  0  0999 V2000
  185.3540  178.2610  139.1300 C   0  0  0  0  0  0  0  0  0  0  0  0
  186.8440  178.5720  140.9370 N   0  0  0  0  0  0  0  0  0  0  0  0
  185.1910  177.8050  137.7310 C   0  0  0  0  0  3  0  0  0  0  0  0
  186.5910  178.4930  139.5680 C   0  0  0  0  0  0  0  0  0  0  0  0
  188.1920  178.2370  141.1470 C   0  0  0  0  0  0  0  0  0  0  0  0
  186.0240  177.9300  145.6740 C   0  0  0  0  0  3  0  0  0  0  0  0
  185.8460  178.3620  141.9220 C   0  0  0  0  0  0  0  0  0  0  0  0
  188.2180  177.7740  144.7640 C   0  0  0  0  0  3  0  0  0  0  0  0
  187.7270  177.9820  143.4760 C   0  0  0  0  0  0  0  0  0  0  0  0
  187.8390  178.3030  138.7660 C   0  0  2  0  0  3  0  0  0  0  0  0
  188.6250  177.9440  142.3400 N   0  0  0  0  0  0  0  0  0  0  0  0
  187.6110  177.2120  137.7020 C   0  0  0  0  0  2  0  0  0  0  0  0
  184.5740  178.2230  141.5160 C   0  0  0  0  0  3  0  0  0  0  0  0
  184.2670  178.2630  140.0970 N   0  0  0  0  0  0  0  0  0  0  0  0
  186.3310  178.1630  143.2980 C   0  0  0  0  0  0  0  0  0  0  0  0
  188.9290  178.0060  139.8530 C   0  0  2  0  0  3  0  0  0  0  0  0
  186.2550  177.3580  137.0430 C   0  0  0  0  0  3  0  0  0  0  0  0
  187.3670  177.7580  145.8260 N   0  0  0  0  0  0  0  0  0  0  0  0
  185.4790  178.1330  144.4040 C   0  0  0  0  0  3  0  0  0  0  0  0
  180.8740  179.0380  138.6750 C   0  0  0  0  0  0  0  0  0  0  0  0
  180.1950  180.0570  138.0910 F   0  0  0  0  0  0  0  0  0  0  0  0
  182.8990  178.1330  139.6820 C   0  0  0  0  0  0  0  0  0  0  0  0
  180.2270  177.8180  138.8810 C   0  0  0  0  0  3  0  0  0  0  0  0
  182.2310  176.9180  139.8900 C   0  0  0  0  0  3  0  0  0  0  0  0
  182.2080  179.2080  139.0780 C   0  0  0  0  0  0  0  0  0  0  0  0
  182.8600  180.5400  138.9020 C   0  0  0  0  0  1  0  0  0  0  0  0
  180.9010  176.7610  139.4960 C   0  0  0  0  0  0  0  0  0  0  0  0
  180.6460  174.5440  138.7340 O   0  0  0  0  0  1  0  0  0  0  0  0
  180.2140  175.4570  139.6960 C   0  0  0  0  0  2  0  0  0  0  0  0
  189.3870  176.6230  139.7890 N   0  0  0  0  0  2  0  0  0  0  0  0
  190.7670  176.6520  139.3370 C   0  0  0  0  0  2  0  0  0  0  0  0
  191.6150  177.3840  140.3550 C   0  0  0  0  0  1  0  0  0  0  0  0
  1  4  2  0  0  0  0
  1 14  1  0  0  0  0
  2  5  1  0  0  0  0
  2  7  1  0  0  0  0
  3  1  1  0  0  0  0
  4  2  1  0  0  0  0
  5 11  2  0  0  0  0
  6 18  1  0  0  0  0
  7 15  1  0  0  0  0
  8 18  2  0  0  0  0
  9  8  1  0  0  0  0
 10 12  1  6  0  0  0
 10  4  1  0  0  0  0
 10 16  1  0  0  0  0
 11  9  1  0  0  0  0
 13  7  2  0  0  0  0
 14 13  1  0  0  0  0
 15  9  2  0  0  0  0
 15 19  1  0  0  0  0
 16 30  1  1  0  0  0
 16  5  1  0  0  0  0
 17 12  1  0  0  0  0
 17  3  2  0  0  0  0
 19  6  2  0  0  0  0
 20 23  2  0  0  0  0
 20 25  1  0  0  0  0
 21 20  1  0  0  0  0
 22 24  1  0  0  0  0
 22 14  1  0  0  0  0
 23 27  1  0  0  0  0
 25 22  2  0  0  0  0
 26 25  1  0  0  0  0
 27 29  1  0  0  0  0
 27 24  2  0  0  0  0
 28 29  1  0  0  0  0
 31 30  1  0  0  0  0
 31 32  1  0  0  0  0
M  END
>  <MODEL>
9

>  <REMARK>
 VINA RESULT:      -8.7      3.424      7.094
  Name = 
  4 active torsions:
  status: ('A' for Active; 'I' for Inactive)
    1  A    between atoms: C_13  and  N_18
    2  A    between atoms: C_15  and  C_26
    3  A    between atoms: C_16  and  N_27
    4  A    between atoms: N_18  and  C_29
                            x       y       z     vdW  Elec       q    Type
                         _______ _______ _______ _____ _____    ______ ____

>  <TORSDO>
F 4

$$$$
