=
 OpenBabel10272401403D

 55 60  0  0  1  0  0  0  0  0999 V2000
  188.2400  178.7750  139.4550 C   0  0  0  0  0  3  0  0  0  0  0  0
  190.4490  177.1710  138.9600 C   0  0  0  0  0  0  0  0  0  0  0  0
  189.9150  177.2280  140.2500 C   0  0  0  0  0  3  0  0  0  0  0  0
  188.8040  178.6960  138.1800 C   0  0  0  0  0  3  0  0  0  0  0  0
  188.7990  178.0400  140.5010 C   0  0  0  0  0  0  0  0  0  0  0  0
  189.8910  177.9080  137.9610 N   0  0  0  0  0  0  0  0  0  0  0  0
  191.6430  176.3290  138.6820 C   0  0  0  0  0  2  0  0  0  0  0  0
  191.5830  175.7910  137.2650 C   0  0  0  0  0  2  0  0  0  0  0  0
  189.8790  174.9720  135.8910 C   0  0  1  0  0  3  0  0  0  0  0  0
  190.5570  174.7660  137.1780 N   0  0  0  0  0  0  0  0  0  0  0  0
  190.8930  173.9330  136.0150 C   0  0  0  0  0  2  0  0  0  0  0  0
  188.4950  174.3400  135.9420 C   0  0  0  0  0  2  0  0  0  0  0  0
  187.3260  175.6200  137.5860 O   0  0  0  0  0  1  0  0  0  0  0  0
  187.3700  175.3490  136.2140 C   0  0  0  0  0  0  0  0  0  0  0  0
  187.6820  176.5390  135.5510 O   0  0  0  0  0  1  0  0  0  0  0  0
  185.0170  173.2490  137.1240 C   0  0  2  0  0  0  0  0  0  0  0  0
  185.9690  174.8390  135.7460 C   0  0  1  0  0  0  0  0  0  0  0  0
  185.0460  176.8200  137.1830 C   0  0  0  0  0  1  0  0  0  0  0  0
  184.7220  175.5480  136.3910 C   0  0  2  0  0  0  0  0  0  0  0  0
  185.7390  172.9280  138.2600 F   0  0  0  0  0  0  0  0  0  0  0  0
  184.2810  174.5080  137.3290 C   0  0  0  0  0  0  0  0  0  0  0  0
  184.0590  172.1190  136.7940 C   0  0  0  0  0  1  0  0  0  0  0  0
  185.9200  174.9630  134.3640 F   0  0  0  0  0  0  0  0  0  0  0  0
  183.4020  174.6580  138.1670 O   0  0  0  0  0  0  0  0  0  0  0  0
  185.8970  173.4470  136.0390 O   0  0  0  0  0  0  0  0  0  0  0  0
  182.7730  174.9350  135.1630 O   0  0  0  0  0  0  0  0  0  0  0  0
  183.6080  175.8030  135.3780 C   0  0  0  0  0  0  0  0  0  0  0  0
  183.4790  177.1140  134.6570 C   0  0  0  0  0  2  0  0  0  0  0  0
  182.1530  177.7700  134.9810 C   0  0  0  0  0  1  0  0  0  0  0  0
  188.2310  178.1300  141.7740 O   0  0  0  0  0  0  0  0  0  0  0  0
  187.7920  176.9890  142.5000 C   0  0  0  0  0  2  0  0  0  0  0  0
  189.5820  177.0720  147.2170 C   0  0  0  0  0  2  0  0  0  0  0  0
  184.9210  177.5540  142.4320 C   0  0  0  0  0  2  0  0  0  0  0  0
  188.1200  178.0000  149.0010 C   0  0  0  0  0  2  0  0  0  0  0  0
  187.3780  178.1700  146.5990 C   0  0  0  0  0  0  0  0  0  0  0  0
  187.2290  178.7200  147.9930 C   0  0  0  0  0  2  0  0  0  0  0  0
  189.5440  177.9450  148.4680 C   0  0  0  0  0  2  0  0  0  0  0  0
  188.5340  177.4660  146.2020 C   0  0  0  0  0  0  0  0  0  0  0  0
  186.4840  178.0570  144.3900 C   0  0  0  0  0  0  0  0  0  0  0  0
  184.5350  179.5350  143.7600 C   0  0  0  0  0  2  0  0  0  0  0  0
  186.4140  178.4540  145.6890 N   0  0  0  0  0  0  0  0  0  0  0  0
  183.3710  179.4060  142.7940 C   0  0  1  0  0  3  0  0  0  0  0  0
  188.6510  177.0510  144.8630 C   0  0  0  0  0  0  0  0  0  0  0  0
  183.7310  178.2760  141.8330 C   0  0  0  0  0  2  0  0  0  0  0  0
  187.6220  177.3480  143.9450 C   0  0  0  0  0  0  0  0  0  0  0  0
  185.4030  178.4030  143.5040 N   0  0  0  0  0  0  0  0  0  0  0  0
  182.1130  179.0560  143.5750 C   0  0  0  0  0  2  0  0  0  0  0  0
  180.8890  179.3220  142.7640 C   0  0  0  0  0  0  0  0  0  0  0  0
  180.2970  180.4660  142.8490 N   0  0  0  0  0  1  0  0  0  0  0  0
  180.4730  178.3820  141.7820 N   0  0  0  0  0  2  0  0  0  0  0  0
  189.8830  176.3150  144.4110 C   0  0  0  0  0  2  0  0  0  0  0  0
  191.8360  176.2510  145.7700 O   0  0  0  0  0  0  0  0  0  0  0  0
  191.1100  176.9290  144.9950 C   0  0  0  0  0  0  0  0  0  0  0  0
  191.4480  178.2420  144.6630 O   0  0  0  0  0  0  0  0  0  0  0  0
  191.0790  178.8170  143.4190 C   0  0  0  0  0  1  0  0  0  0  0  0
  1  5  1  0  0  0  0
  2  3  1  0  0  0  0
  3  5  2  0  0  0  0
  4  1  2  0  0  0  0
  5 30  1  0  0  0  0
  6  4  1  0  0  0  0
  6  2  2  0  0  0  0
  7  2  1  0  0  0  0
  8  7  1  0  0  0  0
  9 12  1  1  0  0  0
  9 11  1  0  0  0  0
  9 10  1  0  0  0  0
 10  8  1  0  0  0  0
 11 10  1  0  0  0  0
 12 14  1  0  0  0  0
 14 13  1  0  0  0  0
 15 14  1  0  0  0  0
 16 22  1  6  0  0  0
 16 21  1  0  0  0  0
 16 20  1  0  0  0  0
 17 23  1  6  0  0  0
 17 25  1  0  0  0  0
 17 14  1  0  0  0  0
 17 19  1  0  0  0  0
 19 18  1  1  0  0  0
 19 21  1  0  0  0  0
 21 24  2  0  0  0  0
 25 16  1  0  0  0  0
 26 27  2  0  0  0  0
 27 19  1  0  0  0  0
 28 29  1  0  0  0  0
 28 27  1  0  0  0  0
 30 31  1  0  0  0  0
 31 45  1  0  0  0  0
 32 37  1  0  0  0  0
 33 46  1  0  0  0  0
 35 36  1  0  0  0  0
 36 34  1  0  0  0  0
 37 34  1  0  0  0  0
 38 35  1  0  0  0  0
 38 32  1  0  0  0  0
 39 41  1  0  0  0  0
 41 35  2  0  0  0  0
 42 47  1  1  0  0  0
 42 40  1  0  0  0  0
 43 38  2  0  0  0  0
 44 33  1  0  0  0  0
 44 42  1  0  0  0  0
 45 39  2  0  0  0  0
 45 43  1  0  0  0  0
 46 40  1  0  0  0  0
 46 39  1  0  0  0  0
 48 49  1  0  0  0  0
 48 47  1  0  0  0  0
 50 48  2  0  0  0  0
 51 43  1  0  0  0  0
 51 53  1  0  0  0  0
 53 52  2  0  0  0  0
 54 53  1  0  0  0  0
 55 54  1  0  0  0  0
M  END
>  <MODEL>
1

>  <REMARK>
 VINA RESULT:      -8.3      0.000      0.000
  Name = 
  16 active torsions:
  status: ('A' for Active; 'I' for Inactive)
    1  A    between atoms: O_2  and  C_28
    2  A    between atoms: O_2  and  C_44
    3  A    between atoms: O_4  and  C_40
    4  A    between atoms: C_6  and  C_20
    5  A    between atoms: C_8  and  C_22
    6  A    between atoms: C_10  and  C_32
    7  A    between atoms: C_11  and  C_38
    8  A    between atoms: C_14  and  C_38
    9  A    between atoms: C_19  and  C_40
   10  A    between atoms: C_19  and  C_45
   11  A    between atoms: C_20  and  C_22
   12  A    between atoms: C_27  and  C_54
   13  A    between atoms: C_28  and  C_49
   14  A    between atoms: C_32  and  C_39
   15  A    between atoms: N_35  and  C_51
   16  A    between atoms: C_51  and  C_54
                            x       y       z     vdW  Elec       q    Type
                         _______ _______ _______ _____ _____    ______ ____

>  <TORSDO>
F 16

$$$$
=
 OpenBabel10272401403D

 55 60  0  0  1  0  0  0  0  0999 V2000
  188.8060  178.8150  138.6000 C   0  0  0  0  0  3  0  0  0  0  0  0
  188.6960  176.5370  137.0210 C   0  0  0  0  0  0  0  0  0  0  0  0
  188.4330  176.4390  138.3890 C   0  0  0  0  0  3  0  0  0  0  0  0
  189.0680  178.8740  137.2290 C   0  0  0  0  0  3  0  0  0  0  0  0
  188.4890  177.5900  139.1890 C   0  0  0  0  0  0  0  0  0  0  0  0
  189.0150  177.7430  136.4750 N   0  0  0  0  0  0  0  0  0  0  0  0
  188.6580  175.3230  136.1630 C   0  0  0  0  0  2  0  0  0  0  0  0
  189.7550  175.3870  135.1180 C   0  0  0  0  0  2  0  0  0  0  0  0
  191.6630  174.7930  136.3330 C   0  0  1  0  0  3  0  0  0  0  0  0
  190.6980  174.3030  135.3380 N   0  0  0  0  0  0  0  0  0  0  0  0
  190.5740  173.9180  136.7510 C   0  0  0  0  0  2  0  0  0  0  0  0
  192.9500  173.9870  136.2270 C   0  0  0  0  0  2  0  0  0  0  0  0
  194.0280  175.4440  134.6710 O   0  0  0  0  0  1  0  0  0  0  0  0
  194.1870  174.8450  135.9250 C   0  0  0  0  0  0  0  0  0  0  0  0
  194.2560  175.8620  136.8810 O   0  0  0  0  0  1  0  0  0  0  0  0
  197.4320  175.2910  135.7240 C   0  0  2  0  0  0  0  0  0  0  0  0
  195.5150  174.0220  135.9370 C   0  0  1  0  0  0  0  0  0  0  0  0
  195.4170  174.3740  138.5270 C   0  0  0  0  0  1  0  0  0  0  0  0
  196.2440  173.9010  137.3260 C   0  0  2  0  0  0  0  0  0  0  0  0
  197.2430  176.6610  135.6580 F   0  0  0  0  0  0  0  0  0  0  0  0
  197.3590  174.8350  137.1230 C   0  0  0  0  0  0  0  0  0  0  0  0
  198.7780  174.9340  135.1180 C   0  0  0  0  0  1  0  0  0  0  0  0
  195.2260  172.7570  135.4440 F   0  0  0  0  0  0  0  0  0  0  0  0
  198.1400  175.1820  137.9980 O   0  0  0  0  0  0  0  0  0  0  0  0
  196.4090  174.6320  135.0120 O   0  0  0  0  0  0  0  0  0  0  0  0
  196.1930  171.7110  138.2670 O   0  0  0  0  0  0  0  0  0  0  0  0
  196.8100  172.5040  137.5670 C   0  0  0  0  0  0  0  0  0  0  0  0
  198.0960  172.0520  136.9370 C   0  0  0  0  0  2  0  0  0  0  0  0
  197.9350  170.6720  136.3320 C   0  0  0  0  0  1  0  0  0  0  0  0
  188.2350  177.5420  140.5610 O   0  0  0  0  0  0  0  0  0  0  0  0
  188.2180  178.7050  141.3790 C   0  0  0  0  0  2  0  0  0  0  0  0
  190.0190  177.1670  145.8340 C   0  0  0  0  0  2  0  0  0  0  0  0
  185.3110  178.3980  141.2330 C   0  0  0  0  0  2  0  0  0  0  0  0
  188.3900  176.7370  147.6620 C   0  0  0  0  0  2  0  0  0  0  0  0
  187.5700  177.7470  145.5060 C   0  0  0  0  0  0  0  0  0  0  0  0
  187.2960  177.5450  146.9720 C   0  0  0  0  0  2  0  0  0  0  0  0
  189.7480  177.3340  147.3260 C   0  0  0  0  0  2  0  0  0  0  0  0
  188.8740  177.6580  144.9780 C   0  0  0  0  0  0  0  0  0  0  0  0
  186.6950  178.3900  143.3800 C   0  0  0  0  0  0  0  0  0  0  0  0
  184.3730  179.3700  143.2360 C   0  0  0  0  0  2  0  0  0  0  0  0
  186.5420  178.1230  144.7050 N   0  0  0  0  0  0  0  0  0  0  0  0
  183.2790  179.3640  142.1830 C   0  0  1  0  0  3  0  0  0  0  0  0
  189.0780  177.9410  143.6150 C   0  0  0  0  0  0  0  0  0  0  0  0
  183.9420  178.9400  140.8750 C   0  0  0  0  0  2  0  0  0  0  0  0
  187.9840  178.3120  142.8050 C   0  0  0  0  0  0  0  0  0  0  0  0
  185.5370  178.7730  142.6150 N   0  0  0  0  0  0  0  0  0  0  0  0
  182.2090  178.3590  142.5840 C   0  0  0  0  0  2  0  0  0  0  0  0
  180.8430  178.9260  142.3860 C   0  0  0  0  0  0  0  0  0  0  0  0
  179.9850  178.2990  141.6540 N   0  0  0  0  0  2  0  0  0  0  0  0
  180.4350  180.0660  143.1320 N   0  0  0  0  0  1  0  0  0  0  0  0
  190.4640  177.8700  143.0330 C   0  0  0  0  0  2  0  0  0  0  0  0
  190.3620  175.4920  143.0110 O   0  0  0  0  0  0  0  0  0  0  0  0
  190.7070  176.5410  142.4040 C   0  0  0  0  0  0  0  0  0  0  0  0
  191.2990  176.4740  141.1420 O   0  0  0  0  0  0  0  0  0  0  0  0
  192.0830  177.5400  140.6270 C   0  0  0  0  0  1  0  0  0  0  0  0
  1  5  1  0  0  0  0
  2  3  1  0  0  0  0
  3  5  2  0  0  0  0
  4  1  2  0  0  0  0
  5 30  1  0  0  0  0
  6  2  2  0  0  0  0
  6  4  1  0  0  0  0
  7  2  1  0  0  0  0
  8 10  1  0  0  0  0
  8  7  1  0  0  0  0
  9 12  1  6  0  0  0
  9 11  1  0  0  0  0
 10  9  1  0  0  0  0
 10 11  1  0  0  0  0
 13 14  1  0  0  0  0
 14 17  1  0  0  0  0
 14 12  1  0  0  0  0
 14 15  1  0  0  0  0
 16 22  1  6  0  0  0
 16 21  1  0  0  0  0
 17 23  1  6  0  0  0
 17 19  1  0  0  0  0
 19 27  1  0  0  0  0
 19 18  1  1  0  0  0
 20 16  1  0  0  0  0
 21 19  1  0  0  0  0
 21 24  2  0  0  0  0
 25 16  1  0  0  0  0
 25 17  1  0  0  0  0
 27 26  2  0  0  0  0
 28 27  1  0  0  0  0
 29 28  1  0  0  0  0
 30 31  1  0  0  0  0
 31 45  1  0  0  0  0
 32 37  1  0  0  0  0
 33 46  1  0  0  0  0
 35 36  1  0  0  0  0
 36 34  1  0  0  0  0
 37 34  1  0  0  0  0
 38 35  1  0  0  0  0
 38 32  1  0  0  0  0
 39 41  1  0  0  0  0
 41 35  2  0  0  0  0
 42 47  1  1  0  0  0
 42 40  1  0  0  0  0
 43 38  2  0  0  0  0
 44 33  1  0  0  0  0
 44 42  1  0  0  0  0
 45 39  2  0  0  0  0
 45 43  1  0  0  0  0
 46 40  1  0  0  0  0
 46 39  1  0  0  0  0
 48 47  1  0  0  0  0
 48 50  1  0  0  0  0
 49 48  2  0  0  0  0
 51 43  1  0  0  0  0
 53 52  2  0  0  0  0
 53 51  1  0  0  0  0
 54 53  1  0  0  0  0
 55 54  1  0  0  0  0
M  END
>  <MODEL>
2

>  <REMARK>
 VINA RESULT:      -7.8      4.320      7.039
  Name = 
  16 active torsions:
  status: ('A' for Active; 'I' for Inactive)
    1  A    between atoms: O_2  and  C_28
    2  A    between atoms: O_2  and  C_44
    3  A    between atoms: O_4  and  C_40
    4  A    between atoms: C_6  and  C_20
    5  A    between atoms: C_8  and  C_22
    6  A    between atoms: C_10  and  C_32
    7  A    between atoms: C_11  and  C_38
    8  A    between atoms: C_14  and  C_38
    9  A    between atoms: C_19  and  C_40
   10  A    between atoms: C_19  and  C_45
   11  A    between atoms: C_20  and  C_22
   12  A    between atoms: C_27  and  C_54
   13  A    between atoms: C_28  and  C_49
   14  A    between atoms: C_32  and  C_39
   15  A    between atoms: N_35  and  C_51
   16  A    between atoms: C_51  and  C_54
                            x       y       z     vdW  Elec       q    Type
                         _______ _______ _______ _____ _____    ______ ____

>  <TORSDO>
F 16

$$$$
=
 OpenBabel10272401403D

 55 60  0  0  1  0  0  0  0  0999 V2000
  188.5680  178.8010  139.3770 C   0  0  0  0  0  3  0  0  0  0  0  0
  190.5920  176.9430  138.9910 C   0  0  0  0  0  0  0  0  0  0  0  0
  190.0100  177.0730  140.2540 C   0  0  0  0  0  3  0  0  0  0  0  0
  189.1780  178.6460  138.1300 C   0  0  0  0  0  3  0  0  0  0  0  0
  188.9870  178.0130  140.4510 C   0  0  0  0  0  0  0  0  0  0  0  0
  190.1730  177.7330  137.9650 N   0  0  0  0  0  0  0  0  0  0  0  0
  191.6900  175.9640  138.7720 C   0  0  0  0  0  2  0  0  0  0  0  0
  191.9910  175.8410  137.2900 C   0  0  0  0  0  2  0  0  0  0  0  0
  193.9560  174.9190  136.4230 C   0  0  1  0  0  3  0  0  0  0  0  0
  193.3960  176.1230  137.0550 N   0  0  0  0  0  0  0  0  0  0  0  0
  193.5990  176.0680  135.6000 C   0  0  0  0  0  2  0  0  0  0  0  0
  195.4640  174.8940  136.6320 C   0  0  0  0  0  2  0  0  0  0  0  0
  196.9460  173.9580  138.2550 O   0  0  0  0  0  1  0  0  0  0  0  0
  195.9670  173.6140  137.3170 C   0  0  0  0  0  0  0  0  0  0  0  0
  194.8960  173.0390  138.0050 O   0  0  0  0  0  1  0  0  0  0  0  0
  198.7520  171.9810  136.7270 C   0  0  2  0  0  0  0  0  0  0  0  0
  196.5610  172.5790  136.3090 C   0  0  1  0  0  0  0  0  0  0  0  0
  195.6220  170.7950  137.9770 C   0  0  0  0  0  1  0  0  0  0  0  0
  196.4980  171.0690  136.7480 C   0  0  2  0  0  0  0  0  0  0  0  0
  199.3250  172.5460  137.8520 F   0  0  0  0  0  0  0  0  0  0  0  0
  197.9030  170.8390  137.1080 C   0  0  0  0  0  0  0  0  0  0  0  0
  199.8420  171.5360  135.7690 C   0  0  0  0  0  1  0  0  0  0  0  0
  195.8990  172.7460  135.1000 F   0  0  0  0  0  0  0  0  0  0  0  0
  198.3230  169.8230  137.6440 O   0  0  0  0  0  0  0  0  0  0  0  0
  197.9230  172.9260  136.0860 O   0  0  0  0  0  0  0  0  0  0  0  0
  197.0100  169.5890  134.9520 O   0  0  0  0  0  0  0  0  0  0  0  0
  196.1270  170.1410  135.5940 C   0  0  0  0  0  0  0  0  0  0  0  0
  194.6970  169.8510  135.2410 C   0  0  0  0  0  2  0  0  0  0  0  0
  194.3190  168.4460  135.6660 C   0  0  0  0  0  1  0  0  0  0  0  0
  188.3750  178.1800  141.6950 O   0  0  0  0  0  0  0  0  0  0  0  0
  187.5850  177.1660  142.3020 C   0  0  0  0  0  2  0  0  0  0  0  0
  189.5040  177.0040  146.9660 C   0  0  0  0  0  2  0  0  0  0  0  0
  184.7100  177.7120  142.3440 C   0  0  0  0  0  2  0  0  0  0  0  0
  188.0860  177.8210  148.8380 C   0  0  0  0  0  2  0  0  0  0  0  0
  187.2770  178.1170  146.4710 C   0  0  0  0  0  0  0  0  0  0  0  0
  187.1630  178.5880  147.8960 C   0  0  0  0  0  2  0  0  0  0  0  0
  189.4950  177.8060  148.2640 C   0  0  0  0  0  2  0  0  0  0  0  0
  188.4250  177.4450  146.0040 C   0  0  0  0  0  0  0  0  0  0  0  0
  186.3220  178.1190  144.2830 C   0  0  0  0  0  0  0  0  0  0  0  0
  184.3480  179.6140  143.7900 C   0  0  0  0  0  2  0  0  0  0  0  0
  186.2870  178.4430  145.6040 N   0  0  0  0  0  0  0  0  0  0  0  0
  183.1590  179.5290  142.8500 C   0  0  1  0  0  3  0  0  0  0  0  0
  188.5080  177.1050  144.6410 C   0  0  0  0  0  0  0  0  0  0  0  0
  183.4990  178.4570  141.8190 C   0  0  0  0  0  2  0  0  0  0  0  0
  187.4520  177.4440  143.7690 C   0  0  0  0  0  0  0  0  0  0  0  0
  185.2150  178.5050  143.4480 N   0  0  0  0  0  0  0  0  0  0  0  0
  181.9250  179.1270  143.6450 C   0  0  0  0  0  2  0  0  0  0  0  0
  180.6820  179.3390  142.8460 C   0  0  0  0  0  0  0  0  0  0  0  0
  180.1290  180.5050  142.8140 N   0  0  0  0  0  1  0  0  0  0  0  0
  180.2040  178.3060  141.9940 N   0  0  0  0  0  2  0  0  0  0  0  0
  189.7320  176.4040  144.1160 C   0  0  0  0  0  2  0  0  0  0  0  0
  191.9210  176.9680  144.8600 O   0  0  0  0  0  0  0  0  0  0  0  0
  190.9210  177.3030  144.1710 C   0  0  0  0  0  0  0  0  0  0  0  0
  190.9170  178.4960  143.4470 O   0  0  0  0  0  0  0  0  0  0  0  0
  190.9830  179.7600  144.0900 C   0  0  0  0  0  1  0  0  0  0  0  0
  1  5  1  0  0  0  0
  2  3  1  0  0  0  0
  3  5  2  0  0  0  0
  4  1  2  0  0  0  0
  5 30  1  0  0  0  0
  6  4  1  0  0  0  0
  6  2  2  0  0  0  0
  7  2  1  0  0  0  0
  8  7  1  0  0  0  0
  9 12  1  1  0  0  0
  9 10  1  0  0  0  0
 10  8  1  0  0  0  0
 11  9  1  0  0  0  0
 11 10  1  0  0  0  0
 12 14  1  0  0  0  0
 14 15  1  0  0  0  0
 14 13  1  0  0  0  0
 16 22  1  6  0  0  0
 16 21  1  0  0  0  0
 16 20  1  0  0  0  0
 17 23  1  6  0  0  0
 17 19  1  0  0  0  0
 17 14  1  0  0  0  0
 19 21  1  0  0  0  0
 19 18  1  1  0  0  0
 21 24  2  0  0  0  0
 25 17  1  0  0  0  0
 25 16  1  0  0  0  0
 26 27  2  0  0  0  0
 27 19  1  0  0  0  0
 28 27  1  0  0  0  0
 28 29  1  0  0  0  0
 30 31  1  0  0  0  0
 31 45  1  0  0  0  0
 32 37  1  0  0  0  0
 33 46  1  0  0  0  0
 35 36  1  0  0  0  0
 36 34  1  0  0  0  0
 37 34  1  0  0  0  0
 38 35  1  0  0  0  0
 38 32  1  0  0  0  0
 39 41  1  0  0  0  0
 41 35  2  0  0  0  0
 42 47  1  1  0  0  0
 42 40  1  0  0  0  0
 43 38  2  0  0  0  0
 44 33  1  0  0  0  0
 44 42  1  0  0  0  0
 45 39  2  0  0  0  0
 45 43  1  0  0  0  0
 46 40  1  0  0  0  0
 46 39  1  0  0  0  0
 48 47  1  0  0  0  0
 49 48  1  0  0  0  0
 50 48  2  0  0  0  0
 51 53  1  0  0  0  0
 51 43  1  0  0  0  0
 53 52  2  0  0  0  0
 54 55  1  0  0  0  0
 54 53  1  0  0  0  0
M  END
>  <MODEL>
3

>  <REMARK>
 VINA RESULT:      -7.7      4.963      7.287
  Name = 
  16 active torsions:
  status: ('A' for Active; 'I' for Inactive)
    1  A    between atoms: O_2  and  C_28
    2  A    between atoms: O_2  and  C_44
    3  A    between atoms: O_4  and  C_40
    4  A    between atoms: C_6  and  C_20
    5  A    between atoms: C_8  and  C_22
    6  A    between atoms: C_10  and  C_32
    7  A    between atoms: C_11  and  C_38
    8  A    between atoms: C_14  and  C_38
    9  A    between atoms: C_19  and  C_40
   10  A    between atoms: C_19  and  C_45
   11  A    between atoms: C_20  and  C_22
   12  A    between atoms: C_27  and  C_54
   13  A    between atoms: C_28  and  C_49
   14  A    between atoms: C_32  and  C_39
   15  A    between atoms: N_35  and  C_51
   16  A    between atoms: C_51  and  C_54
                            x       y       z     vdW  Elec       q    Type
                         _______ _______ _______ _____ _____    ______ ____

>  <TORSDO>
F 16

$$$$
=
 OpenBabel10272401403D

 55 60  0  0  1  0  0  0  0  0999 V2000
  188.6590  179.2560  139.3040 C   0  0  0  0  0  3  0  0  0  0  0  0
  189.3880  176.8290  138.1730 C   0  0  0  0  0  0  0  0  0  0  0  0
  188.9300  176.8640  139.4930 C   0  0  0  0  0  3  0  0  0  0  0  0
  189.1260  179.1830  137.9890 C   0  0  0  0  0  3  0  0  0  0  0  0
  188.5630  178.0900  140.0660 C   0  0  0  0  0  0  0  0  0  0  0  0
  189.4830  177.9830  137.4570 N   0  0  0  0  0  0  0  0  0  0  0  0
  189.7980  175.5390  137.5570 C   0  0  0  0  0  2  0  0  0  0  0  0
  190.1210  175.7410  136.0890 C   0  0  0  0  0  2  0  0  0  0  0  0
  192.1290  174.5730  135.8220 C   0  0  1  0  0  3  0  0  0  0  0  0
  191.5530  175.9220  135.9280 N   0  0  0  0  0  0  0  0  0  0  0  0
  191.9030  175.3600  134.6160 C   0  0  0  0  0  2  0  0  0  0  0  0
  193.6040  174.6230  136.1920 C   0  0  0  0  0  2  0  0  0  0  0  0
  193.4960  172.2580  136.5110 O   0  0  0  0  0  1  0  0  0  0  0  0
  194.3240  173.2760  136.0260 C   0  0  0  0  0  0  0  0  0  0  0  0
  194.5220  173.0540  134.6610 O   0  0  0  0  0  1  0  0  0  0  0  0
  196.9780  171.3640  136.2910 C   0  0  2  0  0  0  0  0  0  0  0  0
  195.6950  173.2230  136.7710 C   0  0  1  0  0  0  0  0  0  0  0  0
  196.5920  174.5370  134.6940 C   0  0  0  0  0  1  0  0  0  0  0  0
  196.9370  173.7760  135.9800 C   0  0  2  0  0  0  0  0  0  0  0  0
  196.4490  170.4940  135.3540 F   0  0  0  0  0  0  0  0  0  0  0  0
  197.6020  172.5170  135.6190 C   0  0  0  0  0  0  0  0  0  0  0  0
  197.9960  170.6330  137.1470 C   0  0  0  0  0  1  0  0  0  0  0  0
  195.5490  173.9190  137.9640 F   0  0  0  0  0  0  0  0  0  0  0  0
  198.5640  172.4320  134.8670 O   0  0  0  0  0  0  0  0  0  0  0  0
  195.9480  171.8650  137.1140 O   0  0  0  0  0  0  0  0  0  0  0  0
  197.8490  175.8150  136.8110 O   0  0  0  0  0  0  0  0  0  0  0  0
  197.8770  174.5930  136.8640 C   0  0  0  0  0  0  0  0  0  0  0  0
  198.8180  173.9390  137.8340 C   0  0  0  0  0  2  0  0  0  0  0  0
  199.0900  174.8550  139.0090 C   0  0  0  0  0  1  0  0  0  0  0  0
  188.1010  178.1750  141.3810 O   0  0  0  0  0  0  0  0  0  0  0  0
  187.5070  177.0740  142.0570 C   0  0  0  0  0  2  0  0  0  0  0  0
  189.6070  176.9690  146.6430 C   0  0  0  0  0  2  0  0  0  0  0  0
  184.6340  177.6120  142.2050 C   0  0  0  0  0  2  0  0  0  0  0  0
  188.2610  177.8030  148.5600 C   0  0  0  0  0  2  0  0  0  0  0  0
  187.3590  178.0700  146.2230 C   0  0  0  0  0  0  0  0  0  0  0  0
  187.2990  178.5570  147.6460 C   0  0  0  0  0  2  0  0  0  0  0  0
  189.6460  177.7850  147.9320 C   0  0  0  0  0  2  0  0  0  0  0  0
  188.4900  177.3970  145.7190 C   0  0  0  0  0  0  0  0  0  0  0  0
  186.3200  178.0450  144.0750 C   0  0  0  0  0  0  0  0  0  0  0  0
  184.3220  179.5290  143.6430 C   0  0  0  0  0  2  0  0  0  0  0  0
  186.3340  178.3840  145.3920 N   0  0  0  0  0  0  0  0  0  0  0  0
  183.0980  179.4300  142.7510 C   0  0  1  0  0  3  0  0  0  0  0  0
  188.5210  177.0410  144.3580 C   0  0  0  0  0  0  0  0  0  0  0  0
  183.4010  178.3470  141.7190 C   0  0  0  0  0  2  0  0  0  0  0  0
  187.4310  177.3680  143.5240 C   0  0  0  0  0  0  0  0  0  0  0  0
  185.1790  178.4180  143.2790 N   0  0  0  0  0  0  0  0  0  0  0  0
  181.8970  179.0330  143.5980 C   0  0  0  0  0  2  0  0  0  0  0  0
  180.6210  179.2900  142.8680 C   0  0  0  0  0  0  0  0  0  0  0  0
  180.0240  178.3230  142.2550 N   0  0  0  0  0  2  0  0  0  0  0  0
  179.9820  180.5550  142.9830 N   0  0  0  0  0  1  0  0  0  0  0  0
  189.7260  176.3390  143.7930 C   0  0  0  0  0  2  0  0  0  0  0  0
  191.2640  176.9470  142.0820 O   0  0  0  0  0  0  0  0  0  0  0  0
  190.6310  177.3070  143.1100 C   0  0  0  0  0  0  0  0  0  0  0  0
  190.7540  178.6040  143.6090 O   0  0  0  0  0  0  0  0  0  0  0  0
  191.9760  179.0850  144.1500 C   0  0  0  0  0  1  0  0  0  0  0  0
  1  5  1  0  0  0  0
  2  3  1  0  0  0  0
  3  5  2  0  0  0  0
  4  1  2  0  0  0  0
  5 30  1  0  0  0  0
  6  4  1  0  0  0  0
  6  2  2  0  0  0  0
  7  2  1  0  0  0  0
  8  7  1  0  0  0  0
  9 10  1  0  0  0  0
  9 12  1  1  0  0  0
 10  8  1  0  0  0  0
 11  9  1  0  0  0  0
 11 10  1  0  0  0  0
 14 12  1  0  0  0  0
 14 13  1  0  0  0  0
 14 17  1  0  0  0  0
 15 14  1  0  0  0  0
 16 25  1  0  0  0  0
 16 22  1  1  0  0  0
 17 25  1  0  0  0  0
 17 23  1  1  0  0  0
 19 18  1  6  0  0  0
 19 17  1  0  0  0  0
 19 27  1  0  0  0  0
 20 16  1  0  0  0  0
 21 19  1  0  0  0  0
 21 16  1  0  0  0  0
 24 21  2  0  0  0  0
 26 27  2  0  0  0  0
 27 28  1  0  0  0  0
 28 29  1  0  0  0  0
 30 31  1  0  0  0  0
 31 45  1  0  0  0  0
 32 37  1  0  0  0  0
 33 46  1  0  0  0  0
 35 36  1  0  0  0  0
 36 34  1  0  0  0  0
 37 34  1  0  0  0  0
 38 35  1  0  0  0  0
 38 32  1  0  0  0  0
 39 41  1  0  0  0  0
 41 35  2  0  0  0  0
 42 47  1  1  0  0  0
 42 40  1  0  0  0  0
 43 38  2  0  0  0  0
 44 33  1  0  0  0  0
 44 42  1  0  0  0  0
 45 39  2  0  0  0  0
 45 43  1  0  0  0  0
 46 40  1  0  0  0  0
 46 39  1  0  0  0  0
 48 50  1  0  0  0  0
 48 47  1  0  0  0  0
 49 48  2  0  0  0  0
 51 43  1  0  0  0  0
 52 53  2  0  0  0  0
 53 54  1  0  0  0  0
 53 51  1  0  0  0  0
 54 55  1  0  0  0  0
M  END
>  <MODEL>
4

>  <REMARK>
 VINA RESULT:      -7.4      4.519      7.095
  Name = 
  16 active torsions:
  status: ('A' for Active; 'I' for Inactive)
    1  A    between atoms: O_2  and  C_28
    2  A    between atoms: O_2  and  C_44
    3  A    between atoms: O_4  and  C_40
    4  A    between atoms: C_6  and  C_20
    5  A    between atoms: C_8  and  C_22
    6  A    between atoms: C_10  and  C_32
    7  A    between atoms: C_11  and  C_38
    8  A    between atoms: C_14  and  C_38
    9  A    between atoms: C_19  and  C_40
   10  A    between atoms: C_19  and  C_45
   11  A    between atoms: C_20  and  C_22
   12  A    between atoms: C_27  and  C_54
   13  A    between atoms: C_28  and  C_49
   14  A    between atoms: C_32  and  C_39
   15  A    between atoms: N_35  and  C_51
   16  A    between atoms: C_51  and  C_54
                            x       y       z     vdW  Elec       q    Type
                         _______ _______ _______ _____ _____    ______ ____

>  <TORSDO>
F 16

$$$$
=
 OpenBabel10272401403D

 55 60  0  0  1  0  0  0  0  0999 V2000
  186.9610  178.3840  137.0180 C   0  0  0  0  0  3  0  0  0  0  0  0
  189.3550  176.9980  137.2240 C   0  0  0  0  0  0  0  0  0  0  0  0
  188.1470  176.3030  137.3250 C   0  0  0  0  0  3  0  0  0  0  0  0
  188.1880  179.0450  136.9270 C   0  0  0  0  0  3  0  0  0  0  0  0
  186.9360  177.0030  137.2220 C   0  0  0  0  0  0  0  0  0  0  0  0
  189.3500  178.3460  137.0370 N   0  0  0  0  0  0  0  0  0  0  0  0
  190.6480  176.2720  137.3490 C   0  0  0  0  0  2  0  0  0  0  0  0
  190.9840  176.0530  138.8120 C   0  0  0  0  0  2  0  0  0  0  0  0
  191.7970  177.0050  140.7860 C   0  0  1  0  0  3  0  0  0  0  0  0
  191.3500  177.3190  139.4210 N   0  0  0  0  0  0  0  0  0  0  0  0
  192.7830  177.2350  139.7370 C   0  0  0  0  0  2  0  0  0  0  0  0
  191.6800  178.2500  141.6540 C   0  0  0  0  0  2  0  0  0  0  0  0
  191.7030  176.5780  143.3600 O   0  0  0  0  0  1  0  0  0  0  0  0
  191.4700  177.9410  143.1440 C   0  0  0  0  0  0  0  0  0  0  0  0
  192.4180  178.6600  143.8760 O   0  0  0  0  0  1  0  0  0  0  0  0
  188.3300  177.6150  142.2460 C   0  0  2  0  0  0  0  0  0  0  0  0
  190.0350  178.3020  143.6430 C   0  0  1  0  0  0  0  0  0  0  0  0
  190.1460  175.9860  144.8560 C   0  0  0  0  0  1  0  0  0  0  0  0
  189.2760  177.1800  144.4430 C   0  0  2  0  0  0  0  0  0  0  0  0
  188.7210  176.9040  141.1250 F   0  0  0  0  0  0  0  0  0  0  0  0
  188.3150  176.7340  143.4260 C   0  0  0  0  0  0  0  0  0  0  0  0
  186.9560  178.2170  142.0130 C   0  0  0  0  0  1  0  0  0  0  0  0
  190.1400  179.4470  144.4220 F   0  0  0  0  0  0  0  0  0  0  0  0
  187.5810  175.7620  143.5450 O   0  0  0  0  0  0  0  0  0  0  0  0
  189.2550  178.6480  142.5040 O   0  0  0  0  0  0  0  0  0  0  0  0
  187.3760  178.1780  145.4800 O   0  0  0  0  0  0  0  0  0  0  0  0
  188.5050  177.7350  145.6390 C   0  0  0  0  0  0  0  0  0  0  0  0
  189.0800  177.7210  147.0260 C   0  0  0  0  0  2  0  0  0  0  0  0
  187.9900  177.9350  148.0550 C   0  0  0  0  0  1  0  0  0  0  0  0
  185.7040  176.3530  137.3170 O   0  0  0  0  0  0  0  0  0  0  0  0
  184.6470  176.5740  136.3920 C   0  0  0  0  0  2  0  0  0  0  0  0
  182.4800  172.2120  135.0760 C   0  0  0  0  0  2  0  0  0  0  0  0
  182.9090  178.1500  138.1420 C   0  0  0  0  0  2  0  0  0  0  0  0
  180.4320  171.5140  136.2990 C   0  0  0  0  0  2  0  0  0  0  0  0
  181.6930  173.5470  137.0860 C   0  0  0  0  0  0  0  0  0  0  0  0
  180.7150  172.4650  137.4580 C   0  0  0  0  0  2  0  0  0  0  0  0
  181.7470  171.0320  135.7070 C   0  0  0  0  0  2  0  0  0  0  0  0
  182.5940  173.3920  136.0130 C   0  0  0  0  0  0  0  0  0  0  0  0
  182.6550  175.6540  137.6610 C   0  0  0  0  0  0  0  0  0  0  0  0
  182.1280  176.6910  139.9030 C   0  0  0  0  0  2  0  0  0  0  0  0
  181.7650  174.6480  137.8740 N   0  0  0  0  0  0  0  0  0  0  0  0
  182.0180  178.1150  140.4150 C   0  0  1  0  0  3  0  0  0  0  0  0
  183.5410  174.4040  135.7670 C   0  0  0  0  0  0  0  0  0  0  0  0
  182.7010  179.0020  139.3780 C   0  0  0  0  0  2  0  0  0  0  0  0
  183.5780  175.5450  136.5960 C   0  0  0  0  0  0  0  0  0  0  0  0
  182.6440  176.7850  138.5520 N   0  0  0  0  0  0  0  0  0  0  0  0
  180.5470  178.4860  140.5420 C   0  0  0  0  0  2  0  0  0  0  0  0
  180.3460  179.5170  141.6020 C   0  0  0  0  0  0  0  0  0  0  0  0
  180.6430  179.2450  142.8280 N   0  0  0  0  0  1  0  0  0  0  0  0
  179.9830  180.8430  141.2400 N   0  0  0  0  0  2  0  0  0  0  0  0
  184.5250  174.2530  134.6390 C   0  0  0  0  0  2  0  0  0  0  0  0
  186.8680  173.8440  134.5450 O   0  0  0  0  0  0  0  0  0  0  0  0
  185.7720  173.5850  135.1110 C   0  0  0  0  0  0  0  0  0  0  0  0
  185.7140  172.6950  136.1830 O   0  0  0  0  0  0  0  0  0  0  0  0
  186.4290  172.9270  137.3880 C   0  0  0  0  0  1  0  0  0  0  0  0
  1  5  1  0  0  0  0
  2  3  1  0  0  0  0
  2  7  1  0  0  0  0
  4  1  2  0  0  0  0
  4  6  1  0  0  0  0
  5 30  1  0  0  0  0
  5  3  2  0  0  0  0
  6  2  2  0  0  0  0
  7  8  1  0  0  0  0
  8 10  1  0  0  0  0
  9 12  1  1  0  0  0
 10 11  1  0  0  0  0
 10  9  1  0  0  0  0
 11  9  1  0  0  0  0
 12 14  1  0  0  0  0
 14 13  1  0  0  0  0
 14 17  1  0  0  0  0
 14 15  1  0  0  0  0
 16 22  1  6  0  0  0
 16 25  1  0  0  0  0
 16 21  1  0  0  0  0
 17 23  1  1  0  0  0
 17 19  1  0  0  0  0
 19 18  1  1  0  0  0
 19 27  1  0  0  0  0
 20 16  1  0  0  0  0
 21 24  2  0  0  0  0
 21 19  1  0  0  0  0
 25 17  1  0  0  0  0
 26 27  2  0  0  0  0
 27 28  1  0  0  0  0
 28 29  1  0  0  0  0
 31 45  1  0  0  0  0
 31 30  1  0  0  0  0
 32 37  1  0  0  0  0
 32 38  1  0  0  0  0
 33 46  1  0  0  0  0
 33 44  1  0  0  0  0
 34 36  1  0  0  0  0
 35 36  1  0  0  0  0
 35 41  1  0  0  0  0
 37 34  1  0  0  0  0
 38 35  2  0  0  0  0
 39 41  2  0  0  0  0
 39 46  1  0  0  0  0
 40 42  1  0  0  0  0
 42 47  1  6  0  0  0
 43 38  1  0  0  0  0
 43 45  2  0  0  0  0
 44 42  1  0  0  0  0
 45 39  1  0  0  0  0
 46 40  1  0  0  0  0
 47 48  1  0  0  0  0
 48 49  1  0  0  0  0
 50 48  2  0  0  0  0
 51 53  1  0  0  0  0
 51 43  1  0  0  0  0
 52 53  2  0  0  0  0
 53 54  1  0  0  0  0
 54 55  1  0  0  0  0
M  END
>  <MODEL>
5

>  <REMARK>
 VINA RESULT:      -7.1      2.605      8.807
  Name = 
  16 active torsions:
  status: ('A' for Active; 'I' for Inactive)
    1  A    between atoms: O_2  and  C_28
    2  A    between atoms: O_2  and  C_44
    3  A    between atoms: O_4  and  C_40
    4  A    between atoms: C_6  and  C_20
    5  A    between atoms: C_8  and  C_22
    6  A    between atoms: C_10  and  C_32
    7  A    between atoms: C_11  and  C_38
    8  A    between atoms: C_14  and  C_38
    9  A    between atoms: C_19  and  C_40
   10  A    between atoms: C_19  and  C_45
   11  A    between atoms: C_20  and  C_22
   12  A    between atoms: C_27  and  C_54
   13  A    between atoms: C_28  and  C_49
   14  A    between atoms: C_32  and  C_39
   15  A    between atoms: N_35  and  C_51
   16  A    between atoms: C_51  and  C_54
                            x       y       z     vdW  Elec       q    Type
                         _______ _______ _______ _____ _____    ______ ____

>  <TORSDO>
F 16

$$$$
=
 OpenBabel10272401403D

 55 60  0  0  1  0  0  0  0  0999 V2000
  184.4780  178.0890  138.3570 C   0  0  0  0  0  3  0  0  0  0  0  0
  183.3250  178.5150  140.8450 C   0  0  0  0  0  0  0  0  0  0  0  0
  183.0590  177.3290  140.1570 C   0  0  0  0  0  3  0  0  0  0  0  0
  184.7170  179.2650  139.0720 C   0  0  0  0  0  3  0  0  0  0  0  0
  183.6400  177.1130  138.8990 C   0  0  0  0  0  0  0  0  0  0  0  0
  184.1360  179.4560  140.2870 N   0  0  0  0  0  0  0  0  0  0  0  0
  182.7030  178.7660  142.1720 C   0  0  0  0  0  2  0  0  0  0  0  0
  183.7300  179.3350  143.1310 C   0  0  0  0  0  2  0  0  0  0  0  0
  185.7000  178.6570  144.1930 C   0  0  1  0  0  3  0  0  0  0  0  0
  184.3120  178.2580  143.9130 N   0  0  0  0  0  0  0  0  0  0  0  0
  184.6770  178.8340  145.2160 C   0  0  0  0  0  2  0  0  0  0  0  0
  186.5270  177.4190  144.5100 C   0  0  0  0  0  2  0  0  0  0  0  0
  187.8500  175.7870  143.3730 O   0  0  0  0  0  1  0  0  0  0  0  0
  187.6630  177.1670  143.5080 C   0  0  0  0  0  0  0  0  0  0  0  0
  187.2690  177.6700  142.2660 O   0  0  0  0  0  1  0  0  0  0  0  0
  189.6840  177.3240  146.0900 C   0  0  2  0  0  0  0  0  0  0  0  0
  189.0110  177.8290  143.9390 C   0  0  1  0  0  0  0  0  0  0  0  0
  190.1000  175.6630  142.9540 C   0  0  0  0  0  1  0  0  0  0  0  0
  190.3020  176.9470  143.7690 C   0  0  2  0  0  0  0  0  0  0  0  0
  188.8700  176.4470  146.7850 F   0  0  0  0  0  0  0  0  0  0  0  0
  190.5610  176.5820  145.1680 C   0  0  0  0  0  0  0  0  0  0  0  0
  190.5100  178.1370  147.0700 C   0  0  0  0  0  1  0  0  0  0  0  0
  189.1460  179.0070  143.2180 F   0  0  0  0  0  0  0  0  0  0  0  0
  191.4070  175.7750  145.5280 O   0  0  0  0  0  0  0  0  0  0  0  0
  188.8940  178.1950  145.3100 O   0  0  0  0  0  0  0  0  0  0  0  0
  191.9720  178.6410  143.9240 O   0  0  0  0  0  0  0  0  0  0  0  0
  191.4910  177.7470  143.2410 C   0  0  0  0  0  0  0  0  0  0  0  0
  192.1200  177.4450  141.9120 C   0  0  0  0  0  2  0  0  0  0  0  0
  191.1240  177.6630  140.7910 C   0  0  0  0  0  1  0  0  0  0  0  0
  183.4030  175.9430  138.1740 O   0  0  0  0  0  0  0  0  0  0  0  0
  183.9120  175.7390  136.8620 C   0  0  0  0  0  2  0  0  0  0  0  0
  181.7180  171.2490  136.1640 C   0  0  0  0  0  2  0  0  0  0  0  0
  186.7850  175.4640  137.3490 C   0  0  0  0  0  2  0  0  0  0  0  0
  183.1890  169.2750  135.8180 C   0  0  0  0  0  2  0  0  0  0  0  0
  184.2230  171.5700  135.9160 C   0  0  0  0  0  0  0  0  0  0  0  0
  184.3890  170.1450  135.4580 C   0  0  0  0  0  2  0  0  0  0  0  0
  181.9100  169.9640  135.3650 C   0  0  0  0  0  2  0  0  0  0  0  0
  182.9500  172.1230  136.1630 C   0  0  0  0  0  0  0  0  0  0  0  0
  185.2780  173.6700  136.3310 C   0  0  0  0  0  0  0  0  0  0  0  0
  187.6810  174.0140  135.6360 C   0  0  0  0  0  2  0  0  0  0  0  0
  185.3270  172.3550  135.9880 N   0  0  0  0  0  0  0  0  0  0  0  0
  188.8310  174.8500  136.1660 C   0  0  1  0  0  3  0  0  0  0  0  0
  182.8550  173.4840  136.5070 C   0  0  0  0  0  0  0  0  0  0  0  0
  188.2150  175.8950  137.0930 C   0  0  0  0  0  2  0  0  0  0  0  0
  184.0240  174.2690  136.5900 C   0  0  0  0  0  0  0  0  0  0  0  0
  186.5080  174.4140  136.3870 N   0  0  0  0  0  0  0  0  0  0  0  0
  189.7840  173.9520  136.9410 C   0  0  0  0  0  2  0  0  0  0  0  0
  191.2030  174.3540  136.7110 C   0  0  0  0  0  0  0  0  0  0  0  0
  191.9630  174.6350  137.7160 N   0  0  0  0  0  1  0  0  0  0  0  0
  191.7600  174.2680  135.4060 N   0  0  0  0  0  2  0  0  0  0  0  0
  181.5060  174.1020  136.7580 C   0  0  0  0  0  2  0  0  0  0  0  0
  181.0950  174.1330  134.4140 O   0  0  0  0  0  0  0  0  0  0  0  0
  180.9730  174.7310  135.5160 C   0  0  0  0  0  0  0  0  0  0  0  0
  180.3300  175.9670  135.5910 O   0  0  0  0  0  0  0  0  0  0  0  0
  180.4080  176.7810  136.7520 C   0  0  0  0  0  1  0  0  0  0  0  0
  1  5  2  0  0  0  0
  1  4  1  0  0  0  0
  2  7  1  0  0  0  0
  3  2  2  0  0  0  0
  4  6  2  0  0  0  0
  5  3  1  0  0  0  0
  6  2  1  0  0  0  0
  7  8  1  0  0  0  0
  8 10  1  0  0  0  0
  9 12  1  1  0  0  0
  9 11  1  0  0  0  0
 10  9  1  0  0  0  0
 10 11  1  0  0  0  0
 13 14  1  0  0  0  0
 14 17  1  0  0  0  0
 14 12  1  0  0  0  0
 15 14  1  0  0  0  0
 16 20  1  0  0  0  0
 16 22  1  1  0  0  0
 17 23  1  6  0  0  0
 17 25  1  0  0  0  0
 19 18  1  6  0  0  0
 19 17  1  0  0  0  0
 19 21  1  0  0  0  0
 21 24  2  0  0  0  0
 21 16  1  0  0  0  0
 25 16  1  0  0  0  0
 27 19  1  0  0  0  0
 27 26  2  0  0  0  0
 28 27  1  0  0  0  0
 29 28  1  0  0  0  0
 30  5  1  0  0  0  0
 31 30  1  0  0  0  0
 35 41  2  0  0  0  0
 35 38  1  0  0  0  0
 36 34  1  0  0  0  0
 36 35  1  0  0  0  0
 37 34  1  0  0  0  0
 37 32  1  0  0  0  0
 38 32  1  0  0  0  0
 38 43  2  0  0  0  0
 39 46  1  0  0  0  0
 39 45  2  0  0  0  0
 40 42  1  0  0  0  0
 40 46  1  0  0  0  0
 41 39  1  0  0  0  0
 42 47  1  1  0  0  0
 42 44  1  0  0  0  0
 43 45  1  0  0  0  0
 43 51  1  0  0  0  0
 44 33  1  0  0  0  0
 45 31  1  0  0  0  0
 46 33  1  0  0  0  0
 48 47  1  0  0  0  0
 48 49  1  0  0  0  0
 50 48  2  0  0  0  0
 52 53  2  0  0  0  0
 53 54  1  0  0  0  0
 53 51  1  0  0  0  0
 54 55  1  0  0  0  0
M  END
>  <MODEL>
6

>  <REMARK>
 VINA RESULT:      -7.1      2.805     10.820
  Name = 
  16 active torsions:
  status: ('A' for Active; 'I' for Inactive)
    1  A    between atoms: O_2  and  C_28
    2  A    between atoms: O_2  and  C_44
    3  A    between atoms: O_4  and  C_40
    4  A    between atoms: C_6  and  C_20
    5  A    between atoms: C_8  and  C_22
    6  A    between atoms: C_10  and  C_32
    7  A    between atoms: C_11  and  C_38
    8  A    between atoms: C_14  and  C_38
    9  A    between atoms: C_19  and  C_40
   10  A    between atoms: C_19  and  C_45
   11  A    between atoms: C_20  and  C_22
   12  A    between atoms: C_27  and  C_54
   13  A    between atoms: C_28  and  C_49
   14  A    between atoms: C_32  and  C_39
   15  A    between atoms: N_35  and  C_51
   16  A    between atoms: C_51  and  C_54
                            x       y       z     vdW  Elec       q    Type
                         _______ _______ _______ _____ _____    ______ ____

>  <TORSDO>
F 16

$$$$
=
 OpenBabel10272401403D

 55 60  0  0  1  0  0  0  0  0999 V2000
  189.5570  178.2990  143.4830 C   0  0  0  0  0  3  0  0  0  0  0  0
  191.3610  177.6560  141.4750 C   0  0  0  0  0  0  0  0  0  0  0  0
  189.9920  177.6610  141.1950 C   0  0  0  0  0  3  0  0  0  0  0  0
  190.9320  178.2790  143.7270 C   0  0  0  0  0  3  0  0  0  0  0  0
  189.0790  177.9840  142.2100 C   0  0  0  0  0  0  0  0  0  0  0  0
  191.7980  177.9550  142.7290 N   0  0  0  0  0  0  0  0  0  0  0  0
  192.3400  177.2970  140.4150 C   0  0  0  0  0  2  0  0  0  0  0  0
  191.6250  176.6590  139.2390 C   0  0  0  0  0  2  0  0  0  0  0  0
  192.6080  175.3980  137.5340 C   0  0  1  0  0  3  0  0  0  0  0  0
  192.4540  176.7650  138.0510 N   0  0  0  0  0  0  0  0  0  0  0  0
  191.6360  176.2970  136.9230 C   0  0  0  0  0  2  0  0  0  0  0  0
  193.8510  175.3250  136.6590 C   0  0  0  0  0  2  0  0  0  0  0  0
  193.3720  172.9860  136.7320 O   0  0  0  0  0  1  0  0  0  0  0  0
  194.0490  173.9580  135.9880 C   0  0  0  0  0  0  0  0  0  0  0  0
  193.4690  174.0080  134.7180 O   0  0  0  0  0  1  0  0  0  0  0  0
  196.9960  175.3220  135.5140 C   0  0  2  0  0  0  0  0  0  0  0  0
  195.5530  173.5540  135.8620 C   0  0  1  0  0  0  0  0  0  0  0  0
  195.5940  173.8660  138.4590 C   0  0  0  0  0  1  0  0  0  0  0  0
  196.4090  173.6500  137.1780 C   0  0  2  0  0  0  0  0  0  0  0  0
  196.4160  176.5790  135.5000 F   0  0  0  0  0  0  0  0  0  0  0  0
  197.1850  174.8660  136.9020 C   0  0  0  0  0  0  0  0  0  0  0  0
  198.3260  175.3680  134.7840 C   0  0  0  0  0  1  0  0  0  0  0  0
  195.5970  172.2590  135.3650 F   0  0  0  0  0  0  0  0  0  0  0  0
  197.9100  175.4250  137.7140 O   0  0  0  0  0  0  0  0  0  0  0  0
  196.1450  174.3950  134.8780 O   0  0  0  0  0  0  0  0  0  0  0  0
  196.9550  171.3950  137.7260 O   0  0  0  0  0  0  0  0  0  0  0  0
  197.3730  172.4760  137.3340 C   0  0  0  0  0  0  0  0  0  0  0  0
  198.8280  172.5950  136.9830 C   0  0  0  0  0  2  0  0  0  0  0  0
  199.1470  171.7680  135.7540 C   0  0  0  0  0  1  0  0  0  0  0  0
  187.7020  178.0020  141.9780 O   0  0  0  0  0  0  0  0  0  0  0  0
  187.0030  179.1820  141.6050 C   0  0  0  0  0  2  0  0  0  0  0  0
  182.4110  179.0520  143.6930 C   0  0  0  0  0  2  0  0  0  0  0  0
  187.0910  177.6530  139.1110 C   0  0  0  0  0  2  0  0  0  0  0  0
  180.5330  178.1710  142.3220 C   0  0  0  0  0  2  0  0  0  0  0  0
  182.7870  178.4950  141.2450 C   0  0  0  0  0  0  0  0  0  0  0  0
  181.3060  178.3560  141.0190 C   0  0  0  0  0  2  0  0  0  0  0  0
  180.9470  179.2490  143.3130 C   0  0  0  0  0  2  0  0  0  0  0  0
  183.3100  178.9130  142.4860 C   0  0  0  0  0  0  0  0  0  0  0  0
  184.9670  178.4680  140.2740 C   0  0  0  0  0  0  0  0  0  0  0  0
  185.2080  178.3440  137.7630 C   0  0  0  0  0  2  0  0  0  0  0  0
  183.6190  178.3070  140.1910 N   0  0  0  0  0  0  0  0  0  0  0  0
  186.2460  177.7590  136.8230 C   0  0  1  0  0  3  0  0  0  0  0  0
  184.6990  179.1050  142.6100 C   0  0  0  0  0  0  0  0  0  0  0  0
  187.5000  177.5180  137.6580 C   0  0  0  0  0  2  0  0  0  0  0  0
  185.5380  178.8850  141.4980 C   0  0  0  0  0  0  0  0  0  0  0  0
  185.7630  178.2360  139.0970 N   0  0  0  0  0  0  0  0  0  0  0  0
  185.7230  176.4440  136.2620 C   0  0  0  0  0  2  0  0  0  0  0  0
  186.8290  175.4540  136.1040 C   0  0  0  0  0  0  0  0  0  0  0  0
  186.9060  174.4430  136.9030 N   0  0  0  0  0  1  0  0  0  0  0  0
  187.6950  175.5340  134.9790 N   0  0  0  0  0  2  0  0  0  0  0  0
  185.2780  179.5680  143.9190 C   0  0  0  0  0  2  0  0  0  0  0  0
  185.9140  177.3110  144.3220 O   0  0  0  0  0  0  0  0  0  0  0  0
  185.5480  178.4100  144.8180 C   0  0  0  0  0  0  0  0  0  0  0  0
  185.4100  178.5620  146.1980 O   0  0  0  0  0  0  0  0  0  0  0  0
  186.4450  178.1940  147.0980 C   0  0  0  0  0  1  0  0  0  0  0  0
  1  4  1  0  0  0  0
  2  6  1  0  0  0  0
  3  2  2  0  0  0  0
  3  5  1  0  0  0  0
  5  1  2  0  0  0  0
  6  4  2  0  0  0  0
  7  2  1  0  0  0  0
  8  7  1  0  0  0  0
  9 12  1  6  0  0  0
  9 10  1  0  0  0  0
 10  8  1  0  0  0  0
 11  9  1  0  0  0  0
 11 10  1  0  0  0  0
 14 12  1  0  0  0  0
 14 13  1  0  0  0  0
 15 14  1  0  0  0  0
 16 22  1  6  0  0  0
 16 21  1  0  0  0  0
 17 23  1  6  0  0  0
 17 14  1  0  0  0  0
 17 19  1  0  0  0  0
 19 27  1  0  0  0  0
 19 18  1  1  0  0  0
 20 16  1  0  0  0  0
 21 19  1  0  0  0  0
 21 24  2  0  0  0  0
 25 16  1  0  0  0  0
 25 17  1  0  0  0  0
 27 26  2  0  0  0  0
 28 27  1  0  0  0  0
 29 28  1  0  0  0  0
 30  5  1  0  0  0  0
 31 30  1  0  0  0  0
 34 37  1  0  0  0  0
 35 38  1  0  0  0  0
 36 35  1  0  0  0  0
 36 34  1  0  0  0  0
 37 32  1  0  0  0  0
 38 43  2  0  0  0  0
 38 32  1  0  0  0  0
 39 45  2  0  0  0  0
 40 46  1  0  0  0  0
 41 39  1  0  0  0  0
 41 35  2  0  0  0  0
 42 47  1  1  0  0  0
 42 44  1  0  0  0  0
 42 40  1  0  0  0  0
 43 51  1  0  0  0  0
 44 33  1  0  0  0  0
 45 31  1  0  0  0  0
 45 43  1  0  0  0  0
 46 33  1  0  0  0  0
 46 39  1  0  0  0  0
 48 47  1  0  0  0  0
 48 49  1  0  0  0  0
 50 48  2  0  0  0  0
 51 53  1  0  0  0  0
 52 53  2  0  0  0  0
 53 54  1  0  0  0  0
 54 55  1  0  0  0  0
M  END
>  <MODEL>
7

>  <REMARK>
 VINA RESULT:      -7.0      4.588      8.545
  Name = 
  16 active torsions:
  status: ('A' for Active; 'I' for Inactive)
    1  A    between atoms: O_2  and  C_28
    2  A    between atoms: O_2  and  C_44
    3  A    between atoms: O_4  and  C_40
    4  A    between atoms: C_6  and  C_20
    5  A    between atoms: C_8  and  C_22
    6  A    between atoms: C_10  and  C_32
    7  A    between atoms: C_11  and  C_38
    8  A    between atoms: C_14  and  C_38
    9  A    between atoms: C_19  and  C_40
   10  A    between atoms: C_19  and  C_45
   11  A    between atoms: C_20  and  C_22
   12  A    between atoms: C_27  and  C_54
   13  A    between atoms: C_28  and  C_49
   14  A    between atoms: C_32  and  C_39
   15  A    between atoms: N_35  and  C_51
   16  A    between atoms: C_51  and  C_54
                            x       y       z     vdW  Elec       q    Type
                         _______ _______ _______ _____ _____    ______ ____

>  <TORSDO>
F 16

$$$$
=
 OpenBabel10272401403D

 55 60  0  0  1  0  0  0  0  0999 V2000
  188.9590  178.3870  139.5220 C   0  0  0  0  0  3  0  0  0  0  0  0
  191.1030  176.8150  138.7300 C   0  0  0  0  0  0  0  0  0  0  0  0
  190.8130  176.9480  140.0900 C   0  0  0  0  0  3  0  0  0  0  0  0
  189.2820  178.2340  138.1720 C   0  0  0  0  0  3  0  0  0  0  0  0
  189.7300  177.7430  140.4920 C   0  0  0  0  0  0  0  0  0  0  0  0
  190.3420  177.4630  137.8070 N   0  0  0  0  0  0  0  0  0  0  0  0
  192.2590  175.9890  138.2890 C   0  0  0  0  0  2  0  0  0  0  0  0
  191.7700  174.6850  137.6900 C   0  0  0  0  0  2  0  0  0  0  0  0
  192.7580  173.0670  136.3220 C   0  0  1  0  0  3  0  0  0  0  0  0
  192.3860  174.4870  136.3890 N   0  0  0  0  0  0  0  0  0  0  0  0
  191.5400  173.5270  135.6650 C   0  0  0  0  0  2  0  0  0  0  0  0
  193.8550  172.8800  135.2830 C   0  0  0  0  0  2  0  0  0  0  0  0
  195.0990  172.3530  137.2530 O   0  0  0  0  0  1  0  0  0  0  0  0
  195.1460  172.2770  135.8570 C   0  0  0  0  0  0  0  0  0  0  0  0
  195.1920  170.9270  135.5020 O   0  0  0  0  0  1  0  0  0  0  0  0
  196.3660  175.3020  135.4930 C   0  0  2  0  0  0  0  0  0  0  0  0
  196.4340  172.9990  135.3470 C   0  0  1  0  0  0  0  0  0  0  0  0
  197.2560  172.7390  137.8160 C   0  0  0  0  0  1  0  0  0  0  0  0
  197.5000  173.3720  136.4410 C   0  0  2  0  0  0  0  0  0  0  0  0
  195.2230  175.8360  136.0630 F   0  0  0  0  0  0  0  0  0  0  0  0
  197.2800  174.8210  136.5420 C   0  0  0  0  0  0  0  0  0  0  0  0
  197.0460  176.3550  134.6370 C   0  0  0  0  0  1  0  0  0  0  0  0
  197.0130  172.1850  134.3820 F   0  0  0  0  0  0  0  0  0  0  0  0
  197.8000  175.5430  137.3820 O   0  0  0  0  0  0  0  0  0  0  0  0
  196.0270  174.1940  134.6890 O   0  0  0  0  0  0  0  0  0  0  0  0
  199.3590  173.7150  134.9880 O   0  0  0  0  0  0  0  0  0  0  0  0
  198.9310  173.1230  135.9700 C   0  0  0  0  0  0  0  0  0  0  0  0
  199.8550  172.1950  136.7050 C   0  0  0  0  0  2  0  0  0  0  0  0
  199.7750  170.7970  136.1240 C   0  0  0  0  0  1  0  0  0  0  0  0
  189.4020  177.9070  141.8390 O   0  0  0  0  0  0  0  0  0  0  0  0
  188.9380  176.8360  142.6510 C   0  0  0  0  0  2  0  0  0  0  0  0
  184.3250  178.6810  143.5270 C   0  0  0  0  0  2  0  0  0  0  0  0
  190.6920  177.1880  144.9670 C   0  0  0  0  0  2  0  0  0  0  0  0
  183.7370  179.2860  145.8660 C   0  0  0  0  0  2  0  0  0  0  0  0
  185.9270  178.1260  145.4160 C   0  0  0  0  0  0  0  0  0  0  0  0
  184.8750  178.4480  146.4420 C   0  0  0  0  0  2  0  0  0  0  0  0
  183.2280  178.6370  144.5880 C   0  0  0  0  0  2  0  0  0  0  0  0
  185.6440  178.1480  144.0350 C   0  0  0  0  0  0  0  0  0  0  0  0
  188.1420  177.3370  145.0050 C   0  0  0  0  0  0  0  0  0  0  0  0
  189.5000  176.3950  146.9140 C   0  0  0  0  0  2  0  0  0  0  0  0
  187.1430  177.7100  145.8490 N   0  0  0  0  0  0  0  0  0  0  0  0
  190.9820  176.3400  147.2390 C   0  0  1  0  0  3  0  0  0  0  0  0
  186.6470  177.7550  143.1280 C   0  0  0  0  0  0  0  0  0  0  0  0
  191.7210  176.6470  145.9390 C   0  0  0  0  0  2  0  0  0  0  0  0
  187.9060  177.3430  143.6110 C   0  0  0  0  0  0  0  0  0  0  0  0
  189.3990  176.9180  145.5660 N   0  0  0  0  0  0  0  0  0  0  0  0
  191.2990  177.3950  148.2890 C   0  0  0  0  0  2  0  0  0  0  0  0
  192.6180  177.1260  148.9340 C   0  0  0  0  0  0  0  0  0  0  0  0
  193.0650  177.9270  149.8420 N   0  0  0  0  0  1  0  0  0  0  0  0
  193.3020  175.9090  148.6660 N   0  0  0  0  0  2  0  0  0  0  0  0
  186.3610  177.7520  141.6510 C   0  0  0  0  0  2  0  0  0  0  0  0
  186.6640  180.1120  141.7300 O   0  0  0  0  0  0  0  0  0  0  0  0
  186.1080  179.1360  141.1570 C   0  0  0  0  0  0  0  0  0  0  0  0
  185.2730  179.3340  140.0580 O   0  0  0  0  0  0  0  0  0  0  0  0
  183.8720  179.1160  140.1350 C   0  0  0  0  0  1  0  0  0  0  0  0
  1  5  1  0  0  0  0
  2  3  1  0  0  0  0
  3  5  2  0  0  0  0
  4  1  2  0  0  0  0
  5 30  1  0  0  0  0
  6  4  1  0  0  0  0
  6  2  2  0  0  0  0
  7  2  1  0  0  0  0
  8  7  1  0  0  0  0
  9 12  1  6  0  0  0
  9 10  1  0  0  0  0
 10  8  1  0  0  0  0
 11  9  1  0  0  0  0
 11 10  1  0  0  0  0
 12 14  1  0  0  0  0
 14 13  1  0  0  0  0
 15 14  1  0  0  0  0
 16 22  1  6  0  0  0
 16 20  1  0  0  0  0
 16 21  1  0  0  0  0
 17 23  1  6  0  0  0
 17 14  1  0  0  0  0
 17 19  1  0  0  0  0
 19 21  1  0  0  0  0
 19 18  1  1  0  0  0
 21 24  2  0  0  0  0
 25 17  1  0  0  0  0
 25 16  1  0  0  0  0
 26 27  2  0  0  0  0
 27 19  1  0  0  0  0
 27 28  1  0  0  0  0
 29 28  1  0  0  0  0
 30 31  1  0  0  0  0
 31 45  1  0  0  0  0
 32 38  1  0  0  0  0
 32 37  1  0  0  0  0
 33 46  1  0  0  0  0
 33 44  1  0  0  0  0
 34 36  1  0  0  0  0
 35 41  1  0  0  0  0
 35 36  1  0  0  0  0
 37 34  1  0  0  0  0
 38 35  2  0  0  0  0
 39 46  1  0  0  0  0
 39 41  2  0  0  0  0
 40 42  1  0  0  0  0
 42 47  1  1  0  0  0
 43 45  2  0  0  0  0
 43 38  1  0  0  0  0
 44 42  1  0  0  0  0
 45 39  1  0  0  0  0
 46 40  1  0  0  0  0
 47 48  1  0  0  0  0
 48 49  1  0  0  0  0
 50 48  2  0  0  0  0
 51 43  1  0  0  0  0
 53 51  1  0  0  0  0
 53 52  2  0  0  0  0
 54 55  1  0  0  0  0
 54 53  1  0  0  0  0
M  END
>  <MODEL>
8

>  <REMARK>
 VINA RESULT:      -6.9      5.048      8.916
  Name = 
  16 active torsions:
  status: ('A' for Active; 'I' for Inactive)
    1  A    between atoms: O_2  and  C_28
    2  A    between atoms: O_2  and  C_44
    3  A    between atoms: O_4  and  C_40
    4  A    between atoms: C_6  and  C_20
    5  A    between atoms: C_8  and  C_22
    6  A    between atoms: C_10  and  C_32
    7  A    between atoms: C_11  and  C_38
    8  A    between atoms: C_14  and  C_38
    9  A    between atoms: C_19  and  C_40
   10  A    between atoms: C_19  and  C_45
   11  A    between atoms: C_20  and  C_22
   12  A    between atoms: C_27  and  C_54
   13  A    between atoms: C_28  and  C_49
   14  A    between atoms: C_32  and  C_39
   15  A    between atoms: N_35  and  C_51
   16  A    between atoms: C_51  and  C_54
                            x       y       z     vdW  Elec       q    Type
                         _______ _______ _______ _____ _____    ______ ____

>  <TORSDO>
F 16

$$$$
=
 OpenBabel10272401403D

 55 60  0  0  1  0  0  0  0  0999 V2000
  184.1540  179.5490  143.0170 C   0  0  0  0  0  3  0  0  0  0  0  0
  185.2330  178.1540  145.1590 C   0  0  0  0  0  0  0  0  0  0  0  0
  185.7510  177.9550  143.8770 C   0  0  0  0  0  3  0  0  0  0  0  0
  183.6590  179.7190  144.3120 C   0  0  0  0  0  3  0  0  0  0  0  0
  185.2060  178.6590  142.7940 C   0  0  0  0  0  0  0  0  0  0  0  0
  184.1990  179.0200  145.3470 N   0  0  0  0  0  0  0  0  0  0  0  0
  185.7890  177.4020  146.3160 C   0  0  0  0  0  2  0  0  0  0  0  0
  186.6730  178.3080  147.1510 C   0  0  0  0  0  2  0  0  0  0  0  0
  188.9550  178.0040  147.5560 C   0  0  1  0  0  3  0  0  0  0  0  0
  187.6180  177.5030  147.9060 N   0  0  0  0  0  0  0  0  0  0  0  0
  188.3300  178.4220  148.8050 C   0  0  0  0  0  2  0  0  0  0  0  0
  189.9890  176.9250  147.8440 C   0  0  0  0  0  2  0  0  0  0  0  0
  192.0870  177.3030  146.7650 O   0  0  0  0  0  1  0  0  0  0  0  0
  190.8850  176.5980  146.6400 C   0  0  0  0  0  0  0  0  0  0  0  0
  191.1820  175.2330  146.6750 O   0  0  0  0  0  1  0  0  0  0  0  0
  191.1490  178.7770  144.2000 C   0  0  2  0  0  0  0  0  0  0  0  0
  190.2200  176.9560  145.2720 C   0  0  1  0  0  0  0  0  0  0  0  0
  191.9820  175.3050  144.2680 C   0  0  0  0  0  1  0  0  0  0  0  0
  190.9120  176.3670  143.9890 C   0  0  2  0  0  0  0  0  0  0  0  0
  192.2370  179.3560  144.8300 F   0  0  0  0  0  0  0  0  0  0  0  0
  191.5690  177.5720  143.4650 C   0  0  0  0  0  0  0  0  0  0  0  0
  190.5150  179.7820  143.2550 C   0  0  0  0  0  1  0  0  0  0  0  0
  188.8970  176.5360  145.3290 F   0  0  0  0  0  0  0  0  0  0  0  0
  192.3550  177.5810  142.5280 O   0  0  0  0  0  0  0  0  0  0  0  0
  190.1980  178.3750  145.1610 O   0  0  0  0  0  0  0  0  0  0  0  0
  189.5540  174.6960  142.9660 O   0  0  0  0  0  0  0  0  0  0  0  0
  189.9030  175.8690  142.9570 C   0  0  0  0  0  0  0  0  0  0  0  0
  189.2880  176.7900  141.9440 C   0  0  0  0  0  2  0  0  0  0  0  0
  189.8800  176.5420  140.5710 C   0  0  0  0  0  1  0  0  0  0  0  0
  185.6890  178.4920  141.4940 O   0  0  0  0  0  0  0  0  0  0  0  0
  185.0880  179.1160  140.3670 C   0  0  0  0  0  2  0  0  0  0  0  0
  181.3260  176.0190  139.0610 C   0  0  0  0  0  2  0  0  0  0  0  0
  187.5800  178.4130  139.0010 C   0  0  0  0  0  2  0  0  0  0  0  0
  181.6810  174.5100  137.1170 C   0  0  0  0  0  2  0  0  0  0  0  0
  183.4240  176.2490  137.6500 C   0  0  0  0  0  0  0  0  0  0  0  0
  182.8480  175.3430  136.5950 C   0  0  0  0  0  2  0  0  0  0  0  0
  180.6820  175.4210  137.8140 C   0  0  0  0  0  2  0  0  0  0  0  0
  182.6710  176.6450  138.7760 C   0  0  0  0  0  0  0  0  0  0  0  0
  185.2440  177.6460  138.3080 C   0  0  0  0  0  0  0  0  0  0  0  0
  187.0780  178.1600  136.6510 C   0  0  0  0  0  2  0  0  0  0  0  0
  184.6590  176.7700  137.4470 N   0  0  0  0  0  0  0  0  0  0  0  0
  188.5630  178.4550  136.7660 C   0  0  1  0  0  3  0  0  0  0  0  0
  183.2350  177.5600  139.6830 C   0  0  0  0  0  0  0  0  0  0  0  0
  188.8200  178.8120  138.2270 C   0  0  0  0  0  2  0  0  0  0  0  0
  184.5300  178.0700  139.4520 C   0  0  0  0  0  0  0  0  0  0  0  0
  186.5640  178.1340  138.0050 N   0  0  0  0  0  0  0  0  0  0  0  0
  189.3490  177.2110  136.3790 C   0  0  0  0  0  2  0  0  0  0  0  0
  188.4350  176.1210  135.9280 C   0  0  0  0  0  0  0  0  0  0  0  0
  187.9730  176.1260  134.7230 N   0  0  0  0  0  2  0  0  0  0  0  0
  188.2050  174.9970  136.7690 N   0  0  0  0  0  1  0  0  0  0  0  0
  182.4440  178.0110  140.8820 C   0  0  0  0  0  2  0  0  0  0  0  0
  181.6800  179.7940  139.5030 O   0  0  0  0  0  0  0  0  0  0  0  0
  181.4520  179.0560  140.4990 C   0  0  0  0  0  0  0  0  0  0  0  0
  180.2770  179.1940  141.2370 O   0  0  0  0  0  0  0  0  0  0  0  0
  180.2390  179.9260  142.4540 C   0  0  0  0  0  1  0  0  0  0  0  0
  1  4  1  0  0  0  0
  2  6  1  0  0  0  0
  2  7  1  0  0  0  0
  3  2  2  0  0  0  0
  4  6  2  0  0  0  0
  5  1  2  0  0  0  0
  5  3  1  0  0  0  0
  7  8  1  0  0  0  0
  8 10  1  0  0  0  0
  9 12  1  1  0  0  0
  9 10  1  0  0  0  0
  9 11  1  0  0  0  0
 10 11  1  0  0  0  0
 14 15  1  0  0  0  0
 14 13  1  0  0  0  0
 14 12  1  0  0  0  0
 16 22  1  6  0  0  0
 16 20  1  0  0  0  0
 16 25  1  0  0  0  0
 17 23  1  1  0  0  0
 17 14  1  0  0  0  0
 19 18  1  1  0  0  0
 19 17  1  0  0  0  0
 21 19  1  0  0  0  0
 21 16  1  0  0  0  0
 24 21  2  0  0  0  0
 25 17  1  0  0  0  0
 27 26  2  0  0  0  0
 27 19  1  0  0  0  0
 28 27  1  0  0  0  0
 29 28  1  0  0  0  0
 30  5  1  0  0  0  0
 31 30  1  0  0  0  0
 34 37  1  0  0  0  0
 35 38  1  0  0  0  0
 36 34  1  0  0  0  0
 36 35  1  0  0  0  0
 37 32  1  0  0  0  0
 38 32  1  0  0  0  0
 38 43  2  0  0  0  0
 39 45  2  0  0  0  0
 40 42  1  0  0  0  0
 40 46  1  0  0  0  0
 41 35  2  0  0  0  0
 41 39  1  0  0  0  0
 42 47  1  1  0  0  0
 42 44  1  0  0  0  0
 43 51  1  0  0  0  0
 44 33  1  0  0  0  0
 45 43  1  0  0  0  0
 45 31  1  0  0  0  0
 46 39  1  0  0  0  0
 46 33  1  0  0  0  0
 48 47  1  0  0  0  0
 48 50  1  0  0  0  0
 49 48  2  0  0  0  0
 52 53  2  0  0  0  0
 53 51  1  0  0  0  0
 53 54  1  0  0  0  0
 54 55  1  0  0  0  0
M  END
>  <MODEL>
9

>  <REMARK>
 VINA RESULT:      -6.8      3.355      9.939
  Name = 
  16 active torsions:
  status: ('A' for Active; 'I' for Inactive)
    1  A    between atoms: O_2  and  C_28
    2  A    between atoms: O_2  and  C_44
    3  A    between atoms: O_4  and  C_40
    4  A    between atoms: C_6  and  C_20
    5  A    between atoms: C_8  and  C_22
    6  A    between atoms: C_10  and  C_32
    7  A    between atoms: C_11  and  C_38
    8  A    between atoms: C_14  and  C_38
    9  A    between atoms: C_19  and  C_40
   10  A    between atoms: C_19  and  C_45
   11  A    between atoms: C_20  and  C_22
   12  A    between atoms: C_27  and  C_54
   13  A    between atoms: C_28  and  C_49
   14  A    between atoms: C_32  and  C_39
   15  A    between atoms: N_35  and  C_51
   16  A    between atoms: C_51  and  C_54
                            x       y       z     vdW  Elec       q    Type
                         _______ _______ _______ _____ _____    ______ ____

>  <TORSDO>
F 16

$$$$
