=
 OpenBabel10272414573D

 37 40  0  0  1  0  0  0  0  0999 V2000
  182.4310  177.6070  137.2370 C   0  0  0  0  0  3  0  0  0  0  0  0
  182.8810  173.2540  136.7350 C   0  0  0  0  0  3  0  0  0  0  0  0
  183.6100  177.4560  137.8240 C   0  0  0  0  0  0  0  0  0  0  0  0
  183.0640  174.6410  136.7880 C   0  0  0  0  0  0  0  0  0  0  0  0
  182.0180  175.3470  136.3440 C   0  0  0  0  0  3  0  0  0  0  0  0
  184.3580  175.1700  137.0910 C   0  0  0  0  0  0  0  0  0  0  0  0
  185.2270  172.8750  137.0960 C   0  0  0  0  0  3  0  0  0  0  0  0
  181.9670  176.7660  136.1920 N   0  0  0  0  0  0  0  0  0  0  0  0
  185.4250  174.2500  137.1810 C   0  0  0  0  0  3  0  0  0  0  0  0
  184.6380  176.4810  137.3320 C   0  0  0  0  0  0  0  0  0  0  0  0
  183.9410  172.3670  136.9050 C   0  0  0  0  0  0  0  0  0  0  0  0
  183.6930  170.9930  136.8520 O   0  0  0  0  0  0  0  0  0  0  0  0
  182.7670  170.4140  135.9430 C   0  0  0  0  0  1  0  0  0  0  0  0
  181.4090  178.6580  134.7450 C   0  0  0  0  0  1  0  0  0  0  0  0
  180.9660  177.3080  135.2860 C   0  0  0  0  0  2  0  0  0  0  0  0
  183.8090  178.3010  139.0530 C   0  0  1  0  0  3  0  0  0  0  0  0
  184.2620  180.6460  138.9130 O   0  0  0  0  0  1  0  0  0  0  0  0
  183.2330  179.7050  138.9090 C   0  0  0  0  0  2  0  0  0  0  0  0
  183.3400  177.6140  140.3240 C   0  0  0  0  0  2  0  0  0  0  0  0
  183.2120  178.5600  141.3750 O   0  0  0  0  0  0  0  0  0  0  0  0
  185.2860  178.1450  142.3830 C   0  0  0  0  0  3  0  0  0  0  0  0
  184.0090  178.5100  142.5200 C   0  0  0  0  0  0  0  0  0  0  0  0
  183.4320  178.8640  143.8740 C   0  0  0  0  0  2  0  0  0  0  0  0
  184.0760  179.0300  146.1670 O   0  0  0  0  0  0  0  0  0  0  0  0
  185.7810  178.3570  144.7340 N   0  0  0  0  0  0  0  0  0  0  0  0
  184.4310  178.7590  144.9910 C   0  0  0  0  0  0  0  0  0  0  0  0
  186.1930  178.0690  143.5380 C   0  0  0  0  0  3  0  0  0  0  0  0
  186.0710  176.9520  137.1120 C   0  0  1  0  0  3  0  0  0  0  0  0
  186.3860  177.2890  135.6570 C   0  0  0  0  0  0  0  0  0  0  0  0
  185.3120  177.3100  134.5870 C   0  0  0  0  0  1  0  0  0  0  0  0
  187.4890  178.3020  135.4620 C   0  0  0  0  0  2  0  0  0  0  0  0
  187.7420  176.8290  135.1740 C   0  0  0  0  0  2  0  0  0  0  0  0
  186.6130  177.9700  138.1050 C   0  0  0  0  0  2  0  0  0  0  0  0
  187.8290  177.4150  138.8200 C   0  0  0  0  0  2  0  0  0  0  0  0
  188.2150  178.3470  139.9480 C   0  0  0  0  0  2  0  0  0  0  0  0
  190.2280  176.9270  140.1460 C   0  0  0  0  0  1  0  0  0  0  0  0
  189.1210  177.6160  140.9160 C   0  0  0  0  0  2  0  0  0  0  0  0
  1  3  2  0  0  0  0
  2  4  1  0  0  0  0
  2 11  2  0  0  0  0
  3 16  1  0  0  0  0
  4  6  1  0  0  0  0
  5  4  2  0  0  0  0
  6  9  1  0  0  0  0
  6 10  2  0  0  0  0
  7  9  2  0  0  0  0
  8  5  1  0  0  0  0
  8  1  1  0  0  0  0
 10  3  1  0  0  0  0
 11  7  1  0  0  0  0
 12 11  1  0  0  0  0
 13 12  1  0  0  0  0
 14 15  1  0  0  0  0
 15  8  1  0  0  0  0
 16 18  1  6  0  0  0
 16 19  1  0  0  0  0
 18 17  1  0  0  0  0
 19 20  1  0  0  0  0
 20 22  1  0  0  0  0
 21 22  2  0  0  0  0
 21 27  1  0  0  0  0
 22 23  1  0  0  0  0
 23 26  1  0  0  0  0
 25 26  1  0  0  0  0
 26 24  2  0  0  0  0
 27 25  2  0  0  0  0
 28 10  1  0  0  0  0
 28 33  1  1  0  0  0
 29 28  1  0  0  0  0
 30 29  1  0  0  0  0
 31 29  1  0  0  0  0
 32 31  1  0  0  0  0
 32 29  1  0  0  0  0
 33 34  1  0  0  0  0
 34 35  1  0  0  0  0
 35 37  1  0  0  0  0
 36 37  1  0  0  0  0
M  END
>  <MODEL>
1

>  <REMARK>
 VINA RESULT:      -6.0      0.000      0.000
  Name = 
  13 active torsions:
  status: ('A' for Active; 'I' for Inactive)
    1  A    between atoms: C_1  and  C_36
    2  A    between atoms: O_3  and  C_32
    3  A    between atoms: C_6  and  O_31
    4  A    between atoms: C_10  and  C_14
    5  A    between atoms: C_14  and  C_27
    6  A    between atoms: C_14  and  C_37
    7  A    between atoms: C_17  and  C_26
    8  A    between atoms: C_17  and  C_33
    9  A    between atoms: N_24  and  C_28
   10  A    between atoms: C_26  and  C_34
   11  A    between atoms: C_29  and  C_36
   12  A    between atoms: O_31  and  C_37
   13  A    between atoms: C_33  and  C_36
                            x       y       z     vdW  Elec       q    Type
                         _______ _______ _______ _____ _____    ______ ____

>  <TORSDO>
F 13

$$$$
=
 OpenBabel10272414573D

 37 40  0  0  1  0  0  0  0  0999 V2000
  183.0780  178.0370  137.1530 C   0  0  0  0  0  3  0  0  0  0  0  0
  183.1250  173.6390  136.9080 C   0  0  0  0  0  3  0  0  0  0  0  0
  184.2280  177.8110  137.7740 C   0  0  0  0  0  0  0  0  0  0  0  0
  183.4370  175.0040  136.8870 C   0  0  0  0  0  0  0  0  0  0  0  0
  182.4700  175.7770  136.3800 C   0  0  0  0  0  3  0  0  0  0  0  0
  184.7700  175.4270  137.1880 C   0  0  0  0  0  0  0  0  0  0  0  0
  185.4180  173.0650  137.3430 C   0  0  0  0  0  3  0  0  0  0  0  0
  182.5550  177.1830  136.1470 N   0  0  0  0  0  0  0  0  0  0  0  0
  185.7440  174.4190  137.3550 C   0  0  0  0  0  3  0  0  0  0  0  0
  185.1680  176.7180  137.3610 C   0  0  0  0  0  0  0  0  0  0  0  0
  184.0930  172.6680  137.1520 C   0  0  0  0  0  0  0  0  0  0  0  0
  183.7180  171.3230  137.1710 O   0  0  0  0  0  0  0  0  0  0  0  0
  183.9380  170.4480  136.0730 C   0  0  0  0  0  1  0  0  0  0  0  0
  180.8390  178.8970  135.8250 C   0  0  0  0  0  1  0  0  0  0  0  0
  181.6260  177.7630  135.1890 C   0  0  0  0  0  2  0  0  0  0  0  0
  184.4840  178.7040  138.9580 C   0  0  1  0  0  3  0  0  0  0  0  0
  182.4990  179.9640  139.4080 O   0  0  0  0  0  1  0  0  0  0  0  0
  183.7750  180.0490  138.8520 C   0  0  0  0  0  2  0  0  0  0  0  0
  184.2170  178.0160  140.2850 C   0  0  0  0  0  2  0  0  0  0  0  0
  184.6650  178.8300  141.3600 O   0  0  0  0  0  0  0  0  0  0  0  0
  185.3690  178.0690  143.4620 C   0  0  0  0  0  3  0  0  0  0  0  0
  185.6920  178.4300  142.2170 C   0  0  0  0  0  0  0  0  0  0  0  0
  187.1280  178.4080  141.7380 C   0  0  0  0  0  2  0  0  0  0  0  0
  189.3230  177.8840  142.5160 O   0  0  0  0  0  0  0  0  0  0  0  0
  187.6430  177.5840  144.0980 N   0  0  0  0  0  0  0  0  0  0  0  0
  188.0970  177.9490  142.7900 C   0  0  0  0  0  0  0  0  0  0  0  0
  186.3890  177.6340  144.4260 C   0  0  0  0  0  3  0  0  0  0  0  0
  186.6420  177.0400  137.1480 C   0  0  1  0  0  3  0  0  0  0  0  0
  186.9170  177.8180  135.8640 C   0  0  0  0  0  0  0  0  0  0  0  0
  187.2050  179.3070  135.8730 C   0  0  0  0  0  1  0  0  0  0  0  0
  187.6460  177.0420  134.7920 C   0  0  0  0  0  2  0  0  0  0  0  0
  186.1580  177.3340  134.6500 C   0  0  0  0  0  2  0  0  0  0  0  0
  187.4050  177.5650  138.3550 C   0  0  0  0  0  2  0  0  0  0  0  0
  188.6730  176.7610  138.5700 C   0  0  0  0  0  2  0  0  0  0  0  0
  189.8180  177.4260  137.8370 C   0  0  0  0  0  2  0  0  0  0  0  0
  189.8290  175.0940  137.0200 C   0  0  0  0  0  1  0  0  0  0  0  0
  190.6340  176.3720  137.1190 C   0  0  0  0  0  2  0  0  0  0  0  0
  1  3  2  0  0  0  0
  2 11  2  0  0  0  0
  3 16  1  0  0  0  0
  4  2  1  0  0  0  0
  4  6  1  0  0  0  0
  5  4  2  0  0  0  0
  6  9  1  0  0  0  0
  6 10  2  0  0  0  0
  7  9  2  0  0  0  0
  8  5  1  0  0  0  0
  8  1  1  0  0  0  0
 10  3  1  0  0  0  0
 11 12  1  0  0  0  0
 11  7  1  0  0  0  0
 13 12  1  0  0  0  0
 15 14  1  0  0  0  0
 15  8  1  0  0  0  0
 16 18  1  6  0  0  0
 16 19  1  0  0  0  0
 18 17  1  0  0  0  0
 19 20  1  0  0  0  0
 20 22  1  0  0  0  0
 21 27  1  0  0  0  0
 22 21  2  0  0  0  0
 23 22  1  0  0  0  0
 23 26  1  0  0  0  0
 24 26  2  0  0  0  0
 25 27  2  0  0  0  0
 26 25  1  0  0  0  0
 28 10  1  0  0  0  0
 28 33  1  1  0  0  0
 29 30  1  0  0  0  0
 29 28  1  0  0  0  0
 31 29  1  0  0  0  0
 32 31  1  0  0  0  0
 32 29  1  0  0  0  0
 33 34  1  0  0  0  0
 35 34  1  0  0  0  0
 36 37  1  0  0  0  0
 37 35  1  0  0  0  0
M  END
>  <MODEL>
2

>  <REMARK>
 VINA RESULT:      -5.0      1.636      2.088
  Name = 
  13 active torsions:
  status: ('A' for Active; 'I' for Inactive)
    1  A    between atoms: C_1  and  C_36
    2  A    between atoms: O_3  and  C_32
    3  A    between atoms: C_6  and  O_31
    4  A    between atoms: C_10  and  C_14
    5  A    between atoms: C_14  and  C_27
    6  A    between atoms: C_14  and  C_37
    7  A    between atoms: C_17  and  C_26
    8  A    between atoms: C_17  and  C_33
    9  A    between atoms: N_24  and  C_28
   10  A    between atoms: C_26  and  C_34
   11  A    between atoms: C_29  and  C_36
   12  A    between atoms: O_31  and  C_37
   13  A    between atoms: C_33  and  C_36
                            x       y       z     vdW  Elec       q    Type
                         _______ _______ _______ _____ _____    ______ ____

>  <TORSDO>
F 13

$$$$
=
 OpenBabel10272414573D

 37 40  0  0  1  0  0  0  0  0999 V2000
  189.6190  174.5730  136.4840 C   0  0  0  0  0  3  0  0  0  0  0  0
  190.5780  176.5930  140.2790 C   0  0  0  0  0  3  0  0  0  0  0  0
  188.4160  175.0520  136.7690 C   0  0  0  0  0  0  0  0  0  0  0  0
  190.1070  176.2440  139.0080 C   0  0  0  0  0  0  0  0  0  0  0  0
  190.9990  175.5870  138.2560 C   0  0  0  0  0  3  0  0  0  0  0  0
  188.8590  176.7720  138.5490 C   0  0  0  0  0  0  0  0  0  0  0  0
  188.7320  178.0960  140.6100 C   0  0  0  0  0  3  0  0  0  0  0  0
  190.8240  175.2000  136.8930 N   0  0  0  0  0  0  0  0  0  0  0  0
  188.2320  177.7410  139.3610 C   0  0  0  0  0  3  0  0  0  0  0  0
  188.2110  176.3910  137.4130 C   0  0  0  0  0  0  0  0  0  0  0  0
  189.8960  177.4950  141.0920 C   0  0  0  0  0  0  0  0  0  0  0  0
  190.4110  177.7950  142.3560 O   0  0  0  0  0  0  0  0  0  0  0  0
  189.5840  178.1080  143.4680 C   0  0  0  0  0  1  0  0  0  0  0  0
  191.6910  174.8400  134.6340 C   0  0  0  0  0  1  0  0  0  0  0  0
  192.0230  174.9270  136.1150 C   0  0  0  0  0  2  0  0  0  0  0  0
  187.2790  174.1210  136.4440 C   0  0  1  0  0  3  0  0  0  0  0  0
  187.3010  172.3630  134.8200 O   0  0  0  0  0  1  0  0  0  0  0  0
  187.2210  173.7470  134.9670 C   0  0  0  0  0  2  0  0  0  0  0  0
  187.2380  172.9020  137.3480 C   0  0  0  0  0  2  0  0  0  0  0  0
  186.0640  172.9230  138.1470 O   0  0  0  0  0  0  0  0  0  0  0  0
  184.3750  171.9140  136.8730 C   0  0  0  0  0  3  0  0  0  0  0  0
  184.7850  172.9650  137.5880 C   0  0  0  0  0  0  0  0  0  0  0  0
  183.8960  174.1730  137.7940 C   0  0  0  0  0  2  0  0  0  0  0  0
  181.7230  174.9810  137.2240 O   0  0  0  0  0  0  0  0  0  0  0  0
  182.2170  172.8690  136.3800 N   0  0  0  0  0  0  0  0  0  0  0  0
  182.5570  174.0440  137.1260 C   0  0  0  0  0  0  0  0  0  0  0  0
  183.0430  171.8770  136.2520 C   0  0  0  0  0  3  0  0  0  0  0  0
  187.2200  177.3730  136.8000 C   0  0  1  0  0  3  0  0  0  0  0  0
  187.5240  177.7190  135.3440 C   0  0  0  0  0  0  0  0  0  0  0  0
  188.9390  177.7350  134.8020 C   0  0  0  0  0  1  0  0  0  0  0  0
  186.4740  177.2760  134.3520 C   0  0  0  0  0  2  0  0  0  0  0  0
  186.6040  178.7460  134.7270 C   0  0  0  0  0  2  0  0  0  0  0  0
  185.7450  177.1080  137.0680 C   0  0  0  0  0  2  0  0  0  0  0  0
  185.2030  178.1070  138.0710 C   0  0  0  0  0  2  0  0  0  0  0  0
  183.7090  177.9140  138.2130 C   0  0  0  0  0  2  0  0  0  0  0  0
  183.0190  178.6690  140.4620 C   0  0  0  0  0  1  0  0  0  0  0  0
  183.3920  177.4660  139.6230 C   0  0  0  0  0  2  0  0  0  0  0  0
  1  3  2  0  0  0  0
  1  8  1  0  0  0  0
  2 11  2  0  0  0  0
  3 10  1  0  0  0  0
  4  2  1  0  0  0  0
  5  4  2  0  0  0  0
  6  4  1  0  0  0  0
  6  9  1  0  0  0  0
  7 11  1  0  0  0  0
  8  5  1  0  0  0  0
  9  7  2  0  0  0  0
 10  6  2  0  0  0  0
 11 12  1  0  0  0  0
 12 13  1  0  0  0  0
 14 15  1  0  0  0  0
 15  8  1  0  0  0  0
 16 18  1  6  0  0  0
 16  3  1  0  0  0  0
 16 19  1  0  0  0  0
 17 18  1  0  0  0  0
 19 20  1  0  0  0  0
 21 22  2  0  0  0  0
 22 23  1  0  0  0  0
 22 20  1  0  0  0  0
 25 26  1  0  0  0  0
 26 24  2  0  0  0  0
 26 23  1  0  0  0  0
 27 25  2  0  0  0  0
 27 21  1  0  0  0  0
 28 33  1  6  0  0  0
 28 10  1  0  0  0  0
 29 28  1  0  0  0  0
 30 29  1  0  0  0  0
 31 32  1  0  0  0  0
 31 29  1  0  0  0  0
 32 29  1  0  0  0  0
 33 34  1  0  0  0  0
 34 35  1  0  0  0  0
 35 37  1  0  0  0  0
 37 36  1  0  0  0  0
M  END
>  <MODEL>
3

>  <REMARK>
 VINA RESULT:      -5.0      3.191      7.632
  Name = 
  13 active torsions:
  status: ('A' for Active; 'I' for Inactive)
    1  A    between atoms: C_1  and  C_36
    2  A    between atoms: O_3  and  C_32
    3  A    between atoms: C_6  and  O_31
    4  A    between atoms: C_10  and  C_14
    5  A    between atoms: C_14  and  C_27
    6  A    between atoms: C_14  and  C_37
    7  A    between atoms: C_17  and  C_26
    8  A    between atoms: C_17  and  C_33
    9  A    between atoms: N_24  and  C_28
   10  A    between atoms: C_26  and  C_34
   11  A    between atoms: C_29  and  C_36
   12  A    between atoms: O_31  and  C_37
   13  A    between atoms: C_33  and  C_36
                            x       y       z     vdW  Elec       q    Type
                         _______ _______ _______ _____ _____    ______ ____

>  <TORSDO>
F 13

$$$$
=
 OpenBabel10272414573D

 37 40  0  0  1  0  0  0  0  0999 V2000
  189.6120  177.4300  138.1650 C   0  0  0  0  0  3  0  0  0  0  0  0
  186.7100  174.3170  137.0300 C   0  0  0  0  0  3  0  0  0  0  0  0
  190.3700  176.3610  138.3690 C   0  0  0  0  0  0  0  0  0  0  0  0
  187.8450  175.1190  137.1970 C   0  0  0  0  0  0  0  0  0  0  0  0
  187.5950  176.4330  137.1580 C   0  0  0  0  0  3  0  0  0  0  0  0
  189.1430  174.5160  137.1810 C   0  0  0  0  0  0  0  0  0  0  0  0
  188.0720  172.3710  136.6600 C   0  0  0  0  0  3  0  0  0  0  0  0
  188.5720  177.4740  137.2010 N   0  0  0  0  0  0  0  0  0  0  0  0
  189.2120  173.1450  136.8520 C   0  0  0  0  0  3  0  0  0  0  0  0
  190.3090  175.1470  137.4900 C   0  0  0  0  0  0  0  0  0  0  0  0
  186.8070  172.9500  136.7830 C   0  0  0  0  0  0  0  0  0  0  0  0
  185.6370  172.2000  136.6360 O   0  0  0  0  0  0  0  0  0  0  0  0
  185.2160  171.6700  135.3860 C   0  0  0  0  0  1  0  0  0  0  0  0
  187.1060  178.6400  135.6270 C   0  0  0  0  0  1  0  0  0  0  0  0
  188.1830  178.7800  136.6900 C   0  0  0  0  0  2  0  0  0  0  0  0
  191.2540  176.4450  139.5850 C   0  0  1  0  0  3  0  0  0  0  0  0
  193.4610  177.2990  139.9420 O   0  0  0  0  0  1  0  0  0  0  0  0
  192.1670  177.6650  139.5730 C   0  0  0  0  0  2  0  0  0  0  0  0
  190.4820  176.3160  140.8860 C   0  0  0  0  0  2  0  0  0  0  0  0
  190.0660  177.5970  141.3390 O   0  0  0  0  0  0  0  0  0  0  0  0
  187.9190  178.4950  141.0670 C   0  0  0  0  0  3  0  0  0  0  0  0
  188.7820  177.8280  141.8370 C   0  0  0  0  0  0  0  0  0  0  0  0
  188.3910  177.3320  143.2130 C   0  0  0  0  0  2  0  0  0  0  0  0
  186.5250  177.3060  144.7010 O   0  0  0  0  0  0  0  0  0  0  0  0
  186.1290  178.3870  142.6790 N   0  0  0  0  0  0  0  0  0  0  0  0
  186.9740  177.6660  143.5830 C   0  0  0  0  0  0  0  0  0  0  0  0
  186.5480  178.7780  141.5150 C   0  0  0  0  0  3  0  0  0  0  0  0
  191.6010  174.5630  136.9310 C   0  0  1  0  0  3  0  0  0  0  0  0
  191.8240  174.8790  135.4540 C   0  0  0  0  0  0  0  0  0  0  0  0
  191.9090  173.7890  134.4040 C   0  0  0  0  0  1  0  0  0  0  0  0
  191.1970  176.1680  134.9770 C   0  0  0  0  0  2  0  0  0  0  0  0
  192.7020  176.0790  135.1850 C   0  0  0  0  0  2  0  0  0  0  0  0
  192.8490  174.7280  137.7860 C   0  0  0  0  0  2  0  0  0  0  0  0
  193.8730  173.6670  137.4370 C   0  0  0  0  0  2  0  0  0  0  0  0
  194.9770  173.6740  138.4720 C   0  0  0  0  0  2  0  0  0  0  0  0
  196.5660  173.4250  136.5970 C   0  0  0  0  0  1  0  0  0  0  0  0
  196.1600  172.8860  137.9510 C   0  0  0  0  0  2  0  0  0  0  0  0
  1  3  2  0  0  0  0
  2  4  1  0  0  0  0
  3 16  1  0  0  0  0
  5  4  2  0  0  0  0
  5  8  1  0  0  0  0
  6  4  1  0  0  0  0
  6 10  2  0  0  0  0
  7 11  1  0  0  0  0
  7  9  2  0  0  0  0
  8  1  1  0  0  0  0
  9  6  1  0  0  0  0
 10  3  1  0  0  0  0
 11  2  2  0  0  0  0
 12 11  1  0  0  0  0
 13 12  1  0  0  0  0
 14 15  1  0  0  0  0
 15  8  1  0  0  0  0
 16 18  1  1  0  0  0
 16 19  1  0  0  0  0
 18 17  1  0  0  0  0
 19 20  1  0  0  0  0
 20 22  1  0  0  0  0
 21 27  1  0  0  0  0
 21 22  2  0  0  0  0
 22 23  1  0  0  0  0
 23 26  1  0  0  0  0
 25 26  1  0  0  0  0
 26 24  2  0  0  0  0
 27 25  2  0  0  0  0
 28 10  1  0  0  0  0
 28 33  1  1  0  0  0
 29 28  1  0  0  0  0
 30 29  1  0  0  0  0
 31 32  1  0  0  0  0
 31 29  1  0  0  0  0
 32 29  1  0  0  0  0
 34 33  1  0  0  0  0
 34 35  1  0  0  0  0
 36 37  1  0  0  0  0
 37 35  1  0  0  0  0
M  END
>  <MODEL>
4

>  <REMARK>
 VINA RESULT:      -4.7      4.065      5.994
  Name = 
  13 active torsions:
  status: ('A' for Active; 'I' for Inactive)
    1  A    between atoms: C_1  and  C_36
    2  A    between atoms: O_3  and  C_32
    3  A    between atoms: C_6  and  O_31
    4  A    between atoms: C_10  and  C_14
    5  A    between atoms: C_14  and  C_27
    6  A    between atoms: C_14  and  C_37
    7  A    between atoms: C_17  and  C_26
    8  A    between atoms: C_17  and  C_33
    9  A    between atoms: N_24  and  C_28
   10  A    between atoms: C_26  and  C_34
   11  A    between atoms: C_29  and  C_36
   12  A    between atoms: O_31  and  C_37
   13  A    between atoms: C_33  and  C_36
                            x       y       z     vdW  Elec       q    Type
                         _______ _______ _______ _____ _____    ______ ____

>  <TORSDO>
F 13

$$$$
=
 OpenBabel10272414573D

 37 40  0  0  1  0  0  0  0  0999 V2000
  189.0830  177.4350  139.9070 C   0  0  0  0  0  3  0  0  0  0  0  0
  193.0160  176.5090  138.1510 C   0  0  0  0  0  3  0  0  0  0  0  0
  188.7250  177.3660  138.6320 C   0  0  0  0  0  0  0  0  0  0  0  0
  191.6610  176.5530  138.5000 C   0  0  0  0  0  0  0  0  0  0  0  0
  191.4390  176.7160  139.8090 C   0  0  0  0  0  3  0  0  0  0  0  0
  190.6700  176.2220  137.5220 C   0  0  0  0  0  0  0  0  0  0  0  0
  192.4830  175.6640  135.9660 C   0  0  0  0  0  3  0  0  0  0  0  0
  190.1650  176.6960  140.4530 N   0  0  0  0  0  0  0  0  0  0  0  0
  191.1290  175.7270  136.2820 C   0  0  0  0  0  3  0  0  0  0  0  0
  189.3260  176.3780  137.6770 C   0  0  0  0  0  0  0  0  0  0  0  0
  193.4360  176.0890  136.8920 C   0  0  0  0  0  0  0  0  0  0  0  0
  194.8020  176.0780  136.6000 O   0  0  0  0  0  0  0  0  0  0  0  0
  195.3190  176.4430  135.3270 C   0  0  0  0  0  1  0  0  0  0  0  0
  191.4140  176.9210  142.5450 C   0  0  0  0  0  1  0  0  0  0  0  0
  190.1400  176.4240  141.8830 C   0  0  0  0  0  2  0  0  0  0  0  0
  187.7100  178.3940  138.2110 C   0  0  1  0  0  3  0  0  0  0  0  0
  188.9800  180.2290  137.3440 O   0  0  0  0  0  1  0  0  0  0  0  0
  188.1370  179.1800  136.9770 C   0  0  0  0  0  2  0  0  0  0  0  0
  186.3110  177.8210  138.0740 C   0  0  0  0  0  2  0  0  0  0  0  0
  185.3460  178.7790  138.4830 O   0  0  0  0  0  0  0  0  0  0  0  0
  183.4080  178.6420  139.7940 C   0  0  0  0  0  3  0  0  0  0  0  0
  184.7390  178.7320  139.7400 C   0  0  0  0  0  0  0  0  0  0  0  0
  185.5770  178.7810  141.0000 C   0  0  0  0  0  2  0  0  0  0  0  0
  185.3390  178.7470  143.3750 O   0  0  0  0  0  0  0  0  0  0  0  0
  183.3320  178.6210  142.2040 N   0  0  0  0  0  0  0  0  0  0  0  0
  184.7600  178.7170  142.2580 C   0  0  0  0  0  0  0  0  0  0  0  0
  182.6910  178.5860  141.0760 C   0  0  0  0  0  3  0  0  0  0  0  0
  188.4090  175.5200  136.8120 C   0  0  1  0  0  3  0  0  0  0  0  0
  188.2190  176.0650  135.3990 C   0  0  0  0  0  0  0  0  0  0  0  0
  188.9780  177.2780  134.8960 C   0  0  0  0  0  1  0  0  0  0  0  0
  187.9330  175.0200  134.3460 C   0  0  0  0  0  2  0  0  0  0  0  0
  186.8190  175.9280  134.8460 C   0  0  0  0  0  2  0  0  0  0  0  0
  188.6380  174.0170  136.8600 C   0  0  0  0  0  2  0  0  0  0  0  0
  187.4270  173.3160  137.4450 C   0  0  0  0  0  2  0  0  0  0  0  0
  186.8460  172.3740  136.4130 C   0  0  0  0  0  2  0  0  0  0  0  0
  184.8970  173.2020  137.6860 C   0  0  0  0  0  1  0  0  0  0  0  0
  185.3360  172.4770  136.4330 C   0  0  0  0  0  2  0  0  0  0  0  0
  1  8  1  0  0  0  0
  2  4  1  0  0  0  0
  3  1  2  0  0  0  0
  4  5  2  0  0  0  0
  5  8  1  0  0  0  0
  6 10  2  0  0  0  0
  6  4  1  0  0  0  0
  7  9  2  0  0  0  0
  7 11  1  0  0  0  0
  8 15  1  0  0  0  0
  9  6  1  0  0  0  0
 10  3  1  0  0  0  0
 11  2  2  0  0  0  0
 12 11  1  0  0  0  0
 13 12  1  0  0  0  0
 15 14  1  0  0  0  0
 16 18  1  6  0  0  0
 16  3  1  0  0  0  0
 18 17  1  0  0  0  0
 19 16  1  0  0  0  0
 19 20  1  0  0  0  0
 20 22  1  0  0  0  0
 21 27  1  0  0  0  0
 22 21  2  0  0  0  0
 22 23  1  0  0  0  0
 23 26  1  0  0  0  0
 25 26  1  0  0  0  0
 26 24  2  0  0  0  0
 27 25  2  0  0  0  0
 28 33  1  6  0  0  0
 28 10  1  0  0  0  0
 29 28  1  0  0  0  0
 30 29  1  0  0  0  0
 31 32  1  0  0  0  0
 31 29  1  0  0  0  0
 32 29  1  0  0  0  0
 33 34  1  0  0  0  0
 35 37  1  0  0  0  0
 35 34  1  0  0  0  0
 37 36  1  0  0  0  0
M  END
>  <MODEL>
5

>  <REMARK>
 VINA RESULT:      -4.7      3.393      6.931
  Name = 
  13 active torsions:
  status: ('A' for Active; 'I' for Inactive)
    1  A    between atoms: C_1  and  C_36
    2  A    between atoms: O_3  and  C_32
    3  A    between atoms: C_6  and  O_31
    4  A    between atoms: C_10  and  C_14
    5  A    between atoms: C_14  and  C_27
    6  A    between atoms: C_14  and  C_37
    7  A    between atoms: C_17  and  C_26
    8  A    between atoms: C_17  and  C_33
    9  A    between atoms: N_24  and  C_28
   10  A    between atoms: C_26  and  C_34
   11  A    between atoms: C_29  and  C_36
   12  A    between atoms: O_31  and  C_37
   13  A    between atoms: C_33  and  C_36
                            x       y       z     vdW  Elec       q    Type
                         _______ _______ _______ _____ _____    ______ ____

>  <TORSDO>
F 13

$$$$
=
 OpenBabel10272414573D

 37 40  0  0  1  0  0  0  0  0999 V2000
  186.1940  177.9910  138.4620 C   0  0  0  0  0  3  0  0  0  0  0  0
  184.1530  174.1580  137.7180 C   0  0  0  0  0  3  0  0  0  0  0  0
  187.2610  177.2160  138.3240 C   0  0  0  0  0  0  0  0  0  0  0  0
  184.9960  175.2760  137.6900 C   0  0  0  0  0  0  0  0  0  0  0  0
  184.3660  176.4400  137.8870 C   0  0  0  0  0  3  0  0  0  0  0  0
  186.3540  175.1250  137.2630 C   0  0  0  0  0  0  0  0  0  0  0  0
  185.8690  172.7720  136.7620 C   0  0  0  0  0  3  0  0  0  0  0  0
  184.9580  177.7370  137.8120 N   0  0  0  0  0  0  0  0  0  0  0  0
  186.7320  173.8640  136.7520 C   0  0  0  0  0  3  0  0  0  0  0  0
  187.3170  176.0840  137.3410 C   0  0  0  0  0  0  0  0  0  0  0  0
  184.5790  172.9070  137.2790 C   0  0  0  0  0  0  0  0  0  0  0  0
  183.6950  171.8270  137.3420 O   0  0  0  0  0  0  0  0  0  0  0  0
  183.6660  170.7990  136.3610 C   0  0  0  0  0  1  0  0  0  0  0  0
  183.2850  179.1870  138.8530 C   0  0  0  0  0  1  0  0  0  0  0  0
  184.0690  178.8680  137.5910 C   0  0  0  0  0  2  0  0  0  0  0  0
  188.3870  177.5290  139.2720 C   0  0  1  0  0  3  0  0  0  0  0  0
  188.9810  179.5270  138.0940 O   0  0  0  0  0  1  0  0  0  0  0  0
  189.4990  178.3460  138.6240 C   0  0  0  0  0  2  0  0  0  0  0  0
  187.9080  178.1430  140.5760 C   0  0  0  0  0  2  0  0  0  0  0  0
  188.1370  177.2470  141.6530 O   0  0  0  0  0  0  0  0  0  0  0  0
  189.6340  178.5370  142.9140 C   0  0  0  0  0  3  0  0  0  0  0  0
  189.2720  177.3330  142.4630 C   0  0  0  0  0  0  0  0  0  0  0  0
  190.0610  176.0900  142.8150 C   0  0  0  0  0  2  0  0  0  0  0  0
  191.9820  175.4170  144.0620 O   0  0  0  0  0  0  0  0  0  0  0  0
  191.5450  177.7020  144.1240 N   0  0  0  0  0  0  0  0  0  0  0  0
  191.2450  176.3690  143.6960 C   0  0  0  0  0  0  0  0  0  0  0  0
  190.8140  178.7140  143.7730 C   0  0  0  0  0  3  0  0  0  0  0  0
  188.5080  175.9710  136.3980 C   0  0  1  0  0  3  0  0  0  0  0  0
  188.4480  176.9390  135.2190 C   0  0  0  0  0  0  0  0  0  0  0  0
  189.6960  177.3950  134.4890 C   0  0  0  0  0  1  0  0  0  0  0  0
  187.2220  176.8040  134.3460 C   0  0  0  0  0  2  0  0  0  0  0  0
  187.3550  177.9800  135.3040 C   0  0  0  0  0  2  0  0  0  0  0  0
  189.8830  175.8840  137.0450 C   0  0  0  0  0  2  0  0  0  0  0  0
  190.4540  174.4890  136.8860 C   0  0  0  0  0  2  0  0  0  0  0  0
  191.9170  174.4990  137.2720 C   0  0  0  0  0  2  0  0  0  0  0  0
  192.6310  174.7130  134.9160 C   0  0  0  0  0  1  0  0  0  0  0  0
  192.6910  175.3500  136.2880 C   0  0  0  0  0  2  0  0  0  0  0  0
  3  1  2  0  0  0  0
  3 16  1  0  0  0  0
  4  2  1  0  0  0  0
  4  5  2  0  0  0  0
  6 10  2  0  0  0  0
  6  4  1  0  0  0  0
  7 11  1  0  0  0  0
  8  5  1  0  0  0  0
  8  1  1  0  0  0  0
  9  7  2  0  0  0  0
  9  6  1  0  0  0  0
 10  3  1  0  0  0  0
 11 12  1  0  0  0  0
 11  2  2  0  0  0  0
 13 12  1  0  0  0  0
 15  8  1  0  0  0  0
 15 14  1  0  0  0  0
 16 18  1  6  0  0  0
 16 19  1  0  0  0  0
 17 18  1  0  0  0  0
 19 20  1  0  0  0  0
 20 22  1  0  0  0  0
 21 27  1  0  0  0  0
 22 23  1  0  0  0  0
 22 21  2  0  0  0  0
 23 26  1  0  0  0  0
 26 24  2  0  0  0  0
 26 25  1  0  0  0  0
 27 25  2  0  0  0  0
 28 33  1  1  0  0  0
 28 10  1  0  0  0  0
 29 32  1  0  0  0  0
 29 28  1  0  0  0  0
 30 29  1  0  0  0  0
 31 29  1  0  0  0  0
 31 32  1  0  0  0  0
 34 33  1  0  0  0  0
 34 35  1  0  0  0  0
 36 37  1  0  0  0  0
 37 35  1  0  0  0  0
M  END
>  <MODEL>
6

>  <REMARK>
 VINA RESULT:      -4.4      3.029      4.424
  Name = 
  13 active torsions:
  status: ('A' for Active; 'I' for Inactive)
    1  A    between atoms: C_1  and  C_36
    2  A    between atoms: O_3  and  C_32
    3  A    between atoms: C_6  and  O_31
    4  A    between atoms: C_10  and  C_14
    5  A    between atoms: C_14  and  C_27
    6  A    between atoms: C_14  and  C_37
    7  A    between atoms: C_17  and  C_26
    8  A    between atoms: C_17  and  C_33
    9  A    between atoms: N_24  and  C_28
   10  A    between atoms: C_26  and  C_34
   11  A    between atoms: C_29  and  C_36
   12  A    between atoms: O_31  and  C_37
   13  A    between atoms: C_33  and  C_36
                            x       y       z     vdW  Elec       q    Type
                         _______ _______ _______ _____ _____    ______ ____

>  <TORSDO>
F 13

$$$$
=
 OpenBabel10272414573D

 37 40  0  0  1  0  0  0  0  0999 V2000
  185.3660  177.2330  137.1400 C   0  0  0  0  0  3  0  0  0  0  0  0
  185.8880  178.6340  141.2840 C   0  0  0  0  0  3  0  0  0  0  0  0
  184.2340  176.7730  137.6550 C   0  0  0  0  0  0  0  0  0  0  0  0
  185.4060  178.3140  140.0090 C   0  0  0  0  0  0  0  0  0  0  0  0
  186.2830  178.5340  139.0230 C   0  0  0  0  0  3  0  0  0  0  0  0
  184.0200  178.0020  139.8370 C   0  0  0  0  0  0  0  0  0  0  0  0
  183.6730  178.5200  142.2100 C   0  0  0  0  0  3  0  0  0  0  0  0
  186.0270  178.3920  137.6250 N   0  0  0  0  0  0  0  0  0  0  0  0
  183.1770  178.1730  140.9570 C   0  0  0  0  0  3  0  0  0  0  0  0
  183.4550  177.5210  138.6950 C   0  0  0  0  0  0  0  0  0  0  0  0
  185.0430  178.7200  142.3880 C   0  0  0  0  0  0  0  0  0  0  0  0
  185.5860  179.0320  143.6370 O   0  0  0  0  0  0  0  0  0  0  0  0
  185.9780  178.0380  144.5740 C   0  0  0  0  0  1  0  0  0  0  0  0
  188.3610  178.7580  136.9890 C   0  0  0  0  0  1  0  0  0  0  0  0
  186.9070  179.0990  136.7070 C   0  0  0  0  0  2  0  0  0  0  0  0
  183.8270  175.4140  137.1500 C   0  0  1  0  0  3  0  0  0  0  0  0
  184.3760  175.0050  134.8570 O   0  0  0  0  0  1  0  0  0  0  0  0
  183.3540  175.4360  135.7010 C   0  0  0  0  0  2  0  0  0  0  0  0
  184.8840  174.3520  137.3950 C   0  0  0  0  0  2  0  0  0  0  0  0
  184.2690  173.1040  137.6810 O   0  0  0  0  0  0  0  0  0  0  0  0
  185.4410  171.8670  136.0720 C   0  0  0  0  0  3  0  0  0  0  0  0
  184.3300  172.0260  136.7960 C   0  0  0  0  0  0  0  0  0  0  0  0
  183.1640  171.0680  136.6710 C   0  0  0  0  0  2  0  0  0  0  0  0
  182.5130  169.1030  135.4820 O   0  0  0  0  0  0  0  0  0  0  0  0
  184.6370  169.8890  134.9510 N   0  0  0  0  0  0  0  0  0  0  0  0
  183.4060  169.9670  135.6770 C   0  0  0  0  0  0  0  0  0  0  0  0
  185.5870  170.7570  135.1200 C   0  0  0  0  0  3  0  0  0  0  0  0
  181.9600  177.7400  138.4970 C   0  0  1  0  0  3  0  0  0  0  0  0
  181.6290  178.9890  137.6840 C   0  0  0  0  0  0  0  0  0  0  0  0
  181.4970  178.9520  136.1740 C   0  0  0  0  0  1  0  0  0  0  0  0
  180.7130  179.9730  138.3730 C   0  0  0  0  0  2  0  0  0  0  0  0
  182.1980  180.2760  138.2330 C   0  0  0  0  0  2  0  0  0  0  0  0
  181.1400  176.5200  138.1030 C   0  0  0  0  0  2  0  0  0  0  0  0
  180.1470  176.1750  139.1950 C   0  0  0  0  0  2  0  0  0  0  0  0
  180.1550  174.6800  139.4270 C   0  0  0  0  0  2  0  0  0  0  0  0
  179.9830  172.6290  138.0580 C   0  0  0  0  0  1  0  0  0  0  0  0
  180.6530  173.9810  138.1790 C   0  0  0  0  0  2  0  0  0  0  0  0
  1  8  1  0  0  0  0
  1  3  2  0  0  0  0
  2 11  2  0  0  0  0
  3 10  1  0  0  0  0
  4  2  1  0  0  0  0
  5  4  2  0  0  0  0
  6  4  1  0  0  0  0
  6  9  1  0  0  0  0
  7 11  1  0  0  0  0
  8  5  1  0  0  0  0
  9  7  2  0  0  0  0
 10  6  2  0  0  0  0
 11 12  1  0  0  0  0
 12 13  1  0  0  0  0
 15 14  1  0  0  0  0
 15  8  1  0  0  0  0
 16 18  1  6  0  0  0
 16 19  1  0  0  0  0
 16  3  1  0  0  0  0
 17 18  1  0  0  0  0
 19 20  1  0  0  0  0
 21 22  2  0  0  0  0
 22 20  1  0  0  0  0
 23 22  1  0  0  0  0
 24 26  2  0  0  0  0
 25 27  2  0  0  0  0
 25 26  1  0  0  0  0
 26 23  1  0  0  0  0
 27 21  1  0  0  0  0
 28 33  1  6  0  0  0
 28 10  1  0  0  0  0
 29 32  1  0  0  0  0
 29 31  1  0  0  0  0
 29 28  1  0  0  0  0
 30 29  1  0  0  0  0
 32 31  1  0  0  0  0
 33 34  1  0  0  0  0
 34 35  1  0  0  0  0
 36 37  1  0  0  0  0
 37 35  1  0  0  0  0
M  END
>  <MODEL>
7

>  <REMARK>
 VINA RESULT:      -4.3      2.395      7.982
  Name = 
  13 active torsions:
  status: ('A' for Active; 'I' for Inactive)
    1  A    between atoms: C_1  and  C_36
    2  A    between atoms: O_3  and  C_32
    3  A    between atoms: C_6  and  O_31
    4  A    between atoms: C_10  and  C_14
    5  A    between atoms: C_14  and  C_27
    6  A    between atoms: C_14  and  C_37
    7  A    between atoms: C_17  and  C_26
    8  A    between atoms: C_17  and  C_33
    9  A    between atoms: N_24  and  C_28
   10  A    between atoms: C_26  and  C_34
   11  A    between atoms: C_29  and  C_36
   12  A    between atoms: O_31  and  C_37
   13  A    between atoms: C_33  and  C_36
                            x       y       z     vdW  Elec       q    Type
                         _______ _______ _______ _____ _____    ______ ____

>  <TORSDO>
F 13

$$$$
=
 OpenBabel10272414573D

 37 40  0  0  1  0  0  0  0  0999 V2000
  185.2550  179.0350  139.4110 C   0  0  0  0  0  3  0  0  0  0  0  0
  182.4780  175.8940  138.0580 C   0  0  0  0  0  3  0  0  0  0  0  0
  186.1350  178.0700  139.1860 C   0  0  0  0  0  0  0  0  0  0  0  0
  183.5440  176.7890  138.2170 C   0  0  0  0  0  0  0  0  0  0  0  0
  183.1700  178.0250  138.5680 C   0  0  0  0  0  3  0  0  0  0  0  0
  184.8580  176.4010  137.8060 C   0  0  0  0  0  0  0  0  0  0  0  0
  183.9050  174.3080  136.9500 C   0  0  0  0  0  3  0  0  0  0  0  0
  184.0320  179.1560  138.7000 N   0  0  0  0  0  0  0  0  0  0  0  0
  184.9830  175.1710  137.1240 C   0  0  0  0  0  3  0  0  0  0  0  0
  186.0000  177.1020  138.0480 C   0  0  0  0  0  0  0  0  0  0  0  0
  182.6480  174.6520  137.4500 C   0  0  0  0  0  0  0  0  0  0  0  0
  181.5490  173.7980  137.3310 O   0  0  0  0  0  0  0  0  0  0  0  0
  180.3800  174.1470  136.6000 C   0  0  0  0  0  1  0  0  0  0  0  0
  181.9150  180.3780  138.7850 C   0  0  0  0  0  1  0  0  0  0  0  0
  183.4230  180.4750  138.6270 C   0  0  0  0  0  2  0  0  0  0  0  0
  187.2470  177.9910  140.1970 C   0  0  1  0  0  3  0  0  0  0  0  0
  189.6280  177.8080  140.3530 O   0  0  0  0  0  1  0  0  0  0  0  0
  188.5980  178.4060  139.6280 C   0  0  0  0  0  2  0  0  0  0  0  0
  186.9200  178.7140  141.4920 C   0  0  0  0  0  2  0  0  0  0  0  0
  186.3400  177.8140  142.4250 O   0  0  0  0  0  0  0  0  0  0  0  0
  184.2780  178.6680  143.1400 C   0  0  0  0  0  3  0  0  0  0  0  0
  185.5060  178.2490  143.4570 C   0  0  0  0  0  0  0  0  0  0  0  0
  185.9900  178.2390  144.8910 C   0  0  0  0  0  2  0  0  0  0  0  0
  185.2390  178.7750  147.0930 O   0  0  0  0  0  0  0  0  0  0  0  0
  183.6700  179.1630  145.4200 N   0  0  0  0  0  0  0  0  0  0  0  0
  184.9610  178.7360  145.8670 C   0  0  0  0  0  0  0  0  0  0  0  0
  183.3370  179.1400  144.1660 C   0  0  0  0  0  3  0  0  0  0  0  0
  187.1900  176.8580  137.1280 C   0  0  1  0  0  3  0  0  0  0  0  0
  187.6160  178.0950  136.3420 C   0  0  0  0  0  0  0  0  0  0  0  0
  186.7260  179.3160  136.2210 C   0  0  0  0  0  1  0  0  0  0  0  0
  189.0970  178.3960  136.3810 C   0  0  0  0  0  2  0  0  0  0  0  0
  188.4650  177.8150  135.1230 C   0  0  0  0  0  2  0  0  0  0  0  0
  188.3560  176.0780  137.7170 C   0  0  0  0  0  2  0  0  0  0  0  0
  188.5480  174.7720  136.9710 C   0  0  0  0  0  2  0  0  0  0  0  0
  189.9730  174.6850  136.4690 C   0  0  0  0  0  2  0  0  0  0  0  0
  192.0080  176.0330  136.8580 C   0  0  0  0  0  1  0  0  0  0  0  0
  190.9120  175.2300  137.5250 C   0  0  0  0  0  2  0  0  0  0  0  0
  2  4  1  0  0  0  0
  3  1  2  0  0  0  0
  3 16  1  0  0  0  0
  4  5  2  0  0  0  0
  5  8  1  0  0  0  0
  6 10  2  0  0  0  0
  6  4  1  0  0  0  0
  7  9  2  0  0  0  0
  7 11  1  0  0  0  0
  8  1  1  0  0  0  0
  9  6  1  0  0  0  0
 10  3  1  0  0  0  0
 11  2  2  0  0  0  0
 12 11  1  0  0  0  0
 13 12  1  0  0  0  0
 15  8  1  0  0  0  0
 15 14  1  0  0  0  0
 16 18  1  6  0  0  0
 16 19  1  0  0  0  0
 18 17  1  0  0  0  0
 19 20  1  0  0  0  0
 20 22  1  0  0  0  0
 21 22  2  0  0  0  0
 21 27  1  0  0  0  0
 22 23  1  0  0  0  0
 23 26  1  0  0  0  0
 25 26  1  0  0  0  0
 26 24  2  0  0  0  0
 27 25  2  0  0  0  0
 28 33  1  1  0  0  0
 28 10  1  0  0  0  0
 29 31  1  0  0  0  0
 29 28  1  0  0  0  0
 30 29  1  0  0  0  0
 32 29  1  0  0  0  0
 32 31  1  0  0  0  0
 34 33  1  0  0  0  0
 35 34  1  0  0  0  0
 35 37  1  0  0  0  0
 36 37  1  0  0  0  0
M  END
>  <MODEL>
8

>  <REMARK>
 VINA RESULT:      -4.3      2.157      3.313
  Name = 
  13 active torsions:
  status: ('A' for Active; 'I' for Inactive)
    1  A    between atoms: C_1  and  C_36
    2  A    between atoms: O_3  and  C_32
    3  A    between atoms: C_6  and  O_31
    4  A    between atoms: C_10  and  C_14
    5  A    between atoms: C_14  and  C_27
    6  A    between atoms: C_14  and  C_37
    7  A    between atoms: C_17  and  C_26
    8  A    between atoms: C_17  and  C_33
    9  A    between atoms: N_24  and  C_28
   10  A    between atoms: C_26  and  C_34
   11  A    between atoms: C_29  and  C_36
   12  A    between atoms: O_31  and  C_37
   13  A    between atoms: C_33  and  C_36
                            x       y       z     vdW  Elec       q    Type
                         _______ _______ _______ _____ _____    ______ ____

>  <TORSDO>
F 13

$$$$
=
 OpenBabel10272414573D

 37 40  0  0  1  0  0  0  0  0999 V2000
  185.2880  177.4970  137.3950 C   0  0  0  0  0  3  0  0  0  0  0  0
  186.5070  178.3380  141.5450 C   0  0  0  0  0  3  0  0  0  0  0  0
  184.1580  177.1740  138.0080 C   0  0  0  0  0  0  0  0  0  0  0  0
  185.8370  178.2410  140.3190 C   0  0  0  0  0  0  0  0  0  0  0  0
  186.6230  178.4200  139.2510 C   0  0  0  0  0  3  0  0  0  0  0  0
  184.4080  178.1790  140.3000 C   0  0  0  0  0  0  0  0  0  0  0  0
  184.4240  178.4860  142.7340 C   0  0  0  0  0  3  0  0  0  0  0  0
  186.1920  178.4740  137.8910 N   0  0  0  0  0  0  0  0  0  0  0  0
  183.7380  178.3630  141.5290 C   0  0  0  0  0  3  0  0  0  0  0  0
  183.6440  177.9230  139.2020 C   0  0  0  0  0  0  0  0  0  0  0  0
  185.8190  178.4400  142.7510 C   0  0  0  0  0  0  0  0  0  0  0  0
  186.5440  178.5230  143.9420 O   0  0  0  0  0  0  0  0  0  0  0  0
  185.9510  178.3190  145.2180 C   0  0  0  0  0  1  0  0  0  0  0  0
  187.9740  178.1020  136.2570 C   0  0  0  0  0  1  0  0  0  0  0  0
  187.0740  179.1230  136.9330 C   0  0  0  0  0  2  0  0  0  0  0  0
  183.4650  175.9630  137.4430 C   0  0  1  0  0  3  0  0  0  0  0  0
  182.2560  175.0680  135.5820 O   0  0  0  0  0  1  0  0  0  0  0  0
  183.0420  176.1450  135.9910 C   0  0  0  0  0  2  0  0  0  0  0  0
  184.2490  174.6810  137.6580 C   0  0  0  0  0  2  0  0  0  0  0  0
  183.3900  173.5560  137.5500 O   0  0  0  0  0  0  0  0  0  0  0  0
  182.9400  171.3470  136.9060 C   0  0  0  0  0  3  0  0  0  0  0  0
  183.7660  172.3970  136.8680 C   0  0  0  0  0  0  0  0  0  0  0  0
  185.0740  172.3420  136.1080 C   0  0  0  0  0  2  0  0  0  0  0  0
  186.3670  170.8490  134.7670 O   0  0  0  0  0  0  0  0  0  0  0  0
  184.3600  169.9590  135.5380 N   0  0  0  0  0  0  0  0  0  0  0  0
  185.3140  171.0220  135.4330 C   0  0  0  0  0  0  0  0  0  0  0  0
  183.2600  170.0910  136.2140 C   0  0  0  0  0  3  0  0  0  0  0  0
  182.1970  178.4020  139.2180 C   0  0  1  0  0  3  0  0  0  0  0  0
  181.9340  179.5780  138.2790 C   0  0  0  0  0  0  0  0  0  0  0  0
  181.5190  179.3750  136.8350 C   0  0  0  0  0  1  0  0  0  0  0  0
  181.3400  180.8000  138.9400 C   0  0  0  0  0  2  0  0  0  0  0  0
  182.8030  180.7910  138.5180 C   0  0  0  0  0  2  0  0  0  0  0  0
  181.1230  177.3260  139.1630 C   0  0  0  0  0  2  0  0  0  0  0  0
  180.6900  176.9400  140.5640 C   0  0  0  0  0  2  0  0  0  0  0  0
  179.9930  178.1150  141.2150 C   0  0  0  0  0  2  0  0  0  0  0  0
  180.7010  179.2120  143.3130 C   0  0  0  0  0  1  0  0  0  0  0  0
  180.0670  177.9720  142.7200 C   0  0  0  0  0  2  0  0  0  0  0  0
  1  8  1  0  0  0  0
  1  3  2  0  0  0  0
  2 11  2  0  0  0  0
  3 10  1  0  0  0  0
  4  2  1  0  0  0  0
  5  4  2  0  0  0  0
  6  4  1  0  0  0  0
  6  9  1  0  0  0  0
  7 11  1  0  0  0  0
  8  5  1  0  0  0  0
  9  7  2  0  0  0  0
 10 28  1  0  0  0  0
 10  6  2  0  0  0  0
 11 12  1  0  0  0  0
 12 13  1  0  0  0  0
 14 15  1  0  0  0  0
 15  8  1  0  0  0  0
 16 18  1  6  0  0  0
 16 19  1  0  0  0  0
 16  3  1  0  0  0  0
 17 18  1  0  0  0  0
 20 19  1  0  0  0  0
 22 21  2  0  0  0  0
 22 20  1  0  0  0  0
 23 22  1  0  0  0  0
 24 26  2  0  0  0  0
 25 27  2  0  0  0  0
 26 25  1  0  0  0  0
 26 23  1  0  0  0  0
 27 21  1  0  0  0  0
 28 33  1  6  0  0  0
 29 32  1  0  0  0  0
 29 31  1  0  0  0  0
 29 28  1  0  0  0  0
 30 29  1  0  0  0  0
 32 31  1  0  0  0  0
 33 34  1  0  0  0  0
 34 35  1  0  0  0  0
 35 37  1  0  0  0  0
 37 36  1  0  0  0  0
M  END
>  <MODEL>
9

>  <REMARK>
 VINA RESULT:      -4.2      2.465      7.866
  Name = 
  13 active torsions:
  status: ('A' for Active; 'I' for Inactive)
    1  A    between atoms: C_1  and  C_36
    2  A    between atoms: O_3  and  C_32
    3  A    between atoms: C_6  and  O_31
    4  A    between atoms: C_10  and  C_14
    5  A    between atoms: C_14  and  C_27
    6  A    between atoms: C_14  and  C_37
    7  A    between atoms: C_17  and  C_26
    8  A    between atoms: C_17  and  C_33
    9  A    between atoms: N_24  and  C_28
   10  A    between atoms: C_26  and  C_34
   11  A    between atoms: C_29  and  C_36
   12  A    between atoms: O_31  and  C_37
   13  A    between atoms: C_33  and  C_36
                            x       y       z     vdW  Elec       q    Type
                         _______ _______ _______ _____ _____    ______ ____

>  <TORSDO>
F 13

$$$$
