=
 OpenBabel10272414283D

 43 49  0  0  1  0  0  0  0  0999 V2000
  188.5690  178.6770  143.7990 C   0  0  2  0  0  3  0  0  0  0  0  0
  181.4980  178.8610  143.5510 C   0  0  0  0  0  0  0  0  0  0  0  0
  186.2880  177.8350  144.6360 C   0  0  2  0  0  3  0  0  0  0  0  0
  183.6210  178.6940  144.7130 C   0  0  0  0  0  0  0  0  0  0  0  0
  182.1600  178.8210  142.3200 C   0  0  0  0  0  3  0  0  0  0  0  0
  180.0170  178.9700  143.5940 C   0  0  0  0  0  1  0  0  0  0  0  0
  184.2860  178.6210  143.4640 C   0  0  0  0  0  0  0  0  0  0  0  0
  182.2270  178.7960  144.7420 C   0  0  0  0  0  3  0  0  0  0  0  0
  183.5520  178.7120  142.2750 C   0  0  0  0  0  3  0  0  0  0  0  0
  186.5270  178.0250  142.2880 C   0  0  0  0  0  2  0  0  0  0  0  0
  185.7830  178.6220  143.4590 C   0  0  2  0  0  3  0  0  0  0  0  0
  185.9100  178.5760  145.9030 C   0  0  0  0  0  2  0  0  0  0  0  0
  187.7590  177.5220  144.3890 C   0  0  1  0  0  3  0  0  0  0  0  0
  187.8920  177.6530  142.8770 C   0  0  2  0  0  0  0  0  0  0  0  0
  184.3710  178.5750  146.0310 C   0  0  0  0  0  2  0  0  0  0  0  0
  188.9770  175.5210  142.8930 O   0  0  0  0  0  0  0  0  0  0  0  0
  188.6890  176.5510  142.2290 C   0  0  0  0  0  0  0  0  0  0  0  0
  189.0920  176.6310  140.8920 O   0  0  0  0  0  0  0  0  0  0  0  0
  191.3770  175.3240  139.1560 O   0  0  0  0  0  1  0  0  0  0  0  0
  191.4370  176.7020  138.9300 C   0  0  2  0  0  0  0  0  0  0  0  0
  189.7720  177.7660  140.3560 C   0  0  1  0  0  3  0  0  0  0  0  0
  187.9020  177.7340  138.6170 C   0  0  0  0  0  1  0  0  0  0  0  0
  191.2570  177.4730  140.2350 C   0  0  1  0  0  3  0  0  0  0  0  0
  190.2660  177.1290  138.0490 C   0  0  0  0  0  2  0  0  0  0  0  0
  191.8530  176.7920  141.4630 C   0  0  0  0  0  1  0  0  0  0  0  0
  189.3690  178.0080  138.9050 C   0  0  2  0  0  3  0  0  0  0  0  0
  192.6830  175.4520  136.3980 N   0  0  0  0  0  0  0  0  0  0  0  0
  193.2940  176.5310  137.1230 C   0  0  0  0  0  0  0  0  0  0  0  0
  192.7180  177.0630  138.3270 N   0  0  0  0  0  2  0  0  0  0  0  0
  191.6120  174.6790  134.3460 C   0  0  0  0  0  2  0  0  0  0  0  0
  191.1870  173.5240  136.3690 C   0  0  0  0  0  2  0  0  0  0  0  0
  191.4960  173.3540  134.9530 N   0  0  0  0  0  2  0  0  0  0  0  0
  192.3530  174.2050  137.0790 C   0  0  0  0  0  2  0  0  0  0  0  0
  192.8060  175.4200  134.9430 C   0  0  0  0  0  2  0  0  0  0  0  0
  194.3420  177.0650  136.6710 O   0  0  0  0  0  0  0  0  0  0  0  0
  190.0490  178.4020  144.0260 C   0  0  0  0  0  2  0  0  0  0  0  0
  189.6970  177.4850  147.7450 C   0  0  0  0  0  2  0  0  0  0  0  0
  191.9650  175.9360  146.2010 C   0  0  0  0  0  2  0  0  0  0  0  0
  191.1130  175.8020  147.4640 C   0  0  0  0  0  2  0  0  0  0  0  0
  189.7740  178.3670  146.5010 C   0  0  0  0  0  2  0  0  0  0  0  0
  190.2430  177.5720  145.2800 C   0  0  2  0  0  3  0  0  0  0  0  0
  190.9710  177.0350  148.1100 O   0  0  0  0  0  0  0  0  0  0  0  0
  191.7240  177.2350  145.4230 C   0  0  0  0  0  2  0  0  0  0  0  0
  1 36  1  1  0  0  0
  1 13  1  0  0  0  0
  2  6  1  0  0  0  0
  2  8  1  0  0  0  0
  3 12  1  1  0  0  0
  4  8  2  0  0  0  0
  4 15  1  0  0  0  0
  5  2  2  0  0  0  0
  7  4  1  0  0  0  0
  9  5  1  0  0  0  0
  9  7  2  0  0  0  0
 10 14  1  0  0  0  0
 11 10  1  6  0  0  0
 11  7  1  0  0  0  0
 11  3  1  0  0  0  0
 12 15  1  0  0  0  0
 13  3  1  0  0  0  0
 14  1  1  0  0  0  0
 14 13  1  0  0  0  0
 17 14  1  0  0  0  0
 17 16  2  0  0  0  0
 18 17  1  0  0  0  0
 20 19  1  0  0  0  0
 20 23  1  0  0  0  0
 21 18  1  0  0  0  0
 22 26  1  0  0  0  0
 23 21  1  0  0  0  0
 23 25  1  0  0  0  0
 24 26  1  0  0  0  0
 24 20  1  0  0  0  0
 26 21  1  0  0  0  0
 27 33  1  0  0  0  0
 27 28  1  0  0  0  0
 28 29  1  0  0  0  0
 29 20  1  0  0  0  0
 30 34  1  0  0  0  0
 30 32  1  0  0  0  0
 31 33  1  0  0  0  0
 32 31  1  0  0  0  0
 34 27  1  0  0  0  0
 35 28  2  0  0  0  0
 36 41  1  0  0  0  0
 37 42  1  0  0  0  0
 38 39  1  0  0  0  0
 39 42  1  0  0  0  0
 40 37  1  0  0  0  0
 41 43  1  0  0  0  0
 41 40  1  0  0  0  0
 43 38  1  0  0  0  0
M  END
>  <MODEL>
1

>  <REMARK>
 VINA RESULT:     -10.1      0.000      0.000
  Name = 
  6 active torsions:
  status: ('A' for Active; 'I' for Inactive)
    1  A    between atoms: C_1  and  C_28
    2  A    between atoms: O_2  and  C_6
    3  A    between atoms: O_2  and  C_13
    4  A    between atoms: C_4  and  N_22
    5  A    between atoms: C_13  and  C_38
    6  A    between atoms: C_28  and  C_35
                            x       y       z     vdW  Elec       q    Type
                         _______ _______ _______ _____ _____    ______ ____

>  <TORSDO>
F 6

$$$$
=
 OpenBabel10272414283D

 43 49  0  0  1  0  0  0  0  0999 V2000
  186.7500  177.4010  142.7170 C   0  0  2  0  0  3  0  0  0  0  0  0
  191.9450  176.0960  147.3430 C   0  0  0  0  0  0  0  0  0  0  0  0
  188.2910  178.1920  144.6170 C   0  0  2  0  0  3  0  0  0  0  0  0
  189.8320  177.0880  146.6820 C   0  0  0  0  0  0  0  0  0  0  0  0
  192.1590  175.6590  146.0320 C   0  0  0  0  0  3  0  0  0  0  0  0
  192.9520  175.8040  148.3960 C   0  0  0  0  0  1  0  0  0  0  0  0
  190.0670  176.6710  145.3480 C   0  0  0  0  0  0  0  0  0  0  0  0
  190.7860  176.8080  147.6650 C   0  0  0  0  0  3  0  0  0  0  0  0
  191.2180  175.9360  145.0380 C   0  0  0  0  0  3  0  0  0  0  0  0
  189.3330  176.9770  142.8730 C   0  0  0  0  0  2  0  0  0  0  0  0
  188.9820  176.8860  144.3390 C   0  0  2  0  0  3  0  0  0  0  0  0
  187.5630  178.0730  145.9410 C   0  0  0  0  0  2  0  0  0  0  0  0
  187.4880  178.5660  143.3780 C   0  0  1  0  0  3  0  0  0  0  0  0
  188.1700  177.7740  142.2700 C   0  0  2  0  0  0  0  0  0  0  0  0
  188.6100  177.9090  147.0640 C   0  0  0  0  0  2  0  0  0  0  0  0
  188.5470  179.8040  141.0620 O   0  0  0  0  0  0  0  0  0  0  0  0
  188.4020  178.5550  141.0030 C   0  0  0  0  0  0  0  0  0  0  0  0
  188.4920  177.9200  139.7600 O   0  0  0  0  0  0  0  0  0  0  0  0
  189.8360  175.3620  138.4960 O   0  0  0  0  0  1  0  0  0  0  0  0
  190.1470  176.4370  137.6580 C   0  0  2  0  0  0  0  0  0  0  0  0
  189.2390  178.4590  138.6690 C   0  0  1  0  0  3  0  0  0  0  0  0
  187.0030  178.3670  137.4380 C   0  0  0  0  0  1  0  0  0  0  0  0
  190.5220  177.6700  138.4760 C   0  0  1  0  0  3  0  0  0  0  0  0
  188.9090  176.8440  136.8650 C   0  0  0  0  0  2  0  0  0  0  0  0
  191.2630  177.3710  139.7750 C   0  0  0  0  0  1  0  0  0  0  0  0
  188.5140  178.2300  137.3470 C   0  0  2  0  0  3  0  0  0  0  0  0
  190.2470  174.0450  135.7090 N   0  0  0  0  0  0  0  0  0  0  0  0
  191.3050  175.0100  135.8230 C   0  0  0  0  0  0  0  0  0  0  0  0
  191.2560  176.0860  136.7730 N   0  0  0  0  0  2  0  0  0  0  0  0
  188.4760  173.0640  134.3460 C   0  0  0  0  0  2  0  0  0  0  0  0
  188.3370  172.8950  136.7040 C   0  0  0  0  0  2  0  0  0  0  0  0
  188.1800  172.1580  135.4550 N   0  0  0  0  0  2  0  0  0  0  0  0
  189.7950  173.3100  136.8840 C   0  0  0  0  0  2  0  0  0  0  0  0
  189.9440  173.4820  134.3960 C   0  0  0  0  0  2  0  0  0  0  0  0
  192.2890  174.9460  135.0380 O   0  0  0  0  0  0  0  0  0  0  0  0
  185.6630  177.9620  141.8110 C   0  0  0  0  0  2  0  0  0  0  0  0
  181.8900  178.5150  142.3100 C   0  0  0  0  0  2  0  0  0  0  0  0
  183.6610  179.0390  144.8630 C   0  0  0  0  0  2  0  0  0  0  0  0
  182.2100  178.7270  144.4940 C   0  0  0  0  0  2  0  0  0  0  0  0
  183.2580  178.5800  141.6330 C   0  0  0  0  0  2  0  0  0  0  0  0
  184.3730  178.1440  142.5860 C   0  0  2  0  0  3  0  0  0  0  0  0
  181.8140  179.4410  143.3570 O   0  0  0  0  0  0  0  0  0  0  0  0
  184.5870  179.2130  143.6530 C   0  0  0  0  0  2  0  0  0  0  0  0
  1 36  1  6  0  0  0
  1 13  1  0  0  0  0
  2  8  1  0  0  0  0
  2  6  1  0  0  0  0
  3 12  1  1  0  0  0
  4 15  1  0  0  0  0
  4  8  2  0  0  0  0
  5  2  2  0  0  0  0
  7  4  1  0  0  0  0
  9  7  2  0  0  0  0
  9  5  1  0  0  0  0
 11 10  1  6  0  0  0
 11  3  1  0  0  0  0
 11  7  1  0  0  0  0
 12 15  1  0  0  0  0
 13  3  1  0  0  0  0
 14  1  1  0  0  0  0
 14 10  1  0  0  0  0
 14 13  1  0  0  0  0
 17 16  2  0  0  0  0
 17 14  1  0  0  0  0
 18 17  1  0  0  0  0
 20 23  1  0  0  0  0
 20 19  1  0  0  0  0
 21 18  1  0  0  0  0
 23 21  1  0  0  0  0
 23 25  1  0  0  0  0
 24 26  1  0  0  0  0
 24 20  1  0  0  0  0
 26 22  1  0  0  0  0
 26 21  1  0  0  0  0
 27 28  1  0  0  0  0
 27 33  1  0  0  0  0
 28 29  1  0  0  0  0
 29 20  1  0  0  0  0
 30 34  1  0  0  0  0
 30 32  1  0  0  0  0
 31 33  1  0  0  0  0
 32 31  1  0  0  0  0
 34 27  1  0  0  0  0
 35 28  2  0  0  0  0
 36 41  1  0  0  0  0
 37 42  1  0  0  0  0
 39 38  1  0  0  0  0
 40 37  1  0  0  0  0
 40 41  1  0  0  0  0
 41 43  1  0  0  0  0
 42 39  1  0  0  0  0
 43 38  1  0  0  0  0
M  END
>  <MODEL>
2

>  <REMARK>
 VINA RESULT:      -9.0      2.040      5.856
  Name = 
  6 active torsions:
  status: ('A' for Active; 'I' for Inactive)
    1  A    between atoms: C_1  and  C_28
    2  A    between atoms: O_2  and  C_6
    3  A    between atoms: O_2  and  C_13
    4  A    between atoms: C_4  and  N_22
    5  A    between atoms: C_13  and  C_38
    6  A    between atoms: C_28  and  C_35
                            x       y       z     vdW  Elec       q    Type
                         _______ _______ _______ _____ _____    ______ ____

>  <TORSDO>
F 6

$$$$
=
 OpenBabel10272414283D

 43 49  0  0  1  0  0  0  0  0999 V2000
  183.1700  177.9710  140.7840 C   0  0  2  0  0  3  0  0  0  0  0  0
  187.0890  177.8930  146.6770 C   0  0  0  0  0  0  0  0  0  0  0  0
  184.2100  179.2080  142.7840 C   0  0  2  0  0  3  0  0  0  0  0  0
  185.2020  178.6260  145.3400 C   0  0  0  0  0  0  0  0  0  0  0  0
  187.6120  177.2070  145.5770 C   0  0  0  0  0  3  0  0  0  0  0  0
  187.8110  177.8720  147.9760 C   0  0  0  0  0  1  0  0  0  0  0  0
  185.7510  177.9560  144.2190 C   0  0  0  0  0  0  0  0  0  0  0  0
  185.8890  178.6000  146.5580 C   0  0  0  0  0  3  0  0  0  0  0  0
  186.9400  177.2280  144.3520 C   0  0  0  0  0  3  0  0  0  0  0  0
  185.6380  177.7110  141.6330 C   0  0  0  0  0  2  0  0  0  0  0  0
  184.9430  177.9070  142.9600 C   0  0  2  0  0  3  0  0  0  0  0  0
  183.1830  179.3290  143.8920 C   0  0  0  0  0  2  0  0  0  0  0  0
  183.7300  179.2800  141.3400 C   0  0  1  0  0  3  0  0  0  0  0  0
  184.6580  178.3110  140.6180 C   0  0  2  0  0  0  0  0  0  0  0  0
  183.9270  179.4490  145.2400 C   0  0  0  0  0  2  0  0  0  0  0  0
  184.8680  179.9760  138.9140 O   0  0  0  0  0  0  0  0  0  0  0  0
  185.1910  178.8250  139.3070 C   0  0  0  0  0  0  0  0  0  0  0  0
  186.0670  178.0630  138.5250 O   0  0  0  0  0  0  0  0  0  0  0  0
  188.5250  176.1230  138.1550 O   0  0  0  0  0  1  0  0  0  0  0  0
  188.5090  176.9710  137.0440 C   0  0  2  0  0  0  0  0  0  0  0  0
  186.7020  178.5750  137.3540 C   0  0  1  0  0  3  0  0  0  0  0  0
  184.9390  177.2020  136.1180 C   0  0  0  0  0  1  0  0  0  0  0  0
  188.2070  178.4070  137.4630 C   0  0  1  0  0  3  0  0  0  0  0  0
  187.3650  176.5770  136.1140 C   0  0  0  0  0  2  0  0  0  0  0  0
  188.7750  178.8070  138.8210 C   0  0  0  0  0  1  0  0  0  0  0  0
  186.3670  177.7220  136.1350 C   0  0  2  0  0  3  0  0  0  0  0  0
  189.7510  174.5190  135.6390 N   0  0  0  0  0  0  0  0  0  0  0  0
  190.3710  175.8140  135.6510 C   0  0  0  0  0  0  0  0  0  0  0  0
  189.7970  176.9270  136.3530 N   0  0  0  0  0  2  0  0  0  0  0  0
  188.6780  172.7470  134.3470 C   0  0  0  0  0  2  0  0  0  0  0  0
  188.2330  172.9080  136.6670 C   0  0  0  0  0  2  0  0  0  0  0  0
  188.5460  171.9800  135.5850 N   0  0  0  0  0  2  0  0  0  0  0  0
  189.4040  173.8600  136.8930 C   0  0  0  0  0  2  0  0  0  0  0  0
  189.8780  173.6860  134.4450 C   0  0  0  0  0  2  0  0  0  0  0  0
  191.4270  176.0020  134.9880 O   0  0  0  0  0  0  0  0  0  0  0  0
  182.3370  178.2820  139.5490 C   0  0  0  0  0  2  0  0  0  0  0  0
  180.0040  175.2490  139.9430 C   0  0  0  0  0  2  0  0  0  0  0  0
  181.7790  175.2330  137.3400 C   0  0  0  0  0  2  0  0  0  0  0  0
  180.4930  174.6040  137.8790 C   0  0  0  0  0  2  0  0  0  0  0  0
  181.0060  176.3310  140.3400 C   0  0  0  0  0  2  0  0  0  0  0  0
  181.5650  177.0520  139.1110 C   0  0  2  0  0  3  0  0  0  0  0  0
  180.6380  174.2320  139.2200 O   0  0  0  0  0  0  0  0  0  0  0  0
  182.5080  176.1230  138.3530 C   0  0  0  0  0  2  0  0  0  0  0  0
  1 36  1  6  0  0  0
  1 13  1  0  0  0  0
  2  6  1  0  0  0  0
  3 11  1  0  0  0  0
  3 12  1  1  0  0  0
  4  8  2  0  0  0  0
  5  2  2  0  0  0  0
  7  9  2  0  0  0  0
  7  4  1  0  0  0  0
  8  2  1  0  0  0  0
  9  5  1  0  0  0  0
 11 10  1  6  0  0  0
 11  7  1  0  0  0  0
 12 15  1  0  0  0  0
 13  3  1  0  0  0  0
 14  1  1  0  0  0  0
 14 13  1  0  0  0  0
 14 10  1  0  0  0  0
 15  4  1  0  0  0  0
 16 17  2  0  0  0  0
 17 14  1  0  0  0  0
 18 17  1  0  0  0  0
 20 23  1  0  0  0  0
 20 19  1  0  0  0  0
 21 23  1  0  0  0  0
 21 18  1  0  0  0  0
 22 26  1  0  0  0  0
 23 25  1  0  0  0  0
 24 26  1  0  0  0  0
 24 20  1  0  0  0  0
 26 21  1  0  0  0  0
 27 28  1  0  0  0  0
 27 33  1  0  0  0  0
 28 29  1  0  0  0  0
 29 20  1  0  0  0  0
 30 34  1  0  0  0  0
 30 32  1  0  0  0  0
 31 33  1  0  0  0  0
 32 31  1  0  0  0  0
 34 27  1  0  0  0  0
 35 28  2  0  0  0  0
 37 40  1  0  0  0  0
 38 39  1  0  0  0  0
 38 43  1  0  0  0  0
 39 42  1  0  0  0  0
 41 36  1  0  0  0  0
 41 40  1  0  0  0  0
 42 37  1  0  0  0  0
 43 41  1  0  0  0  0
M  END
>  <MODEL>
3

>  <REMARK>
 VINA RESULT:      -8.9      3.204      6.516
  Name = 
  6 active torsions:
  status: ('A' for Active; 'I' for Inactive)
    1  A    between atoms: C_1  and  C_28
    2  A    between atoms: O_2  and  C_6
    3  A    between atoms: O_2  and  C_13
    4  A    between atoms: C_4  and  N_22
    5  A    between atoms: C_13  and  C_38
    6  A    between atoms: C_28  and  C_35
                            x       y       z     vdW  Elec       q    Type
                         _______ _______ _______ _____ _____    ______ ____

>  <TORSDO>
F 6

$$$$
=
 OpenBabel10272414283D

 43 49  0  0  1  0  0  0  0  0999 V2000
  186.9930  177.2350  139.1810 C   0  0  2  0  0  3  0  0  0  0  0  0
  188.1630  177.5220  146.1550 C   0  0  0  0  0  0  0  0  0  0  0  0
  186.9440  178.5400  141.3960 C   0  0  2  0  0  3  0  0  0  0  0  0
  186.8920  178.0210  144.1490 C   0  0  0  0  0  0  0  0  0  0  0  0
  189.1790  176.9560  145.3800 C   0  0  0  0  0  3  0  0  0  0  0  0
  188.2930  177.5610  147.6350 C   0  0  0  0  0  1  0  0  0  0  0  0
  187.9380  177.4750  143.3650 C   0  0  0  0  0  0  0  0  0  0  0  0
  187.0240  178.0530  145.5410 C   0  0  0  0  0  3  0  0  0  0  0  0
  189.0630  176.9220  143.9880 C   0  0  0  0  0  3  0  0  0  0  0  0
  188.9160  177.3040  140.9620 C   0  0  0  0  0  2  0  0  0  0  0  0
  187.7240  177.3530  141.8880 C   0  0  2  0  0  3  0  0  0  0  0  0
  185.5510  178.4740  141.9900 C   0  0  0  0  0  2  0  0  0  0  0  0
  187.0840  178.5920  139.8790 C   0  0  1  0  0  3  0  0  0  0  0  0
  188.3540  177.7910  139.6210 C   0  0  2  0  0  0  0  0  0  0  0  0
  185.6610  178.6550  143.5200 C   0  0  0  0  0  2  0  0  0  0  0  0
  189.2060  179.6530  138.3850 O   0  0  0  0  0  0  0  0  0  0  0  0
  189.2910  178.4200  138.6240 C   0  0  0  0  0  0  0  0  0  0  0  0
  190.2810  177.6710  137.9780 O   0  0  0  0  0  0  0  0  0  0  0  0
  191.7840  176.5880  135.4270 O   0  0  0  0  0  1  0  0  0  0  0  0
  191.8560  175.5820  136.3950 C   0  0  2  0  0  0  0  0  0  0  0  0
  190.5900  176.3250  138.3390 C   0  0  1  0  0  3  0  0  0  0  0  0
  192.5810  177.3840  139.5390 C   0  0  0  0  0  1  0  0  0  0  0  0
  190.5190  175.4290  137.1150 C   0  0  1  0  0  3  0  0  0  0  0  0
  192.8510  175.9830  137.4790 C   0  0  0  0  0  2  0  0  0  0  0  0
  189.2930  175.6740  136.2420 C   0  0  0  0  0  1  0  0  0  0  0  0
  192.0520  176.1950  138.7540 C   0  0  2  0  0  3  0  0  0  0  0  0
  194.5540  174.9070  135.0570 N   0  0  0  0  0  0  0  0  0  0  0  0
  193.4870  173.9560  135.1950 C   0  0  0  0  0  0  0  0  0  0  0  0
  192.2220  174.3090  135.7770 N   0  0  0  0  0  2  0  0  0  0  0  0
  196.8170  175.5850  135.6710 C   0  0  0  0  0  2  0  0  0  0  0  0
  195.2920  177.2290  134.9100 C   0  0  0  0  0  2  0  0  0  0  0  0
  196.6640  176.7450  134.7950 N   0  0  0  0  0  2  0  0  0  0  0  0
  194.3220  176.1770  134.3790 C   0  0  0  0  0  2  0  0  0  0  0  0
  195.9340  174.4420  135.1770 C   0  0  0  0  0  2  0  0  0  0  0  0
  193.6720  172.7610  134.8400 O   0  0  0  0  0  0  0  0  0  0  0  0
  186.6940  177.4640  137.7060 C   0  0  0  0  0  2  0  0  0  0  0  0
  184.0150  176.0010  135.3660 C   0  0  0  0  0  2  0  0  0  0  0  0
  182.9980  176.7420  138.2550 C   0  0  0  0  0  2  0  0  0  0  0  0
  182.6040  175.8570  137.0710 C   0  0  0  0  0  2  0  0  0  0  0  0
  185.1930  176.8650  135.8120 C   0  0  0  0  0  2  0  0  0  0  0  0
  185.3710  176.8260  137.3310 C   0  0  2  0  0  3  0  0  0  0  0  0
  182.8110  176.5200  135.8560 O   0  0  0  0  0  0  0  0  0  0  0  0
  184.2420  177.6020  138.0020 C   0  0  0  0  0  2  0  0  0  0  0  0
  1 36  1  6  0  0  0
  1 14  1  0  0  0  0
  1 13  1  0  0  0  0
  2  6  1  0  0  0  0
  3 11  1  0  0  0  0
  3 12  1  6  0  0  0
  4  8  2  0  0  0  0
  5  2  2  0  0  0  0
  7  9  2  0  0  0  0
  7  4  1  0  0  0  0
  8  2  1  0  0  0  0
  9  5  1  0  0  0  0
 11 10  1  6  0  0  0
 11  7  1  0  0  0  0
 12 15  1  0  0  0  0
 13  3  1  0  0  0  0
 14 13  1  0  0  0  0
 14 10  1  0  0  0  0
 15  4  1  0  0  0  0
 16 17  2  0  0  0  0
 17 14  1  0  0  0  0
 18 21  1  0  0  0  0
 18 17  1  0  0  0  0
 19 20  1  0  0  0  0
 20 23  1  0  0  0  0
 20 24  1  0  0  0  0
 21 26  1  0  0  0  0
 23 21  1  0  0  0  0
 24 26  1  0  0  0  0
 25 23  1  0  0  0  0
 26 22  1  0  0  0  0
 27 34  1  0  0  0  0
 27 28  1  0  0  0  0
 28 29  1  0  0  0  0
 29 20  1  0  0  0  0
 32 31  1  0  0  0  0
 32 30  1  0  0  0  0
 33 31  1  0  0  0  0
 33 27  1  0  0  0  0
 34 30  1  0  0  0  0
 35 28  2  0  0  0  0
 37 40  1  0  0  0  0
 37 42  1  0  0  0  0
 39 38  1  0  0  0  0
 40 41  1  0  0  0  0
 41 36  1  0  0  0  0
 41 43  1  0  0  0  0
 42 39  1  0  0  0  0
 43 38  1  0  0  0  0
M  END
>  <MODEL>
4

>  <REMARK>
 VINA RESULT:      -8.4      2.858      6.615
  Name = 
  6 active torsions:
  status: ('A' for Active; 'I' for Inactive)
    1  A    between atoms: C_1  and  C_28
    2  A    between atoms: O_2  and  C_6
    3  A    between atoms: O_2  and  C_13
    4  A    between atoms: C_4  and  N_22
    5  A    between atoms: C_13  and  C_38
    6  A    between atoms: C_28  and  C_35
                            x       y       z     vdW  Elec       q    Type
                         _______ _______ _______ _____ _____    ______ ____

>  <TORSDO>
F 6

$$$$
=
 OpenBabel10272414283D

 43 49  0  0  1  0  0  0  0  0999 V2000
  189.1060  178.4760  143.0530 C   0  0  2  0  0  3  0  0  0  0  0  0
  182.6710  179.1480  140.1860 C   0  0  0  0  0  0  0  0  0  0  0  0
  186.6620  177.7020  142.8600 C   0  0  2  0  0  3  0  0  0  0  0  0
  184.1850  178.7210  142.0320 C   0  0  0  0  0  0  0  0  0  0  0  0
  183.7510  179.1940  139.3000 C   0  0  0  0  0  3  0  0  0  0  0  0
  181.2870  179.3490  139.6810 C   0  0  0  0  0  1  0  0  0  0  0  0
  185.2750  178.7370  141.1260 C   0  0  0  0  0  0  0  0  0  0  0  0
  182.8880  178.9110  141.5460 C   0  0  0  0  0  3  0  0  0  0  0  0
  185.0520  179.0000  139.7690 C   0  0  0  0  0  3  0  0  0  0  0  0
  187.7820  178.1220  140.8170 C   0  0  0  0  0  2  0  0  0  0  0  0
  186.6600  178.6400  141.6860 C   0  0  2  0  0  3  0  0  0  0  0  0
  185.8440  178.3290  143.9710 C   0  0  0  0  0  2  0  0  0  0  0  0
  188.1080  177.3210  143.1490 C   0  0  1  0  0  3  0  0  0  0  0  0
  188.8110  177.6010  141.8270 C   0  0  2  0  0  0  0  0  0  0  0  0
  184.3730  178.4160  143.5100 C   0  0  0  0  0  2  0  0  0  0  0  0
  190.2570  175.7440  142.2590 O   0  0  0  0  0  0  0  0  0  0  0  0
  189.7720  176.5230  141.3970 C   0  0  0  0  0  0  0  0  0  0  0  0
  190.1170  176.3460  140.0530 O   0  0  0  0  0  0  0  0  0  0  0  0
  192.6880  175.1940  138.6370 O   0  0  0  0  0  1  0  0  0  0  0  0
  192.4290  176.4380  138.0530 C   0  0  2  0  0  0  0  0  0  0  0  0
  190.5260  177.4240  139.2110 C   0  0  1  0  0  3  0  0  0  0  0  0
  188.7600  176.4990  137.6150 C   0  0  0  0  0  1  0  0  0  0  0  0
  192.0410  177.4630  139.1150 C   0  0  1  0  0  3  0  0  0  0  0  0
  191.2140  176.3320  137.1370 C   0  0  0  0  0  2  0  0  0  0  0  0
  192.7480  177.2910  140.4550 C   0  0  0  0  0  1  0  0  0  0  0  0
  190.1140  177.1720  137.7650 C   0  0  2  0  0  3  0  0  0  0  0  0
  194.0940  174.8290  136.0120 N   0  0  0  0  0  0  0  0  0  0  0  0
  194.3640  176.2010  136.3380 C   0  0  0  0  0  0  0  0  0  0  0  0
  193.6050  176.9130  137.3270 N   0  0  0  0  0  2  0  0  0  0  0  0
  193.3730  173.1980  134.3460 C   0  0  0  0  0  2  0  0  0  0  0  0
  193.1500  172.6670  136.6430 C   0  0  0  0  0  2  0  0  0  0  0  0
  193.5700  172.1490  135.3450 N   0  0  0  0  0  2  0  0  0  0  0  0
  194.0590  173.8190  137.0640 C   0  0  0  0  0  2  0  0  0  0  0  0
  194.3000  174.3740  134.6390 C   0  0  0  0  0  2  0  0  0  0  0  0
  195.2620  176.8220  135.7080 O   0  0  0  0  0  0  0  0  0  0  0  0
  190.3810  178.0820  143.7850 C   0  0  0  0  0  2  0  0  0  0  0  0
  191.0220  176.9150  147.3930 C   0  0  0  0  0  2  0  0  0  0  0  0
  188.0880  177.9080  146.8170 C   0  0  0  0  0  2  0  0  0  0  0  0
  189.0360  177.6930  147.9980 C   0  0  0  0  0  2  0  0  0  0  0  0
  191.0690  176.9010  145.8670 C   0  0  0  0  0  2  0  0  0  0  0  0
  190.1120  177.9360  145.2700 C   0  0  2  0  0  3  0  0  0  0  0  0
  189.7630  176.5070  147.8510 O   0  0  0  0  0  0  0  0  0  0  0  0
  188.6700  177.4770  145.4660 C   0  0  0  0  0  2  0  0  0  0  0  0
  1 13  1  0  0  0  0
  1 36  1  1  0  0  0
  2  8  1  0  0  0  0
  3 13  1  0  0  0  0
  3 12  1  1  0  0  0
  4 15  1  0  0  0  0
  5  9  1  0  0  0  0
  5  2  2  0  0  0  0
  6  2  1  0  0  0  0
  7 11  1  0  0  0  0
  7  4  1  0  0  0  0
  8  4  2  0  0  0  0
  9  7  2  0  0  0  0
 10 14  1  0  0  0  0
 11 10  1  6  0  0  0
 11  3  1  0  0  0  0
 14  1  1  0  0  0  0
 14 13  1  0  0  0  0
 15 12  1  0  0  0  0
 17 14  1  0  0  0  0
 17 16  2  0  0  0  0
 18 17  1  0  0  0  0
 20 19  1  0  0  0  0
 20 23  1  0  0  0  0
 21 18  1  0  0  0  0
 22 26  1  0  0  0  0
 23 21  1  0  0  0  0
 23 25  1  0  0  0  0
 24 26  1  0  0  0  0
 24 20  1  0  0  0  0
 26 21  1  0  0  0  0
 27 28  1  0  0  0  0
 27 33  1  0  0  0  0
 28 29  1  0  0  0  0
 29 20  1  0  0  0  0
 30 34  1  0  0  0  0
 30 32  1  0  0  0  0
 31 33  1  0  0  0  0
 32 31  1  0  0  0  0
 34 27  1  0  0  0  0
 35 28  2  0  0  0  0
 36 41  1  0  0  0  0
 37 42  1  0  0  0  0
 38 39  1  0  0  0  0
 40 37  1  0  0  0  0
 41 43  1  0  0  0  0
 41 40  1  0  0  0  0
 42 39  1  0  0  0  0
 43 38  1  0  0  0  0
M  END
>  <MODEL>
5

>  <REMARK>
 VINA RESULT:      -8.4      1.535      2.158
  Name = 
  6 active torsions:
  status: ('A' for Active; 'I' for Inactive)
    1  A    between atoms: C_1  and  C_28
    2  A    between atoms: O_2  and  C_6
    3  A    between atoms: O_2  and  C_13
    4  A    between atoms: C_4  and  N_22
    5  A    between atoms: C_13  and  C_38
    6  A    between atoms: C_28  and  C_35
                            x       y       z     vdW  Elec       q    Type
                         _______ _______ _______ _____ _____    ______ ____

>  <TORSDO>
F 6

$$$$
=
 OpenBabel10272414283D

 43 49  0  0  1  0  0  0  0  0999 V2000
  187.9200  177.1330  142.7490 C   0  0  2  0  0  3  0  0  0  0  0  0
  192.7170  176.4520  137.5910 C   0  0  0  0  0  0  0  0  0  0  0  0
  189.9480  178.0460  141.4590 C   0  0  2  0  0  3  0  0  0  0  0  0
  192.0130  177.0880  139.8230 C   0  0  0  0  0  0  0  0  0  0  0  0
  191.3930  176.1620  137.2470 C   0  0  0  0  0  3  0  0  0  0  0  0
  193.8010  176.2700  136.5900 C   0  0  0  0  0  1  0  0  0  0  0  0
  190.6680  176.8240  139.4620 C   0  0  0  0  0  0  0  0  0  0  0  0
  193.0250  176.9140  138.8740 C   0  0  0  0  0  3  0  0  0  0  0  0
  190.3710  176.3370  138.1830 C   0  0  0  0  0  3  0  0  0  0  0  0
  188.1840  177.1770  140.1400 C   0  0  0  0  0  2  0  0  0  0  0  0
  189.6200  176.9130  140.5270 C   0  0  2  0  0  3  0  0  0  0  0  0
  191.2200  177.6960  142.2040 C   0  0  0  0  0  2  0  0  0  0  0  0
  188.6950  178.3590  142.2680 C   0  0  1  0  0  3  0  0  0  0  0  0
  187.5750  177.7910  141.4060 C   0  0  2  0  0  0  0  0  0  0  0  0
  192.3840  177.6410  141.1910 C   0  0  0  0  0  2  0  0  0  0  0  0
  186.5000  179.9260  141.5080 O   0  0  0  0  0  0  0  0  0  0  0  0
  186.3770  178.6950  141.2730 C   0  0  0  0  0  0  0  0  0  0  0  0
  185.1330  178.2040  140.8630 O   0  0  0  0  0  0  0  0  0  0  0  0
  183.3950  176.1480  139.2210 O   0  0  0  0  0  1  0  0  0  0  0  0
  182.7490  177.3850  139.1310 C   0  0  2  0  0  0  0  0  0  0  0  0
  184.1300  179.0330  140.2760 C   0  0  1  0  0  3  0  0  0  0  0  0
  182.9780  178.7880  142.5420 C   0  0  0  0  0  1  0  0  0  0  0  0
  183.7590  178.5070  138.9010 C   0  0  1  0  0  3  0  0  0  0  0  0
  182.0820  177.7130  140.4630 C   0  0  0  0  0  2  0  0  0  0  0  0
  184.9590  178.1170  138.0450 C   0  0  0  0  0  1  0  0  0  0  0  0
  182.8140  178.9160  141.0360 C   0  0  2  0  0  3  0  0  0  0  0  0
  182.5480  175.2750  136.8870 N   0  0  0  0  0  0  0  0  0  0  0  0
  181.6350  176.3760  137.0130 C   0  0  0  0  0  0  0  0  0  0  0  0
  181.7800  177.3730  138.0370 N   0  0  0  0  0  2  0  0  0  0  0  0
  182.9070  172.8620  136.9730 C   0  0  0  0  0  2  0  0  0  0  0  0
  184.7480  174.3100  137.3200 C   0  0  0  0  0  2  0  0  0  0  0  0
  184.3100  173.0990  136.6340 N   0  0  0  0  0  2  0  0  0  0  0  0
  183.9820  175.5180  136.7870 C   0  0  0  0  0  2  0  0  0  0  0  0
  182.0410  173.9880  136.4150 C   0  0  0  0  0  2  0  0  0  0  0  0
  180.6470  176.4540  136.2340 O   0  0  0  0  0  0  0  0  0  0  0  0
  186.9960  177.5530  143.8840 C   0  0  0  0  0  2  0  0  0  0  0  0
  190.0240  177.2840  146.2410 C   0  0  0  0  0  2  0  0  0  0  0  0
  187.3060  178.0380  147.6460 C   0  0  0  0  0  2  0  0  0  0  0  0
  188.8120  178.1310  147.8940 C   0  0  0  0  0  2  0  0  0  0  0  0
  189.0680  176.9130  145.1090 C   0  0  0  0  0  2  0  0  0  0  0  0
  187.7890  177.7530  145.1610 C   0  0  2  0  0  3  0  0  0  0  0  0
  189.4640  176.9630  147.4840 O   0  0  0  0  0  0  0  0  0  0  0  0
  186.9330  177.3160  146.3460 C   0  0  0  0  0  2  0  0  0  0  0  0
  1 36  1  1  0  0  0
  2  8  1  0  0  0  0
  3 12  1  1  0  0  0
  3 13  1  0  0  0  0
  4 15  1  0  0  0  0
  5  2  2  0  0  0  0
  5  9  1  0  0  0  0
  6  2  1  0  0  0  0
  7  4  1  0  0  0  0
  7 11  1  0  0  0  0
  8  4  2  0  0  0  0
  9  7  2  0  0  0  0
 10 14  1  0  0  0  0
 11 10  1  6  0  0  0
 11  3  1  0  0  0  0
 13  1  1  0  0  0  0
 14 13  1  0  0  0  0
 14  1  1  0  0  0  0
 15 12  1  0  0  0  0
 17 14  1  0  0  0  0
 17 16  2  0  0  0  0
 18 17  1  0  0  0  0
 20 19  1  0  0  0  0
 20 24  1  0  0  0  0
 21 18  1  0  0  0  0
 21 26  1  0  0  0  0
 23 20  1  0  0  0  0
 23 21  1  0  0  0  0
 24 26  1  0  0  0  0
 25 23  1  0  0  0  0
 26 22  1  0  0  0  0
 27 28  1  0  0  0  0
 28 29  1  0  0  0  0
 29 20  1  0  0  0  0
 32 30  1  0  0  0  0
 32 31  1  0  0  0  0
 33 27  1  0  0  0  0
 33 31  1  0  0  0  0
 34 27  1  0  0  0  0
 34 30  1  0  0  0  0
 35 28  2  0  0  0  0
 36 41  1  0  0  0  0
 37 42  1  0  0  0  0
 38 39  1  0  0  0  0
 40 41  1  0  0  0  0
 40 37  1  0  0  0  0
 41 43  1  0  0  0  0
 42 39  1  0  0  0  0
 43 38  1  0  0  0  0
M  END
>  <MODEL>
6

>  <REMARK>
 VINA RESULT:      -8.0      4.021      7.831
  Name = 
  6 active torsions:
  status: ('A' for Active; 'I' for Inactive)
    1  A    between atoms: C_1  and  C_28
    2  A    between atoms: O_2  and  C_6
    3  A    between atoms: O_2  and  C_13
    4  A    between atoms: C_4  and  N_22
    5  A    between atoms: C_13  and  C_38
    6  A    between atoms: C_28  and  C_35
                            x       y       z     vdW  Elec       q    Type
                         _______ _______ _______ _____ _____    ______ ____

>  <TORSDO>
F 6

$$$$
=
 OpenBabel10272414283D

 43 49  0  0  1  0  0  0  0  0999 V2000
  189.0260  177.3420  140.3040 C   0  0  2  0  0  3  0  0  0  0  0  0
  193.3510  173.5460  136.1850 C   0  0  0  0  0  0  0  0  0  0  0  0
  190.9820  177.2240  138.6400 C   0  0  2  0  0  3  0  0  0  0  0  0
  192.8610  175.3590  137.7210 C   0  0  0  0  0  0  0  0  0  0  0  0
  191.9920  173.2270  136.1150 C   0  0  0  0  0  3  0  0  0  0  0  0
  194.3400  172.7550  135.4070 C   0  0  0  0  0  1  0  0  0  0  0  0
  191.4810  175.0530  137.6230 C   0  0  0  0  0  0  0  0  0  0  0  0
  193.7830  174.6090  136.9840 C   0  0  0  0  0  3  0  0  0  0  0  0
  191.0590  173.9710  136.8400 C   0  0  0  0  0  3  0  0  0  0  0  0
  189.0780  175.9250  138.0970 C   0  0  0  0  0  2  0  0  0  0  0  0
  190.5280  175.7980  138.5040 C   0  0  2  0  0  3  0  0  0  0  0  0
  192.2930  177.2360  139.4000 C   0  0  0  0  0  2  0  0  0  0  0  0
  189.8150  178.0340  139.1930 C   0  0  1  0  0  3  0  0  0  0  0  0
  188.6030  177.1820  138.8370 C   0  0  2  0  0  0  0  0  0  0  0  0
  193.3670  176.5380  138.5370 C   0  0  0  0  0  2  0  0  0  0  0  0
  187.6610  178.9990  137.5990 O   0  0  0  0  0  0  0  0  0  0  0  0
  187.4420  177.9610  138.2770 C   0  0  0  0  0  0  0  0  0  0  0  0
  186.1220  177.5400  138.4660 O   0  0  0  0  0  0  0  0  0  0  0  0
  183.9150  175.3180  138.0960 O   0  0  0  0  0  1  0  0  0  0  0  0
  183.2960  176.5470  137.8480 C   0  0  2  0  0  0  0  0  0  0  0  0
  184.9980  178.2830  137.9930 C   0  0  1  0  0  3  0  0  0  0  0  0
  184.6250  178.7880  140.4680 C   0  0  0  0  0  1  0  0  0  0  0  0
  184.1980  177.4480  137.0090 C   0  0  1  0  0  3  0  0  0  0  0  0
  183.0950  177.2950  139.1630 C   0  0  0  0  0  2  0  0  0  0  0  0
  185.0560  176.7130  135.9840 C   0  0  0  0  0  1  0  0  0  0  0  0
  183.9910  178.5200  139.1130 C   0  0  2  0  0  3  0  0  0  0  0  0
  182.3830  173.9660  136.4230 N   0  0  0  0  0  0  0  0  0  0  0  0
  181.5610  175.1390  136.5240 C   0  0  0  0  0  0  0  0  0  0  0  0
  182.0280  176.3450  137.1490 N   0  0  0  0  0  2  0  0  0  0  0  0
  182.7450  171.6310  137.0340 C   0  0  0  0  0  2  0  0  0  0  0  0
  184.6040  172.9530  136.4000 C   0  0  0  0  0  2  0  0  0  0  0  0
  183.9660  171.6520  136.2300 N   0  0  0  0  0  2  0  0  0  0  0  0
  183.7110  174.0500  135.8260 C   0  0  0  0  0  2  0  0  0  0  0  0
  181.7490  172.6510  136.4890 C   0  0  0  0  0  2  0  0  0  0  0  0
  180.3770  175.1040  136.0950 O   0  0  0  0  0  0  0  0  0  0  0  0
  188.2180  178.3910  141.0550 C   0  0  0  0  0  2  0  0  0  0  0  0
  190.1650  177.9550  144.3430 C   0  0  0  0  0  2  0  0  0  0  0  0
  187.0910  177.2880  144.5190 C   0  0  0  0  0  2  0  0  0  0  0  0
  188.2570  177.6620  145.4350 C   0  0  0  0  0  2  0  0  0  0  0  0
  189.8630  177.8640  142.8490 C   0  0  0  0  0  2  0  0  0  0  0  0
  188.4070  178.2300  142.5510 C   0  0  2  0  0  3  0  0  0  0  0  0
  189.4290  177.0000  145.0540 O   0  0  0  0  0  0  0  0  0  0  0  0
  187.4850  177.1200  143.0460 C   0  0  0  0  0  2  0  0  0  0  0  0
  1 36  1  1  0  0  0
  2  8  1  0  0  0  0
  3 13  1  0  0  0  0
  3 12  1  1  0  0  0
  4 15  1  0  0  0  0
  5  2  2  0  0  0  0
  5  9  1  0  0  0  0
  6  2  1  0  0  0  0
  7  4  1  0  0  0  0
  7 11  1  0  0  0  0
  8  4  2  0  0  0  0
  9  7  2  0  0  0  0
 10 14  1  0  0  0  0
 11 10  1  6  0  0  0
 11  3  1  0  0  0  0
 13  1  1  0  0  0  0
 14 13  1  0  0  0  0
 14  1  1  0  0  0  0
 15 12  1  0  0  0  0
 16 17  2  0  0  0  0
 17 18  1  0  0  0  0
 17 14  1  0  0  0  0
 20 19  1  0  0  0  0
 20 24  1  0  0  0  0
 21 18  1  0  0  0  0
 21 26  1  0  0  0  0
 23 20  1  0  0  0  0
 23 21  1  0  0  0  0
 25 23  1  0  0  0  0
 26 24  1  0  0  0  0
 26 22  1  0  0  0  0
 27 34  1  0  0  0  0
 27 28  1  0  0  0  0
 28 29  1  0  0  0  0
 29 20  1  0  0  0  0
 32 31  1  0  0  0  0
 32 30  1  0  0  0  0
 33 31  1  0  0  0  0
 33 27  1  0  0  0  0
 34 30  1  0  0  0  0
 35 28  2  0  0  0  0
 36 41  1  0  0  0  0
 37 42  1  0  0  0  0
 38 39  1  0  0  0  0
 40 37  1  0  0  0  0
 41 40  1  0  0  0  0
 41 43  1  0  0  0  0
 42 39  1  0  0  0  0
 43 38  1  0  0  0  0
M  END
>  <MODEL>
7

>  <REMARK>
 VINA RESULT:      -7.9      4.360      8.705
  Name = 
  6 active torsions:
  status: ('A' for Active; 'I' for Inactive)
    1  A    between atoms: C_1  and  C_28
    2  A    between atoms: O_2  and  C_6
    3  A    between atoms: O_2  and  C_13
    4  A    between atoms: C_4  and  N_22
    5  A    between atoms: C_13  and  C_38
    6  A    between atoms: C_28  and  C_35
                            x       y       z     vdW  Elec       q    Type
                         _______ _______ _______ _____ _____    ______ ____

>  <TORSDO>
F 6

$$$$
=
 OpenBabel10272414283D

 43 49  0  0  1  0  0  0  0  0999 V2000
  189.1860  178.2340  138.3210 C   0  0  2  0  0  3  0  0  0  0  0  0
  186.5730  177.8020  144.8840 C   0  0  0  0  0  0  0  0  0  0  0  0
  188.6190  176.8390  140.4060 C   0  0  2  0  0  3  0  0  0  0  0  0
  188.1620  177.2280  143.1430 C   0  0  0  0  0  0  0  0  0  0  0  0
  185.8140  178.5290  143.9620 C   0  0  0  0  0  3  0  0  0  0  0  0
  186.1360  177.7160  146.3020 C   0  0  0  0  0  1  0  0  0  0  0  0
  187.3740  177.9390  142.2050 C   0  0  0  0  0  0  0  0  0  0  0  0
  187.7420  177.1530  144.4750 C   0  0  0  0  0  3  0  0  0  0  0  0
  186.2180  178.6070  142.6270 C   0  0  0  0  0  3  0  0  0  0  0  0
  186.9410  178.3410  139.6730 C   0  0  0  0  0  2  0  0  0  0  0  0
  187.9020  178.0960  140.8130 C   0  0  2  0  0  3  0  0  0  0  0  0
  189.8570  176.6970  141.2690 C   0  0  0  0  0  2  0  0  0  0  0  0
  188.7910  176.8720  138.8920 C   0  0  1  0  0  3  0  0  0  0  0  0
  187.7060  177.8430  138.4410 C   0  0  2  0  0  0  0  0  0  0  0  0
  189.4120  176.4660  142.7300 C   0  0  0  0  0  2  0  0  0  0  0  0
  186.5700  178.2270  136.3710 O   0  0  0  0  0  0  0  0  0  0  0  0
  186.9270  177.3850  137.2360 C   0  0  0  0  0  0  0  0  0  0  0  0
  186.6160  176.0360  137.0370 O   0  0  0  0  0  0  0  0  0  0  0  0
  185.6420  173.0990  137.6450 O   0  0  0  0  0  1  0  0  0  0  0  0
  186.0350  173.1240  136.3040 C   0  0  2  0  0  0  0  0  0  0  0  0
  186.9210  175.3430  135.8270 C   0  0  1  0  0  3  0  0  0  0  0  0
  184.7060  176.3240  135.0190 C   0  0  0  0  0  1  0  0  0  0  0  0
  187.3300  173.9130  136.1350 C   0  0  1  0  0  3  0  0  0  0  0  0
  184.9960  173.8780  135.4790 C   0  0  0  0  0  2  0  0  0  0  0  0
  188.3080  173.7890  137.2980 C   0  0  0  0  0  1  0  0  0  0  0  0
  185.6670  175.1470  134.9810 C   0  0  2  0  0  3  0  0  0  0  0  0
  183.8170  171.0580  135.7210 N   0  0  0  0  0  0  0  0  0  0  0  0
  185.2090  170.8040  135.4800 C   0  0  0  0  0  0  0  0  0  0  0  0
  186.2270  171.7630  135.8060 N   0  0  0  0  0  2  0  0  0  0  0  0
  181.5800  171.3830  134.8000 C   0  0  0  0  0  2  0  0  0  0  0  0
  182.0840  172.2760  136.9340 C   0  0  0  0  0  2  0  0  0  0  0  0
  181.0840  171.5410  136.1660 N   0  0  0  0  0  2  0  0  0  0  0  0
  183.3620  171.4500  137.0500 C   0  0  0  0  0  2  0  0  0  0  0  0
  182.8280  170.5030  134.8000 C   0  0  0  0  0  2  0  0  0  0  0  0
  185.5550  169.7270  134.9230 O   0  0  0  0  0  0  0  0  0  0  0  0
  189.7530  178.0320  136.9230 C   0  0  0  0  0  2  0  0  0  0  0  0
  192.3380  175.3210  137.8000 C   0  0  0  0  0  2  0  0  0  0  0  0
  190.8500  174.9030  135.0540 C   0  0  0  0  0  2  0  0  0  0  0  0
  191.6330  174.0960  136.0900 C   0  0  0  0  0  2  0  0  0  0  0  0
  191.7430  176.7190  137.6440 C   0  0  0  0  0  2  0  0  0  0  0  0
  190.4490  176.6880  136.8270 C   0  0  2  0  0  3  0  0  0  0  0  0
  192.7390  174.8150  136.5580 O   0  0  0  0  0  0  0  0  0  0  0  0
  190.7700  176.4030  135.3630 C   0  0  0  0  0  2  0  0  0  0  0  0
  1 36  1  6  0  0  0
  1 14  1  0  0  0  0
  1 13  1  0  0  0  0
  2  6  1  0  0  0  0
  3 11  1  0  0  0  0
  3 12  1  1  0  0  0
  4  8  2  0  0  0  0
  5  2  2  0  0  0  0
  7  9  2  0  0  0  0
  7  4  1  0  0  0  0
  8  2  1  0  0  0  0
  9  5  1  0  0  0  0
 11 10  1  6  0  0  0
 11  7  1  0  0  0  0
 12 15  1  0  0  0  0
 13  3  1  0  0  0  0
 14 13  1  0  0  0  0
 14 10  1  0  0  0  0
 15  4  1  0  0  0  0
 16 17  2  0  0  0  0
 17 14  1  0  0  0  0
 18 17  1  0  0  0  0
 20 19  1  0  0  0  0
 21 23  1  0  0  0  0
 21 18  1  0  0  0  0
 23 20  1  0  0  0  0
 23 25  1  0  0  0  0
 24 20  1  0  0  0  0
 26 22  1  0  0  0  0
 26 24  1  0  0  0  0
 26 21  1  0  0  0  0
 27 33  1  0  0  0  0
 28 27  1  0  0  0  0
 28 29  1  0  0  0  0
 29 20  1  0  0  0  0
 30 32  1  0  0  0  0
 31 33  1  0  0  0  0
 32 31  1  0  0  0  0
 34 30  1  0  0  0  0
 34 27  1  0  0  0  0
 35 28  2  0  0  0  0
 38 43  1  0  0  0  0
 38 39  1  0  0  0  0
 39 42  1  0  0  0  0
 40 37  1  0  0  0  0
 41 36  1  0  0  0  0
 41 40  1  0  0  0  0
 42 37  1  0  0  0  0
 43 41  1  0  0  0  0
M  END
>  <MODEL>
8

>  <REMARK>
 VINA RESULT:      -7.7      4.617      7.700
  Name = 
  6 active torsions:
  status: ('A' for Active; 'I' for Inactive)
    1  A    between atoms: C_1  and  C_28
    2  A    between atoms: O_2  and  C_6
    3  A    between atoms: O_2  and  C_13
    4  A    between atoms: C_4  and  N_22
    5  A    between atoms: C_13  and  C_38
    6  A    between atoms: C_28  and  C_35
                            x       y       z     vdW  Elec       q    Type
                         _______ _______ _______ _____ _____    ______ ____

>  <TORSDO>
F 6

$$$$
=
 OpenBabel10272414283D

 43 49  0  0  1  0  0  0  0  0999 V2000
  186.7880  177.4690  142.5110 C   0  0  2  0  0  3  0  0  0  0  0  0
  191.7730  176.1040  147.3460 C   0  0  0  0  0  0  0  0  0  0  0  0
  188.1650  178.1960  144.5570 C   0  0  2  0  0  3  0  0  0  0  0  0
  189.6460  177.0240  146.6280 C   0  0  0  0  0  0  0  0  0  0  0  0
  192.0890  175.7820  146.0240 C   0  0  0  0  0  3  0  0  0  0  0  0
  192.7320  175.7890  148.4370 C   0  0  0  0  0  1  0  0  0  0  0  0
  189.9830  176.7250  145.2850 C   0  0  0  0  0  0  0  0  0  0  0  0
  190.5560  176.7240  147.6470 C   0  0  0  0  0  3  0  0  0  0  0  0
  191.1920  176.0820  144.9950 C   0  0  0  0  0  3  0  0  0  0  0  0
  189.3790  177.1780  142.7970 C   0  0  0  0  0  2  0  0  0  0  0  0
  188.9490  176.9570  144.2280 C   0  0  2  0  0  3  0  0  0  0  0  0
  187.3690  177.9350  145.8200 C   0  0  0  0  0  2  0  0  0  0  0  0
  187.4140  178.6190  143.3000 C   0  0  1  0  0  3  0  0  0  0  0  0
  188.2070  177.9530  142.1830 C   0  0  2  0  0  0  0  0  0  0  0  0
  188.3570  177.7450  146.9920 C   0  0  0  0  0  2  0  0  0  0  0  0
  188.2380  180.0760  141.0800 O   0  0  0  0  0  0  0  0  0  0  0  0
  188.4650  178.8410  140.9930 C   0  0  0  0  0  0  0  0  0  0  0  0
  188.9840  178.3290  139.7990 O   0  0  0  0  0  0  0  0  0  0  0  0
  189.3570  178.3670  136.6680 O   0  0  0  0  0  1  0  0  0  0  0  0
  189.3290  177.0240  137.0550 C   0  0  2  0  0  0  0  0  0  0  0  0
  188.9080  176.9460  139.4540 C   0  0  1  0  0  3  0  0  0  0  0  0
  191.3700  176.9130  140.1340 C   0  0  0  0  0  1  0  0  0  0  0  0
  188.2410  176.7840  138.0990 C   0  0  1  0  0  3  0  0  0  0  0  0
  190.6380  176.6630  137.7510 C   0  0  0  0  0  2  0  0  0  0  0  0
  186.9900  177.6380  137.9220 C   0  0  0  0  0  1  0  0  0  0  0  0
  190.2980  176.3710  139.2030 C   0  0  2  0  0  3  0  0  0  0  0  0
  191.3780  175.1570  135.6980 N   0  0  0  0  0  0  0  0  0  0  0  0
  190.0080  175.2540  135.2800 C   0  0  0  0  0  0  0  0  0  0  0  0
  189.0860  176.1670  135.8960 N   0  0  0  0  0  2  0  0  0  0  0  0
  193.1520  173.8020  136.6840 C   0  0  0  0  0  2  0  0  0  0  0  0
  193.3180  176.1620  136.7870 C   0  0  0  0  0  2  0  0  0  0  0  0
  194.0590  174.9350  136.5120 N   0  0  0  0  0  2  0  0  0  0  0  0
  192.2160  176.3490  135.7480 C   0  0  0  0  0  2  0  0  0  0  0  0
  192.0450  173.8580  135.6350 C   0  0  0  0  0  2  0  0  0  0  0  0
  189.5790  174.4850  134.3780 O   0  0  0  0  0  0  0  0  0  0  0  0
  185.7250  178.0360  141.5820 C   0  0  0  0  0  2  0  0  0  0  0  0
  181.9240  178.4730  141.9820 C   0  0  0  0  0  2  0  0  0  0  0  0
  183.6210  179.1630  144.5460 C   0  0  0  0  0  2  0  0  0  0  0  0
  182.1890  178.7850  144.1610 C   0  0  0  0  0  2  0  0  0  0  0  0
  183.3030  178.5600  141.3300 C   0  0  0  0  0  2  0  0  0  0  0  0
  184.4130  178.2030  142.3230 C   0  0  2  0  0  3  0  0  0  0  0  0
  181.7930  179.4370  142.9880 O   0  0  0  0  0  0  0  0  0  0  0  0
  184.5650  179.3220  143.3490 C   0  0  0  0  0  2  0  0  0  0  0  0
  1 36  1  6  0  0  0
  1 13  1  0  0  0  0
  2  8  1  0  0  0  0
  2  6  1  0  0  0  0
  3 12  1  1  0  0  0
  4 15  1  0  0  0  0
  4  8  2  0  0  0  0
  5  2  2  0  0  0  0
  7  4  1  0  0  0  0
  9  7  2  0  0  0  0
  9  5  1  0  0  0  0
 11 10  1  6  0  0  0
 11  3  1  0  0  0  0
 11  7  1  0  0  0  0
 12 15  1  0  0  0  0
 13  3  1  0  0  0  0
 14  1  1  0  0  0  0
 14 10  1  0  0  0  0
 14 13  1  0  0  0  0
 17 16  2  0  0  0  0
 17 14  1  0  0  0  0
 18 17  1  0  0  0  0
 19 20  1  0  0  0  0
 20 24  1  0  0  0  0
 20 23  1  0  0  0  0
 21 18  1  0  0  0  0
 23 21  1  0  0  0  0
 24 26  1  0  0  0  0
 25 23  1  0  0  0  0
 26 21  1  0  0  0  0
 26 22  1  0  0  0  0
 27 33  1  0  0  0  0
 28 27  1  0  0  0  0
 28 29  1  0  0  0  0
 29 20  1  0  0  0  0
 32 30  1  0  0  0  0
 32 31  1  0  0  0  0
 33 31  1  0  0  0  0
 34 27  1  0  0  0  0
 34 30  1  0  0  0  0
 35 28  2  0  0  0  0
 36 41  1  0  0  0  0
 37 42  1  0  0  0  0
 39 38  1  0  0  0  0
 40 37  1  0  0  0  0
 40 41  1  0  0  0  0
 41 43  1  0  0  0  0
 42 39  1  0  0  0  0
 43 38  1  0  0  0  0
M  END
>  <MODEL>
9

>  <REMARK>
 VINA RESULT:      -7.6      2.122      6.054
  Name = 
  6 active torsions:
  status: ('A' for Active; 'I' for Inactive)
    1  A    between atoms: C_1  and  C_28
    2  A    between atoms: O_2  and  C_6
    3  A    between atoms: O_2  and  C_13
    4  A    between atoms: C_4  and  N_22
    5  A    between atoms: C_13  and  C_38
    6  A    between atoms: C_28  and  C_35
                            x       y       z     vdW  Elec       q    Type
                         _______ _______ _______ _____ _____    ______ ____

>  <TORSDO>
F 6

$$$$
