=
 OpenBabel10262423413D

 34 38  0  0  1  0  0  0  0  0999 V2000
  191.8000  174.7780  136.6590 C   0  0  2  0  0  3  0  0  0  0  0  0
  193.1150  176.7650  137.4990 C   0  0  1  0  0  3  0  0  0  0  0  0
  190.8310  176.1440  138.4640 C   0  0  0  0  0  0  0  0  0  0  0  0
  188.8490  177.3720  140.5110 C   0  0  0  0  0  3  0  0  0  0  0  0
  194.1830  176.2890  136.7360 O   0  0  0  0  0  1  0  0  0  0  0  0
  192.4620  177.4860  139.7990 C   0  0  0  0  0  2  0  0  0  0  0  0
  191.9120  175.8450  137.4790 C   0  0  2  0  0  3  0  0  0  0  0  0
  190.1230  177.0020  140.7000 C   0  0  0  0  0  0  0  0  0  0  0  0
  189.4080  175.6980  138.1930 C   0  0  1  0  0  3  0  0  0  0  0  0
  190.5750  173.5030  137.0270 S   0  0  0  0  0  0  0  0  0  0  0  0
  193.5740  176.8950  138.9400 C   0  0  0  0  0  2  0  0  0  0  0  0
  188.2020  177.5870  139.2040 C   0  0  0  0  0  3  0  0  0  0  0  0
  188.4790  176.8900  138.0960 C   0  0  0  0  0  0  0  0  0  0  0  0
  191.1170  176.8210  139.6030 C   0  0  0  0  0  0  0  0  0  0  0  0
  189.2350  174.7160  137.0290 C   0  0  0  0  0  2  0  0  0  0  0  0
  186.0170  177.6180  135.3040 C   0  0  0  0  0  0  0  0  0  0  0  0
  186.8490  178.2020  134.3460 C   0  0  0  0  0  3  0  0  0  0  0  0
  187.9120  177.3640  136.8090 C   0  0  0  0  0  0  0  0  0  0  0  0
  188.2110  178.3640  134.6100 C   0  0  0  0  0  3  0  0  0  0  0  0
  186.5460  177.1980  136.5260 C   0  0  0  0  0  3  0  0  0  0  0  0
  188.7410  177.9430  135.8340 C   0  0  0  0  0  3  0  0  0  0  0  0
  184.6970  177.4560  135.0450 F   0  0  0  0  0  0  0  0  0  0  0  0
  192.3910  173.6930  134.5170 C   0  0  0  0  0  1  0  0  0  0  0  0
  192.6370  174.6400  135.5460 O   0  0  0  0  0  0  0  0  0  0  0  0
  190.5890  176.8670  142.1100 C   0  0  0  0  0  2  0  0  0  0  0  0
  189.7900  178.1280  143.1430 S   0  0  0  0  0  0  0  0  0  0  0  0
  189.7170  177.0020  144.5650 C   0  0  0  0  0  2  0  0  0  0  0  0
  186.9640  176.8400  144.6860 O   0  0  0  0  0  1  0  0  0  0  0  0
  189.0030  177.6730  145.7310 C   0  0  1  0  0  3  0  0  0  0  0  0
  187.4740  177.8410  145.5180 C   0  0  2  0  0  3  0  0  0  0  0  0
  187.4660  178.5230  147.8310 C   0  0  0  0  0  2  0  0  0  0  0  0
  188.6990  177.7010  148.2240 C   0  0  0  0  0  2  0  0  0  0  0  0
  189.2940  176.9400  147.0350 C   0  0  0  0  0  2  0  0  0  0  0  0
  186.7160  177.8410  146.7780 N   0  0  0  0  0  2  0  0  0  0  0  0
  1 24  1  1  0  0  0
  1 10  1  0  0  0  0
  1  7  1  0  0  0  0
  2  5  1  6  0  0  0
  2 11  1  0  0  0  0
  3 14  2  0  0  0  0
  4  8  2  0  0  0  0
  7  2  1  0  0  0  0
  7  3  1  1  0  0  0
  8 25  1  0  0  0  0
  9 15  1  6  0  0  0
  9  3  1  0  0  0  0
 10 15  1  0  0  0  0
 11  6  1  0  0  0  0
 12  4  1  0  0  0  0
 13  9  1  0  0  0  0
 13 12  2  0  0  0  0
 14  6  1  0  0  0  0
 14  8  1  0  0  0  0
 16 20  1  0  0  0  0
 17 19  1  0  0  0  0
 17 16  2  0  0  0  0
 18 13  1  0  0  0  0
 19 21  2  0  0  0  0
 20 18  2  0  0  0  0
 21 18  1  0  0  0  0
 22 16  1  0  0  0  0
 23 24  1  0  0  0  0
 25 26  1  0  0  0  0
 26 27  1  0  0  0  0
 29 27  1  6  0  0  0
 29 33  1  0  0  0  0
 30 28  1  6  0  0  0
 30 29  1  0  0  0  0
 30 34  1  0  0  0  0
 31 32  1  0  0  0  0
 33 32  1  0  0  0  0
 34 31  1  0  0  0  0
M  END
>  <MODEL>
1

>  <REMARK>
 VINA RESULT:      -6.9      0.000      0.000
  Name = 
  6 active torsions:
  status: ('A' for Active; 'I' for Inactive)
    1  A    between atoms: C_1  and  O_19
    2  A    between atoms: C_3  and  C_13
    3  A    between atoms: C_3  and  S_17
    4  A    between atoms: C_12  and  C_28
    5  A    between atoms: S_17  and  C_29
    6  A    between atoms: C_18  and  C_29
                            x       y       z     vdW  Elec       q    Type
                         _______ _______ _______ _____ _____    ______ ____

>  <TORSDO>
F 6

$$$$
=
 OpenBabel10262423413D

 34 38  0  0  1  0  0  0  0  0999 V2000
  187.6020  177.9570  137.2770 C   0  0  2  0  0  3  0  0  0  0  0  0
  188.4460  177.4990  139.6140 C   0  0  1  0  0  3  0  0  0  0  0  0
  189.4490  176.3530  137.5610 C   0  0  0  0  0  0  0  0  0  0  0  0
  191.5570  174.1390  137.0320 C   0  0  0  0  0  3  0  0  0  0  0  0
  187.6530  178.5700  140.0320 O   0  0  0  0  0  1  0  0  0  0  0  0
  190.7710  176.5880  139.6690 C   0  0  0  0  0  2  0  0  0  0  0  0
  188.4370  177.3020  138.1120 C   0  0  2  0  0  3  0  0  0  0  0  0
  191.7130  175.3050  137.6740 C   0  0  0  0  0  0  0  0  0  0  0  0
  189.2020  175.6580  136.2370 C   0  0  1  0  0  3  0  0  0  0  0  0
  187.9760  178.0050  135.5100 S   0  0  0  0  0  0  0  0  0  0  0  0
  189.8790  177.7690  140.0360 C   0  0  0  0  0  2  0  0  0  0  0  0
  190.2680  173.4950  136.7200 C   0  0  0  0  0  3  0  0  0  0  0  0
  189.1440  174.1550  136.4200 C   0  0  0  0  0  0  0  0  0  0  0  0
  190.5930  176.1050  138.2460 C   0  0  0  0  0  0  0  0  0  0  0  0
  188.0260  176.2010  135.4170 C   0  0  0  0  0  2  0  0  0  0  0  0
  185.7140  172.7870  137.2900 C   0  0  0  0  0  0  0  0  0  0  0  0
  185.5030  171.8830  136.2460 C   0  0  0  0  0  3  0  0  0  0  0  0
  187.8760  173.3860  136.3480 C   0  0  0  0  0  0  0  0  0  0  0  0
  186.4760  171.7210  135.2560 C   0  0  0  0  0  3  0  0  0  0  0  0
  186.8950  173.5310  137.3420 C   0  0  0  0  0  3  0  0  0  0  0  0
  187.6580  172.4650  135.3090 C   0  0  0  0  0  3  0  0  0  0  0  0
  184.7730  172.9410  138.2530 F   0  0  0  0  0  0  0  0  0  0  0  0
  185.1820  178.0200  137.7770 C   0  0  0  0  0  1  0  0  0  0  0  0
  186.4700  178.6160  137.7680 O   0  0  0  0  0  0  0  0  0  0  0  0
  193.1100  175.7660  137.9130 C   0  0  0  0  0  2  0  0  0  0  0  0
  194.2490  174.3550  137.8110 S   0  0  0  0  0  0  0  0  0  0  0  0
  195.0400  175.0260  136.3210 C   0  0  0  0  0  2  0  0  0  0  0  0
  197.1140  176.7850  135.8510 O   0  0  0  0  0  1  0  0  0  0  0  0
  196.4470  174.4620  136.1740 C   0  0  1  0  0  3  0  0  0  0  0  0
  197.4620  175.4630  135.5580 C   0  0  2  0  0  3  0  0  0  0  0  0
  199.1030  173.7950  136.1460 C   0  0  0  0  0  2  0  0  0  0  0  0
  198.3050  173.2230  137.3240 C   0  0  0  0  0  2  0  0  0  0  0  0
  196.9540  173.9230  137.5060 C   0  0  0  0  0  2  0  0  0  0  0  0
  198.8440  175.2270  136.0040 N   0  0  0  0  0  2  0  0  0  0  0  0
  1 24  1  1  0  0  0
  1  7  1  0  0  0  0
  2  5  1  6  0  0  0
  2 11  1  0  0  0  0
  3 14  2  0  0  0  0
  4  8  2  0  0  0  0
  6 11  1  0  0  0  0
  7  3  1  6  0  0  0
  7  2  1  0  0  0  0
  8 25  1  0  0  0  0
  8 14  1  0  0  0  0
  9 15  1  1  0  0  0
  9 13  1  0  0  0  0
  9  3  1  0  0  0  0
 10  1  1  0  0  0  0
 12  4  1  0  0  0  0
 13 12  2  0  0  0  0
 14  6  1  0  0  0  0
 15 10  1  0  0  0  0
 16 20  1  0  0  0  0
 16 22  1  0  0  0  0
 17 16  2  0  0  0  0
 18 13  1  0  0  0  0
 18 20  2  0  0  0  0
 19 21  2  0  0  0  0
 19 17  1  0  0  0  0
 21 18  1  0  0  0  0
 24 23  1  0  0  0  0
 26 25  1  0  0  0  0
 27 26  1  0  0  0  0
 29 27  1  1  0  0  0
 29 33  1  0  0  0  0
 30 28  1  1  0  0  0
 30 34  1  0  0  0  0
 30 29  1  0  0  0  0
 31 32  1  0  0  0  0
 32 33  1  0  0  0  0
 34 31  1  0  0  0  0
M  END
>  <MODEL>
2

>  <REMARK>
 VINA RESULT:      -6.8      4.735      8.247
  Name = 
  6 active torsions:
  status: ('A' for Active; 'I' for Inactive)
    1  A    between atoms: C_1  and  O_19
    2  A    between atoms: C_3  and  C_13
    3  A    between atoms: C_3  and  S_17
    4  A    between atoms: C_12  and  C_28
    5  A    between atoms: S_17  and  C_29
    6  A    between atoms: C_18  and  C_29
                            x       y       z     vdW  Elec       q    Type
                         _______ _______ _______ _____ _____    ______ ____

>  <TORSDO>
F 6

$$$$
=
 OpenBabel10262423413D

 34 38  0  0  1  0  0  0  0  0999 V2000
  187.5940  178.1980  138.1630 C   0  0  2  0  0  3  0  0  0  0  0  0
  189.0440  177.2180  139.9850 C   0  0  1  0  0  3  0  0  0  0  0  0
  189.4550  176.7230  137.5110 C   0  0  0  0  0  0  0  0  0  0  0  0
  191.3490  174.8910  135.8730 C   0  0  0  0  0  3  0  0  0  0  0  0
  188.3910  178.0800  140.8690 O   0  0  0  0  0  1  0  0  0  0  0  0
  191.3000  176.5060  139.1830 C   0  0  0  0  0  2  0  0  0  0  0  0
  188.6280  177.4160  138.5420 C   0  0  2  0  0  3  0  0  0  0  0  0
  191.6690  175.8600  136.7420 C   0  0  0  0  0  0  0  0  0  0  0  0
  188.8600  176.3770  136.1610 C   0  0  1  0  0  3  0  0  0  0  0  0
  187.4730  178.7310  136.4410 S   0  0  0  0  0  0  0  0  0  0  0  0
  190.5370  177.4790  140.0750 C   0  0  0  0  0  2  0  0  0  0  0  0
  190.0260  174.2530  135.7470 C   0  0  0  0  0  3  0  0  0  0  0  0
  188.8600  174.8790  135.9400 C   0  0  0  0  0  0  0  0  0  0  0  0
  190.7430  176.3960  137.7810 C   0  0  0  0  0  0  0  0  0  0  0  0
  187.5040  177.0220  135.8550 C   0  0  0  0  0  2  0  0  0  0  0  0
  185.8390  173.0160  137.2800 C   0  0  0  0  0  0  0  0  0  0  0  0
  185.3190  172.4540  136.1120 C   0  0  0  0  0  3  0  0  0  0  0  0
  187.6240  174.0590  135.9960 C   0  0  0  0  0  0  0  0  0  0  0  0
  185.9490  172.6850  134.8860 C   0  0  0  0  0  3  0  0  0  0  0  0
  186.9870  173.8100  137.2230 C   0  0  0  0  0  3  0  0  0  0  0  0
  187.0980  173.4800  134.8290 C   0  0  0  0  0  3  0  0  0  0  0  0
  185.2320  172.7880  138.4690 F   0  0  0  0  0  0  0  0  0  0  0  0
  185.2440  178.4210  138.8960 C   0  0  0  0  0  1  0  0  0  0  0  0
  186.6360  178.6180  139.0920 O   0  0  0  0  0  0  0  0  0  0  0  0
  193.0770  176.3500  136.7240 C   0  0  0  0  0  2  0  0  0  0  0  0
  193.9440  175.6750  135.2780 S   0  0  0  0  0  0  0  0  0  0  0  0
  195.4840  175.4790  136.2180 C   0  0  0  0  0  2  0  0  0  0  0  0
  195.3250  175.0370  138.9380 O   0  0  0  0  0  1  0  0  0  0  0  0
  195.6110  174.0500  136.7270 C   0  0  1  0  0  3  0  0  0  0  0  0
  195.8750  173.9490  138.2540 C   0  0  2  0  0  3  0  0  0  0  0  0
  195.5190  171.5870  137.9210 C   0  0  0  0  0  2  0  0  0  0  0  0
  194.5910  171.7540  136.7120 C   0  0  0  0  0  2  0  0  0  0  0  0
  194.3930  173.2250  136.3300 C   0  0  0  0  0  2  0  0  0  0  0  0
  195.3560  172.7070  138.8460 N   0  0  0  0  0  2  0  0  0  0  0  0
  1  7  1  0  0  0  0
  1 24  1  1  0  0  0
  2 11  1  0  0  0  0
  2  5  1  1  0  0  0
  3 14  2  0  0  0  0
  4  8  2  0  0  0  0
  6 11  1  0  0  0  0
  7  3  1  6  0  0  0
  7  2  1  0  0  0  0
  8 14  1  0  0  0  0
  9 15  1  1  0  0  0
  9  3  1  0  0  0  0
 10  1  1  0  0  0  0
 12  4  1  0  0  0  0
 12 13  2  0  0  0  0
 13 18  1  0  0  0  0
 13  9  1  0  0  0  0
 14  6  1  0  0  0  0
 15 10  1  0  0  0  0
 16 22  1  0  0  0  0
 17 16  2  0  0  0  0
 18 20  2  0  0  0  0
 19 17  1  0  0  0  0
 20 16  1  0  0  0  0
 21 19  2  0  0  0  0
 21 18  1  0  0  0  0
 23 24  1  0  0  0  0
 25  8  1  0  0  0  0
 26 27  1  0  0  0  0
 26 25  1  0  0  0  0
 29 27  1  1  0  0  0
 29 30  1  0  0  0  0
 30 34  1  0  0  0  0
 30 28  1  1  0  0  0
 31 34  1  0  0  0  0
 32 31  1  0  0  0  0
 33 32  1  0  0  0  0
 33 29  1  0  0  0  0
M  END
>  <MODEL>
3

>  <REMARK>
 VINA RESULT:      -6.7      4.287      7.599
  Name = 
  6 active torsions:
  status: ('A' for Active; 'I' for Inactive)
    1  A    between atoms: C_1  and  O_19
    2  A    between atoms: C_3  and  C_13
    3  A    between atoms: C_3  and  S_17
    4  A    between atoms: C_12  and  C_28
    5  A    between atoms: S_17  and  C_29
    6  A    between atoms: C_18  and  C_29
                            x       y       z     vdW  Elec       q    Type
                         _______ _______ _______ _____ _____    ______ ____

>  <TORSDO>
F 6

$$$$
=
 OpenBabel10262423413D

 34 38  0  0  1  0  0  0  0  0999 V2000
  182.0810  177.9080  136.3460 C   0  0  2  0  0  3  0  0  0  0  0  0
  182.8530  178.4230  138.6950 C   0  0  1  0  0  3  0  0  0  0  0  0
  184.3560  177.2330  137.0040 C   0  0  0  0  0  0  0  0  0  0  0  0
  187.1560  175.8980  137.0390 C   0  0  0  0  0  3  0  0  0  0  0  0
  181.6970  179.1960  138.8280 O   0  0  0  0  0  1  0  0  0  0  0  0
  185.3390  178.4840  138.9320 C   0  0  0  0  0  2  0  0  0  0  0  0
  183.0300  177.8510  137.3040 C   0  0  2  0  0  3  0  0  0  0  0  0
  186.8300  177.1640  137.3350 C   0  0  0  0  0  0  0  0  0  0  0  0
  184.4780  176.1750  135.9260 C   0  0  1  0  0  3  0  0  0  0  0  0
  182.5450  177.6250  134.6230 S   0  0  0  0  0  0  0  0  0  0  0  0
  184.0550  179.3040  138.9890 C   0  0  0  0  0  2  0  0  0  0  0  0
  186.2150  174.7670  136.9490 C   0  0  0  0  0  3  0  0  0  0  0  0
  184.9540  174.8620  136.5120 C   0  0  0  0  0  0  0  0  0  0  0  0
  185.4560  177.6140  137.6990 C   0  0  0  0  0  0  0  0  0  0  0  0
  183.2510  176.0110  135.0220 C   0  0  0  0  0  2  0  0  0  0  0  0
  183.6640  171.2940  136.5190 C   0  0  0  0  0  0  0  0  0  0  0  0
  182.3500  171.4760  136.9550 C   0  0  0  0  0  3  0  0  0  0  0  0
  184.0610  173.6890  136.6860 C   0  0  0  0  0  0  0  0  0  0  0  0
  181.8830  172.7590  137.2510 C   0  0  0  0  0  3  0  0  0  0  0  0
  184.5130  172.3950  136.3810 C   0  0  0  0  0  3  0  0  0  0  0  0
  182.7330  173.8610  137.1140 C   0  0  0  0  0  3  0  0  0  0  0  0
  184.1150  170.0510  136.2260 F   0  0  0  0  0  0  0  0  0  0  0  0
  179.9830  179.1520  135.9430 C   0  0  0  0  0  1  0  0  0  0  0  0
  180.7530  178.2070  136.6700 O   0  0  0  0  0  0  0  0  0  0  0  0
  187.9430  178.1530  137.4030 C   0  0  0  0  0  2  0  0  0  0  0  0
  189.4180  177.3710  138.1180 S   0  0  0  0  0  0  0  0  0  0  0  0
  189.2930  178.3770  139.6240 C   0  0  0  0  0  2  0  0  0  0  0  0
  191.3320  177.5960  141.3130 O   0  0  0  0  0  1  0  0  0  0  0  0
  188.9470  177.4970  140.8180 C   0  0  1  0  0  3  0  0  0  0  0  0
  190.1800  176.8220  141.4780 C   0  0  2  0  0  3  0  0  0  0  0  0
  188.6090  176.1630  143.1850 C   0  0  0  0  0  2  0  0  0  0  0  0
  187.6640  177.3510  142.9720 C   0  0  0  0  0  2  0  0  0  0  0  0
  188.1380  178.2760  141.8460 C   0  0  0  0  0  2  0  0  0  0  0  0
  189.9900  176.5560  142.9120 N   0  0  0  0  0  2  0  0  0  0  0  0
  1 24  1  6  0  0  0
  1  7  1  0  0  0  0
  2  5  1  6  0  0  0
  2 11  1  0  0  0  0
  3 14  2  0  0  0  0
  4  8  2  0  0  0  0
  6 11  1  0  0  0  0
  7  3  1  6  0  0  0
  7  2  1  0  0  0  0
  8 25  1  0  0  0  0
  8 14  1  0  0  0  0
  9 15  1  1  0  0  0
  9 13  1  0  0  0  0
  9  3  1  0  0  0  0
 10 15  1  0  0  0  0
 10  1  1  0  0  0  0
 12  4  1  0  0  0  0
 13 18  1  0  0  0  0
 13 12  2  0  0  0  0
 14  6  1  0  0  0  0
 16 17  1  0  0  0  0
 17 19  2  0  0  0  0
 18 21  2  0  0  0  0
 20 16  2  0  0  0  0
 20 18  1  0  0  0  0
 21 19  1  0  0  0  0
 22 16  1  0  0  0  0
 23 24  1  0  0  0  0
 25 26  1  0  0  0  0
 26 27  1  0  0  0  0
 29 27  1  6  0  0  0
 29 30  1  0  0  0  0
 29 33  1  0  0  0  0
 30 28  1  1  0  0  0
 30 34  1  0  0  0  0
 32 31  1  0  0  0  0
 33 32  1  0  0  0  0
 34 31  1  0  0  0  0
M  END
>  <MODEL>
4

>  <REMARK>
 VINA RESULT:      -6.4      4.761      7.501
  Name = 
  6 active torsions:
  status: ('A' for Active; 'I' for Inactive)
    1  A    between atoms: C_1  and  O_19
    2  A    between atoms: C_3  and  C_13
    3  A    between atoms: C_3  and  S_17
    4  A    between atoms: C_12  and  C_28
    5  A    between atoms: S_17  and  C_29
    6  A    between atoms: C_18  and  C_29
                            x       y       z     vdW  Elec       q    Type
                         _______ _______ _______ _____ _____    ______ ____

>  <TORSDO>
F 6

$$$$
=
 OpenBabel10262423413D

 34 38  0  0  1  0  0  0  0  0999 V2000
  190.4450  177.7500  143.2780 C   0  0  2  0  0  3  0  0  0  0  0  0
  188.6240  176.0010  143.3500 C   0  0  1  0  0  3  0  0  0  0  0  0
  188.8660  177.7830  145.1670 C   0  0  0  0  0  0  0  0  0  0  0  0
  187.5150  178.4120  147.8880 C   0  0  0  0  0  3  0  0  0  0  0  0
  189.0010  175.6590  142.0500 O   0  0  0  0  0  1  0  0  0  0  0  0
  186.6700  176.6610  144.7600 C   0  0  0  0  0  2  0  0  0  0  0  0
  189.3800  177.1940  143.8950 C   0  0  2  0  0  3  0  0  0  0  0  0
  186.9510  178.3230  146.6760 C   0  0  0  0  0  0  0  0  0  0  0  0
  189.7930  178.5610  146.0780 C   0  0  1  0  0  3  0  0  0  0  0  0
  190.9740  179.4120  143.7500 S   0  0  0  0  0  0  0  0  0  0  0  0
  187.1470  176.3540  143.3450 C   0  0  0  0  0  2  0  0  0  0  0  0
  188.8510  177.9060  148.2530 C   0  0  0  0  0  3  0  0  0  0  0  0
  189.9060  177.8890  147.4310 C   0  0  0  0  0  0  0  0  0  0  0  0
  187.5650  177.6210  145.5130 C   0  0  0  0  0  0  0  0  0  0  0  0
  191.1570  178.9200  145.4790 C   0  0  0  0  0  2  0  0  0  0  0  0
  193.0420  176.9260  149.3380 C   0  0  0  0  0  0  0  0  0  0  0  0
  193.4520  175.7890  148.6390 C   0  0  0  0  0  3  0  0  0  0  0  0
  191.1200  177.1500  147.8620 C   0  0  0  0  0  0  0  0  0  0  0  0
  192.7070  175.3320  147.5490 C   0  0  0  0  0  3  0  0  0  0  0  0
  191.8850  177.6050  148.9480 C   0  0  0  0  0  3  0  0  0  0  0  0
  191.5480  176.0110  147.1600 C   0  0  0  0  0  3  0  0  0  0  0  0
  193.7680  177.3730  150.3910 F   0  0  0  0  0  0  0  0  0  0  0  0
  191.6130  177.7120  141.0990 C   0  0  0  0  0  1  0  0  0  0  0  0
  191.1230  177.0650  142.2640 O   0  0  0  0  0  0  0  0  0  0  0  0
  185.5740  178.8760  146.5260 C   0  0  0  0  0  2  0  0  0  0  0  0
  185.4240  179.7260  144.9290 S   0  0  0  0  0  0  0  0  0  0  0  0
  183.7320  179.1130  144.6940 C   0  0  0  0  0  2  0  0  0  0  0  0
  181.5530  179.9110  143.2000 O   0  0  0  0  0  1  0  0  0  0  0  0
  183.5690  178.5440  143.2910 C   0  0  1  0  0  3  0  0  0  0  0  0
  182.1550  178.7590  142.6870 C   0  0  2  0  0  3  0  0  0  0  0  0
  183.1530  177.9260  140.6560 C   0  0  0  0  0  2  0  0  0  0  0  0
  184.5720  178.4010  140.9920 C   0  0  0  0  0  2  0  0  0  0  0  0
  184.6460  179.0870  142.3600 C   0  0  0  0  0  2  0  0  0  0  0  0
  182.1630  178.8430  141.2190 N   0  0  0  0  0  2  0  0  0  0  0  0
  1 24  1  6  0  0  0
  1 10  1  0  0  0  0
  1  7  1  0  0  0  0
  2  5  1  6  0  0  0
  2  7  1  0  0  0  0
  3 14  2  0  0  0  0
  3  9  1  0  0  0  0
  4 12  1  0  0  0  0
  6 14  1  0  0  0  0
  7  3  1  6  0  0  0
  8  4  2  0  0  0  0
  9 15  1  6  0  0  0
  9 13  1  0  0  0  0
 10 15  1  0  0  0  0
 11  2  1  0  0  0  0
 11  6  1  0  0  0  0
 13 18  1  0  0  0  0
 13 12  2  0  0  0  0
 14  8  1  0  0  0  0
 16 22  1  0  0  0  0
 17 16  2  0  0  0  0
 18 20  2  0  0  0  0
 19 17  1  0  0  0  0
 20 16  1  0  0  0  0
 21 19  2  0  0  0  0
 21 18  1  0  0  0  0
 23 24  1  0  0  0  0
 25  8  1  0  0  0  0
 26 25  1  0  0  0  0
 27 26  1  0  0  0  0
 29 27  1  1  0  0  0
 30 28  1  1  0  0  0
 30 29  1  0  0  0  0
 31 32  1  0  0  0  0
 31 34  1  0  0  0  0
 32 33  1  0  0  0  0
 33 29  1  0  0  0  0
 34 30  1  0  0  0  0
M  END
>  <MODEL>
5

>  <REMARK>
 VINA RESULT:      -6.2      5.518      9.406
  Name = 
  6 active torsions:
  status: ('A' for Active; 'I' for Inactive)
    1  A    between atoms: C_1  and  O_19
    2  A    between atoms: C_3  and  C_13
    3  A    between atoms: C_3  and  S_17
    4  A    between atoms: C_12  and  C_28
    5  A    between atoms: S_17  and  C_29
    6  A    between atoms: C_18  and  C_29
                            x       y       z     vdW  Elec       q    Type
                         _______ _______ _______ _____ _____    ______ ____

>  <TORSDO>
F 6

$$$$
=
 OpenBabel10262423413D

 34 38  0  0  1  0  0  0  0  0999 V2000
  184.9350  175.5950  136.0800 C   0  0  2  0  0  3  0  0  0  0  0  0
  186.7260  177.3430  135.7330 C   0  0  1  0  0  3  0  0  0  0  0  0
  185.2080  177.3460  137.7900 C   0  0  0  0  0  0  0  0  0  0  0  0
  184.7310  179.2080  140.2250 C   0  0  0  0  0  3  0  0  0  0  0  0
  187.1830  176.5610  134.6710 O   0  0  0  0  0  1  0  0  0  0  0  0
  187.4440  178.4610  137.8490 C   0  0  0  0  0  2  0  0  0  0  0  0
  185.5830  176.7050  136.4950 C   0  0  2  0  0  3  0  0  0  0  0  0
  185.8630  178.6000  139.8480 C   0  0  0  0  0  0  0  0  0  0  0  0
  183.8070  177.1840  138.3440 C   0  0  1  0  0  3  0  0  0  0  0  0
  183.9290  174.6650  137.2570 S   0  0  0  0  0  0  0  0  0  0  0  0
  187.8730  177.5460  136.7080 C   0  0  0  0  0  2  0  0  0  0  0  0
  183.5340  179.3950  139.3830 C   0  0  0  0  0  3  0  0  0  0  0  0
  183.1140  178.5260  138.4580 C   0  0  0  0  0  0  0  0  0  0  0  0
  186.1200  178.0790  138.4750 C   0  0  0  0  0  0  0  0  0  0  0  0
  182.9420  176.1270  137.6490 C   0  0  0  0  0  2  0  0  0  0  0  0
  180.7690  178.6470  135.4790 C   0  0  0  0  0  0  0  0  0  0  0  0
  180.0150  179.7870  135.7660 C   0  0  0  0  0  3  0  0  0  0  0  0
  182.0280  178.9500  137.5390 C   0  0  0  0  0  0  0  0  0  0  0  0
  180.2660  180.5150  136.9310 C   0  0  0  0  0  3  0  0  0  0  0  0
  181.7720  178.2330  136.3580 C   0  0  0  0  0  3  0  0  0  0  0  0
  181.2710  180.1010  137.8120 C   0  0  0  0  0  3  0  0  0  0  0  0
  180.5290  177.9440  134.3460 F   0  0  0  0  0  0  0  0  0  0  0  0
  184.9180  173.7810  134.4000 C   0  0  0  0  0  1  0  0  0  0  0  0
  185.0570  175.1470  134.7600 O   0  0  0  0  0  0  0  0  0  0  0  0
  186.9670  178.5410  140.8480 C   0  0  0  0  0  2  0  0  0  0  0  0
  186.2790  178.2790  142.5080 S   0  0  0  0  0  0  0  0  0  0  0  0
  187.6460  177.1760  142.9650 C   0  0  0  0  0  2  0  0  0  0  0  0
  189.8630  178.2780  144.1850 O   0  0  0  0  0  1  0  0  0  0  0  0
  187.7600  177.0800  144.4810 C   0  0  1  0  0  3  0  0  0  0  0  0
  189.1820  177.3910  145.0230 C   0  0  2  0  0  3  0  0  0  0  0  0
  188.1150  177.3190  147.1850 C   0  0  0  0  0  2  0  0  0  0  0  0
  186.7340  177.7460  146.6740 C   0  0  0  0  0  2  0  0  0  0  0  0
  186.7150  177.9580  145.1570 C   0  0  0  0  0  2  0  0  0  0  0  0
  189.1680  177.9430  146.3860 N   0  0  0  0  0  2  0  0  0  0  0  0
  1 24  1  1  0  0  0
  1  7  1  0  0  0  0
  1 10  1  0  0  0  0
  2  5  1  6  0  0  0
  2  7  1  0  0  0  0
  2 11  1  0  0  0  0
  3  9  1  0  0  0  0
  3 14  2  0  0  0  0
  6 14  1  0  0  0  0
  7  3  1  1  0  0  0
  8  4  2  0  0  0  0
  8 25  1  0  0  0  0
  9 15  1  6  0  0  0
  9 13  1  0  0  0  0
 10 15  1  0  0  0  0
 11  6  1  0  0  0  0
 12  4  1  0  0  0  0
 13 12  2  0  0  0  0
 14  8  1  0  0  0  0
 16 17  2  0  0  0  0
 16 20  1  0  0  0  0
 17 19  1  0  0  0  0
 18 21  1  0  0  0  0
 18 13  1  0  0  0  0
 19 21  2  0  0  0  0
 20 18  2  0  0  0  0
 22 16  1  0  0  0  0
 23 24  1  0  0  0  0
 25 26  1  0  0  0  0
 26 27  1  0  0  0  0
 29 27  1  6  0  0  0
 29 30  1  0  0  0  0
 29 33  1  0  0  0  0
 30 28  1  6  0  0  0
 30 34  1  0  0  0  0
 32 31  1  0  0  0  0
 33 32  1  0  0  0  0
 34 31  1  0  0  0  0
M  END
>  <MODEL>
6

>  <REMARK>
 VINA RESULT:      -6.1      3.903      5.499
  Name = 
  6 active torsions:
  status: ('A' for Active; 'I' for Inactive)
    1  A    between atoms: C_1  and  O_19
    2  A    between atoms: C_3  and  C_13
    3  A    between atoms: C_3  and  S_17
    4  A    between atoms: C_12  and  C_28
    5  A    between atoms: S_17  and  C_29
    6  A    between atoms: C_18  and  C_29
                            x       y       z     vdW  Elec       q    Type
                         _______ _______ _______ _____ _____    ______ ____

>  <TORSDO>
F 6

$$$$
=
 OpenBabel10262423413D

 34 38  0  0  1  0  0  0  0  0999 V2000
  196.7810  174.8820  137.6330 C   0  0  2  0  0  3  0  0  0  0  0  0
  196.3380  175.9080  135.3670 C   0  0  1  0  0  3  0  0  0  0  0  0
  194.5780  174.5180  136.5940 C   0  0  0  0  0  0  0  0  0  0  0  0
  191.7440  173.4240  135.9650 C   0  0  0  0  0  3  0  0  0  0  0  0
  197.5370  176.6060  135.5290 O   0  0  0  0  0  1  0  0  0  0  0  0
  193.9080  176.1950  134.8660 C   0  0  0  0  0  2  0  0  0  0  0  0
  195.9590  175.0860  136.5810 C   0  0  2  0  0  3  0  0  0  0  0  0
  192.1660  174.6960  135.9750 C   0  0  0  0  0  0  0  0  0  0  0  0
  194.2700  173.2790  137.4100 C   0  0  1  0  0  3  0  0  0  0  0  0
  196.0900  174.2980  139.1960 S   0  0  0  0  0  0  0  0  0  0  0  0
  195.2270  176.9140  135.1260 C   0  0  0  0  0  2  0  0  0  0  0  0
  192.6120  172.2320  135.9270 C   0  0  0  0  0  3  0  0  0  0  0  0
  193.8100  172.1460  136.5160 C   0  0  0  0  0  0  0  0  0  0  0  0
  193.5950  175.1090  135.8710 C   0  0  0  0  0  0  0  0  0  0  0  0
  195.3630  172.8510  138.3950 C   0  0  0  0  0  2  0  0  0  0  0  0
  196.6010  170.0000  135.1040 C   0  0  0  0  0  0  0  0  0  0  0  0
  196.2390  168.7330  135.5710 C   0  0  0  0  0  3  0  0  0  0  0  0
  194.6610  170.9700  136.2070 C   0  0  0  0  0  0  0  0  0  0  0  0
  195.0890  168.5780  136.3480 C   0  0  0  0  0  3  0  0  0  0  0  0
  195.8140  171.1100  135.4180 C   0  0  0  0  0  3  0  0  0  0  0  0
  194.3010  169.6900  136.6620 C   0  0  0  0  0  3  0  0  0  0  0  0
  197.7130  170.1500  134.3460 F   0  0  0  0  0  0  0  0  0  0  0  0
  199.1310  174.1160  137.5790 C   0  0  0  0  0  1  0  0  0  0  0  0
  198.1520  175.1430  137.5310 O   0  0  0  0  0  0  0  0  0  0  0  0
  191.1180  175.7570  135.9860 C   0  0  0  0  0  2  0  0  0  0  0  0
  189.8870  175.3920  137.2690 S   0  0  0  0  0  0  0  0  0  0  0  0
  190.0370  177.0590  137.9710 C   0  0  0  0  0  2  0  0  0  0  0  0
  191.7780  177.3020  140.0990 O   0  0  0  0  0  1  0  0  0  0  0  0
  189.4590  177.0900  139.3800 C   0  0  1  0  0  3  0  0  0  0  0  0
  190.5130  176.8600  140.4960 C   0  0  2  0  0  3  0  0  0  0  0  0
  188.7160  177.4580  141.9890 C   0  0  0  0  0  2  0  0  0  0  0  0
  187.9830  178.3460  140.9780 C   0  0  0  0  0  2  0  0  0  0  0  0
  188.6870  178.3820  139.6170 C   0  0  0  0  0  2  0  0  0  0  0  0
  190.1600  177.5150  141.7640 N   0  0  0  0  0  2  0  0  0  0  0  0
  1 24  1  1  0  0  0
  1 10  1  0  0  0  0
  2  5  1  1  0  0  0
  2  7  1  0  0  0  0
  3  9  1  0  0  0  0
  4  8  2  0  0  0  0
  6 11  1  0  0  0  0
  6 14  1  0  0  0  0
  7  3  1  1  0  0  0
  7  1  1  0  0  0  0
  8 25  1  0  0  0  0
  9 15  1  6  0  0  0
 11  2  1  0  0  0  0
 12  4  1  0  0  0  0
 12 13  2  0  0  0  0
 13  9  1  0  0  0  0
 14  8  1  0  0  0  0
 14  3  2  0  0  0  0
 15 10  1  0  0  0  0
 16 20  2  0  0  0  0
 16 17  1  0  0  0  0
 17 19  2  0  0  0  0
 18 13  1  0  0  0  0
 18 21  2  0  0  0  0
 19 21  1  0  0  0  0
 20 18  1  0  0  0  0
 22 16  1  0  0  0  0
 24 23  1  0  0  0  0
 25 26  1  0  0  0  0
 26 27  1  0  0  0  0
 29 27  1  6  0  0  0
 29 33  1  0  0  0  0
 29 30  1  0  0  0  0
 30 28  1  6  0  0  0
 30 34  1  0  0  0  0
 32 31  1  0  0  0  0
 33 32  1  0  0  0  0
 34 31  1  0  0  0  0
M  END
>  <MODEL>
7

>  <REMARK>
 VINA RESULT:      -6.1      4.488      7.684
  Name = 
  6 active torsions:
  status: ('A' for Active; 'I' for Inactive)
    1  A    between atoms: C_1  and  O_19
    2  A    between atoms: C_3  and  C_13
    3  A    between atoms: C_3  and  S_17
    4  A    between atoms: C_12  and  C_28
    5  A    between atoms: S_17  and  C_29
    6  A    between atoms: C_18  and  C_29
                            x       y       z     vdW  Elec       q    Type
                         _______ _______ _______ _____ _____    ______ ____

>  <TORSDO>
F 6

$$$$
=
 OpenBabel10262423413D

 34 38  0  0  1  0  0  0  0  0999 V2000
  183.1860  177.5900  135.9100 C   0  0  2  0  0  3  0  0  0  0  0  0
  183.2820  177.9320  138.4110 C   0  0  1  0  0  3  0  0  0  0  0  0
  185.3050  177.1230  137.0740 C   0  0  0  0  0  0  0  0  0  0  0  0
  188.1740  176.1360  137.7210 C   0  0  0  0  0  3  0  0  0  0  0  0
  182.0310  178.5420  138.3030 O   0  0  0  0  0  1  0  0  0  0  0  0
  185.6010  178.2620  139.2790 C   0  0  0  0  0  2  0  0  0  0  0  0
  183.8720  177.5410  137.0720 C   0  0  2  0  0  3  0  0  0  0  0  0
  187.6080  177.3130  138.0200 C   0  0  0  0  0  0  0  0  0  0  0  0
  185.8350  176.2120  135.9850 C   0  0  1  0  0  3  0  0  0  0  0  0
  184.0900  177.5560  134.3460 S   0  0  0  0  0  0  0  0  0  0  0  0
  184.2380  178.9120  139.0680 C   0  0  0  0  0  2  0  0  0  0  0  0
  187.4540  174.9170  137.3070 C   0  0  0  0  0  3  0  0  0  0  0  0
  186.3380  174.9080  136.5710 C   0  0  0  0  0  0  0  0  0  0  0  0
  186.1370  177.5540  138.0540 C   0  0  0  0  0  0  0  0  0  0  0  0
  184.9010  176.0030  134.7880 C   0  0  0  0  0  2  0  0  0  0  0  0
  183.7290  172.1870  136.9940 C   0  0  0  0  0  0  0  0  0  0  0  0
  184.2520  171.1740  136.1860 C   0  0  0  0  0  3  0  0  0  0  0  0
  185.6060  173.6260  136.4210 C   0  0  0  0  0  0  0  0  0  0  0  0
  185.4510  171.3780  135.5000 C   0  0  0  0  0  3  0  0  0  0  0  0
  184.4050  173.4040  137.1140 C   0  0  0  0  0  3  0  0  0  0  0  0
  186.1270  172.5960  135.6190 C   0  0  0  0  0  3  0  0  0  0  0  0
  182.5690  171.9880  137.6650 F   0  0  0  0  0  0  0  0  0  0  0  0
  180.9470  176.6230  135.5020 C   0  0  0  0  0  1  0  0  0  0  0  0
  181.7900  177.6910  135.9060 O   0  0  0  0  0  0  0  0  0  0  0  0
  188.5180  178.4140  138.4450 C   0  0  0  0  0  2  0  0  0  0  0  0
  189.7610  177.7720  139.6020 S   0  0  0  0  0  0  0  0  0  0  0  0
  188.6040  177.8770  140.9960 C   0  0  0  0  0  2  0  0  0  0  0  0
  187.8920  176.2720  143.1260 O   0  0  0  0  0  1  0  0  0  0  0  0
  189.3680  178.0300  142.3040 C   0  0  1  0  0  3  0  0  0  0  0  0
  188.6690  177.3650  143.5210 C   0  0  2  0  0  3  0  0  0  0  0  0
  190.7250  177.8670  144.6770 C   0  0  0  0  0  2  0  0  0  0  0  0
  191.6070  177.8160  143.4240 C   0  0  0  0  0  2  0  0  0  0  0  0
  190.7980  177.5240  142.1560 C   0  0  0  0  0  2  0  0  0  0  0  0
  189.6150  176.9240  144.5570 N   0  0  0  0  0  2  0  0  0  0  0  0
  1 24  1  1  0  0  0
  1  7  1  0  0  0  0
  2  5  1  6  0  0  0
  2 11  1  0  0  0  0
  3 14  2  0  0  0  0
  4  8  2  0  0  0  0
  7  3  1  6  0  0  0
  7  2  1  0  0  0  0
  8 14  1  0  0  0  0
  8 25  1  0  0  0  0
  9 15  1  6  0  0  0
  9 13  1  0  0  0  0
  9  3  1  0  0  0  0
 10 15  1  0  0  0  0
 10  1  1  0  0  0  0
 11  6  1  0  0  0  0
 12  4  1  0  0  0  0
 13 12  2  0  0  0  0
 14  6  1  0  0  0  0
 16 20  1  0  0  0  0
 16 22  1  0  0  0  0
 17 16  2  0  0  0  0
 18 13  1  0  0  0  0
 18 20  2  0  0  0  0
 19 21  2  0  0  0  0
 19 17  1  0  0  0  0
 21 18  1  0  0  0  0
 23 24  1  0  0  0  0
 25 26  1  0  0  0  0
 26 27  1  0  0  0  0
 29 27  1  6  0  0  0
 29 30  1  0  0  0  0
 30 28  1  6  0  0  0
 30 34  1  0  0  0  0
 32 31  1  0  0  0  0
 33 29  1  0  0  0  0
 33 32  1  0  0  0  0
 34 31  1  0  0  0  0
M  END
>  <MODEL>
8

>  <REMARK>
 VINA RESULT:      -6.1      4.099      6.550
  Name = 
  6 active torsions:
  status: ('A' for Active; 'I' for Inactive)
    1  A    between atoms: C_1  and  O_19
    2  A    between atoms: C_3  and  C_13
    3  A    between atoms: C_3  and  S_17
    4  A    between atoms: C_12  and  C_28
    5  A    between atoms: S_17  and  C_29
    6  A    between atoms: C_18  and  C_29
                            x       y       z     vdW  Elec       q    Type
                         _______ _______ _______ _____ _____    ______ ____

>  <TORSDO>
F 6

$$$$
=
 OpenBabel10262423413D

 34 38  0  0  1  0  0  0  0  0999 V2000
  181.4240  179.2260  139.9360 C   0  0  2  0  0  3  0  0  0  0  0  0
  183.3310  178.5060  141.4280 C   0  0  1  0  0  3  0  0  0  0  0  0
  183.4160  178.2250  138.8890 C   0  0  0  0  0  0  0  0  0  0  0  0
  185.3480  176.9290  136.8370 C   0  0  0  0  0  3  0  0  0  0  0  0
  182.6710  179.1640  142.4680 O   0  0  0  0  0  1  0  0  0  0  0  0
  185.5190  178.3440  140.2340 C   0  0  0  0  0  2  0  0  0  0  0  0
  182.6470  178.6730  140.0880 C   0  0  2  0  0  3  0  0  0  0  0  0
  185.5990  177.9040  137.7210 C   0  0  0  0  0  0  0  0  0  0  0  0
  182.6880  177.8190  137.6240 C   0  0  1  0  0  3  0  0  0  0  0  0
  180.9070  179.7960  138.3020 S   0  0  0  0  0  0  0  0  0  0  0  0
  184.7300  179.0850  141.3080 C   0  0  0  0  0  2  0  0  0  0  0  0
  184.1850  176.0220  136.8660 C   0  0  0  0  0  3  0  0  0  0  0  0
  182.9640  176.3680  137.2860 C   0  0  0  0  0  0  0  0  0  0  0  0
  184.7700  178.1770  138.9300 C   0  0  0  0  0  0  0  0  0  0  0  0
  181.1950  178.1640  137.5830 C   0  0  0  0  0  2  0  0  0  0  0  0
  180.5130  173.9750  138.9160 C   0  0  0  0  0  0  0  0  0  0  0  0
  180.0880  173.2230  137.8180 C   0  0  0  0  0  3  0  0  0  0  0  0
  181.9530  175.2950  137.4660 C   0  0  0  0  0  0  0  0  0  0  0  0
  180.5950  173.4980  136.5460 C   0  0  0  0  0  3  0  0  0  0  0  0
  181.4440  175.0020  138.7410 C   0  0  0  0  0  3  0  0  0  0  0  0
  181.5260  174.5260  136.3710 C   0  0  0  0  0  3  0  0  0  0  0  0
  180.0260  173.7050  140.1510 F   0  0  0  0  0  0  0  0  0  0  0  0
  179.9820  180.6320  141.3700 C   0  0  0  0  0  1  0  0  0  0  0  0
  180.5690  179.3840  141.0320 O   0  0  0  0  0  0  0  0  0  0  0  0
  186.8510  178.6910  137.5260 C   0  0  0  0  0  2  0  0  0  0  0  0
  188.2860  177.5780  137.5480 S   0  0  0  0  0  0  0  0  0  0  0  0
  189.0220  178.4590  138.9530 C   0  0  0  0  0  2  0  0  0  0  0  0
  191.4310  177.4530  139.8480 O   0  0  0  0  0  1  0  0  0  0  0  0
  189.0200  177.5720  140.1900 C   0  0  1  0  0  3  0  0  0  0  0  0
  190.3370  176.7730  140.3920 C   0  0  2  0  0  3  0  0  0  0  0  0
  189.3810  176.1910  142.5280 C   0  0  0  0  0  2  0  0  0  0  0  0
  188.5310  177.4620  142.6520 C   0  0  0  0  0  2  0  0  0  0  0  0
  188.6790  178.3810  141.4350 C   0  0  0  0  0  2  0  0  0  0  0  0
  190.6190  176.4760  141.8040 N   0  0  0  0  0  2  0  0  0  0  0  0
  1  7  1  0  0  0  0
  1 24  1  1  0  0  0
  2  5  1  1  0  0  0
  3 14  2  0  0  0  0
  4 12  1  0  0  0  0
  4  8  2  0  0  0  0
  6 11  1  0  0  0  0
  7  3  1  6  0  0  0
  7  2  1  0  0  0  0
  8 14  1  0  0  0  0
  9 15  1  1  0  0  0
  9  3  1  0  0  0  0
 10  1  1  0  0  0  0
 11  2  1  0  0  0  0
 12 13  2  0  0  0  0
 13 18  1  0  0  0  0
 13  9  1  0  0  0  0
 14  6  1  0  0  0  0
 15 10  1  0  0  0  0
 16 22  1  0  0  0  0
 17 16  2  0  0  0  0
 18 20  2  0  0  0  0
 19 17  1  0  0  0  0
 20 16  1  0  0  0  0
 21 19  2  0  0  0  0
 21 18  1  0  0  0  0
 24 23  1  0  0  0  0
 25 26  1  0  0  0  0
 25  8  1  0  0  0  0
 26 27  1  0  0  0  0
 29 27  1  6  0  0  0
 29 30  1  0  0  0  0
 29 33  1  0  0  0  0
 30 28  1  1  0  0  0
 30 34  1  0  0  0  0
 31 32  1  0  0  0  0
 33 32  1  0  0  0  0
 34 31  1  0  0  0  0
M  END
>  <MODEL>
9

>  <REMARK>
 VINA RESULT:      -5.9      5.172      8.356
  Name = 
  6 active torsions:
  status: ('A' for Active; 'I' for Inactive)
    1  A    between atoms: C_1  and  O_19
    2  A    between atoms: C_3  and  C_13
    3  A    between atoms: C_3  and  S_17
    4  A    between atoms: C_12  and  C_28
    5  A    between atoms: S_17  and  C_29
    6  A    between atoms: C_18  and  C_29
                            x       y       z     vdW  Elec       q    Type
                         _______ _______ _______ _____ _____    ______ ____

>  <TORSDO>
F 6

$$$$
