=
 OpenBabel10272402013D

 28 30  0  0  1  0  0  0  0  0999 V2000
  184.7530  178.4590  147.3630 O   0  0  0  0  0  1  0  0  0  0  0  0
  185.0410  178.5610  143.7250 N   0  0  0  0  0  0  0  0  0  0  0  0
  183.3620  179.3110  145.1820 O   0  0  0  0  0  0  0  0  0  0  0  0
  186.6790  177.9420  146.0310 C   0  0  1  0  0  3  0  0  0  0  0  0
  186.3590  178.0180  143.5720 C   0  0  0  0  0  3  0  0  0  0  0  0
  185.4530  178.8550  146.2220 C   0  0  1  0  0  3  0  0  0  0  0  0
  184.5410  178.8890  145.0350 C   0  0  0  0  0  0  0  0  0  0  0  0
  187.1650  177.7530  144.6020 C   0  0  0  0  0  0  0  0  0  0  0  0
  182.8320  178.4790  142.6320 C   0  0  0  0  0  3  0  0  0  0  0  0
  184.7850  179.0230  141.3010 C   0  0  0  0  0  0  0  0  0  0  0  0
  182.5970  178.9120  140.2650 C   0  0  0  0  0  0  0  0  0  0  0  0
  184.2170  178.6980  142.5500 C   0  0  0  0  0  0  0  0  0  0  0  0
  183.9720  179.1310  140.1680 C   0  0  0  0  0  3  0  0  0  0  0  0
  186.1140  179.2610  141.1840 F   0  0  0  0  0  0  0  0  0  0  0  0
  181.8150  179.0170  139.1630 F   0  0  0  0  0  0  0  0  0  0  0  0
  182.0270  178.5870  141.4970 C   0  0  0  0  0  3  0  0  0  0  0  0
  188.4240  176.9960  144.2690 C   0  0  1  0  0  3  0  0  0  0  0  0
  188.3010  175.8850  143.2340 C   0  0  0  0  0  1  0  0  0  0  0  0
  190.3110  178.0470  142.8800 N   0  0  0  0  0  0  0  0  0  0  0  0
  191.7360  176.7470  143.9310 C   0  0  1  0  0  3  0  0  0  0  0  0
  190.7760  177.2060  145.0040 C   0  0  0  0  0  2  0  0  0  0  0  0
  189.7000  177.8720  144.2030 C   0  0  2  0  0  3  0  0  0  0  0  0
  191.9880  175.3840  144.0810 O   0  0  0  0  0  1  0  0  0  0  0  0
  191.1370  176.9810  142.6810 O   0  0  0  0  0  0  0  0  0  0  0  0
  189.3510  178.1100  141.7850 C   0  0  0  0  0  2  0  0  0  0  0  0
  189.9290  177.6030  140.6210 O   0  0  0  0  0  1  0  0  0  0  0  0
  187.9270  177.1020  147.7620 C   0  0  0  0  0  1  0  0  0  0  0  0
  187.7100  178.2310  146.9530 O   0  0  0  0  0  0  0  0  0  0  0  0
  2  7  1  0  0  0  0
  4  6  1  0  0  0  0
  4 28  1  1  0  0  0
  5  2  1  0  0  0  0
  5  8  2  0  0  0  0
  6  1  1  1  0  0  0
  7  3  2  0  0  0  0
  7  6  1  0  0  0  0
  8  4  1  0  0  0  0
 10 12  2  0  0  0  0
 11 16  1  0  0  0  0
 12  9  1  0  0  0  0
 12  2  1  0  0  0  0
 13 11  2  0  0  0  0
 13 10  1  0  0  0  0
 14 10  1  0  0  0  0
 15 11  1  0  0  0  0
 16  9  2  0  0  0  0
 17 18  1  6  0  0  0
 17  8  1  0  0  0  0
 19 22  1  0  0  0  0
 20 23  1  1  0  0  0
 20 21  1  0  0  0  0
 22 17  1  6  0  0  0
 22 21  1  0  0  0  0
 24 19  1  0  0  0  0
 24 20  1  0  0  0  0
 25 19  1  0  0  0  0
 26 25  1  0  0  0  0
 28 27  1  0  0  0  0
M  END
>  <MODEL>
1

>  <REMARK>
 VINA RESULT:      -8.6      0.000      0.000
  Name = 
  5 active torsions:
  status: ('A' for Active; 'I' for Inactive)
    1  A    between atoms: C_1  and  C_11
    2  A    between atoms: C_1  and  C_27
    3  A    between atoms: C_2  and  N_3
    4  A    between atoms: N_10  and  C_13
    5  A    between atoms: C_16  and  O_21
                            x       y       z     vdW  Elec       q    Type
                         _______ _______ _______ _____ _____    ______ ____

>  <TORSDO>
F 5

$$$$
=
 OpenBabel10272402013D

 28 30  0  0  1  0  0  0  0  0999 V2000
  188.8080  178.9010  139.6990 O   0  0  0  0  0  1  0  0  0  0  0  0
  186.5270  177.9890  142.4000 N   0  0  0  0  0  0  0  0  0  0  0  0
  186.1600  179.0200  140.3250 O   0  0  0  0  0  0  0  0  0  0  0  0
  189.2850  177.5590  141.6280 C   0  0  1  0  0  3  0  0  0  0  0  0
  187.4460  177.3230  143.2760 C   0  0  0  0  0  3  0  0  0  0  0  0
  188.2620  177.9250  140.5360 C   0  0  1  0  0  3  0  0  0  0  0  0
  186.9440  178.3810  141.0790 C   0  0  0  0  0  0  0  0  0  0  0  0
  188.7140  177.0670  142.9500 C   0  0  0  0  0  0  0  0  0  0  0  0
  184.0960  178.2200  142.0610 C   0  0  0  0  0  3  0  0  0  0  0  0
  185.0380  178.7580  144.2290 C   0  0  0  0  0  0  0  0  0  0  0  0
  182.6560  178.9890  143.8440 C   0  0  0  0  0  0  0  0  0  0  0  0
  185.2160  178.3140  142.9020 C   0  0  0  0  0  0  0  0  0  0  0  0
  183.7610  179.0890  144.6930 C   0  0  0  0  0  3  0  0  0  0  0  0
  186.0900  178.8440  145.0800 F   0  0  0  0  0  0  0  0  0  0  0  0
  181.4210  179.3120  144.2990 F   0  0  0  0  0  0  0  0  0  0  0  0
  182.8240  178.5530  142.5280 C   0  0  0  0  0  3  0  0  0  0  0  0
  189.5850  176.5510  144.0650 C   0  0  1  0  0  3  0  0  0  0  0  0
  190.8410  175.7910  143.6550 C   0  0  0  0  0  1  0  0  0  0  0  0
  191.0020  178.1930  145.4410 N   0  0  0  0  0  0  0  0  0  0  0  0
  190.9770  176.7450  147.0930 C   0  0  1  0  0  3  0  0  0  0  0  0
  189.5750  176.7070  146.5330 C   0  0  0  0  0  2  0  0  0  0  0  0
  189.7140  177.5080  145.2760 C   0  0  2  0  0  3  0  0  0  0  0  0
  191.4150  175.4460  147.3460 O   0  0  0  0  0  1  0  0  0  0  0  0
  191.8130  177.3460  146.1350 O   0  0  0  0  0  0  0  0  0  0  0  0
  191.6530  178.5460  144.1860 C   0  0  0  0  0  2  0  0  0  0  0  0
  191.1680  179.7730  143.7320 O   0  0  0  0  0  1  0  0  0  0  0  0
  191.3880  177.6020  140.7150 C   0  0  0  0  0  1  0  0  0  0  0  0
  190.3390  176.7620  141.1280 O   0  0  0  0  0  0  0  0  0  0  0  0
  2 12  1  0  0  0  0
  2  5  1  0  0  0  0
  3  7  2  0  0  0  0
  4 28  1  6  0  0  0
  4  8  1  0  0  0  0
  6  1  1  1  0  0  0
  6  7  1  0  0  0  0
  6  4  1  0  0  0  0
  7  2  1  0  0  0  0
  8  5  2  0  0  0  0
  8 17  1  0  0  0  0
  9 16  2  0  0  0  0
  9 12  1  0  0  0  0
 10 13  1  0  0  0  0
 10 14  1  0  0  0  0
 11 15  1  0  0  0  0
 11 13  2  0  0  0  0
 12 10  2  0  0  0  0
 16 11  1  0  0  0  0
 17 18  1  6  0  0  0
 19 24  1  0  0  0  0
 20 23  1  6  0  0  0
 21 20  1  0  0  0  0
 22 17  1  6  0  0  0
 22 19  1  0  0  0  0
 22 21  1  0  0  0  0
 24 20  1  0  0  0  0
 25 19  1  0  0  0  0
 26 25  1  0  0  0  0
 27 28  1  0  0  0  0
M  END
>  <MODEL>
2

>  <REMARK>
 VINA RESULT:      -8.3      2.729      4.155
  Name = 
  5 active torsions:
  status: ('A' for Active; 'I' for Inactive)
    1  A    between atoms: C_1  and  C_11
    2  A    between atoms: C_1  and  C_27
    3  A    between atoms: C_2  and  N_3
    4  A    between atoms: N_10  and  C_13
    5  A    between atoms: C_16  and  O_21
                            x       y       z     vdW  Elec       q    Type
                         _______ _______ _______ _____ _____    ______ ____

>  <TORSDO>
F 5

$$$$
=
 OpenBabel10272402013D

 28 30  0  0  1  0  0  0  0  0999 V2000
  188.7890  179.0330  139.5470 O   0  0  0  0  0  1  0  0  0  0  0  0
  186.5600  177.9670  142.2350 N   0  0  0  0  0  0  0  0  0  0  0  0
  186.1500  179.0950  140.2190 O   0  0  0  0  0  0  0  0  0  0  0  0
  189.3080  177.6020  141.4000 C   0  0  1  0  0  3  0  0  0  0  0  0
  187.4980  177.2680  143.0630 C   0  0  0  0  0  3  0  0  0  0  0  0
  188.2650  178.0120  140.3420 C   0  0  1  0  0  3  0  0  0  0  0  0
  186.9520  178.4270  140.9280 C   0  0  0  0  0  0  0  0  0  0  0  0
  188.7630  177.0400  142.7050 C   0  0  0  0  0  0  0  0  0  0  0  0
  184.1220  178.1880  141.9450 C   0  0  0  0  0  3  0  0  0  0  0  0
  185.0930  178.6330  144.1210 C   0  0  0  0  0  0  0  0  0  0  0  0
  182.7040  178.8570  143.7860 C   0  0  0  0  0  0  0  0  0  0  0  0
  185.2540  178.2540  142.7730 C   0  0  0  0  0  0  0  0  0  0  0  0
  183.8210  178.9280  144.6210 C   0  0  0  0  0  3  0  0  0  0  0  0
  186.1590  178.6900  144.9590 F   0  0  0  0  0  0  0  0  0  0  0  0
  181.4730  179.1450  144.2760 F   0  0  0  0  0  0  0  0  0  0  0  0
  182.8540  178.4860  142.4490 C   0  0  0  0  0  3  0  0  0  0  0  0
  189.6570  176.4780  143.7790 C   0  0  1  0  0  3  0  0  0  0  0  0
  190.5550  175.3130  143.3800 C   0  0  0  0  0  1  0  0  0  0  0  0
  191.1170  177.0410  145.8150 N   0  0  0  0  0  0  0  0  0  0  0  0
  189.3090  177.7380  146.8500 C   0  0  1  0  0  3  0  0  0  0  0  0
  189.1570  178.2440  145.4350 C   0  0  0  0  0  2  0  0  0  0  0  0
  190.2700  177.5400  144.7250 C   0  0  2  0  0  3  0  0  0  0  0  0
  188.0950  177.2150  147.2930 O   0  0  0  0  0  1  0  0  0  0  0  0
  190.2860  176.7270  146.8480 O   0  0  0  0  0  0  0  0  0  0  0  0
  191.9020  175.8630  145.4670 C   0  0  0  0  0  2  0  0  0  0  0  0
  192.3710  175.2500  146.6290 O   0  0  0  0  0  1  0  0  0  0  0  0
  191.5380  177.6100  140.8640 C   0  0  0  0  0  1  0  0  0  0  0  0
  190.3610  176.8410  140.8440 O   0  0  0  0  0  0  0  0  0  0  0  0
  2 12  1  0  0  0  0
  2  5  1  0  0  0  0
  3  7  2  0  0  0  0
  4 28  1  6  0  0  0
  4  8  1  0  0  0  0
  6  1  1  1  0  0  0
  6  7  1  0  0  0  0
  6  4  1  0  0  0  0
  7  2  1  0  0  0  0
  8  5  2  0  0  0  0
  8 17  1  0  0  0  0
  9 16  2  0  0  0  0
  9 12  1  0  0  0  0
 10 13  1  0  0  0  0
 10 14  1  0  0  0  0
 11 15  1  0  0  0  0
 11 13  2  0  0  0  0
 12 10  2  0  0  0  0
 16 11  1  0  0  0  0
 17 18  1  6  0  0  0
 19 24  1  0  0  0  0
 20 23  1  6  0  0  0
 21 20  1  0  0  0  0
 22 17  1  1  0  0  0
 22 21  1  0  0  0  0
 22 19  1  0  0  0  0
 24 20  1  0  0  0  0
 25 19  1  0  0  0  0
 25 26  1  0  0  0  0
 28 27  1  0  0  0  0
M  END
>  <MODEL>
3

>  <REMARK>
 VINA RESULT:      -8.0      2.344      4.510
  Name = 
  5 active torsions:
  status: ('A' for Active; 'I' for Inactive)
    1  A    between atoms: C_1  and  C_11
    2  A    between atoms: C_1  and  C_27
    3  A    between atoms: C_2  and  N_3
    4  A    between atoms: N_10  and  C_13
    5  A    between atoms: C_16  and  O_21
                            x       y       z     vdW  Elec       q    Type
                         _______ _______ _______ _____ _____    ______ ____

>  <TORSDO>
F 5

$$$$
=
 OpenBabel10272402013D

 28 30  0  0  1  0  0  0  0  0999 V2000
  187.3750  178.4430  138.1940 O   0  0  0  0  0  1  0  0  0  0  0  0
  190.5530  176.8230  138.9720 N   0  0  0  0  0  0  0  0  0  0  0  0
  189.5920  177.4840  136.9360 O   0  0  0  0  0  0  0  0  0  0  0  0
  188.3640  178.1190  140.3550 C   0  0  1  0  0  3  0  0  0  0  0  0
  190.4840  176.8330  140.4040 C   0  0  0  0  0  3  0  0  0  0  0  0
  188.5970  178.4530  138.8690 C   0  0  1  0  0  3  0  0  0  0  0  0
  189.5720  177.5370  138.1970 C   0  0  0  0  0  0  0  0  0  0  0  0
  189.5180  177.4490  141.0870 C   0  0  0  0  0  0  0  0  0  0  0  0
  192.9100  176.4700  138.3410 C   0  0  0  0  0  3  0  0  0  0  0  0
  191.2580  174.8180  137.6940 C   0  0  0  0  0  0  0  0  0  0  0  0
  193.5830  174.5210  137.0780 C   0  0  0  0  0  0  0  0  0  0  0  0
  191.5770  176.0280  138.3420 C   0  0  0  0  0  0  0  0  0  0  0  0
  192.2610  174.0700  137.0700 C   0  0  0  0  0  3  0  0  0  0  0  0
  189.9860  174.3460  137.6890 F   0  0  0  0  0  0  0  0  0  0  0  0
  194.5510  173.7920  136.4710 F   0  0  0  0  0  0  0  0  0  0  0  0
  193.9070  175.7200  137.7150 C   0  0  0  0  0  3  0  0  0  0  0  0
  189.4890  177.1810  142.5680 C   0  0  1  0  0  3  0  0  0  0  0  0
  188.9840  175.8110  143.0050 C   0  0  0  0  0  1  0  0  0  0  0  0
  191.4820  176.8130  144.1450 N   0  0  0  0  0  0  0  0  0  0  0  0
  190.4300  178.0030  145.6630 C   0  0  1  0  0  3  0  0  0  0  0  0
  190.1780  178.7330  144.3650 C   0  0  0  0  0  2  0  0  0  0  0  0
  190.6930  177.7610  143.3500 C   0  0  2  0  0  3  0  0  0  0  0  0
  189.2490  177.9410  146.4020 O   0  0  0  0  0  1  0  0  0  0  0  0
  190.8630  176.7010  145.3540 O   0  0  0  0  0  0  0  0  0  0  0  0
  191.5960  175.4880  143.5500 C   0  0  0  0  0  2  0  0  0  0  0  0
  192.3020  174.6450  144.4080 O   0  0  0  0  0  1  0  0  0  0  0  0
  186.4940  178.8380  141.4710 C   0  0  0  0  0  1  0  0  0  0  0  0
  187.7890  179.2000  141.0610 O   0  0  0  0  0  0  0  0  0  0  0  0
  2  5  1  0  0  0  0
  3  7  2  0  0  0  0
  4 28  1  1  0  0  0
  4  8  1  0  0  0  0
  5  8  2  0  0  0  0
  6  1  1  6  0  0  0
  6  4  1  0  0  0  0
  7  6  1  0  0  0  0
  7  2  1  0  0  0  0
  8 17  1  0  0  0  0
  9 12  1  0  0  0  0
 10 12  2  0  0  0  0
 11 16  1  0  0  0  0
 12  2  1  0  0  0  0
 13 11  2  0  0  0  0
 13 10  1  0  0  0  0
 14 10  1  0  0  0  0
 15 11  1  0  0  0  0
 16  9  2  0  0  0  0
 17 18  1  6  0  0  0
 19 24  1  0  0  0  0
 20 23  1  1  0  0  0
 21 20  1  0  0  0  0
 22 17  1  1  0  0  0
 22 19  1  0  0  0  0
 22 21  1  0  0  0  0
 24 20  1  0  0  0  0
 25 19  1  0  0  0  0
 25 26  1  0  0  0  0
 28 27  1  0  0  0  0
M  END
>  <MODEL>
4

>  <REMARK>
 VINA RESULT:      -7.7      4.237      7.533
  Name = 
  5 active torsions:
  status: ('A' for Active; 'I' for Inactive)
    1  A    between atoms: C_1  and  C_11
    2  A    between atoms: C_1  and  C_27
    3  A    between atoms: C_2  and  N_3
    4  A    between atoms: N_10  and  C_13
    5  A    between atoms: C_16  and  O_21
                            x       y       z     vdW  Elec       q    Type
                         _______ _______ _______ _____ _____    ______ ____

>  <TORSDO>
F 5

$$$$
=
 OpenBabel10272402013D

 28 30  0  0  1  0  0  0  0  0999 V2000
  184.2670  178.6810  141.4200 O   0  0  0  0  0  1  0  0  0  0  0  0
  187.4020  178.0870  139.6440 N   0  0  0  0  0  0  0  0  0  0  0  0
  185.2940  178.8000  138.9000 O   0  0  0  0  0  0  0  0  0  0  0  0
  186.4300  178.2620  142.3670 C   0  0  1  0  0  3  0  0  0  0  0  0
  188.2520  177.7740  140.7550 C   0  0  0  0  0  3  0  0  0  0  0  0
  185.6250  178.9560  141.2510 C   0  0  1  0  0  3  0  0  0  0  0  0
  186.0670  178.5790  139.8720 C   0  0  0  0  0  0  0  0  0  0  0  0
  187.8630  177.8780  142.0270 C   0  0  0  0  0  0  0  0  0  0  0  0
  187.4090  176.7270  137.5880 C   0  0  0  0  0  3  0  0  0  0  0  0
  188.8760  178.6520  137.7310 C   0  0  0  0  0  0  0  0  0  0  0  0
  188.8650  177.2750  135.7370 C   0  0  0  0  0  0  0  0  0  0  0  0
  187.8910  177.8280  138.3140 C   0  0  0  0  0  0  0  0  0  0  0  0
  189.3540  178.3730  136.4470 C   0  0  0  0  0  3  0  0  0  0  0  0
  189.3530  179.7370  138.3900 F   0  0  0  0  0  0  0  0  0  0  0  0
  189.3320  177.0100  134.4930 F   0  0  0  0  0  0  0  0  0  0  0  0
  187.8910  176.4520  136.3070 C   0  0  0  0  0  3  0  0  0  0  0  0
  188.8130  177.3120  143.0510 C   0  0  1  0  0  3  0  0  0  0  0  0
  189.0830  175.8140  142.9780 C   0  0  0  0  0  1  0  0  0  0  0  0
  191.3490  177.7120  143.0140 N   0  0  0  0  0  0  0  0  0  0  0  0
  191.3430  177.6040  145.2080 C   0  0  1  0  0  3  0  0  0  0  0  0
  190.1020  178.3930  144.8620 C   0  0  0  0  0  2  0  0  0  0  0  0
  190.0220  178.2230  143.3770 C   0  0  2  0  0  3  0  0  0  0  0  0
  191.0450  176.6760  146.2040 O   0  0  0  0  0  1  0  0  0  0  0  0
  191.7680  176.9320  144.0490 O   0  0  0  0  0  0  0  0  0  0  0  0
  191.3680  176.9220  141.7890 C   0  0  0  0  0  2  0  0  0  0  0  0
  191.9580  177.6580  140.7620 O   0  0  0  0  0  1  0  0  0  0  0  0
  185.6880  178.0370  144.5250 C   0  0  0  0  0  1  0  0  0  0  0  0
  186.2930  178.9170  143.6110 O   0  0  0  0  0  0  0  0  0  0  0  0
  2  7  1  0  0  0  0
  2  5  1  0  0  0  0
  3  7  2  0  0  0  0
  4 28  1  1  0  0  0
  5  8  2  0  0  0  0
  6  1  1  6  0  0  0
  6  4  1  0  0  0  0
  7  6  1  0  0  0  0
  8  4  1  0  0  0  0
  8 17  1  0  0  0  0
  9 12  1  0  0  0  0
 10 12  2  0  0  0  0
 10 14  1  0  0  0  0
 11 16  1  0  0  0  0
 11 13  2  0  0  0  0
 12  2  1  0  0  0  0
 13 10  1  0  0  0  0
 15 11  1  0  0  0  0
 16  9  2  0  0  0  0
 17 18  1  6  0  0  0
 19 22  1  0  0  0  0
 19 24  1  0  0  0  0
 20 23  1  1  0  0  0
 21 20  1  0  0  0  0
 22 17  1  1  0  0  0
 22 21  1  0  0  0  0
 24 20  1  0  0  0  0
 25 19  1  0  0  0  0
 26 25  1  0  0  0  0
 28 27  1  0  0  0  0
M  END
>  <MODEL>
5

>  <REMARK>
 VINA RESULT:      -7.6      3.494      4.741
  Name = 
  5 active torsions:
  status: ('A' for Active; 'I' for Inactive)
    1  A    between atoms: C_1  and  C_11
    2  A    between atoms: C_1  and  C_27
    3  A    between atoms: C_2  and  N_3
    4  A    between atoms: N_10  and  C_13
    5  A    between atoms: C_16  and  O_21
                            x       y       z     vdW  Elec       q    Type
                         _______ _______ _______ _____ _____    ______ ____

>  <TORSDO>
F 5

$$$$
=
 OpenBabel10272402013D

 28 30  0  0  1  0  0  0  0  0999 V2000
  183.3740  179.0600  145.6320 O   0  0  0  0  0  1  0  0  0  0  0  0
  184.6270  178.2950  142.2890 N   0  0  0  0  0  0  0  0  0  0  0  0
  182.5740  179.1540  143.0300 O   0  0  0  0  0  0  0  0  0  0  0  0
  185.6170  178.4870  145.0040 C   0  0  1  0  0  3  0  0  0  0  0  0
  185.9690  177.9100  142.6170 C   0  0  0  0  0  3  0  0  0  0  0  0
  184.3310  179.2500  144.6330 C   0  0  1  0  0  3  0  0  0  0  0  0
  183.7730  178.8680  143.2970 C   0  0  0  0  0  0  0  0  0  0  0  0
  186.4820  178.0170  143.8440 C   0  0  0  0  0  0  0  0  0  0  0  0
  182.9570  177.3020  140.7720 C   0  0  0  0  0  3  0  0  0  0  0  0
  184.8640  178.4610  139.8260 C   0  0  0  0  0  0  0  0  0  0  0  0
  183.2080  177.4520  138.3720 C   0  0  0  0  0  0  0  0  0  0  0  0
  184.1450  178.0280  140.9580 C   0  0  0  0  0  0  0  0  0  0  0  0
  184.3920  178.1740  138.5410 C   0  0  0  0  0  3  0  0  0  0  0  0
  186.0050  179.1820  139.9620 F   0  0  0  0  0  0  0  0  0  0  0  0
  182.7560  177.1770  137.1250 F   0  0  0  0  0  0  0  0  0  0  0  0
  182.4910  177.0170  139.4870 C   0  0  0  0  0  3  0  0  0  0  0  0
  187.8290  177.3740  144.0480 C   0  0  1  0  0  3  0  0  0  0  0  0
  188.0700  176.0500  143.3330 C   0  0  0  0  0  1  0  0  0  0  0  0
  189.9520  178.3280  142.9630 N   0  0  0  0  0  0  0  0  0  0  0  0
  191.1150  177.4810  144.6240 C   0  0  1  0  0  3  0  0  0  0  0  0
  189.8700  178.0370  145.2750 C   0  0  0  0  0  2  0  0  0  0  0  0
  189.0150  178.3690  144.0920 C   0  0  2  0  0  3  0  0  0  0  0  0
  191.4040  176.2270  145.1600 O   0  0  0  0  0  1  0  0  0  0  0  0
  190.8670  177.3590  143.2450 O   0  0  0  0  0  0  0  0  0  0  0  0
  189.3270  178.0270  141.6820 C   0  0  0  0  0  2  0  0  0  0  0  0
  190.1490  177.1750  140.9450 O   0  0  0  0  0  1  0  0  0  0  0  0
  186.3570  178.2950  147.1660 C   0  0  0  0  0  1  0  0  0  0  0  0
  186.3400  179.1290  146.0340 O   0  0  0  0  0  0  0  0  0  0  0  0
  2  5  1  0  0  0  0
  2  7  1  0  0  0  0
  3  7  2  0  0  0  0
  4 28  1  1  0  0  0
  5  8  2  0  0  0  0
  6  4  1  0  0  0  0
  6  1  1  1  0  0  0
  7  6  1  0  0  0  0
  8 17  1  0  0  0  0
  8  4  1  0  0  0  0
  9 12  1  0  0  0  0
 10 14  1  0  0  0  0
 10 12  2  0  0  0  0
 11 13  2  0  0  0  0
 11 16  1  0  0  0  0
 12  2  1  0  0  0  0
 13 10  1  0  0  0  0
 15 11  1  0  0  0  0
 16  9  2  0  0  0  0
 17 18  1  6  0  0  0
 19 24  1  0  0  0  0
 19 22  1  0  0  0  0
 20 23  1  1  0  0  0
 20 21  1  0  0  0  0
 22 17  1  6  0  0  0
 22 21  1  0  0  0  0
 24 20  1  0  0  0  0
 25 19  1  0  0  0  0
 26 25  1  0  0  0  0
 28 27  1  0  0  0  0
M  END
>  <MODEL>
6

>  <REMARK>
 VINA RESULT:      -7.6      1.370      1.662
  Name = 
  5 active torsions:
  status: ('A' for Active; 'I' for Inactive)
    1  A    between atoms: C_1  and  C_11
    2  A    between atoms: C_1  and  C_27
    3  A    between atoms: C_2  and  N_3
    4  A    between atoms: N_10  and  C_13
    5  A    between atoms: C_16  and  O_21
                            x       y       z     vdW  Elec       q    Type
                         _______ _______ _______ _____ _____    ______ ____

>  <TORSDO>
F 5

$$$$
=
 OpenBabel10272402013D

 28 30  0  0  1  0  0  0  0  0999 V2000
  191.4670  177.8160  145.3520 O   0  0  0  0  0  1  0  0  0  0  0  0
  189.4060  177.3150  142.3800 N   0  0  0  0  0  0  0  0  0  0  0  0
  191.7330  177.3580  142.6800 O   0  0  0  0  0  0  0  0  0  0  0  0
  189.0950  177.4770  145.2550 C   0  0  1  0  0  3  0  0  0  0  0  0
  188.1070  177.3200  142.9850 C   0  0  0  0  0  3  0  0  0  0  0  0
  190.4750  177.0970  144.6830 C   0  0  1  0  0  3  0  0  0  0  0  0
  190.5870  177.3030  143.2050 C   0  0  0  0  0  0  0  0  0  0  0  0
  187.9130  177.3540  144.3050 C   0  0  0  0  0  0  0  0  0  0  0  0
  190.3630  176.5420  140.2440 C   0  0  0  0  0  3  0  0  0  0  0  0
  188.7350  178.3370  140.2230 C   0  0  0  0  0  0  0  0  0  0  0  0
  189.7160  177.5600  138.1480 C   0  0  0  0  0  0  0  0  0  0  0  0
  189.4930  177.3930  140.9440 C   0  0  0  0  0  0  0  0  0  0  0  0
  188.8470  178.4130  138.8310 C   0  0  0  0  0  3  0  0  0  0  0  0
  187.8680  179.1640  140.8590 F   0  0  0  0  0  0  0  0  0  0  0  0
  189.8220  177.6380  136.8000 F   0  0  0  0  0  0  0  0  0  0  0  0
  190.4730  176.6230  138.8550 C   0  0  0  0  0  3  0  0  0  0  0  0
  186.4900  177.5640  144.7530 C   0  0  1  0  0  3  0  0  0  0  0  0
  186.0280  176.7590  145.9610 C   0  0  0  0  0  1  0  0  0  0  0  0
  185.2300  179.5390  145.8040 N   0  0  0  0  0  0  0  0  0  0  0  0
  183.7230  179.3520  144.2160 C   0  0  1  0  0  3  0  0  0  0  0  0
  185.0450  179.1420  143.5140 C   0  0  0  0  0  2  0  0  0  0  0  0
  185.9990  179.0300  144.6620 C   0  0  2  0  0  3  0  0  0  0  0  0
  182.7980  178.4130  143.7630 O   0  0  0  0  0  1  0  0  0  0  0  0
  183.9310  179.1820  145.5960 O   0  0  0  0  0  0  0  0  0  0  0  0
  185.6610  179.0140  147.0940 C   0  0  0  0  0  2  0  0  0  0  0  0
  185.9820  180.0690  147.9480 O   0  0  0  0  0  1  0  0  0  0  0  0
  189.0590  177.8940  147.5100 C   0  0  0  0  0  1  0  0  0  0  0  0
  188.8680  176.9060  146.5270 O   0  0  0  0  0  0  0  0  0  0  0  0
  2  5  1  0  0  0  0
  2  7  1  0  0  0  0
  3  7  2  0  0  0  0
  4 28  1  1  0  0  0
  5  8  2  0  0  0  0
  6  4  1  0  0  0  0
  6  1  1  1  0  0  0
  7  6  1  0  0  0  0
  8 17  1  0  0  0  0
  8  4  1  0  0  0  0
  9 12  1  0  0  0  0
 10 14  1  0  0  0  0
 10 12  2  0  0  0  0
 11 13  2  0  0  0  0
 11 16  1  0  0  0  0
 12  2  1  0  0  0  0
 13 10  1  0  0  0  0
 15 11  1  0  0  0  0
 16  9  2  0  0  0  0
 17 18  1  1  0  0  0
 19 25  1  0  0  0  0
 20 23  1  6  0  0  0
 20 24  1  0  0  0  0
 21 20  1  0  0  0  0
 21 22  1  0  0  0  0
 22 17  1  1  0  0  0
 22 19  1  0  0  0  0
 24 19  1  0  0  0  0
 25 26  1  0  0  0  0
 28 27  1  0  0  0  0
M  END
>  <MODEL>
7

>  <REMARK>
 VINA RESULT:      -7.6      2.222      6.135
  Name = 
  5 active torsions:
  status: ('A' for Active; 'I' for Inactive)
    1  A    between atoms: C_1  and  C_11
    2  A    between atoms: C_1  and  C_27
    3  A    between atoms: C_2  and  N_3
    4  A    between atoms: N_10  and  C_13
    5  A    between atoms: C_16  and  O_21
                            x       y       z     vdW  Elec       q    Type
                         _______ _______ _______ _____ _____    ______ ____

>  <TORSDO>
F 5

$$$$
=
 OpenBabel10272402013D

 28 30  0  0  1  0  0  0  0  0999 V2000
  186.9010  178.4130  138.8960 O   0  0  0  0  0  1  0  0  0  0  0  0
  190.1830  176.9390  139.5150 N   0  0  0  0  0  0  0  0  0  0  0  0
  189.1610  177.7100  137.5490 O   0  0  0  0  0  0  0  0  0  0  0  0
  187.9310  177.9700  141.0160 C   0  0  1  0  0  3  0  0  0  0  0  0
  190.1290  176.8220  140.9430 C   0  0  0  0  0  3  0  0  0  0  0  0
  188.1270  178.4430  139.5630 C   0  0  1  0  0  3  0  0  0  0  0  0
  189.1510  177.6530  138.8090 C   0  0  0  0  0  0  0  0  0  0  0  0
  189.1320  177.3140  141.6810 C   0  0  0  0  0  0  0  0  0  0  0  0
  190.9620  175.1800  137.9740 C   0  0  0  0  0  3  0  0  0  0  0  0
  192.5890  176.6700  138.9780 C   0  0  0  0  0  0  0  0  0  0  0  0
  193.3120  174.9140  137.4720 C   0  0  0  0  0  0  0  0  0  0  0  0
  191.2480  176.2690  138.8140 C   0  0  0  0  0  0  0  0  0  0  0  0
  193.6120  175.9940  138.3050 C   0  0  0  0  0  3  0  0  0  0  0  0
  192.9060  177.7290  139.7640 F   0  0  0  0  0  0  0  0  0  0  0  0
  194.3080  174.2620  136.8230 F   0  0  0  0  0  0  0  0  0  0  0  0
  191.9870  174.5080  137.3060 C   0  0  0  0  0  3  0  0  0  0  0  0
  189.1360  176.9180  143.1340 C   0  0  1  0  0  3  0  0  0  0  0  0
  190.0460  175.7600  143.5250 C   0  0  0  0  0  1  0  0  0  0  0  0
  190.2880  178.4440  144.8490 N   0  0  0  0  0  0  0  0  0  0  0  0
  189.0000  177.5770  146.4040 C   0  0  1  0  0  3  0  0  0  0  0  0
  188.0900  177.7570  145.2110 C   0  0  0  0  0  2  0  0  0  0  0  0
  189.0570  178.1070  144.1240 C   0  0  2  0  0  3  0  0  0  0  0  0
  188.7650  176.3340  146.9880 O   0  0  0  0  0  1  0  0  0  0  0  0
  190.3290  177.6420  145.9500 O   0  0  0  0  0  0  0  0  0  0  0  0
  191.5070  178.2450  144.0760 C   0  0  0  0  0  2  0  0  0  0  0  0
  192.1900  179.4550  143.9540 O   0  0  0  0  0  1  0  0  0  0  0  0
  185.9960  178.5080  142.1230 C   0  0  0  0  0  1  0  0  0  0  0  0
  187.2960  178.9470  141.8150 O   0  0  0  0  0  0  0  0  0  0  0  0
  2  5  1  0  0  0  0
  3  7  2  0  0  0  0
  4  8  1  0  0  0  0
  4 28  1  1  0  0  0
  5  8  2  0  0  0  0
  6  1  1  6  0  0  0
  6  4  1  0  0  0  0
  7  2  1  0  0  0  0
  7  6  1  0  0  0  0
  8 17  1  0  0  0  0
  9 12  1  0  0  0  0
 10 14  1  0  0  0  0
 11 13  2  0  0  0  0
 12 10  2  0  0  0  0
 12  2  1  0  0  0  0
 13 10  1  0  0  0  0
 15 11  1  0  0  0  0
 16 11  1  0  0  0  0
 16  9  2  0  0  0  0
 17 18  1  1  0  0  0
 19 24  1  0  0  0  0
 20 23  1  6  0  0  0
 21 20  1  0  0  0  0
 22 17  1  6  0  0  0
 22 19  1  0  0  0  0
 22 21  1  0  0  0  0
 24 20  1  0  0  0  0
 25 19  1  0  0  0  0
 26 25  1  0  0  0  0
 28 27  1  0  0  0  0
M  END
>  <MODEL>
8

>  <REMARK>
 VINA RESULT:      -7.3      4.012      7.077
  Name = 
  5 active torsions:
  status: ('A' for Active; 'I' for Inactive)
    1  A    between atoms: C_1  and  C_11
    2  A    between atoms: C_1  and  C_27
    3  A    between atoms: C_2  and  N_3
    4  A    between atoms: N_10  and  C_13
    5  A    between atoms: C_16  and  O_21
                            x       y       z     vdW  Elec       q    Type
                         _______ _______ _______ _____ _____    ______ ____

>  <TORSDO>
F 5

$$$$
=
 OpenBabel10272402013D

 28 30  0  0  1  0  0  0  0  0999 V2000
  188.6860  179.5350  137.7300 O   0  0  0  0  0  1  0  0  0  0  0  0
  189.4410  177.2900  140.5080 N   0  0  0  0  0  0  0  0  0  0  0  0
  188.0770  179.1930  140.3630 O   0  0  0  0  0  0  0  0  0  0  0  0
  189.8490  177.4390  137.6450 C   0  0  1  0  0  3  0  0  0  0  0  0
  190.2520  176.3250  139.8250 C   0  0  0  0  0  3  0  0  0  0  0  0
  188.6940  178.2470  138.2680 C   0  0  1  0  0  3  0  0  0  0  0  0
  188.7430  178.3060  139.7630 C   0  0  0  0  0  0  0  0  0  0  0  0
  190.4370  176.3290  138.5040 C   0  0  0  0  0  0  0  0  0  0  0  0
  188.2390  176.8460  142.6150 C   0  0  0  0  0  3  0  0  0  0  0  0
  190.5210  177.6590  142.7100 C   0  0  0  0  0  0  0  0  0  0  0  0
  189.2950  177.2280  144.7560 C   0  0  0  0  0  0  0  0  0  0  0  0
  189.4060  177.2560  141.9480 C   0  0  0  0  0  0  0  0  0  0  0  0
  190.4620  177.6390  144.1070 C   0  0  0  0  0  3  0  0  0  0  0  0
  191.6730  178.0420  142.1060 F   0  0  0  0  0  0  0  0  0  0  0  0
  189.2430  177.2120  146.1100 F   0  0  0  0  0  0  0  0  0  0  0  0
  188.1850  176.8310  144.0090 C   0  0  0  0  0  3  0  0  0  0  0  0
  191.4800  175.3730  137.9860 C   0  0  1  0  0  3  0  0  0  0  0  0
  190.9740  174.1720  137.1950 C   0  0  0  0  0  1  0  0  0  0  0  0
  193.3210  175.5510  136.2050 N   0  0  0  0  0  0  0  0  0  0  0  0
  194.7620  174.8360  137.7020 C   0  0  1  0  0  3  0  0  0  0  0  0
  193.8700  175.7930  138.4580 C   0  0  0  0  0  2  0  0  0  0  0  0
  192.7740  176.0510  137.4720 C   0  0  2  0  0  3  0  0  0  0  0  0
  194.9850  173.6960  138.4720 O   0  0  0  0  0  1  0  0  0  0  0  0
  194.1070  174.4800  136.5100 O   0  0  0  0  0  0  0  0  0  0  0  0
  192.3090  175.1340  135.2430 C   0  0  0  0  0  2  0  0  0  0  0  0
  192.0470  176.1760  134.3540 O   0  0  0  0  0  1  0  0  0  0  0  0
  188.2940  176.4680  136.2690 C   0  0  0  0  0  1  0  0  0  0  0  0
  189.5730  177.0500  136.3160 O   0  0  0  0  0  0  0  0  0  0  0  0
  2 12  1  0  0  0  0
  4 28  1  6  0  0  0
  4  6  1  0  0  0  0
  4  8  1  0  0  0  0
  5  2  1  0  0  0  0
  6  1  1  6  0  0  0
  6  7  1  0  0  0  0
  7  3  2  0  0  0  0
  7  2  1  0  0  0  0
  8  5  2  0  0  0  0
  9 16  1  0  0  0  0
 10 13  2  0  0  0  0
 11 15  1  0  0  0  0
 12  9  2  0  0  0  0
 12 10  1  0  0  0  0
 13 11  1  0  0  0  0
 14 10  1  0  0  0  0
 16 11  2  0  0  0  0
 17 18  1  6  0  0  0
 17  8  1  0  0  0  0
 19 24  1  0  0  0  0
 19 22  1  0  0  0  0
 20 21  1  0  0  0  0
 20 23  1  1  0  0  0
 22 17  1  1  0  0  0
 22 21  1  0  0  0  0
 24 20  1  0  0  0  0
 25 19  1  0  0  0  0
 26 25  1  0  0  0  0
 27 28  1  0  0  0  0
M  END
>  <MODEL>
9

>  <REMARK>
 VINA RESULT:      -7.3      4.842      7.693
  Name = 
  5 active torsions:
  status: ('A' for Active; 'I' for Inactive)
    1  A    between atoms: C_1  and  C_11
    2  A    between atoms: C_1  and  C_27
    3  A    between atoms: C_2  and  N_3
    4  A    between atoms: N_10  and  C_13
    5  A    between atoms: C_16  and  O_21
                            x       y       z     vdW  Elec       q    Type
                         _______ _______ _______ _____ _____    ______ ____

>  <TORSDO>
F 5

$$$$
