=
 OpenBabel10272415103D

 34 38  0  0  1  0  0  0  0  0999 V2000
  182.8820  177.2450  138.6060 C   0  0  1  0  0  3  0  0  0  0  0  0
  185.0950  174.4050  137.5420 C   0  0  0  0  0  3  0  0  0  0  0  0
  185.5170  176.7050  137.5910 O   0  0  0  0  0  0  0  0  0  0  0  0
  183.3470  178.4580  140.7880 C   0  0  1  0  0  3  0  0  0  0  0  0
  183.0110  177.1180  140.1310 C   0  0  0  0  0  2  0  0  0  0  0  0
  183.3910  179.7200  138.7410 C   0  0  2  0  0  3  0  0  0  0  0  0
  184.4750  180.5920  138.8590 O   0  0  0  0  0  1  0  0  0  0  0  0
  182.7290  179.5540  140.0430 N   0  0  0  0  0  2  0  0  0  0  0  0
  185.2510  178.0100  138.1120 C   0  0  2  0  0  3  0  0  0  0  0  0
  183.7520  178.3790  138.0350 C   0  0  1  0  0  3  0  0  0  0  0  0
  186.0180  178.9370  137.4060 O   0  0  0  0  0  1  0  0  0  0  0  0
  184.2710  173.1750  137.7250 C   0  0  0  0  0  2  0  0  0  0  0  0
  183.1810  173.0830  136.7070 C   0  0  0  0  0  0  0  0  0  0  0  0
  182.2080  174.0010  136.6640 C   0  0  0  0  0  3  0  0  0  0  0  0
  184.6160  175.6410  137.6820 C   0  0  0  0  0  0  0  0  0  0  0  0
  182.1520  175.2460  137.4550 C   0  0  0  0  0  3  0  0  0  0  0  0
  183.1870  175.9460  137.9430 C   0  0  0  0  0  0  0  0  0  0  0  0
  183.1410  171.8950  135.8260 C   0  0  0  0  0  0  0  0  0  0  0  0
  182.5530  171.9900  134.5700 O   0  0  0  0  0  1  0  0  0  0  0  0
  183.6500  170.7260  136.2020 C   0  0  0  0  0  2  0  0  0  0  0  0
  182.8620  178.4540  142.2280 C   0  0  0  0  0  2  0  0  0  0  0  0
  184.6760  178.8890  145.5880 C   0  0  0  0  0  2  0  0  0  0  0  0
  185.1520  177.7470  142.8720 C   0  0  0  0  0  2  0  0  0  0  0  0
  188.2750  177.7210  145.8380 C   0  0  0  0  0  0  0  0  0  0  0  0
  187.0150  178.2360  146.1680 C   0  0  0  0  0  3  0  0  0  0  0  0
  185.9900  178.2610  145.2170 C   0  0  0  0  0  0  0  0  0  0  0  0
  187.4970  177.2720  143.5880 C   0  0  0  0  0  3  0  0  0  0  0  0
  186.2410  177.7950  143.9070 C   0  0  0  0  0  0  0  0  0  0  0  0
  188.5130  177.2390  144.5470 C   0  0  0  0  0  3  0  0  0  0  0  0
  184.0090  178.7050  143.1920 C   0  0  2  0  0  3  0  0  0  0  0  0
  183.5570  178.4870  144.6310 C   0  0  0  0  0  2  0  0  0  0  0  0
  189.3740  177.6820  146.8470 C   0  0  0  0  0  3  0  0  0  0  0  0
  189.0120  176.8690  147.9230 O   0  0  0  0  0  1  0  0  0  0  0  0
  190.5460  177.1970  146.2670 O   0  0  0  0  0  1  0  0  0  0  0  0
  1  5  1  1  0  0  0
  2 15  2  0  0  0  0
  2 12  1  0  0  0  0
  3 15  1  0  0  0  0
  3  9  1  0  0  0  0
  4 21  1  1  0  0  0
  5  4  1  0  0  0  0
  6  7  1  1  0  0  0
  6  8  1  0  0  0  0
  8  4  1  0  0  0  0
  9 11  1  6  0  0  0
 10  9  1  0  0  0  0
 10  1  1  0  0  0  0
 10  6  1  0  0  0  0
 13 12  1  0  0  0  0
 14 13  2  0  0  0  0
 14 16  1  0  0  0  0
 15 17  1  0  0  0  0
 16 17  2  0  0  0  0
 17  1  1  0  0  0  0
 18 20  2  0  0  0  0
 18 13  1  0  0  0  0
 19 18  1  0  0  0  0
 21 30  1  0  0  0  0
 23 30  1  0  0  0  0
 23 28  1  0  0  0  0
 24 25  1  0  0  0  0
 24 32  1  0  0  0  0
 26 22  1  0  0  0  0
 26 25  2  0  0  0  0
 27 28  2  0  0  0  0
 27 29  1  0  0  0  0
 28 26  1  0  0  0  0
 29 24  2  0  0  0  0
 30 31  1  0  0  0  0
 31 22  1  0  0  0  0
 32 33  1  0  0  0  0
 34 32  1  0  0  0  0
M  END
>  <MODEL>
1

>  <REMARK>
 VINA RESULT:      -9.3      0.000      0.000
  Name = 
  4 active torsions:
  status: ('A' for Active; 'I' for Inactive)
    1  A    between atoms: C_3  and  C_25
    2  A    between atoms: C_7  and  C_11
    3  A    between atoms: C_8  and  C_18
    4  A    between atoms: C_18  and  C_30
                            x       y       z     vdW  Elec       q    Type
                         _______ _______ _______ _____ _____    ______ ____

>  <TORSDO>
F 4

$$$$
=
 OpenBabel10272415103D

 34 38  0  0  1  0  0  0  0  0999 V2000
  181.9690  177.6970  140.7920 C   0  0  1  0  0  3  0  0  0  0  0  0
  184.0130  178.0100  137.6580 C   0  0  0  0  0  3  0  0  0  0  0  0
  182.4260  179.4650  138.5710 O   0  0  0  0  0  0  0  0  0  0  0  0
  182.5110  179.1520  142.8020 C   0  0  1  0  0  3  0  0  0  0  0  0
  183.0290  178.0870  141.8330 C   0  0  0  0  0  2  0  0  0  0  0  0
  180.3260  179.3270  141.8120 C   0  0  2  0  0  3  0  0  0  0  0  0
  180.0210  180.6910  141.8140 O   0  0  0  0  0  1  0  0  0  0  0  0
  181.0770  178.9740  143.0260 N   0  0  0  0  0  2  0  0  0  0  0  0
  181.6980  179.9690  139.6950 C   0  0  2  0  0  3  0  0  0  0  0  0
  180.9920  178.8470  140.4900 C   0  0  1  0  0  3  0  0  0  0  0  0
  180.7670  180.9040  139.2400 O   0  0  0  0  0  1  0  0  0  0  0  0
  184.8370  176.7680  137.6010 C   0  0  0  0  0  2  0  0  0  0  0  0
  184.0070  175.5680  137.2800 C   0  0  0  0  0  0  0  0  0  0  0  0
  183.0440  175.1600  138.1170 C   0  0  0  0  0  3  0  0  0  0  0  0
  183.0500  178.2150  138.5560 C   0  0  0  0  0  0  0  0  0  0  0  0
  182.5800  175.8760  139.3210 C   0  0  0  0  0  3  0  0  0  0  0  0
  182.6170  177.1970  139.5460 C   0  0  0  0  0  0  0  0  0  0  0  0
  184.3500  174.7780  136.0770 C   0  0  0  0  0  0  0  0  0  0  0  0
  184.2540  173.3920  136.1150 O   0  0  0  0  0  1  0  0  0  0  0  0
  184.7560  175.3560  134.9510 C   0  0  0  0  0  2  0  0  0  0  0  0
  183.2700  179.0560  144.1150 C   0  0  0  0  0  2  0  0  0  0  0  0
  186.6910  178.2780  142.5450 C   0  0  0  0  0  2  0  0  0  0  0  0
  185.3950  178.4210  145.2310 C   0  0  0  0  0  2  0  0  0  0  0  0
  189.5030  177.1870  144.8450 C   0  0  0  0  0  0  0  0  0  0  0  0
  188.7850  177.5600  143.7010 C   0  0  0  0  0  3  0  0  0  0  0  0
  187.4470  177.9560  143.8040 C   0  0  0  0  0  0  0  0  0  0  0  0
  187.5360  177.5820  146.2030 C   0  0  0  0  0  3  0  0  0  0  0  0
  186.8110  177.9450  145.0650 C   0  0  0  0  0  0  0  0  0  0  0  0
  188.8760  177.2000  146.0930 C   0  0  0  0  0  3  0  0  0  0  0  0
  184.6130  178.3720  143.9220 C   0  0  2  0  0  3  0  0  0  0  0  0
  185.4160  179.0680  142.8280 C   0  0  0  0  0  2  0  0  0  0  0  0
  190.9330  176.7690  144.7470 C   0  0  0  0  0  3  0  0  0  0  0  0
  191.5280  177.3480  143.6250 O   0  0  0  0  0  1  0  0  0  0  0  0
  191.6260  177.1510  145.8960 O   0  0  0  0  0  1  0  0  0  0  0  0
  1  5  1  1  0  0  0
  2 15  2  0  0  0  0
  3  9  1  0  0  0  0
  4  8  1  0  0  0  0
  4 21  1  1  0  0  0
  5  4  1  0  0  0  0
  6  7  1  6  0  0  0
  6  8  1  0  0  0  0
  9 11  1  6  0  0  0
  9 10  1  0  0  0  0
 10  1  1  0  0  0  0
 10  6  1  0  0  0  0
 12  2  1  0  0  0  0
 13 12  1  0  0  0  0
 13 14  2  0  0  0  0
 14 16  1  0  0  0  0
 15  3  1  0  0  0  0
 15 17  1  0  0  0  0
 16 17  2  0  0  0  0
 17  1  1  0  0  0  0
 18 19  1  0  0  0  0
 18 13  1  0  0  0  0
 20 18  2  0  0  0  0
 22 31  1  0  0  0  0
 22 26  1  0  0  0  0
 24 29  1  0  0  0  0
 25 26  1  0  0  0  0
 25 24  2  0  0  0  0
 26 28  2  0  0  0  0
 28 23  1  0  0  0  0
 28 27  1  0  0  0  0
 29 27  2  0  0  0  0
 30 21  1  0  0  0  0
 30 23  1  0  0  0  0
 31 30  1  0  0  0  0
 32 24  1  0  0  0  0
 32 34  1  0  0  0  0
 33 32  1  0  0  0  0
M  END
>  <MODEL>
2

>  <REMARK>
 VINA RESULT:      -9.0      1.959      3.219
  Name = 
  4 active torsions:
  status: ('A' for Active; 'I' for Inactive)
    1  A    between atoms: C_3  and  C_25
    2  A    between atoms: C_7  and  C_11
    3  A    between atoms: C_8  and  C_18
    4  A    between atoms: C_18  and  C_30
                            x       y       z     vdW  Elec       q    Type
                         _______ _______ _______ _____ _____    ______ ____

>  <TORSDO>
F 4

$$$$
=
 OpenBabel10272415103D

 34 38  0  0  1  0  0  0  0  0999 V2000
  185.3610  176.6670  136.7650 C   0  0  1  0  0  3  0  0  0  0  0  0
  185.8040  172.9980  137.4350 C   0  0  0  0  0  3  0  0  0  0  0  0
  187.3750  174.7310  137.4480 O   0  0  0  0  0  0  0  0  0  0  0  0
  185.4870  178.3240  138.6850 C   0  0  1  0  0  3  0  0  0  0  0  0
  184.7620  177.1060  138.1100 C   0  0  0  0  0  2  0  0  0  0  0  0
  187.0580  178.5400  136.8770 C   0  0  2  0  0  3  0  0  0  0  0  0
  188.2810  178.8520  137.4770 O   0  0  0  0  0  1  0  0  0  0  0  0
  185.9570  179.1890  137.6040 N   0  0  0  0  0  2  0  0  0  0  0  0
  187.7000  176.1170  137.5830 C   0  0  2  0  0  3  0  0  0  0  0  0
  186.8570  177.0130  136.6480 C   0  0  1  0  0  3  0  0  0  0  0  0
  189.0600  176.2830  137.3200 O   0  0  0  0  0  1  0  0  0  0  0  0
  184.4460  172.4030  137.2690 C   0  0  0  0  0  2  0  0  0  0  0  0
  184.0230  172.3810  135.8370 C   0  0  0  0  0  0  0  0  0  0  0  0
  183.8520  173.5230  135.1580 C   0  0  0  0  0  3  0  0  0  0  0  0
  186.0920  174.2670  137.1450 C   0  0  0  0  0  0  0  0  0  0  0  0
  184.1850  174.8780  135.6390 C   0  0  0  0  0  3  0  0  0  0  0  0
  185.1250  175.2130  136.5340 C   0  0  0  0  0  0  0  0  0  0  0  0
  183.6890  171.0770  135.2220 C   0  0  0  0  0  0  0  0  0  0  0  0
  182.4720  170.9170  134.5690 O   0  0  0  0  0  1  0  0  0  0  0  0
  184.5200  170.0410  135.2800 C   0  0  0  0  0  2  0  0  0  0  0  0
  184.5470  179.0860  139.6050 C   0  0  0  0  0  2  0  0  0  0  0  0
  184.5220  178.4090  143.3880 C   0  0  0  0  0  2  0  0  0  0  0  0
  186.4170  178.3910  141.0820 C   0  0  0  0  0  2  0  0  0  0  0  0
  187.8100  177.5460  145.0690 C   0  0  0  0  0  0  0  0  0  0  0  0
  186.4490  177.7930  144.8520 C   0  0  0  0  0  3  0  0  0  0  0  0
  185.9780  178.0780  143.5670 C   0  0  0  0  0  0  0  0  0  0  0  0
  188.2430  177.8910  142.7100 C   0  0  0  0  0  3  0  0  0  0  0  0
  186.8880  178.1490  142.4890 C   0  0  0  0  0  0  0  0  0  0  0  0
  188.7050  177.5950  143.9960 C   0  0  0  0  0  3  0  0  0  0  0  0
  185.0480  179.0620  141.0400 C   0  0  2  0  0  3  0  0  0  0  0  0
  184.0810  178.2920  141.9320 C   0  0  0  0  0  2  0  0  0  0  0  0
  188.3230  177.2330  146.4360 C   0  0  0  0  0  3  0  0  0  0  0  0
  189.6710  177.5850  146.5360 O   0  0  0  0  0  1  0  0  0  0  0  0
  187.5850  177.9230  147.3980 O   0  0  0  0  0  1  0  0  0  0  0  0
  1  5  1  1  0  0  0
  3  9  1  0  0  0  0
  4 21  1  1  0  0  0
  5  4  1  0  0  0  0
  6  7  1  1  0  0  0
  6  8  1  0  0  0  0
  8  4  1  0  0  0  0
  9 11  1  6  0  0  0
 10  1  1  0  0  0  0
 10  6  1  0  0  0  0
 10  9  1  0  0  0  0
 12  2  1  0  0  0  0
 13 12  1  0  0  0  0
 14 16  1  0  0  0  0
 14 13  2  0  0  0  0
 15  2  2  0  0  0  0
 15  3  1  0  0  0  0
 16 17  2  0  0  0  0
 17  1  1  0  0  0  0
 17 15  1  0  0  0  0
 18 20  2  0  0  0  0
 18 13  1  0  0  0  0
 19 18  1  0  0  0  0
 21 30  1  0  0  0  0
 22 26  1  0  0  0  0
 23 28  1  0  0  0  0
 24 32  1  0  0  0  0
 25 24  1  0  0  0  0
 26 25  2  0  0  0  0
 27 29  1  0  0  0  0
 28 27  2  0  0  0  0
 28 26  1  0  0  0  0
 29 24  2  0  0  0  0
 30 23  1  0  0  0  0
 30 31  1  0  0  0  0
 31 22  1  0  0  0  0
 32 33  1  0  0  0  0
 32 34  1  0  0  0  0
M  END
>  <MODEL>
3

>  <REMARK>
 VINA RESULT:      -8.9      1.821      2.543
  Name = 
  4 active torsions:
  status: ('A' for Active; 'I' for Inactive)
    1  A    between atoms: C_3  and  C_25
    2  A    between atoms: C_7  and  C_11
    3  A    between atoms: C_8  and  C_18
    4  A    between atoms: C_18  and  C_30
                            x       y       z     vdW  Elec       q    Type
                         _______ _______ _______ _____ _____    ______ ____

>  <TORSDO>
F 4

$$$$
=
 OpenBabel10272415103D

 34 38  0  0  1  0  0  0  0  0999 V2000
  190.1530  177.7550  139.6000 C   0  0  1  0  0  3  0  0  0  0  0  0
  188.5390  176.5410  142.7660 C   0  0  0  0  0  3  0  0  0  0  0  0
  187.5960  177.5990  140.9050 O   0  0  0  0  0  0  0  0  0  0  0  0
  189.7610  176.5040  137.4250 C   0  0  1  0  0  3  0  0  0  0  0  0
  190.2990  176.4190  138.8540 C   0  0  0  0  0  2  0  0  0  0  0  0
  189.0980  178.8120  137.5580 C   0  0  2  0  0  3  0  0  0  0  0  0
  187.8700  178.8890  136.8980 O   0  0  0  0  0  1  0  0  0  0  0  0
  189.9770  177.8450  136.8830 N   0  0  0  0  0  2  0  0  0  0  0  0
  187.6230  177.9330  139.5150 C   0  0  2  0  0  3  0  0  0  0  0  0
  188.9590  178.5830  139.0920 C   0  0  1  0  0  3  0  0  0  0  0  0
  186.5560  178.7890  139.2420 O   0  0  0  0  0  1  0  0  0  0  0  0
  189.6510  175.9630  143.5760 C   0  0  0  0  0  2  0  0  0  0  0  0
  190.5570  177.0250  144.1080 C   0  0  0  0  0  0  0  0  0  0  0  0
  191.2650  177.7980  143.2750 C   0  0  0  0  0  3  0  0  0  0  0  0
  188.7270  177.2030  141.6250 C   0  0  0  0  0  0  0  0  0  0  0  0
  191.1470  177.8270  141.8040 C   0  0  0  0  0  3  0  0  0  0  0  0
  190.0650  177.5280  141.0710 C   0  0  0  0  0  0  0  0  0  0  0  0
  190.7390  177.1240  145.5730 C   0  0  0  0  0  0  0  0  0  0  0  0
  191.9810  176.8430  146.1320 O   0  0  0  0  0  1  0  0  0  0  0  0
  189.7420  177.4700  146.3820 C   0  0  0  0  0  2  0  0  0  0  0  0
  190.4540  175.4650  136.5600 C   0  0  0  0  0  2  0  0  0  0  0  0
  193.6970  173.7620  137.7240 C   0  0  0  0  0  2  0  0  0  0  0  0
  192.7860  175.8590  135.8040 C   0  0  0  0  0  2  0  0  0  0  0  0
  196.9780  174.9850  136.2640 C   0  0  0  0  0  0  0  0  0  0  0  0
  196.0360  174.2500  136.9950 C   0  0  0  0  0  3  0  0  0  0  0  0
  194.6710  174.5240  136.8670 C   0  0  0  0  0  0  0  0  0  0  0  0
  195.1890  176.2930  135.2840 C   0  0  0  0  0  3  0  0  0  0  0  0
  194.2450  175.5710  136.0200 C   0  0  0  0  0  0  0  0  0  0  0  0
  196.5510  176.0050  135.4100 C   0  0  0  0  0  3  0  0  0  0  0  0
  191.9190  175.3250  136.9400 C   0  0  2  0  0  3  0  0  0  0  0  0
  192.2680  173.8640  137.1980 C   0  0  0  0  0  2  0  0  0  0  0  0
  198.4370  174.6960  136.3880 C   0  0  0  0  0  3  0  0  0  0  0  0
  199.1530  175.4140  135.4280 O   0  0  0  0  0  1  0  0  0  0  0  0
  198.8900  175.0360  137.6630 O   0  0  0  0  0  1  0  0  0  0  0  0
  1  5  1  6  0  0  0
  1 17  1  0  0  0  0
  2 12  1  0  0  0  0
  3 15  1  0  0  0  0
  4 21  1  6  0  0  0
  4  5  1  0  0  0  0
  6  7  1  6  0  0  0
  6 10  1  0  0  0  0
  8  4  1  0  0  0  0
  8  6  1  0  0  0  0
  9 11  1  1  0  0  0
  9  3  1  0  0  0  0
 10  9  1  0  0  0  0
 10  1  1  0  0  0  0
 12 13  1  0  0  0  0
 13 18  1  0  0  0  0
 14 13  2  0  0  0  0
 15  2  2  0  0  0  0
 16 14  1  0  0  0  0
 17 15  1  0  0  0  0
 17 16  2  0  0  0  0
 18 19  1  0  0  0  0
 18 20  2  0  0  0  0
 21 30  1  0  0  0  0
 23 28  1  0  0  0  0
 23 30  1  0  0  0  0
 24 32  1  0  0  0  0
 24 25  1  0  0  0  0
 26 25  2  0  0  0  0
 26 22  1  0  0  0  0
 27 29  1  0  0  0  0
 27 28  2  0  0  0  0
 28 26  1  0  0  0  0
 29 24  2  0  0  0  0
 30 31  1  0  0  0  0
 31 22  1  0  0  0  0
 32 34  1  0  0  0  0
 33 32  1  0  0  0  0
M  END
>  <MODEL>
4

>  <REMARK>
 VINA RESULT:      -8.7      7.134     10.451
  Name = 
  4 active torsions:
  status: ('A' for Active; 'I' for Inactive)
    1  A    between atoms: C_3  and  C_25
    2  A    between atoms: C_7  and  C_11
    3  A    between atoms: C_8  and  C_18
    4  A    between atoms: C_18  and  C_30
                            x       y       z     vdW  Elec       q    Type
                         _______ _______ _______ _____ _____    ______ ____

>  <TORSDO>
F 4

$$$$
=
 OpenBabel10272415103D

 34 38  0  0  1  0  0  0  0  0999 V2000
  187.8790  175.9430  136.6860 C   0  0  1  0  0  3  0  0  0  0  0  0
  185.8020  172.9050  137.4320 C   0  0  0  0  0  3  0  0  0  0  0  0
  188.0800  173.0850  136.9300 O   0  0  0  0  0  0  0  0  0  0  0  0
  189.5510  176.7810  138.4040 C   0  0  1  0  0  3  0  0  0  0  0  0
  188.0810  176.4770  138.1130 C   0  0  0  0  0  2  0  0  0  0  0  0
  190.3630  176.1250  136.2380 C   0  0  2  0  0  3  0  0  0  0  0  0
  191.5540  175.4350  136.4760 O   0  0  0  0  0  1  0  0  0  0  0  0
  190.2230  177.2380  137.1890 N   0  0  0  0  0  2  0  0  0  0  0  0
  189.2910  173.8440  136.8920 C   0  0  2  0  0  3  0  0  0  0  0  0
  189.1170  175.1940  136.1600 C   0  0  1  0  0  3  0  0  0  0  0  0
  190.2780  173.0770  136.2720 O   0  0  0  0  0  1  0  0  0  0  0  0
  184.4220  173.4210  137.6640 C   0  0  0  0  0  2  0  0  0  0  0  0
  183.7880  173.8940  136.3970 C   0  0  0  0  0  0  0  0  0  0  0  0
  184.3040  174.9290  135.7210 C   0  0  0  0  0  3  0  0  0  0  0  0
  186.8100  173.6640  137.0020 C   0  0  0  0  0  0  0  0  0  0  0  0
  185.5790  175.6110  136.0160 C   0  0  0  0  0  3  0  0  0  0  0  0
  186.6600  175.0890  136.6120 C   0  0  0  0  0  0  0  0  0  0  0  0
  182.5170  173.2680  135.9710 C   0  0  0  0  0  0  0  0  0  0  0  0
  181.4100  173.3200  136.8100 O   0  0  0  0  0  1  0  0  0  0  0  0
  182.4000  172.6450  134.8020 C   0  0  0  0  0  2  0  0  0  0  0  0
  189.6440  177.8390  139.4920 C   0  0  0  0  0  2  0  0  0  0  0  0
  188.5280  176.8860  143.0440 C   0  0  0  0  0  2  0  0  0  0  0  0
  187.7070  178.6750  140.7990 C   0  0  0  0  0  2  0  0  0  0  0  0
  185.3340  178.4310  144.3850 C   0  0  0  0  0  0  0  0  0  0  0  0
  186.5200  177.6920  144.2920 C   0  0  0  0  0  3  0  0  0  0  0  0
  187.3010  177.7510  143.1330 C   0  0  0  0  0  0  0  0  0  0  0  0
  185.6910  179.2770  142.1440 C   0  0  0  0  0  3  0  0  0  0  0  0
  186.8700  178.5340  142.0400 C   0  0  0  0  0  0  0  0  0  0  0  0
  184.9220  179.2220  143.3100 C   0  0  0  0  0  3  0  0  0  0  0  0
  188.6990  177.5270  140.6400 C   0  0  2  0  0  3  0  0  0  0  0  0
  189.4750  177.3460  141.9390 C   0  0  0  0  0  2  0  0  0  0  0  0
  184.4970  178.3810  145.6210 C   0  0  0  0  0  3  0  0  0  0  0  0
  185.2420  178.8020  146.7240 O   0  0  0  0  0  1  0  0  0  0  0  0
  183.3730  179.1940  145.4750 O   0  0  0  0  0  1  0  0  0  0  0  0
  1  5  1  1  0  0  0
  2 12  1  0  0  0  0
  3 15  1  0  0  0  0
  4 21  1  1  0  0  0
  5  4  1  0  0  0  0
  6  7  1  1  0  0  0
  6  8  1  0  0  0  0
  8  4  1  0  0  0  0
  9 11  1  6  0  0  0
  9  3  1  0  0  0  0
 10  6  1  0  0  0  0
 10  1  1  0  0  0  0
 10  9  1  0  0  0  0
 13 12  1  0  0  0  0
 14 16  1  0  0  0  0
 14 13  2  0  0  0  0
 15  2  2  0  0  0  0
 16 17  2  0  0  0  0
 17  1  1  0  0  0  0
 17 15  1  0  0  0  0
 18 13  1  0  0  0  0
 18 19  1  0  0  0  0
 20 18  2  0  0  0  0
 21 30  1  0  0  0  0
 22 26  1  0  0  0  0
 23 28  1  0  0  0  0
 24 32  1  0  0  0  0
 25 24  1  0  0  0  0
 26 25  2  0  0  0  0
 27 29  1  0  0  0  0
 28 27  2  0  0  0  0
 28 26  1  0  0  0  0
 29 24  2  0  0  0  0
 30 23  1  0  0  0  0
 30 31  1  0  0  0  0
 31 22  1  0  0  0  0
 32 33  1  0  0  0  0
 34 32  1  0  0  0  0
M  END
>  <MODEL>
5

>  <REMARK>
 VINA RESULT:      -8.7      3.558      5.040
  Name = 
  4 active torsions:
  status: ('A' for Active; 'I' for Inactive)
    1  A    between atoms: C_3  and  C_25
    2  A    between atoms: C_7  and  C_11
    3  A    between atoms: C_8  and  C_18
    4  A    between atoms: C_18  and  C_30
                            x       y       z     vdW  Elec       q    Type
                         _______ _______ _______ _____ _____    ______ ____

>  <TORSDO>
F 4

$$$$
=
 OpenBabel10272415103D

 34 38  0  0  1  0  0  0  0  0999 V2000
  188.0130  175.9000  136.6740 C   0  0  1  0  0  3  0  0  0  0  0  0
  186.1020  172.7650  137.4660 C   0  0  0  0  0  3  0  0  0  0  0  0
  188.3750  173.0650  136.9990 O   0  0  0  0  0  0  0  0  0  0  0  0
  189.5990  176.8790  138.3990 C   0  0  1  0  0  3  0  0  0  0  0  0
  188.1550  176.4810  138.0890 C   0  0  0  0  0  2  0  0  0  0  0  0
  190.4890  176.2150  136.2650 C   0  0  2  0  0  3  0  0  0  0  0  0
  191.7140  175.6030  136.5430 O   0  0  0  0  0  1  0  0  0  0  0  0
  190.2670  177.3420  137.1830 N   0  0  0  0  0  2  0  0  0  0  0  0
  189.5400  173.8930  136.9620 C   0  0  2  0  0  3  0  0  0  0  0  0
  189.3020  175.2110  136.1910 C   0  0  1  0  0  3  0  0  0  0  0  0
  190.5820  173.1700  136.3800 O   0  0  0  0  0  1  0  0  0  0  0  0
  184.6900  173.2050  137.6590 C   0  0  0  0  0  2  0  0  0  0  0  0
  184.0540  173.6070  136.3690 C   0  0  0  0  0  0  0  0  0  0  0  0
  184.5210  174.6520  135.6740 C   0  0  0  0  0  3  0  0  0  0  0  0
  187.0720  173.5700  137.0330 C   0  0  0  0  0  0  0  0  0  0  0  0
  185.7490  175.4160  135.9730 C   0  0  0  0  0  3  0  0  0  0  0  0
  186.8470  174.9730  136.6020 C   0  0  0  0  0  0  0  0  0  0  0  0
  182.8300  172.8970  135.9370 C   0  0  0  0  0  0  0  0  0  0  0  0
  182.6370  171.5710  136.3100 O   0  0  0  0  0  1  0  0  0  0  0  0
  181.9020  173.4890  135.1910 C   0  0  0  0  0  2  0  0  0  0  0  0
  189.6100  177.9680  139.4580 C   0  0  0  0  0  2  0  0  0  0  0  0
  191.5920  176.9490  142.5900 C   0  0  0  0  0  2  0  0  0  0  0  0
  188.9040  178.0100  141.8380 C   0  0  0  0  0  2  0  0  0  0  0  0
  189.8270  177.0950  145.9440 C   0  0  0  0  0  0  0  0  0  0  0  0
  190.8120  176.9280  144.9630 C   0  0  0  0  0  3  0  0  0  0  0  0
  190.5300  177.2110  143.6230 C   0  0  0  0  0  0  0  0  0  0  0  0
  188.2590  177.8100  144.2420 C   0  0  0  0  0  3  0  0  0  0  0  0
  189.2340  177.6350  143.2560 C   0  0  0  0  0  0  0  0  0  0  0  0
  188.5520  177.5360  145.5810 C   0  0  0  0  0  3  0  0  0  0  0  0
  189.8720  177.3850  140.8380 C   0  0  2  0  0  3  0  0  0  0  0  0
  191.3040  177.6700  141.2760 C   0  0  0  0  0  2  0  0  0  0  0  0
  190.1190  176.8020  147.3790 C   0  0  0  0  0  3  0  0  0  0  0  0
  191.4900  176.9070  147.6220 O   0  0  0  0  0  1  0  0  0  0  0  0
  189.4270  177.6890  148.2030 O   0  0  0  0  0  1  0  0  0  0  0  0
  1  5  1  1  0  0  0
  2 12  1  0  0  0  0
  3 15  1  0  0  0  0
  4 21  1  1  0  0  0
  5  4  1  0  0  0  0
  6  7  1  1  0  0  0
  6  8  1  0  0  0  0
  8  4  1  0  0  0  0
  9 11  1  6  0  0  0
  9  3  1  0  0  0  0
 10  6  1  0  0  0  0
 10  1  1  0  0  0  0
 10  9  1  0  0  0  0
 13 12  1  0  0  0  0
 14 16  1  0  0  0  0
 14 13  2  0  0  0  0
 15  2  2  0  0  0  0
 16 17  2  0  0  0  0
 17  1  1  0  0  0  0
 17 15  1  0  0  0  0
 18 19  1  0  0  0  0
 18 13  1  0  0  0  0
 20 18  2  0  0  0  0
 21 30  1  0  0  0  0
 22 26  1  0  0  0  0
 23 28  1  0  0  0  0
 24 32  1  0  0  0  0
 25 24  2  0  0  0  0
 26 25  1  0  0  0  0
 27 29  2  0  0  0  0
 28 26  2  0  0  0  0
 28 27  1  0  0  0  0
 29 24  1  0  0  0  0
 30 31  1  0  0  0  0
 30 23  1  0  0  0  0
 31 22  1  0  0  0  0
 32 33  1  0  0  0  0
 32 34  1  0  0  0  0
M  END
>  <MODEL>
6

>  <REMARK>
 VINA RESULT:      -8.6      3.836      5.063
  Name = 
  4 active torsions:
  status: ('A' for Active; 'I' for Inactive)
    1  A    between atoms: C_3  and  C_25
    2  A    between atoms: C_7  and  C_11
    3  A    between atoms: C_8  and  C_18
    4  A    between atoms: C_18  and  C_30
                            x       y       z     vdW  Elec       q    Type
                         _______ _______ _______ _____ _____    ______ ____

>  <TORSDO>
F 4

$$$$
=
 OpenBabel10272415103D

 34 38  0  0  1  0  0  0  0  0999 V2000
  192.8230  174.7390  137.7220 C   0  0  1  0  0  3  0  0  0  0  0  0
  195.5510  175.3520  135.2150 C   0  0  0  0  0  3  0  0  0  0  0  0
  193.3080  174.7720  134.8880 O   0  0  0  0  0  0  0  0  0  0  0  0
  190.9630  176.4440  138.0040 C   0  0  1  0  0  3  0  0  0  0  0  0
  192.4690  176.1910  138.0800 C   0  0  0  0  0  2  0  0  0  0  0  0
  190.3790  174.2060  137.3440 C   0  0  2  0  0  3  0  0  0  0  0  0
  189.3830  174.3470  136.3750 O   0  0  0  0  0  1  0  0  0  0  0  0
  190.2280  175.2380  138.3810 N   0  0  0  0  0  2  0  0  0  0  0  0
  191.9520  174.7400  135.3390 C   0  0  2  0  0  3  0  0  0  0  0  0
  191.8130  174.1120  136.7440 C   0  0  1  0  0  3  0  0  0  0  0  0
  191.1910  174.0280  134.4110 O   0  0  0  0  0  1  0  0  0  0  0  0
  196.7620  175.6740  136.0240 C   0  0  0  0  0  2  0  0  0  0  0  0
  197.2920  174.4700  136.7320 C   0  0  0  0  0  0  0  0  0  0  0  0
  196.5580  173.8490  137.6640 C   0  0  0  0  0  3  0  0  0  0  0  0
  194.4010  174.9360  135.7450 C   0  0  0  0  0  0  0  0  0  0  0  0
  195.1500  174.1400  137.9990 C   0  0  0  0  0  3  0  0  0  0  0  0
  194.2130  174.6540  137.1900 C   0  0  0  0  0  0  0  0  0  0  0  0
  198.6850  174.0520  136.4610 C   0  0  0  0  0  0  0  0  0  0  0  0
  199.6630  175.0170  136.2480 O   0  0  0  0  0  1  0  0  0  0  0  0
  199.0340  172.7700  136.4060 C   0  0  0  0  0  2  0  0  0  0  0  0
  190.5940  177.5980  138.9210 C   0  0  0  0  0  2  0  0  0  0  0  0
  191.6190  177.0660  142.5870 C   0  0  0  0  0  2  0  0  0  0  0  0
  189.1840  177.6540  140.9630 C   0  0  0  0  0  2  0  0  0  0  0  0
  188.8950  177.1090  145.2250 C   0  0  0  0  0  0  0  0  0  0  0  0
  190.1490  177.0470  144.6060 C   0  0  0  0  0  3  0  0  0  0  0  0
  190.2640  177.2130  143.2220 C   0  0  0  0  0  0  0  0  0  0  0  0
  187.8540  177.4820  143.0690 C   0  0  0  0  0  3  0  0  0  0  0  0
  189.1020  177.4100  142.4440 C   0  0  0  0  0  0  0  0  0  0  0  0
  187.7500  177.3270  144.4540 C   0  0  0  0  0  3  0  0  0  0  0  0
  190.4880  177.1370  140.3650 C   0  0  2  0  0  3  0  0  0  0  0  0
  191.6620  177.6630  141.1830 C   0  0  0  0  0  2  0  0  0  0  0  0
  188.7620  176.9410  146.7030 C   0  0  0  0  0  3  0  0  0  0  0  0
  190.0240  176.8410  147.2920 O   0  0  0  0  0  1  0  0  0  0  0  0
  188.0720  178.0220  147.2520 O   0  0  0  0  0  1  0  0  0  0  0  0
  1  5  1  6  0  0  0
  2 15  2  0  0  0  0
  2 12  1  0  0  0  0
  3  9  1  0  0  0  0
  3 15  1  0  0  0  0
  4  5  1  0  0  0  0
  4  8  1  0  0  0  0
  4 21  1  1  0  0  0
  6  7  1  6  0  0  0
  6  8  1  0  0  0  0
  9 11  1  6  0  0  0
  9 10  1  0  0  0  0
 10  6  1  0  0  0  0
 10  1  1  0  0  0  0
 12 13  1  0  0  0  0
 13 14  2  0  0  0  0
 14 16  1  0  0  0  0
 15 17  1  0  0  0  0
 17  1  1  0  0  0  0
 17 16  2  0  0  0  0
 18 13  1  0  0  0  0
 19 18  1  0  0  0  0
 20 18  2  0  0  0  0
 21 30  1  0  0  0  0
 22 26  1  0  0  0  0
 23 28  1  0  0  0  0
 24 32  1  0  0  0  0
 25 24  1  0  0  0  0
 26 25  2  0  0  0  0
 27 29  1  0  0  0  0
 28 27  2  0  0  0  0
 28 26  1  0  0  0  0
 29 24  2  0  0  0  0
 30 23  1  0  0  0  0
 30 31  1  0  0  0  0
 31 22  1  0  0  0  0
 32 34  1  0  0  0  0
 32 33  1  0  0  0  0
M  END
>  <MODEL>
7

>  <REMARK>
 VINA RESULT:      -8.5      7.608      9.387
  Name = 
  4 active torsions:
  status: ('A' for Active; 'I' for Inactive)
    1  A    between atoms: C_3  and  C_25
    2  A    between atoms: C_7  and  C_11
    3  A    between atoms: C_8  and  C_18
    4  A    between atoms: C_18  and  C_30
                            x       y       z     vdW  Elec       q    Type
                         _______ _______ _______ _____ _____    ______ ____

>  <TORSDO>
F 4

$$$$
=
 OpenBabel10272415103D

 34 38  0  0  1  0  0  0  0  0999 V2000
  186.7440  177.5650  137.4730 C   0  0  1  0  0  3  0  0  0  0  0  0
  184.8380  174.3490  137.1150 C   0  0  0  0  0  3  0  0  0  0  0  0
  187.1220  174.7820  136.8540 O   0  0  0  0  0  0  0  0  0  0  0  0
  188.2610  177.9150  139.4800 C   0  0  1  0  0  3  0  0  0  0  0  0
  186.8320  177.6450  139.0050 C   0  0  0  0  0  2  0  0  0  0  0  0
  189.2300  177.9930  137.2800 C   0  0  2  0  0  3  0  0  0  0  0  0
  190.4500  177.3210  137.3820 O   0  0  0  0  0  1  0  0  0  0  0  0
  188.9650  178.7530  138.5100 N   0  0  0  0  0  2  0  0  0  0  0  0
  188.2800  175.5730  137.1350 C   0  0  2  0  0  3  0  0  0  0  0  0
  188.0550  177.0720  136.8350 C   0  0  1  0  0  3  0  0  0  0  0  0
  189.3480  175.0810  136.3840 O   0  0  0  0  0  1  0  0  0  0  0  0
  183.4160  174.7030  137.3930 C   0  0  0  0  0  2  0  0  0  0  0  0
  182.8210  175.5110  136.2870 C   0  0  0  0  0  0  0  0  0  0  0  0
  183.3010  176.7260  135.9940 C   0  0  0  0  0  3  0  0  0  0  0  0
  185.8140  175.2500  137.0080 C   0  0  0  0  0  0  0  0  0  0  0  0
  184.5100  177.3450  136.5720 C   0  0  0  0  0  3  0  0  0  0  0  0
  185.5900  176.7170  137.0580 C   0  0  0  0  0  0  0  0  0  0  0  0
  181.6190  174.9860  135.6010 C   0  0  0  0  0  0  0  0  0  0  0  0
  180.7090  175.8710  135.0340 O   0  0  0  0  0  1  0  0  0  0  0  0
  181.3750  173.6820  135.5140 C   0  0  0  0  0  2  0  0  0  0  0  0
  188.2250  178.5920  140.8400 C   0  0  0  0  0  2  0  0  0  0  0  0
  191.1830  176.9450  142.6600 C   0  0  0  0  0  2  0  0  0  0  0  0
  188.5680  178.2470  143.2740 C   0  0  0  0  0  2  0  0  0  0  0  0
  190.9790  176.5810  146.4300 C   0  0  0  0  0  0  0  0  0  0  0  0
  191.4480  176.5430  145.1110 C   0  0  0  0  0  3  0  0  0  0  0  0
  190.6770  177.0710  144.0700 C   0  0  0  0  0  0  0  0  0  0  0  0
  188.9460  177.6590  145.6710 C   0  0  0  0  0  3  0  0  0  0  0  0
  189.4030  177.6140  144.3510 C   0  0  0  0  0  0  0  0  0  0  0  0
  189.7290  177.1400  146.7070 C   0  0  0  0  0  3  0  0  0  0  0  0
  188.9600  177.7640  141.8820 C   0  0  2  0  0  3  0  0  0  0  0  0
  190.4680  177.8980  141.7060 C   0  0  0  0  0  2  0  0  0  0  0  0
  191.7980  176.0270  147.5490 C   0  0  0  0  0  3  0  0  0  0  0  0
  192.8480  175.2580  147.0430 O   0  0  0  0  0  1  0  0  0  0  0  0
  192.3090  177.0620  148.3320 O   0  0  0  0  0  1  0  0  0  0  0  0
  1  5  1  1  0  0  0
  2 12  1  0  0  0  0
  3 15  1  0  0  0  0
  3  9  1  0  0  0  0
  4 21  1  1  0  0  0
  5  4  1  0  0  0  0
  6  7  1  1  0  0  0
  6  8  1  0  0  0  0
  8  4  1  0  0  0  0
  9 11  1  6  0  0  0
 10  9  1  0  0  0  0
 10  6  1  0  0  0  0
 10  1  1  0  0  0  0
 13 12  1  0  0  0  0
 14 13  2  0  0  0  0
 14 16  1  0  0  0  0
 15 17  1  0  0  0  0
 15  2  2  0  0  0  0
 16 17  2  0  0  0  0
 17  1  1  0  0  0  0
 18 13  1  0  0  0  0
 19 18  1  0  0  0  0
 20 18  2  0  0  0  0
 21 30  1  0  0  0  0
 22 26  1  0  0  0  0
 23 28  1  0  0  0  0
 24 29  1  0  0  0  0
 24 32  1  0  0  0  0
 25 24  2  0  0  0  0
 26 28  2  0  0  0  0
 26 25  1  0  0  0  0
 27 29  2  0  0  0  0
 28 27  1  0  0  0  0
 30 23  1  0  0  0  0
 31 30  1  0  0  0  0
 31 22  1  0  0  0  0
 32 34  1  0  0  0  0
 33 32  1  0  0  0  0
M  END
>  <MODEL>
8

>  <REMARK>
 VINA RESULT:      -8.4      3.292      4.337
  Name = 
  4 active torsions:
  status: ('A' for Active; 'I' for Inactive)
    1  A    between atoms: C_3  and  C_25
    2  A    between atoms: C_7  and  C_11
    3  A    between atoms: C_8  and  C_18
    4  A    between atoms: C_18  and  C_30
                            x       y       z     vdW  Elec       q    Type
                         _______ _______ _______ _____ _____    ______ ____

>  <TORSDO>
F 4

$$$$
=
 OpenBabel10272415103D

 34 38  0  0  1  0  0  0  0  0999 V2000
  189.6080  176.7490  137.4530 C   0  0  1  0  0  3  0  0  0  0  0  0
  186.5930  174.6020  136.8200 C   0  0  0  0  0  3  0  0  0  0  0  0
  188.8600  174.0290  136.8940 O   0  0  0  0  0  0  0  0  0  0  0  0
  190.8520  176.5580  139.6580 C   0  0  1  0  0  3  0  0  0  0  0  0
  189.5190  176.8780  138.9810 C   0  0  0  0  0  2  0  0  0  0  0  0
  192.0450  176.0920  137.6220 C   0  0  2  0  0  3  0  0  0  0  0  0
  192.8450  174.9810  137.9010 O   0  0  0  0  0  1  0  0  0  0  0  0
  191.9640  176.9670  138.8020 N   0  0  0  0  0  2  0  0  0  0  0  0
  190.1940  174.2820  137.3400 C   0  0  2  0  0  3  0  0  0  0  0  0
  190.6630  175.7180  137.0120 C   0  0  1  0  0  3  0  0  0  0  0  0
  191.0460  173.3460  136.7520 O   0  0  0  0  0  1  0  0  0  0  0  0
  185.4280  175.5310  136.8890 C   0  0  0  0  0  2  0  0  0  0  0  0
  185.3790  176.4450  135.7080 C   0  0  0  0  0  0  0  0  0  0  0  0
  186.3600  177.3300  135.4880 C   0  0  0  0  0  3  0  0  0  0  0  0
  187.8620  175.0070  136.8560 C   0  0  0  0  0  0  0  0  0  0  0  0
  187.6290  177.4240  136.2360 C   0  0  0  0  0  3  0  0  0  0  0  0
  188.2710  176.4340  136.8740 C   0  0  0  0  0  0  0  0  0  0  0  0
  184.1700  176.4260  134.8550 C   0  0  0  0  0  0  0  0  0  0  0  0
  183.5080  177.6160  134.5760 O   0  0  0  0  0  1  0  0  0  0  0  0
  183.6880  175.2960  134.3460 C   0  0  0  0  0  2  0  0  0  0  0  0
  190.9250  177.2700  140.9990 C   0  0  0  0  0  2  0  0  0  0  0  0
  188.6160  176.8630  144.0450 C   0  0  0  0  0  2  0  0  0  0  0  0
  188.6510  178.1930  141.3730 C   0  0  0  0  0  2  0  0  0  0  0  0
  185.1580  178.4110  143.8820 C   0  0  0  0  0  0  0  0  0  0  0  0
  186.2980  177.7420  144.3450 C   0  0  0  0  0  3  0  0  0  0  0  0
  187.4400  177.6520  143.5420 C   0  0  0  0  0  0  0  0  0  0  0  0
  186.2900  178.8880  141.7940 C   0  0  0  0  0  3  0  0  0  0  0  0
  187.4270  178.2120  142.2450 C   0  0  0  0  0  0  0  0  0  0  0  0
  185.1570  178.9830  142.6070 C   0  0  0  0  0  3  0  0  0  0  0  0
  189.6320  177.0980  141.7790 C   0  0  2  0  0  3  0  0  0  0  0  0
  189.8950  177.1880  143.2780 C   0  0  0  0  0  2  0  0  0  0  0  0
  183.9360  178.5190  144.7340 C   0  0  0  0  0  3  0  0  0  0  0  0
  184.2400  179.1700  145.9310 O   0  0  0  0  0  1  0  0  0  0  0  0
  182.9370  179.2200  144.0580 O   0  0  0  0  0  1  0  0  0  0  0  0
  1  5  1  1  0  0  0
  2 15  2  0  0  0  0
  2 12  1  0  0  0  0
  3  9  1  0  0  0  0
  4 21  1  1  0  0  0
  5  4  1  0  0  0  0
  6  7  1  1  0  0  0
  6  8  1  0  0  0  0
  8  4  1  0  0  0  0
  9 11  1  6  0  0  0
 10  9  1  0  0  0  0
 10  1  1  0  0  0  0
 10  6  1  0  0  0  0
 13 12  1  0  0  0  0
 14 13  2  0  0  0  0
 14 16  1  0  0  0  0
 15 17  1  0  0  0  0
 15  3  1  0  0  0  0
 16 17  2  0  0  0  0
 17  1  1  0  0  0  0
 18 13  1  0  0  0  0
 19 18  1  0  0  0  0
 20 18  2  0  0  0  0
 21 30  1  0  0  0  0
 23 30  1  0  0  0  0
 23 28  1  0  0  0  0
 24 25  1  0  0  0  0
 24 32  1  0  0  0  0
 26 22  1  0  0  0  0
 26 25  2  0  0  0  0
 27 28  2  0  0  0  0
 27 29  1  0  0  0  0
 28 26  1  0  0  0  0
 29 24  2  0  0  0  0
 30 31  1  0  0  0  0
 31 22  1  0  0  0  0
 32 33  1  0  0  0  0
 34 32  1  0  0  0  0
M  END
>  <MODEL>
9

>  <REMARK>
 VINA RESULT:      -8.3      4.133      5.918
  Name = 
  4 active torsions:
  status: ('A' for Active; 'I' for Inactive)
    1  A    between atoms: C_3  and  C_25
    2  A    between atoms: C_7  and  C_11
    3  A    between atoms: C_8  and  C_18
    4  A    between atoms: C_18  and  C_30
                            x       y       z     vdW  Elec       q    Type
                         _______ _______ _______ _____ _____    ______ ____

>  <TORSDO>
F 4

$$$$
