=
 OpenBabel10272401003D

 27 31  0  0  1  0  0  0  0  0999 V2000
  188.0540  176.7460  144.8700 O   0  0  0  0  0  0  0  0  0  0  0  0
  186.0230  178.0390  145.0690 C   0  0  0  0  0  0  0  0  0  0  0  0
  186.7750  177.6660  142.6430 C   0  0  0  0  0  2  0  0  0  0  0  0
  182.1450  179.0830  143.8000 C   0  0  0  0  0  3  0  0  0  0  0  0
  182.7180  178.7590  141.5260 C   0  0  0  0  0  3  0  0  0  0  0  0
  185.0260  178.4190  145.9780 C   0  0  0  0  0  3  0  0  0  0  0  0
  184.0270  178.4120  141.8690 C   0  0  0  0  0  0  0  0  0  0  0  0
  189.6020  177.4630  141.0660 C   0  0  0  0  0  2  0  0  0  0  0  0
  184.8790  178.1030  140.8620 F   0  0  0  0  0  0  0  0  0  0  0  0
  190.5290  176.8060  142.0760 C   0  0  0  0  0  2  0  0  0  0  0  0
  184.4160  178.3950  143.2340 C   0  0  0  0  0  0  0  0  0  0  0  0
  187.4220  177.7580  145.6080 C   0  0  1  0  0  3  0  0  0  0  0  0
  181.8140  179.0830  142.4840 N   0  0  0  0  0  0  0  0  0  0  0  0
  183.4380  178.7420  144.1990 C   0  0  0  0  0  0  0  0  0  0  0  0
  188.9240  177.3670  143.9530 C   0  0  1  0  0  3  0  0  0  0  0  0
  185.7300  178.0560  143.6680 C   0  0  0  0  0  0  0  0  0  0  0  0
  188.9230  178.6610  141.7120 C   0  0  0  0  0  2  0  0  0  0  0  0
  183.7490  178.7580  145.5530 C   0  0  0  0  0  3  0  0  0  0  0  0
  190.5450  175.6250  144.1310 F   0  0  0  0  0  0  0  0  0  0  0  0
  189.7070  176.2610  143.2340 C   0  0  2  0  0  3  0  0  0  0  0  0
  188.1370  178.2640  142.9640 C   0  0  1  0  0  3  0  0  0  0  0  0
  190.2160  177.8890  147.9490 C   0  0  0  0  0  3  0  0  0  0  0  0
  187.4830  177.4550  147.1170 C   0  0  2  0  0  3  0  0  0  0  0  0
  187.8410  178.6960  147.9420 C   0  0  0  0  0  2  0  0  0  0  0  0
  189.3220  178.8600  148.1840 C   0  0  0  0  0  3  0  0  0  0  0  0
  189.8430  176.5720  147.3240 C   0  0  0  0  0  2  0  0  0  0  0  0
  188.3600  176.2540  147.4950 C   0  0  0  0  0  2  0  0  0  0  0  0
  2 12  1  0  0  0  0
  2  6  1  0  0  0  0
  3 21  1  0  0  0  0
  3 16  1  0  0  0  0
  4 14  1  0  0  0  0
  5  7  2  0  0  0  0
  5 13  1  0  0  0  0
  7 11  1  0  0  0  0
  8 17  1  0  0  0  0
  8 10  1  0  0  0  0
  9  7  1  0  0  0  0
 10 20  1  0  0  0  0
 11 16  1  0  0  0  0
 11 14  2  0  0  0  0
 12  1  1  6  0  0  0
 12 23  1  0  0  0  0
 13  4  2  0  0  0  0
 14 18  1  0  0  0  0
 15  1  1  1  0  0  0
 16  2  2  0  0  0  0
 18  6  2  0  0  0  0
 20 15  1  0  0  0  0
 20 19  1  1  0  0  0
 21 17  1  6  0  0  0
 21 15  1  0  0  0  0
 22 25  2  0  0  0  0
 23 27  1  6  0  0  0
 23 24  1  0  0  0  0
 24 25  1  0  0  0  0
 26 27  1  0  0  0  0
 26 22  1  0  0  0  0
M  END
>  <MODEL>
1

>  <REMARK>
 VINA RESULT:      -9.5      0.000      0.000
  Name = 
  1 active torsions:
  status: ('A' for Active; 'I' for Inactive)
    1  A    between atoms: C_9  and  C_15
                            x       y       z     vdW  Elec       q    Type
                         _______ _______ _______ _____ _____    ______ ____

>  <TORSDO>
F 1

$$$$
=
 OpenBabel10272401003D

 27 31  0  0  1  0  0  0  0  0999 V2000
  189.1780  178.3670  140.8300 O   0  0  0  0  0  0  0  0  0  0  0  0
  186.8080  178.3250  141.2960 C   0  0  0  0  0  0  0  0  0  0  0  0
  188.2720  177.8020  143.3400 C   0  0  0  0  0  2  0  0  0  0  0  0
  183.4940  179.1340  143.7650 C   0  0  0  0  0  3  0  0  0  0  0  0
  184.7460  178.6900  145.7240 C   0  0  0  0  0  3  0  0  0  0  0  0
  185.5590  178.6740  140.7640 C   0  0  0  0  0  3  0  0  0  0  0  0
  185.8840  178.3950  144.9710 C   0  0  0  0  0  0  0  0  0  0  0  0
  191.0730  176.2650  143.8900 C   0  0  0  0  0  2  0  0  0  0  0  0
  187.0070  178.0400  145.6430 F   0  0  0  0  0  0  0  0  0  0  0  0
  191.8900  176.5490  142.6410 C   0  0  0  0  0  2  0  0  0  0  0  0
  185.8320  178.4750  143.5550 C   0  0  0  0  0  0  0  0  0  0  0  0
  187.9310  177.9670  140.3270 C   0  0  1  0  0  3  0  0  0  0  0  0
  183.5870  179.0490  145.1160 N   0  0  0  0  0  0  0  0  0  0  0  0
  184.6010  178.8530  142.9640 C   0  0  0  0  0  0  0  0  0  0  0  0
  189.7940  177.2330  141.3950 C   0  0  1  0  0  3  0  0  0  0  0  0
  186.9470  178.1900  142.7140 C   0  0  0  0  0  0  0  0  0  0  0  0
  189.7140  175.7130  143.4870 C   0  0  0  0  0  2  0  0  0  0  0  0
  184.4720  178.9420  141.5840 C   0  0  0  0  0  3  0  0  0  0  0  0
  191.9720  177.9320  140.7170 F   0  0  0  0  0  0  0  0  0  0  0  0
  191.2060  177.6410  141.8310 C   0  0  2  0  0  3  0  0  0  0  0  0
  188.9550  176.6790  142.5750 C   0  0  1  0  0  3  0  0  0  0  0  0
  188.9030  176.5150  137.1250 C   0  0  0  0  0  3  0  0  0  0  0  0
  187.7290  178.4810  138.8890 C   0  0  2  0  0  3  0  0  0  0  0  0
  186.8240  177.5560  138.0670 C   0  0  0  0  0  2  0  0  0  0  0  0
  187.5740  176.4930  137.3010 C   0  0  0  0  0  3  0  0  0  0  0  0
  189.7920  177.5480  137.7640 C   0  0  0  0  0  2  0  0  0  0  0  0
  189.0260  178.8130  138.1400 C   0  0  0  0  0  2  0  0  0  0  0  0
  2 16  1  0  0  0  0
  4 13  2  0  0  0  0
  6  2  2  0  0  0  0
  6 18  1  0  0  0  0
  7  9  1  0  0  0  0
  7  5  2  0  0  0  0
 10  8  1  0  0  0  0
 11  7  1  0  0  0  0
 12  1  1  1  0  0  0
 12  2  1  0  0  0  0
 13  5  1  0  0  0  0
 14 11  1  0  0  0  0
 14  4  1  0  0  0  0
 15  1  1  1  0  0  0
 15 20  1  0  0  0  0
 15 21  1  0  0  0  0
 16  3  1  0  0  0  0
 16 11  2  0  0  0  0
 17  8  1  0  0  0  0
 18 14  2  0  0  0  0
 20 19  1  6  0  0  0
 20 10  1  0  0  0  0
 21  3  1  1  0  0  0
 21 17  1  0  0  0  0
 22 25  2  0  0  0  0
 22 26  1  0  0  0  0
 23 24  1  6  0  0  0
 23 12  1  0  0  0  0
 25 24  1  0  0  0  0
 26 27  1  0  0  0  0
 27 23  1  0  0  0  0
M  END
>  <MODEL>
2

>  <REMARK>
 VINA RESULT:      -9.0      2.635      5.634
  Name = 
  1 active torsions:
  status: ('A' for Active; 'I' for Inactive)
    1  A    between atoms: C_9  and  C_15
                            x       y       z     vdW  Elec       q    Type
                         _______ _______ _______ _____ _____    ______ ____

>  <TORSDO>
F 1

$$$$
=
 OpenBabel10272401003D

 27 31  0  0  1  0  0  0  0  0999 V2000
  187.0690  178.9760  140.8910 O   0  0  0  0  0  0  0  0  0  0  0  0
  186.1260  178.3550  143.0270 C   0  0  0  0  0  0  0  0  0  0  0  0
  188.6620  177.9840  142.8710 C   0  0  0  0  0  2  0  0  0  0  0  0
  186.2660  178.1540  147.2320 C   0  0  0  0  0  3  0  0  0  0  0  0
  188.6090  177.8190  147.2160 C   0  0  0  0  0  3  0  0  0  0  0  0
  184.9680  178.4620  143.8100 C   0  0  0  0  0  3  0  0  0  0  0  0
  188.6410  177.8630  145.8200 C   0  0  0  0  0  0  0  0  0  0  0  0
  190.7650  177.0740  140.5760 C   0  0  0  0  0  2  0  0  0  0  0  0
  189.8430  177.7080  145.2140 F   0  0  0  0  0  0  0  0  0  0  0  0
  190.1770  177.6540  139.3010 C   0  0  0  0  0  2  0  0  0  0  0  0
  187.4380  178.0640  145.0950 C   0  0  0  0  0  0  0  0  0  0  0  0
  185.9740  178.3550  141.5090 C   0  0  1  0  0  3  0  0  0  0  0  0
  187.4390  177.9630  147.8860 N   0  0  0  0  0  0  0  0  0  0  0  0
  186.2400  178.2090  145.8380 C   0  0  0  0  0  0  0  0  0  0  0  0
  187.9370  177.9630  140.4430 C   0  0  1  0  0  3  0  0  0  0  0  0
  187.3820  178.1200  143.6720 C   0  0  0  0  0  0  0  0  0  0  0  0
  189.6960  176.2710  141.3020 C   0  0  0  0  0  2  0  0  0  0  0  0
  185.0230  178.3980  145.1960 C   0  0  0  0  0  3  0  0  0  0  0  0
  188.5650  179.1970  138.5000 F   0  0  0  0  0  0  0  0  0  0  0  0
  189.0700  178.6350  139.6580 C   0  0  2  0  0  3  0  0  0  0  0  0
  188.4690  177.1220  141.6320 C   0  0  1  0  0  3  0  0  0  0  0  0
  183.7310  177.2160  138.8680 C   0  0  0  0  0  3  0  0  0  0  0  0
  184.6470  178.9450  140.9950 C   0  0  2  0  0  3  0  0  0  0  0  0
  183.4630  178.0010  141.2350 C   0  0  0  0  0  2  0  0  0  0  0  0
  183.1880  177.0640  140.0840 C   0  0  0  0  0  3  0  0  0  0  0  0
  184.7500  178.2790  138.5580 C   0  0  0  0  0  2  0  0  0  0  0  0
  184.6860  179.4420  139.5440 C   0  0  0  0  0  2  0  0  0  0  0  0
  2 16  2  0  0  0  0
  2  6  1  0  0  0  0
  3 16  1  0  0  0  0
  4 13  1  0  0  0  0
  5 13  2  0  0  0  0
  6 18  2  0  0  0  0
  7  5  1  0  0  0  0
  8 17  1  0  0  0  0
  9  7  1  0  0  0  0
 10 20  1  0  0  0  0
 10  8  1  0  0  0  0
 11  7  2  0  0  0  0
 11 14  1  0  0  0  0
 12  1  1  6  0  0  0
 12  2  1  0  0  0  0
 14  4  2  0  0  0  0
 15  1  1  1  0  0  0
 15 21  1  0  0  0  0
 16 11  1  0  0  0  0
 18 14  1  0  0  0  0
 20 19  1  6  0  0  0
 20 15  1  0  0  0  0
 21 17  1  6  0  0  0
 21  3  1  0  0  0  0
 22 25  2  0  0  0  0
 23 27  1  6  0  0  0
 23 24  1  0  0  0  0
 23 12  1  0  0  0  0
 25 24  1  0  0  0  0
 26 22  1  0  0  0  0
 26 27  1  0  0  0  0
M  END
>  <MODEL>
3

>  <REMARK>
 VINA RESULT:      -8.9      2.535      5.962
  Name = 
  1 active torsions:
  status: ('A' for Active; 'I' for Inactive)
    1  A    between atoms: C_9  and  C_15
                            x       y       z     vdW  Elec       q    Type
                         _______ _______ _______ _____ _____    ______ ____

>  <TORSDO>
F 1

$$$$
=
 OpenBabel10272401003D

 27 31  0  0  1  0  0  0  0  0999 V2000
  188.2460  178.7220  141.3600 O   0  0  0  0  0  0  0  0  0  0  0  0
  185.9460  178.4160  140.6850 C   0  0  0  0  0  0  0  0  0  0  0  0
  186.2950  178.3390  143.2280 C   0  0  0  0  0  2  0  0  0  0  0  0
  181.8140  179.0560  141.1830 C   0  0  0  0  0  3  0  0  0  0  0  0
  182.0120  179.0160  143.5410 C   0  0  0  0  0  3  0  0  0  0  0  0
  185.0800  178.5290  139.5890 C   0  0  0  0  0  3  0  0  0  0  0  0
  183.3880  178.7910  143.4560 C   0  0  0  0  0  0  0  0  0  0  0  0
  188.5920  177.2670  145.2510 C   0  0  0  0  0  2  0  0  0  0  0  0
  184.0770  178.6710  144.6170 F   0  0  0  0  0  0  0  0  0  0  0  0
  189.8840  177.5110  144.4880 C   0  0  0  0  0  2  0  0  0  0  0  0
  184.0080  178.6980  142.1840 C   0  0  0  0  0  0  0  0  0  0  0  0
  187.4150  178.1020  140.4150 C   0  0  1  0  0  3  0  0  0  0  0  0
  181.2610  179.1420  142.4190 N   0  0  0  0  0  0  0  0  0  0  0  0
  183.1840  178.8340  141.0400 C   0  0  0  0  0  0  0  0  0  0  0  0
  188.5910  177.7560  142.3250 C   0  0  1  0  0  3  0  0  0  0  0  0
  185.4040  178.4680  142.0090 C   0  0  0  0  0  0  0  0  0  0  0  0
  187.6250  176.4940  144.3670 C   0  0  0  0  0  2  0  0  0  0  0  0
  183.7190  178.7430  139.7610 C   0  0  0  0  0  3  0  0  0  0  0  0
  190.7800  178.6570  142.6170 F   0  0  0  0  0  0  0  0  0  0  0  0
  189.5980  178.3980  143.2850 C   0  0  2  0  0  3  0  0  0  0  0  0
  187.3300  177.2360  143.0610 C   0  0  1  0  0  3  0  0  0  0  0  0
  189.6300  176.2480  138.1880 C   0  0  0  0  0  3  0  0  0  0  0  0
  187.8870  178.4130  138.9820 C   0  0  2  0  0  3  0  0  0  0  0  0
  187.3960  177.3680  137.9730 C   0  0  0  0  0  2  0  0  0  0  0  0
  188.3590  176.2260  137.7620 C   0  0  0  0  0  3  0  0  0  0  0  0
  190.1920  177.3750  139.0130 C   0  0  0  0  0  2  0  0  0  0  0  0
  189.3940  178.6650  138.8450 C   0  0  0  0  0  2  0  0  0  0  0  0
  2 16  1  0  0  0  0
  4 13  2  0  0  0  0
  6 18  1  0  0  0  0
  6  2  2  0  0  0  0
  7  5  2  0  0  0  0
  7  9  1  0  0  0  0
 10  8  1  0  0  0  0
 11  7  1  0  0  0  0
 12  2  1  6  0  0  0
 12  1  1  0  0  0  0
 13  5  1  0  0  0  0
 14  4  1  0  0  0  0
 14 11  1  0  0  0  0
 15  1  1  6  0  0  0
 15 21  1  0  0  0  0
 15 20  1  0  0  0  0
 16 11  2  0  0  0  0
 16  3  1  0  0  0  0
 17  8  1  0  0  0  0
 18 14  2  0  0  0  0
 20 19  1  6  0  0  0
 20 10  1  0  0  0  0
 21  3  1  1  0  0  0
 21 17  1  0  0  0  0
 22 26  1  0  0  0  0
 23 24  1  6  0  0  0
 23 12  1  0  0  0  0
 25 24  1  0  0  0  0
 25 22  2  0  0  0  0
 27 23  1  0  0  0  0
 27 26  1  0  0  0  0
M  END
>  <MODEL>
4

>  <REMARK>
 VINA RESULT:      -8.4      2.230      5.365
  Name = 
  1 active torsions:
  status: ('A' for Active; 'I' for Inactive)
    1  A    between atoms: C_9  and  C_15
                            x       y       z     vdW  Elec       q    Type
                         _______ _______ _______ _____ _____    ______ ____

>  <TORSDO>
F 1

$$$$
=
 OpenBabel10272401003D

 27 31  0  0  1  0  0  0  0  0999 V2000
  188.6320  176.6570  144.6750 O   0  0  0  0  0  0  0  0  0  0  0  0
  186.6320  177.9250  144.1970 C   0  0  0  0  0  0  0  0  0  0  0  0
  188.2310  177.7240  142.1970 C   0  0  0  0  0  2  0  0  0  0  0  0
  183.4600  179.0410  141.6620 C   0  0  0  0  0  3  0  0  0  0  0  0
  184.8340  178.8780  139.7410 C   0  0  0  0  0  3  0  0  0  0  0  0
  185.3620  178.2380  144.6990 C   0  0  0  0  0  3  0  0  0  0  0  0
  185.9360  178.5130  140.5180 C   0  0  0  0  0  0  0  0  0  0  0  0
  191.4430  177.6400  141.7590 C   0  0  0  0  0  2  0  0  0  0  0  0
  187.1060  178.2770  139.8760 F   0  0  0  0  0  0  0  0  0  0  0  0
  191.9550  176.9190  142.9950 C   0  0  0  0  0  2  0  0  0  0  0  0
  185.7990  178.4030  141.9260 C   0  0  0  0  0  0  0  0  0  0  0  0
  187.7450  177.6120  145.1920 C   0  0  1  0  0  3  0  0  0  0  0  0
  183.6330  179.1320  140.3190 N   0  0  0  0  0  0  0  0  0  0  0  0
  184.5270  178.6790  142.4850 C   0  0  0  0  0  0  0  0  0  0  0  0
  189.7590  177.3420  144.1830 C   0  0  1  0  0  3  0  0  0  0  0  0
  186.8720  178.0380  142.7900 C   0  0  0  0  0  0  0  0  0  0  0  0
  190.5410  178.7880  142.1850 C   0  0  0  0  0  2  0  0  0  0  0  0
  184.3200  178.6020  143.8560 C   0  0  0  0  0  3  0  0  0  0  0  0
  191.2510  175.5980  144.8320 F   0  0  0  0  0  0  0  0  0  0  0  0
  190.7820  176.2920  143.7330 C   0  0  2  0  0  3  0  0  0  0  0  0
  189.3630  178.3040  143.0330 C   0  0  1  0  0  3  0  0  0  0  0  0
  189.0710  178.4130  148.4950 C   0  0  0  0  0  3  0  0  0  0  0  0
  187.2580  177.2050  146.5960 C   0  0  2  0  0  3  0  0  0  0  0  0
  186.8040  178.4130  147.4230 C   0  0  0  0  0  2  0  0  0  0  0  0
  187.8980  179.0210  148.2670 C   0  0  0  0  0  3  0  0  0  0  0  0
  189.4540  177.1110  147.8460 C   0  0  0  0  0  2  0  0  0  0  0  0
  188.2340  176.3190  147.3810 C   0  0  0  0  0  2  0  0  0  0  0  0
  1 12  1  0  0  0  0
  2  6  1  0  0  0  0
  3 16  1  0  0  0  0
  3 21  1  0  0  0  0
  4 14  1  0  0  0  0
  5 13  1  0  0  0  0
  5  7  2  0  0  0  0
  7 11  1  0  0  0  0
  8 17  1  0  0  0  0
  8 10  1  0  0  0  0
  9  7  1  0  0  0  0
 10 20  1  0  0  0  0
 11 14  2  0  0  0  0
 11 16  1  0  0  0  0
 12  2  1  6  0  0  0
 12 23  1  0  0  0  0
 13  4  2  0  0  0  0
 14 18  1  0  0  0  0
 15  1  1  6  0  0  0
 16  2  2  0  0  0  0
 18  6  2  0  0  0  0
 20 15  1  0  0  0  0
 20 19  1  1  0  0  0
 21 17  1  6  0  0  0
 21 15  1  0  0  0  0
 23 27  1  1  0  0  0
 23 24  1  0  0  0  0
 24 25  1  0  0  0  0
 25 22  2  0  0  0  0
 26 22  1  0  0  0  0
 27 26  1  0  0  0  0
M  END
>  <MODEL>
5

>  <REMARK>
 VINA RESULT:      -8.4      1.322      1.647
  Name = 
  1 active torsions:
  status: ('A' for Active; 'I' for Inactive)
    1  A    between atoms: C_9  and  C_15
                            x       y       z     vdW  Elec       q    Type
                         _______ _______ _______ _____ _____    ______ ____

>  <TORSDO>
F 1

$$$$
=
 OpenBabel10272401003D

 27 31  0  0  1  0  0  0  0  0999 V2000
  187.4200  178.9480  139.9070 O   0  0  0  0  0  0  0  0  0  0  0  0
  187.1940  178.0610  142.1440 C   0  0  0  0  0  0  0  0  0  0  0  0
  189.5090  177.6670  141.1060 C   0  0  0  0  0  2  0  0  0  0  0  0
  188.6950  177.2910  146.0020 C   0  0  0  0  0  3  0  0  0  0  0  0
  190.8760  176.9160  145.1640 C   0  0  0  0  0  3  0  0  0  0  0  0
  186.3670  178.0830  143.2750 C   0  0  0  0  0  3  0  0  0  0  0  0
  190.4500  177.1490  143.8540 C   0  0  0  0  0  0  0  0  0  0  0  0
  190.6790  177.0370  138.1480 C   0  0  0  0  0  2  0  0  0  0  0  0
  191.3750  177.0540  142.8670 F   0  0  0  0  0  0  0  0  0  0  0  0
  189.7430  177.7950  137.2220 C   0  0  0  0  0  2  0  0  0  0  0  0
  189.0910  177.4690  143.6030 C   0  0  0  0  0  0  0  0  0  0  0  0
  186.5520  178.2700  140.7750 C   0  0  1  0  0  3  0  0  0  0  0  0
  190.0030  176.9910  146.1990 N   0  0  0  0  0  0  0  0  0  0  0  0
  188.2150  177.5340  144.7150 C   0  0  0  0  0  0  0  0  0  0  0  0
  188.0270  177.9880  139.0750 C   0  0  1  0  0  3  0  0  0  0  0  0
  188.5750  177.7180  142.2980 C   0  0  0  0  0  0  0  0  0  0  0  0
  189.8600  176.1630  139.0860 C   0  0  0  0  0  2  0  0  0  0  0  0
  186.8690  177.8320  144.5440 C   0  0  0  0  0  3  0  0  0  0  0  0
  188.0580  179.4620  137.1990 F   0  0  0  0  0  0  0  0  0  0  0  0
  188.8790  178.7400  138.0450 C   0  0  2  0  0  3  0  0  0  0  0  0
  188.8660  176.9850  139.9080 C   0  0  1  0  0  3  0  0  0  0  0  0
  183.4340  177.4020  139.0910 C   0  0  0  0  0  3  0  0  0  0  0  0
  185.1690  178.9490  140.8090 C   0  0  2  0  0  3  0  0  0  0  0  0
  184.0960  178.0440  141.4240 C   0  0  0  0  0  2  0  0  0  0  0  0
  183.3620  177.1960  140.4140 C   0  0  0  0  0  3  0  0  0  0  0  0
  184.3380  178.4370  138.4770 C   0  0  0  0  0  2  0  0  0  0  0  0
  184.7110  179.5360  139.4680 C   0  0  0  0  0  2  0  0  0  0  0  0
  2 16  2  0  0  0  0
  2  6  1  0  0  0  0
  3 16  1  0  0  0  0
  4 13  1  0  0  0  0
  5 13  2  0  0  0  0
  6 18  2  0  0  0  0
  7  5  1  0  0  0  0
  8 17  1  0  0  0  0
  9  7  1  0  0  0  0
 10 20  1  0  0  0  0
 10  8  1  0  0  0  0
 11  7  2  0  0  0  0
 11 14  1  0  0  0  0
 12  1  1  6  0  0  0
 12 23  1  0  0  0  0
 12  2  1  0  0  0  0
 14  4  2  0  0  0  0
 15  1  1  1  0  0  0
 15 21  1  0  0  0  0
 16 11  1  0  0  0  0
 18 14  1  0  0  0  0
 20 19  1  6  0  0  0
 20 15  1  0  0  0  0
 21 17  1  6  0  0  0
 21  3  1  0  0  0  0
 22 25  2  0  0  0  0
 23 27  1  6  0  0  0
 23 24  1  0  0  0  0
 25 24  1  0  0  0  0
 26 22  1  0  0  0  0
 26 27  1  0  0  0  0
M  END
>  <MODEL>
6

>  <REMARK>
 VINA RESULT:      -8.3      3.027      6.617
  Name = 
  1 active torsions:
  status: ('A' for Active; 'I' for Inactive)
    1  A    between atoms: C_9  and  C_15
                            x       y       z     vdW  Elec       q    Type
                         _______ _______ _______ _____ _____    ______ ____

>  <TORSDO>
F 1

$$$$
=
 OpenBabel10272401003D

 27 31  0  0  1  0  0  0  0  0999 V2000
  184.2710  178.2690  141.2930 O   0  0  0  0  0  0  0  0  0  0  0  0
  186.6420  178.3630  140.8390 C   0  0  0  0  0  0  0  0  0  0  0  0
  186.0790  177.9090  143.3040 C   0  0  0  0  0  2  0  0  0  0  0  0
  190.5870  176.9980  141.3970 C   0  0  0  0  0  3  0  0  0  0  0  0
  190.1840  176.5270  143.6820 C   0  0  0  0  0  3  0  0  0  0  0  0
  187.5800  178.3720  139.7980 C   0  0  0  0  0  3  0  0  0  0  0  0
  188.8650  176.9740  143.5770 C   0  0  0  0  0  0  0  0  0  0  0  0
  183.7780  178.8300  145.3940 C   0  0  0  0  0  2  0  0  0  0  0  0
  188.0970  176.9300  144.6930 F   0  0  0  0  0  0  0  0  0  0  0  0
  182.5390  178.9690  144.5250 C   0  0  0  0  0  2  0  0  0  0  0  0
  188.3800  177.4510  142.3320 C   0  0  0  0  0  0  0  0  0  0  0  0
  185.2610  178.9530  140.5720 C   0  0  1  0  0  3  0  0  0  0  0  0
  191.0090  176.5470  142.6050 N   0  0  0  0  0  0  0  0  0  0  0  0
  189.2780  177.4540  141.2360 C   0  0  0  0  0  0  0  0  0  0  0  0
  183.9760  179.0300  142.4410 C   0  0  1  0  0  3  0  0  0  0  0  0
  187.0510  177.9260  142.1400 C   0  0  0  0  0  0  0  0  0  0  0  0
  184.9170  179.6260  144.7760 C   0  0  0  0  0  2  0  0  0  0  0  0
  188.8780  177.9170  139.9890 C   0  0  0  0  0  3  0  0  0  0  0  0
  181.6670  178.4340  142.3870 F   0  0  0  0  0  0  0  0  0  0  0  0
  182.8080  178.3470  143.1620 C   0  0  2  0  0  3  0  0  0  0  0  0
  185.2250  179.1670  143.3490 C   0  0  1  0  0  3  0  0  0  0  0  0
  182.1450  178.1550  138.8510 C   0  0  0  0  0  3  0  0  0  0  0  0
  184.8820  179.0560  139.0820 C   0  0  2  0  0  3  0  0  0  0  0  0
  183.7610  180.0730  138.8400 C   0  0  0  0  0  2  0  0  0  0  0  0
  182.3760  179.4750  138.8800 C   0  0  0  0  0  3  0  0  0  0  0  0
  183.2510  177.1340  138.8790 C   0  0  0  0  0  2  0  0  0  0  0  0
  184.5810  177.7130  138.4040 C   0  0  0  0  0  2  0  0  0  0  0  0
  2 16  1  0  0  0  0
  4 13  2  0  0  0  0
  6 18  1  0  0  0  0
  6  2  2  0  0  0  0
  7  5  2  0  0  0  0
  7  9  1  0  0  0  0
 10  8  1  0  0  0  0
 11  7  1  0  0  0  0
 12  2  1  6  0  0  0
 12  1  1  0  0  0  0
 13  5  1  0  0  0  0
 14  4  1  0  0  0  0
 14 11  1  0  0  0  0
 15  1  1  6  0  0  0
 15 20  1  0  0  0  0
 15 21  1  0  0  0  0
 16 11  2  0  0  0  0
 16  3  1  0  0  0  0
 17  8  1  0  0  0  0
 18 14  2  0  0  0  0
 20 19  1  6  0  0  0
 20 10  1  0  0  0  0
 21  3  1  1  0  0  0
 21 17  1  0  0  0  0
 22 26  1  0  0  0  0
 22 25  2  0  0  0  0
 23 27  1  1  0  0  0
 23 12  1  0  0  0  0
 24 25  1  0  0  0  0
 24 23  1  0  0  0  0
 27 26  1  0  0  0  0
M  END
>  <MODEL>
7

>  <REMARK>
 VINA RESULT:      -8.3      3.180      7.577
  Name = 
  1 active torsions:
  status: ('A' for Active; 'I' for Inactive)
    1  A    between atoms: C_9  and  C_15
                            x       y       z     vdW  Elec       q    Type
                         _______ _______ _______ _____ _____    ______ ____

>  <TORSDO>
F 1

$$$$
=
 OpenBabel10272401003D

 27 31  0  0  1  0  0  0  0  0999 V2000
  187.5960  178.3110  145.4940 O   0  0  0  0  0  0  0  0  0  0  0  0
  189.0410  177.1630  143.9350 C   0  0  0  0  0  0  0  0  0  0  0  0
  187.1060  178.4240  142.8120 C   0  0  0  0  0  2  0  0  0  0  0  0
  191.1240  176.9290  140.2820 C   0  0  0  0  0  3  0  0  0  0  0  0
  189.4100  178.0950  139.1400 C   0  0  0  0  0  3  0  0  0  0  0  0
  190.2770  176.5100  143.8310 C   0  0  0  0  0  3  0  0  0  0  0  0
  188.6550  178.2020  140.3100 C   0  0  0  0  0  0  0  0  0  0  0  0
  184.0080  179.0760  143.5150 C   0  0  0  0  0  2  0  0  0  0  0  0
  187.4600  178.8370  140.2310 F   0  0  0  0  0  0  0  0  0  0  0  0
  184.0060  179.2240  145.0270 C   0  0  0  0  0  2  0  0  0  0  0  0
  189.1530  177.6550  141.5210 C   0  0  0  0  0  0  0  0  0  0  0  0
  188.3160  177.1280  145.2770 C   0  0  1  0  0  3  0  0  0  0  0  0
  190.6130  177.4690  139.1470 N   0  0  0  0  0  0  0  0  0  0  0  0
  190.4130  177.0090  141.4800 C   0  0  0  0  0  0  0  0  0  0  0  0
  186.2490  178.0570  145.1700 C   0  0  1  0  0  3  0  0  0  0  0  0
  188.4460  177.7190  142.7570 C   0  0  0  0  0  0  0  0  0  0  0  0
  184.6730  177.7600  143.1400 C   0  0  0  0  0  2  0  0  0  0  0  0
  190.9590  176.4400  142.6240 C   0  0  0  0  0  3  0  0  0  0  0  0
  185.4400  179.4910  146.8960 F   0  0  0  0  0  0  0  0  0  0  0  0
  185.4410  179.3110  145.5250 C   0  0  2  0  0  3  0  0  0  0  0  0
  186.1030  177.6720  143.6750 C   0  0  1  0  0  3  0  0  0  0  0  0
  188.1150  178.2220  148.7510 C   0  0  0  0  0  3  0  0  0  0  0  0
  189.2150  176.8040  146.4860 C   0  0  2  0  0  3  0  0  0  0  0  0
  188.4620  176.0330  147.5750 C   0  0  0  0  0  2  0  0  0  0  0  0
  187.8270  176.9190  148.6200 C   0  0  0  0  0  3  0  0  0  0  0  0
  189.0250  178.9540  147.8020 C   0  0  0  0  0  2  0  0  0  0  0  0
  189.9690  178.0080  147.0650 C   0  0  0  0  0  2  0  0  0  0  0  0
  4 14  1  0  0  0  0
  5 13  1  0  0  0  0
  5  7  2  0  0  0  0
  6  2  1  0  0  0  0
  7 11  1  0  0  0  0
  8 10  1  0  0  0  0
  9  7  1  0  0  0  0
 10 20  1  0  0  0  0
 11 16  1  0  0  0  0
 12  2  1  6  0  0  0
 12  1  1  0  0  0  0
 12 23  1  0  0  0  0
 13  4  2  0  0  0  0
 14 11  2  0  0  0  0
 14 18  1  0  0  0  0
 15  1  1  6  0  0  0
 15 20  1  0  0  0  0
 16  3  1  0  0  0  0
 16  2  2  0  0  0  0
 17  8  1  0  0  0  0
 17 21  1  0  0  0  0
 18  6  2  0  0  0  0
 20 19  1  1  0  0  0
 21  3  1  6  0  0  0
 21 15  1  0  0  0  0
 23 27  1  1  0  0  0
 23 24  1  0  0  0  0
 24 25  1  0  0  0  0
 25 22  2  0  0  0  0
 26 22  1  0  0  0  0
 27 26  1  0  0  0  0
M  END
>  <MODEL>
8

>  <REMARK>
 VINA RESULT:      -8.3      2.458      5.204
  Name = 
  1 active torsions:
  status: ('A' for Active; 'I' for Inactive)
    1  A    between atoms: C_9  and  C_15
                            x       y       z     vdW  Elec       q    Type
                         _______ _______ _______ _____ _____    ______ ____

>  <TORSDO>
F 1

$$$$
=
 OpenBabel10272401003D

 27 31  0  0  1  0  0  0  0  0999 V2000
  189.0810  178.2800  144.6810 O   0  0  0  0  0  0  0  0  0  0  0  0
  188.6370  177.7360  142.3690 C   0  0  0  0  0  0  0  0  0  0  0  0
  186.5480  178.4470  143.6830 C   0  0  0  0  0  2  0  0  0  0  0  0
  186.6720  178.4140  138.7060 C   0  0  0  0  0  3  0  0  0  0  0  0
  184.6920  179.1010  139.8060 C   0  0  0  0  0  3  0  0  0  0  0  0
  189.2630  177.4910  141.1400 C   0  0  0  0  0  3  0  0  0  0  0  0
  185.2730  178.8890  141.0580 C   0  0  0  0  0  0  0  0  0  0  0  0
  185.4460  178.0930  146.7120 C   0  0  0  0  0  2  0  0  0  0  0  0
  184.5150  179.1440  142.1530 F   0  0  0  0  0  0  0  0  0  0  0  0
  186.7080  178.1170  147.5580 C   0  0  0  0  0  2  0  0  0  0  0  0
  186.6100  178.4230  141.1440 C   0  0  0  0  0  0  0  0  0  0  0  0
  189.3920  177.3840  143.6470 C   0  0  1  0  0  3  0  0  0  0  0  0
  185.3920  178.8630  138.6690 N   0  0  0  0  0  0  0  0  0  0  0  0
  187.3020  178.1870  139.9310 C   0  0  0  0  0  0  0  0  0  0  0  0
  188.1230  177.6630  145.5070 C   0  0  1  0  0  3  0  0  0  0  0  0
  187.2760  178.1800  142.3810 C   0  0  0  0  0  0  0  0  0  0  0  0
  185.6070  177.0670  145.6000 C   0  0  0  0  0  2  0  0  0  0  0  0
  188.6100  177.7200  139.9360 C   0  0  0  0  0  3  0  0  0  0  0  0
  189.0160  178.6540  147.4850 F   0  0  0  0  0  0  0  0  0  0  0  0
  187.8770  178.5880  146.7050 C   0  0  2  0  0  3  0  0  0  0  0  0
  186.8210  177.3670  144.7190 C   0  0  1  0  0  3  0  0  0  0  0  0
  191.8920  175.8050  145.7830 C   0  0  0  0  0  3  0  0  0  0  0  0
  190.9180  177.2500  143.4780 C   0  0  2  0  0  3  0  0  0  0  0  0
  191.3560  175.7890  143.3330 C   0  0  0  0  0  2  0  0  0  0  0  0
  191.7090  175.1260  144.6420 C   0  0  0  0  0  3  0  0  0  0  0  0
  191.6630  177.2890  145.8930 C   0  0  0  0  0  2  0  0  0  0  0  0
  191.7470  177.9860  144.5380 C   0  0  0  0  0  2  0  0  0  0  0  0
  2 16  1  0  0  0  0
  4 14  1  0  0  0  0
  5  7  2  0  0  0  0
  6  2  2  0  0  0  0
  7 11  1  0  0  0  0
  7  9  1  0  0  0  0
  8 10  1  0  0  0  0
 11 16  2  0  0  0  0
 12  2  1  6  0  0  0
 12  1  1  0  0  0  0
 13  4  2  0  0  0  0
 13  5  1  0  0  0  0
 14 18  2  0  0  0  0
 14 11  1  0  0  0  0
 15  1  1  6  0  0  0
 15 20  1  0  0  0  0
 16  3  1  0  0  0  0
 17  8  1  0  0  0  0
 18  6  1  0  0  0  0
 20 19  1  1  0  0  0
 20 10  1  0  0  0  0
 21  3  1  1  0  0  0
 21 15  1  0  0  0  0
 21 17  1  0  0  0  0
 22 26  1  0  0  0  0
 23 24  1  1  0  0  0
 23 12  1  0  0  0  0
 23 27  1  0  0  0  0
 24 25  1  0  0  0  0
 25 22  2  0  0  0  0
 27 26  1  0  0  0  0
M  END
>  <MODEL>
9

>  <REMARK>
 VINA RESULT:      -8.3      2.261      4.620
  Name = 
  1 active torsions:
  status: ('A' for Active; 'I' for Inactive)
    1  A    between atoms: C_9  and  C_15
                            x       y       z     vdW  Elec       q    Type
                         _______ _______ _______ _____ _____    ______ ____

>  <TORSDO>
F 1

$$$$
