=
 OpenBabel10272400433D

 25 27  0  0  0  0  0  0  0  0999 V2000
  186.9210  177.9380  145.5560 C   0  0  0  0  0  0  0  0  0  0  0  0
  188.1130  177.5540  144.8980 C   0  0  0  0  0  0  0  0  0  0  0  0
  188.0760  177.7210  147.6750 C   0  0  0  0  0  3  0  0  0  0  0  0
  189.2120  177.3590  147.0260 N   0  0  0  0  0  0  0  0  0  0  0  0
  190.4550  176.8760  145.0290 C   0  0  0  0  0  0  0  0  0  0  0  0
  191.6890  176.5710  145.8090 C   0  0  0  0  0  1  0  0  0  0  0  0
  188.1760  177.4240  143.5030 C   0  0  0  0  0  3  0  0  0  0  0  0
  186.9200  178.0150  146.9550 C   0  0  0  0  0  3  0  0  0  0  0  0
  190.4940  176.7640  143.6380 C   0  0  0  0  0  3  0  0  0  0  0  0
  189.3610  177.0330  142.8680 C   0  0  0  0  0  0  0  0  0  0  0  0
  189.2660  177.2650  145.6690 C   0  0  0  0  0  0  0  0  0  0  0  0
  185.6750  178.2820  144.8250 C   0  0  0  0  0  0  0  0  0  0  0  0
  183.3470  178.9770  143.4100 C   0  0  0  0  0  3  0  0  0  0  0  0
  184.4720  178.5440  145.5130 C   0  0  0  0  0  0  0  0  0  0  0  0
  183.3170  178.8850  144.8030 C   0  0  0  0  0  3  0  0  0  0  0  0
  184.5340  178.7260  142.7200 C   0  0  0  0  0  3  0  0  0  0  0  0
  184.4060  178.4450  146.8650 F   0  0  0  0  0  0  0  0  0  0  0  0
  185.6920  178.3840  143.4240 C   0  0  0  0  0  3  0  0  0  0  0  0
  189.4480  176.9050  141.4420 N   0  0  0  0  0  2  0  0  0  0  0  0
  188.8760  177.7850  140.4610 C   0  0  0  0  0  0  0  0  0  0  0  0
  188.1580  178.7590  140.8190 O   0  0  0  0  0  0  0  0  0  0  0  0
  187.8510  176.7960  138.4070 C   0  0  0  0  0  1  0  0  0  0  0  0
  189.3000  178.7740  138.2210 C   0  0  0  0  0  1  0  0  0  0  0  0
  190.2750  176.5880  138.8230 C   0  0  0  0  0  1  0  0  0  0  0  0
  189.0690  177.4900  138.9960 C   0  0  0  0  0  0  0  0  0  0  0  0
  1  8  1  0  0  0  0
  2  1  2  0  0  0  0
  2 11  1  0  0  0  0
  4  3  1  0  0  0  0
  5 11  1  0  0  0  0
  5  6  1  0  0  0  0
  7  2  1  0  0  0  0
  8  3  2  0  0  0  0
  9  5  2  0  0  0  0
 10  7  2  0  0  0  0
 10  9  1  0  0  0  0
 11  4  2  0  0  0  0
 12 14  1  0  0  0  0
 12  1  1  0  0  0  0
 13 15  1  0  0  0  0
 14 17  1  0  0  0  0
 15 14  2  0  0  0  0
 16 13  2  0  0  0  0
 16 18  1  0  0  0  0
 18 12  2  0  0  0  0
 19 10  1  0  0  0  0
 20 21  2  0  0  0  0
 20 19  1  0  0  0  0
 22 25  1  0  0  0  0
 23 25  1  0  0  0  0
 24 25  1  0  0  0  0
 25 20  1  0  0  0  0
M  END
>  <MODEL>
1

>  <REMARK>
 VINA RESULT:     -10.4      0.000      0.000
  Name = 
  3 active torsions:
  status: ('A' for Active; 'I' for Inactive)
    1  A    between atoms: C_1  and  C_5
    2  A    between atoms: N_6  and  C_23
    3  A    between atoms: C_15  and  C_21
                            x       y       z     vdW  Elec       q    Type
                         _______ _______ _______ _____ _____    ______ ____

>  <TORSDO>
F 3

$$$$
=
 OpenBabel10272400433D

 25 27  0  0  0  0  0  0  0  0999 V2000
  187.5930  177.8370  144.6710 C   0  0  0  0  0  0  0  0  0  0  0  0
  186.6730  178.1480  143.6410 C   0  0  0  0  0  0  0  0  0  0  0  0
  185.8180  178.1600  146.2890 C   0  0  0  0  0  3  0  0  0  0  0  0
  184.9490  178.4510  145.2870 N   0  0  0  0  0  0  0  0  0  0  0  0
  184.4100  178.7740  142.9700 C   0  0  0  0  0  0  0  0  0  0  0  0
  182.9900  179.0970  143.2910 C   0  0  0  0  0  1  0  0  0  0  0  0
  187.0600  178.1860  142.2930 C   0  0  0  0  0  3  0  0  0  0  0  0
  187.1450  177.8500  145.9980 C   0  0  0  0  0  3  0  0  0  0  0  0
  184.8200  178.7960  141.6350 C   0  0  0  0  0  3  0  0  0  0  0  0
  186.1410  178.5060  141.2880 C   0  0  0  0  0  0  0  0  0  0  0  0
  185.3330  178.4570  143.9820 C   0  0  0  0  0  0  0  0  0  0  0  0
  189.0080  177.4790  144.4020 C   0  0  0  0  0  0  0  0  0  0  0  0
  191.6990  176.8580  143.8710 C   0  0  0  0  0  3  0  0  0  0  0  0
  189.3420  176.3320  143.6530 C   0  0  0  0  0  0  0  0  0  0  0  0
  190.6820  176.0260  143.3960 C   0  0  0  0  0  3  0  0  0  0  0  0
  191.3780  178.0000  144.6070 C   0  0  0  0  0  3  0  0  0  0  0  0
  188.3790  175.4930  143.1940 F   0  0  0  0  0  0  0  0  0  0  0  0
  190.0410  178.3100  144.8680 C   0  0  0  0  0  3  0  0  0  0  0  0
  186.5160  178.5410  139.9040 N   0  0  0  0  0  2  0  0  0  0  0  0
  187.7060  177.9870  139.3190 C   0  0  0  0  0  0  0  0  0  0  0  0
  188.5870  177.4550  140.0480 O   0  0  0  0  0  0  0  0  0  0  0  0
  188.9410  179.2200  137.5290 C   0  0  0  0  0  1  0  0  0  0  0  0
  188.4680  176.8220  137.2610 C   0  0  0  0  0  1  0  0  0  0  0  0
  186.6240  178.4580  137.1560 C   0  0  0  0  0  1  0  0  0  0  0  0
  187.9360  178.1220  137.8360 C   0  0  0  0  0  0  0  0  0  0  0  0
  1  8  1  0  0  0  0
  2 11  1  0  0  0  0
  2  1  2  0  0  0  0
  4  3  1  0  0  0  0
  5  6  1  0  0  0  0
  5 11  1  0  0  0  0
  7  2  1  0  0  0  0
  8  3  2  0  0  0  0
  9  5  2  0  0  0  0
 10  9  1  0  0  0  0
 10  7  2  0  0  0  0
 11  4  2  0  0  0  0
 12  1  1  0  0  0  0
 12 18  1  0  0  0  0
 13 16  1  0  0  0  0
 14 12  2  0  0  0  0
 15 14  1  0  0  0  0
 15 13  2  0  0  0  0
 16 18  2  0  0  0  0
 17 14  1  0  0  0  0
 19 10  1  0  0  0  0
 20 19  1  0  0  0  0
 20 21  2  0  0  0  0
 22 25  1  0  0  0  0
 23 25  1  0  0  0  0
 24 25  1  0  0  0  0
 25 20  1  0  0  0  0
M  END
>  <MODEL>
2

>  <REMARK>
 VINA RESULT:     -10.3      2.120      4.877
  Name = 
  3 active torsions:
  status: ('A' for Active; 'I' for Inactive)
    1  A    between atoms: C_1  and  C_5
    2  A    between atoms: N_6  and  C_23
    3  A    between atoms: C_15  and  C_21
                            x       y       z     vdW  Elec       q    Type
                         _______ _______ _______ _____ _____    ______ ____

>  <TORSDO>
F 3

$$$$
=
 OpenBabel10272400433D

 25 27  0  0  0  0  0  0  0  0999 V2000
  187.4290  177.9550  145.8030 C   0  0  0  0  0  0  0  0  0  0  0  0
  186.7750  178.1370  144.5610 C   0  0  0  0  0  0  0  0  0  0  0  0
  185.3240  178.3900  146.9220 C   0  0  0  0  0  3  0  0  0  0  0  0
  184.7130  178.5570  145.7210 N   0  0  0  0  0  0  0  0  0  0  0  0
  184.7300  178.6330  143.3210 C   0  0  0  0  0  0  0  0  0  0  0  0
  183.2740  178.9490  143.2690 C   0  0  0  0  0  1  0  0  0  0  0  0
  187.4660  178.0500  143.3440 C   0  0  0  0  0  3  0  0  0  0  0  0
  186.6840  178.0880  146.9810 C   0  0  0  0  0  3  0  0  0  0  0  0
  185.4400  178.5320  142.1230 C   0  0  0  0  0  3  0  0  0  0  0  0
  186.8070  178.2440  142.1240 C   0  0  0  0  0  0  0  0  0  0  0  0
  185.3920  178.4420  144.5470 C   0  0  0  0  0  0  0  0  0  0  0  0
  188.8690  177.6090  145.9080 C   0  0  0  0  0  0  0  0  0  0  0  0
  191.5950  176.9330  146.0500 C   0  0  0  0  0  3  0  0  0  0  0  0
  189.3560  176.8220  146.9730 C   0  0  0  0  0  0  0  0  0  0  0  0
  190.7130  176.4930  147.0400 C   0  0  0  0  0  3  0  0  0  0  0  0
  191.1220  177.7050  144.9880 C   0  0  0  0  0  3  0  0  0  0  0  0
  188.5280  176.3960  147.9600 F   0  0  0  0  0  0  0  0  0  0  0  0
  189.7670  178.0380  144.9160 C   0  0  0  0  0  3  0  0  0  0  0  0
  187.4940  178.1500  140.8690 N   0  0  0  0  0  2  0  0  0  0  0  0
  188.7130  177.4360  140.6050 C   0  0  0  0  0  0  0  0  0  0  0  0
  189.3300  176.8580  141.5430 O   0  0  0  0  0  0  0  0  0  0  0  0
  188.5940  176.4500  138.3110 C   0  0  0  0  0  1  0  0  0  0  0  0
  189.1550  178.8270  138.5940 C   0  0  0  0  0  1  0  0  0  0  0  0
  190.7670  177.0920  139.2890 C   0  0  0  0  0  1  0  0  0  0  0  0
  189.2960  177.4500  139.2160 C   0  0  0  0  0  0  0  0  0  0  0  0
  1 12  1  0  0  0  0
  1  8  1  0  0  0  0
  2  1  2  0  0  0  0
  3  8  2  0  0  0  0
  4  3  1  0  0  0  0
  5 11  1  0  0  0  0
  6  5  1  0  0  0  0
  7  2  1  0  0  0  0
  9 10  1  0  0  0  0
  9  5  2  0  0  0  0
 10  7  2  0  0  0  0
 11  2  1  0  0  0  0
 11  4  2  0  0  0  0
 12 14  1  0  0  0  0
 13 15  1  0  0  0  0
 14 15  2  0  0  0  0
 14 17  1  0  0  0  0
 16 13  2  0  0  0  0
 18 16  1  0  0  0  0
 18 12  2  0  0  0  0
 19 10  1  0  0  0  0
 20 19  1  0  0  0  0
 20 21  2  0  0  0  0
 22 25  1  0  0  0  0
 23 25  1  0  0  0  0
 25 24  1  0  0  0  0
 25 20  1  0  0  0  0
M  END
>  <MODEL>
3

>  <REMARK>
 VINA RESULT:     -10.2      1.783      4.489
  Name = 
  3 active torsions:
  status: ('A' for Active; 'I' for Inactive)
    1  A    between atoms: C_1  and  C_5
    2  A    between atoms: N_6  and  C_23
    3  A    between atoms: C_15  and  C_21
                            x       y       z     vdW  Elec       q    Type
                         _______ _______ _______ _____ _____    ______ ____

>  <TORSDO>
F 3

$$$$
=
 OpenBabel10272400433D

 25 27  0  0  0  0  0  0  0  0999 V2000
  188.1810  177.7010  145.0170 C   0  0  0  0  0  0  0  0  0  0  0  0
  186.9150  178.0630  144.5000 C   0  0  0  0  0  0  0  0  0  0  0  0
  187.2230  177.7130  147.2430 C   0  0  0  0  0  3  0  0  0  0  0  0
  186.0150  178.0560  146.7280 N   0  0  0  0  0  0  0  0  0  0  0  0
  184.5660  178.6040  144.8930 C   0  0  0  0  0  0  0  0  0  0  0  0
  183.3990  178.7890  145.8020 C   0  0  0  0  0  1  0  0  0  0  0  0
  186.7130  178.2830  143.1290 C   0  0  0  0  0  3  0  0  0  0  0  0
  188.3180  177.5310  146.4010 C   0  0  0  0  0  3  0  0  0  0  0  0
  184.3900  178.8070  143.5220 C   0  0  0  0  0  3  0  0  0  0  0  0
  185.4570  178.6510  142.6340 C   0  0  0  0  0  0  0  0  0  0  0  0
  185.8280  178.2380  145.3920 C   0  0  0  0  0  0  0  0  0  0  0  0
  189.3670  177.4750  144.1520 C   0  0  0  0  0  0  0  0  0  0  0  0
  191.6060  177.1040  142.4930 C   0  0  0  0  0  3  0  0  0  0  0  0
  189.4520  176.3490  143.3080 C   0  0  0  0  0  0  0  0  0  0  0  0
  190.5700  176.1670  142.4890 C   0  0  0  0  0  3  0  0  0  0  0  0
  191.5280  178.2260  143.3190 C   0  0  0  0  0  3  0  0  0  0  0  0
  188.4700  175.4110  143.2950 F   0  0  0  0  0  0  0  0  0  0  0  0
  190.4140  178.4120  144.1410 C   0  0  0  0  0  3  0  0  0  0  0  0
  185.2290  178.8700  141.2350 N   0  0  0  0  0  2  0  0  0  0  0  0
  184.2560  178.2120  140.4080 C   0  0  0  0  0  0  0  0  0  0  0  0
  183.5330  177.2920  140.8810 O   0  0  0  0  0  0  0  0  0  0  0  0
  185.5020  178.4130  138.2500 C   0  0  0  0  0  1  0  0  0  0  0  0
  183.1580  177.6730  138.2450 C   0  0  0  0  0  1  0  0  0  0  0  0
  183.7080  180.0100  138.8150 C   0  0  0  0  0  1  0  0  0  0  0  0
  184.1600  178.5700  138.9470 C   0  0  0  0  0  0  0  0  0  0  0  0
  1  8  1  0  0  0  0
  2  1  2  0  0  0  0
  2 11  1  0  0  0  0
  4  3  1  0  0  0  0
  5 11  1  0  0  0  0
  5  6  1  0  0  0  0
  7  2  1  0  0  0  0
  8  3  2  0  0  0  0
  9  5  2  0  0  0  0
 10  7  2  0  0  0  0
 10  9  1  0  0  0  0
 11  4  2  0  0  0  0
 12  1  1  0  0  0  0
 13 16  1  0  0  0  0
 14 12  2  0  0  0  0
 15 13  2  0  0  0  0
 15 14  1  0  0  0  0
 16 18  2  0  0  0  0
 17 14  1  0  0  0  0
 18 12  1  0  0  0  0
 19 10  1  0  0  0  0
 20 21  2  0  0  0  0
 20 19  1  0  0  0  0
 22 25  1  0  0  0  0
 23 25  1  0  0  0  0
 24 25  1  0  0  0  0
 25 20  1  0  0  0  0
M  END
>  <MODEL>
4

>  <REMARK>
 VINA RESULT:     -10.1      2.710      5.278
  Name = 
  3 active torsions:
  status: ('A' for Active; 'I' for Inactive)
    1  A    between atoms: C_1  and  C_5
    2  A    between atoms: N_6  and  C_23
    3  A    between atoms: C_15  and  C_21
                            x       y       z     vdW  Elec       q    Type
                         _______ _______ _______ _____ _____    ______ ____

>  <TORSDO>
F 3

$$$$
=
 OpenBabel10272400433D

 25 27  0  0  0  0  0  0  0  0999 V2000
  183.6330  178.5190  142.5240 C   0  0  0  0  0  0  0  0  0  0  0  0
  184.7190  178.3090  143.4060 C   0  0  0  0  0  0  0  0  0  0  0  0
  182.3420  179.3680  144.3910 C   0  0  0  0  0  3  0  0  0  0  0  0
  183.3960  179.1630  145.2210 N   0  0  0  0  0  0  0  0  0  0  0  0
  185.6410  178.4360  145.6640 C   0  0  0  0  0  0  0  0  0  0  0  0
  185.5250  178.7850  147.1090 C   0  0  0  0  0  1  0  0  0  0  0  0
  185.9290  177.7500  142.9670 C   0  0  0  0  0  3  0  0  0  0  0  0
  182.4440  179.0510  143.0370 C   0  0  0  0  0  3  0  0  0  0  0  0
  186.8380  177.8870  145.1990 C   0  0  0  0  0  3  0  0  0  0  0  0
  186.9900  177.5380  143.8550 C   0  0  0  0  0  0  0  0  0  0  0  0
  184.5730  178.6460  144.7740 C   0  0  0  0  0  0  0  0  0  0  0  0
  183.7080  178.2180  141.0720 C   0  0  0  0  0  0  0  0  0  0  0  0
  183.8580  177.5870  138.3360 C   0  0  0  0  0  3  0  0  0  0  0  0
  184.5970  178.9130  140.2260 C   0  0  0  0  0  0  0  0  0  0  0  0
  184.6630  178.5980  138.8650 C   0  0  0  0  0  3  0  0  0  0  0  0
  182.9810  176.8880  139.1660 C   0  0  0  0  0  3  0  0  0  0  0  0
  185.3780  179.9130  140.7060 F   0  0  0  0  0  0  0  0  0  0  0  0
  182.9090  177.1990  140.5270 C   0  0  0  0  0  3  0  0  0  0  0  0
  188.2370  176.9770  143.4230 N   0  0  0  0  0  2  0  0  0  0  0  0
  189.2080  177.5950  142.5640 C   0  0  0  0  0  0  0  0  0  0  0  0
  188.9790  178.7250  142.0490 O   0  0  0  0  0  0  0  0  0  0  0  0
  190.5400  176.5540  140.7220 C   0  0  0  0  0  1  0  0  0  0  0  0
  191.6920  177.6660  142.5880 C   0  0  0  0  0  1  0  0  0  0  0  0
  190.5020  175.5380  142.9710 C   0  0  0  0  0  1  0  0  0  0  0  0
  190.4700  176.8500  142.2120 C   0  0  0  0  0  0  0  0  0  0  0  0
  1  8  2  0  0  0  0
  1  2  1  0  0  0  0
  2 11  1  0  0  0  0
  3  4  2  0  0  0  0
  5  6  1  0  0  0  0
  7  2  2  0  0  0  0
  7 10  1  0  0  0  0
  8  3  1  0  0  0  0
  9  5  1  0  0  0  0
 10  9  2  0  0  0  0
 11  4  1  0  0  0  0
 11  5  2  0  0  0  0
 12  1  1  0  0  0  0
 13 15  2  0  0  0  0
 13 16  1  0  0  0  0
 14 17  1  0  0  0  0
 14 12  2  0  0  0  0
 15 14  1  0  0  0  0
 16 18  2  0  0  0  0
 18 12  1  0  0  0  0
 19 10  1  0  0  0  0
 20 19  1  0  0  0  0
 21 20  2  0  0  0  0
 22 25  1  0  0  0  0
 25 20  1  0  0  0  0
 25 23  1  0  0  0  0
 25 24  1  0  0  0  0
M  END
>  <MODEL>
5

>  <REMARK>
 VINA RESULT:      -9.6      2.672      4.701
  Name = 
  3 active torsions:
  status: ('A' for Active; 'I' for Inactive)
    1  A    between atoms: C_1  and  C_5
    2  A    between atoms: N_6  and  C_23
    3  A    between atoms: C_15  and  C_21
                            x       y       z     vdW  Elec       q    Type
                         _______ _______ _______ _____ _____    ______ ____

>  <TORSDO>
F 3

$$$$
=
 OpenBabel10272400433D

 25 27  0  0  0  0  0  0  0  0999 V2000
  188.4940  177.7810  143.3100 C   0  0  0  0  0  0  0  0  0  0  0  0
  187.1190  177.9600  143.5950 C   0  0  0  0  0  0  0  0  0  0  0  0
  188.9400  177.7910  145.6920 C   0  0  0  0  0  3  0  0  0  0  0  0
  187.6170  177.9590  145.9460 N   0  0  0  0  0  0  0  0  0  0  0  0
  185.3380  178.2340  145.2430 C   0  0  0  0  0  0  0  0  0  0  0  0
  184.8600  178.3240  146.6530 C   0  0  0  0  0  1  0  0  0  0  0  0
  186.1650  178.0830  142.5750 C   0  0  0  0  0  3  0  0  0  0  0  0
  189.3960  177.6990  144.3780 C   0  0  0  0  0  3  0  0  0  0  0  0
  184.4070  178.3430  144.2080 C   0  0  0  0  0  3  0  0  0  0  0  0
  184.8100  178.2720  142.8730 C   0  0  0  0  0  0  0  0  0  0  0  0
  186.6990  178.0480  144.9450 C   0  0  0  0  0  0  0  0  0  0  0  0
  189.0170  177.6540  141.9260 C   0  0  0  0  0  0  0  0  0  0  0  0
  189.9500  177.4140  139.2850 C   0  0  0  0  0  3  0  0  0  0  0  0
  189.9690  176.6690  141.5920 C   0  0  0  0  0  0  0  0  0  0  0  0
  190.4330  176.5570  140.2780 C   0  0  0  0  0  3  0  0  0  0  0  0
  189.0020  178.3860  139.6040 C   0  0  0  0  0  3  0  0  0  0  0  0
  190.4710  175.8350  142.5370 F   0  0  0  0  0  0  0  0  0  0  0  0
  188.5360  178.5040  140.9160 C   0  0  0  0  0  3  0  0  0  0  0  0
  183.8180  178.3890  141.8440 N   0  0  0  0  0  2  0  0  0  0  0  0
  183.9870  178.9850  140.5480 C   0  0  0  0  0  0  0  0  0  0  0  0
  185.0790  179.5370  140.2370 O   0  0  0  0  0  0  0  0  0  0  0  0
  182.9090  177.8920  138.5750 C   0  0  0  0  0  1  0  0  0  0  0  0
  181.5130  178.8830  140.3400 C   0  0  0  0  0  1  0  0  0  0  0  0
  182.8300  180.3440  138.8490 C   0  0  0  0  0  1  0  0  0  0  0  0
  182.8250  179.0210  139.5900 C   0  0  0  0  0  0  0  0  0  0  0  0
  1  2  2  0  0  0  0
  1  8  1  0  0  0  0
  2 11  1  0  0  0  0
  3  4  1  0  0  0  0
  5  6  1  0  0  0  0
  7 10  2  0  0  0  0
  7  2  1  0  0  0  0
  8  3  2  0  0  0  0
  9  5  2  0  0  0  0
 10  9  1  0  0  0  0
 11  5  1  0  0  0  0
 11  4  2  0  0  0  0
 12  1  1  0  0  0  0
 13 16  2  0  0  0  0
 13 15  1  0  0  0  0
 14 12  1  0  0  0  0
 14 17  1  0  0  0  0
 15 14  2  0  0  0  0
 16 18  1  0  0  0  0
 18 12  2  0  0  0  0
 19 10  1  0  0  0  0
 20 19  1  0  0  0  0
 21 20  2  0  0  0  0
 22 25  1  0  0  0  0
 24 25  1  0  0  0  0
 25 23  1  0  0  0  0
 25 20  1  0  0  0  0
M  END
>  <MODEL>
6

>  <REMARK>
 VINA RESULT:      -9.6      2.831      5.559
  Name = 
  3 active torsions:
  status: ('A' for Active; 'I' for Inactive)
    1  A    between atoms: C_1  and  C_5
    2  A    between atoms: N_6  and  C_23
    3  A    between atoms: C_15  and  C_21
                            x       y       z     vdW  Elec       q    Type
                         _______ _______ _______ _____ _____    ______ ____

>  <TORSDO>
F 3

$$$$
=
 OpenBabel10272400433D

 25 27  0  0  0  0  0  0  0  0999 V2000
  183.6300  178.4320  141.9160 C   0  0  0  0  0  0  0  0  0  0  0  0
  184.6020  178.2770  142.9320 C   0  0  0  0  0  0  0  0  0  0  0  0
  182.0420  179.1370  143.6050 C   0  0  0  0  0  3  0  0  0  0  0  0
  182.9890  178.9880  144.5660 N   0  0  0  0  0  0  0  0  0  0  0  0
  185.2030  178.4120  145.2950 C   0  0  0  0  0  0  0  0  0  0  0  0
  184.8700  178.7140  146.7170 C   0  0  0  0  0  1  0  0  0  0  0  0
  185.8970  177.8180  142.6510 C   0  0  0  0  0  3  0  0  0  0  0  0
  182.3460  178.8630  142.2730 C   0  0  0  0  0  3  0  0  0  0  0  0
  186.4890  177.9620  144.9870 C   0  0  0  0  0  3  0  0  0  0  0  0
  186.8430  177.6600  143.6700 C   0  0  0  0  0  0  0  0  0  0  0  0
  184.2500  178.5670  144.2740 C   0  0  0  0  0  0  0  0  0  0  0  0
  183.9200  178.1740  140.4820 C   0  0  0  0  0  0  0  0  0  0  0  0
  184.4590  177.7450  137.7560 C   0  0  0  0  0  3  0  0  0  0  0  0
  183.2630  177.1440  139.7770 C   0  0  0  0  0  0  0  0  0  0  0  0
  183.5380  176.9330  138.4230 C   0  0  0  0  0  3  0  0  0  0  0  0
  185.1090  178.7710  138.4430 C   0  0  0  0  0  3  0  0  0  0  0  0
  182.3770  176.3270  140.4010 F   0  0  0  0  0  0  0  0  0  0  0  0
  184.8380  178.9860  139.7970 C   0  0  0  0  0  3  0  0  0  0  0  0
  188.1750  177.2010  143.4010 N   0  0  0  0  0  2  0  0  0  0  0  0
  189.1260  177.7940  142.5020 C   0  0  0  0  0  0  0  0  0  0  0  0
  188.8020  178.7890  141.7960 O   0  0  0  0  0  0  0  0  0  0  0  0
  190.8680  177.0360  140.8760 C   0  0  0  0  0  1  0  0  0  0  0  0
  191.5440  178.0150  143.0280 C   0  0  0  0  0  1  0  0  0  0  0  0
  190.4800  175.7900  142.9710 C   0  0  0  0  0  1  0  0  0  0  0  0
  190.4880  177.1690  142.3430 C   0  0  0  0  0  0  0  0  0  0  0  0
  1  8  2  0  0  0  0
  1  2  1  0  0  0  0
  2 11  1  0  0  0  0
  3  4  2  0  0  0  0
  5  6  1  0  0  0  0
  7  2  2  0  0  0  0
  7 10  1  0  0  0  0
  8  3  1  0  0  0  0
  9  5  1  0  0  0  0
 10  9  2  0  0  0  0
 11  4  1  0  0  0  0
 11  5  2  0  0  0  0
 12  1  1  0  0  0  0
 13 15  2  0  0  0  0
 13 16  1  0  0  0  0
 14 17  1  0  0  0  0
 14 12  2  0  0  0  0
 15 14  1  0  0  0  0
 16 18  2  0  0  0  0
 18 12  1  0  0  0  0
 19 10  1  0  0  0  0
 20 19  1  0  0  0  0
 21 20  2  0  0  0  0
 22 25  1  0  0  0  0
 25 20  1  0  0  0  0
 25 24  1  0  0  0  0
 25 23  1  0  0  0  0
M  END
>  <MODEL>
7

>  <REMARK>
 VINA RESULT:      -9.6      2.820      5.050
  Name = 
  3 active torsions:
  status: ('A' for Active; 'I' for Inactive)
    1  A    between atoms: C_1  and  C_5
    2  A    between atoms: N_6  and  C_23
    3  A    between atoms: C_15  and  C_21
                            x       y       z     vdW  Elec       q    Type
                         _______ _______ _______ _____ _____    ______ ____

>  <TORSDO>
F 3

$$$$
=
 OpenBabel10272400433D

 25 27  0  0  0  0  0  0  0  0999 V2000
  188.6240  178.0550  141.7440 C   0  0  0  0  0  0  0  0  0  0  0  0
  188.8670  177.8260  140.3690 C   0  0  0  0  0  0  0  0  0  0  0  0
  186.3910  178.8060  141.1780 C   0  0  0  0  0  3  0  0  0  0  0  0
  186.6410  178.5760  139.8630 N   0  0  0  0  0  0  0  0  0  0  0  0
  188.0690  177.8840  138.0620 C   0  0  0  0  0  0  0  0  0  0  0  0
  187.0090  178.1550  137.0480 C   0  0  0  0  0  1  0  0  0  0  0  0
  190.1070  177.3630  139.9060 C   0  0  0  0  0  3  0  0  0  0  0  0
  187.3730  178.5500  142.1330 C   0  0  0  0  0  3  0  0  0  0  0  0
  189.3100  177.4140  137.6280 C   0  0  0  0  0  3  0  0  0  0  0  0
  190.3340  177.1530  138.5410 C   0  0  0  0  0  0  0  0  0  0  0  0
  187.8400  178.1000  139.4320 C   0  0  0  0  0  0  0  0  0  0  0  0
  189.6350  177.7730  142.7950 C   0  0  0  0  0  0  0  0  0  0  0  0
  191.5920  177.2620  144.7480 C   0  0  0  0  0  3  0  0  0  0  0  0
  189.7400  176.4960  143.3840 C   0  0  0  0  0  0  0  0  0  0  0  0
  190.7120  176.2490  144.3580 C   0  0  0  0  0  3  0  0  0  0  0  0
  191.5010  178.5270  144.1660 C   0  0  0  0  0  3  0  0  0  0  0  0
  188.8890  175.4960  143.0400 F   0  0  0  0  0  0  0  0  0  0  0  0
  190.5300  178.7800  143.1930 C   0  0  0  0  0  3  0  0  0  0  0  0
  191.5920  176.6700  138.0490 N   0  0  0  0  0  2  0  0  0  0  0  0
  191.9240  175.3120  137.7180 C   0  0  0  0  0  0  0  0  0  0  0  0
  191.0890  174.3850  137.9130 O   0  0  0  0  0  0  0  0  0  0  0  0
  193.7390  175.9550  136.1240 C   0  0  0  0  0  1  0  0  0  0  0  0
  194.3160  175.0670  138.3430 C   0  0  0  0  0  1  0  0  0  0  0  0
  193.3130  173.5810  136.6480 C   0  0  0  0  0  1  0  0  0  0  0  0
  193.3060  174.9870  137.2140 C   0  0  0  0  0  0  0  0  0  0  0  0
  1  8  1  0  0  0  0
  1 12  1  0  0  0  0
  2  1  2  0  0  0  0
  3  8  2  0  0  0  0
  4  3  1  0  0  0  0
  5 11  1  0  0  0  0
  6  5  1  0  0  0  0
  7  2  1  0  0  0  0
  9  5  2  0  0  0  0
  9 10  1  0  0  0  0
 10  7  2  0  0  0  0
 11  4  2  0  0  0  0
 11  2  1  0  0  0  0
 12 18  2  0  0  0  0
 12 14  1  0  0  0  0
 14 15  2  0  0  0  0
 15 13  1  0  0  0  0
 16 13  2  0  0  0  0
 17 14  1  0  0  0  0
 18 16  1  0  0  0  0
 19 10  1  0  0  0  0
 20 21  2  0  0  0  0
 20 19  1  0  0  0  0
 22 25  1  0  0  0  0
 24 25  1  0  0  0  0
 25 20  1  0  0  0  0
 25 23  1  0  0  0  0
M  END
>  <MODEL>
8

>  <REMARK>
 VINA RESULT:      -9.3      3.512      6.178
  Name = 
  3 active torsions:
  status: ('A' for Active; 'I' for Inactive)
    1  A    between atoms: C_1  and  C_5
    2  A    between atoms: N_6  and  C_23
    3  A    between atoms: C_15  and  C_21
                            x       y       z     vdW  Elec       q    Type
                         _______ _______ _______ _____ _____    ______ ____

>  <TORSDO>
F 3

$$$$
=
 OpenBabel10272400433D

 25 27  0  0  0  0  0  0  0  0999 V2000
  190.2710  177.3320  141.1890 C   0  0  0  0  0  0  0  0  0  0  0  0
  188.9710  177.7150  140.7820 C   0  0  0  0  0  0  0  0  0  0  0  0
  190.8120  176.8810  138.8700 C   0  0  0  0  0  3  0  0  0  0  0  0
  189.5620  177.2560  138.4990 N   0  0  0  0  0  0  0  0  0  0  0  0
  187.3450  178.0390  138.9890 C   0  0  0  0  0  0  0  0  0  0  0  0
  186.9600  178.0080  137.5480 C   0  0  0  0  0  1  0  0  0  0  0  0
  187.9960  178.1140  141.7080 C   0  0  0  0  0  3  0  0  0  0  0  0
  191.1840  176.9130  140.2130 C   0  0  0  0  0  3  0  0  0  0  0  0
  186.3960  178.4410  139.9310 C   0  0  0  0  0  3  0  0  0  0  0  0
  186.7110  178.4790  141.2910 C   0  0  0  0  0  0  0  0  0  0  0  0
  188.6350  177.6680  139.4070 C   0  0  0  0  0  0  0  0  0  0  0  0
  190.7140  177.3750  142.6050 C   0  0  0  0  0  0  0  0  0  0  0  0
  191.6070  177.4820  145.2690 C   0  0  0  0  0  3  0  0  0  0  0  0
  190.6970  176.2180  143.4120 C   0  0  0  0  0  0  0  0  0  0  0  0
  191.1370  176.2790  144.7370 C   0  0  0  0  0  3  0  0  0  0  0  0
  191.6360  178.6300  144.4770 C   0  0  0  0  0  3  0  0  0  0  0  0
  190.2290  175.0390  142.9300 F   0  0  0  0  0  0  0  0  0  0  0  0
  191.1950  178.5760  143.1520 C   0  0  0  0  0  3  0  0  0  0  0  0
  185.7040  178.8990  142.2220 N   0  0  0  0  0  2  0  0  0  0  0  0
  185.5000  178.4010  143.5540 C   0  0  0  0  0  0  0  0  0  0  0  0
  186.2040  177.4510  143.9940 O   0  0  0  0  0  0  0  0  0  0  0  0
  184.4260  178.4130  145.8110 C   0  0  0  0  0  1  0  0  0  0  0  0
  184.4830  180.4740  144.4710 C   0  0  0  0  0  1  0  0  0  0  0  0
  183.0530  178.5900  143.7680 C   0  0  0  0  0  1  0  0  0  0  0  0
  184.3820  178.9620  144.3940 C   0  0  0  0  0  0  0  0  0  0  0  0
  1 12  1  0  0  0  0
  2  1  1  0  0  0  0
  2  7  1  0  0  0  0
  3  8  1  0  0  0  0
  4  3  2  0  0  0  0
  4 11  1  0  0  0  0
  5 11  1  0  0  0  0
  5  9  2  0  0  0  0
  6  5  1  0  0  0  0
  8  1  2  0  0  0  0
  9 10  1  0  0  0  0
 10  7  2  0  0  0  0
 10 19  1  0  0  0  0
 11  2  2  0  0  0  0
 12 18  2  0  0  0  0
 12 14  1  0  0  0  0
 14 15  2  0  0  0  0
 15 13  1  0  0  0  0
 16 13  2  0  0  0  0
 17 14  1  0  0  0  0
 18 16  1  0  0  0  0
 19 20  1  0  0  0  0
 20 21  2  0  0  0  0
 20 25  1  0  0  0  0
 24 25  1  0  0  0  0
 25 23  1  0  0  0  0
 25 22  1  0  0  0  0
M  END
>  <MODEL>
9

>  <REMARK>
 VINA RESULT:      -9.1      2.746      6.901
  Name = 
  3 active torsions:
  status: ('A' for Active; 'I' for Inactive)
    1  A    between atoms: C_1  and  C_5
    2  A    between atoms: N_6  and  C_23
    3  A    between atoms: C_15  and  C_21
                            x       y       z     vdW  Elec       q    Type
                         _______ _______ _______ _____ _____    ______ ____

>  <TORSDO>
F 3

$$$$
