=
 OpenBabel10272401513D

 28 31  0  0  1  0  0  0  0  0999 V2000
  187.8890  177.1960  145.0070 C   0  0  1  0  0  3  0  0  0  0  0  0
  185.4080  179.1720  147.6820 O   0  0  0  0  0  0  0  0  0  0  0  0
  185.4070  178.8690  142.6150 C   0  0  2  0  0  3  0  0  0  0  0  0
  185.8460  178.5800  145.4200 C   0  0  0  0  0  0  0  0  0  0  0  0
  186.3090  177.9170  143.1920 O   0  0  0  0  0  0  0  0  0  0  0  0
  187.4010  177.9600  147.3310 C   0  0  0  0  0  3  0  0  0  0  0  0
  184.6010  179.1970  144.9240 C   0  0  0  0  0  3  0  0  0  0  0  0
  186.1710  178.6010  146.8580 C   0  0  0  0  0  0  0  0  0  0  0  0
  184.3640  179.2970  143.6160 C   0  0  0  0  0  3  0  0  0  0  0  0
  188.2030  177.3210  146.4780 C   0  0  0  0  0  3  0  0  0  0  0  0
  186.6510  177.9420  144.5510 C   0  0  0  0  0  0  0  0  0  0  0  0
  183.2510  178.4510  141.4100 C   0  0  0  0  0  2  0  0  0  0  0  0
  184.3980  178.9680  138.8670 C   0  0  0  0  0  2  0  0  0  0  0  0
  182.8390  177.0180  139.3570 C   0  0  0  0  0  0  0  0  0  0  0  0
  184.7710  178.3240  141.3330 C   0  0  1  0  0  3  0  0  0  0  0  0
  186.5820  178.6050  139.7690 O   0  0  0  0  0  1  0  0  0  0  0  0
  184.0230  177.5200  138.5690 C   0  0  0  0  0  2  0  0  0  0  0  0
  185.3070  179.0710  140.0950 C   0  0  1  0  0  3  0  0  0  0  0  0
  182.0580  175.9830  138.7750 N   0  0  0  0  0  1  0  0  0  0  0  0
  182.5560  177.3830  140.6160 C   0  0  0  0  0  3  0  0  0  0  0  0
  189.0840  177.5380  144.1670 C   0  0  0  0  0  0  0  0  0  0  0  0
  190.0240  178.4370  144.6780 C   0  0  0  0  0  3  0  0  0  0  0  0
  190.4340  177.3210  142.1700 C   0  0  0  0  0  0  0  0  0  0  0  0
  191.1500  178.7590  143.9200 C   0  0  0  0  0  3  0  0  0  0  0  0
  188.3960  176.0910  142.3780 F   0  0  0  0  0  0  0  0  0  0  0  0
  189.2900  176.9710  142.8970 C   0  0  0  0  0  0  0  0  0  0  0  0
  190.7270  176.6330  140.5830 Cl  0  0  0  0  0  0  0  0  0  0  0  0
  191.3310  178.2000  142.6930 N   0  0  0  0  0  0  0  0  0  0  0  0
  1 21  1  6  0  0  0
  1 10  1  0  0  0  0
  3  5  1  0  0  0  0
  3  9  1  1  0  0  0
  4  8  1  0  0  0  0
  5 11  1  0  0  0  0
  7  4  1  0  0  0  0
  8  6  1  0  0  0  0
  8  2  2  0  0  0  0
  9  7  2  0  0  0  0
 10  6  2  0  0  0  0
 11  1  1  0  0  0  0
 11  4  2  0  0  0  0
 13 18  1  0  0  0  0
 14 20  2  0  0  0  0
 15 12  1  1  0  0  0
 15  3  1  0  0  0  0
 17 13  1  0  0  0  0
 17 14  1  0  0  0  0
 18 16  1  6  0  0  0
 18 15  1  0  0  0  0
 19 14  1  0  0  0  0
 20 12  1  0  0  0  0
 21 22  1  0  0  0  0
 23 28  2  0  0  0  0
 23 26  1  0  0  0  0
 24 22  2  0  0  0  0
 25 26  1  0  0  0  0
 26 21  2  0  0  0  0
 27 23  1  0  0  0  0
 28 24  1  0  0  0  0
M  END
>  <MODEL>
1

>  <REMARK>
 VINA RESULT:     -10.4      0.000      0.000
  Name = 
  2 active torsions:
  status: ('A' for Active; 'I' for Inactive)
    1  A    between atoms: C_1  and  C_2
    2  A    between atoms: C_10  and  C_13
                            x       y       z     vdW  Elec       q    Type
                         _______ _______ _______ _____ _____    ______ ____

>  <TORSDO>
F 2

$$$$
=
 OpenBabel10272401513D

 28 31  0  0  1  0  0  0  0  0999 V2000
  188.8500  176.8360  145.5760 C   0  0  1  0  0  3  0  0  0  0  0  0
  187.6380  178.2150  149.2960 O   0  0  0  0  0  0  0  0  0  0  0  0
  185.8420  179.0040  144.6150 C   0  0  2  0  0  3  0  0  0  0  0  0
  187.2060  178.1180  146.9590 C   0  0  0  0  0  0  0  0  0  0  0  0
  186.8030  177.9420  144.6300 O   0  0  0  0  0  0  0  0  0  0  0  0
  189.2720  177.0890  148.0220 C   0  0  0  0  0  3  0  0  0  0  0  0
  185.9230  178.8370  147.0750 C   0  0  0  0  0  3  0  0  0  0  0  0
  188.0130  177.8270  148.1580 C   0  0  0  0  0  0  0  0  0  0  0  0
  185.2540  179.2170  145.9870 C   0  0  0  0  0  3  0  0  0  0  0  0
  189.6680  176.6400  146.8300 C   0  0  0  0  0  3  0  0  0  0  0  0
  187.5990  177.6720  145.7520 C   0  0  0  0  0  0  0  0  0  0  0  0
  183.5640  179.6760  143.8170 C   0  0  0  0  0  2  0  0  0  0  0  0
  184.2240  179.2340  141.0920 C   0  0  0  0  0  2  0  0  0  0  0  0
  182.0470  178.4770  142.1720 C   0  0  0  0  0  0  0  0  0  0  0  0
  184.7540  178.7520  143.5660 C   0  0  1  0  0  3  0  0  0  0  0  0
  186.0650  177.8600  141.7530 O   0  0  0  0  0  1  0  0  0  0  0  0
  183.1160  178.1870  141.1490 C   0  0  0  0  0  2  0  0  0  0  0  0
  185.3050  178.9640  142.1420 C   0  0  1  0  0  3  0  0  0  0  0  0
  180.7460  177.9640  141.9230 N   0  0  0  0  0  1  0  0  0  0  0  0
  182.2720  179.0660  143.3560 C   0  0  0  0  0  3  0  0  0  0  0  0
  189.7020  177.3390  144.4480 C   0  0  0  0  0  0  0  0  0  0  0  0
  190.5910  178.3860  144.6980 C   0  0  0  0  0  3  0  0  0  0  0  0
  190.4720  177.2850  142.1540 C   0  0  0  0  0  0  0  0  0  0  0  0
  191.4030  178.8610  143.6670 C   0  0  0  0  0  3  0  0  0  0  0  0
  188.7880  175.7560  142.8890 F   0  0  0  0  0  0  0  0  0  0  0  0
  189.6400  176.7780  143.1600 C   0  0  0  0  0  0  0  0  0  0  0  0
  190.4250  176.6100  140.5350 Cl  0  0  0  0  0  0  0  0  0  0  0  0
  191.3280  178.3060  142.4280 N   0  0  0  0  0  0  0  0  0  0  0  0
  1 21  1  6  0  0  0
  1 11  1  0  0  0  0
  1 10  1  0  0  0  0
  3  5  1  0  0  0  0
  3  9  1  1  0  0  0
  4  7  1  0  0  0  0
  4  8  1  0  0  0  0
  5 11  1  0  0  0  0
  6  8  1  0  0  0  0
  8  2  2  0  0  0  0
  9  7  2  0  0  0  0
 10  6  2  0  0  0  0
 11  4  2  0  0  0  0
 13 17  1  0  0  0  0
 13 18  1  0  0  0  0
 14 20  2  0  0  0  0
 15 12  1  1  0  0  0
 15  3  1  0  0  0  0
 17 14  1  0  0  0  0
 18 16  1  6  0  0  0
 18 15  1  0  0  0  0
 19 14  1  0  0  0  0
 20 12  1  0  0  0  0
 21 22  1  0  0  0  0
 23 28  2  0  0  0  0
 23 26  1  0  0  0  0
 24 22  2  0  0  0  0
 25 26  1  0  0  0  0
 26 21  2  0  0  0  0
 27 23  1  0  0  0  0
 28 24  1  0  0  0  0
M  END
>  <MODEL>
2

>  <REMARK>
 VINA RESULT:      -9.6      1.492      2.091
  Name = 
  2 active torsions:
  status: ('A' for Active; 'I' for Inactive)
    1  A    between atoms: C_1  and  C_2
    2  A    between atoms: C_10  and  C_13
                            x       y       z     vdW  Elec       q    Type
                         _______ _______ _______ _____ _____    ______ ____

>  <TORSDO>
F 2

$$$$
=
 OpenBabel10272401513D

 28 31  0  0  1  0  0  0  0  0999 V2000
  187.5250  177.1760  144.7350 C   0  0  1  0  0  3  0  0  0  0  0  0
  184.1430  179.5580  144.4250 O   0  0  0  0  0  0  0  0  0  0  0  0
  187.7470  178.3010  141.0800 C   0  0  2  0  0  3  0  0  0  0  0  0
  185.9970  178.5600  143.3180 C   0  0  0  0  0  0  0  0  0  0  0  0
  187.8350  177.4990  142.2630 O   0  0  0  0  0  0  0  0  0  0  0  0
  185.6130  178.3530  145.8210 C   0  0  0  0  0  3  0  0  0  0  0  0
  185.5750  179.0400  141.9880 C   0  0  0  0  0  3  0  0  0  0  0  0
  185.1880  178.8610  144.5140 C   0  0  0  0  0  0  0  0  0  0  0  0
  186.3660  178.8840  140.9260 C   0  0  0  0  0  3  0  0  0  0  0  0
  186.6970  177.5850  145.9300 C   0  0  0  0  0  3  0  0  0  0  0  0
  187.0950  177.7890  143.4180 C   0  0  0  0  0  0  0  0  0  0  0  0
  187.4460  178.0470  138.6060 C   0  0  0  0  0  2  0  0  0  0  0  0
  190.1450  177.2650  138.2070 C   0  0  0  0  0  2  0  0  0  0  0  0
  188.1530  176.1160  137.1180 C   0  0  0  0  0  0  0  0  0  0  0  0
  188.1680  177.5070  139.8390 C   0  0  1  0  0  3  0  0  0  0  0  0
  190.3330  176.7040  140.5230 O   0  0  0  0  0  1  0  0  0  0  0  0
  189.5360  175.9630  137.6980 C   0  0  0  0  0  2  0  0  0  0  0  0
  189.6950  177.5740  139.6380 C   0  0  1  0  0  3  0  0  0  0  0  0
  187.7530  175.1830  136.1230 N   0  0  0  0  0  1  0  0  0  0  0  0
  187.2340  176.9830  137.5690 C   0  0  0  0  0  3  0  0  0  0  0  0
  188.9880  177.3830  144.9940 C   0  0  0  0  0  0  0  0  0  0  0  0
  189.7360  178.1070  144.0620 C   0  0  0  0  0  3  0  0  0  0  0  0
  190.9850  177.1260  146.3380 C   0  0  0  0  0  0  0  0  0  0  0  0
  191.0960  178.3230  144.2900 C   0  0  0  0  0  3  0  0  0  0  0  0
  188.9160  176.1830  147.0740 F   0  0  0  0  0  0  0  0  0  0  0  0
  189.6180  176.8860  146.1480 C   0  0  0  0  0  0  0  0  0  0  0  0
  191.8060  176.5230  147.7660 Cl  0  0  0  0  0  0  0  0  0  0  0  0
  191.6870  177.8330  145.4120 N   0  0  0  0  0  0  0  0  0  0  0  0
  1 21  1  1  0  0  0
  1 10  1  0  0  0  0
  2  8  2  0  0  0  0
  3  9  1  6  0  0  0
  3  5  1  0  0  0  0
  4 11  2  0  0  0  0
  4  8  1  0  0  0  0
  5 11  1  0  0  0  0
  6 10  2  0  0  0  0
  7  4  1  0  0  0  0
  8  6  1  0  0  0  0
  9  7  2  0  0  0  0
 11  1  1  0  0  0  0
 13 18  1  0  0  0  0
 14 20  2  0  0  0  0
 14 17  1  0  0  0  0
 15 12  1  6  0  0  0
 15  3  1  0  0  0  0
 17 13  1  0  0  0  0
 18 15  1  0  0  0  0
 18 16  1  1  0  0  0
 19 14  1  0  0  0  0
 20 12  1  0  0  0  0
 21 26  1  0  0  0  0
 22 24  1  0  0  0  0
 22 21  2  0  0  0  0
 23 27  1  0  0  0  0
 24 28  2  0  0  0  0
 26 23  2  0  0  0  0
 26 25  1  0  0  0  0
 28 23  1  0  0  0  0
M  END
>  <MODEL>
3

>  <REMARK>
 VINA RESULT:      -9.4      3.132      3.937
  Name = 
  2 active torsions:
  status: ('A' for Active; 'I' for Inactive)
    1  A    between atoms: C_1  and  C_2
    2  A    between atoms: C_10  and  C_13
                            x       y       z     vdW  Elec       q    Type
                         _______ _______ _______ _____ _____    ______ ____

>  <TORSDO>
F 2

$$$$
=
 OpenBabel10272401513D

 28 31  0  0  1  0  0  0  0  0999 V2000
  187.9340  177.1740  144.4500 C   0  0  1  0  0  3  0  0  0  0  0  0
  184.7260  178.8640  146.4660 O   0  0  0  0  0  0  0  0  0  0  0  0
  186.0210  178.8010  141.5580 C   0  0  2  0  0  3  0  0  0  0  0  0
  185.7590  178.4080  144.3720 C   0  0  0  0  0  0  0  0  0  0  0  0
  186.8140  177.8800  142.3160 O   0  0  0  0  0  0  0  0  0  0  0  0
  186.8240  177.7960  146.5960 C   0  0  0  0  0  3  0  0  0  0  0  0
  184.6380  178.9690  143.5950 C   0  0  0  0  0  3  0  0  0  0  0  0
  185.7100  178.3800  145.8450 C   0  0  0  0  0  0  0  0  0  0  0  0
  184.7310  179.1160  142.2730 C   0  0  0  0  0  3  0  0  0  0  0  0
  187.8580  177.2480  145.9570 C   0  0  0  0  0  3  0  0  0  0  0  0
  186.8010  177.8620  143.7180 C   0  0  0  0  0  0  0  0  0  0  0  0
  184.5570  178.9840  139.5330 C   0  0  0  0  0  2  0  0  0  0  0  0
  186.7060  178.4800  137.7490 C   0  0  0  0  0  2  0  0  0  0  0  0
  184.4040  177.4130  137.5460 C   0  0  0  0  0  0  0  0  0  0  0  0
  185.7690  178.2790  140.1400 C   0  0  1  0  0  3  0  0  0  0  0  0
  187.9720  177.5190  139.5340 O   0  0  0  0  0  1  0  0  0  0  0  0
  185.8910  177.2530  137.3520 C   0  0  0  0  0  2  0  0  0  0  0  0
  187.0100  178.4890  139.2500 C   0  0  1  0  0  3  0  0  0  0  0  0
  183.5490  176.6520  136.7040 N   0  0  0  0  0  1  0  0  0  0  0  0
  183.8410  178.1150  138.5400 C   0  0  0  0  0  3  0  0  0  0  0  0
  189.2750  177.6290  143.9530 C   0  0  0  0  0  0  0  0  0  0  0  0
  189.9990  178.5400  144.7240 C   0  0  0  0  0  3  0  0  0  0  0  0
  191.0860  177.6060  142.3480 C   0  0  0  0  0  0  0  0  0  0  0  0
  191.2540  178.9660  144.2870 C   0  0  0  0  0  3  0  0  0  0  0  0
  189.1440  176.2620  141.9810 F   0  0  0  0  0  0  0  0  0  0  0  0
  189.8240  177.1530  142.7490 C   0  0  0  0  0  0  0  0  0  0  0  0
  191.8050  177.0340  140.8530 Cl  0  0  0  0  0  0  0  0  0  0  0  0
  191.7670  178.4950  143.1190 N   0  0  0  0  0  0  0  0  0  0  0  0
  1 21  1  6  0  0  0
  1 10  1  0  0  0  0
  3  9  1  1  0  0  0
  3  5  1  0  0  0  0
  4  8  1  0  0  0  0
  5 11  1  0  0  0  0
  7  4  1  0  0  0  0
  8  2  2  0  0  0  0
  8  6  1  0  0  0  0
  9  7  2  0  0  0  0
 10  6  2  0  0  0  0
 11  4  2  0  0  0  0
 11  1  1  0  0  0  0
 13 18  1  0  0  0  0
 14 20  2  0  0  0  0
 15 12  1  6  0  0  0
 15  3  1  0  0  0  0
 17 14  1  0  0  0  0
 17 13  1  0  0  0  0
 18 16  1  6  0  0  0
 18 15  1  0  0  0  0
 19 14  1  0  0  0  0
 20 12  1  0  0  0  0
 21 22  1  0  0  0  0
 23 26  1  0  0  0  0
 23 28  2  0  0  0  0
 24 22  2  0  0  0  0
 25 26  1  0  0  0  0
 26 21  2  0  0  0  0
 27 23  1  0  0  0  0
 28 24  1  0  0  0  0
M  END
>  <MODEL>
4

>  <REMARK>
 VINA RESULT:      -8.9      1.219      1.501
  Name = 
  2 active torsions:
  status: ('A' for Active; 'I' for Inactive)
    1  A    between atoms: C_1  and  C_2
    2  A    between atoms: C_10  and  C_13
                            x       y       z     vdW  Elec       q    Type
                         _______ _______ _______ _____ _____    ______ ____

>  <TORSDO>
F 2

$$$$
=
 OpenBabel10272401513D

 28 31  0  0  1  0  0  0  0  0999 V2000
  184.5890  179.1700  142.6760 C   0  0  1  0  0  3  0  0  0  0  0  0
  184.4320  178.3830  146.7470 O   0  0  0  0  0  0  0  0  0  0  0  0
  187.6540  176.9140  143.1100 C   0  0  2  0  0  3  0  0  0  0  0  0
  185.6230  178.1300  144.7030 C   0  0  0  0  0  0  0  0  0  0  0  0
  186.7870  177.9550  142.6450 O   0  0  0  0  0  0  0  0  0  0  0  0
  183.3650  179.2860  144.8470 C   0  0  0  0  0  3  0  0  0  0  0  0
  186.7630  177.4500  145.3480 C   0  0  0  0  0  3  0  0  0  0  0  0
  184.4750  178.5910  145.5050 C   0  0  0  0  0  0  0  0  0  0  0  0
  187.7410  176.9170  144.6150 C   0  0  0  0  0  3  0  0  0  0  0  0
  183.4080  179.5440  143.5390 C   0  0  0  0  0  3  0  0  0  0  0  0
  185.6740  178.3830  143.3820 C   0  0  0  0  0  0  0  0  0  0  0  0
  188.9750  177.9210  141.2350 C   0  0  0  0  0  2  0  0  0  0  0  0
  191.3210  178.1570  142.8150 C   0  0  0  0  0  2  0  0  0  0  0  0
  191.2960  177.2940  140.4210 C   0  0  0  0  0  0  0  0  0  0  0  0
  189.0390  177.0150  142.4630 C   0  0  1  0  0  3  0  0  0  0  0  0
  190.4600  176.5390  144.3490 O   0  0  0  0  0  1  0  0  0  0  0  0
  191.9280  177.2080  141.7870 C   0  0  0  0  0  2  0  0  0  0  0  0
  190.0760  177.5530  143.4700 C   0  0  1  0  0  3  0  0  0  0  0  0
  192.1040  176.9520  139.3030 N   0  0  0  0  0  1  0  0  0  0  0  0
  189.9960  177.5400  140.2020 C   0  0  0  0  0  3  0  0  0  0  0  0
  184.1430  178.4920  141.4140 C   0  0  0  0  0  0  0  0  0  0  0  0
  182.9320  177.7970  141.4210 C   0  0  0  0  0  3  0  0  0  0  0  0
  184.4190  177.9090  139.0810 C   0  0  0  0  0  0  0  0  0  0  0  0
  182.4910  177.1700  140.2540 C   0  0  0  0  0  3  0  0  0  0  0  0
  186.0770  179.2250  140.1910 F   0  0  0  0  0  0  0  0  0  0  0  0
  184.8980  178.5520  140.2290 C   0  0  0  0  0  0  0  0  0  0  0  0
  185.3310  177.9620  137.5840 Cl  0  0  0  0  0  0  0  0  0  0  0  0
  183.2360  177.2390  139.1190 N   0  0  0  0  0  0  0  0  0  0  0  0
  1 21  1  6  0  0  0
  1 11  1  0  0  0  0
  1 10  1  0  0  0  0
  3  9  1  1  0  0  0
  4  7  1  0  0  0  0
  4  8  1  0  0  0  0
  5  3  1  0  0  0  0
  5 11  1  0  0  0  0
  6  8  1  0  0  0  0
  8  2  2  0  0  0  0
  9  7  2  0  0  0  0
 10  6  2  0  0  0  0
 11  4  2  0  0  0  0
 13 18  1  0  0  0  0
 14 17  1  0  0  0  0
 15 12  1  6  0  0  0
 15  3  1  0  0  0  0
 15 18  1  0  0  0  0
 17 13  1  0  0  0  0
 18 16  1  1  0  0  0
 19 14  1  0  0  0  0
 20 14  2  0  0  0  0
 20 12  1  0  0  0  0
 21 22  1  0  0  0  0
 23 28  2  0  0  0  0
 23 26  1  0  0  0  0
 24 22  2  0  0  0  0
 25 26  1  0  0  0  0
 26 21  2  0  0  0  0
 27 23  1  0  0  0  0
 28 24  1  0  0  0  0
M  END
>  <MODEL>
5

>  <REMARK>
 VINA RESULT:      -8.8      2.143      6.050
  Name = 
  2 active torsions:
  status: ('A' for Active; 'I' for Inactive)
    1  A    between atoms: C_1  and  C_2
    2  A    between atoms: C_10  and  C_13
                            x       y       z     vdW  Elec       q    Type
                         _______ _______ _______ _____ _____    ______ ____

>  <TORSDO>
F 2

$$$$
=
 OpenBabel10272401513D

 28 31  0  0  1  0  0  0  0  0999 V2000
  188.2310  177.1440  142.7800 C   0  0  1  0  0  3  0  0  0  0  0  0
  185.5890  179.4030  140.5160 O   0  0  0  0  0  0  0  0  0  0  0  0
  190.2180  177.5680  139.5330 C   0  0  2  0  0  3  0  0  0  0  0  0
  187.6560  178.2290  140.6000 C   0  0  0  0  0  0  0  0  0  0  0  0
  189.6800  177.0020  140.7330 O   0  0  0  0  0  0  0  0  0  0  0  0
  186.1370  178.4910  142.6200 C   0  0  0  0  0  3  0  0  0  0  0  0
  187.9420  178.4480  139.1700 C   0  0  0  0  0  3  0  0  0  0  0  0
  186.4120  178.7420  141.2030 C   0  0  0  0  0  0  0  0  0  0  0  0
  189.1200  178.1020  138.6490 C   0  0  0  0  0  3  0  0  0  0  0  0
  186.9800  177.7640  143.3550 C   0  0  0  0  0  3  0  0  0  0  0  0
  188.5140  177.4980  141.3340 C   0  0  0  0  0  0  0  0  0  0  0  0
  190.4980  176.2480  137.4220 C   0  0  0  0  0  2  0  0  0  0  0  0
  193.3290  176.4300  137.5060 C   0  0  0  0  0  2  0  0  0  0  0  0
  192.0540  174.2930  136.9750 C   0  0  0  0  0  0  0  0  0  0  0  0
  191.1000  176.5590  138.7910 C   0  0  1  0  0  3  0  0  0  0  0  0
  193.2340  176.9630  139.8340 O   0  0  0  0  0  1  0  0  0  0  0  0
  193.2750  174.9100  137.6100 C   0  0  0  0  0  2  0  0  0  0  0  0
  192.5360  177.0990  138.6330 C   0  0  1  0  0  3  0  0  0  0  0  0
  192.1710  172.9640  136.4870 N   0  0  0  0  0  1  0  0  0  0  0  0
  190.8390  174.8600  136.9610 C   0  0  0  0  0  3  0  0  0  0  0  0
  189.4180  177.4070  143.6600 C   0  0  0  0  0  0  0  0  0  0  0  0
  190.5440  178.0130  143.0990 C   0  0  0  0  0  3  0  0  0  0  0  0
  190.5550  177.3600  145.7960 C   0  0  0  0  0  0  0  0  0  0  0  0
  191.6540  178.2780  143.9020 C   0  0  0  0  0  3  0  0  0  0  0  0
  188.3370  176.4900  145.6000 F   0  0  0  0  0  0  0  0  0  0  0  0
  189.4200  177.0760  145.0270 C   0  0  0  0  0  0  0  0  0  0  0  0
  190.5940  176.9640  147.5050 Cl  0  0  0  0  0  0  0  0  0  0  0  0
  191.6370  177.9500  145.2220 N   0  0  0  0  0  0  0  0  0  0  0  0
  1 10  1  0  0  0  0
  1 21  1  1  0  0  0
  2  8  2  0  0  0  0
  3  9  1  6  0  0  0
  3  5  1  0  0  0  0
  4  8  1  0  0  0  0
  4 11  2  0  0  0  0
  5 11  1  0  0  0  0
  6 10  2  0  0  0  0
  7  4  1  0  0  0  0
  8  6  1  0  0  0  0
  9  7  2  0  0  0  0
 11  1  1  0  0  0  0
 13 17  1  0  0  0  0
 13 18  1  0  0  0  0
 14 17  1  0  0  0  0
 15 12  1  6  0  0  0
 15  3  1  0  0  0  0
 18 15  1  0  0  0  0
 18 16  1  1  0  0  0
 19 14  1  0  0  0  0
 20 14  2  0  0  0  0
 20 12  1  0  0  0  0
 21 26  1  0  0  0  0
 22 21  2  0  0  0  0
 22 24  1  0  0  0  0
 23 27  1  0  0  0  0
 24 28  2  0  0  0  0
 26 25  1  0  0  0  0
 26 23  2  0  0  0  0
 28 23  1  0  0  0  0
M  END
>  <MODEL>
6

>  <REMARK>
 VINA RESULT:      -8.3      3.949      6.296
  Name = 
  2 active torsions:
  status: ('A' for Active; 'I' for Inactive)
    1  A    between atoms: C_1  and  C_2
    2  A    between atoms: C_10  and  C_13
                            x       y       z     vdW  Elec       q    Type
                         _______ _______ _______ _____ _____    ______ ____

>  <TORSDO>
F 2

$$$$
=
 OpenBabel10272401513D

 28 31  0  0  1  0  0  0  0  0999 V2000
  185.7290  179.3900  145.0190 C   0  0  1  0  0  3  0  0  0  0  0  0
  187.7180  177.6520  148.2190 O   0  0  0  0  0  0  0  0  0  0  0  0
  187.9770  176.8700  143.2100 C   0  0  2  0  0  3  0  0  0  0  0  0
  187.4820  177.8140  145.8570 C   0  0  0  0  0  0  0  0  0  0  0  0
  187.2320  178.0560  143.5120 O   0  0  0  0  0  0  0  0  0  0  0  0
  185.9820  179.0670  147.4800 C   0  0  0  0  0  3  0  0  0  0  0  0
  188.6200  176.9130  145.5920 C   0  0  0  0  0  3  0  0  0  0  0  0
  187.1000  178.1510  147.2410 C   0  0  0  0  0  0  0  0  0  0  0  0
  188.8890  176.5010  144.3520 C   0  0  0  0  0  3  0  0  0  0  0  0
  185.3380  179.6320  146.4580 C   0  0  0  0  0  3  0  0  0  0  0  0
  186.8360  178.3750  144.8190 C   0  0  0  0  0  0  0  0  0  0  0  0
  188.5140  178.4120  141.3090 C   0  0  0  0  0  2  0  0  0  0  0  0
  191.1460  177.3890  141.0270 C   0  0  0  0  0  2  0  0  0  0  0  0
  189.5810  177.8540  139.0750 C   0  0  0  0  0  0  0  0  0  0  0  0
  188.7490  177.0210  141.8960 C   0  0  1  0  0  3  0  0  0  0  0  0
  190.5150  175.4140  142.2170 O   0  0  0  0  0  1  0  0  0  0  0  0
  190.6780  176.9840  139.6330 C   0  0  0  0  0  2  0  0  0  0  0  0
  190.2560  176.7820  142.1160 C   0  0  1  0  0  3  0  0  0  0  0  0
  189.4920  177.9700  137.6610 N   0  0  0  0  0  1  0  0  0  0  0  0
  188.6080  178.4130  139.8110 C   0  0  0  0  0  3  0  0  0  0  0  0
  184.5270  179.0750  144.1780 C   0  0  0  0  0  0  0  0  0  0  0  0
  183.3440  178.6980  144.8180 C   0  0  0  0  0  3  0  0  0  0  0  0
  183.3950  178.8700  142.0480 C   0  0  0  0  0  0  0  0  0  0  0  0
  182.2100  178.4140  144.0550 C   0  0  0  0  0  3  0  0  0  0  0  0
  185.6900  179.5330  142.1260 F   0  0  0  0  0  0  0  0  0  0  0  0
  184.5550  179.1640  142.7750 C   0  0  0  0  0  0  0  0  0  0  0  0
  183.3900  178.9720  140.2970 Cl  0  0  0  0  0  0  0  0  0  0  0  0
  182.2580  178.5050  142.6990 N   0  0  0  0  0  0  0  0  0  0  0  0
  1 21  1  6  0  0  0
  1 10  1  0  0  0  0
  3  5  1  0  0  0  0
  3  9  1  1  0  0  0
  4  8  1  0  0  0  0
  5 11  1  0  0  0  0
  7  4  1  0  0  0  0
  8  6  1  0  0  0  0
  8  2  2  0  0  0  0
  9  7  2  0  0  0  0
 10  6  2  0  0  0  0
 11  1  1  0  0  0  0
 11  4  2  0  0  0  0
 13 18  1  0  0  0  0
 14 17  1  0  0  0  0
 14 20  2  0  0  0  0
 15 12  1  1  0  0  0
 15 18  1  0  0  0  0
 15  3  1  0  0  0  0
 17 13  1  0  0  0  0
 18 16  1  6  0  0  0
 19 14  1  0  0  0  0
 20 12  1  0  0  0  0
 21 22  1  0  0  0  0
 23 28  2  0  0  0  0
 23 26  1  0  0  0  0
 24 22  2  0  0  0  0
 25 26  1  0  0  0  0
 26 21  2  0  0  0  0
 27 23  1  0  0  0  0
 28 24  1  0  0  0  0
M  END
>  <MODEL>
7

>  <REMARK>
 VINA RESULT:      -8.3      2.845      5.491
  Name = 
  2 active torsions:
  status: ('A' for Active; 'I' for Inactive)
    1  A    between atoms: C_1  and  C_2
    2  A    between atoms: C_10  and  C_13
                            x       y       z     vdW  Elec       q    Type
                         _______ _______ _______ _____ _____    ______ ____

>  <TORSDO>
F 2

$$$$
=
 OpenBabel10272401513D

 28 31  0  0  1  0  0  0  0  0999 V2000
  187.3790  177.0000  143.7070 C   0  0  1  0  0  3  0  0  0  0  0  0
  185.8470  178.9010  147.0610 O   0  0  0  0  0  0  0  0  0  0  0  0
  184.4490  178.9390  142.1820 C   0  0  2  0  0  3  0  0  0  0  0  0
  185.6150  178.4430  144.7380 C   0  0  0  0  0  0  0  0  0  0  0  0
  185.4120  177.9110  142.4370 O   0  0  0  0  0  0  0  0  0  0  0  0
  187.5900  177.6270  146.1120 C   0  0  0  0  0  3  0  0  0  0  0  0
  184.3220  179.1470  144.6370 C   0  0  0  0  0  3  0  0  0  0  0  0
  186.3200  178.3530  146.0300 C   0  0  0  0  0  0  0  0  0  0  0  0
  183.7450  179.3450  143.4520 C   0  0  0  0  0  3  0  0  0  0  0  0
  188.0890  177.0120  145.0400 C   0  0  0  0  0  3  0  0  0  0  0  0
  186.1120  177.8290  143.6490 C   0  0  0  0  0  0  0  0  0  0  0  0
  182.0240  178.7410  141.5810 C   0  0  0  0  0  2  0  0  0  0  0  0
  182.5030  179.3110  138.8420 C   0  0  0  0  0  2  0  0  0  0  0  0
  180.9710  177.4530  139.6640 C   0  0  0  0  0  0  0  0  0  0  0  0
  183.4550  178.5110  141.0980 C   0  0  1  0  0  3  0  0  0  0  0  0
  184.8090  178.7460  139.1190 O   0  0  0  0  0  1  0  0  0  0  0  0
  181.9440  177.9120  138.6080 C   0  0  0  0  0  2  0  0  0  0  0  0
  183.7070  179.2830  139.7870 C   0  0  1  0  0  3  0  0  0  0  0  0
  179.9820  176.5090  139.2770 N   0  0  0  0  0  1  0  0  0  0  0  0
  181.0600  177.7690  140.9650 C   0  0  0  0  0  3  0  0  0  0  0  0
  188.3200  177.3440  142.5900 C   0  0  0  0  0  0  0  0  0  0  0  0
  187.8230  178.0440  141.4890 C   0  0  0  0  0  3  0  0  0  0  0  0
  190.5110  177.3600  141.5610 C   0  0  0  0  0  0  0  0  0  0  0  0
  188.6830  178.3860  140.4440 C   0  0  0  0  0  3  0  0  0  0  0  0
  190.1950  176.3210  143.6900 F   0  0  0  0  0  0  0  0  0  0  0  0
  189.6830  176.9970  142.6300 C   0  0  0  0  0  0  0  0  0  0  0  0
  192.2160  176.9470  141.5750 Cl  0  0  0  0  0  0  0  0  0  0  0  0
  189.9970  178.0400  140.5020 N   0  0  0  0  0  0  0  0  0  0  0  0
  1 21  1  6  0  0  0
  1 10  1  0  0  0  0
  3  5  1  0  0  0  0
  3  9  1  1  0  0  0
  4  8  1  0  0  0  0
  5 11  1  0  0  0  0
  7  4  1  0  0  0  0
  8  6  1  0  0  0  0
  8  2  2  0  0  0  0
  9  7  2  0  0  0  0
 10  6  2  0  0  0  0
 11  1  1  0  0  0  0
 11  4  2  0  0  0  0
 13 18  1  0  0  0  0
 14 20  2  0  0  0  0
 15 12  1  1  0  0  0
 15  3  1  0  0  0  0
 17 13  1  0  0  0  0
 17 14  1  0  0  0  0
 18 16  1  6  0  0  0
 18 15  1  0  0  0  0
 19 14  1  0  0  0  0
 20 12  1  0  0  0  0
 21 26  1  0  0  0  0
 22 21  2  0  0  0  0
 23 27  1  0  0  0  0
 23 26  2  0  0  0  0
 24 28  2  0  0  0  0
 24 22  1  0  0  0  0
 26 25  1  0  0  0  0
 28 23  1  0  0  0  0
M  END
>  <MODEL>
8

>  <REMARK>
 VINA RESULT:      -8.1      1.484      1.823
  Name = 
  2 active torsions:
  status: ('A' for Active; 'I' for Inactive)
    1  A    between atoms: C_1  and  C_2
    2  A    between atoms: C_10  and  C_13
                            x       y       z     vdW  Elec       q    Type
                         _______ _______ _______ _____ _____    ______ ____

>  <TORSDO>
F 2

$$$$
=
 OpenBabel10272401513D

 28 31  0  0  1  0  0  0  0  0999 V2000
  187.6890  177.0700  144.3570 C   0  0  1  0  0  3  0  0  0  0  0  0
  184.1110  179.1460  144.0390 O   0  0  0  0  0  0  0  0  0  0  0  0
  187.9970  178.5350  140.8320 C   0  0  2  0  0  3  0  0  0  0  0  0
  186.1110  178.4280  142.9700 C   0  0  0  0  0  0  0  0  0  0  0  0
  188.0990  177.6410  141.9460 O   0  0  0  0  0  0  0  0  0  0  0  0
  185.6150  177.9620  145.4180 C   0  0  0  0  0  3  0  0  0  0  0  0
  185.7170  178.9840  141.6610 C   0  0  0  0  0  3  0  0  0  0  0  0
  185.2140  178.5440  144.1340 C   0  0  0  0  0  0  0  0  0  0  0  0
  186.5750  178.9990  140.6410 C   0  0  0  0  0  3  0  0  0  0  0  0
  186.7620  177.2920  145.5280 C   0  0  0  0  0  3  0  0  0  0  0  0
  187.2730  177.7570  143.0730 C   0  0  0  0  0  0  0  0  0  0  0  0
  189.3250  176.6230  139.9050 C   0  0  0  0  0  2  0  0  0  0  0  0
  187.8000  176.5260  137.5140 C   0  0  0  0  0  2  0  0  0  0  0  0
  190.3390  176.3760  137.5910 C   0  0  0  0  0  0  0  0  0  0  0  0
  188.5600  177.8990  139.5570 C   0  0  1  0  0  3  0  0  0  0  0  0
  187.0310  178.7560  137.9040 O   0  0  0  0  0  1  0  0  0  0  0  0
  189.1250  176.8490  136.8320 C   0  0  0  0  0  2  0  0  0  0  0  0
  187.4300  177.5870  138.5550 C   0  0  1  0  0  3  0  0  0  0  0  0
  191.5060  176.0780  136.8380 N   0  0  0  0  0  1  0  0  0  0  0  0
  190.4320  176.3480  138.9290 C   0  0  0  0  0  3  0  0  0  0  0  0
  189.1090  177.3890  144.7240 C   0  0  0  0  0  0  0  0  0  0  0  0
  189.8790  178.1340  143.8280 C   0  0  0  0  0  3  0  0  0  0  0  0
  191.0020  177.3150  146.2300 C   0  0  0  0  0  0  0  0  0  0  0  0
  191.1980  178.4540  144.1550 C   0  0  0  0  0  3  0  0  0  0  0  0
  188.9490  176.2510  146.8340 F   0  0  0  0  0  0  0  0  0  0  0  0
  189.6750  176.9730  145.9420 C   0  0  0  0  0  0  0  0  0  0  0  0
  191.7430  176.8170  147.7400 Cl  0  0  0  0  0  0  0  0  0  0  0  0
  191.7270  178.0410  145.3380 N   0  0  0  0  0  0  0  0  0  0  0  0
  1 21  1  1  0  0  0
  1 10  1  0  0  0  0
  2  8  2  0  0  0  0
  3  9  1  6  0  0  0
  3  5  1  0  0  0  0
  4 11  2  0  0  0  0
  4  8  1  0  0  0  0
  5 11  1  0  0  0  0
  6 10  2  0  0  0  0
  7  4  1  0  0  0  0
  8  6  1  0  0  0  0
  9  7  2  0  0  0  0
 11  1  1  0  0  0  0
 13 18  1  0  0  0  0
 14 20  2  0  0  0  0
 15 12  1  1  0  0  0
 15  3  1  0  0  0  0
 17 13  1  0  0  0  0
 17 14  1  0  0  0  0
 18 16  1  6  0  0  0
 18 15  1  0  0  0  0
 19 14  1  0  0  0  0
 20 12  1  0  0  0  0
 21 26  1  0  0  0  0
 22 24  1  0  0  0  0
 22 21  2  0  0  0  0
 23 27  1  0  0  0  0
 24 28  2  0  0  0  0
 26 23  2  0  0  0  0
 26 25  1  0  0  0  0
 28 23  1  0  0  0  0
M  END
>  <MODEL>
9

>  <REMARK>
 VINA RESULT:      -8.1      3.161      4.353
  Name = 
  2 active torsions:
  status: ('A' for Active; 'I' for Inactive)
    1  A    between atoms: C_1  and  C_2
    2  A    between atoms: C_10  and  C_13
                            x       y       z     vdW  Elec       q    Type
                         _______ _______ _______ _____ _____    ______ ____

>  <TORSDO>
F 2

$$$$
