=
 OpenBabel10272414233D

 43 48  0  0  1  0  0  0  0  0999 V2000
  187.8550  178.3600  141.7440 C   0  0  1  0  0  3  0  0  0  0  0  0
  181.4640  179.3680  141.0060 C   0  0  2  0  0  3  0  0  0  0  0  0
  186.4140  178.4960  141.3310 C   0  0  0  0  0  0  0  0  0  0  0  0
  183.8090  178.8000  140.3980 C   0  0  0  0  0  0  0  0  0  0  0  0
  181.6400  178.4890  142.1600 N   0  0  0  0  0  2  0  0  0  0  0  0
  180.0340  179.2850  140.5180 C   0  0  0  0  0  1  0  0  0  0  0  0
  184.0340  178.6290  141.7690 C   0  0  0  0  0  0  0  0  0  0  0  0
  182.4100  178.9440  139.8820 C   0  0  0  0  0  2  0  0  0  0  0  0
  182.9350  178.6270  142.6370 O   0  0  0  0  0  0  0  0  0  0  0  0
  185.5690  178.3500  143.7250 C   0  0  0  0  0  1  0  0  0  0  0  0
  185.3420  178.4930  142.2540 C   0  0  0  0  0  0  0  0  0  0  0  0
  186.1530  178.6480  140.0030 N   0  0  0  0  0  0  0  0  0  0  0  0
  184.8910  178.7970  139.5230 C   0  0  0  0  0  3  0  0  0  0  0  0
  188.2160  176.9000  142.0170 C   0  0  0  0  0  2  0  0  0  0  0  0
  189.8120  177.7150  145.4380 C   0  0  0  0  0  2  0  0  0  0  0  0
  191.1000  176.9340  145.2780 C   0  0  0  0  0  0  0  0  0  0  0  0
  190.4880  176.2740  142.9440 C   0  0  0  0  0  2  0  0  0  0  0  0
  189.1060  177.9930  144.1130 C   0  0  0  0  0  2  0  0  0  0  0  0
  189.0640  176.7180  143.2770 C   0  0  1  0  0  3  0  0  0  0  0  0
  191.3650  176.2430  144.1640 C   0  0  0  0  0  3  0  0  0  0  0  0
  192.0200  176.8650  146.3270 O   0  0  0  0  0  0  0  0  0  0  0  0
  192.1490  175.7160  147.1530 C   0  0  0  0  0  1  0  0  0  0  0  0
  188.8210  178.9960  140.7480 C   0  0  0  0  0  2  0  0  0  0  0  0
  188.9510  179.4840  137.9270 O   0  0  0  0  0  0  0  0  0  0  0  0
  189.2440  178.3290  138.3350 C   0  0  0  0  0  0  0  0  0  0  0  0
  189.2290  178.0310  139.7370 N   0  0  0  0  0  2  0  0  0  0  0  0
  188.4730  176.3110  137.0940 C   0  0  2  0  0  3  0  0  0  0  0  0
  190.4170  176.1680  138.0000 C   0  0  0  0  0  2  0  0  0  0  0  0
  189.6240  177.2770  137.3350 C   0  0  2  0  0  3  0  0  0  0  0  0
  189.2790  175.1990  137.7430 C   0  0  0  0  0  2  0  0  0  0  0  0
  188.2630  176.0330  135.6020 C   0  0  2  0  0  3  0  0  0  0  0  0
  185.9250  177.5690  134.5600 C   0  0  0  0  0  2  0  0  0  0  0  0
  185.7620  176.2650  135.2080 N   0  0  0  0  0  0  0  0  0  0  0  0
  188.3900  177.3220  134.7810 C   0  0  0  0  0  2  0  0  0  0  0  0
  186.9060  175.4200  135.3980 C   0  0  0  0  0  0  0  0  0  0  0  0
  186.7660  174.1720  135.4910 O   0  0  0  0  0  0  0  0  0  0  0  0
  187.2040  178.2520  135.0260 C   0  0  0  0  0  2  0  0  0  0  0  0
  184.5060  175.9180  135.8680 C   0  0  0  0  0  3  0  0  0  0  0  0
  182.3300  177.0970  136.5450 C   0  0  0  0  0  2  0  0  0  0  0  0
  183.4150  175.4100  138.0920 C   0  0  0  0  0  2  0  0  0  0  0  0
  182.1230  175.8340  137.3770 C   0  0  0  0  0  2  0  0  0  0  0  0
  184.6930  175.8770  137.3850 C   0  0  0  0  0  2  0  0  0  0  0  0
  183.3690  176.8620  135.4420 C   0  0  0  0  0  2  0  0  0  0  0  0
  1 23  1  6  0  0  0
  1 14  1  0  0  0  0
  2  6  1  6  0  0  0
  2  5  1  0  0  0  0
  3  1  1  0  0  0  0
  3 11  1  0  0  0  0
  4  7  1  0  0  0  0
  5  9  1  0  0  0  0
  7 11  2  0  0  0  0
  7  9  1  0  0  0  0
  8  4  1  0  0  0  0
  8  2  1  0  0  0  0
 11 10  1  0  0  0  0
 12  3  2  0  0  0  0
 13 12  1  0  0  0  0
 13  4  2  0  0  0  0
 16 15  1  0  0  0  0
 16 21  1  0  0  0  0
 17 19  1  0  0  0  0
 17 20  1  0  0  0  0
 18 15  1  0  0  0  0
 19 14  1  6  0  0  0
 19 18  1  0  0  0  0
 20 16  2  0  0  0  0
 21 22  1  0  0  0  0
 24 25  2  0  0  0  0
 25 26  1  0  0  0  0
 26 23  1  0  0  0  0
 27 29  1  0  0  0  0
 27 30  1  1  0  0  0
 29 28  1  0  0  0  0
 29 25  1  1  0  0  0
 30 28  1  0  0  0  0
 31 34  1  6  0  0  0
 31 27  1  0  0  0  0
 32 37  1  0  0  0  0
 32 33  1  0  0  0  0
 33 35  1  0  0  0  0
 33 38  1  0  0  0  0
 34 37  1  0  0  0  0
 35 36  2  0  0  0  0
 35 31  1  0  0  0  0
 38 42  1  0  0  0  0
 39 41  1  0  0  0  0
 41 40  1  0  0  0  0
 42 40  1  0  0  0  0
 43 38  1  0  0  0  0
 43 39  1  0  0  0  0
M  END
>  <MODEL>
1

>  <REMARK>
 VINA RESULT:      -8.3      0.000      0.000
  Name = 
  9 active torsions:
  status: ('A' for Active; 'I' for Inactive)
    1  A    between atoms: C_1  and  C_34
    2  A    between atoms: C_1  and  C_35
    3  A    between atoms: C_3  and  C_4
    4  A    between atoms: C_6  and  C_12
    5  A    between atoms: C_8  and  C_34
    6  A    between atoms: C_11  and  N_14
    7  A    between atoms: N_13  and  C_38
    8  A    between atoms: C_19  and  O_25
    9  A    between atoms: C_34  and  C_38
                            x       y       z     vdW  Elec       q    Type
                         _______ _______ _______ _____ _____    ______ ____

>  <TORSDO>
F 9

$$$$
=
 OpenBabel10272414233D

 43 48  0  0  1  0  0  0  0  0999 V2000
  185.3870  178.0170  141.8790 C   0  0  1  0  0  3  0  0  0  0  0  0
  188.1480  178.2070  147.7740 C   0  0  2  0  0  3  0  0  0  0  0  0
  185.7790  178.0930  143.3300 C   0  0  0  0  0  0  0  0  0  0  0  0
  186.3740  178.3670  146.0350 C   0  0  0  0  0  0  0  0  0  0  0  0
  188.5230  176.9380  147.1530 N   0  0  0  0  0  2  0  0  0  0  0  0
  188.3730  178.1280  149.2680 C   0  0  0  0  0  1  0  0  0  0  0  0
  187.2310  177.6250  145.2140 C   0  0  0  0  0  0  0  0  0  0  0  0
  186.6730  178.5040  147.4970 C   0  0  0  0  0  2  0  0  0  0  0  0
  188.3760  177.0490  145.7790 O   0  0  0  0  0  0  0  0  0  0  0  0
  187.8980  176.7330  142.9730 C   0  0  0  0  0  1  0  0  0  0  0  0
  186.9530  177.4960  143.8470 C   0  0  0  0  0  0  0  0  0  0  0  0
  184.9620  178.7930  144.1650 N   0  0  0  0  0  0  0  0  0  0  0  0
  185.2310  178.9400  145.4890 C   0  0  0  0  0  3  0  0  0  0  0  0
  183.8680  177.9510  141.7200 C   0  0  0  0  0  2  0  0  0  0  0  0
  181.6410  179.5920  139.0250 C   0  0  0  0  0  2  0  0  0  0  0  0
  181.9480  178.6550  137.8760 C   0  0  0  0  0  0  0  0  0  0  0  0
  183.3990  177.2340  139.3380 C   0  0  0  0  0  2  0  0  0  0  0  0
  182.0010  179.0120  140.3910 C   0  0  0  0  0  2  0  0  0  0  0  0
  183.3920  178.3910  140.3340 C   0  0  1  0  0  3  0  0  0  0  0  0
  182.7890  177.6240  138.0210 C   0  0  0  0  0  3  0  0  0  0  0  0
  181.4050  178.8860  136.6100 O   0  0  0  0  0  0  0  0  0  0  0  0
  180.7700  180.1090  136.2640 C   0  0  0  0  0  1  0  0  0  0  0  0
  185.9880  179.1430  141.0420 C   0  0  0  0  0  2  0  0  0  0  0  0
  186.6720  178.4920  138.3360 O   0  0  0  0  0  0  0  0  0  0  0  0
  187.5860  178.4350  139.2000 C   0  0  0  0  0  0  0  0  0  0  0  0
  187.3140  178.7800  140.5640 N   0  0  0  0  0  2  0  0  0  0  0  0
  189.0580  176.5050  138.6420 C   0  0  2  0  0  3  0  0  0  0  0  0
  189.8980  177.9700  139.9720 C   0  0  0  0  0  2  0  0  0  0  0  0
  188.9630  178.0170  138.7780 C   0  0  2  0  0  3  0  0  0  0  0  0
  190.0100  176.4640  139.8260 C   0  0  0  0  0  2  0  0  0  0  0  0
  189.7750  176.0900  137.3530 C   0  0  2  0  0  3  0  0  0  0  0  0
  187.8170  175.7160  135.1300 C   0  0  0  0  0  2  0  0  0  0  0  0
  188.1150  174.6430  136.0830 N   0  0  0  0  0  0  0  0  0  0  0  0
  189.5420  177.1210  136.2420 C   0  0  0  0  0  2  0  0  0  0  0  0
  189.2760  174.7400  136.9200 C   0  0  0  0  0  0  0  0  0  0  0  0
  189.8210  173.6990  137.3740 O   0  0  0  0  0  0  0  0  0  0  0  0
  188.1000  177.0810  135.7440 C   0  0  0  0  0  2  0  0  0  0  0  0
  187.1290  173.6010  136.3540 C   0  0  0  0  0  3  0  0  0  0  0  0
  185.0930  172.5640  135.1870 C   0  0  0  0  0  2  0  0  0  0  0  0
  185.0560  173.0150  137.6790 C   0  0  0  0  0  2  0  0  0  0  0  0
  184.8320  171.9760  136.5710 C   0  0  0  0  0  2  0  0  0  0  0  0
  186.0430  174.1240  137.2940 C   0  0  0  0  0  2  0  0  0  0  0  0
  186.5500  173.0230  135.0510 C   0  0  0  0  0  2  0  0  0  0  0  0
  1 23  1  6  0  0  0
  1  3  1  0  0  0  0
  2  6  1  1  0  0  0
  3 11  2  0  0  0  0
  3 12  1  0  0  0  0
  4  8  1  0  0  0  0
  5  2  1  0  0  0  0
  7  9  1  0  0  0  0
  7  4  2  0  0  0  0
  8  2  1  0  0  0  0
  9  5  1  0  0  0  0
 10 11  1  0  0  0  0
 11  7  1  0  0  0  0
 12 13  2  0  0  0  0
 13  4  1  0  0  0  0
 14  1  1  0  0  0  0
 15 18  1  0  0  0  0
 16 20  2  0  0  0  0
 16 15  1  0  0  0  0
 17 19  1  0  0  0  0
 19 18  1  0  0  0  0
 19 14  1  1  0  0  0
 20 17  1  0  0  0  0
 21 16  1  0  0  0  0
 22 21  1  0  0  0  0
 24 25  2  0  0  0  0
 25 26  1  0  0  0  0
 26 23  1  0  0  0  0
 27 29  1  0  0  0  0
 27 30  1  1  0  0  0
 29 25  1  1  0  0  0
 29 28  1  0  0  0  0
 30 28  1  0  0  0  0
 31 34  1  6  0  0  0
 31 27  1  0  0  0  0
 32 37  1  0  0  0  0
 32 33  1  0  0  0  0
 33 38  1  0  0  0  0
 33 35  1  0  0  0  0
 35 31  1  0  0  0  0
 35 36  2  0  0  0  0
 37 34  1  0  0  0  0
 38 42  1  0  0  0  0
 39 41  1  0  0  0  0
 41 40  1  0  0  0  0
 42 40  1  0  0  0  0
 43 39  1  0  0  0  0
 43 38  1  0  0  0  0
M  END
>  <MODEL>
2

>  <REMARK>
 VINA RESULT:      -8.1      2.673      6.484
  Name = 
  9 active torsions:
  status: ('A' for Active; 'I' for Inactive)
    1  A    between atoms: C_1  and  C_34
    2  A    between atoms: C_1  and  C_35
    3  A    between atoms: C_3  and  C_4
    4  A    between atoms: C_6  and  C_12
    5  A    between atoms: C_8  and  C_34
    6  A    between atoms: C_11  and  N_14
    7  A    between atoms: N_13  and  C_38
    8  A    between atoms: C_19  and  O_25
    9  A    between atoms: C_34  and  C_38
                            x       y       z     vdW  Elec       q    Type
                         _______ _______ _______ _____ _____    ______ ____

>  <TORSDO>
F 9

$$$$
=
 OpenBabel10272414233D

 43 48  0  0  1  0  0  0  0  0999 V2000
  188.2760  178.2590  142.3970 C   0  0  1  0  0  3  0  0  0  0  0  0
  181.8530  178.4060  143.4630 C   0  0  2  0  0  3  0  0  0  0  0  0
  186.8570  178.3820  142.8820 C   0  0  0  0  0  0  0  0  0  0  0  0
  184.2900  178.5490  143.9470 C   0  0  0  0  0  0  0  0  0  0  0  0
  182.1230  179.2380  142.2920 N   0  0  0  0  0  2  0  0  0  0  0  0
  180.4870  178.7430  144.0210 C   0  0  0  0  0  1  0  0  0  0  0  0
  184.4710  178.6750  142.5640 C   0  0  0  0  0  0  0  0  0  0  0  0
  182.9160  178.6570  144.5340 C   0  0  0  0  0  2  0  0  0  0  0  0
  183.3470  178.8700  141.7530 O   0  0  0  0  0  0  0  0  0  0  0  0
  185.9300  178.6720  140.5310 C   0  0  0  0  0  1  0  0  0  0  0  0
  185.7560  178.5740  142.0140 C   0  0  0  0  0  0  0  0  0  0  0  0
  186.6410  178.2820  144.2230 N   0  0  0  0  0  0  0  0  0  0  0  0
  185.3980  178.3600  144.7670 C   0  0  0  0  0  3  0  0  0  0  0  0
  189.2630  178.7930  143.4340 C   0  0  0  0  0  2  0  0  0  0  0  0
  189.6490  176.8770  146.7650 C   0  0  0  0  0  2  0  0  0  0  0  0
  191.0440  176.3270  146.5490 C   0  0  0  0  0  0  0  0  0  0  0  0
  191.2480  177.5230  144.3610 C   0  0  0  0  0  2  0  0  0  0  0  0
  189.3140  178.0510  145.8470 C   0  0  0  0  0  2  0  0  0  0  0  0
  189.7340  177.7220  144.4190 C   0  0  1  0  0  3  0  0  0  0  0  0
  191.7320  176.5860  145.4310 C   0  0  0  0  0  3  0  0  0  0  0  0
  191.6230  175.4780  147.4940 O   0  0  0  0  0  0  0  0  0  0  0  0
  192.7660  175.8480  148.2540 C   0  0  0  0  0  1  0  0  0  0  0  0
  188.6340  176.8400  141.9640 C   0  0  0  0  0  2  0  0  0  0  0  0
  191.3360  177.1720  141.0670 O   0  0  0  0  0  0  0  0  0  0  0  0
  190.4430  177.0230  140.1920 C   0  0  0  0  0  0  0  0  0  0  0  0
  189.0780  176.8200  140.5770 N   0  0  0  0  0  2  0  0  0  0  0  0
  189.8770  176.2060  137.9080 C   0  0  2  0  0  3  0  0  0  0  0  0
  191.9450  176.0500  138.4720 C   0  0  0  0  0  2  0  0  0  0  0  0
  190.8320  177.0450  138.7440 C   0  0  2  0  0  3  0  0  0  0  0  0
  190.9990  175.2220  137.6230 C   0  0  0  0  0  2  0  0  0  0  0  0
  189.4500  176.9300  136.6270 C   0  0  2  0  0  3  0  0  0  0  0  0
  186.5580  177.6640  136.7430 C   0  0  0  0  0  2  0  0  0  0  0  0
  186.9990  176.3410  136.2930 N   0  0  0  0  0  0  0  0  0  0  0  0
  188.9420  178.3430  136.9400 C   0  0  0  0  0  2  0  0  0  0  0  0
  188.3750  176.1340  135.9410 C   0  0  0  0  0  0  0  0  0  0  0  0
  188.6940  175.2220  135.1330 O   0  0  0  0  0  0  0  0  0  0  0  0
  187.5960  178.3010  137.6580 C   0  0  0  0  0  2  0  0  0  0  0  0
  186.1170  175.1840  136.4200 C   0  0  0  0  0  3  0  0  0  0  0  0
  183.9940  174.5500  137.7130 C   0  0  0  0  0  2  0  0  0  0  0  0
  185.8730  172.8760  137.4220 C   0  0  0  0  0  2  0  0  0  0  0  0
  184.3680  173.1390  137.2670 C   0  0  0  0  0  2  0  0  0  0  0  0
  186.7310  174.1450  137.3580 C   0  0  0  0  0  2  0  0  0  0  0  0
  184.7010  175.6030  136.8520 C   0  0  0  0  0  2  0  0  0  0  0  0
  1 23  1  1  0  0  0
  1  3  1  0  0  0  0
  1 14  1  0  0  0  0
  2  6  1  1  0  0  0
  2  8  1  0  0  0  0
  3 12  1  0  0  0  0
  4  8  1  0  0  0  0
  4 13  1  0  0  0  0
  5  2  1  0  0  0  0
  7  4  2  0  0  0  0
  9  5  1  0  0  0  0
  9  7  1  0  0  0  0
 10 11  1  0  0  0  0
 11  7  1  0  0  0  0
 11  3  2  0  0  0  0
 12 13  2  0  0  0  0
 16 15  1  0  0  0  0
 16 21  1  0  0  0  0
 17 19  1  0  0  0  0
 17 20  1  0  0  0  0
 18 15  1  0  0  0  0
 19 14  1  6  0  0  0
 19 18  1  0  0  0  0
 20 16  2  0  0  0  0
 21 22  1  0  0  0  0
 25 26  1  0  0  0  0
 25 24  2  0  0  0  0
 26 23  1  0  0  0  0
 27 30  1  6  0  0  0
 27 29  1  0  0  0  0
 28 29  1  0  0  0  0
 29 25  1  1  0  0  0
 30 28  1  0  0  0  0
 31 34  1  1  0  0  0
 31 27  1  0  0  0  0
 32 37  1  0  0  0  0
 33 38  1  0  0  0  0
 33 32  1  0  0  0  0
 34 37  1  0  0  0  0
 35 33  1  0  0  0  0
 35 31  1  0  0  0  0
 36 35  2  0  0  0  0
 38 43  1  0  0  0  0
 38 42  1  0  0  0  0
 41 40  1  0  0  0  0
 41 39  1  0  0  0  0
 42 40  1  0  0  0  0
 43 39  1  0  0  0  0
M  END
>  <MODEL>
3

>  <REMARK>
 VINA RESULT:      -8.0      1.838      2.538
  Name = 
  9 active torsions:
  status: ('A' for Active; 'I' for Inactive)
    1  A    between atoms: C_1  and  C_34
    2  A    between atoms: C_1  and  C_35
    3  A    between atoms: C_3  and  C_4
    4  A    between atoms: C_6  and  C_12
    5  A    between atoms: C_8  and  C_34
    6  A    between atoms: C_11  and  N_14
    7  A    between atoms: N_13  and  C_38
    8  A    between atoms: C_19  and  O_25
    9  A    between atoms: C_34  and  C_38
                            x       y       z     vdW  Elec       q    Type
                         _______ _______ _______ _____ _____    ______ ____

>  <TORSDO>
F 9

$$$$
=
 OpenBabel10272414233D

 43 48  0  0  1  0  0  0  0  0999 V2000
  189.8230  177.5090  139.2250 C   0  0  1  0  0  3  0  0  0  0  0  0
  190.4480  177.3150  145.7040 C   0  0  2  0  0  3  0  0  0  0  0  0
  189.7330  177.3450  140.7170 C   0  0  0  0  0  0  0  0  0  0  0  0
  189.3840  177.0780  143.4660 C   0  0  0  0  0  0  0  0  0  0  0  0
  191.6080  176.6360  145.1300 N   0  0  0  0  0  2  0  0  0  0  0  0
  190.3020  176.9280  147.1590 C   0  0  0  0  0  1  0  0  0  0  0  0
  190.6800  177.1280  142.9390 C   0  0  0  0  0  0  0  0  0  0  0  0
  189.1840  176.9150  144.9420 C   0  0  0  0  0  2  0  0  0  0  0  0
  191.7680  177.0530  143.8170 O   0  0  0  0  0  0  0  0  0  0  0  0
  192.2590  177.3700  141.0130 C   0  0  0  0  0  1  0  0  0  0  0  0
  190.8690  177.2800  141.5590 C   0  0  0  0  0  0  0  0  0  0  0  0
  188.4900  177.2760  141.2670 N   0  0  0  0  0  0  0  0  0  0  0  0
  188.2930  177.1460  142.6060 C   0  0  0  0  0  3  0  0  0  0  0  0
  189.6940  176.1640  138.5110 C   0  0  0  0  0  2  0  0  0  0  0  0
  193.3830  175.9140  137.3960 C   0  0  0  0  0  2  0  0  0  0  0  0
  193.3480  174.5170  136.8110 C   0  0  0  0  0  0  0  0  0  0  0  0
  190.8940  174.3200  137.2570 C   0  0  0  0  0  2  0  0  0  0  0  0
  191.9980  176.5390  137.5480 C   0  0  0  0  0  2  0  0  0  0  0  0
  191.0450  175.5300  138.1780 C   0  0  1  0  0  3  0  0  0  0  0  0
  192.2250  173.7890  136.8060 C   0  0  0  0  0  3  0  0  0  0  0  0
  194.5140  173.9270  136.3170 O   0  0  0  0  0  0  0  0  0  0  0  0
  195.8100  174.3540  136.7140 C   0  0  0  0  0  1  0  0  0  0  0  0
  188.8270  178.5290  138.6780 C   0  0  0  0  0  2  0  0  0  0  0  0
  187.1070  179.4520  136.5800 O   0  0  0  0  0  0  0  0  0  0  0  0
  186.7760  178.3990  137.1870 C   0  0  0  0  0  0  0  0  0  0  0  0
  187.6110  177.8690  138.2240 N   0  0  0  0  0  2  0  0  0  0  0  0
  184.8800  177.0000  137.9950 C   0  0  2  0  0  3  0  0  0  0  0  0
  185.8050  176.3570  136.1640 C   0  0  0  0  0  2  0  0  0  0  0  0
  185.5060  177.7020  136.7990 C   0  0  2  0  0  3  0  0  0  0  0  0
  185.1640  175.6560  137.3460 C   0  0  0  0  0  2  0  0  0  0  0  0
  183.3710  177.2540  138.0810 C   0  0  2  0  0  3  0  0  0  0  0  0
  182.7970  179.6180  139.8130 C   0  0  0  0  0  2  0  0  0  0  0  0
  182.9810  178.2770  140.3760 N   0  0  0  0  0  0  0  0  0  0  0  0
  183.0170  178.6430  137.5360 C   0  0  0  0  0  2  0  0  0  0  0  0
  182.9290  177.1320  139.5130 C   0  0  0  0  0  0  0  0  0  0  0  0
  182.6080  176.0040  139.9720 O   0  0  0  0  0  0  0  0  0  0  0  0
  183.5060  179.7450  138.4720 C   0  0  0  0  0  2  0  0  0  0  0  0
  183.4460  178.1090  141.7500 C   0  0  0  0  0  3  0  0  0  0  0  0
  183.0480  179.2060  144.0350 C   0  0  0  0  0  2  0  0  0  0  0  0
  185.3770  178.4950  143.3380 C   0  0  0  0  0  2  0  0  0  0  0  0
  184.2950  178.4150  144.4240 C   0  0  0  0  0  2  0  0  0  0  0  0
  184.8220  178.7520  141.9310 C   0  0  0  0  0  2  0  0  0  0  0  0
  182.4130  178.6370  142.7610 C   0  0  0  0  0  2  0  0  0  0  0  0
  1 14  1  6  0  0  0
  1  3  1  0  0  0  0
  2  6  1  1  0  0  0
  3 12  2  0  0  0  0
  3 11  1  0  0  0  0
  4  8  1  0  0  0  0
  5  2  1  0  0  0  0
  7  4  1  0  0  0  0
  7  9  1  0  0  0  0
  8  2  1  0  0  0  0
  9  5  1  0  0  0  0
 10 11  1  0  0  0  0
 11  7  2  0  0  0  0
 12 13  1  0  0  0  0
 13  4  2  0  0  0  0
 15 18  1  0  0  0  0
 16 15  1  0  0  0  0
 17 19  1  0  0  0  0
 18 19  1  0  0  0  0
 19 14  1  6  0  0  0
 20 16  2  0  0  0  0
 20 17  1  0  0  0  0
 21 22  1  0  0  0  0
 21 16  1  0  0  0  0
 23  1  1  0  0  0  0
 24 25  2  0  0  0  0
 25 26  1  0  0  0  0
 26 23  1  0  0  0  0
 27 30  1  6  0  0  0
 27 31  1  0  0  0  0
 28 29  1  0  0  0  0
 28 30  1  0  0  0  0
 29 25  1  1  0  0  0
 29 27  1  0  0  0  0
 31 34  1  1  0  0  0
 31 35  1  0  0  0  0
 32 33  1  0  0  0  0
 33 38  1  0  0  0  0
 34 37  1  0  0  0  0
 35 36  2  0  0  0  0
 35 33  1  0  0  0  0
 37 32  1  0  0  0  0
 38 42  1  0  0  0  0
 38 43  1  0  0  0  0
 39 41  1  0  0  0  0
 40 41  1  0  0  0  0
 42 40  1  0  0  0  0
 43 39  1  0  0  0  0
M  END
>  <MODEL>
4

>  <REMARK>
 VINA RESULT:      -7.9      2.538      6.827
  Name = 
  9 active torsions:
  status: ('A' for Active; 'I' for Inactive)
    1  A    between atoms: C_1  and  C_34
    2  A    between atoms: C_1  and  C_35
    3  A    between atoms: C_3  and  C_4
    4  A    between atoms: C_6  and  C_12
    5  A    between atoms: C_8  and  C_34
    6  A    between atoms: C_11  and  N_14
    7  A    between atoms: N_13  and  C_38
    8  A    between atoms: C_19  and  O_25
    9  A    between atoms: C_34  and  C_38
                            x       y       z     vdW  Elec       q    Type
                         _______ _______ _______ _____ _____    ______ ____

>  <TORSDO>
F 9

$$$$
=
 OpenBabel10272414233D

 43 48  0  0  1  0  0  0  0  0999 V2000
  189.1860  177.8800  140.7080 C   0  0  1  0  0  3  0  0  0  0  0  0
  188.4450  177.9970  147.1770 C   0  0  2  0  0  3  0  0  0  0  0  0
  188.7930  177.7730  142.1570 C   0  0  0  0  0  0  0  0  0  0  0  0
  187.8890  177.6000  144.7840 C   0  0  0  0  0  0  0  0  0  0  0  0
  189.7350  177.3700  146.8930 N   0  0  0  0  0  2  0  0  0  0  0  0
  188.0180  177.6630  148.5900 C   0  0  0  0  0  1  0  0  0  0  0  0
  189.2620  177.7090  144.5340 C   0  0  0  0  0  0  0  0  0  0  0  0
  187.3920  177.4860  146.1930 C   0  0  0  0  0  2  0  0  0  0  0  0
  190.1450  177.7400  145.6220 O   0  0  0  0  0  0  0  0  0  0  0  0
  191.1960  177.9710  142.9680 C   0  0  0  0  0  1  0  0  0  0  0  0
  189.7290  177.8160  143.2170 C   0  0  0  0  0  0  0  0  0  0  0  0
  187.4670  177.6490  142.4400 N   0  0  0  0  0  0  0  0  0  0  0  0
  187.0010  177.5620  143.7140 C   0  0  0  0  0  3  0  0  0  0  0  0
  189.6810  176.5390  140.1690 C   0  0  0  0  0  2  0  0  0  0  0  0
  191.8870  175.7310  137.1030 C   0  0  0  0  0  2  0  0  0  0  0  0
  193.1880  176.3290  137.5970 C   0  0  0  0  0  0  0  0  0  0  0  0
  192.1560  176.9220  139.7980 C   0  0  0  0  0  2  0  0  0  0  0  0
  190.8810  175.4680  138.2220 C   0  0  0  0  0  2  0  0  0  0  0  0
  190.8000  176.6850  139.1360 C   0  0  1  0  0  3  0  0  0  0  0  0
  193.2780  176.9140  138.7980 C   0  0  0  0  0  3  0  0  0  0  0  0
  194.3170  176.3430  136.7750 O   0  0  0  0  0  0  0  0  0  0  0  0
  194.2320  176.2340  135.3610 C   0  0  0  0  0  1  0  0  0  0  0  0
  188.0760  178.4580  139.8330 C   0  0  0  0  0  2  0  0  0  0  0  0
  187.7840  179.1610  137.0710 O   0  0  0  0  0  0  0  0  0  0  0  0
  187.5790  177.9620  137.3940 C   0  0  0  0  0  0  0  0  0  0  0  0
  187.7400  177.5400  138.7540 N   0  0  0  0  0  2  0  0  0  0  0  0
  186.7240  175.6640  136.9480 C   0  0  2  0  0  3  0  0  0  0  0  0
  188.4010  176.2870  135.7560 C   0  0  0  0  0  2  0  0  0  0  0  0
  187.1800  176.9790  136.3330 C   0  0  2  0  0  3  0  0  0  0  0  0
  187.9380  174.9720  136.3530 C   0  0  0  0  0  2  0  0  0  0  0  0
  185.4330  175.1490  136.3040 C   0  0  2  0  0  3  0  0  0  0  0  0
  183.3500  177.2880  136.2560 C   0  0  0  0  0  2  0  0  0  0  0  0
  183.5480  176.4330  137.4290 N   0  0  0  0  0  0  0  0  0  0  0  0
  185.0800  175.9660  135.0540 C   0  0  0  0  0  2  0  0  0  0  0  0
  184.3140  175.2260  137.3050 C   0  0  0  0  0  0  0  0  0  0  0  0
  184.1190  174.2650  138.0960 O   0  0  0  0  0  0  0  0  0  0  0  0
  184.6240  177.3740  135.4250 C   0  0  0  0  0  2  0  0  0  0  0  0
  183.1790  176.9060  138.7600 C   0  0  0  0  0  3  0  0  0  0  0  0
  181.4150  178.4490  139.8040 C   0  0  0  0  0  2  0  0  0  0  0  0
  183.8060  178.4770  140.6400 C   0  0  0  0  0  2  0  0  0  0  0  0
  182.3240  178.3550  141.0260 C   0  0  0  0  0  2  0  0  0  0  0  0
  184.1070  178.0370  139.2020 C   0  0  0  0  0  2  0  0  0  0  0  0
  181.6940  177.3050  138.8220 C   0  0  0  0  0  2  0  0  0  0  0  0
  1 23  1  6  0  0  0
  1  3  1  0  0  0  0
  2  6  1  1  0  0  0
  3 12  2  0  0  0  0
  3 11  1  0  0  0  0
  4  8  1  0  0  0  0
  5  2  1  0  0  0  0
  7  4  1  0  0  0  0
  7  9  1  0  0  0  0
  8  2  1  0  0  0  0
  9  5  1  0  0  0  0
 10 11  1  0  0  0  0
 11  7  2  0  0  0  0
 12 13  1  0  0  0  0
 13  4  2  0  0  0  0
 14  1  1  0  0  0  0
 15 16  1  0  0  0  0
 15 18  1  0  0  0  0
 16 20  2  0  0  0  0
 18 19  1  0  0  0  0
 19 17  1  0  0  0  0
 19 14  1  1  0  0  0
 20 17  1  0  0  0  0
 21 16  1  0  0  0  0
 22 21  1  0  0  0  0
 24 25  2  0  0  0  0
 25 26  1  0  0  0  0
 26 23  1  0  0  0  0
 27 30  1  6  0  0  0
 28 29  1  0  0  0  0
 28 30  1  0  0  0  0
 29 27  1  0  0  0  0
 29 25  1  1  0  0  0
 31 34  1  6  0  0  0
 31 27  1  0  0  0  0
 31 35  1  0  0  0  0
 32 33  1  0  0  0  0
 33 38  1  0  0  0  0
 34 37  1  0  0  0  0
 35 33  1  0  0  0  0
 35 36  2  0  0  0  0
 37 32  1  0  0  0  0
 38 43  1  0  0  0  0
 38 42  1  0  0  0  0
 39 41  1  0  0  0  0
 40 41  1  0  0  0  0
 42 40  1  0  0  0  0
 43 39  1  0  0  0  0
M  END
>  <MODEL>
5

>  <REMARK>
 VINA RESULT:      -7.6      2.447      5.488
  Name = 
  9 active torsions:
  status: ('A' for Active; 'I' for Inactive)
    1  A    between atoms: C_1  and  C_34
    2  A    between atoms: C_1  and  C_35
    3  A    between atoms: C_3  and  C_4
    4  A    between atoms: C_6  and  C_12
    5  A    between atoms: C_8  and  C_34
    6  A    between atoms: C_11  and  N_14
    7  A    between atoms: N_13  and  C_38
    8  A    between atoms: C_19  and  O_25
    9  A    between atoms: C_34  and  C_38
                            x       y       z     vdW  Elec       q    Type
                         _______ _______ _______ _____ _____    ______ ____

>  <TORSDO>
F 9

$$$$
=
 OpenBabel10272414233D

 43 48  0  0  1  0  0  0  0  0999 V2000
  186.7240  177.7630  142.8450 C   0  0  1  0  0  3  0  0  0  0  0  0
  191.3160  176.1550  147.1730 C   0  0  2  0  0  3  0  0  0  0  0  0
  187.9540  177.4380  143.6480 C   0  0  0  0  0  0  0  0  0  0  0  0
  190.3000  176.7550  144.9820 C   0  0  0  0  0  0  0  0  0  0  0  0
  190.5510  177.2670  147.7360 N   0  0  0  0  0  2  0  0  0  0  0  0
  192.6370  176.0290  147.9000 C   0  0  0  0  0  1  0  0  0  0  0  0
  189.2030  177.2250  145.7150 C   0  0  0  0  0  0  0  0  0  0  0  0
  191.5740  176.4040  145.6870 C   0  0  0  0  0  2  0  0  0  0  0  0
  189.3160  177.3270  147.1070 O   0  0  0  0  0  0  0  0  0  0  0  0
  186.8340  178.0180  145.8570 C   0  0  0  0  0  1  0  0  0  0  0  0
  188.0100  177.5540  145.0570 C   0  0  0  0  0  0  0  0  0  0  0  0
  189.0470  176.9930  142.9700 N   0  0  0  0  0  0  0  0  0  0  0  0
  190.2040  176.6540  143.5980 C   0  0  0  0  0  3  0  0  0  0  0  0
  185.4910  177.8770  143.7420 C   0  0  0  0  0  2  0  0  0  0  0  0
  181.9620  179.3700  143.2650 C   0  0  0  0  0  2  0  0  0  0  0  0
  181.7420  178.9750  141.8200 C   0  0  0  0  0  0  0  0  0  0  0  0
  183.9360  177.7740  141.7470 C   0  0  0  0  0  2  0  0  0  0  0  0
  183.0730  178.5750  143.9470 C   0  0  0  0  0  2  0  0  0  0  0  0
  184.2930  178.5130  143.0350 C   0  0  1  0  0  3  0  0  0  0  0  0
  182.6690  178.2990  141.1310 C   0  0  0  0  0  3  0  0  0  0  0  0
  180.5820  179.3660  141.1480 O   0  0  0  0  0  0  0  0  0  0  0  0
  180.0390  178.6220  140.0670 C   0  0  0  0  0  1  0  0  0  0  0  0
  186.8950  179.0030  141.9710 C   0  0  0  0  0  2  0  0  0  0  0  0
  186.3500  178.2910  139.2500 O   0  0  0  0  0  0  0  0  0  0  0  0
  187.5560  178.3880  139.5990 C   0  0  0  0  0  0  0  0  0  0  0  0
  187.8940  178.7720  140.9370 N   0  0  0  0  0  2  0  0  0  0  0  0
  188.4540  176.7350  137.9650 C   0  0  2  0  0  3  0  0  0  0  0  0
  189.9000  177.6390  139.2740 C   0  0  0  0  0  2  0  0  0  0  0  0
  188.6310  178.1110  138.5900 C   0  0  2  0  0  3  0  0  0  0  0  0
  189.7350  176.2720  138.6370 C   0  0  0  0  0  2  0  0  0  0  0  0
  188.6200  176.7720  136.4430 C   0  0  2  0  0  3  0  0  0  0  0  0
  185.9720  176.5340  135.0850 C   0  0  0  0  0  2  0  0  0  0  0  0
  186.7260  175.3530  135.5130 N   0  0  0  0  0  0  0  0  0  0  0  0
  187.8640  177.9620  135.8380 C   0  0  0  0  0  2  0  0  0  0  0  0
  188.1130  175.4840  135.8560 C   0  0  0  0  0  0  0  0  0  0  0  0
  188.8880  174.4960  135.7610 O   0  0  0  0  0  0  0  0  0  0  0  0
  186.3540  177.7530  135.9140 C   0  0  0  0  0  2  0  0  0  0  0  0
  186.0350  174.1030  135.8170 C   0  0  0  0  0  3  0  0  0  0  0  0
  183.6240  173.2280  135.8470 C   0  0  0  0  0  2  0  0  0  0  0  0
  185.2520  172.5770  137.6740 C   0  0  0  0  0  2  0  0  0  0  0  0
  184.2490  172.0740  136.6260 C   0  0  0  0  0  2  0  0  0  0  0  0
  185.8790  173.9330  137.3280 C   0  0  0  0  0  2  0  0  0  0  0  0
  184.6910  174.0100  135.0730 C   0  0  0  0  0  2  0  0  0  0  0  0
  1 23  1  1  0  0  0
  1  3  1  0  0  0  0
  1 14  1  0  0  0  0
  2  5  1  0  0  0  0
  2  6  1  1  0  0  0
  3 11  1  0  0  0  0
  4  8  1  0  0  0  0
  4  7  1  0  0  0  0
  7  9  1  0  0  0  0
  8  2  1  0  0  0  0
  9  5  1  0  0  0  0
 11  7  2  0  0  0  0
 11 10  1  0  0  0  0
 12 13  1  0  0  0  0
 12  3  2  0  0  0  0
 13  4  2  0  0  0  0
 15 18  1  0  0  0  0
 16 15  1  0  0  0  0
 17 19  1  0  0  0  0
 19 14  1  1  0  0  0
 19 18  1  0  0  0  0
 20 17  1  0  0  0  0
 20 16  2  0  0  0  0
 21 16  1  0  0  0  0
 22 21  1  0  0  0  0
 24 25  2  0  0  0  0
 25 26  1  0  0  0  0
 26 23  1  0  0  0  0
 27 29  1  0  0  0  0
 27 30  1  1  0  0  0
 29 28  1  0  0  0  0
 29 25  1  1  0  0  0
 30 28  1  0  0  0  0
 31 34  1  6  0  0  0
 31 27  1  0  0  0  0
 32 33  1  0  0  0  0
 32 37  1  0  0  0  0
 33 38  1  0  0  0  0
 33 35  1  0  0  0  0
 34 37  1  0  0  0  0
 35 31  1  0  0  0  0
 36 35  2  0  0  0  0
 38 42  1  0  0  0  0
 39 41  1  0  0  0  0
 41 40  1  0  0  0  0
 42 40  1  0  0  0  0
 43 38  1  0  0  0  0
 43 39  1  0  0  0  0
M  END
>  <MODEL>
6

>  <REMARK>
 VINA RESULT:      -7.5      2.201      6.382
  Name = 
  9 active torsions:
  status: ('A' for Active; 'I' for Inactive)
    1  A    between atoms: C_1  and  C_34
    2  A    between atoms: C_1  and  C_35
    3  A    between atoms: C_3  and  C_4
    4  A    between atoms: C_6  and  C_12
    5  A    between atoms: C_8  and  C_34
    6  A    between atoms: C_11  and  N_14
    7  A    between atoms: N_13  and  C_38
    8  A    between atoms: C_19  and  O_25
    9  A    between atoms: C_34  and  C_38
                            x       y       z     vdW  Elec       q    Type
                         _______ _______ _______ _____ _____    ______ ____

>  <TORSDO>
F 9

$$$$
=
 OpenBabel10272414233D

 43 48  0  0  1  0  0  0  0  0999 V2000
  189.2240  177.3300  139.6320 C   0  0  1  0  0  3  0  0  0  0  0  0
  186.5540  178.2890  145.4940 C   0  0  2  0  0  3  0  0  0  0  0  0
  188.3860  177.6000  140.8520 C   0  0  0  0  0  0  0  0  0  0  0  0
  186.7520  178.2370  143.0140 C   0  0  0  0  0  0  0  0  0  0  0  0
  187.1150  176.9390  145.4820 N   0  0  0  0  0  2  0  0  0  0  0  0
  185.5580  178.4150  146.6260 C   0  0  0  0  0  1  0  0  0  0  0  0
  187.8360  177.3720  143.2020 C   0  0  0  0  0  0  0  0  0  0  0  0
  185.8530  178.5710  144.1650 C   0  0  0  0  0  2  0  0  0  0  0  0
  188.0740  176.8600  144.4840 O   0  0  0  0  0  0  0  0  0  0  0  0
  189.8550  176.1640  142.3520 C   0  0  0  0  0  1  0  0  0  0  0  0
  188.6770  177.0590  142.1270 C   0  0  0  0  0  0  0  0  0  0  0  0
  187.3120  178.4240  140.7060 N   0  0  0  0  0  0  0  0  0  0  0  0
  186.4990  178.7500  141.7460 C   0  0  0  0  0  3  0  0  0  0  0  0
  188.9400  178.3490  138.5290 C   0  0  0  0  0  2  0  0  0  0  0  0
  187.1050  178.1620  135.1360 C   0  0  0  0  0  2  0  0  0  0  0  0
  186.3430  176.8720  135.3620 C   0  0  0  0  0  0  0  0  0  0  0  0
  187.2250  176.6830  137.6960 C   0  0  0  0  0  2  0  0  0  0  0  0
  187.6120  178.7980  136.4290 C   0  0  0  0  0  2  0  0  0  0  0  0
  188.2640  177.7330  137.3040 C   0  0  1  0  0  3  0  0  0  0  0  0
  186.4520  176.1870  136.5070 C   0  0  0  0  0  3  0  0  0  0  0  0
  185.5530  176.3300  134.3460 O   0  0  0  0  0  0  0  0  0  0  0  0
  184.2810  175.7510  134.5970 C   0  0  0  0  0  1  0  0  0  0  0  0
  190.7160  177.2450  139.9430 C   0  0  0  0  0  2  0  0  0  0  0  0
  193.5450  177.2990  139.4860 O   0  0  0  0  0  0  0  0  0  0  0  0
  192.8380  176.6150  138.7000 C   0  0  0  0  0  0  0  0  0  0  0  0
  191.4220  176.5220  138.8950 N   0  0  0  0  0  2  0  0  0  0  0  0
  192.6060  174.7830  137.0280 C   0  0  2  0  0  3  0  0  0  0  0  0
  194.4700  174.8450  138.0970 C   0  0  0  0  0  2  0  0  0  0  0  0
  193.5030  175.8880  137.5690 C   0  0  2  0  0  3  0  0  0  0  0  0
  193.5880  173.7430  137.5410 C   0  0  0  0  0  2  0  0  0  0  0  0
  192.5630  174.7820  135.4960 C   0  0  2  0  0  3  0  0  0  0  0  0
  189.8350  175.4990  134.5160 C   0  0  0  0  0  2  0  0  0  0  0  0
  190.1860  174.1230  134.8800 N   0  0  0  0  0  0  0  0  0  0  0  0
  192.1900  176.1680  134.9570 C   0  0  0  0  0  2  0  0  0  0  0  0
  191.5650  173.7590  135.0290 C   0  0  0  0  0  0  0  0  0  0  0  0
  191.9280  172.5640  134.8650 O   0  0  0  0  0  0  0  0  0  0  0  0
  190.7270  176.4970  135.2430 C   0  0  0  0  0  2  0  0  0  0  0  0
  189.1530  173.1880  135.3190 C   0  0  0  0  0  3  0  0  0  0  0  0
  186.6070  172.9430  135.1190 C   0  0  0  0  0  2  0  0  0  0  0  0
  187.7860  172.4010  137.2950 C   0  0  0  0  0  2  0  0  0  0  0  0
  186.8070  171.9040  136.2200 C   0  0  0  0  0  2  0  0  0  0  0  0
  188.7900  173.4400  136.7820 C   0  0  0  0  0  2  0  0  0  0  0  0
  187.9260  173.2330  134.3920 C   0  0  0  0  0  2  0  0  0  0  0  0
  1 14  1  6  0  0  0
  1 23  1  0  0  0  0
  1  3  1  0  0  0  0
  2  6  1  1  0  0  0
  3 11  1  0  0  0  0
  4  7  1  0  0  0  0
  4  8  1  0  0  0  0
  5  2  1  0  0  0  0
  7  9  1  0  0  0  0
  8  2  1  0  0  0  0
  9  5  1  0  0  0  0
 11 10  1  0  0  0  0
 11  7  2  0  0  0  0
 12  3  2  0  0  0  0
 12 13  1  0  0  0  0
 13  4  2  0  0  0  0
 15 16  1  0  0  0  0
 15 18  1  0  0  0  0
 16 20  2  0  0  0  0
 18 19  1  0  0  0  0
 19 17  1  0  0  0  0
 19 14  1  1  0  0  0
 20 17  1  0  0  0  0
 21 22  1  0  0  0  0
 21 16  1  0  0  0  0
 25 26  1  0  0  0  0
 25 24  2  0  0  0  0
 26 23  1  0  0  0  0
 27 30  1  6  0  0  0
 27 29  1  0  0  0  0
 29 28  1  0  0  0  0
 29 25  1  1  0  0  0
 30 28  1  0  0  0  0
 31 34  1  1  0  0  0
 31 27  1  0  0  0  0
 32 33  1  0  0  0  0
 32 37  1  0  0  0  0
 33 35  1  0  0  0  0
 33 38  1  0  0  0  0
 34 37  1  0  0  0  0
 35 31  1  0  0  0  0
 36 35  2  0  0  0  0
 38 42  1  0  0  0  0
 39 41  1  0  0  0  0
 41 40  1  0  0  0  0
 42 40  1  0  0  0  0
 43 39  1  0  0  0  0
 43 38  1  0  0  0  0
M  END
>  <MODEL>
7

>  <REMARK>
 VINA RESULT:      -7.2      3.038      6.229
  Name = 
  9 active torsions:
  status: ('A' for Active; 'I' for Inactive)
    1  A    between atoms: C_1  and  C_34
    2  A    between atoms: C_1  and  C_35
    3  A    between atoms: C_3  and  C_4
    4  A    between atoms: C_6  and  C_12
    5  A    between atoms: C_8  and  C_34
    6  A    between atoms: C_11  and  N_14
    7  A    between atoms: N_13  and  C_38
    8  A    between atoms: C_19  and  O_25
    9  A    between atoms: C_34  and  C_38
                            x       y       z     vdW  Elec       q    Type
                         _______ _______ _______ _____ _____    ______ ____

>  <TORSDO>
F 9

$$$$
=
 OpenBabel10272414233D

 43 48  0  0  1  0  0  0  0  0999 V2000
  189.2050  177.0620  138.3910 C   0  0  1  0  0  3  0  0  0  0  0  0
  193.9890  173.3920  135.9300 C   0  0  2  0  0  3  0  0  0  0  0  0
  190.4590  176.3230  138.0100 C   0  0  0  0  0  0  0  0  0  0  0  0
  192.8750  175.1130  137.3420 C   0  0  0  0  0  0  0  0  0  0  0  0
  192.8990  172.4960  136.3130 N   0  0  0  0  0  2  0  0  0  0  0  0
  195.2680  172.5990  135.7730 C   0  0  0  0  0  1  0  0  0  0  0  0
  191.6730  174.4650  137.0350 C   0  0  0  0  0  0  0  0  0  0  0  0
  194.1820  174.4620  137.0060 C   0  0  0  0  0  2  0  0  0  0  0  0
  191.7220  173.2250  136.3860 O   0  0  0  0  0  0  0  0  0  0  0  0
  189.1730  174.3860  136.9800 C   0  0  0  0  0  1  0  0  0  0  0  0
  190.4500  175.0720  137.3490 C   0  0  0  0  0  0  0  0  0  0  0  0
  191.6500  176.9130  138.3070 N   0  0  0  0  0  0  0  0  0  0  0  0
  192.8430  176.3420  137.9910 C   0  0  0  0  0  3  0  0  0  0  0  0
  189.4360  177.9510  139.6130 C   0  0  0  0  0  2  0  0  0  0  0  0
  186.9490  178.0470  142.5660 C   0  0  0  0  0  2  0  0  0  0  0  0
  187.6970  177.1390  143.5210 C   0  0  0  0  0  0  0  0  0  0  0  0
  189.6020  176.9110  141.9160 C   0  0  0  0  0  2  0  0  0  0  0  0
  187.8280  178.6030  141.4480 C   0  0  0  0  0  2  0  0  0  0  0  0
  188.6680  177.4800  140.8490 C   0  0  1  0  0  3  0  0  0  0  0  0
  188.8710  176.5900  143.1890 C   0  0  0  0  0  3  0  0  0  0  0  0
  187.1400  176.8000  144.7560 O   0  0  0  0  0  0  0  0  0  0  0  0
  186.9990  177.7410  145.8120 C   0  0  0  0  0  1  0  0  0  0  0  0
  188.6070  177.8540  137.2310 C   0  0  0  0  0  2  0  0  0  0  0  0
  185.9910  178.7100  138.0280 O   0  0  0  0  0  0  0  0  0  0  0  0
  186.0720  177.7190  137.2560 C   0  0  0  0  0  0  0  0  0  0  0  0
  187.3490  177.2620  136.7960 N   0  0  0  0  0  2  0  0  0  0  0  0
  183.9700  176.6140  138.0100 C   0  0  2  0  0  3  0  0  0  0  0  0
  185.0790  175.5760  136.4900 C   0  0  0  0  0  2  0  0  0  0  0  0
  184.8120  177.0340  136.8150 C   0  0  2  0  0  3  0  0  0  0  0  0
  184.2240  175.1560  137.6700 C   0  0  0  0  0  2  0  0  0  0  0  0
  182.4910  176.9670  137.8200 C   0  0  2  0  0  3  0  0  0  0  0  0
  181.8240  179.5130  139.2310 C   0  0  0  0  0  2  0  0  0  0  0  0
  181.8120  178.2220  139.9250 N   0  0  0  0  0  0  0  0  0  0  0  0
  182.3370  178.3190  137.1110 C   0  0  0  0  0  2  0  0  0  0  0  0
  181.8140  177.0070  139.1620 C   0  0  0  0  0  0  0  0  0  0  0  0
  181.3370  175.9480  139.6510 O   0  0  0  0  0  0  0  0  0  0  0  0
  182.7490  179.4710  138.0230 C   0  0  0  0  0  2  0  0  0  0  0  0
  182.0330  178.1550  141.3670 C   0  0  0  0  0  3  0  0  0  0  0  0
  181.2820  179.4300  143.4630 C   0  0  0  0  0  2  0  0  0  0  0  0
  183.6760  178.6370  143.2280 C   0  0  0  0  0  2  0  0  0  0  0  0
  182.4240  178.6560  144.1160 C   0  0  0  0  0  2  0  0  0  0  0  0
  183.3740  178.7920  141.7320 C   0  0  0  0  0  2  0  0  0  0  0  0
  180.8570  178.7730  142.1440 C   0  0  0  0  0  2  0  0  0  0  0  0
  1 23  1  6  0  0  0
  1 14  1  0  0  0  0
  2  6  1  1  0  0  0
  2  5  1  0  0  0  0
  2  8  1  0  0  0  0
  3 12  1  0  0  0  0
  3  1  1  0  0  0  0
  4 13  1  0  0  0  0
  5  9  1  0  0  0  0
  7  4  2  0  0  0  0
  7 11  1  0  0  0  0
  8  4  1  0  0  0  0
  9  7  1  0  0  0  0
 10 11  1  0  0  0  0
 11  3  2  0  0  0  0
 13 12  2  0  0  0  0
 15 16  1  0  0  0  0
 16 21  1  0  0  0  0
 17 20  1  0  0  0  0
 18 15  1  0  0  0  0
 19 14  1  6  0  0  0
 19 18  1  0  0  0  0
 19 17  1  0  0  0  0
 20 16  2  0  0  0  0
 21 22  1  0  0  0  0
 25 24  2  0  0  0  0
 26 23  1  0  0  0  0
 26 25  1  0  0  0  0
 27 30  1  6  0  0  0
 28 29  1  0  0  0  0
 28 30  1  0  0  0  0
 29 25  1  1  0  0  0
 29 27  1  0  0  0  0
 31 34  1  1  0  0  0
 31 27  1  0  0  0  0
 31 35  1  0  0  0  0
 32 33  1  0  0  0  0
 33 38  1  0  0  0  0
 34 37  1  0  0  0  0
 35 36  2  0  0  0  0
 35 33  1  0  0  0  0
 37 32  1  0  0  0  0
 38 42  1  0  0  0  0
 38 43  1  0  0  0  0
 39 41  1  0  0  0  0
 40 41  1  0  0  0  0
 42 40  1  0  0  0  0
 43 39  1  0  0  0  0
M  END
>  <MODEL>
8

>  <REMARK>
 VINA RESULT:      -7.2      2.748      7.397
  Name = 
  9 active torsions:
  status: ('A' for Active; 'I' for Inactive)
    1  A    between atoms: C_1  and  C_34
    2  A    between atoms: C_1  and  C_35
    3  A    between atoms: C_3  and  C_4
    4  A    between atoms: C_6  and  C_12
    5  A    between atoms: C_8  and  C_34
    6  A    between atoms: C_11  and  N_14
    7  A    between atoms: N_13  and  C_38
    8  A    between atoms: C_19  and  O_25
    9  A    between atoms: C_34  and  C_38
                            x       y       z     vdW  Elec       q    Type
                         _______ _______ _______ _____ _____    ______ ____

>  <TORSDO>
F 9

$$$$
=
 OpenBabel10272414233D

 43 48  0  0  1  0  0  0  0  0999 V2000
  189.4190  177.2600  140.2620 C   0  0  1  0  0  3  0  0  0  0  0  0
  194.0100  174.6590  136.4460 C   0  0  2  0  0  3  0  0  0  0  0  0
  190.2880  176.6410  139.2010 C   0  0  0  0  0  0  0  0  0  0  0  0
  191.7500  175.3890  137.1910 C   0  0  0  0  0  0  0  0  0  0  0  0
  194.4800  175.9790  136.8620 N   0  0  0  0  0  2  0  0  0  0  0  0
  194.7950  174.1980  135.2370 C   0  0  0  0  0  1  0  0  0  0  0  0
  192.4120  176.2050  138.1160 C   0  0  0  0  0  0  0  0  0  0  0  0
  192.5240  174.7260  136.0920 C   0  0  0  0  0  2  0  0  0  0  0  0
  193.7990  176.3570  138.0090 O   0  0  0  0  0  0  0  0  0  0  0  0
  192.4150  177.6630  140.1490 C   0  0  0  0  0  1  0  0  0  0  0  0
  191.6900  176.8260  139.1440 C   0  0  0  0  0  0  0  0  0  0  0  0
  189.6790  175.8540  138.2720 N   0  0  0  0  0  0  0  0  0  0  0  0
  190.3710  175.2320  137.2810 C   0  0  0  0  0  3  0  0  0  0  0  0
  190.2460  177.6840  141.4760 C   0  0  0  0  0  2  0  0  0  0  0  0
  189.4350  178.2600  145.2070 C   0  0  0  0  0  2  0  0  0  0  0  0
  188.2800  177.2890  145.3410 C   0  0  0  0  0  0  0  0  0  0  0  0
  188.5540  176.5370  142.9700 C   0  0  0  0  0  2  0  0  0  0  0  0
  190.3060  177.9990  143.9810 C   0  0  0  0  0  2  0  0  0  0  0  0
  189.4200  177.7780  142.7600 C   0  0  1  0  0  3  0  0  0  0  0  0
  187.8600  176.5570  144.3030 C   0  0  0  0  0  3  0  0  0  0  0  0
  187.5810  177.1830  146.5450 O   0  0  0  0  0  0  0  0  0  0  0  0
  188.0550  177.7550  147.7550 C   0  0  0  0  0  1  0  0  0  0  0  0
  188.5690  178.4140  139.7360 C   0  0  0  0  0  2  0  0  0  0  0  0
  187.7160  179.1580  137.1030 O   0  0  0  0  0  0  0  0  0  0  0  0
  186.9960  178.3480  137.7440 C   0  0  0  0  0  0  0  0  0  0  0  0
  187.3850  177.9130  139.0530 N   0  0  0  0  0  2  0  0  0  0  0  0
  184.9830  176.9160  138.0620 C   0  0  2  0  0  3  0  0  0  0  0  0
  186.0330  176.6570  136.2040 C   0  0  0  0  0  2  0  0  0  0  0  0
  185.7360  177.8360  137.1120 C   0  0  2  0  0  3  0  0  0  0  0  0
  185.2660  175.7420  137.1400 C   0  0  0  0  0  2  0  0  0  0  0  0
  183.4840  177.2320  138.0960 C   0  0  2  0  0  3  0  0  0  0  0  0
  182.9500  179.6330  139.7890 C   0  0  0  0  0  2  0  0  0  0  0  0
  183.0610  178.2910  140.3680 N   0  0  0  0  0  0  0  0  0  0  0  0
  183.2060  178.6290  137.5280 C   0  0  0  0  0  2  0  0  0  0  0  0
  182.9900  177.1410  139.5130 C   0  0  0  0  0  0  0  0  0  0  0  0
  182.6080  176.0320  139.9700 O   0  0  0  0  0  0  0  0  0  0  0  0
  183.7080  179.7190  138.4710 C   0  0  0  0  0  2  0  0  0  0  0  0
  183.4730  178.1170  141.7590 C   0  0  0  0  0  3  0  0  0  0  0  0
  183.0430  179.2490  144.0210 C   0  0  0  0  0  2  0  0  0  0  0  0
  185.3630  178.4400  143.4070 C   0  0  0  0  0  2  0  0  0  0  0  0
  184.2430  178.4130  144.4570 C   0  0  0  0  0  2  0  0  0  0  0  0
  184.8660  178.7060  141.9810 C   0  0  0  0  0  2  0  0  0  0  0  0
  182.4290  178.6950  142.7300 C   0  0  0  0  0  2  0  0  0  0  0  0
  1 23  1  6  0  0  0
  1 14  1  0  0  0  0
  2  6  1  6  0  0  0
  2  5  1  0  0  0  0
  3  1  1  0  0  0  0
  4 13  2  0  0  0  0
  4  7  1  0  0  0  0
  5  9  1  0  0  0  0
  7 11  2  0  0  0  0
  8  2  1  0  0  0  0
  8  4  1  0  0  0  0
  9  7  1  0  0  0  0
 11  3  1  0  0  0  0
 11 10  1  0  0  0  0
 12  3  2  0  0  0  0
 13 12  1  0  0  0  0
 15 16  1  0  0  0  0
 16 21  1  0  0  0  0
 17 20  1  0  0  0  0
 18 15  1  0  0  0  0
 19 14  1  6  0  0  0
 19 17  1  0  0  0  0
 19 18  1  0  0  0  0
 20 16  2  0  0  0  0
 21 22  1  0  0  0  0
 24 25  2  0  0  0  0
 25 26  1  0  0  0  0
 26 23  1  0  0  0  0
 27 30  1  6  0  0  0
 27 31  1  0  0  0  0
 28 29  1  0  0  0  0
 28 30  1  0  0  0  0
 29 25  1  1  0  0  0
 29 27  1  0  0  0  0
 31 34  1  1  0  0  0
 31 35  1  0  0  0  0
 32 33  1  0  0  0  0
 33 38  1  0  0  0  0
 34 37  1  0  0  0  0
 35 36  2  0  0  0  0
 35 33  1  0  0  0  0
 37 32  1  0  0  0  0
 38 42  1  0  0  0  0
 38 43  1  0  0  0  0
 39 41  1  0  0  0  0
 40 41  1  0  0  0  0
 42 40  1  0  0  0  0
 43 39  1  0  0  0  0
M  END
>  <MODEL>
9

>  <REMARK>
 VINA RESULT:      -7.1      2.543      6.872
  Name = 
  9 active torsions:
  status: ('A' for Active; 'I' for Inactive)
    1  A    between atoms: C_1  and  C_34
    2  A    between atoms: C_1  and  C_35
    3  A    between atoms: C_3  and  C_4
    4  A    between atoms: C_6  and  C_12
    5  A    between atoms: C_8  and  C_34
    6  A    between atoms: C_11  and  N_14
    7  A    between atoms: N_13  and  C_38
    8  A    between atoms: C_19  and  O_25
    9  A    between atoms: C_34  and  C_38
                            x       y       z     vdW  Elec       q    Type
                         _______ _______ _______ _____ _____    ______ ____

>  <TORSDO>
F 9

$$$$
