=
 OpenBabel10272413213D

 32 37  0  0  0  0  0  0  0  0999 V2000
  189.6090  176.4850  146.6030 C   0  0  0  0  0  3  0  0  0  0  0  0
  188.0040  178.0900  142.0670 C   0  0  0  0  0  0  0  0  0  0  0  0
  183.1760  179.0320  143.0150 C   0  0  0  0  0  2  0  0  0  0  0  0
  182.8470  178.1540  141.8070 C   0  0  0  0  0  2  0  0  0  0  0  0
  188.3510  177.9040  139.4890 C   0  0  0  0  0  0  0  0  0  0  0  0
  189.6960  177.4030  139.1680 C   0  0  0  0  0  0  0  0  0  0  0  0
  189.6590  177.8430  143.8520 C   0  0  0  0  0  0  0  0  0  0  0  0
  187.2460  178.3000  144.3910 C   0  0  0  0  0  3  0  0  0  0  0  0
  187.8580  178.0390  137.1080 N   0  0  0  0  0  0  0  0  0  0  0  0
  188.5760  176.8580  145.8490 C   0  0  0  0  0  3  0  0  0  0  0  0
  184.5570  178.7190  143.5010 C   0  0  0  0  0  2  0  0  0  0  0  0
  186.9500  178.3310  143.0810 C   0  0  0  0  0  0  0  0  0  0  0  0
  185.5650  178.6210  142.6250 C   0  0  0  0  0  0  0  0  0  0  0  0
  186.3560  178.4800  140.2660 N   0  0  0  0  0  0  0  0  0  0  0  0
  189.2850  177.9030  136.7870 C   0  0  0  0  0  2  0  0  0  0  0  0
  191.5330  177.6030  145.4960 C   0  0  0  0  0  3  0  0  0  0  0  0
  188.6240  178.0320  144.9300 C   0  0  0  0  0  0  0  0  0  0  0  0
  190.0650  177.3540  137.9170 N   0  0  0  0  0  0  0  0  0  0  0  0
  190.9540  177.7110  144.1400 C   0  0  0  0  0  3  0  0  0  0  0  0
  190.9500  177.1070  146.6010 C   0  0  0  0  0  0  0  0  0  0  0  0
  183.9490  178.1620  140.7290 C   0  0  0  0  0  2  0  0  0  0  0  0
  185.2560  178.8600  141.1570 C   0  0  0  0  0  0  0  0  0  0  0  0
  186.2680  178.5150  138.9430 N   0  0  0  0  0  0  0  0  0  0  0  0
  189.2680  177.8850  142.4380 C   0  0  0  0  0  2  0  0  0  0  0  0
  190.5350  176.8220  140.1580 N   0  0  0  0  0  1  0  0  0  0  0  0
  186.9030  178.2860  136.0420 C   0  0  0  0  0  1  0  0  0  0  0  0
  187.6090  178.1320  140.6460 C   0  0  0  0  0  0  0  0  0  0  0  0
  187.4780  178.1630  138.4770 C   0  0  0  0  0  0  0  0  0  0  0  0
  192.6760  176.0500  148.1890 C   0  0  0  0  0  0  0  0  0  0  0  0
  191.6890  177.0260  147.8290 N   0  0  0  0  0  2  0  0  0  0  0  0
  193.0320  175.1500  147.3820 O   0  0  0  0  0  0  0  0  0  0  0  0
  193.2980  176.1070  149.5370 C   0  0  0  0  0  1  0  0  0  0  0  0
  2 24  1  0  0  0  0
  2 12  2  0  0  0  0
  3 11  1  0  0  0  0
  4  3  1  0  0  0  0
  5 27  2  0  0  0  0
  6  5  1  0  0  0  0
  6 25  1  0  0  0  0
  7 19  2  0  0  0  0
  7 17  1  0  0  0  0
  8 17  2  0  0  0  0
  9 28  1  0  0  0  0
 10  1  2  0  0  0  0
 12  8  1  0  0  0  0
 13 12  1  0  0  0  0
 13 11  1  0  0  0  0
 14 27  1  0  0  0  0
 14 22  1  0  0  0  0
 15  9  1  0  0  0  0
 15 18  1  0  0  0  0
 16 20  2  0  0  0  0
 17 10  1  0  0  0  0
 18  6  2  0  0  0  0
 19 16  1  0  0  0  0
 20  1  1  0  0  0  0
 20 30  1  0  0  0  0
 21 22  1  0  0  0  0
 21  4  1  0  0  0  0
 22 13  2  0  0  0  0
 23 14  1  0  0  0  0
 24  7  1  0  0  0  0
 26  9  1  0  0  0  0
 27  2  1  0  0  0  0
 28 23  2  0  0  0  0
 28  5  1  0  0  0  0
 29 32  1  0  0  0  0
 30 29  1  0  0  0  0
 31 29  2  0  0  0  0
M  END
>  <MODEL>
1

>  <REMARK>
 VINA RESULT:     -10.3      0.000      0.000
  Name = 
  1 active torsions:
  status: ('A' for Active; 'I' for Inactive)
    1  A    between atoms: N_10  and  C_24
                            x       y       z     vdW  Elec       q    Type
                         _______ _______ _______ _____ _____    ______ ____

>  <TORSDO>
F 1

$$$$
=
 OpenBabel10272413213D

 32 37  0  0  0  0  0  0  0  0999 V2000
  190.7540  178.2400  145.0540 C   0  0  0  0  0  3  0  0  0  0  0  0
  187.0270  177.9760  141.6250 C   0  0  0  0  0  0  0  0  0  0  0  0
  189.6350  177.9310  137.3480 C   0  0  0  0  0  2  0  0  0  0  0  0
  188.7460  179.0860  136.8830 C   0  0  0  0  0  2  0  0  0  0  0  0
  184.5480  178.6010  141.1110 C   0  0  0  0  0  0  0  0  0  0  0  0
  183.7950  178.8540  142.3500 C   0  0  0  0  0  0  0  0  0  0  0  0
  188.0630  177.4910  143.7880 C   0  0  0  0  0  0  0  0  0  0  0  0
  189.4270  177.4680  141.6750 C   0  0  0  0  0  3  0  0  0  0  0  0
  182.5350  179.0630  139.8210 N   0  0  0  0  0  0  0  0  0  0  0  0
  190.4160  178.2610  143.7660 C   0  0  0  0  0  3  0  0  0  0  0  0
  189.5880  177.8320  138.8410 C   0  0  0  0  0  2  0  0  0  0  0  0
  188.3330  177.7680  140.9560 C   0  0  0  0  0  0  0  0  0  0  0  0
  188.4110  177.8850  139.4760 C   0  0  0  0  0  0  0  0  0  0  0  0
  185.9590  178.3260  139.4230 N   0  0  0  0  0  0  0  0  0  0  0  0
  181.7120  178.9480  141.0310 C   0  0  0  0  0  2  0  0  0  0  0  0
  188.8840  176.9790  146.0970 C   0  0  0  0  0  3  0  0  0  0  0  0
  189.4260  177.3160  143.1720 C   0  0  0  0  0  0  0  0  0  0  0  0
  182.5110  179.0740  142.2680 N   0  0  0  0  0  0  0  0  0  0  0  0
  187.8480  177.2780  145.0860 C   0  0  0  0  0  3  0  0  0  0  0  0
  190.1750  177.3560  146.0870 C   0  0  0  0  0  0  0  0  0  0  0  0
  187.3350  179.0580  137.5050 C   0  0  0  0  0  2  0  0  0  0  0  0
  187.1550  178.0210  138.6320 C   0  0  0  0  0  0  0  0  0  0  0  0
  184.7730  178.5800  138.8840 N   0  0  0  0  0  0  0  0  0  0  0  0
  186.9080  177.8220  142.9440 C   0  0  0  0  0  2  0  0  0  0  0  0
  184.4480  179.0250  143.6010 N   0  0  0  0  0  1  0  0  0  0  0  0
  181.8930  179.2500  138.5310 C   0  0  0  0  0  1  0  0  0  0  0  0
  185.8680  178.3090  140.7750 C   0  0  0  0  0  0  0  0  0  0  0  0
  183.9230  178.7490  139.9110 C   0  0  0  0  0  0  0  0  0  0  0  0
  192.0240  175.9930  147.2430 C   0  0  0  0  0  0  0  0  0  0  0  0
  191.0290  177.0230  147.1920 N   0  0  0  0  0  2  0  0  0  0  0  0
  192.2800  175.2770  146.2390 O   0  0  0  0  0  0  0  0  0  0  0  0
  192.7770  175.7710  148.5050 C   0  0  0  0  0  1  0  0  0  0  0  0
  1 20  1  0  0  0  0
  2 24  1  0  0  0  0
  3 11  1  0  0  0  0
  4  3  1  0  0  0  0
  4 21  1  0  0  0  0
  5  6  1  0  0  0  0
  6 25  1  0  0  0  0
  7 19  2  0  0  0  0
  8 17  2  0  0  0  0
  9 28  1  0  0  0  0
  9 15  1  0  0  0  0
 10  1  2  0  0  0  0
 11 13  1  0  0  0  0
 12  2  2  0  0  0  0
 12  8  1  0  0  0  0
 13 12  1  0  0  0  0
 14 27  1  0  0  0  0
 15 18  1  0  0  0  0
 17 10  1  0  0  0  0
 17  7  1  0  0  0  0
 18  6  2  0  0  0  0
 19 16  1  0  0  0  0
 20 16  2  0  0  0  0
 20 30  1  0  0  0  0
 21 22  1  0  0  0  0
 22 14  1  0  0  0  0
 22 13  2  0  0  0  0
 23 14  1  0  0  0  0
 23 28  2  0  0  0  0
 24  7  1  0  0  0  0
 26  9  1  0  0  0  0
 27  5  2  0  0  0  0
 27  2  1  0  0  0  0
 28  5  1  0  0  0  0
 29 32  1  0  0  0  0
 30 29  1  0  0  0  0
 31 29  2  0  0  0  0
M  END
>  <MODEL>
2

>  <REMARK>
 VINA RESULT:     -10.2      1.640      4.588
  Name = 
  1 active torsions:
  status: ('A' for Active; 'I' for Inactive)
    1  A    between atoms: N_10  and  C_24
                            x       y       z     vdW  Elec       q    Type
                         _______ _______ _______ _____ _____    ______ ____

>  <TORSDO>
F 1

$$$$
=
 OpenBabel10272413213D

 32 37  0  0  0  0  0  0  0  0999 V2000
  189.6350  178.3060  138.0490 C   0  0  0  0  0  3  0  0  0  0  0  0
  188.4580  177.5600  142.9260 C   0  0  0  0  0  0  0  0  0  0  0  0
  183.6140  178.8350  142.9690 C   0  0  0  0  0  2  0  0  0  0  0  0
  183.9480  179.7670  144.1360 C   0  0  0  0  0  2  0  0  0  0  0  0
  189.3680  177.5700  145.3700 C   0  0  0  0  0  0  0  0  0  0  0  0
  190.8330  177.4290  145.3930 C   0  0  0  0  0  0  0  0  0  0  0  0
  189.6560  177.0590  140.8520 C   0  0  0  0  0  0  0  0  0  0  0  0
  187.2270  177.7080  140.8100 C   0  0  0  0  0  2  0  0  0  0  0  0
  189.3630  177.6610  147.8030 N   0  0  0  0  0  0  0  0  0  0  0  0
  188.7200  178.4230  139.0100 C   0  0  0  0  0  3  0  0  0  0  0  0
  184.8640  178.5110  142.2120 C   0  0  0  0  0  2  0  0  0  0  0  0
  187.2210  177.8080  142.1490 C   0  0  0  0  0  0  0  0  0  0  0  0
  185.9710  178.1550  142.8750 C   0  0  0  0  0  0  0  0  0  0  0  0
  187.2080  177.9300  145.0260 N   0  0  0  0  0  0  0  0  0  0  0  0
  190.7410  177.1560  147.8430 C   0  0  0  0  0  2  0  0  0  0  0  0
  191.0710  176.4540  138.8780 C   0  0  0  0  0  3  0  0  0  0  0  0
  188.4440  177.3450  140.0040 C   0  0  0  0  0  0  0  0  0  0  0  0
  191.4330  177.3090  146.5450 N   0  0  0  0  0  0  0  0  0  0  0  0
  190.7920  176.6100  140.3200 C   0  0  0  0  0  3  0  0  0  0  0  0
  190.5470  177.1580  137.8590 C   0  0  0  0  0  0  0  0  0  0  0  0
  185.1340  179.2730  144.9890 C   0  0  0  0  0  2  0  0  0  0  0  0
  185.8950  178.0730  144.3900 C   0  0  0  0  0  0  0  0  0  0  0  0
  187.3860  177.9340  146.3420 N   0  0  0  0  0  0  0  0  0  0  0  0
  189.5820  177.1900  142.3120 C   0  0  0  0  0  3  0  0  0  0  0  0
  191.6180  177.5840  144.2180 N   0  0  0  0  0  1  0  0  0  0  0  0
  188.6340  177.8560  149.0450 C   0  0  0  0  0  1  0  0  0  0  0  0
  188.3820  177.6930  144.3930 C   0  0  0  0  0  0  0  0  0  0  0  0
  188.6960  177.7190  146.5440 C   0  0  0  0  0  0  0  0  0  0  0  0
  190.7000  175.7570  135.7070 C   0  0  0  0  0  0  0  0  0  0  0  0
  190.9820  176.9080  136.5130 N   0  0  0  0  0  2  0  0  0  0  0  0
  189.9580  174.8290  136.1250 O   0  0  0  0  0  0  0  0  0  0  0  0
  191.2880  175.6610  134.3460 C   0  0  0  0  0  1  0  0  0  0  0  0
  1 10  1  0  0  0  0
  2 27  1  0  0  0  0
  3  4  1  0  0  0  0
  4 21  1  0  0  0  0
  5  6  1  0  0  0  0
  5 28  1  0  0  0  0
  6 18  2  0  0  0  0
  7 24  2  0  0  0  0
  8 12  1  0  0  0  0
  9 15  1  0  0  0  0
  9 26  1  0  0  0  0
 10 17  2  0  0  0  0
 11 13  1  0  0  0  0
 11  3  1  0  0  0  0
 12 13  1  0  0  0  0
 12  2  2  0  0  0  0
 13 22  2  0  0  0  0
 14 23  1  0  0  0  0
 16 19  2  0  0  0  0
 17  8  1  0  0  0  0
 17  7  1  0  0  0  0
 18 15  1  0  0  0  0
 19  7  1  0  0  0  0
 20  1  2  0  0  0  0
 20 16  1  0  0  0  0
 22 21  1  0  0  0  0
 22 14  1  0  0  0  0
 23 28  2  0  0  0  0
 24  2  1  0  0  0  0
 25  6  1  0  0  0  0
 27 14  1  0  0  0  0
 27  5  2  0  0  0  0
 28  9  1  0  0  0  0
 29 31  2  0  0  0  0
 29 30  1  0  0  0  0
 30 20  1  0  0  0  0
 32 29  1  0  0  0  0
M  END
>  <MODEL>
3

>  <REMARK>
 VINA RESULT:     -10.0      2.941      7.424
  Name = 
  1 active torsions:
  status: ('A' for Active; 'I' for Inactive)
    1  A    between atoms: N_10  and  C_24
                            x       y       z     vdW  Elec       q    Type
                         _______ _______ _______ _____ _____    ______ ____

>  <TORSDO>
F 1

$$$$
=
 OpenBabel10272413213D

 32 37  0  0  1  0  0  0  0  0999 V2000
  190.3450  176.4160  140.6820 C   0  0  0  0  0  3  0  0  0  0  0  0
  186.0340  178.4540  142.4110 C   0  0  0  0  0  0  0  0  0  0  0  0
  186.8270  178.3700  147.3560 C   0  0  0  0  0  2  0  0  0  0  0  0
  185.4760  177.6630  147.4830 C   0  0  0  0  0  2  0  0  0  0  0  0
  183.4860  178.7660  141.9560 C   0  0  0  0  0  0  0  0  0  0  0  0
  183.1700  178.5670  140.5330 C   0  0  0  0  0  0  0  0  0  0  0  0
  187.8540  178.2030  140.7940 C   0  0  2  0  0  3  0  0  0  0  0  0
  188.3110  178.1380  143.2660 C   0  0  0  0  0  3  0  0  0  0  0  0
  181.1310  179.2090  142.3910 N   0  0  0  0  0  0  0  0  0  0  0  0
  189.5990  176.7250  141.7420 C   0  0  0  0  0  3  0  0  0  0  0  0
  187.3390  178.2260  145.9570 C   0  0  0  0  0  2  0  0  0  0  0  0
  187.0080  178.3360  143.5220 C   0  0  0  0  0  0  0  0  0  0  0  0
  186.5210  178.4520  144.9210 C   0  0  0  0  0  0  0  0  0  0  0  0
  184.2220  178.8480  144.0450 N   0  0  0  0  0  0  0  0  0  0  0  0
  180.8790  179.3800  140.9540 C   0  0  0  0  0  2  0  0  0  0  0  0
  189.5490  178.0220  138.9600 C   0  0  0  0  0  3  0  0  0  0  0  0
  188.8840  178.0260  141.8800 C   0  0  0  0  0  0  0  0  0  0  0  0
  181.9520  178.7930  140.1230 N   0  0  0  0  0  0  0  0  0  0  0  0
  188.1950  178.2520  139.5070 C   0  0  0  0  0  3  0  0  0  0  0  0
  190.5240  177.2530  139.4770 C   0  0  0  0  0  0  0  0  0  0  0  0
  184.4820  178.0430  146.3680 C   0  0  0  0  0  2  0  0  0  0  0  0
  185.0940  178.8760  145.2230 C   0  0  0  0  0  0  0  0  0  0  0  0
  182.9180  179.0880  144.0970 N   0  0  0  0  0  0  0  0  0  0  0  0
  186.4440  178.4130  141.1420 C   0  0  0  0  0  3  0  0  0  0  0  0
  184.1040  177.9840  139.6340 N   0  0  0  0  0  1  0  0  0  0  0  0
  180.0620  179.4620  143.3420 C   0  0  0  0  0  1  0  0  0  0  0  0
  184.6170  178.6650  142.7620 C   0  0  0  0  0  0  0  0  0  0  0  0
  182.4760  179.0350  142.8290 C   0  0  0  0  0  0  0  0  0  0  0  0
  192.2420  175.9280  138.0960 C   0  0  0  0  0  0  0  0  0  0  0  0
  191.7660  177.0980  138.7740 N   0  0  0  0  0  2  0  0  0  0  0  0
  191.5400  174.8850  138.0160 O   0  0  0  0  0  0  0  0  0  0  0  0
  193.5860  175.9490  137.4650 C   0  0  0  0  0  1  0  0  0  0  0  0
  1 10  1  0  0  0  0
  2 27  1  0  0  0  0
  2 12  1  0  0  0  0
  3  4  1  0  0  0  0
  5 27  2  0  0  0  0
  5 28  1  0  0  0  0
  6  5  1  0  0  0  0
  7 19  1  1  0  0  0
  7 24  1  0  0  0  0
  7 17  1  0  0  0  0
  8 12  2  0  0  0  0
  9 28  1  0  0  0  0
  9 26  1  0  0  0  0
 10 17  2  0  0  0  0
 11  3  1  0  0  0  0
 12 13  1  0  0  0  0
 13 22  2  0  0  0  0
 13 11  1  0  0  0  0
 14 23  1  0  0  0  0
 14 22  1  0  0  0  0
 15  9  1  0  0  0  0
 16 20  1  0  0  0  0
 16 19  2  0  0  0  0
 17  8  1  0  0  0  0
 18  6  2  0  0  0  0
 18 15  1  0  0  0  0
 20  1  2  0  0  0  0
 21  4  1  0  0  0  0
 22 21  1  0  0  0  0
 24  2  2  0  0  0  0
 25  6  1  0  0  0  0
 27 14  1  0  0  0  0
 28 23  2  0  0  0  0
 29 30  1  0  0  0  0
 30 20  1  0  0  0  0
 31 29  2  0  0  0  0
 32 29  1  0  0  0  0
M  END
>  <MODEL>
4

>  <REMARK>
 VINA RESULT:      -9.0      3.417      6.505
  Name = 
  1 active torsions:
  status: ('A' for Active; 'I' for Inactive)
    1  A    between atoms: N_10  and  C_24
                            x       y       z     vdW  Elec       q    Type
                         _______ _______ _______ _____ _____    ______ ____

>  <TORSDO>
F 1

$$$$
=
 OpenBabel10272413213D

 32 37  0  0  1  0  0  0  0  0999 V2000
  190.7790  176.1630  139.1990 C   0  0  0  0  0  3  0  0  0  0  0  0
  186.9420  178.1280  141.8710 C   0  0  0  0  0  0  0  0  0  0  0  0
  188.7640  177.8760  146.5300 C   0  0  0  0  0  2  0  0  0  0  0  0
  187.4680  177.1620  146.9160 C   0  0  0  0  0  2  0  0  0  0  0  0
  184.3560  178.4480  141.9780 C   0  0  0  0  0  0  0  0  0  0  0  0
  183.7450  178.2970  140.6470 C   0  0  0  0  0  0  0  0  0  0  0  0
  188.3770  177.9380  139.8970 C   0  0  2  0  0  3  0  0  0  0  0  0
  189.3470  177.7880  142.2130 C   0  0  0  0  0  3  0  0  0  0  0  0
  182.1500  178.8700  142.9170 N   0  0  0  0  0  0  0  0  0  0  0  0
  190.2770  176.4330  140.4030 C   0  0  0  0  0  3  0  0  0  0  0  0
  188.9670  177.7810  145.0500 C   0  0  0  0  0  2  0  0  0  0  0  0
  188.1280  177.9740  142.7450 C   0  0  0  0  0  0  0  0  0  0  0  0
  187.9500  178.0410  144.2190 C   0  0  0  0  0  0  0  0  0  0  0  0
  185.5200  178.4600  143.8650 N   0  0  0  0  0  0  0  0  0  0  0  0
  181.6000  179.0890  141.5730 C   0  0  0  0  0  2  0  0  0  0  0  0
  189.6430  177.8240  137.7410 C   0  0  0  0  0  3  0  0  0  0  0  0
  189.6120  177.7260  140.7330 C   0  0  0  0  0  0  0  0  0  0  0  0
  182.4690  178.5340  140.5130 N   0  0  0  0  0  0  0  0  0  0  0  0
  188.4370  178.0310  138.5690 C   0  0  0  0  0  3  0  0  0  0  0  0
  190.7020  177.0410  138.0130 C   0  0  0  0  0  0  0  0  0  0  0  0
  186.2620  177.5770  146.0500 C   0  0  0  0  0  2  0  0  0  0  0  0
  186.6210  178.4510  144.8310 C   0  0  0  0  0  0  0  0  0  0  0  0
  184.2570  178.6950  144.2000 N   0  0  0  0  0  0  0  0  0  0  0  0
  187.0730  178.1320  140.5430 C   0  0  0  0  0  3  0  0  0  0  0  0
  184.4650  177.7480  139.5510 N   0  0  0  0  0  1  0  0  0  0  0  0
  181.3070  179.0870  144.0800 C   0  0  0  0  0  1  0  0  0  0  0  0
  185.6330  178.3220  142.5220 C   0  0  0  0  0  0  0  0  0  0  0  0
  183.5560  178.6840  143.0530 C   0  0  0  0  0  0  0  0  0  0  0  0
  191.9800  175.8400  136.1310 C   0  0  0  0  0  0  0  0  0  0  0  0
  191.7660  176.9130  137.0570 N   0  0  0  0  0  2  0  0  0  0  0  0
  191.1700  174.8790  136.0420 O   0  0  0  0  0  0  0  0  0  0  0  0
  193.1770  175.8670  135.2510 C   0  0  0  0  0  1  0  0  0  0  0  0
  1 10  1  0  0  0  0
  2 27  1  0  0  0  0
  2 12  1  0  0  0  0
  3  4  1  0  0  0  0
  5 27  2  0  0  0  0
  5 28  1  0  0  0  0
  6  5  1  0  0  0  0
  7 19  1  1  0  0  0
  7 24  1  0  0  0  0
  7 17  1  0  0  0  0
  8 12  2  0  0  0  0
  9 28  1  0  0  0  0
  9 26  1  0  0  0  0
 10 17  2  0  0  0  0
 11  3  1  0  0  0  0
 12 13  1  0  0  0  0
 13 22  2  0  0  0  0
 13 11  1  0  0  0  0
 14 23  1  0  0  0  0
 14 22  1  0  0  0  0
 15  9  1  0  0  0  0
 16 20  1  0  0  0  0
 16 19  2  0  0  0  0
 17  8  1  0  0  0  0
 18  6  2  0  0  0  0
 18 15  1  0  0  0  0
 20  1  2  0  0  0  0
 21  4  1  0  0  0  0
 22 21  1  0  0  0  0
 24  2  2  0  0  0  0
 25  6  1  0  0  0  0
 27 14  1  0  0  0  0
 28 23  2  0  0  0  0
 29 30  1  0  0  0  0
 30 20  1  0  0  0  0
 31 29  2  0  0  0  0
 32 29  1  0  0  0  0
M  END
>  <MODEL>
5

>  <REMARK>
 VINA RESULT:      -8.9      3.198      7.058
  Name = 
  1 active torsions:
  status: ('A' for Active; 'I' for Inactive)
    1  A    between atoms: N_10  and  C_24
                            x       y       z     vdW  Elec       q    Type
                         _______ _______ _______ _____ _____    ______ ____

>  <TORSDO>
F 1

$$$$
=
 OpenBabel10272413213D

 32 37  0  0  0  0  0  0  0  0999 V2000
  186.6390  177.3600  144.7950 C   0  0  0  0  0  3  0  0  0  0  0  0
  187.8420  177.7350  139.8820 C   0  0  0  0  0  0  0  0  0  0  0  0
  183.3720  178.7380  137.8550 C   0  0  0  0  0  2  0  0  0  0  0  0
  183.6340  177.5770  136.8930 C   0  0  0  0  0  2  0  0  0  0  0  0
  189.4680  176.9240  138.0130 C   0  0  0  0  0  0  0  0  0  0  0  0
  190.7190  176.3990  138.5850 C   0  0  0  0  0  0  0  0  0  0  0  0
  188.2740  177.9910  142.2770 C   0  0  0  0  0  0  0  0  0  0  0  0
  186.0040  178.4950  141.3190 C   0  0  0  0  0  3  0  0  0  0  0  0
  190.3180  176.4460  135.7810 N   0  0  0  0  0  0  0  0  0  0  0  0
  186.2040  177.5020  143.5440 C   0  0  0  0  0  3  0  0  0  0  0  0
  184.2490  178.5980  139.0600 C   0  0  0  0  0  2  0  0  0  0  0  0
  186.4470  178.1900  140.0880 C   0  0  0  0  0  0  0  0  0  0  0  0
  185.5490  178.3150  138.9100 C   0  0  0  0  0  0  0  0  0  0  0  0
  187.4400  177.6150  137.4460 N   0  0  0  0  0  0  0  0  0  0  0  0
  191.6760  176.2780  136.3150 C   0  0  0  0  0  2  0  0  0  0  0  0
  188.9660  178.2250  144.6720 C   0  0  0  0  0  3  0  0  0  0  0  0
  186.8550  178.4110  142.5570 C   0  0  0  0  0  0  0  0  0  0  0  0
  191.6810  176.0510  137.7760 N   0  0  0  0  0  0  0  0  0  0  0  0
  189.2010  177.9740  143.2350 C   0  0  0  0  0  3  0  0  0  0  0  0
  187.8390  178.0030  145.3720 C   0  0  0  0  0  0  0  0  0  0  0  0
  185.1310  177.3490  136.6050 C   0  0  0  0  0  2  0  0  0  0  0  0
  186.0850  178.1710  137.4960 C   0  0  0  0  0  0  0  0  0  0  0  0
  188.0650  177.3160  136.3140 N   0  0  0  0  0  0  0  0  0  0  0  0
  188.6920  177.6680  140.9080 C   0  0  0  0  0  2  0  0  0  0  0  0
  190.8430  176.1090  139.9720 N   0  0  0  0  0  1  0  0  0  0  0  0
  190.1000  176.3910  134.3460 C   0  0  0  0  0  1  0  0  0  0  0  0
  188.2600  177.4110  138.5050 C   0  0  0  0  0  0  0  0  0  0  0  0
  189.2920  176.8960  136.6630 C   0  0  0  0  0  0  0  0  0  0  0  0
  188.4960  177.5260  147.8120 C   0  0  0  0  0  0  0  0  0  0  0  0
  187.8090  178.2520  146.7850 N   0  0  0  0  0  2  0  0  0  0  0  0
  189.2720  176.5730  147.5350 O   0  0  0  0  0  0  0  0  0  0  0  0
  188.2960  177.9110  149.2330 C   0  0  0  0  0  1  0  0  0  0  0  0
  1 20  1  0  0  0  0
  2 12  2  0  0  0  0
  2 24  1  0  0  0  0
  3 11  1  0  0  0  0
  4  3  1  0  0  0  0
  5 27  2  0  0  0  0
  5  6  1  0  0  0  0
  6 25  1  0  0  0  0
  7 17  1  0  0  0  0
  7 19  2  0  0  0  0
  8 17  2  0  0  0  0
  9 15  1  0  0  0  0
  9 28  1  0  0  0  0
 10  1  2  0  0  0  0
 12  8  1  0  0  0  0
 13 11  1  0  0  0  0
 13 12  1  0  0  0  0
 14 22  1  0  0  0  0
 14 27  1  0  0  0  0
 15 18  1  0  0  0  0
 16 20  2  0  0  0  0
 17 10  1  0  0  0  0
 18  6  2  0  0  0  0
 19 16  1  0  0  0  0
 20 30  1  0  0  0  0
 21  4  1  0  0  0  0
 21 22  1  0  0  0  0
 22 13  2  0  0  0  0
 23 28  2  0  0  0  0
 23 14  1  0  0  0  0
 24  7  1  0  0  0  0
 26  9  1  0  0  0  0
 27  2  1  0  0  0  0
 28  5  1  0  0  0  0
 29 32  1  0  0  0  0
 30 29  1  0  0  0  0
 31 29  2  0  0  0  0
M  END
>  <MODEL>
6

>  <REMARK>
 VINA RESULT:      -8.3      2.293      3.413
  Name = 
  1 active torsions:
  status: ('A' for Active; 'I' for Inactive)
    1  A    between atoms: N_10  and  C_24
                            x       y       z     vdW  Elec       q    Type
                         _______ _______ _______ _____ _____    ______ ____

>  <TORSDO>
F 1

$$$$
=
 OpenBabel10272413213D

 32 37  0  0  1  0  0  0  0  0999 V2000
  190.7130  176.0570  138.6310 C   0  0  0  0  0  3  0  0  0  0  0  0
  188.4850  177.7650  142.8550 C   0  0  0  0  0  0  0  0  0  0  0  0
  191.9780  176.7310  146.2920 C   0  0  0  0  0  2  0  0  0  0  0  0
  190.8780  176.0240  147.0860 C   0  0  0  0  0  2  0  0  0  0  0  0
  186.2040  178.1810  144.0490 C   0  0  0  0  0  0  0  0  0  0  0  0
  185.1010  178.2610  143.0780 C   0  0  0  0  0  0  0  0  0  0  0  0
  188.9850  177.8120  140.4600 C   0  0  2  0  0  3  0  0  0  0  0  0
  190.7780  177.2710  142.1380 C   0  0  0  0  0  3  0  0  0  0  0  0
  184.6110  178.5540  145.8530 N   0  0  0  0  0  0  0  0  0  0  0  0
  190.7640  176.1640  139.9580 C   0  0  0  0  0  3  0  0  0  0  0  0
  191.5630  176.8520  144.8590 C   0  0  0  0  0  2  0  0  0  0  0  0
  189.8990  177.4280  143.1410 C   0  0  0  0  0  0  0  0  0  0  0  0
  190.3320  177.2790  144.5550 C   0  0  0  0  0  0  0  0  0  0  0  0
  188.0180  177.8560  145.2800 N   0  0  0  0  0  0  0  0  0  0  0  0
  183.5960  178.9980  144.8890 C   0  0  0  0  0  2  0  0  0  0  0  0
  189.2670  177.9690  137.9770 C   0  0  0  0  0  3  0  0  0  0  0  0
  190.4230  177.4220  140.6840 C   0  0  0  0  0  0  0  0  0  0  0  0
  183.9090  178.5720  143.5080 N   0  0  0  0  0  0  0  0  0  0  0  0
  188.5200  178.1030  139.2450 C   0  0  0  0  0  3  0  0  0  0  0  0
  190.2600  177.1070  137.6950 C   0  0  0  0  0  0  0  0  0  0  0  0
  189.4760  176.6200  146.8470 C   0  0  0  0  0  2  0  0  0  0  0  0
  189.4070  177.6500  145.7020 C   0  0  0  0  0  0  0  0  0  0  0  0
  187.0260  178.0930  146.1290 N   0  0  0  0  0  0  0  0  0  0  0  0
  188.0750  177.9640  141.6010 C   0  0  0  0  0  3  0  0  0  0  0  0
  185.2630  177.8520  141.7260 N   0  0  0  0  0  1  0  0  0  0  0  0
  184.3300  178.6300  147.2760 C   0  0  0  0  0  1  0  0  0  0  0  0
  187.5710  177.9170  144.0030 C   0  0  0  0  0  0  0  0  0  0  0  0
  185.9290  178.2870  145.3780 C   0  0  0  0  0  0  0  0  0  0  0  0
  191.3830  175.9450  135.6940 C   0  0  0  0  0  0  0  0  0  0  0  0
  190.8350  177.0780  136.3800 N   0  0  0  0  0  2  0  0  0  0  0  0
  191.3590  174.7940  136.2060 O   0  0  0  0  0  0  0  0  0  0  0  0
  191.9810  176.1290  134.3470 C   0  0  0  0  0  1  0  0  0  0  0  0
  1 10  1  0  0  0  0
  2 12  1  0  0  0  0
  2 27  1  0  0  0  0
  3  4  1  0  0  0  0
  5 28  1  0  0  0  0
  6 18  2  0  0  0  0
  6  5  1  0  0  0  0
  7 19  1  1  0  0  0
  7 17  1  0  0  0  0
  7 24  1  0  0  0  0
  8 12  2  0  0  0  0
  9 26  1  0  0  0  0
 10 17  2  0  0  0  0
 11  3  1  0  0  0  0
 12 13  1  0  0  0  0
 13 11  1  0  0  0  0
 13 22  2  0  0  0  0
 14 22  1  0  0  0  0
 14 23  1  0  0  0  0
 15  9  1  0  0  0  0
 16 19  2  0  0  0  0
 17  8  1  0  0  0  0
 18 15  1  0  0  0  0
 20 16  1  0  0  0  0
 20  1  2  0  0  0  0
 21  4  1  0  0  0  0
 22 21  1  0  0  0  0
 24  2  2  0  0  0  0
 25  6  1  0  0  0  0
 27  5  2  0  0  0  0
 27 14  1  0  0  0  0
 28  9  1  0  0  0  0
 28 23  2  0  0  0  0
 29 31  2  0  0  0  0
 29 30  1  0  0  0  0
 30 20  1  0  0  0  0
 32 29  1  0  0  0  0
M  END
>  <MODEL>
7

>  <REMARK>
 VINA RESULT:      -8.3      3.086      7.906
  Name = 
  1 active torsions:
  status: ('A' for Active; 'I' for Inactive)
    1  A    between atoms: N_10  and  C_24
                            x       y       z     vdW  Elec       q    Type
                         _______ _______ _______ _____ _____    ______ ____

>  <TORSDO>
F 1

$$$$
=
 OpenBabel10272413213D

 32 37  0  0  1  0  0  0  0  0999 V2000
  191.8600  177.6190  145.9690 C   0  0  0  0  0  3  0  0  0  0  0  0
  187.7660  177.6330  142.9740 C   0  0  0  0  0  0  0  0  0  0  0  0
  189.8750  177.4550  138.4340 C   0  0  0  0  0  2  0  0  0  0  0  0
  189.0190  178.6710  138.0730 C   0  0  0  0  0  2  0  0  0  0  0  0
  185.2930  178.4250  142.7400 C   0  0  0  0  0  0  0  0  0  0  0  0
  184.7000  178.7160  144.0560 C   0  0  0  0  0  0  0  0  0  0  0  0
  189.0000  177.0610  145.0080 C   0  0  0  0  0  0  0  0  0  0  0  0
  190.1170  176.9670  142.7570 C   0  0  0  0  0  3  0  0  0  0  0  0
  183.1840  179.0310  141.6830 N   0  0  0  0  0  0  0  0  0  0  0  0
  191.3820  177.6740  144.7260 C   0  0  0  0  0  3  0  0  0  0  0  0
  189.9870  177.3450  139.9230 C   0  0  0  0  0  2  0  0  0  0  0  0
  188.9730  177.3460  142.1640 C   0  0  0  0  0  0  0  0  0  0  0  0
  188.8940  177.4700  140.6850 C   0  0  0  0  0  0  0  0  0  0  0  0
  186.4860  178.0730  140.9060 N   0  0  0  0  0  0  0  0  0  0  0  0
  182.4940  178.9600  142.9770 C   0  0  0  0  0  2  0  0  0  0  0  0
  190.0360  176.4750  147.2110 C   0  0  0  0  0  3  0  0  0  0  0  0
  190.2720  176.8020  144.2440 C   0  0  1  0  0  3  0  0  0  0  0  0
  183.4330  179.0210  144.1180 N   0  0  0  0  0  0  0  0  0  0  0  0
  188.9170  176.8510  146.3220 C   0  0  0  0  0  3  0  0  0  0  0  0
  191.3410  176.7650  147.0580 C   0  0  0  0  0  0  0  0  0  0  0  0
  187.6870  178.7300  138.8480 C   0  0  0  0  0  2  0  0  0  0  0  0
  187.5640  177.6970  139.9860 C   0  0  0  0  0  0  0  0  0  0  0  0
  185.2680  178.4100  140.5030 N   0  0  0  0  0  0  0  0  0  0  0  0
  187.7840  177.4750  144.2990 C   0  0  0  0  0  3  0  0  0  0  0  0
  185.4970  178.8320  145.2270 N   0  0  0  0  0  1  0  0  0  0  0  0
  182.4170  179.2720  140.4730 C   0  0  0  0  0  1  0  0  0  0  0  0
  186.5450  178.0500  142.2590 C   0  0  0  0  0  0  0  0  0  0  0  0
  184.5500  178.6250  141.6180 C   0  0  0  0  0  0  0  0  0  0  0  0
  192.7450  177.1360  149.1810 C   0  0  0  0  0  0  0  0  0  0  0  0
  192.2880  176.3670  148.0600 N   0  0  0  0  0  2  0  0  0  0  0  0
  192.2840  178.2840  149.4200 O   0  0  0  0  0  0  0  0  0  0  0  0
  193.7750  176.5630  150.0850 C   0  0  0  0  0  1  0  0  0  0  0  0
  1 20  1  0  0  0  0
  2 24  2  0  0  0  0
  3 11  1  0  0  0  0
  4  3  1  0  0  0  0
  4 21  1  0  0  0  0
  5  6  1  0  0  0  0
  6 18  2  0  0  0  0
  6 25  1  0  0  0  0
  7 19  2  0  0  0  0
  9 15  1  0  0  0  0
 10  1  2  0  0  0  0
 11 13  1  0  0  0  0
 12  8  2  0  0  0  0
 12  2  1  0  0  0  0
 13 12  1  0  0  0  0
 14 27  1  0  0  0  0
 15 18  1  0  0  0  0
 17  8  1  6  0  0  0
 17 10  1  0  0  0  0
 17  7  1  0  0  0  0
 19 16  1  0  0  0  0
 20 16  2  0  0  0  0
 20 30  1  0  0  0  0
 21 22  1  0  0  0  0
 22 13  2  0  0  0  0
 22 14  1  0  0  0  0
 23 14  1  0  0  0  0
 23 28  2  0  0  0  0
 24  7  1  0  0  0  0
 26  9  1  0  0  0  0
 27  5  2  0  0  0  0
 27  2  1  0  0  0  0
 28  9  1  0  0  0  0
 28  5  1  0  0  0  0
 29 31  2  0  0  0  0
 29 32  1  0  0  0  0
 30 29  1  0  0  0  0
M  END
>  <MODEL>
8

>  <REMARK>
 VINA RESULT:      -8.1      1.825      4.672
  Name = 
  1 active torsions:
  status: ('A' for Active; 'I' for Inactive)
    1  A    between atoms: N_10  and  C_24
                            x       y       z     vdW  Elec       q    Type
                         _______ _______ _______ _____ _____    ______ ____

>  <TORSDO>
F 1

$$$$
=
 OpenBabel10272413213D

 32 37  0  0  1  0  0  0  0  0999 V2000
  194.8700  174.2900  137.1810 C   0  0  0  0  0  3  0  0  0  0  0  0
  190.5920  176.8310  138.1650 C   0  0  0  0  0  0  0  0  0  0  0  0
  191.1020  177.7450  143.0630 C   0  0  0  0  0  2  0  0  0  0  0  0
  189.7080  177.1410  143.2430 C   0  0  0  0  0  2  0  0  0  0  0  0
  188.0950  177.1540  137.4880 C   0  0  0  0  0  0  0  0  0  0  0  0
  187.8480  176.6760  136.1180 C   0  0  0  0  0  0  0  0  0  0  0  0
  192.4820  176.1690  136.7590 C   0  0  2  0  0  3  0  0  0  0  0  0
  192.7970  176.6000  139.2160 C   0  0  0  0  0  3  0  0  0  0  0  0
  185.7490  177.7810  137.6660 N   0  0  0  0  0  0  0  0  0  0  0  0
  194.0850  174.8450  138.1030 C   0  0  0  0  0  3  0  0  0  0  0  0
  191.6820  177.2900  141.7610 C   0  0  0  0  0  2  0  0  0  0  0  0
  191.4940  176.9040  139.3380 C   0  0  0  0  0  0  0  0  0  0  0  0
  190.9380  177.3310  140.6490 C   0  0  0  0  0  0  0  0  0  0  0  0
  188.7180  177.6370  139.5600 N   0  0  0  0  0  0  0  0  0  0  0  0
  185.5870  177.6590  136.2110 C   0  0  0  0  0  2  0  0  0  0  0  0
  194.2630  175.5340  135.1170 C   0  0  0  0  0  3  0  0  0  0  0  0
  193.4380  176.1770  137.9230 C   0  0  0  0  0  0  0  0  0  0  0  0
  186.6700  176.8660  135.5910 N   0  0  0  0  0  0  0  0  0  0  0  0
  192.8970  175.9330  135.5140 C   0  0  0  0  0  3  0  0  0  0  0  0
  195.1630  174.8480  135.8450 C   0  0  0  0  0  0  0  0  0  0  0  0
  188.8010  177.3230  142.0100 C   0  0  0  0  0  2  0  0  0  0  0  0
  189.5230  177.8720  140.7620 C   0  0  0  0  0  0  0  0  0  0  0  0
  187.4280  177.9400  139.4750 N   0  0  0  0  0  0  0  0  0  0  0  0
  191.0690  176.5090  136.9620 C   0  0  0  0  0  3  0  0  0  0  0  0
  188.7960  175.8780  135.4220 N   0  0  0  0  0  1  0  0  0  0  0  0
  184.6440  178.2730  138.4710 C   0  0  0  0  0  1  0  0  0  0  0  0
  189.1720  177.1730  138.3710 C   0  0  0  0  0  0  0  0  0  0  0  0
  187.0560  177.6430  138.2190 C   0  0  0  0  0  0  0  0  0  0  0  0
  197.7240  174.9870  135.6490 C   0  0  0  0  0  0  0  0  0  0  0  0
  196.4310  174.4950  135.2720 N   0  0  0  0  0  2  0  0  0  0  0  0
  197.8660  175.7870  136.6100 O   0  0  0  0  0  0  0  0  0  0  0  0
  198.9220  174.5340  134.8950 C   0  0  0  0  0  1  0  0  0  0  0  0
  1 10  1  0  0  0  0
  2 27  1  0  0  0  0
  2 12  1  0  0  0  0
  3  4  1  0  0  0  0
  5 28  1  0  0  0  0
  5 27  2  0  0  0  0
  6  5  1  0  0  0  0
  7 19  1  6  0  0  0
  7 24  1  0  0  0  0
  7 17  1  0  0  0  0
  8 12  2  0  0  0  0
  9 28  1  0  0  0  0
  9 26  1  0  0  0  0
 11  3  1  0  0  0  0
 12 13  1  0  0  0  0
 13 22  2  0  0  0  0
 13 11  1  0  0  0  0
 14 22  1  0  0  0  0
 15  9  1  0  0  0  0
 16 19  2  0  0  0  0
 16 20  1  0  0  0  0
 17 10  2  0  0  0  0
 17  8  1  0  0  0  0
 18  6  2  0  0  0  0
 18 15  1  0  0  0  0
 20  1  2  0  0  0  0
 21  4  1  0  0  0  0
 22 21  1  0  0  0  0
 23 14  1  0  0  0  0
 24  2  2  0  0  0  0
 25  6  1  0  0  0  0
 27 14  1  0  0  0  0
 28 23  2  0  0  0  0
 29 31  2  0  0  0  0
 30 29  1  0  0  0  0
 30 20  1  0  0  0  0
 32 29  1  0  0  0  0
M  END
>  <MODEL>
9

>  <REMARK>
 VINA RESULT:      -7.9      4.516      7.837
  Name = 
  1 active torsions:
  status: ('A' for Active; 'I' for Inactive)
    1  A    between atoms: N_10  and  C_24
                            x       y       z     vdW  Elec       q    Type
                         _______ _______ _______ _____ _____    ______ ____

>  <TORSDO>
F 1

$$$$
