=
 OpenBabel10272400083D

 34 40  0  0  1  0  0  0  0  0999 V2000
  188.8460  177.6950  146.1990 N   0  0  0  0  0  0  0  0  0  0  0  0
  186.7180  178.2820  147.0910 C   0  0  2  0  0  3  0  0  0  0  0  0
  187.1180  178.0810  144.5630 C   0  0  0  0  0  0  0  0  0  0  0  0
  185.4690  178.4470  142.7480 C   0  0  0  0  0  0  0  0  0  0  0  0
  189.0410  177.6000  147.6320 C   0  0  1  0  0  3  0  0  0  0  0  0
  187.6840  177.9570  148.2500 C   0  0  2  0  0  3  0  0  0  0  0  0
  184.6360  178.4200  145.0170 C   0  0  0  0  0  3  0  0  0  0  0  0
  187.5210  178.0540  145.8570 C   0  0  0  0  0  0  0  0  0  0  0  0
  183.3420  178.6560  144.5480 C   0  0  0  0  0  3  0  0  0  0  0  0
  184.1740  178.6890  142.2800 C   0  0  0  0  0  3  0  0  0  0  0  0
  188.1520  176.5120  148.2170 C   0  0  0  0  0  2  0  0  0  0  0  0
  188.1550  177.8450  143.5060 C   0  0  0  0  0  0  0  0  0  0  0  0
  189.8600  177.4620  145.2240 C   0  0  0  0  0  3  0  0  0  0  0  0
  186.3440  179.7500  147.2050 C   0  0  0  0  0  1  0  0  0  0  0  0
  186.5110  178.3040  141.8300 O   0  0  0  0  0  0  0  0  0  0  0  0
  187.8240  177.9610  142.1950 C   0  0  0  0  0  0  0  0  0  0  0  0
  183.1080  178.8000  143.1760 C   0  0  0  0  0  0  0  0  0  0  0  0
  185.7160  178.3300  144.1260 C   0  0  0  0  0  0  0  0  0  0  0  0
  189.5450  177.5390  143.9320 C   0  0  0  0  0  3  0  0  0  0  0  0
  189.4200  178.2180  138.7780 C   0  0  0  0  0  0  0  0  0  0  0  0
  190.4950  177.3340  138.8890 C   0  0  0  0  0  3  0  0  0  0  0  0
  188.7840  177.7540  141.0800 C   0  0  0  0  0  0  0  0  0  0  0  0
  190.7130  176.6490  140.0880 C   0  0  0  0  0  3  0  0  0  0  0  0
  188.5660  178.4210  139.8650 C   0  0  0  0  0  3  0  0  0  0  0  0
  189.8590  176.8530  141.1750 C   0  0  0  0  0  3  0  0  0  0  0  0
  189.1980  178.8940  137.5860 O   0  0  0  0  0  1  0  0  0  0  0  0
  181.7950  179.0440  142.6750 N   0  0  0  0  0  2  0  0  0  0  0  0
  181.4210  178.6610  141.3800 N   0  0  0  0  0  2  0  0  0  0  0  0
  179.9850  179.3010  139.5380 C   0  0  0  0  0  2  0  0  0  0  0  0
  181.1600  180.2600  139.4810 C   0  0  1  0  0  3  0  0  0  0  0  0
  180.6300  179.7530  140.8310 C   0  0  2  0  0  3  0  0  0  0  0  0
  183.6420  180.1530  139.1690 O   0  0  0  0  0  1  0  0  0  0  0  0
  182.3970  179.5640  138.9870 C   0  0  0  0  0  0  0  0  0  0  0  0
  182.3090  178.4740  138.3610 O   0  0  0  0  0  0  0  0  0  0  0  0
  1  5  1  0  0  0  0
  2 14  1  1  0  0  0
  2  6  1  0  0  0  0
  3  8  2  0  0  0  0
  4 18  1  0  0  0  0
  5 11  1  6  0  0  0
  5  6  1  0  0  0  0
  6 11  1  6  0  0  0
  8  1  1  0  0  0  0
  8  2  1  0  0  0  0
  9  7  1  0  0  0  0
 10  4  2  0  0  0  0
 10 17  1  0  0  0  0
 12 19  1  0  0  0  0
 12  3  1  0  0  0  0
 13  1  1  0  0  0  0
 15 16  1  0  0  0  0
 15  4  1  0  0  0  0
 16 12  2  0  0  0  0
 17  9  2  0  0  0  0
 18  3  1  0  0  0  0
 18  7  2  0  0  0  0
 19 13  2  0  0  0  0
 20 21  2  0  0  0  0
 20 24  1  0  0  0  0
 21 23  1  0  0  0  0
 22 25  1  0  0  0  0
 22 16  1  0  0  0  0
 23 25  2  0  0  0  0
 24 22  2  0  0  0  0
 26 20  1  0  0  0  0
 27 17  1  0  0  0  0
 28 27  1  0  0  0  0
 29 31  1  0  0  0  0
 30 33  1  6  0  0  0
 30 29  1  0  0  0  0
 30 31  1  0  0  0  0
 31 28  1  6  0  0  0
 33 32  1  0  0  0  0
 34 33  2  0  0  0  0
M  END
>  <MODEL>
1

>  <REMARK>
 VINA RESULT:     -10.1      0.000      0.000
  Name = 
  5 active torsions:
  status: ('A' for Active; 'I' for Inactive)
    1  A    between atoms: N_3  and  N_13
    2  A    between atoms: N_3  and  C_29
    3  A    between atoms: C_12  and  C_28
    4  A    between atoms: N_13  and  C_33
    5  A    between atoms: C_20  and  C_22
                            x       y       z     vdW  Elec       q    Type
                         _______ _______ _______ _____ _____    ______ ____

>  <TORSDO>
F 5

$$$$
=
 OpenBabel10272400083D

 34 40  0  0  1  0  0  0  0  0999 V2000
  190.9860  176.8520  145.2510 N   0  0  0  0  0  0  0  0  0  0  0  0
  189.3140  177.3070  146.8830 C   0  0  2  0  0  3  0  0  0  0  0  0
  188.8260  177.4540  144.3670 C   0  0  0  0  0  0  0  0  0  0  0  0
  186.6770  178.0610  143.2870 C   0  0  0  0  0  0  0  0  0  0  0  0
  191.6500  176.5630  146.5060 C   0  0  1  0  0  3  0  0  0  0  0  0
  190.6000  176.8300  147.5900 C   0  0  2  0  0  3  0  0  0  0  0  0
  186.6610  177.7220  145.6800 C   0  0  0  0  0  3  0  0  0  0  0  0
  189.6410  177.2520  145.4300 C   0  0  0  0  0  0  0  0  0  0  0  0
  185.2970  178.0180  145.7160 C   0  0  0  0  0  3  0  0  0  0  0  0
  185.3130  178.3620  143.3240 C   0  0  0  0  0  3  0  0  0  0  0  0
  190.9640  175.4040  147.2130 C   0  0  0  0  0  2  0  0  0  0  0  0
  189.4310  177.3660  142.9980 C   0  0  0  0  0  0  0  0  0  0  0  0
  191.5990  176.7570  143.9660 C   0  0  0  0  0  3  0  0  0  0  0  0
  189.0660  178.7450  147.3060 C   0  0  0  0  0  1  0  0  0  0  0  0
  187.3410  178.0470  142.0580 O   0  0  0  0  0  0  0  0  0  0  0  0
  188.6820  177.6590  141.9060 C   0  0  0  0  0  0  0  0  0  0  0  0
  184.6190  178.3470  144.5360 C   0  0  0  0  0  0  0  0  0  0  0  0
  187.3710  177.7570  144.4700 C   0  0  0  0  0  0  0  0  0  0  0  0
  190.8690  177.0080  142.8810 C   0  0  0  0  0  3  0  0  0  0  0  0
  189.2190  178.5590  138.2730 C   0  0  0  0  0  0  0  0  0  0  0  0
  190.0460  177.5230  137.8340 C   0  0  0  0  0  3  0  0  0  0  0  0
  189.1980  177.6090  140.5130 C   0  0  0  0  0  0  0  0  0  0  0  0
  190.4430  176.5220  138.7250 C   0  0  0  0  0  3  0  0  0  0  0  0
  188.7920  178.5970  139.6030 C   0  0  0  0  0  3  0  0  0  0  0  0
  190.0160  176.5620  140.0560 C   0  0  0  0  0  3  0  0  0  0  0  0
  188.8180  179.5500  137.3870 O   0  0  0  0  0  1  0  0  0  0  0  0
  183.2260  178.6550  144.5500 N   0  0  0  0  0  2  0  0  0  0  0  0
  182.4760  178.7100  143.3670 N   0  0  0  0  0  2  0  0  0  0  0  0
  180.1050  178.3120  143.6470 C   0  0  0  0  0  2  0  0  0  0  0  0
  180.2080  179.3420  142.5370 C   0  0  1  0  0  3  0  0  0  0  0  0
  181.2100  179.3450  143.7030 C   0  0  2  0  0  3  0  0  0  0  0  0
  181.3520  179.5000  140.3150 O   0  0  0  0  0  0  0  0  0  0  0  0
  180.7170  178.7150  141.2700 C   0  0  0  0  0  0  0  0  0  0  0  0
  180.5250  177.4900  141.0420 O   0  0  0  0  0  1  0  0  0  0  0  0
  1  8  1  0  0  0  0
  1  5  1  0  0  0  0
  2 14  1  1  0  0  0
  2  6  1  0  0  0  0
  3 18  1  0  0  0  0
  3  8  2  0  0  0  0
  4 10  2  0  0  0  0
  4 18  1  0  0  0  0
  5 11  1  6  0  0  0
  5  6  1  0  0  0  0
  6 11  1  6  0  0  0
  7  9  1  0  0  0  0
  8  2  1  0  0  0  0
 10 17  1  0  0  0  0
 12  3  1  0  0  0  0
 13  1  1  0  0  0  0
 15  4  1  0  0  0  0
 16 15  1  0  0  0  0
 16 12  2  0  0  0  0
 17 27  1  0  0  0  0
 17  9  2  0  0  0  0
 18  7  2  0  0  0  0
 19 12  1  0  0  0  0
 19 13  2  0  0  0  0
 20 24  1  0  0  0  0
 21 20  2  0  0  0  0
 21 23  1  0  0  0  0
 22 16  1  0  0  0  0
 23 25  2  0  0  0  0
 24 22  2  0  0  0  0
 25 22  1  0  0  0  0
 26 20  1  0  0  0  0
 28 27  1  0  0  0  0
 29 31  1  0  0  0  0
 30 33  1  6  0  0  0
 30 29  1  0  0  0  0
 30 31  1  0  0  0  0
 31 28  1  6  0  0  0
 32 33  2  0  0  0  0
 34 33  1  0  0  0  0
M  END
>  <MODEL>
2

>  <REMARK>
 VINA RESULT:      -9.8      1.606      2.282
  Name = 
  5 active torsions:
  status: ('A' for Active; 'I' for Inactive)
    1  A    between atoms: N_3  and  N_13
    2  A    between atoms: N_3  and  C_29
    3  A    between atoms: C_12  and  C_28
    4  A    between atoms: N_13  and  C_33
    5  A    between atoms: C_20  and  C_22
                            x       y       z     vdW  Elec       q    Type
                         _______ _______ _______ _____ _____    ______ ____

>  <TORSDO>
F 5

$$$$
=
 OpenBabel10272400083D

 34 40  0  0  1  0  0  0  0  0999 V2000
  189.4980  176.8700  146.4020 N   0  0  0  0  0  0  0  0  0  0  0  0
  191.3680  176.3780  145.0150 C   0  0  2  0  0  3  0  0  0  0  0  0
  189.1430  177.2090  144.0420 C   0  0  0  0  0  0  0  0  0  0  0  0
  188.6010  177.6040  141.6550 C   0  0  0  0  0  0  0  0  0  0  0  0
  190.5430  176.5350  147.3480 C   0  0  1  0  0  3  0  0  0  0  0  0
  191.7770  176.2240  146.4950 C   0  0  2  0  0  3  0  0  0  0  0  0
  190.9050  177.1250  142.2070 C   0  0  0  0  0  3  0  0  0  0  0  0
  189.9460  176.8170  145.0610 C   0  0  0  0  0  0  0  0  0  0  0  0
  191.2510  177.2190  140.8580 C   0  0  0  0  0  3  0  0  0  0  0  0
  188.9480  177.6930  140.3030 C   0  0  0  0  0  3  0  0  0  0  0  0
  191.6840  177.5370  147.2530 C   0  0  0  0  0  2  0  0  0  0  0  0
  187.7260  177.5740  144.3720 C   0  0  0  0  0  0  0  0  0  0  0  0
  188.1590  177.2120  146.7570 C   0  0  0  0  0  3  0  0  0  0  0  0
  191.4680  175.0060  144.3680 C   0  0  0  0  0  1  0  0  0  0  0  0
  187.2800  177.8410  142.0380 O   0  0  0  0  0  0  0  0  0  0  0  0
  186.8540  177.8740  143.3760 C   0  0  0  0  0  0  0  0  0  0  0  0
  190.2700  177.4960  139.8980 C   0  0  0  0  0  0  0  0  0  0  0  0
  189.5750  177.2980  142.6200 C   0  0  0  0  0  0  0  0  0  0  0  0
  187.2990  177.5430  145.7950 C   0  0  0  0  0  3  0  0  0  0  0  0
  183.2290  178.6830  142.6760 C   0  0  0  0  0  0  0  0  0  0  0  0
  182.7540  179.0220  143.9440 C   0  0  0  0  0  3  0  0  0  0  0  0
  185.4330  178.2380  143.6060 C   0  0  0  0  0  0  0  0  0  0  0  0
  183.6140  178.9810  145.0450 C   0  0  0  0  0  3  0  0  0  0  0  0
  184.5620  178.3000  142.5070 C   0  0  0  0  0  3  0  0  0  0  0  0
  184.9480  178.5980  144.8750 C   0  0  0  0  0  3  0  0  0  0  0  0
  182.3760  178.7290  141.5810 O   0  0  0  0  0  1  0  0  0  0  0  0
  190.6010  177.5950  138.5140 N   0  0  0  0  0  2  0  0  0  0  0  0
  189.7200  178.1710  137.5890 N   0  0  0  0  0  2  0  0  0  0  0  0
  188.7230  177.6100  135.4560 C   0  0  0  0  0  2  0  0  0  0  0  0
  187.6700  177.2630  136.4920 C   0  0  1  0  0  3  0  0  0  0  0  0
  189.1640  177.0800  136.8030 C   0  0  2  0  0  3  0  0  0  0  0  0
  186.2980  178.4300  138.2320 O   0  0  0  0  0  1  0  0  0  0  0  0
  187.0540  178.5070  137.0680 C   0  0  0  0  0  0  0  0  0  0  0  0
  187.1730  179.6120  136.4750 O   0  0  0  0  0  0  0  0  0  0  0  0
  1 13  1  0  0  0  0
  1  5  1  0  0  0  0
  2 14  1  6  0  0  0
  2  8  1  0  0  0  0
  2  6  1  0  0  0  0
  3 12  1  0  0  0  0
  3  8  2  0  0  0  0
  4 15  1  0  0  0  0
  4 18  1  0  0  0  0
  5 11  1  1  0  0  0
  6 11  1  1  0  0  0
  6  5  1  0  0  0  0
  7 18  2  0  0  0  0
  8  1  1  0  0  0  0
  9  7  1  0  0  0  0
 10  4  2  0  0  0  0
 12 19  1  0  0  0  0
 15 16  1  0  0  0  0
 16 22  1  0  0  0  0
 16 12  2  0  0  0  0
 17 10  1  0  0  0  0
 17  9  2  0  0  0  0
 18  3  1  0  0  0  0
 19 13  2  0  0  0  0
 20 21  1  0  0  0  0
 21 23  2  0  0  0  0
 22 25  2  0  0  0  0
 24 20  2  0  0  0  0
 24 22  1  0  0  0  0
 25 23  1  0  0  0  0
 26 20  1  0  0  0  0
 27 17  1  0  0  0  0
 28 27  1  0  0  0  0
 29 30  1  0  0  0  0
 29 31  1  0  0  0  0
 30 31  1  0  0  0  0
 30 33  1  1  0  0  0
 31 28  1  1  0  0  0
 33 32  1  0  0  0  0
 34 33  2  0  0  0  0
M  END
>  <MODEL>
3

>  <REMARK>
 VINA RESULT:      -9.7      2.895      6.120
  Name = 
  5 active torsions:
  status: ('A' for Active; 'I' for Inactive)
    1  A    between atoms: N_3  and  N_13
    2  A    between atoms: N_3  and  C_29
    3  A    between atoms: C_12  and  C_28
    4  A    between atoms: N_13  and  C_33
    5  A    between atoms: C_20  and  C_22
                            x       y       z     vdW  Elec       q    Type
                         _______ _______ _______ _____ _____    ______ ____

>  <TORSDO>
F 5

$$$$
=
 OpenBabel10272400083D

 34 40  0  0  1  0  0  0  0  0999 V2000
  187.5290  178.0410  147.3680 N   0  0  0  0  0  0  0  0  0  0  0  0
  189.7260  177.4260  146.6870 C   0  0  2  0  0  3  0  0  0  0  0  0
  187.8460  177.8350  144.9870 C   0  0  0  0  0  0  0  0  0  0  0  0
  187.9910  177.6620  142.5180 C   0  0  0  0  0  0  0  0  0  0  0  0
  188.2730  178.0080  148.6110 C   0  0  1  0  0  3  0  0  0  0  0  0
  189.7040  177.6280  148.2170 C   0  0  2  0  0  3  0  0  0  0  0  0
  190.0560  177.5120  143.7650 C   0  0  0  0  0  3  0  0  0  0  0  0
  188.3380  177.7410  146.2460 C   0  0  0  0  0  0  0  0  0  0  0  0
  190.7660  177.3440  142.5740 C   0  0  0  0  0  3  0  0  0  0  0  0
  188.7020  177.4880  141.3270 C   0  0  0  0  0  3  0  0  0  0  0  0
  189.3710  179.0600  148.6000 C   0  0  0  0  0  2  0  0  0  0  0  0
  186.3860  178.1390  144.8300 C   0  0  0  0  0  0  0  0  0  0  0  0
  186.1370  178.3350  147.2610 C   0  0  0  0  0  3  0  0  0  0  0  0
  190.0350  175.9620  146.4240 C   0  0  0  0  0  1  0  0  0  0  0  0
  186.6090  177.8600  142.4660 O   0  0  0  0  0  0  0  0  0  0  0  0
  185.8240  178.1430  143.5960 C   0  0  0  0  0  0  0  0  0  0  0  0
  190.0880  177.3240  141.3490 C   0  0  0  0  0  0  0  0  0  0  0  0
  188.6600  177.6550  143.7530 C   0  0  0  0  0  0  0  0  0  0  0  0
  185.5760  178.3770  146.0540 C   0  0  0  0  0  3  0  0  0  0  0  0
  182.5800  178.7160  141.7410 C   0  0  0  0  0  0  0  0  0  0  0  0
  181.7050  179.0500  142.7770 C   0  0  0  0  0  3  0  0  0  0  0  0
  184.3870  178.4240  143.3440 C   0  0  0  0  0  0  0  0  0  0  0  0
  182.1660  179.0830  144.0950 C   0  0  0  0  0  3  0  0  0  0  0  0
  183.9140  178.4120  142.0230 C   0  0  0  0  0  3  0  0  0  0  0  0
  183.5010  178.7780  144.3770 C   0  0  0  0  0  3  0  0  0  0  0  0
  182.1240  178.6890  140.4300 O   0  0  0  0  0  1  0  0  0  0  0  0
  190.7940  177.1520  140.1210 N   0  0  0  0  0  2  0  0  0  0  0  0
  190.3060  177.6760  138.9160 N   0  0  0  0  0  2  0  0  0  0  0  0
  189.7620  176.9290  136.6790 C   0  0  0  0  0  2  0  0  0  0  0  0
  188.4590  176.8540  137.4540 C   0  0  1  0  0  3  0  0  0  0  0  0
  189.7980  176.5520  138.1450 C   0  0  2  0  0  3  0  0  0  0  0  0
  186.9440  178.4140  138.6960 O   0  0  0  0  0  1  0  0  0  0  0  0
  187.9100  178.2280  137.7150 C   0  0  0  0  0  0  0  0  0  0  0  0
  188.2800  179.2070  137.0120 O   0  0  0  0  0  0  0  0  0  0  0  0
  1  5  1  0  0  0  0
  2 14  1  1  0  0  0
  2  6  1  0  0  0  0
  3  8  2  0  0  0  0
  4 18  1  0  0  0  0
  5 11  1  6  0  0  0
  6 11  1  6  0  0  0
  6  5  1  0  0  0  0
  8  2  1  0  0  0  0
  8  1  1  0  0  0  0
  9  7  1  0  0  0  0
 10 17  1  0  0  0  0
 10  4  2  0  0  0  0
 12  3  1  0  0  0  0
 12 19  1  0  0  0  0
 13  1  1  0  0  0  0
 15  4  1  0  0  0  0
 15 16  1  0  0  0  0
 16 12  2  0  0  0  0
 17  9  2  0  0  0  0
 18  7  2  0  0  0  0
 18  3  1  0  0  0  0
 19 13  2  0  0  0  0
 20 24  2  0  0  0  0
 20 21  1  0  0  0  0
 21 23  2  0  0  0  0
 22 16  1  0  0  0  0
 22 25  2  0  0  0  0
 23 25  1  0  0  0  0
 24 22  1  0  0  0  0
 26 20  1  0  0  0  0
 27 17  1  0  0  0  0
 28 27  1  0  0  0  0
 29 30  1  0  0  0  0
 29 31  1  0  0  0  0
 30 33  1  1  0  0  0
 30 31  1  0  0  0  0
 31 28  1  1  0  0  0
 33 32  1  0  0  0  0
 34 33  2  0  0  0  0
M  END
>  <MODEL>
4

>  <REMARK>
 VINA RESULT:      -9.6      2.465      6.057
  Name = 
  5 active torsions:
  status: ('A' for Active; 'I' for Inactive)
    1  A    between atoms: N_3  and  N_13
    2  A    between atoms: N_3  and  C_29
    3  A    between atoms: C_12  and  C_28
    4  A    between atoms: N_13  and  C_33
    5  A    between atoms: C_20  and  C_22
                            x       y       z     vdW  Elec       q    Type
                         _______ _______ _______ _____ _____    ______ ____

>  <TORSDO>
F 5

$$$$
=
 OpenBabel10272400083D

 34 40  0  0  1  0  0  0  0  0999 V2000
  181.6670  178.9030  141.8320 N   0  0  0  0  0  0  0  0  0  0  0  0
  182.0840  178.9980  139.4900 C   0  0  2  0  0  3  0  0  0  0  0  0
  183.9790  178.6730  141.1910 C   0  0  0  0  0  0  0  0  0  0  0  0
  186.4000  178.4280  140.7120 C   0  0  0  0  0  0  0  0  0  0  0  0
  180.3410  178.9960  141.2550 C   0  0  1  0  0  3  0  0  0  0  0  0
  180.5610  179.0450  139.7390 C   0  0  2  0  0  3  0  0  0  0  0  0
  184.8860  178.3970  138.8280 C   0  0  0  0  0  3  0  0  0  0  0  0
  182.6840  178.8720  140.8480 C   0  0  0  0  0  0  0  0  0  0  0  0
  185.9680  178.2450  137.9580 C   0  0  0  0  0  3  0  0  0  0  0  0
  187.4830  178.2810  139.8400 C   0  0  0  0  0  3  0  0  0  0  0  0
  180.0500  177.7740  140.3960 C   0  0  0  0  0  2  0  0  0  0  0  0
  184.3130  178.6160  142.6510 C   0  0  0  0  0  0  0  0  0  0  0  0
  181.9430  178.8510  143.2310 C   0  0  0  0  0  3  0  0  0  0  0  0
  182.4860  180.3230  138.8650 C   0  0  0  0  0  1  0  0  0  0  0  0
  186.6330  178.4750  142.0890 O   0  0  0  0  0  0  0  0  0  0  0  0
  185.6070  178.5190  143.0470 C   0  0  0  0  0  0  0  0  0  0  0  0
  187.2730  178.1950  138.4620 C   0  0  0  0  0  0  0  0  0  0  0  0
  185.0900  178.5070  140.2120 C   0  0  0  0  0  0  0  0  0  0  0  0
  183.2050  178.7220  143.6370 C   0  0  0  0  0  3  0  0  0  0  0  0
  187.5940  177.6260  146.1370 C   0  0  0  0  0  0  0  0  0  0  0  0
  186.8450  178.2270  147.1510 C   0  0  0  0  0  3  0  0  0  0  0  0
  186.0330  178.4660  144.4700 C   0  0  0  0  0  0  0  0  0  0  0  0
  185.6850  178.9390  146.8320 C   0  0  0  0  0  3  0  0  0  0  0  0
  187.1860  177.7390  144.8050 C   0  0  0  0  0  3  0  0  0  0  0  0
  185.2780  179.0520  145.5000 C   0  0  0  0  0  3  0  0  0  0  0  0
  188.7430  176.9140  146.4530 O   0  0  0  0  0  1  0  0  0  0  0  0
  188.3930  178.0420  137.5910 N   0  0  0  0  0  2  0  0  0  0  0  0
  189.7090  178.1350  138.0650 N   0  0  0  0  0  2  0  0  0  0  0  0
  189.9570  175.7290  137.9900 C   0  0  0  0  0  2  0  0  0  0  0  0
  191.3040  176.2550  138.4510 C   0  0  1  0  0  3  0  0  0  0  0  0
  190.4550  177.0510  137.4460 C   0  0  2  0  0  3  0  0  0  0  0  0
  192.1580  177.6730  140.3300 O   0  0  0  0  0  0  0  0  0  0  0  0
  191.2300  176.7480  139.8690 C   0  0  0  0  0  0  0  0  0  0  0  0
  190.3640  176.2870  140.6600 O   0  0  0  0  0  1  0  0  0  0  0  0
  1 13  1  0  0  0  0
  2 14  1  1  0  0  0
  2  6  1  0  0  0  0
  2  8  1  0  0  0  0
  3 12  1  0  0  0  0
  4 15  1  0  0  0  0
  5 11  1  6  0  0  0
  5  1  1  0  0  0  0
  6 11  1  6  0  0  0
  6  5  1  0  0  0  0
  7 18  2  0  0  0  0
  8  3  2  0  0  0  0
  8  1  1  0  0  0  0
  9 17  2  0  0  0  0
  9  7  1  0  0  0  0
 10  4  2  0  0  0  0
 12 16  2  0  0  0  0
 12 19  1  0  0  0  0
 13 19  2  0  0  0  0
 15 16  1  0  0  0  0
 16 22  1  0  0  0  0
 17 10  1  0  0  0  0
 18  4  1  0  0  0  0
 18  3  1  0  0  0  0
 20 26  1  0  0  0  0
 20 21  1  0  0  0  0
 22 24  1  0  0  0  0
 22 25  2  0  0  0  0
 23 21  2  0  0  0  0
 24 20  2  0  0  0  0
 25 23  1  0  0  0  0
 27 28  1  0  0  0  0
 27 17  1  0  0  0  0
 29 30  1  0  0  0  0
 30 33  1  1  0  0  0
 31 29  1  0  0  0  0
 31 28  1  1  0  0  0
 31 30  1  0  0  0  0
 33 32  2  0  0  0  0
 33 34  1  0  0  0  0
M  END
>  <MODEL>
5

>  <REMARK>
 VINA RESULT:      -9.5      2.717      7.876
  Name = 
  5 active torsions:
  status: ('A' for Active; 'I' for Inactive)
    1  A    between atoms: N_3  and  N_13
    2  A    between atoms: N_3  and  C_29
    3  A    between atoms: C_12  and  C_28
    4  A    between atoms: N_13  and  C_33
    5  A    between atoms: C_20  and  C_22
                            x       y       z     vdW  Elec       q    Type
                         _______ _______ _______ _____ _____    ______ ____

>  <TORSDO>
F 5

$$$$
=
 OpenBabel10272400083D

 34 40  0  0  1  0  0  0  0  0999 V2000
  189.3910  176.9350  146.1630 N   0  0  0  0  0  0  0  0  0  0  0  0
  191.2390  176.4250  144.7520 C   0  0  2  0  0  3  0  0  0  0  0  0
  189.0100  177.2830  143.8090 C   0  0  0  0  0  0  0  0  0  0  0  0
  188.4440  177.6890  141.4290 C   0  0  0  0  0  0  0  0  0  0  0  0
  190.4440  176.5870  147.0960 C   0  0  1  0  0  3  0  0  0  0  0  0
  191.6640  176.2630  146.2270 C   0  0  2  0  0  3  0  0  0  0  0  0
  190.7490  177.1820  141.9520 C   0  0  0  0  0  3  0  0  0  0  0  0
  189.8220  176.8800  144.8170 C   0  0  0  0  0  0  0  0  0  0  0  0
  191.0790  177.2750  140.5980 C   0  0  0  0  0  3  0  0  0  0  0  0
  188.7750  177.7760  140.0740 C   0  0  0  0  0  3  0  0  0  0  0  0
  191.5950  177.5760  146.9890 C   0  0  0  0  0  2  0  0  0  0  0  0
  187.6020  177.6630  144.1570 C   0  0  0  0  0  0  0  0  0  0  0  0
  188.0600  177.2920  146.5360 C   0  0  0  0  0  3  0  0  0  0  0  0
  191.3140  175.0540  144.1010 C   0  0  0  0  0  1  0  0  0  0  0  0
  187.1300  177.9400  141.8290 O   0  0  0  0  0  0  0  0  0  0  0  0
  186.7220  177.9750  143.1730 C   0  0  0  0  0  0  0  0  0  0  0  0
  190.0890  177.5660  139.6520 C   0  0  0  0  0  0  0  0  0  0  0  0
  189.4260  177.3700  142.3810 C   0  0  0  0  0  0  0  0  0  0  0  0
  187.1930  177.6340  145.5860 C   0  0  0  0  0  3  0  0  0  0  0  0
  183.0840  178.7740  142.5250 C   0  0  0  0  0  0  0  0  0  0  0  0
  182.6400  179.1640  143.7900 C   0  0  0  0  0  3  0  0  0  0  0  0
  185.3070  178.3550  143.4210 C   0  0  0  0  0  0  0  0  0  0  0  0
  183.5260  179.1630  144.8710 C   0  0  0  0  0  3  0  0  0  0  0  0
  184.4120  178.3790  142.3410 C   0  0  0  0  0  3  0  0  0  0  0  0
  184.8530  178.7660  144.6860 C   0  0  0  0  0  3  0  0  0  0  0  0
  182.2070  178.7810  141.4490 O   0  0  0  0  0  1  0  0  0  0  0  0
  190.4040  177.6630  138.2640 N   0  0  0  0  0  2  0  0  0  0  0  0
  191.6190  177.1860  137.7520 N   0  0  0  0  0  2  0  0  0  0  0  0
  191.7040  174.7680  137.7190 C   0  0  0  0  0  2  0  0  0  0  0  0
  192.5530  175.2130  136.5430 C   0  0  1  0  0  3  0  0  0  0  0  0
  191.3050  176.0120  136.9540 C   0  0  2  0  0  3  0  0  0  0  0  0
  194.5280  176.7190  136.2200 O   0  0  0  0  0  0  0  0  0  0  0  0
  193.8570  175.7950  137.0120 C   0  0  0  0  0  0  0  0  0  0  0  0
  194.3740  175.4110  138.0950 O   0  0  0  0  0  1  0  0  0  0  0  0
  1 13  1  0  0  0  0
  1  5  1  0  0  0  0
  2 14  1  6  0  0  0
  2  8  1  0  0  0  0
  2  6  1  0  0  0  0
  3 12  1  0  0  0  0
  3  8  2  0  0  0  0
  4 15  1  0  0  0  0
  4 18  1  0  0  0  0
  5 11  1  1  0  0  0
  6 11  1  1  0  0  0
  6  5  1  0  0  0  0
  7 18  2  0  0  0  0
  8  1  1  0  0  0  0
  9  7  1  0  0  0  0
 10  4  2  0  0  0  0
 12 19  1  0  0  0  0
 15 16  1  0  0  0  0
 16 22  1  0  0  0  0
 16 12  2  0  0  0  0
 17 10  1  0  0  0  0
 17  9  2  0  0  0  0
 18  3  1  0  0  0  0
 19 13  2  0  0  0  0
 20 21  1  0  0  0  0
 21 23  2  0  0  0  0
 22 25  2  0  0  0  0
 24 20  2  0  0  0  0
 24 22  1  0  0  0  0
 25 23  1  0  0  0  0
 26 20  1  0  0  0  0
 27 17  1  0  0  0  0
 28 27  1  0  0  0  0
 30 31  1  0  0  0  0
 30 33  1  1  0  0  0
 30 29  1  0  0  0  0
 31 29  1  0  0  0  0
 31 28  1  1  0  0  0
 32 33  2  0  0  0  0
 33 34  1  0  0  0  0
M  END
>  <MODEL>
6

>  <REMARK>
 VINA RESULT:      -9.4      3.055      7.471
  Name = 
  5 active torsions:
  status: ('A' for Active; 'I' for Inactive)
    1  A    between atoms: N_3  and  N_13
    2  A    between atoms: N_3  and  C_29
    3  A    between atoms: C_12  and  C_28
    4  A    between atoms: N_13  and  C_33
    5  A    between atoms: C_20  and  C_22
                            x       y       z     vdW  Elec       q    Type
                         _______ _______ _______ _____ _____    ______ ____

>  <TORSDO>
F 5

$$$$
=
 OpenBabel10272400083D

 34 40  0  0  1  0  0  0  0  0999 V2000
  190.9890  176.9260  142.4820 N   0  0  0  0  0  0  0  0  0  0  0  0
  189.9420  177.1810  144.6040 C   0  0  2  0  0  3  0  0  0  0  0  0
  188.6850  177.6310  142.4110 C   0  0  0  0  0  0  0  0  0  0  0  0
  186.3310  178.3650  142.1520 C   0  0  0  0  0  0  0  0  0  0  0  0
  192.0060  176.4870  143.4170 C   0  0  1  0  0  3  0  0  0  0  0  0
  191.3660  176.6210  144.8030 C   0  0  2  0  0  3  0  0  0  0  0  0
  187.0630  177.7400  144.3700 C   0  0  0  0  0  3  0  0  0  0  0  0
  189.7870  177.3010  143.1270 C   0  0  0  0  0  0  0  0  0  0  0  0
  185.7930  178.0300  144.8740 C   0  0  0  0  0  3  0  0  0  0  0  0
  185.0620  178.6600  142.6590 C   0  0  0  0  0  3  0  0  0  0  0  0
  191.5350  175.2510  144.1690 C   0  0  0  0  0  2  0  0  0  0  0  0
  188.8210  177.7080  140.9200 C   0  0  0  0  0  0  0  0  0  0  0  0
  191.1580  176.9860  141.0660 C   0  0  0  0  0  3  0  0  0  0  0  0
  189.8970  178.5580  145.2450 C   0  0  0  0  0  1  0  0  0  0  0  0
  186.5680  178.4990  140.7830 O   0  0  0  0  0  0  0  0  0  0  0  0
  187.7750  178.1320  140.1650 C   0  0  0  0  0  0  0  0  0  0  0  0
  184.7890  178.5000  144.0190 C   0  0  0  0  0  0  0  0  0  0  0  0
  187.3520  177.9200  143.0080 C   0  0  0  0  0  0  0  0  0  0  0  0
  190.1320  177.3660  140.3080 C   0  0  0  0  0  3  0  0  0  0  0  0
  186.7980  177.7520  136.5330 C   0  0  0  0  0  0  0  0  0  0  0  0
  187.8820  178.3360  135.8750 C   0  0  0  0  0  3  0  0  0  0  0  0
  187.8200  178.2490  138.6850 C   0  0  0  0  0  0  0  0  0  0  0  0
  188.9420  178.8680  136.6150 C   0  0  0  0  0  3  0  0  0  0  0  0
  186.7710  177.7020  137.9300 C   0  0  0  0  0  3  0  0  0  0  0  0
  188.9140  178.8190  138.0110 C   0  0  0  0  0  3  0  0  0  0  0  0
  185.7480  177.2160  135.8000 O   0  0  0  0  0  1  0  0  0  0  0  0
  183.4850  178.8040  144.5130 N   0  0  0  0  0  2  0  0  0  0  0  0
  182.3300  178.3400  143.8680 N   0  0  0  0  0  2  0  0  0  0  0  0
  179.9820  178.8950  143.6770 C   0  0  0  0  0  2  0  0  0  0  0  0
  180.6560  179.6090  142.5190 C   0  0  1  0  0  3  0  0  0  0  0  0
  181.3810  179.4420  143.8650 C   0  0  2  0  0  3  0  0  0  0  0  0
  182.1200  178.9450  140.5990 O   0  0  0  0  0  0  0  0  0  0  0  0
  181.0710  178.6320  141.4550 C   0  0  0  0  0  0  0  0  0  0  0  0
  180.4400  177.5530  141.2980 O   0  0  0  0  0  1  0  0  0  0  0  0
  1  8  1  0  0  0  0
  1  5  1  0  0  0  0
  2  6  1  0  0  0  0
  2 14  1  1  0  0  0
  3 18  1  0  0  0  0
  3  8  2  0  0  0  0
  4 10  2  0  0  0  0
  4 18  1  0  0  0  0
  5 11  1  6  0  0  0
  5  6  1  0  0  0  0
  6 11  1  6  0  0  0
  7  9  1  0  0  0  0
  8  2  1  0  0  0  0
 10 17  1  0  0  0  0
 12  3  1  0  0  0  0
 13  1  1  0  0  0  0
 15  4  1  0  0  0  0
 16 15  1  0  0  0  0
 16 12  2  0  0  0  0
 17 27  1  0  0  0  0
 17  9  2  0  0  0  0
 18  7  2  0  0  0  0
 19 12  1  0  0  0  0
 19 13  2  0  0  0  0
 20 24  1  0  0  0  0
 21 20  2  0  0  0  0
 21 23  1  0  0  0  0
 22 16  1  0  0  0  0
 23 25  2  0  0  0  0
 24 22  2  0  0  0  0
 25 22  1  0  0  0  0
 26 20  1  0  0  0  0
 28 27  1  0  0  0  0
 29 31  1  0  0  0  0
 30 33  1  6  0  0  0
 30 29  1  0  0  0  0
 30 31  1  0  0  0  0
 31 28  1  6  0  0  0
 32 33  2  0  0  0  0
 34 33  1  0  0  0  0
M  END
>  <MODEL>
7

>  <REMARK>
 VINA RESULT:      -8.8      2.123      3.438
  Name = 
  5 active torsions:
  status: ('A' for Active; 'I' for Inactive)
    1  A    between atoms: N_3  and  N_13
    2  A    between atoms: N_3  and  C_29
    3  A    between atoms: C_12  and  C_28
    4  A    between atoms: N_13  and  C_33
    5  A    between atoms: C_20  and  C_22
                            x       y       z     vdW  Elec       q    Type
                         _______ _______ _______ _____ _____    ______ ____

>  <TORSDO>
F 5

$$$$
=
 OpenBabel10272400083D

 34 40  0  0  1  0  0  0  0  0999 V2000
  187.2170  178.0260  147.1420 N   0  0  0  0  0  0  0  0  0  0  0  0
  189.4960  177.5060  146.6940 C   0  0  2  0  0  3  0  0  0  0  0  0
  187.8010  177.9020  144.8070 C   0  0  0  0  0  0  0  0  0  0  0  0
  188.2230  177.8080  142.3650 C   0  0  0  0  0  0  0  0  0  0  0  0
  187.8190  177.9810  148.4590 C   0  0  1  0  0  3  0  0  0  0  0  0
  189.2980  177.6620  148.2170 C   0  0  2  0  0  3  0  0  0  0  0  0
  190.1420  177.6900  143.8300 C   0  0  0  0  0  3  0  0  0  0  0  0
  188.1540  177.7880  146.1100 C   0  0  0  0  0  0  0  0  0  0  0  0
  190.9850  177.5820  142.7220 C   0  0  0  0  0  3  0  0  0  0  0  0
  189.0670  177.6940  141.2570 C   0  0  0  0  0  3  0  0  0  0  0  0
  188.8730  179.0700  148.5970 C   0  0  0  0  0  2  0  0  0  0  0  0
  186.3570  178.1620  144.4970 C   0  0  0  0  0  0  0  0  0  0  0  0
  185.8350  178.2770  146.8880 C   0  0  0  0  0  3  0  0  0  0  0  0
  189.8850  176.0610  146.4280 C   0  0  0  0  0  1  0  0  0  0  0  0
  186.8500  177.9620  142.1650 O   0  0  0  0  0  0  0  0  0  0  0  0
  185.9350  178.1840  143.2070 C   0  0  0  0  0  0  0  0  0  0  0  0
  190.4480  177.5760  141.4290 C   0  0  0  0  0  0  0  0  0  0  0  0
  188.7520  177.7870  143.6660 C   0  0  0  0  0  0  0  0  0  0  0  0
  185.4090  178.3360  145.6280 C   0  0  0  0  0  3  0  0  0  0  0  0
  182.2120  178.7890  143.4690 C   0  0  0  0  0  0  0  0  0  0  0  0
  181.8180  178.7780  142.1290 C   0  0  0  0  0  3  0  0  0  0  0  0
  184.5250  178.4240  142.8050 C   0  0  0  0  0  0  0  0  0  0  0  0
  182.7700  178.5800  141.1250 C   0  0  0  0  0  3  0  0  0  0  0  0
  183.5560  178.6060  143.8050 C   0  0  0  0  0  3  0  0  0  0  0  0
  184.1140  178.3980  141.4620 C   0  0  0  0  0  3  0  0  0  0  0  0
  181.2670  178.9790  144.4680 O   0  0  0  0  0  1  0  0  0  0  0  0
  191.2900  177.4650  140.2830 N   0  0  0  0  0  2  0  0  0  0  0  0
  191.4000  176.2650  139.5670 N   0  0  0  0  0  2  0  0  0  0  0  0
  190.5800  175.1300  137.5930 C   0  0  0  0  0  2  0  0  0  0  0  0
  191.5540  176.1750  137.0780 C   0  0  1  0  0  3  0  0  0  0  0  0
  190.6860  176.4570  138.3150 C   0  0  2  0  0  3  0  0  0  0  0  0
  193.3030  174.4380  137.5190 O   0  0  0  0  0  0  0  0  0  0  0  0
  192.9720  175.7810  137.3790 C   0  0  0  0  0  0  0  0  0  0  0  0
  193.8550  176.6620  137.5590 O   0  0  0  0  0  1  0  0  0  0  0  0
  1  5  1  0  0  0  0
  2 14  1  1  0  0  0
  2  6  1  0  0  0  0
  3  8  2  0  0  0  0
  4 18  1  0  0  0  0
  5 11  1  6  0  0  0
  6  5  1  0  0  0  0
  6 11  1  6  0  0  0
  8  2  1  0  0  0  0
  8  1  1  0  0  0  0
  9  7  1  0  0  0  0
 10 17  1  0  0  0  0
 10  4  2  0  0  0  0
 12  3  1  0  0  0  0
 12 19  1  0  0  0  0
 13  1  1  0  0  0  0
 15  4  1  0  0  0  0
 15 16  1  0  0  0  0
 16 12  2  0  0  0  0
 17  9  2  0  0  0  0
 18  7  2  0  0  0  0
 18  3  1  0  0  0  0
 19 13  2  0  0  0  0
 20 24  1  0  0  0  0
 20 26  1  0  0  0  0
 21 20  2  0  0  0  0
 22 16  1  0  0  0  0
 22 24  2  0  0  0  0
 23 25  2  0  0  0  0
 23 21  1  0  0  0  0
 25 22  1  0  0  0  0
 27 17  1  0  0  0  0
 28 27  1  0  0  0  0
 29 31  1  0  0  0  0
 30 33  1  1  0  0  0
 30 29  1  0  0  0  0
 30 31  1  0  0  0  0
 31 28  1  1  0  0  0
 33 32  2  0  0  0  0
 33 34  1  0  0  0  0
M  END
>  <MODEL>
8

>  <REMARK>
 VINA RESULT:      -8.7      2.778      7.115
  Name = 
  5 active torsions:
  status: ('A' for Active; 'I' for Inactive)
    1  A    between atoms: N_3  and  N_13
    2  A    between atoms: N_3  and  C_29
    3  A    between atoms: C_12  and  C_28
    4  A    between atoms: N_13  and  C_33
    5  A    between atoms: C_20  and  C_22
                            x       y       z     vdW  Elec       q    Type
                         _______ _______ _______ _____ _____    ______ ____

>  <TORSDO>
F 5

$$$$
=
 OpenBabel10272400083D

 34 40  0  0  1  0  0  0  0  0999 V2000
  182.0240  179.1780  139.5070 N   0  0  0  0  0  0  0  0  0  0  0  0
  181.0870  179.1860  141.6950 C   0  0  2  0  0  3  0  0  0  0  0  0
  183.6030  178.8600  141.3010 C   0  0  0  0  0  0  0  0  0  0  0  0
  185.3590  178.5150  143.0170 C   0  0  0  0  0  0  0  0  0  0  0  0
  180.6260  179.4810  139.2760 C   0  0  1  0  0  3  0  0  0  0  0  0
  179.9830  179.5110  140.6670 C   0  0  2  0  0  3  0  0  0  0  0  0
  183.1470  179.1010  143.7940 C   0  0  0  0  0  3  0  0  0  0  0  0
  182.3250  179.0320  140.8820 C   0  0  0  0  0  0  0  0  0  0  0  0
  183.5930  179.0450  145.1160 C   0  0  0  0  0  3  0  0  0  0  0  0
  185.8040  178.4540  144.3400 C   0  0  0  0  0  3  0  0  0  0  0  0
  180.2570  180.8070  139.9230 C   0  0  0  0  0  2  0  0  0  0  0  0
  184.6640  178.7000  140.2540 C   0  0  0  0  0  0  0  0  0  0  0  0
  183.0050  179.0330  138.4810 C   0  0  0  0  0  3  0  0  0  0  0  0
  180.7270  177.8630  142.3500 C   0  0  0  0  0  1  0  0  0  0  0  0
  186.2670  178.2880  141.9800 O   0  0  0  0  0  0  0  0  0  0  0  0
  185.9410  178.4240  140.6200 C   0  0  0  0  0  0  0  0  0  0  0  0
  184.9240  178.7130  145.3940 C   0  0  0  0  0  0  0  0  0  0  0  0
  184.0180  178.8200  142.7310 C   0  0  0  0  0  0  0  0  0  0  0  0
  184.2690  178.7960  138.8240 C   0  0  0  0  0  3  0  0  0  0  0  0
  189.4330  177.8950  139.2740 C   0  0  0  0  0  0  0  0  0  0  0  0
  189.2330  177.9900  137.8950 C   0  0  0  0  0  3  0  0  0  0  0  0
  187.0550  178.2410  139.6550 C   0  0  0  0  0  0  0  0  0  0  0  0
  187.9500  178.2200  137.3910 C   0  0  0  0  0  3  0  0  0  0  0  0
  188.3510  178.0270  140.1480 C   0  0  0  0  0  3  0  0  0  0  0  0
  186.8690  178.3520  138.2660 C   0  0  0  0  0  3  0  0  0  0  0  0
  190.7080  177.6720  139.7760 O   0  0  0  0  0  1  0  0  0  0  0  0
  185.4010  178.6490  146.7370 N   0  0  0  0  0  2  0  0  0  0  0  0
  186.7560  178.8370  147.0440 N   0  0  0  0  0  2  0  0  0  0  0  0
  188.4990  178.0700  148.5380 C   0  0  0  0  0  2  0  0  0  0  0  0
  188.3530  176.9740  147.4980 C   0  0  1  0  0  3  0  0  0  0  0  0
  187.1280  177.7760  147.9670 C   0  0  2  0  0  3  0  0  0  0  0  0
  188.4820  176.8120  145.0020 O   0  0  0  0  0  0  0  0  0  0  0  0
  188.9240  177.4080  146.1770 C   0  0  0  0  0  0  0  0  0  0  0  0
  189.8390  178.2730  146.1310 O   0  0  0  0  0  1  0  0  0  0  0  0
  1  8  1  0  0  0  0
  2 14  1  6  0  0  0
  3 18  1  0  0  0  0
  4 10  1  0  0  0  0
  5  1  1  0  0  0  0
  5 11  1  1  0  0  0
  5  6  1  0  0  0  0
  6 11  1  1  0  0  0
  6  2  1  0  0  0  0
  7  9  2  0  0  0  0
  8  3  2  0  0  0  0
  8  2  1  0  0  0  0
  9 17  1  0  0  0  0
 10 17  2  0  0  0  0
 12 16  2  0  0  0  0
 12  3  1  0  0  0  0
 13 19  2  0  0  0  0
 13  1  1  0  0  0  0
 15  4  1  0  0  0  0
 16 15  1  0  0  0  0
 17 27  1  0  0  0  0
 18  4  2  0  0  0  0
 18  7  1  0  0  0  0
 19 12  1  0  0  0  0
 20 26  1  0  0  0  0
 20 24  1  0  0  0  0
 21 20  2  0  0  0  0
 22 24  2  0  0  0  0
 22 16  1  0  0  0  0
 23 21  1  0  0  0  0
 23 25  2  0  0  0  0
 25 22  1  0  0  0  0
 27 28  1  0  0  0  0
 30 33  1  6  0  0  0
 30 31  1  0  0  0  0
 30 29  1  0  0  0  0
 31 28  1  6  0  0  0
 31 29  1  0  0  0  0
 32 33  2  0  0  0  0
 34 33  1  0  0  0  0
M  END
>  <MODEL>
9

>  <REMARK>
 VINA RESULT:      -8.6      1.919      7.106
  Name = 
  5 active torsions:
  status: ('A' for Active; 'I' for Inactive)
    1  A    between atoms: N_3  and  N_13
    2  A    between atoms: N_3  and  C_29
    3  A    between atoms: C_12  and  C_28
    4  A    between atoms: N_13  and  C_33
    5  A    between atoms: C_20  and  C_22
                            x       y       z     vdW  Elec       q    Type
                         _______ _______ _______ _____ _____    ______ ____

>  <TORSDO>
F 5

$$$$
