=
 OpenBabel10272415273D

 34 38  0  0  1  0  0  0  0  0999 V2000
  187.5930  178.0400  144.2780 C   0  0  0  0  0  0  0  0  0  0  0  0
  188.8940  177.2940  147.6480 C   0  0  0  0  0  2  0  0  0  0  0  0
  186.7340  177.4240  146.8430 C   0  0  0  0  0  3  0  0  0  0  0  0
  186.9220  178.1050  141.8550 C   0  0  1  0  0  3  0  0  0  0  0  0
  188.0030  178.4610  142.8830 C   0  0  0  0  0  2  0  0  0  0  0  0
  185.2160  178.4550  143.6090 C   0  0  0  0  0  0  0  0  0  0  0  0
  185.5440  178.4980  142.3170 C   0  0  0  0  0  3  0  0  0  0  0  0
  185.8380  177.7480  145.8800 N   0  0  0  0  0  0  0  0  0  0  0  0
  186.2290  178.0850  144.6250 C   0  0  0  0  0  0  0  0  0  0  0  0
  190.3590  177.5650  147.6810 C   0  0  0  0  0  2  0  0  0  0  0  0
  191.1350  176.6670  146.7830 C   0  0  0  0  0  0  0  0  0  0  0  0
  190.9020  176.6580  145.4730 C   0  0  0  0  0  3  0  0  0  0  0  0
  188.1050  177.4040  146.5750 C   0  0  0  0  0  0  0  0  0  0  0  0
  189.7780  177.3120  144.7780 C   0  0  0  0  0  2  0  0  0  0  0  0
  188.5490  177.6280  145.2380 C   0  0  0  0  0  0  0  0  0  0  0  0
  192.2490  175.9330  147.3110 N   0  0  0  0  0  0  0  0  0  0  0  0
  192.7270  174.9700  146.6760 O   0  0  0  0  0  0  0  0  0  0  0  0
  192.8200  176.2930  148.5110 O   0  0  0  0  0  0  0  0  0  0  0  0
  183.8150  178.7720  144.0090 C   0  0  0  0  0  2  0  0  0  0  0  0
  183.0060  178.8440  142.8750 O   0  0  0  0  0  1  0  0  0  0  0  0
  187.2190  178.6450  140.5680 O   0  0  0  0  0  0  0  0  0  0  0  0
  188.5560  177.1980  137.4820 O   0  0  0  0  0  0  0  0  0  0  0  0
  189.5480  177.8480  140.0100 C   0  0  0  0  0  3  0  0  0  0  0  0
  192.1450  176.1710  137.1840 C   0  0  0  0  0  0  0  0  0  0  0  0
  190.7180  176.4290  136.8840 C   0  0  0  0  0  3  0  0  0  0  0  0
  189.9000  176.9640  137.7890 C   0  0  2  0  0  3  0  0  0  0  0  0
  191.8310  177.0840  139.5110 C   0  0  0  0  0  3  0  0  0  0  0  0
  190.3980  177.3150  139.1310 C   0  0  0  0  0  0  0  0  0  0  0  0
  192.6440  176.4750  138.3940 C   0  0  0  0  0  3  0  0  0  0  0  0
  188.1260  178.0850  139.6550 C   0  0  0  0  0  0  0  0  0  0  0  0
  187.6900  177.7600  138.4320 C   0  0  0  0  0  3  0  0  0  0  0  0
  192.9950  175.5910  136.1750 N   0  0  0  0  0  0  0  0  0  0  0  0
  194.1670  176.2920  135.6700 C   0  0  0  0  0  1  0  0  0  0  0  0
  192.7100  174.2760  135.6220 C   0  0  0  0  0  1  0  0  0  0  0  0
  1  9  2  0  0  0  0
  1 15  1  0  0  0  0
  2 10  1  0  0  0  0
  4 21  1  6  0  0  0
  4  7  1  0  0  0  0
  4  5  1  0  0  0  0
  5  1  1  0  0  0  0
  6 19  1  0  0  0  0
  6  9  1  0  0  0  0
  7  6  2  0  0  0  0
  8  3  2  0  0  0  0
  9  8  1  0  0  0  0
 11 16  1  0  0  0  0
 11 10  1  0  0  0  0
 12 11  2  0  0  0  0
 13  3  1  0  0  0  0
 13  2  1  0  0  0  0
 14 15  1  0  0  0  0
 14 12  1  0  0  0  0
 15 13  2  0  0  0  0
 16 18  2  0  0  0  0
 17 16  2  0  0  0  0
 20 19  1  0  0  0  0
 22 26  1  0  0  0  0
 22 31  1  0  0  0  0
 24 29  1  0  0  0  0
 25 24  2  0  0  0  0
 26 25  1  1  0  0  0
 26 28  1  0  0  0  0
 28 27  1  0  0  0  0
 28 23  2  0  0  0  0
 29 27  2  0  0  0  0
 30 23  1  0  0  0  0
 30 21  1  0  0  0  0
 31 30  2  0  0  0  0
 32 24  1  0  0  0  0
 33 32  1  0  0  0  0
 34 32  1  0  0  0  0
M  END
>  <MODEL>
1

>  <REMARK>
 VINA RESULT:      -9.9      0.000      0.000
  Name = 
  5 active torsions:
  status: ('A' for Active; 'I' for Inactive)
    1  A    between atoms: N_3  and  C_25
    2  A    between atoms: C_7  and  N_11
    3  A    between atoms: C_8  and  O_18
    4  A    between atoms: C_10  and  C_12
    5  A    between atoms: O_18  and  C_30
                            x       y       z     vdW  Elec       q    Type
                         _______ _______ _______ _____ _____    ______ ____

>  <TORSDO>
F 5

$$$$
=
 OpenBabel10272415273D

 34 38  0  0  1  0  0  0  0  0999 V2000
  184.2750  178.6320  141.8580 C   0  0  0  0  0  0  0  0  0  0  0  0
  185.3080  178.2920  138.3330 C   0  0  0  0  0  2  0  0  0  0  0  0
  183.3250  179.0020  139.2770 C   0  0  0  0  0  3  0  0  0  0  0  0
  183.9210  179.2330  144.2740 C   0  0  1  0  0  3  0  0  0  0  0  0
  184.7110  178.3700  143.2830 C   0  0  0  0  0  2  0  0  0  0  0  0
  181.9840  179.1200  142.7430 C   0  0  0  0  0  0  0  0  0  0  0  0
  182.4420  179.2160  143.9920 C   0  0  0  0  0  3  0  0  0  0  0  0
  182.5000  179.1610  140.3400 N   0  0  0  0  0  0  0  0  0  0  0  0
  182.9260  178.9570  141.6120 C   0  0  0  0  0  0  0  0  0  0  0  0
  186.6110  177.5720  138.2690 C   0  0  0  0  0  2  0  0  0  0  0  0
  187.7240  178.3290  138.9050 C   0  0  0  0  0  0  0  0  0  0  0  0
  187.6690  178.6540  140.1940 C   0  0  0  0  0  3  0  0  0  0  0  0
  184.6620  178.6380  139.4510 C   0  0  0  0  0  0  0  0  0  0  0  0
  186.4970  178.5290  141.0810 C   0  0  0  0  0  2  0  0  0  0  0  0
  185.1820  178.5370  140.7750 C   0  0  0  0  0  0  0  0  0  0  0  0
  188.9300  178.5640  138.1660 N   0  0  0  0  0  0  0  0  0  0  0  0
  189.0060  179.5210  137.3680 O   0  0  0  0  0  0  0  0  0  0  0  0
  190.0290  177.7520  138.3420 O   0  0  0  0  0  0  0  0  0  0  0  0
  180.5130  179.1930  142.5070 C   0  0  0  0  0  2  0  0  0  0  0  0
  180.0970  180.5250  142.5260 O   0  0  0  0  0  1  0  0  0  0  0  0
  184.2020  178.8740  145.6270 O   0  0  0  0  0  0  0  0  0  0  0  0
  186.9200  178.1070  147.9560 O   0  0  0  0  0  0  0  0  0  0  0  0
  186.5530  178.0650  145.1880 C   0  0  0  0  0  3  0  0  0  0  0  0
  190.2640  176.9200  146.7570 C   0  0  0  0  0  0  0  0  0  0  0  0
  189.1410  177.3470  147.6240 C   0  0  0  0  0  3  0  0  0  0  0  0
  187.9650  177.7080  147.1170 C   0  0  0  0  0  0  0  0  0  0  0  0
  188.8320  177.2760  144.7150 C   0  0  0  0  0  2  0  0  0  0  0  0
  187.7440  177.6950  145.6590 C   0  0  0  0  0  0  0  0  0  0  0  0
  190.1090  176.8920  145.4220 C   0  0  0  0  0  3  0  0  0  0  0  0
  185.4620  178.4840  146.1050 C   0  0  0  0  0  0  0  0  0  0  0  0
  185.6790  178.4900  147.4260 C   0  0  0  0  0  3  0  0  0  0  0  0
  191.5210  176.5370  147.3490 N   0  0  0  0  0  0  0  0  0  0  0  0
  192.0310  177.1890  148.5460 C   0  0  0  0  0  1  0  0  0  0  0  0
  192.3300  175.4780  146.7660 C   0  0  0  0  0  1  0  0  0  0  0  0
  1  5  1  0  0  0  0
  2 13  1  0  0  0  0
  3 13  2  0  0  0  0
  3  8  1  0  0  0  0
  4 21  1  1  0  0  0
  5  4  1  0  0  0  0
  6  7  2  0  0  0  0
  7  4  1  0  0  0  0
  8  9  2  0  0  0  0
  9  1  1  0  0  0  0
  9  6  1  0  0  0  0
 10  2  1  0  0  0  0
 10 11  1  0  0  0  0
 11 12  2  0  0  0  0
 12 14  1  0  0  0  0
 13 15  1  0  0  0  0
 15 14  1  0  0  0  0
 15  1  2  0  0  0  0
 16 18  2  0  0  0  0
 16 11  1  0  0  0  0
 17 16  2  0  0  0  0
 19 20  1  0  0  0  0
 19  6  1  0  0  0  0
 21 30  1  0  0  0  0
 23 28  2  0  0  0  0
 23 30  1  0  0  0  0
 24 32  1  0  0  0  0
 24 25  1  0  0  0  0
 26 25  2  0  0  0  0
 26 22  1  0  0  0  0
 27 29  1  0  0  0  0
 27 28  1  0  0  0  0
 28 26  1  0  0  0  0
 29 24  2  0  0  0  0
 30 31  2  0  0  0  0
 31 22  1  0  0  0  0
 32 33  1  0  0  0  0
 34 32  1  0  0  0  0
M  END
>  <MODEL>
2

>  <REMARK>
 VINA RESULT:      -9.6      3.486      8.045
  Name = 
  5 active torsions:
  status: ('A' for Active; 'I' for Inactive)
    1  A    between atoms: N_3  and  C_25
    2  A    between atoms: C_7  and  N_11
    3  A    between atoms: C_8  and  O_18
    4  A    between atoms: C_10  and  C_12
    5  A    between atoms: O_18  and  C_30
                            x       y       z     vdW  Elec       q    Type
                         _______ _______ _______ _____ _____    ______ ____

>  <TORSDO>
F 5

$$$$
=
 OpenBabel10272415273D

 34 38  0  0  1  0  0  0  0  0999 V2000
  186.8340  177.9040  144.5840 C   0  0  0  0  0  0  0  0  0  0  0  0
  183.3300  178.7350  145.3860 C   0  0  0  0  0  2  0  0  0  0  0  0
  185.2540  178.8570  146.6560 C   0  0  0  0  0  3  0  0  0  0  0  0
  189.1890  177.7330  143.7200 C   0  0  1  0  0  3  0  0  0  0  0  0
  187.7290  177.3100  143.5180 C   0  0  0  0  0  2  0  0  0  0  0  0
  188.7800  177.7890  146.1560 C   0  0  0  0  0  0  0  0  0  0  0  0
  189.6330  177.5880  145.1500 C   0  0  0  0  0  3  0  0  0  0  0  0
  186.5650  178.5870  146.8630 N   0  0  0  0  0  0  0  0  0  0  0  0
  187.3570  178.0910  145.8800 C   0  0  0  0  0  0  0  0  0  0  0  0
  182.4470  178.2550  144.2860 C   0  0  0  0  0  2  0  0  0  0  0  0
  182.7010  178.9480  142.9930 C   0  0  0  0  0  0  0  0  0  0  0  0
  183.8970  178.8810  142.4150 C   0  0  0  0  0  3  0  0  0  0  0  0
  184.6650  178.6520  145.4070 C   0  0  0  0  0  0  0  0  0  0  0  0
  185.1320  178.3420  143.0150 C   0  0  0  0  0  2  0  0  0  0  0  0
  185.4880  178.2520  144.3140 C   0  0  0  0  0  0  0  0  0  0  0  0
  181.6060  179.5530  142.2900 N   0  0  0  0  0  0  0  0  0  0  0  0
  181.5010  179.4220  141.0530 O   0  0  0  0  0  0  0  0  0  0  0  0
  180.6450  180.2650  142.9720 O   0  0  0  0  0  0  0  0  0  0  0  0
  189.2860  177.7170  147.5570 C   0  0  0  0  0  2  0  0  0  0  0  0
  190.4380  176.9300  147.6020 O   0  0  0  0  0  1  0  0  0  0  0  0
  190.0650  177.0470  142.8250 O   0  0  0  0  0  0  0  0  0  0  0  0
  190.9640  176.6880  139.2950 O   0  0  0  0  0  0  0  0  0  0  0  0
  188.7320  177.5400  140.7390 C   0  0  0  0  0  3  0  0  0  0  0  0
  188.5720  177.5770  136.5540 C   0  0  0  0  0  0  0  0  0  0  0  0
  189.7750  177.1270  137.2910 C   0  0  0  0  0  3  0  0  0  0  0  0
  189.8170  177.1180  138.6210 C   0  0  1  0  0  3  0  0  0  0  0  0
  187.3970  178.0330  138.7350 C   0  0  0  0  0  3  0  0  0  0  0  0
  188.6520  177.5620  139.4080 C   0  0  0  0  0  0  0  0  0  0  0  0
  187.4860  177.9910  137.2290 C   0  0  0  0  0  3  0  0  0  0  0  0
  189.9650  177.0780  141.4260 C   0  0  0  0  0  0  0  0  0  0  0  0
  191.0140  176.6780  140.6970 C   0  0  0  0  0  3  0  0  0  0  0  0
  188.5700  177.5710  135.1130 N   0  0  0  0  0  0  0  0  0  0  0  0
  189.7710  177.2620  134.3500 C   0  0  0  0  0  1  0  0  0  0  0  0
  187.3600  177.8760  134.3650 C   0  0  0  0  0  1  0  0  0  0  0  0
  1  9  1  0  0  0  0
  2 13  1  0  0  0  0
  3  8  1  0  0  0  0
  4 21  1  6  0  0  0
  4  7  1  0  0  0  0
  5  4  1  0  0  0  0
  5  1  1  0  0  0  0
  6 19  1  0  0  0  0
  7  6  2  0  0  0  0
  9  6  1  0  0  0  0
  9  8  2  0  0  0  0
 10  2  1  0  0  0  0
 11 10  1  0  0  0  0
 12 11  2  0  0  0  0
 12 14  1  0  0  0  0
 13  3  2  0  0  0  0
 14 15  1  0  0  0  0
 15  1  2  0  0  0  0
 15 13  1  0  0  0  0
 16 18  2  0  0  0  0
 16 11  1  0  0  0  0
 17 16  2  0  0  0  0
 19 20  1  0  0  0  0
 22 31  1  0  0  0  0
 23 30  1  0  0  0  0
 24 29  1  0  0  0  0
 24 25  2  0  0  0  0
 26 25  1  1  0  0  0
 26 22  1  0  0  0  0
 26 28  1  0  0  0  0
 27 28  1  0  0  0  0
 28 23  2  0  0  0  0
 29 27  2  0  0  0  0
 30 21  1  0  0  0  0
 31 30  2  0  0  0  0
 32 24  1  0  0  0  0
 33 32  1  0  0  0  0
 34 32  1  0  0  0  0
M  END
>  <MODEL>
3

>  <REMARK>
 VINA RESULT:      -9.5      2.424      6.052
  Name = 
  5 active torsions:
  status: ('A' for Active; 'I' for Inactive)
    1  A    between atoms: N_3  and  C_25
    2  A    between atoms: C_7  and  N_11
    3  A    between atoms: C_8  and  O_18
    4  A    between atoms: C_10  and  C_12
    5  A    between atoms: O_18  and  C_30
                            x       y       z     vdW  Elec       q    Type
                         _______ _______ _______ _____ _____    ______ ____

>  <TORSDO>
F 5

$$$$
=
 OpenBabel10272415273D

 34 38  0  0  1  0  0  0  0  0999 V2000
  188.6690  177.7030  144.2320 C   0  0  0  0  0  0  0  0  0  0  0  0
  191.7120  177.0290  142.2580 C   0  0  0  0  0  2  0  0  0  0  0  0
  191.2560  176.7360  144.5020 C   0  0  0  0  0  3  0  0  0  0  0  0
  186.3940  177.7860  145.3000 C   0  0  1  0  0  3  0  0  0  0  0  0
  187.2800  178.2990  144.1590 C   0  0  0  0  0  2  0  0  0  0  0  0
  188.4100  177.6300  146.7220 C   0  0  0  0  0  0  0  0  0  0  0  0
  187.0940  177.8340  146.6320 C   0  0  0  0  0  3  0  0  0  0  0  0
  190.4760  176.9220  145.5950 N   0  0  0  0  0  0  0  0  0  0  0  0
  189.2190  177.4220  145.4990 C   0  0  0  0  0  0  0  0  0  0  0  0
  191.5540  177.6120  140.8960 C   0  0  0  0  0  2  0  0  0  0  0  0
  190.4610  176.9710  140.1140 C   0  0  0  0  0  0  0  0  0  0  0  0
  189.2070  177.0010  140.5570 C   0  0  0  0  0  3  0  0  0  0  0  0
  190.7850  177.0370  143.2220 C   0  0  0  0  0  0  0  0  0  0  0  0
  188.7590  177.4390  141.8930 C   0  0  0  0  0  2  0  0  0  0  0  0
  189.4280  177.4450  143.0650 C   0  0  0  0  0  0  0  0  0  0  0  0
  190.7380  176.4650  138.8010 N   0  0  0  0  0  0  0  0  0  0  0  0
  191.1730  175.3040  138.6510 O   0  0  0  0  0  0  0  0  0  0  0  0
  190.5040  177.2410  137.6880 O   0  0  0  0  0  0  0  0  0  0  0  0
  189.0450  177.6040  148.0710 C   0  0  0  0  0  2  0  0  0  0  0  0
  188.1330  178.0470  149.0300 O   0  0  0  0  0  1  0  0  0  0  0  0
  185.1390  178.4660  145.3410 O   0  0  0  0  0  0  0  0  0  0  0  0
  182.0340  178.9410  143.4620 O   0  0  0  0  0  0  0  0  0  0  0  0
  184.7100  178.4270  142.8540 C   0  0  0  0  0  3  0  0  0  0  0  0
  181.9520  178.7790  139.7210 C   0  0  0  0  0  0  0  0  0  0  0  0
  181.5520  178.9190  141.1410 C   0  0  0  0  0  3  0  0  0  0  0  0
  182.4360  178.8060  142.1300 C   0  0  0  0  0  0  0  0  0  0  0  0
  184.3380  178.3800  140.4250 C   0  0  0  0  0  2  0  0  0  0  0  0
  183.8550  178.5340  141.8370 C   0  0  0  0  0  0  0  0  0  0  0  0
  183.2350  178.5320  139.4060 C   0  0  0  0  0  3  0  0  0  0  0  0
  184.2530  178.5750  144.2590 C   0  0  0  0  0  0  0  0  0  0  0  0
  182.9610  178.8220  144.5080 C   0  0  0  0  0  3  0  0  0  0  0  0
  180.9620  178.9090  138.6820 N   0  0  0  0  0  0  0  0  0  0  0  0
  180.9000  180.0890  137.8310 C   0  0  0  0  0  1  0  0  0  0  0  0
  179.9840  177.8590  138.4460 C   0  0  0  0  0  1  0  0  0  0  0  0
  1  9  1  0  0  0  0
  2 13  1  0  0  0  0
  3  8  1  0  0  0  0
  4 21  1  1  0  0  0
  4  7  1  0  0  0  0
  5  1  1  0  0  0  0
  5  4  1  0  0  0  0
  6 19  1  0  0  0  0
  7  6  2  0  0  0  0
  9  8  2  0  0  0  0
  9  6  1  0  0  0  0
 10  2  1  0  0  0  0
 11 12  2  0  0  0  0
 11 10  1  0  0  0  0
 12 14  1  0  0  0  0
 13  3  2  0  0  0  0
 14 15  1  0  0  0  0
 15 13  1  0  0  0  0
 15  1  2  0  0  0  0
 16 11  1  0  0  0  0
 17 16  2  0  0  0  0
 18 16  2  0  0  0  0
 19 20  1  0  0  0  0
 22 31  1  0  0  0  0
 23 30  1  0  0  0  0
 24 25  1  0  0  0  0
 25 26  2  0  0  0  0
 26 22  1  0  0  0  0
 27 28  1  0  0  0  0
 28 26  1  0  0  0  0
 28 23  2  0  0  0  0
 29 24  2  0  0  0  0
 29 27  1  0  0  0  0
 30 31  2  0  0  0  0
 30 21  1  0  0  0  0
 32 24  1  0  0  0  0
 33 32  1  0  0  0  0
 34 32  1  0  0  0  0
M  END
>  <MODEL>
4

>  <REMARK>
 VINA RESULT:      -9.5      3.108      7.605
  Name = 
  5 active torsions:
  status: ('A' for Active; 'I' for Inactive)
    1  A    between atoms: N_3  and  C_25
    2  A    between atoms: C_7  and  N_11
    3  A    between atoms: C_8  and  O_18
    4  A    between atoms: C_10  and  C_12
    5  A    between atoms: O_18  and  C_30
                            x       y       z     vdW  Elec       q    Type
                         _______ _______ _______ _____ _____    ______ ____

>  <TORSDO>
F 5

$$$$
=
 OpenBabel10272415273D

 34 38  0  0  1  0  0  0  0  0999 V2000
  184.7370  178.8150  142.6700 C   0  0  0  0  0  0  0  0  0  0  0  0
  184.7210  178.7120  146.3580 C   0  0  0  0  0  2  0  0  0  0  0  0
  182.9980  178.6150  144.8240 C   0  0  0  0  0  3  0  0  0  0  0  0
  184.9820  178.4350  140.1970 C   0  0  1  0  0  3  0  0  0  0  0  0
  185.6300  179.0060  141.4640 C   0  0  0  0  0  2  0  0  0  0  0  0
  182.7690  179.0130  141.1340 C   0  0  0  0  0  0  0  0  0  0  0  0
  183.5400  178.8460  140.0580 C   0  0  0  0  0  3  0  0  0  0  0  0
  182.5160  178.7320  143.5630 N   0  0  0  0  0  0  0  0  0  0  0  0
  183.3400  178.8630  142.4930 C   0  0  0  0  0  0  0  0  0  0  0  0
  186.0820  179.0420  146.8650 C   0  0  0  0  0  2  0  0  0  0  0  0
  187.1070  178.0360  146.4760 C   0  0  0  0  0  0  0  0  0  0  0  0
  187.3590  177.7910  145.1930 C   0  0  0  0  0  3  0  0  0  0  0  0
  184.3720  178.6040  145.0720 C   0  0  0  0  0  0  0  0  0  0  0  0
  186.5760  178.2710  144.0380 C   0  0  0  0  0  2  0  0  0  0  0  0
  185.2730  178.6120  143.9650 C   0  0  0  0  0  0  0  0  0  0  0  0
  187.9380  177.4480  147.4870 N   0  0  0  0  0  0  0  0  0  0  0  0
  187.7180  177.6730  148.6950 O   0  0  0  0  0  0  0  0  0  0  0  0
  188.9730  176.6090  147.1400 O   0  0  0  0  0  0  0  0  0  0  0  0
  181.3260  179.3380  140.9440 C   0  0  0  0  0  2  0  0  0  0  0  0
  180.6140  178.1730  140.6550 O   0  0  0  0  0  1  0  0  0  0  0  0
  185.7350  178.7570  139.0280 O   0  0  0  0  0  0  0  0  0  0  0  0
  187.8210  176.5950  136.9360 O   0  0  0  0  0  0  0  0  0  0  0  0
  188.1390  178.0390  139.3050 C   0  0  0  0  0  3  0  0  0  0  0  0
  191.3820  175.8440  137.8200 C   0  0  0  0  0  0  0  0  0  0  0  0
  190.0730  175.8780  137.1280 C   0  0  0  0  0  3  0  0  0  0  0  0
  189.0480  176.5790  137.6070 C   0  0  2  0  0  3  0  0  0  0  0  0
  190.4830  177.3660  139.6140 C   0  0  0  0  0  3  0  0  0  0  0  0
  189.1890  177.3500  138.8560 C   0  0  0  0  0  0  0  0  0  0  0  0
  191.5570  176.5310  138.9610 C   0  0  0  0  0  3  0  0  0  0  0  0
  186.8490  178.0370  138.5700 C   0  0  0  0  0  0  0  0  0  0  0  0
  186.7370  177.3320  137.4380 C   0  0  0  0  0  3  0  0  0  0  0  0
  192.4650  175.0710  137.2650 N   0  0  0  0  0  0  0  0  0  0  0  0
  193.8550  175.4650  137.4480 C   0  0  0  0  0  1  0  0  0  0  0  0
  192.2060  173.8630  136.4980 C   0  0  0  0  0  1  0  0  0  0  0  0
  1 15  1  0  0  0  0
  2 10  1  0  0  0  0
  3 13  1  0  0  0  0
  4 21  1  6  0  0  0
  4  5  1  0  0  0  0
  5  1  1  0  0  0  0
  6  9  1  0  0  0  0
  7  4  1  0  0  0  0
  7  6  2  0  0  0  0
  8  3  2  0  0  0  0
  9  1  2  0  0  0  0
  9  8  1  0  0  0  0
 11 10  1  0  0  0  0
 11 16  1  0  0  0  0
 12 11  2  0  0  0  0
 13  2  1  0  0  0  0
 14 12  1  0  0  0  0
 15 14  1  0  0  0  0
 15 13  2  0  0  0  0
 16 17  2  0  0  0  0
 18 16  2  0  0  0  0
 19  6  1  0  0  0  0
 20 19  1  0  0  0  0
 22 31  1  0  0  0  0
 22 26  1  0  0  0  0
 24 29  1  0  0  0  0
 25 24  2  0  0  0  0
 26 25  1  1  0  0  0
 26 28  1  0  0  0  0
 28 23  2  0  0  0  0
 28 27  1  0  0  0  0
 29 27  2  0  0  0  0
 30 21  1  0  0  0  0
 30 23  1  0  0  0  0
 31 30  2  0  0  0  0
 32 33  1  0  0  0  0
 32 24  1  0  0  0  0
 34 32  1  0  0  0  0
M  END
>  <MODEL>
5

>  <REMARK>
 VINA RESULT:      -9.3      2.182      3.180
  Name = 
  5 active torsions:
  status: ('A' for Active; 'I' for Inactive)
    1  A    between atoms: N_3  and  C_25
    2  A    between atoms: C_7  and  N_11
    3  A    between atoms: C_8  and  O_18
    4  A    between atoms: C_10  and  C_12
    5  A    between atoms: O_18  and  C_30
                            x       y       z     vdW  Elec       q    Type
                         _______ _______ _______ _____ _____    ______ ____

>  <TORSDO>
F 5

$$$$
=
 OpenBabel10272415273D

 34 38  0  0  1  0  0  0  0  0999 V2000
  189.7550  177.4080  144.0970 C   0  0  0  0  0  0  0  0  0  0  0  0
  191.9510  176.9090  141.1750 C   0  0  0  0  0  2  0  0  0  0  0  0
  192.2360  176.3790  143.4040 C   0  0  0  0  0  3  0  0  0  0  0  0
  187.9590  177.4090  145.8570 C   0  0  1  0  0  3  0  0  0  0  0  0
  188.4490  178.0300  144.5440 C   0  0  0  0  0  2  0  0  0  0  0  0
  190.3170  177.0670  146.5130 C   0  0  0  0  0  0  0  0  0  0  0  0
  189.0560  177.3000  146.8820 C   0  0  0  0  0  3  0  0  0  0  0  0
  191.8650  176.4550  144.7050 N   0  0  0  0  0  0  0  0  0  0  0  0
  190.6720  176.9820  145.0780 C   0  0  0  0  0  0  0  0  0  0  0  0
  191.3870  177.6400  140.0050 C   0  0  0  0  0  2  0  0  0  0  0  0
  190.0690  177.1060  139.5670 C   0  0  0  0  0  0  0  0  0  0  0  0
  189.0310  177.1060  140.3990 C   0  0  0  0  0  3  0  0  0  0  0  0
  191.3910  176.8250  142.3860 C   0  0  0  0  0  0  0  0  0  0  0  0
  189.0650  177.4020  141.8440 C   0  0  0  0  0  2  0  0  0  0  0  0
  190.0780  177.2680  142.7250 C   0  0  0  0  0  0  0  0  0  0  0  0
  189.8770  176.7420  138.1930 N   0  0  0  0  0  0  0  0  0  0  0  0
  190.1060  175.5760  137.8110 O   0  0  0  0  0  0  0  0  0  0  0  0
  189.4140  177.6660  137.2830 O   0  0  0  0  0  0  0  0  0  0  0  0
  191.3550  176.8830  147.5680 C   0  0  0  0  0  2  0  0  0  0  0  0
  191.5790  175.5220  147.7770 O   0  0  0  0  0  1  0  0  0  0  0  0
  186.8220  178.1000  146.3750 O   0  0  0  0  0  0  0  0  0  0  0  0
  183.3630  179.0560  145.6520 O   0  0  0  0  0  0  0  0  0  0  0  0
  185.5600  178.1440  144.1900 C   0  0  0  0  0  3  0  0  0  0  0  0
  181.9740  178.9360  142.1760 C   0  0  0  0  0  0  0  0  0  0  0  0
  182.1130  179.1250  143.6390 C   0  0  0  0  0  3  0  0  0  0  0  0
  183.2570  178.8710  144.2700 C   0  0  0  0  0  0  0  0  0  0  0  0
  184.3700  178.1730  142.0390 C   0  0  0  0  0  2  0  0  0  0  0  0
  184.4320  178.3880  143.5220 C   0  0  0  0  0  0  0  0  0  0  0  0
  183.0180  178.4980  141.4530 C   0  0  0  0  0  3  0  0  0  0  0  0
  185.6430  178.3500  145.6580 C   0  0  0  0  0  0  0  0  0  0  0  0
  184.5670  178.7890  146.3220 C   0  0  0  0  0  3  0  0  0  0  0  0
  180.7160  179.2230  141.5330 N   0  0  0  0  0  0  0  0  0  0  0  0
  180.1170  178.2990  140.5820 C   0  0  0  0  0  1  0  0  0  0  0  0
  179.9970  180.4560  141.8140 C   0  0  0  0  0  1  0  0  0  0  0  0
  1  5  1  0  0  0  0
  1  9  1  0  0  0  0
  2 13  1  0  0  0  0
  3  8  1  0  0  0  0
  4 21  1  1  0  0  0
  4  7  1  0  0  0  0
  5  4  1  0  0  0  0
  6  7  2  0  0  0  0
  6 19  1  0  0  0  0
  8  9  2  0  0  0  0
  9  6  1  0  0  0  0
 10  2  1  0  0  0  0
 11 10  1  0  0  0  0
 11 12  2  0  0  0  0
 12 14  1  0  0  0  0
 13 15  1  0  0  0  0
 13  3  2  0  0  0  0
 14 15  1  0  0  0  0
 15  1  2  0  0  0  0
 16 11  1  0  0  0  0
 17 16  2  0  0  0  0
 18 16  2  0  0  0  0
 19 20  1  0  0  0  0
 22 31  1  0  0  0  0
 23 30  1  0  0  0  0
 24 25  1  0  0  0  0
 25 26  2  0  0  0  0
 26 22  1  0  0  0  0
 27 28  1  0  0  0  0
 28 23  2  0  0  0  0
 28 26  1  0  0  0  0
 29 27  1  0  0  0  0
 29 24  2  0  0  0  0
 30 31  2  0  0  0  0
 30 21  1  0  0  0  0
 32 34  1  0  0  0  0
 32 24  1  0  0  0  0
 33 32  1  0  0  0  0
M  END
>  <MODEL>
6

>  <REMARK>
 VINA RESULT:      -9.2      2.547      8.493
  Name = 
  5 active torsions:
  status: ('A' for Active; 'I' for Inactive)
    1  A    between atoms: N_3  and  C_25
    2  A    between atoms: C_7  and  N_11
    3  A    between atoms: C_8  and  O_18
    4  A    between atoms: C_10  and  C_12
    5  A    between atoms: O_18  and  C_30
                            x       y       z     vdW  Elec       q    Type
                         _______ _______ _______ _____ _____    ______ ____

>  <TORSDO>
F 5

$$$$
=
 OpenBabel10272415273D

 34 38  0  0  1  0  0  0  0  0999 V2000
  188.4900  178.0370  142.3880 C   0  0  0  0  0  0  0  0  0  0  0  0
  188.6360  177.5680  146.0440 C   0  0  0  0  0  2  0  0  0  0  0  0
  186.8450  177.6520  144.5890 C   0  0  0  0  0  3  0  0  0  0  0  0
  188.6180  177.9020  139.8800 C   0  0  1  0  0  3  0  0  0  0  0  0
  189.3330  178.3330  141.1660 C   0  0  0  0  0  2  0  0  0  0  0  0
  186.4610  178.4190  140.9710 C   0  0  0  0  0  0  0  0  0  0  0  0
  187.1800  178.3480  139.8500 C   0  0  0  0  0  3  0  0  0  0  0  0
  186.3100  177.9030  143.3700 N   0  0  0  0  0  0  0  0  0  0  0  0
  187.0880  178.1260  142.2810 C   0  0  0  0  0  0  0  0  0  0  0  0
  190.0250  177.8240  146.5180 C   0  0  0  0  0  2  0  0  0  0  0  0
  191.0100  176.8440  145.9850 C   0  0  0  0  0  0  0  0  0  0  0  0
  191.2000  176.7250  144.6730 C   0  0  0  0  0  3  0  0  0  0  0  0
  188.2290  177.5940  144.7710 C   0  0  0  0  0  0  0  0  0  0  0  0
  190.3770  177.3300  143.6090 C   0  0  0  0  0  2  0  0  0  0  0  0
  189.0790  177.6980  143.6300 C   0  0  0  0  0  0  0  0  0  0  0  0
  191.8730  176.1450  146.8930 N   0  0  0  0  0  0  0  0  0  0  0  0
  192.3650  175.0430  146.5740 O   0  0  0  0  0  0  0  0  0  0  0  0
  192.1890  176.6900  148.1170 O   0  0  0  0  0  0  0  0  0  0  0  0
  185.0180  178.7860  140.8810 C   0  0  0  0  0  2  0  0  0  0  0  0
  184.8490  179.8050  139.9430 O   0  0  0  0  0  1  0  0  0  0  0  0
  189.3250  178.3270  138.7150 O   0  0  0  0  0  0  0  0  0  0  0  0
  190.4200  176.3760  135.8170 O   0  0  0  0  0  0  0  0  0  0  0  0
  191.3910  176.9150  138.3790 C   0  0  0  0  0  3  0  0  0  0  0  0
  193.6210  174.4330  135.8480 C   0  0  0  0  0  0  0  0  0  0  0  0
  192.3340  175.0330  135.4270 C   0  0  0  0  0  3  0  0  0  0  0  0
  191.6320  175.8210  136.2380 C   0  0  1  0  0  3  0  0  0  0  0  0
  193.4160  175.5520  138.0960 C   0  0  0  0  0  3  0  0  0  0  0  0
  192.1220  176.1220  137.5960 C   0  0  0  0  0  0  0  0  0  0  0  0
  194.1070  174.6790  137.0770 C   0  0  0  0  0  3  0  0  0  0  0  0
  190.1060  177.4900  137.9040 C   0  0  0  0  0  0  0  0  0  0  0  0
  189.6760  177.2070  136.6690 C   0  0  0  0  0  3  0  0  0  0  0  0
  194.3490  173.5850  134.9380 N   0  0  0  0  0  0  0  0  0  0  0  0
  193.7610  172.3700  134.3920 C   0  0  0  0  0  1  0  0  0  0  0  0
  195.7050  173.9150  134.5300 C   0  0  0  0  0  1  0  0  0  0  0  0
  1 15  1  0  0  0  0
  2 10  1  0  0  0  0
  3 13  1  0  0  0  0
  4 21  1  6  0  0  0
  4  5  1  0  0  0  0
  5  1  1  0  0  0  0
  6  9  1  0  0  0  0
  7  4  1  0  0  0  0
  7  6  2  0  0  0  0
  8  3  2  0  0  0  0
  9  1  2  0  0  0  0
  9  8  1  0  0  0  0
 11 10  1  0  0  0  0
 11 16  1  0  0  0  0
 12 11  2  0  0  0  0
 13  2  1  0  0  0  0
 14 15  1  0  0  0  0
 14 12  1  0  0  0  0
 15 13  2  0  0  0  0
 16 18  2  0  0  0  0
 17 16  2  0  0  0  0
 19  6  1  0  0  0  0
 20 19  1  0  0  0  0
 22 26  1  0  0  0  0
 22 31  1  0  0  0  0
 24 29  1  0  0  0  0
 25 24  2  0  0  0  0
 26 25  1  6  0  0  0
 26 28  1  0  0  0  0
 28 27  1  0  0  0  0
 28 23  2  0  0  0  0
 29 27  2  0  0  0  0
 30 23  1  0  0  0  0
 30 21  1  0  0  0  0
 31 30  2  0  0  0  0
 32 24  1  0  0  0  0
 33 32  1  0  0  0  0
 34 32  1  0  0  0  0
M  END
>  <MODEL>
7

>  <REMARK>
 VINA RESULT:      -9.0      1.584      2.441
  Name = 
  5 active torsions:
  status: ('A' for Active; 'I' for Inactive)
    1  A    between atoms: N_3  and  C_25
    2  A    between atoms: C_7  and  N_11
    3  A    between atoms: C_8  and  O_18
    4  A    between atoms: C_10  and  C_12
    5  A    between atoms: O_18  and  C_30
                            x       y       z     vdW  Elec       q    Type
                         _______ _______ _______ _____ _____    ______ ____

>  <TORSDO>
F 5

$$$$
=
 OpenBabel10272415273D

 34 38  0  0  1  0  0  0  0  0999 V2000
  188.5950  177.7930  144.0870 C   0  0  0  0  0  0  0  0  0  0  0  0
  189.1890  177.4230  147.7090 C   0  0  0  0  0  2  0  0  0  0  0  0
  187.2390  177.3910  146.4740 C   0  0  0  0  0  3  0  0  0  0  0  0
  188.4350  177.6010  141.5850 C   0  0  1  0  0  3  0  0  0  0  0  0
  189.2750  178.0950  142.7690 C   0  0  0  0  0  2  0  0  0  0  0  0
  186.3990  178.0490  142.9120 C   0  0  0  0  0  0  0  0  0  0  0  0
  186.9840  177.9820  141.7150 C   0  0  0  0  0  3  0  0  0  0  0  0
  186.5540  177.5870  145.3210 N   0  0  0  0  0  0  0  0  0  0  0  0
  187.1870  177.8170  144.1440 C   0  0  0  0  0  0  0  0  0  0  0  0
  190.6100  177.7530  148.0110 C   0  0  0  0  0  2  0  0  0  0  0  0
  191.5710  176.8050  147.3840 C   0  0  0  0  0  0  0  0  0  0  0  0
  191.6120  176.6610  146.0620 C   0  0  0  0  0  3  0  0  0  0  0  0
  188.6350  177.3990  146.4920 C   0  0  0  0  0  0  0  0  0  0  0  0
  190.6430  177.2020  145.0910 C   0  0  0  0  0  2  0  0  0  0  0  0
  189.3400  177.5120  145.2580 C   0  0  0  0  0  0  0  0  0  0  0  0
  192.5660  176.1680  148.1980 N   0  0  0  0  0  0  0  0  0  0  0  0
  192.9970  175.0350  147.8970 O   0  0  0  0  0  0  0  0  0  0  0  0
  193.0760  176.8050  149.3070 O   0  0  0  0  0  0  0  0  0  0  0  0
  184.9400  178.3480  142.9850 C   0  0  0  0  0  2  0  0  0  0  0  0
  184.7490  179.6660  143.4020 O   0  0  0  0  0  1  0  0  0  0  0  0
  188.9800  178.0270  140.3360 O   0  0  0  0  0  0  0  0  0  0  0  0
  191.9800  176.5350  138.8610 O   0  0  0  0  0  0  0  0  0  0  0  0
  189.2220  176.3410  138.4730 C   0  0  0  0  0  3  0  0  0  0  0  0
  191.7710  174.0440  136.0730 C   0  0  0  0  0  0  0  0  0  0  0  0
  192.2870  174.9550  137.1200 C   0  0  0  0  0  3  0  0  0  0  0  0
  191.4690  175.6810  137.8780 C   0  0  0  0  0  0  0  0  0  0  0  0
  189.4100  174.6980  136.6550 C   0  0  0  0  0  2  0  0  0  0  0  0
  190.0090  175.5980  137.6940 C   0  0  0  0  0  0  0  0  0  0  0  0
  190.4480  173.9350  135.8690 C   0  0  0  0  0  3  0  0  0  0  0  0
  189.7940  177.2390  139.5080 C   0  0  0  0  0  0  0  0  0  0  0  0
  191.1220  177.3040  139.6620 C   0  0  0  0  0  3  0  0  0  0  0  0
  192.6930  173.2760  135.2740 N   0  0  0  0  0  0  0  0  0  0  0  0
  192.2450  172.1620  134.4510 C   0  0  0  0  0  1  0  0  0  0  0  0
  194.1140  173.5890  135.2620 C   0  0  0  0  0  1  0  0  0  0  0  0
  1  9  2  0  0  0  0
  1 15  1  0  0  0  0
  2 10  1  0  0  0  0
  3 13  1  0  0  0  0
  4 21  1  6  0  0  0
  4  7  1  0  0  0  0
  4  5  1  0  0  0  0
  5  1  1  0  0  0  0
  6 19  1  0  0  0  0
  6  9  1  0  0  0  0
  7  6  2  0  0  0  0
  8  3  2  0  0  0  0
  9  8  1  0  0  0  0
 11 10  1  0  0  0  0
 11 16  1  0  0  0  0
 12 11  2  0  0  0  0
 13  2  1  0  0  0  0
 14 15  1  0  0  0  0
 14 12  1  0  0  0  0
 15 13  2  0  0  0  0
 16 18  2  0  0  0  0
 17 16  2  0  0  0  0
 19 20  1  0  0  0  0
 22 31  1  0  0  0  0
 23 30  1  0  0  0  0
 24 25  1  0  0  0  0
 25 26  2  0  0  0  0
 26 22  1  0  0  0  0
 27 28  1  0  0  0  0
 28 26  1  0  0  0  0
 28 23  2  0  0  0  0
 29 24  2  0  0  0  0
 29 27  1  0  0  0  0
 30 31  2  0  0  0  0
 30 21  1  0  0  0  0
 32 24  1  0  0  0  0
 33 32  1  0  0  0  0
 34 32  1  0  0  0  0
M  END
>  <MODEL>
8

>  <REMARK>
 VINA RESULT:      -8.9      1.432      2.127
  Name = 
  5 active torsions:
  status: ('A' for Active; 'I' for Inactive)
    1  A    between atoms: N_3  and  C_25
    2  A    between atoms: C_7  and  N_11
    3  A    between atoms: C_8  and  O_18
    4  A    between atoms: C_10  and  C_12
    5  A    between atoms: O_18  and  C_30
                            x       y       z     vdW  Elec       q    Type
                         _______ _______ _______ _____ _____    ______ ____

>  <TORSDO>
F 5

$$$$
=
 OpenBabel10272415273D

 34 38  0  0  1  0  0  0  0  0999 V2000
  188.5950  177.6620  141.4710 C   0  0  0  0  0  0  0  0  0  0  0  0
  188.1520  177.4850  145.1290 C   0  0  0  0  0  2  0  0  0  0  0  0
  190.0530  177.6640  143.8320 C   0  0  0  0  0  3  0  0  0  0  0  0
  188.6640  178.2320  139.0230 C   0  0  1  0  0  3  0  0  0  0  0  0
  187.8570  177.5810  140.1520 C   0  0  0  0  0  2  0  0  0  0  0  0
  190.7370  177.5420  140.1790 C   0  0  0  0  0  0  0  0  0  0  0  0
  190.1070  177.8040  139.0320 C   0  0  0  0  0  3  0  0  0  0  0  0
  190.6870  177.6320  142.6350 N   0  0  0  0  0  0  0  0  0  0  0  0
  190.0030  177.5990  141.4640 C   0  0  0  0  0  0  0  0  0  0  0  0
  186.7340  177.1450  145.4370 C   0  0  0  0  0  2  0  0  0  0  0  0
  185.7770  178.1980  145.0030 C   0  0  0  0  0  0  0  0  0  0  0  0
  185.6890  178.5430  143.7210 C   0  0  0  0  0  3  0  0  0  0  0  0
  188.6590  177.6840  143.9080 C   0  0  0  0  0  0  0  0  0  0  0  0
  186.6040  178.1370  142.6390 C   0  0  0  0  0  2  0  0  0  0  0  0
  187.9040  177.7770  142.7010 C   0  0  0  0  0  0  0  0  0  0  0  0
  184.8320  178.7240  145.9460 N   0  0  0  0  0  0  0  0  0  0  0  0
  185.1360  178.8300  147.1520 O   0  0  0  0  0  0  0  0  0  0  0  0
  183.5870  179.1410  145.5300 O   0  0  0  0  0  0  0  0  0  0  0  0
  192.1880  177.2030  140.1440 C   0  0  0  0  0  2  0  0  0  0  0  0
  192.5380  176.7600  138.8680 O   0  0  0  0  0  1  0  0  0  0  0  0
  188.0590  178.0140  137.7480 O   0  0  0  0  0  0  0  0  0  0  0  0
  184.7810  176.5190  137.1030 O   0  0  0  0  0  0  0  0  0  0  0  0
  187.4120  175.6110  137.3310 C   0  0  0  0  0  3  0  0  0  0  0  0
  184.3720  172.8390  136.5410 C   0  0  0  0  0  0  0  0  0  0  0  0
  184.0950  174.2850  136.7030 C   0  0  0  0  0  3  0  0  0  0  0  0
  185.0680  175.1590  136.9530 C   0  0  0  0  0  0  0  0  0  0  0  0
  186.8260  173.2580  136.9280 C   0  0  0  0  0  2  0  0  0  0  0  0
  186.4650  174.7060  137.0790 C   0  0  0  0  0  0  0  0  0  0  0  0
  185.6310  172.3800  136.6470 C   0  0  0  0  0  3  0  0  0  0  0  0
  187.0760  177.0490  137.4840 C   0  0  0  0  0  0  0  0  0  0  0  0
  185.8020  177.4440  137.3670 C   0  0  0  0  0  3  0  0  0  0  0  0
  183.2890  171.9270  136.2710 N   0  0  0  0  0  0  0  0  0  0  0  0
  181.9130  172.3900  136.1590 C   0  0  0  0  0  1  0  0  0  0  0  0
  183.5340  170.5040  136.1000 C   0  0  0  0  0  1  0  0  0  0  0  0
  1 15  1  0  0  0  0
  2 10  1  0  0  0  0
  3 13  1  0  0  0  0
  4 21  1  6  0  0  0
  4  7  1  0  0  0  0
  4  5  1  0  0  0  0
  5  1  1  0  0  0  0
  6  9  1  0  0  0  0
  7  6  2  0  0  0  0
  8  3  2  0  0  0  0
  9  1  2  0  0  0  0
  9  8  1  0  0  0  0
 11 10  1  0  0  0  0
 11 16  1  0  0  0  0
 12 11  2  0  0  0  0
 13  2  1  0  0  0  0
 14 15  1  0  0  0  0
 14 12  1  0  0  0  0
 15 13  2  0  0  0  0
 16 17  2  0  0  0  0
 18 16  2  0  0  0  0
 19  6  1  0  0  0  0
 20 19  1  0  0  0  0
 22 31  1  0  0  0  0
 23 30  1  0  0  0  0
 24 29  2  0  0  0  0
 24 25  1  0  0  0  0
 25 26  2  0  0  0  0
 26 28  1  0  0  0  0
 26 22  1  0  0  0  0
 27 28  1  0  0  0  0
 28 23  2  0  0  0  0
 29 27  1  0  0  0  0
 30 21  1  0  0  0  0
 31 30  2  0  0  0  0
 32 24  1  0  0  0  0
 33 32  1  0  0  0  0
 34 32  1  0  0  0  0
M  END
>  <MODEL>
9

>  <REMARK>
 VINA RESULT:      -8.9      3.934      6.547
  Name = 
  5 active torsions:
  status: ('A' for Active; 'I' for Inactive)
    1  A    between atoms: N_3  and  C_25
    2  A    between atoms: C_7  and  N_11
    3  A    between atoms: C_8  and  O_18
    4  A    between atoms: C_10  and  C_12
    5  A    between atoms: O_18  and  C_30
                            x       y       z     vdW  Elec       q    Type
                         _______ _______ _______ _____ _____    ______ ____

>  <TORSDO>
F 5

$$$$
