=
 OpenBabel10272400443D

 25 29  0  0  1  0  0  0  0  0999 V2000
  188.6380  177.7330  143.6700 C   0  0  0  0  0  0  0  0  0  0  0  0
  187.3600  177.8750  144.0610 C   0  0  0  0  0  0  0  0  0  0  0  0
  189.2600  177.1060  146.0080 C   0  0  0  0  0  2  0  0  0  0  0  0
  184.0610  178.4350  142.4570 N   0  0  0  0  0  2  0  0  0  0  0  0
  187.9280  177.5880  146.3860 N   0  0  0  0  0  0  0  0  0  0  0  0
  185.6150  178.2040  145.9100 C   0  0  1  0  0  3  0  0  0  0  0  0
  185.5470  179.1750  147.4050 Cl  0  0  0  0  0  0  0  0  0  0  0  0
  186.2950  177.9600  143.1080 N   0  0  0  0  0  0  0  0  0  0  0  0
  189.7340  177.7480  144.7010 C   0  0  0  0  0  2  0  0  0  0  0  0
  184.8390  178.9370  144.8090 C   0  0  0  0  0  2  0  0  0  0  0  0
  185.1050  178.3750  143.4370 C   0  0  0  0  0  0  0  0  0  0  0  0
  187.0350  177.9250  145.5010 C   0  0  0  0  0  0  0  0  0  0  0  0
  188.9950  177.7020  142.2800 N   0  0  0  0  0  0  0  0  0  0  0  0
  189.6730  177.8280  139.5100 C   0  0  0  0  0  2  0  0  0  0  0  0
  190.2150  177.0140  141.8210 C   0  0  2  0  0  3  0  0  0  0  0  0
  190.0950  176.6280  140.3480 C   0  0  0  0  0  2  0  0  0  0  0  0
  188.3310  178.3430  140.0050 C   0  0  0  0  0  2  0  0  0  0  0  0
  190.4830  175.7460  142.6200 C   0  0  0  0  0  1  0  0  0  0  0  0
  188.4560  178.7840  141.4570 C   0  0  0  0  0  2  0  0  0  0  0  0
  182.9850  176.7020  139.2860 C   0  0  0  0  0  2  0  0  0  0  0  0
  184.6710  179.0620  140.1660 C   0  0  0  0  0  2  0  0  0  0  0  0
  182.7550  178.1930  139.1440 C   0  0  2  0  0  3  0  0  0  0  0  0
  184.1660  177.9680  141.0760 C   0  0  2  0  0  3  0  0  0  0  0  0
  184.0230  178.8700  138.8790 N   0  0  0  0  0  2  0  0  0  0  0  0
  182.8190  177.5620  140.5240 C   0  0  2  0  0  3  0  0  0  0  0  0
  1  2  2  0  0  0  0
  1  9  1  0  0  0  0
  2 12  1  0  0  0  0
  3  5  1  0  0  0  0
  4 11  1  0  0  0  0
  6  7  1  1  0  0  0
  8 11  2  0  0  0  0
  8  2  1  0  0  0  0
  9  3  1  0  0  0  0
 10  6  1  0  0  0  0
 11 10  1  0  0  0  0
 12  6  1  0  0  0  0
 12  5  2  0  0  0  0
 13  1  1  0  0  0  0
 14 17  1  0  0  0  0
 14 16  1  0  0  0  0
 15 13  1  0  0  0  0
 15 18  1  1  0  0  0
 16 15  1  0  0  0  0
 17 19  1  0  0  0  0
 19 13  1  0  0  0  0
 21 23  1  0  0  0  0
 22 20  1  6  0  0  0
 22 25  1  0  0  0  0
 23  4  1  1  0  0  0
 24 22  1  0  0  0  0
 24 21  1  0  0  0  0
 25 20  1  6  0  0  0
 25 23  1  0  0  0  0
M  END
>  <MODEL>
1

>  <REMARK>
 VINA RESULT:      -8.4      0.000      0.000
  Name = 
  2 active torsions:
  status: ('A' for Active; 'I' for Inactive)
    1  A    between atoms: C_1  and  N_5
    2  A    between atoms: N_6  and  C_15
                            x       y       z     vdW  Elec       q    Type
                         _______ _______ _______ _____ _____    ______ ____

>  <TORSDO>
F 2

$$$$
=
 OpenBabel10272400443D

 25 29  0  0  1  0  0  0  0  0999 V2000
  188.2700  177.5650  144.2910 C   0  0  0  0  0  0  0  0  0  0  0  0
  187.2520  177.9300  143.4920 C   0  0  0  0  0  0  0  0  0  0  0  0
  186.6610  177.3120  146.1880 C   0  0  0  0  0  2  0  0  0  0  0  0
  186.7150  178.5750  139.8780 N   0  0  0  0  0  2  0  0  0  0  0  0
  185.6980  178.0130  145.3330 N   0  0  0  0  0  0  0  0  0  0  0  0
  184.8620  178.8040  143.1800 C   0  0  1  0  0  3  0  0  0  0  0  0
  183.8660  180.0360  144.0000 Cl  0  0  0  0  0  0  0  0  0  0  0  0
  187.3980  177.9640  142.0690 N   0  0  0  0  0  0  0  0  0  0  0  0
  188.1020  177.6390  145.7840 C   0  0  0  0  0  2  0  0  0  0  0  0
  185.4350  179.4080  141.8930 C   0  0  0  0  0  2  0  0  0  0  0  0
  186.5400  178.5730  141.3010 C   0  0  0  0  0  0  0  0  0  0  0  0
  185.9460  178.2850  144.0850 C   0  0  0  0  0  0  0  0  0  0  0  0
  189.5590  177.2340  143.7540 N   0  0  0  0  0  0  0  0  0  0  0  0
  192.0370  176.4460  142.5770 C   0  0  0  0  0  2  0  0  0  0  0  0
  190.4770  178.2830  143.2740 C   0  0  2  0  0  3  0  0  0  0  0  0
  191.9210  177.7850  143.2920 C   0  0  0  0  0  2  0  0  0  0  0  0
  191.1460  175.4250  143.2690 C   0  0  0  0  0  2  0  0  0  0  0  0
  190.4000  179.5380  144.1330 C   0  0  0  0  0  1  0  0  0  0  0  0
  189.6960  175.8860  143.2050 C   0  0  0  0  0  2  0  0  0  0  0  0
  188.1640  176.2790  137.2610 C   0  0  0  0  0  2  0  0  0  0  0  0
  188.9340  178.7440  138.8490 C   0  0  0  0  0  2  0  0  0  0  0  0
  188.3580  177.7190  136.8270 C   0  0  2  0  0  3  0  0  0  0  0  0
  187.7540  177.8510  139.1490 C   0  0  2  0  0  3  0  0  0  0  0  0
  189.4680  178.3170  137.5660 N   0  0  0  0  0  2  0  0  0  0  0  0
  187.2550  177.3630  137.8090 C   0  0  2  0  0  3  0  0  0  0  0  0
  1  9  1  0  0  0  0
  2 12  1  0  0  0  0
  2  1  2  0  0  0  0
  4 11  1  0  0  0  0
  5  3  1  0  0  0  0
  6  7  1  1  0  0  0
  6 12  1  0  0  0  0
  8  2  1  0  0  0  0
  9  3  1  0  0  0  0
 10  6  1  0  0  0  0
 11 10  1  0  0  0  0
 11  8  2  0  0  0  0
 12  5  2  0  0  0  0
 13  1  1  0  0  0  0
 14 17  1  0  0  0  0
 14 16  1  0  0  0  0
 15 16  1  0  0  0  0
 15 13  1  0  0  0  0
 15 18  1  1  0  0  0
 19 17  1  0  0  0  0
 19 13  1  0  0  0  0
 21 23  1  0  0  0  0
 22 20  1  1  0  0  0
 22 24  1  0  0  0  0
 22 25  1  0  0  0  0
 23  4  1  6  0  0  0
 24 21  1  0  0  0  0
 25 20  1  1  0  0  0
 25 23  1  0  0  0  0
M  END
>  <MODEL>
2

>  <REMARK>
 VINA RESULT:      -7.6      2.298      3.652
  Name = 
  2 active torsions:
  status: ('A' for Active; 'I' for Inactive)
    1  A    between atoms: C_1  and  N_5
    2  A    between atoms: N_6  and  C_15
                            x       y       z     vdW  Elec       q    Type
                         _______ _______ _______ _____ _____    ______ ____

>  <TORSDO>
F 2

$$$$
=
 OpenBabel10272400443D

 25 29  0  0  1  0  0  0  0  0999 V2000
  187.9280  177.6640  146.0250 C   0  0  0  0  0  0  0  0  0  0  0  0
  189.1280  177.4200  145.4700 C   0  0  0  0  0  0  0  0  0  0  0  0
  189.0250  177.8450  148.2640 C   0  0  0  0  0  2  0  0  0  0  0  0
  190.5420  177.1030  142.0540 N   0  0  0  0  0  2  0  0  0  0  0  0
  190.2090  177.2680  147.6190 N   0  0  0  0  0  0  0  0  0  0  0  0
  191.5800  176.7020  145.6810 C   0  0  1  0  0  3  0  0  0  0  0  0
  192.4410  175.4600  146.6300 Cl  0  0  0  0  0  0  0  0  0  0  0  0
  189.3220  177.4950  144.0540 N   0  0  0  0  0  0  0  0  0  0  0  0
  187.7460  177.4770  147.5060 C   0  0  0  0  0  2  0  0  0  0  0  0
  191.3690  176.1760  144.2560 C   0  0  0  0  0  2  0  0  0  0  0  0
  190.3770  176.9970  143.4740 C   0  0  0  0  0  0  0  0  0  0  0  0
  190.2800  177.0870  146.3320 C   0  0  0  0  0  0  0  0  0  0  0  0
  186.7800  177.9700  145.2180 N   0  0  0  0  0  0  0  0  0  0  0  0
  184.5100  178.4010  143.5440 C   0  0  0  0  0  2  0  0  0  0  0  0
  185.5780  178.5880  145.8060 C   0  0  2  0  0  3  0  0  0  0  0  0
  184.7660  179.3130  144.7350 C   0  0  0  0  0  2  0  0  0  0  0  0
  185.8390  177.9570  142.9510 C   0  0  0  0  0  2  0  0  0  0  0  0
  185.9330  179.5930  146.8920 C   0  0  0  0  0  1  0  0  0  0  0  0
  186.6310  177.1820  143.9960 C   0  0  0  0  0  2  0  0  0  0  0  0
  189.4660  178.7940  138.8600 C   0  0  0  0  0  2  0  0  0  0  0  0
  188.2580  177.2520  141.1740 C   0  0  0  0  0  2  0  0  0  0  0  0
  188.8620  177.4050  138.9190 C   0  0  2  0  0  3  0  0  0  0  0  0
  189.6530  177.8280  141.1480 C   0  0  2  0  0  3  0  0  0  0  0  0
  187.7200  177.3960  139.8310 N   0  0  0  0  0  2  0  0  0  0  0  0
  190.1170  177.7230  139.7140 C   0  0  2  0  0  3  0  0  0  0  0  0
  1  9  1  0  0  0  0
  2  1  2  0  0  0  0
  2 12  1  0  0  0  0
  4 11  1  0  0  0  0
  5  3  1  0  0  0  0
  6 12  1  0  0  0  0
  6  7  1  1  0  0  0
  8  2  1  0  0  0  0
  9  3  1  0  0  0  0
 10  6  1  0  0  0  0
 11  8  2  0  0  0  0
 11 10  1  0  0  0  0
 12  5  2  0  0  0  0
 13 15  1  0  0  0  0
 13  1  1  0  0  0  0
 14 16  1  0  0  0  0
 15 18  1  1  0  0  0
 16 15  1  0  0  0  0
 17 14  1  0  0  0  0
 17 19  1  0  0  0  0
 19 13  1  0  0  0  0
 22 20  1  6  0  0  0
 22 25  1  0  0  0  0
 22 24  1  0  0  0  0
 23 21  1  0  0  0  0
 23  4  1  1  0  0  0
 24 21  1  0  0  0  0
 25 20  1  6  0  0  0
 25 23  1  0  0  0  0
M  END
>  <MODEL>
3

>  <REMARK>
 VINA RESULT:      -7.6      2.810      5.356
  Name = 
  2 active torsions:
  status: ('A' for Active; 'I' for Inactive)
    1  A    between atoms: C_1  and  N_5
    2  A    between atoms: N_6  and  C_15
                            x       y       z     vdW  Elec       q    Type
                         _______ _______ _______ _____ _____    ______ ____

>  <TORSDO>
F 2

$$$$
=
 OpenBabel10272400443D

 25 29  0  0  1  0  0  0  0  0999 V2000
  190.1040  177.0720  144.9870 C   0  0  0  0  0  0  0  0  0  0  0  0
  188.8930  177.2960  145.5250 C   0  0  0  0  0  0  0  0  0  0  0  0
  190.8610  176.0880  147.1570 C   0  0  0  0  0  2  0  0  0  0  0  0
  185.5490  178.4000  144.3570 N   0  0  0  0  0  2  0  0  0  0  0  0
  189.6360  176.6550  147.7270 N   0  0  0  0  0  0  0  0  0  0  0  0
  187.3770  177.5660  147.5750 C   0  0  1  0  0  3  0  0  0  0  0  0
  187.5620  178.3390  149.1720 Cl  0  0  0  0  0  0  0  0  0  0  0  0
  187.7620  177.6140  144.7080 N   0  0  0  0  0  0  0  0  0  0  0  0
  191.2840  176.8390  145.8900 C   0  0  0  0  0  2  0  0  0  0  0  0
  186.5940  178.5110  146.6560 C   0  0  0  0  0  2  0  0  0  0  0  0
  186.6650  178.1060  145.2070 C   0  0  0  0  0  0  0  0  0  0  0  0
  188.7100  177.1940  146.9880 C   0  0  0  0  0  0  0  0  0  0  0  0
  190.3250  177.1830  143.5730 N   0  0  0  0  0  0  0  0  0  0  0  0
  190.6020  177.3080  140.7350 C   0  0  0  0  0  2  0  0  0  0  0  0
  190.6790  178.4740  142.9550 C   0  0  2  0  0  3  0  0  0  0  0  0
  191.3940  178.2560  141.6240 C   0  0  0  0  0  2  0  0  0  0  0  0
  190.4390  175.9710  141.4410 C   0  0  0  0  0  2  0  0  0  0  0  0
  191.5910  179.2990  143.8530 C   0  0  0  0  0  1  0  0  0  0  0  0
  189.6750  176.1700  142.7430 C   0  0  0  0  0  2  0  0  0  0  0  0
  183.8970  177.6690  141.0470 C   0  0  0  0  0  2  0  0  0  0  0  0
  186.3940  178.9990  142.1350 C   0  0  0  0  0  2  0  0  0  0  0  0
  184.3040  179.1280  141.0920 C   0  0  2  0  0  3  0  0  0  0  0  0
  185.4700  178.1060  142.9280 C   0  0  2  0  0  3  0  0  0  0  0  0
  185.7420  179.2520  140.8600 N   0  0  0  0  0  2  0  0  0  0  0  0
  184.0830  178.3610  142.3840 C   0  0  2  0  0  3  0  0  0  0  0  0
  1  2  2  0  0  0  0
  1  9  1  0  0  0  0
  2 12  1  0  0  0  0
  3  5  1  0  0  0  0
  4 11  1  0  0  0  0
  6  7  1  1  0  0  0
  8 11  2  0  0  0  0
  8  2  1  0  0  0  0
  9  3  1  0  0  0  0
 10  6  1  0  0  0  0
 11 10  1  0  0  0  0
 12  6  1  0  0  0  0
 12  5  2  0  0  0  0
 13  1  1  0  0  0  0
 14 17  1  0  0  0  0
 14 16  1  0  0  0  0
 15 13  1  0  0  0  0
 15 18  1  1  0  0  0
 16 15  1  0  0  0  0
 17 19  1  0  0  0  0
 19 13  1  0  0  0  0
 21 23  1  0  0  0  0
 22 20  1  6  0  0  0
 22 25  1  0  0  0  0
 23  4  1  1  0  0  0
 24 22  1  0  0  0  0
 24 21  1  0  0  0  0
 25 20  1  6  0  0  0
 25 23  1  0  0  0  0
M  END
>  <MODEL>
4

>  <REMARK>
 VINA RESULT:      -7.4      1.704      2.506
  Name = 
  2 active torsions:
  status: ('A' for Active; 'I' for Inactive)
    1  A    between atoms: C_1  and  N_5
    2  A    between atoms: N_6  and  C_15
                            x       y       z     vdW  Elec       q    Type
                         _______ _______ _______ _____ _____    ______ ____

>  <TORSDO>
F 2

$$$$
=
 OpenBabel10272400443D

 25 29  0  0  1  0  0  0  0  0999 V2000
  189.9200  177.2720  141.9470 C   0  0  0  0  0  0  0  0  0  0  0  0
  189.3220  177.6670  140.8100 C   0  0  0  0  0  0  0  0  0  0  0  0
  192.1380  177.4080  140.8020 C   0  0  0  0  0  2  0  0  0  0  0  0
  185.9250  178.6940  139.7260 N   0  0  0  0  0  2  0  0  0  0  0  0
  191.3750  177.5210  139.5550 N   0  0  0  0  0  0  0  0  0  0  0  0
  189.3560  177.9960  138.2670 C   0  0  1  0  0  3  0  0  0  0  0  0
  189.9890  177.0480  136.8940 Cl  0  0  0  0  0  0  0  0  0  0  0  0
  187.9620  178.1140  140.8000 N   0  0  0  0  0  0  0  0  0  0  0  0
  191.3170  176.7160  141.8940 C   0  0  0  0  0  2  0  0  0  0  0  0
  187.8490  177.7460  138.3880 C   0  0  0  0  0  2  0  0  0  0  0  0
  187.2810  178.2310  139.6960 C   0  0  0  0  0  0  0  0  0  0  0  0
  190.0810  177.6630  139.5420 C   0  0  0  0  0  0  0  0  0  0  0  0
  189.2080  177.2410  143.1930 N   0  0  0  0  0  0  0  0  0  0  0  0
  187.7650  176.9950  145.6430 C   0  0  0  0  0  2  0  0  0  0  0  0
  189.7750  177.8520  144.4100 C   0  0  2  0  0  3  0  0  0  0  0  0
  188.6690  178.1970  145.4050 C   0  0  0  0  0  2  0  0  0  0  0  0
  187.1380  176.5650  144.3260 C   0  0  0  0  0  2  0  0  0  0  0  0
  190.5430  179.1280  144.0960 C   0  0  0  0  0  1  0  0  0  0  0  0
  188.2320  176.1630  143.3460 C   0  0  0  0  0  2  0  0  0  0  0  0
  183.2040  178.7880  142.3340 C   0  0  0  0  0  2  0  0  0  0  0  0
  186.1650  179.3820  142.0670 C   0  0  0  0  0  2  0  0  0  0  0  0
  184.4140  178.0720  142.8990 C   0  0  2  0  0  3  0  0  0  0  0  0
  185.2150  179.1630  140.9140 C   0  0  2  0  0  3  0  0  0  0  0  0
  185.4360  179.0440  143.2800 N   0  0  0  0  0  2  0  0  0  0  0  0
  184.2070  178.1450  141.3970 C   0  0  2  0  0  3  0  0  0  0  0  0
  1 13  1  0  0  0  0
  2  1  2  0  0  0  0
  3  9  1  0  0  0  0
  5  3  1  0  0  0  0
  6  7  1  6  0  0  0
  6 10  1  0  0  0  0
  6 12  1  0  0  0  0
  8  2  1  0  0  0  0
  9  1  1  0  0  0  0
 10 11  1  0  0  0  0
 11  4  1  0  0  0  0
 11  8  2  0  0  0  0
 12  5  2  0  0  0  0
 12  2  1  0  0  0  0
 13 19  1  0  0  0  0
 13 15  1  0  0  0  0
 15 18  1  6  0  0  0
 15 16  1  0  0  0  0
 16 14  1  0  0  0  0
 17 14  1  0  0  0  0
 19 17  1  0  0  0  0
 21 24  1  0  0  0  0
 22 20  1  1  0  0  0
 22 24  1  0  0  0  0
 23  4  1  6  0  0  0
 23 25  1  0  0  0  0
 23 21  1  0  0  0  0
 25 20  1  1  0  0  0
 25 22  1  0  0  0  0
M  END
>  <MODEL>
5

>  <REMARK>
 VINA RESULT:      -7.3      2.848      5.130
  Name = 
  2 active torsions:
  status: ('A' for Active; 'I' for Inactive)
    1  A    between atoms: C_1  and  N_5
    2  A    between atoms: N_6  and  C_15
                            x       y       z     vdW  Elec       q    Type
                         _______ _______ _______ _____ _____    ______ ____

>  <TORSDO>
F 2

$$$$
=
 OpenBabel10272400443D

 25 29  0  0  1  0  0  0  0  0999 V2000
  189.2470  177.5400  141.8770 C   0  0  0  0  0  0  0  0  0  0  0  0
  188.0150  177.9010  142.2770 C   0  0  0  0  0  0  0  0  0  0  0  0
  188.9410  178.8860  139.7940 C   0  0  0  0  0  2  0  0  0  0  0  0
  185.9390  177.5950  145.3370 N   0  0  0  0  0  2  0  0  0  0  0  0
  187.5240  178.9560  140.1660 N   0  0  0  0  0  0  0  0  0  0  0  0
  185.6760  178.8110  141.7530 C   0  0  1  0  0  3  0  0  0  0  0  0
  184.5200  178.5870  140.4130 Cl  0  0  0  0  0  0  0  0  0  0  0  0
  187.5840  177.7080  143.6280 N   0  0  0  0  0  0  0  0  0  0  0  0
  189.6220  177.6690  140.4270 C   0  0  0  0  0  2  0  0  0  0  0  0
  185.2540  177.9170  142.9250 C   0  0  0  0  0  2  0  0  0  0  0  0
  186.3300  177.7810  143.9700 C   0  0  0  0  0  0  0  0  0  0  0  0
  187.0860  178.5270  141.3140 C   0  0  0  0  0  0  0  0  0  0  0  0
  190.1690  176.9090  142.7780 N   0  0  0  0  0  0  0  0  0  0  0  0
  192.0240  175.5160  144.4410 C   0  0  0  0  0  2  0  0  0  0  0  0
  191.2610  177.6720  143.4110 C   0  0  2  0  0  3  0  0  0  0  0  0
  191.7240  176.9870  144.6940 C   0  0  0  0  0  2  0  0  0  0  0  0
  190.7690  174.8250  143.9290 C   0  0  0  0  0  2  0  0  0  0  0  0
  190.8300  179.0900  143.7610 C   0  0  0  0  0  1  0  0  0  0  0  0
  190.3330  175.4650  142.6180 C   0  0  0  0  0  2  0  0  0  0  0  0
  189.2010  176.8570  147.0800 C   0  0  0  0  0  2  0  0  0  0  0  0
  186.6990  178.5240  147.4750 C   0  0  0  0  0  2  0  0  0  0  0  0
  188.9890  178.3570  147.0270 C   0  0  2  0  0  3  0  0  0  0  0  0
  186.8520  177.4130  146.4640 C   0  0  2  0  0  3  0  0  0  0  0  0
  188.0180  178.7610  148.0410 N   0  0  0  0  0  2  0  0  0  0  0  0
  188.2960  177.4560  146.0190 C   0  0  2  0  0  3  0  0  0  0  0  0
  1  2  2  0  0  0  0
  1 13  1  0  0  0  0
  2  8  1  0  0  0  0
  3  5  1  0  0  0  0
  3  9  1  0  0  0  0
  5 12  2  0  0  0  0
  6  7  1  6  0  0  0
  6 10  1  0  0  0  0
  8 11  2  0  0  0  0
  9  1  1  0  0  0  0
 10 11  1  0  0  0  0
 11  4  1  0  0  0  0
 12  6  1  0  0  0  0
 12  2  1  0  0  0  0
 13 15  1  0  0  0  0
 14 16  1  0  0  0  0
 15 18  1  1  0  0  0
 15 16  1  0  0  0  0
 17 14  1  0  0  0  0
 19 13  1  0  0  0  0
 19 17  1  0  0  0  0
 21 24  1  0  0  0  0
 22 20  1  1  0  0  0
 22 24  1  0  0  0  0
 23  4  1  6  0  0  0
 23 21  1  0  0  0  0
 25 23  1  0  0  0  0
 25 22  1  0  0  0  0
 25 20  1  1  0  0  0
M  END
>  <MODEL>
6

>  <REMARK>
 VINA RESULT:      -7.0      2.526      5.642
  Name = 
  2 active torsions:
  status: ('A' for Active; 'I' for Inactive)
    1  A    between atoms: C_1  and  N_5
    2  A    between atoms: N_6  and  C_15
                            x       y       z     vdW  Elec       q    Type
                         _______ _______ _______ _____ _____    ______ ____

>  <TORSDO>
F 2

$$$$
=
 OpenBabel10272400443D

 25 29  0  0  1  0  0  0  0  0999 V2000
  185.2030  178.5970  143.2140 C   0  0  0  0  0  0  0  0  0  0  0  0
  184.0530  178.4670  142.5300 C   0  0  0  0  0  0  0  0  0  0  0  0
  183.8940  178.7880  145.3350 C   0  0  0  0  0  2  0  0  0  0  0  0
  183.0160  177.6440  139.0640 N   0  0  0  0  0  2  0  0  0  0  0  0
  182.7170  178.9540  144.4770 N   0  0  0  0  0  0  0  0  0  0  0  0
  181.5100  178.7490  142.3650 C   0  0  1  0  0  3  0  0  0  0  0  0
  180.3570  180.0090  142.8820 Cl  0  0  0  0  0  0  0  0  0  0  0  0
  184.0400  178.0020  141.1770 N   0  0  0  0  0  0  0  0  0  0  0  0
  185.1780  179.1830  144.5990 C   0  0  0  0  0  2  0  0  0  0  0  0
  181.8000  178.9270  140.8700 C   0  0  0  0  0  2  0  0  0  0  0  0
  182.9950  178.1340  140.4110 C   0  0  0  0  0  0  0  0  0  0  0  0
  182.7690  178.7880  143.1870 C   0  0  0  0  0  0  0  0  0  0  0  0
  186.4710  178.3160  142.6030 N   0  0  0  0  0  0  0  0  0  0  0  0
  188.9930  177.9340  141.3240 C   0  0  0  0  0  2  0  0  0  0  0  0
  187.5540  177.6640  143.3610 C   0  0  2  0  0  3  0  0  0  0  0  0
  188.5360  176.9760  142.4150 C   0  0  0  0  0  2  0  0  0  0  0  0
  187.7860  178.4130  140.5320 C   0  0  0  0  0  2  0  0  0  0  0  0
  187.0170  176.6170  144.3270 C   0  0  0  0  0  1  0  0  0  0  0  0
  186.8290  179.1520  141.4580 C   0  0  0  0  0  2  0  0  0  0  0  0
  184.6470  174.8780  137.0880 C   0  0  0  0  0  2  0  0  0  0  0  0
  185.0730  177.8080  137.7390 C   0  0  0  0  0  2  0  0  0  0  0  0
  184.5330  176.1140  136.2180 C   0  0  2  0  0  3  0  0  0  0  0  0
  184.1090  176.8900  138.4520 C   0  0  2  0  0  3  0  0  0  0  0  0
  185.5690  177.0780  136.5830 N   0  0  0  0  0  2  0  0  0  0  0  0
  183.6010  175.9290  137.4020 C   0  0  2  0  0  3  0  0  0  0  0  0
  1  9  1  0  0  0  0
  2 12  1  0  0  0  0
  2  1  2  0  0  0  0
  4 11  1  0  0  0  0
  5  3  1  0  0  0  0
  6  7  1  1  0  0  0
  6 12  1  0  0  0  0
  8  2  1  0  0  0  0
  9  3  1  0  0  0  0
 10  6  1  0  0  0  0
 11 10  1  0  0  0  0
 11  8  2  0  0  0  0
 12  5  2  0  0  0  0
 13  1  1  0  0  0  0
 13 15  1  0  0  0  0
 14 16  1  0  0  0  0
 15 18  1  1  0  0  0
 16 15  1  0  0  0  0
 17 14  1  0  0  0  0
 17 19  1  0  0  0  0
 19 13  1  0  0  0  0
 21 23  1  0  0  0  0
 22 24  1  0  0  0  0
 22 20  1  1  0  0  0
 22 25  1  0  0  0  0
 23  4  1  6  0  0  0
 24 21  1  0  0  0  0
 25 20  1  1  0  0  0
 25 23  1  0  0  0  0
M  END
>  <MODEL>
7

>  <REMARK>
 VINA RESULT:      -6.9      2.323      3.947
  Name = 
  2 active torsions:
  status: ('A' for Active; 'I' for Inactive)
    1  A    between atoms: C_1  and  N_5
    2  A    between atoms: N_6  and  C_15
                            x       y       z     vdW  Elec       q    Type
                         _______ _______ _______ _____ _____    ______ ____

>  <TORSDO>
F 2

$$$$
=
 OpenBabel10272400443D

 25 29  0  0  1  0  0  0  0  0999 V2000
  188.9590  176.0570  136.0740 C   0  0  0  0  0  0  0  0  0  0  0  0
  189.9750  176.0090  136.9520 C   0  0  0  0  0  0  0  0  0  0  0  0
  190.3510  174.7900  134.4290 C   0  0  0  0  0  2  0  0  0  0  0  0
  190.5410  176.8520  140.5210 N   0  0  0  0  0  2  0  0  0  0  0  0
  191.4810  175.0680  135.3210 N   0  0  0  0  0  0  0  0  0  0  0  0
  192.4650  175.6780  137.4700 C   0  0  1  0  0  3  0  0  0  0  0  0
  193.9820  176.1510  136.6600 Cl  0  0  0  0  0  0  0  0  0  0  0  0
  189.7800  176.3200  138.3350 N   0  0  0  0  0  0  0  0  0  0  0  0
  189.2310  175.8180  134.6140 C   0  0  0  0  0  2  0  0  0  0  0  0
  192.1820  176.6660  138.6080 C   0  0  0  0  0  2  0  0  0  0  0  0
  190.7770  176.5560  139.1390 C   0  0  0  0  0  0  0  0  0  0  0  0
  191.3220  175.6080  136.4950 C   0  0  0  0  0  0  0  0  0  0  0  0
  187.6420  176.4620  136.4770 N   0  0  0  0  0  0  0  0  0  0  0  0
  185.0540  177.4320  137.1860 C   0  0  0  0  0  2  0  0  0  0  0  0
  186.4820  175.5700  136.3000 C   0  0  2  0  0  3  0  0  0  0  0  0
  185.3620  175.9440  137.2680 C   0  0  0  0  0  2  0  0  0  0  0  0
  186.3030  178.2280  137.5330 C   0  0  0  0  0  2  0  0  0  0  0  0
  186.8490  174.1120  136.5410 C   0  0  0  0  0  1  0  0  0  0  0  0
  187.4080  177.9040  136.5360 C   0  0  0  0  0  2  0  0  0  0  0  0
  188.0700  176.2300  143.3010 C   0  0  0  0  0  2  0  0  0  0  0  0
  188.4900  178.1210  140.9690 C   0  0  0  0  0  2  0  0  0  0  0  0
  188.4280  177.7030  143.2700 C   0  0  2  0  0  3  0  0  0  0  0  0
  189.2380  176.8270  141.1840 C   0  0  2  0  0  3  0  0  0  0  0  0
  187.7190  178.3660  142.1770 N   0  0  0  0  0  2  0  0  0  0  0  0
  189.3800  176.6760  142.6810 C   0  0  2  0  0  3  0  0  0  0  0  0
  1 13  1  0  0  0  0
  1  2  2  0  0  0  0
  2  8  1  0  0  0  0
  3  9  1  0  0  0  0
  3  5  1  0  0  0  0
  5 12  2  0  0  0  0
  6  7  1  6  0  0  0
  6 10  1  0  0  0  0
  8 11  2  0  0  0  0
  9  1  1  0  0  0  0
 10 11  1  0  0  0  0
 11  4  1  0  0  0  0
 12  2  1  0  0  0  0
 12  6  1  0  0  0  0
 13 19  1  0  0  0  0
 14 16  1  0  0  0  0
 14 17  1  0  0  0  0
 15 13  1  0  0  0  0
 15 18  1  1  0  0  0
 15 16  1  0  0  0  0
 19 17  1  0  0  0  0
 21 23  1  0  0  0  0
 21 24  1  0  0  0  0
 22 20  1  1  0  0  0
 23  4  1  6  0  0  0
 23 25  1  0  0  0  0
 24 22  1  0  0  0  0
 25 22  1  0  0  0  0
 25 20  1  1  0  0  0
M  END
>  <MODEL>
8

>  <REMARK>
 VINA RESULT:      -6.7      4.644      8.029
  Name = 
  2 active torsions:
  status: ('A' for Active; 'I' for Inactive)
    1  A    between atoms: C_1  and  N_5
    2  A    between atoms: N_6  and  C_15
                            x       y       z     vdW  Elec       q    Type
                         _______ _______ _______ _____ _____    ______ ____

>  <TORSDO>
F 2

$$$$
=
 OpenBabel10272400443D

 25 29  0  0  1  0  0  0  0  0999 V2000
  188.7530  177.5400  140.5770 C   0  0  0  0  0  0  0  0  0  0  0  0
  187.5200  178.0440  140.7570 C   0  0  0  0  0  0  0  0  0  0  0  0
  188.7010  178.3240  138.2040 C   0  0  0  0  0  2  0  0  0  0  0  0
  185.1930  178.6170  143.5900 N   0  0  0  0  0  2  0  0  0  0  0  0
  187.2680  178.5480  138.4140 N   0  0  0  0  0  0  0  0  0  0  0  0
  185.2940  178.8920  139.8080 C   0  0  1  0  0  3  0  0  0  0  0  0
  184.2350  178.3850  138.4650 Cl  0  0  0  0  0  0  0  0  0  0  0  0
  186.9720  178.2200  142.0680 N   0  0  0  0  0  0  0  0  0  0  0  0
  189.2490  177.2800  139.1810 C   0  0  0  0  0  2  0  0  0  0  0  0
  184.7230  178.3450  141.1220 C   0  0  0  0  0  2  0  0  0  0  0  0
  185.7020  178.4330  142.2630 C   0  0  0  0  0  0  0  0  0  0  0  0
  186.7130  178.4450  139.5860 C   0  0  0  0  0  0  0  0  0  0  0  0
  189.5580  177.1190  141.6880 N   0  0  0  0  0  0  0  0  0  0  0  0
  191.0230  176.1560  143.9400 C   0  0  0  0  0  2  0  0  0  0  0  0
  190.9950  176.8310  141.5230 C   0  0  2  0  0  3  0  0  0  0  0  0
  191.7270  176.9630  142.8570 C   0  0  0  0  0  2  0  0  0  0  0  0
  189.5970  176.6590  144.0990 C   0  0  0  0  0  2  0  0  0  0  0  0
  191.6510  177.7790  140.5290 C   0  0  0  0  0  1  0  0  0  0  0  0
  188.8420  176.4780  142.7890 C   0  0  0  0  0  2  0  0  0  0  0  0
  186.1270  179.6950  147.0810 C   0  0  0  0  0  2  0  0  0  0  0  0
  186.4720  177.3180  145.2310 C   0  0  0  0  0  2  0  0  0  0  0  0
  185.5260  178.3040  147.1300 C   0  0  2  0  0  3  0  0  0  0  0  0
  186.0010  178.6890  144.8060 C   0  0  2  0  0  3  0  0  0  0  0  0
  186.5100  177.3200  146.6850 N   0  0  0  0  0  2  0  0  0  0  0  0
  185.2040  179.2310  145.9710 C   0  0  2  0  0  3  0  0  0  0  0  0
  1  2  2  0  0  0  0
  1 13  1  0  0  0  0
  2  8  1  0  0  0  0
  3  5  1  0  0  0  0
  3  9  1  0  0  0  0
  5 12  2  0  0  0  0
  6  7  1  6  0  0  0
  6 10  1  0  0  0  0
  8 11  2  0  0  0  0
  9  1  1  0  0  0  0
 10 11  1  0  0  0  0
 11  4  1  0  0  0  0
 12  6  1  0  0  0  0
 12  2  1  0  0  0  0
 13 19  1  0  0  0  0
 14 17  1  0  0  0  0
 15 18  1  6  0  0  0
 15 13  1  0  0  0  0
 15 16  1  0  0  0  0
 16 14  1  0  0  0  0
 19 17  1  0  0  0  0
 21 24  1  0  0  0  0
 22 20  1  1  0  0  0
 23  4  1  6  0  0  0
 23 21  1  0  0  0  0
 23 25  1  0  0  0  0
 24 22  1  0  0  0  0
 25 20  1  1  0  0  0
 25 22  1  0  0  0  0
M  END
>  <MODEL>
9

>  <REMARK>
 VINA RESULT:      -6.4      2.423      5.427
  Name = 
  2 active torsions:
  status: ('A' for Active; 'I' for Inactive)
    1  A    between atoms: C_1  and  N_5
    2  A    between atoms: N_6  and  C_15
                            x       y       z     vdW  Elec       q    Type
                         _______ _______ _______ _____ _____    ______ ____

>  <TORSDO>
F 2

$$$$
