=
 OpenBabel10272400573D

 27 31  0  0  1  0  0  0  0  0999 V2000
  188.4830  176.3330  142.9820 N   0  0  0  0  0  2  0  0  0  0  0  0
  187.2900  178.1010  144.1620 C   0  0  0  0  0  0  0  0  0  0  0  0
  186.7460  178.2880  141.7660 N   0  0  0  0  0  2  0  0  0  0  0  0
  183.4370  179.3600  145.1020 N   0  0  0  0  0  0  0  0  0  0  0  0
  181.4780  178.5280  143.9060 C   0  0  0  0  0  1  0  0  0  0  0  0
  186.8310  178.2050  145.5820 C   0  0  0  0  0  3  0  0  0  0  0  0
  183.9340  178.5740  143.0210 C   0  0  2  0  0  3  0  0  0  0  0  0
  189.2760  178.9060  139.5410 C   0  0  0  0  0  2  0  0  0  0  0  0
  183.7350  177.7320  141.8040 C   0  0  0  0  0  1  0  0  0  0  0  0
  190.3010  177.9060  138.9960 C   0  0  0  0  0  2  0  0  0  0  0  0
  185.0970  178.9270  143.5470 C   0  0  1  0  0  3  0  0  0  0  0  0
  188.6440  177.4990  143.8500 C   0  0  1  0  0  3  0  0  0  0  0  0
  182.9230  178.8630  144.0250 C   0  0  0  0  0  0  0  0  0  0  0  0
  184.8680  179.5390  144.8890 C   0  0  2  0  0  3  0  0  0  0  0  0
  188.6470  176.7010  141.5710 C   0  0  2  0  0  3  0  0  0  0  0  0
  186.4330  178.4380  143.1620 C   0  0  0  0  0  0  0  0  0  0  0  0
  188.0610  178.2770  139.8340 O   0  0  0  0  0  0  0  0  0  0  0  0
  185.6910  178.8240  145.9240 C   0  0  0  0  0  3  0  0  0  0  0  0
  190.2370  176.5180  139.6450 C   0  0  0  0  0  2  0  0  0  0  0  0
  190.1130  176.5730  141.1640 C   0  0  0  0  0  2  0  0  0  0  0  0
  188.0860  178.0970  141.2230 C   0  0  1  0  0  3  0  0  0  0  0  0
  191.0750  176.5600  147.2730 C   0  0  0  0  0  3  0  0  0  0  0  0
  189.4760  177.1590  145.0520 C   0  0  0  0  0  0  0  0  0  0  0  0
  190.8460  176.9230  144.8900 C   0  0  0  0  0  3  0  0  0  0  0  0
  191.6440  176.6230  145.9980 C   0  0  0  0  0  3  0  0  0  0  0  0
  189.7090  176.8000  147.4420 C   0  0  0  0  0  3  0  0  0  0  0  0
  188.9100  177.1000  146.3350 C   0  0  0  0  0  3  0  0  0  0  0  0
  1 12  1  0  0  0  0
  2  6  1  0  0  0  0
  3 16  1  0  0  0  0
  5 13  1  0  0  0  0
  6 18  2  0  0  0  0
  7  9  1  1  0  0  0
  7 11  1  0  0  0  0
  7 13  1  0  0  0  0
  8 17  1  0  0  0  0
 10  8  1  0  0  0  0
 10 19  1  0  0  0  0
 11 16  1  1  0  0  0
 11 14  1  0  0  0  0
 12  2  1  0  0  0  0
 12 23  1  1  0  0  0
 13  4  2  0  0  0  0
 14  4  1  0  0  0  0
 14 18  1  1  0  0  0
 15 20  1  1  0  0  0
 15  1  1  0  0  0  0
 16  2  2  0  0  0  0
 19 20  1  0  0  0  0
 21 17  1  6  0  0  0
 21 15  1  0  0  0  0
 21  3  1  0  0  0  0
 22 26  1  0  0  0  0
 23 27  1  0  0  0  0
 24 23  2  0  0  0  0
 24 25  1  0  0  0  0
 25 22  2  0  0  0  0
 27 26  2  0  0  0  0
M  END
>  <MODEL>
1

>  <REMARK>
 VINA RESULT:     -10.5      0.000      0.000
  Name = 
  1 active torsions:
  status: ('A' for Active; 'I' for Inactive)
    1  A    between atoms: C_9  and  C_15
                            x       y       z     vdW  Elec       q    Type
                         _______ _______ _______ _____ _____    ______ ____

>  <TORSDO>
F 1

$$$$
=
 OpenBabel10272400573D

 27 31  0  0  1  0  0  0  0  0999 V2000
  187.4890  176.8350  143.1750 N   0  0  0  0  0  2  0  0  0  0  0  0
  186.8580  178.2500  141.2930 C   0  0  0  0  0  0  0  0  0  0  0  0
  189.2480  177.6970  141.0580 N   0  0  0  0  0  2  0  0  0  0  0  0
  186.4660  178.1720  137.1510 N   0  0  0  0  0  0  0  0  0  0  0  0
  187.5100  176.4370  135.7870 C   0  0  0  0  0  1  0  0  0  0  0  0
  185.5360  178.4840  140.6330 C   0  0  0  0  0  3  0  0  0  0  0  0
  188.2510  177.1920  138.1740 C   0  0  2  0  0  3  0  0  0  0  0  0
  191.4250  178.7040  143.5030 C   0  0  0  0  0  2  0  0  0  0  0  0
  189.2240  176.0930  138.4490 C   0  0  0  0  0  1  0  0  0  0  0  0
  191.6460  178.0590  144.8760 C   0  0  0  0  0  2  0  0  0  0  0  0
  187.7730  178.0540  139.0580 C   0  0  1  0  0  3  0  0  0  0  0  0
  186.9380  178.1370  142.8010 C   0  0  1  0  0  3  0  0  0  0  0  0
  187.4070  177.2980  136.9960 C   0  0  0  0  0  0  0  0  0  0  0  0
  186.6440  178.8150  138.4480 C   0  0  2  0  0  3  0  0  0  0  0  0
  188.9370  176.9210  143.3970 C   0  0  2  0  0  3  0  0  0  0  0  0
  187.9530  178.0210  140.5210 C   0  0  0  0  0  0  0  0  0  0  0  0
  191.0440  177.7510  142.5520 O   0  0  0  0  0  0  0  0  0  0  0  0
  185.4210  178.6970  139.3130 C   0  0  0  0  0  3  0  0  0  0  0  0
  190.6700  176.9230  145.2050 C   0  0  0  0  0  2  0  0  0  0  0  0
  189.2230  177.2580  144.8580 C   0  0  0  0  0  2  0  0  0  0  0  0
  189.6560  177.9000  142.4430 C   0  0  1  0  0  3  0  0  0  0  0  0
  183.2710  178.9260  144.9080 C   0  0  0  0  0  3  0  0  0  0  0  0
  185.6480  178.3990  143.5230 C   0  0  0  0  0  0  0  0  0  0  0  0
  185.6600  178.5290  144.9160 C   0  0  0  0  0  3  0  0  0  0  0  0
  184.4730  178.7900  145.6080 C   0  0  0  0  0  3  0  0  0  0  0  0
  183.2540  178.8020  143.5160 C   0  0  0  0  0  3  0  0  0  0  0  0
  184.4390  178.5410  142.8230 C   0  0  0  0  0  3  0  0  0  0  0  0
  1 15  1  0  0  0  0
  2 12  1  0  0  0  0
  4 14  1  0  0  0  0
  5 13  1  0  0  0  0
  6  2  1  0  0  0  0
  7  9  1  1  0  0  0
  7 11  1  0  0  0  0
  8 10  1  0  0  0  0
 10 19  1  0  0  0  0
 11 16  1  1  0  0  0
 12  1  1  0  0  0  0
 12 23  1  1  0  0  0
 13  4  2  0  0  0  0
 13  7  1  0  0  0  0
 14 11  1  0  0  0  0
 14 18  1  1  0  0  0
 15 20  1  1  0  0  0
 16  3  1  0  0  0  0
 16  2  2  0  0  0  0
 17  8  1  0  0  0  0
 18  6  2  0  0  0  0
 20 19  1  0  0  0  0
 21  3  1  6  0  0  0
 21 17  1  0  0  0  0
 21 15  1  0  0  0  0
 22 25  1  0  0  0  0
 23 24  1  0  0  0  0
 24 25  2  0  0  0  0
 26 22  2  0  0  0  0
 27 26  1  0  0  0  0
 27 23  2  0  0  0  0
M  END
>  <MODEL>
2

>  <REMARK>
 VINA RESULT:      -9.1      2.204      5.816
  Name = 
  1 active torsions:
  status: ('A' for Active; 'I' for Inactive)
    1  A    between atoms: C_9  and  C_15
                            x       y       z     vdW  Elec       q    Type
                         _______ _______ _______ _____ _____    ______ ____

>  <TORSDO>
F 1

$$$$
=
 OpenBabel10272400573D

 27 31  0  0  1  0  0  0  0  0999 V2000
  187.4090  179.2410  140.9350 N   0  0  0  0  0  2  0  0  0  0  0  0
  186.7030  177.8760  142.8260 C   0  0  0  0  0  0  0  0  0  0  0  0
  189.0950  177.4390  142.4270 N   0  0  0  0  0  2  0  0  0  0  0  0
  187.3310  177.4010  146.9120 N   0  0  0  0  0  0  0  0  0  0  0  0
  189.2720  178.3580  148.0410 C   0  0  0  0  0  1  0  0  0  0  0  0
  185.5880  178.0500  143.8090 C   0  0  0  0  0  3  0  0  0  0  0  0
  189.0760  177.7910  145.4990 C   0  0  2  0  0  3  0  0  0  0  0  0
  190.0520  176.1100  139.4180 C   0  0  0  0  0  2  0  0  0  0  0  0
  190.3210  178.4720  145.0360 C   0  0  0  0  0  1  0  0  0  0  0  0
  190.1970  176.8440  138.0810 C   0  0  0  0  0  2  0  0  0  0  0  0
  188.1000  177.3340  144.7300 C   0  0  1  0  0  3  0  0  0  0  0  0
  186.4760  178.2010  141.3650 C   0  0  1  0  0  3  0  0  0  0  0  0
  188.5540  177.8150  146.8560 C   0  0  0  0  0  0  0  0  0  0  0  0
  186.9300  176.9650  145.5800 C   0  0  2  0  0  3  0  0  0  0  0  0
  188.6030  178.6540  140.3180 C   0  0  2  0  0  3  0  0  0  0  0  0
  187.9400  177.5420  143.2790 C   0  0  0  0  0  0  0  0  0  0  0  0
  190.3200  176.9620  140.4960 O   0  0  0  0  0  0  0  0  0  0  0  0
  185.7000  177.6790  145.0940 C   0  0  0  0  0  3  0  0  0  0  0  0
  189.7230  178.3020  138.1050 C   0  0  0  0  0  2  0  0  0  0  0  0
  188.3860  178.4850  138.8160 C   0  0  0  0  0  2  0  0  0  0  0  0
  189.0570  177.3320  140.9730 C   0  0  1  0  0  3  0  0  0  0  0  0
  182.4410  179.2420  140.2950 C   0  0  0  0  0  3  0  0  0  0  0  0
  185.0640  178.5700  141.0120 C   0  0  0  0  0  0  0  0  0  0  0  0
  184.8100  179.2050  139.7920 C   0  0  0  0  0  3  0  0  0  0  0  0
  183.5010  179.5430  139.4340 C   0  0  0  0  0  3  0  0  0  0  0  0
  182.6890  178.6030  141.5130 C   0  0  0  0  0  3  0  0  0  0  0  0
  183.9970  178.2660  141.8710 C   0  0  0  0  0  3  0  0  0  0  0  0
  1 12  1  0  0  0  0
  2 16  2  0  0  0  0
  2  6  1  0  0  0  0
  3 16  1  0  0  0  0
  6 18  2  0  0  0  0
  7  9  1  6  0  0  0
  7 13  1  0  0  0  0
  8 17  1  0  0  0  0
 10 19  1  0  0  0  0
 10  8  1  0  0  0  0
 11 16  1  6  0  0  0
 11  7  1  0  0  0  0
 11 14  1  0  0  0  0
 12 23  1  1  0  0  0
 12  2  1  0  0  0  0
 13  4  2  0  0  0  0
 13  5  1  0  0  0  0
 14 18  1  6  0  0  0
 14  4  1  0  0  0  0
 15 20  1  6  0  0  0
 15  1  1  0  0  0  0
 15 21  1  0  0  0  0
 19 20  1  0  0  0  0
 21 17  1  6  0  0  0
 21  3  1  0  0  0  0
 22 26  1  0  0  0  0
 23 27  1  0  0  0  0
 24 23  2  0  0  0  0
 25 24  1  0  0  0  0
 25 22  2  0  0  0  0
 26 27  2  0  0  0  0
M  END
>  <MODEL>
3

>  <REMARK>
 VINA RESULT:      -8.9      1.794      5.532
  Name = 
  1 active torsions:
  status: ('A' for Active; 'I' for Inactive)
    1  A    between atoms: C_9  and  C_15
                            x       y       z     vdW  Elec       q    Type
                         _______ _______ _______ _____ _____    ______ ____

>  <TORSDO>
F 1

$$$$
=
 OpenBabel10272400573D

 27 31  0  0  1  0  0  0  0  0999 V2000
  188.4740  176.6350  140.7640 N   0  0  0  0  0  2  0  0  0  0  0  0
  187.3700  178.2700  142.1950 C   0  0  0  0  0  0  0  0  0  0  0  0
  186.4830  178.5390  139.9120 N   0  0  0  0  0  2  0  0  0  0  0  0
  183.6290  179.2510  143.7310 N   0  0  0  0  0  0  0  0  0  0  0  0
  181.5660  178.3620  142.7740 C   0  0  0  0  0  1  0  0  0  0  0  0
  187.1130  178.2780  143.6690 C   0  0  0  0  0  3  0  0  0  0  0  0
  183.8660  178.5970  141.5600 C   0  0  2  0  0  3  0  0  0  0  0  0
  188.6360  179.4120  137.3950 C   0  0  0  0  0  2  0  0  0  0  0  0
  183.5400  177.8040  140.3380 C   0  0  0  0  0  1  0  0  0  0  0  0
  189.6230  178.5020  136.6580 C   0  0  0  0  0  2  0  0  0  0  0  0
  185.0720  178.9930  141.9390 C   0  0  1  0  0  3  0  0  0  0  0  0
  188.6950  177.7650  141.6650 C   0  0  1  0  0  3  0  0  0  0  0  0
  182.9940  178.7770  142.7090 C   0  0  0  0  0  0  0  0  0  0  0  0
  185.0050  179.5250  143.3320 C   0  0  2  0  0  3  0  0  0  0  0  0
  188.4170  177.0790  139.3670 C   0  0  2  0  0  3  0  0  0  0  0  0
  186.3640  178.6020  141.3450 C   0  0  0  0  0  0  0  0  0  0  0  0
  187.5090  178.6990  137.8190 O   0  0  0  0  0  0  0  0  0  0  0  0
  186.0020  178.8110  144.2000 C   0  0  0  0  0  3  0  0  0  0  0  0
  189.7250  177.0840  137.2310 C   0  0  0  0  0  2  0  0  0  0  0  0
  189.8150  177.0580  138.7540 C   0  0  0  0  0  2  0  0  0  0  0  0
  187.7400  178.4540  139.1780 C   0  0  1  0  0  3  0  0  0  0  0  0
  191.6180  176.7300  144.6480 C   0  0  0  0  0  3  0  0  0  0  0  0
  189.7070  177.4180  142.7190 C   0  0  0  0  0  0  0  0  0  0  0  0
  190.0860  176.0820  142.8880 C   0  0  0  0  0  3  0  0  0  0  0  0
  191.0390  175.7380  143.8520 C   0  0  0  0  0  3  0  0  0  0  0  0
  191.2470  178.0670  144.4800 C   0  0  0  0  0  3  0  0  0  0  0  0
  190.2940  178.4120  143.5170 C   0  0  0  0  0  3  0  0  0  0  0  0
  1 12  1  0  0  0  0
  2  6  1  0  0  0  0
  3 16  1  0  0  0  0
  6 18  2  0  0  0  0
  7  9  1  1  0  0  0
  7 11  1  0  0  0  0
  7 13  1  0  0  0  0
  8 17  1  0  0  0  0
 10 19  1  0  0  0  0
 10  8  1  0  0  0  0
 11 16  1  1  0  0  0
 11 14  1  0  0  0  0
 12  2  1  0  0  0  0
 12 23  1  1  0  0  0
 13  5  1  0  0  0  0
 13  4  2  0  0  0  0
 14  4  1  0  0  0  0
 14 18  1  1  0  0  0
 15 20  1  1  0  0  0
 15  1  1  0  0  0  0
 16  2  2  0  0  0  0
 19 20  1  0  0  0  0
 21 17  1  6  0  0  0
 21 15  1  0  0  0  0
 21  3  1  0  0  0  0
 23 24  2  0  0  0  0
 23 27  1  0  0  0  0
 24 25  1  0  0  0  0
 25 22  2  0  0  0  0
 26 22  1  0  0  0  0
 27 26  2  0  0  0  0
M  END
>  <MODEL>
4

>  <REMARK>
 VINA RESULT:      -8.4      1.694      2.178
  Name = 
  1 active torsions:
  status: ('A' for Active; 'I' for Inactive)
    1  A    between atoms: C_9  and  C_15
                            x       y       z     vdW  Elec       q    Type
                         _______ _______ _______ _____ _____    ______ ____

>  <TORSDO>
F 1

$$$$
=
 OpenBabel10272400573D

 27 31  0  0  1  0  0  0  0  0999 V2000
  186.5860  176.9060  144.7480 N   0  0  0  0  0  2  0  0  0  0  0  0
  187.2820  178.2320  142.8240 C   0  0  0  0  0  0  0  0  0  0  0  0
  189.2970  177.6660  144.1250 N   0  0  0  0  0  2  0  0  0  0  0  0
  189.5070  177.9610  139.3180 N   0  0  0  0  0  0  0  0  0  0  0  0
  191.1160  176.1630  138.9450 C   0  0  0  0  0  1  0  0  0  0  0  0
  186.6490  178.4360  141.4840 C   0  0  0  0  0  3  0  0  0  0  0  0
  190.2620  177.0280  141.2560 C   0  0  2  0  0  3  0  0  0  0  0  0
  189.5480  178.7850  147.3520 C   0  0  0  0  0  2  0  0  0  0  0  0
  190.8290  175.9420  142.1090 C   0  0  0  0  0  1  0  0  0  0  0  0
  188.8630  178.2050  148.5940 C   0  0  0  0  0  2  0  0  0  0  0  0
  189.3680  177.9310  141.6290 C   0  0  1  0  0  3  0  0  0  0  0  0
  186.4180  178.1890  144.0670 C   0  0  1  0  0  3  0  0  0  0  0  0
  190.3190  177.0800  139.8040 C   0  0  0  0  0  0  0  0  0  0  0  0
  188.8720  178.6630  140.4270 C   0  0  2  0  0  3  0  0  0  0  0  0
  187.5960  177.0010  145.8070 C   0  0  2  0  0  3  0  0  0  0  0  0
  188.6130  177.9660  142.8950 C   0  0  0  0  0  0  0  0  0  0  0  0
  189.8030  177.7890  146.4020 O   0  0  0  0  0  0  0  0  0  0  0  0
  187.3720  178.5870  140.3640 C   0  0  0  0  0  3  0  0  0  0  0  0
  187.8580  177.0860  148.2970 C   0  0  0  0  0  2  0  0  0  0  0  0
  186.9370  177.4050  147.1240 C   0  0  0  0  0  2  0  0  0  0  0  0
  188.7770  177.9330  145.4600 C   0  0  1  0  0  3  0  0  0  0  0  0
  182.2570  179.0850  143.4460 C   0  0  0  0  0  3  0  0  0  0  0  0
  184.9640  178.4860  143.8360 C   0  0  0  0  0  0  0  0  0  0  0  0
  184.1650  178.8650  144.9190 C   0  0  0  0  0  3  0  0  0  0  0  0
  182.8120  179.1630  144.7260 C   0  0  0  0  0  3  0  0  0  0  0  0
  183.0520  178.7110  142.3590 C   0  0  0  0  0  3  0  0  0  0  0  0
  184.4030  178.4130  142.5520 C   0  0  0  0  0  3  0  0  0  0  0  0
  1 15  1  0  0  0  0
  2 16  2  0  0  0  0
  2 12  1  0  0  0  0
  4 13  2  0  0  0  0
  4 14  1  0  0  0  0
  5 13  1  0  0  0  0
  6  2  1  0  0  0  0
  7 11  1  0  0  0  0
  7  9  1  6  0  0  0
  8 10  1  0  0  0  0
 11 16  1  6  0  0  0
 12 23  1  6  0  0  0
 12  1  1  0  0  0  0
 13  7  1  0  0  0  0
 14 18  1  6  0  0  0
 14 11  1  0  0  0  0
 15 20  1  1  0  0  0
 16  3  1  0  0  0  0
 17  8  1  0  0  0  0
 18  6  2  0  0  0  0
 19 10  1  0  0  0  0
 20 19  1  0  0  0  0
 21  3  1  6  0  0  0
 21 15  1  0  0  0  0
 21 17  1  0  0  0  0
 22 25  1  0  0  0  0
 23 24  1  0  0  0  0
 25 24  2  0  0  0  0
 26 27  1  0  0  0  0
 26 22  2  0  0  0  0
 27 23  2  0  0  0  0
M  END
>  <MODEL>
5

>  <REMARK>
 VINA RESULT:      -8.2      2.164      6.793
  Name = 
  1 active torsions:
  status: ('A' for Active; 'I' for Inactive)
    1  A    between atoms: C_9  and  C_15
                            x       y       z     vdW  Elec       q    Type
                         _______ _______ _______ _____ _____    ______ ____

>  <TORSDO>
F 1

$$$$
=
 OpenBabel10272400573D

 27 31  0  0  1  0  0  0  0  0999 V2000
  187.0670  176.8870  142.7240 N   0  0  0  0  0  2  0  0  0  0  0  0
  189.2360  177.7490  143.4280 C   0  0  0  0  0  0  0  0  0  0  0  0
  187.6520  178.0700  145.2890 N   0  0  0  0  0  2  0  0  0  0  0  0
  192.2780  177.0510  146.1800 N   0  0  0  0  0  0  0  0  0  0  0  0
  191.9370  175.6610  148.1580 C   0  0  0  0  0  1  0  0  0  0  0  0
  190.6240  177.4130  142.9830 C   0  0  0  0  0  3  0  0  0  0  0  0
  190.0890  176.9060  146.7970 C   0  0  2  0  0  3  0  0  0  0  0  0
  184.9160  180.0710  144.8030 C   0  0  0  0  0  2  0  0  0  0  0  0
  188.8970  176.2710  147.4320 C   0  0  0  0  0  1  0  0  0  0  0  0
  183.6220  179.7150  144.0650 C   0  0  0  0  0  2  0  0  0  0  0  0
  190.0920  177.6360  145.6920 C   0  0  1  0  0  3  0  0  0  0  0  0
  188.1210  177.8500  142.4080 C   0  0  1  0  0  3  0  0  0  0  0  0
  191.4750  176.5630  147.0680 C   0  0  0  0  0  0  0  0  0  0  0  0
  191.5000  177.8620  145.2510 C   0  0  2  0  0  3  0  0  0  0  0  0
  186.0040  177.5140  143.5170 C   0  0  2  0  0  3  0  0  0  0  0  0
  188.9700  177.8410  144.7580 C   0  0  0  0  0  0  0  0  0  0  0  0
  185.4870  178.9410  145.3980 O   0  0  0  0  0  0  0  0  0  0  0  0
  191.6680  177.4140  143.8270 C   0  0  0  0  0  3  0  0  0  0  0  0
  183.6480  178.3510  143.3650 C   0  0  0  0  0  2  0  0  0  0  0  0
  184.9390  178.0990  142.5930 C   0  0  0  0  0  2  0  0  0  0  0  0
  186.5150  178.5660  144.5240 C   0  0  1  0  0  3  0  0  0  0  0  0
  189.3650  177.5170  138.3030 C   0  0  0  0  0  3  0  0  0  0  0  0
  188.5600  177.7130  140.9790 C   0  0  0  0  0  0  0  0  0  0  0  0
  187.8600  178.4010  139.9820 C   0  0  0  0  0  3  0  0  0  0  0  0
  188.2600  178.3020  138.6450 C   0  0  0  0  0  3  0  0  0  0  0  0
  190.0710  176.8310  139.2960 C   0  0  0  0  0  3  0  0  0  0  0  0
  189.6710  176.9290  140.6310 C   0  0  0  0  0  3  0  0  0  0  0  0
  1 15  1  0  0  0  0
  2 16  2  0  0  0  0
  4 13  2  0  0  0  0
  6  2  1  0  0  0  0
  6 18  2  0  0  0  0
  7 13  1  0  0  0  0
  7  9  1  6  0  0  0
  8 17  1  0  0  0  0
 10  8  1  0  0  0  0
 11 16  1  6  0  0  0
 11  7  1  0  0  0  0
 12 23  1  6  0  0  0
 12  1  1  0  0  0  0
 12  2  1  0  0  0  0
 13  5  1  0  0  0  0
 14 18  1  6  0  0  0
 14 11  1  0  0  0  0
 14  4  1  0  0  0  0
 15 20  1  6  0  0  0
 15 21  1  0  0  0  0
 16  3  1  0  0  0  0
 19 10  1  0  0  0  0
 20 19  1  0  0  0  0
 21  3  1  1  0  0  0
 21 17  1  0  0  0  0
 22 25  2  0  0  0  0
 22 26  1  0  0  0  0
 24 23  2  0  0  0  0
 25 24  1  0  0  0  0
 26 27  2  0  0  0  0
 27 23  1  0  0  0  0
M  END
>  <MODEL>
6

>  <REMARK>
 VINA RESULT:      -8.1      1.942      6.608
  Name = 
  1 active torsions:
  status: ('A' for Active; 'I' for Inactive)
    1  A    between atoms: C_9  and  C_15
                            x       y       z     vdW  Elec       q    Type
                         _______ _______ _______ _____ _____    ______ ____

>  <TORSDO>
F 1

$$$$
=
 OpenBabel10272400573D

 27 31  0  0  1  0  0  0  0  0999 V2000
  184.3890  177.2160  138.0270 N   0  0  0  0  0  2  0  0  0  0  0  0
  186.4260  178.1410  138.9940 C   0  0  0  0  0  0  0  0  0  0  0  0
  184.5090  179.0660  140.2360 N   0  0  0  0  0  2  0  0  0  0  0  0
  188.6570  178.1320  142.5070 N   0  0  0  0  0  0  0  0  0  0  0  0
  187.7120  177.3990  144.6360 C   0  0  0  0  0  1  0  0  0  0  0  0
  187.8300  177.6230  139.0230 C   0  0  0  0  0  3  0  0  0  0  0  0
  186.3830  178.2790  142.5670 C   0  0  2  0  0  3  0  0  0  0  0  0
  182.2120  180.9670  138.5510 C   0  0  0  0  0  2  0  0  0  0  0  0
  185.0110  177.9150  143.0290 C   0  0  0  0  0  1  0  0  0  0  0  0
  181.0870  180.4730  137.6360 C   0  0  0  0  0  2  0  0  0  0  0  0
  186.7240  178.6530  141.3440 C   0  0  1  0  0  3  0  0  0  0  0  0
  185.5930  177.9920  137.7390 C   0  0  1  0  0  3  0  0  0  0  0  0
  187.6210  177.9630  143.2620 C   0  0  0  0  0  0  0  0  0  0  0  0
  188.2120  178.6720  141.2280 C   0  0  2  0  0  3  0  0  0  0  0  0
  183.2540  178.0970  138.3260 C   0  0  2  0  0  3  0  0  0  0  0  0
  185.8770  178.6290  140.1370 C   0  0  0  0  0  0  0  0  0  0  0  0
  182.4950  180.0350  139.5550 O   0  0  0  0  0  0  0  0  0  0  0  0
  188.6460  177.8210  140.0690 C   0  0  0  0  0  3  0  0  0  0  0  0
  181.1110  178.9650  137.3630 C   0  0  0  0  0  2  0  0  0  0  0  0
  182.5050  178.4370  137.0390 C   0  0  0  0  0  2  0  0  0  0  0  0
  183.6430  179.3720  139.1040 C   0  0  1  0  0  3  0  0  0  0  0  0
  187.6460  176.3240  134.3460 C   0  0  0  0  0  3  0  0  0  0  0  0
  186.3260  177.4230  136.5580 C   0  0  0  0  0  0  0  0  0  0  0  0
  186.2140  176.0560  136.2810 C   0  0  0  0  0  3  0  0  0  0  0  0
  186.8740  175.5060  135.1770 C   0  0  0  0  0  3  0  0  0  0  0  0
  187.7570  177.6900  134.6160 C   0  0  0  0  0  3  0  0  0  0  0  0
  187.0980  178.2400  135.7180 C   0  0  0  0  0  3  0  0  0  0  0  0
  1 15  1  0  0  0  0
  2  6  1  0  0  0  0
  2 16  2  0  0  0  0
  4 13  2  0  0  0  0
  6 18  2  0  0  0  0
  7  9  1  6  0  0  0
  7 13  1  0  0  0  0
  8 17  1  0  0  0  0
 10  8  1  0  0  0  0
 11 16  1  6  0  0  0
 11  7  1  0  0  0  0
 12 23  1  6  0  0  0
 12  1  1  0  0  0  0
 12  2  1  0  0  0  0
 13  5  1  0  0  0  0
 14 18  1  6  0  0  0
 14 11  1  0  0  0  0
 14  4  1  0  0  0  0
 15 20  1  6  0  0  0
 15 21  1  0  0  0  0
 16  3  1  0  0  0  0
 19 10  1  0  0  0  0
 20 19  1  0  0  0  0
 21 17  1  1  0  0  0
 21  3  1  0  0  0  0
 22 26  2  0  0  0  0
 22 25  1  0  0  0  0
 24 23  1  0  0  0  0
 25 24  2  0  0  0  0
 26 27  1  0  0  0  0
 27 23  2  0  0  0  0
M  END
>  <MODEL>
7

>  <REMARK>
 VINA RESULT:      -7.9      3.831      7.630
  Name = 
  1 active torsions:
  status: ('A' for Active; 'I' for Inactive)
    1  A    between atoms: C_9  and  C_15
                            x       y       z     vdW  Elec       q    Type
                         _______ _______ _______ _____ _____    ______ ____

>  <TORSDO>
F 1

$$$$
=
 OpenBabel10272400573D

 27 31  0  0  1  0  0  0  0  0999 V2000
  187.5490  179.1210  140.2490 N   0  0  0  0  0  2  0  0  0  0  0  0
  186.9690  177.7940  142.2100 C   0  0  0  0  0  0  0  0  0  0  0  0
  189.2990  177.2700  141.6030 N   0  0  0  0  0  2  0  0  0  0  0  0
  187.9440  177.3260  146.2280 N   0  0  0  0  0  0  0  0  0  0  0  0
  190.0100  178.2220  147.1690 C   0  0  0  0  0  1  0  0  0  0  0  0
  185.9540  178.0150  143.2870 C   0  0  0  0  0  3  0  0  0  0  0  0
  189.5680  177.6450  144.6610 C   0  0  2  0  0  3  0  0  0  0  0  0
  189.9350  175.8870  138.5350 C   0  0  0  0  0  2  0  0  0  0  0  0
  190.7890  178.2770  144.0810 C   0  0  0  0  0  1  0  0  0  0  0  0
  189.9860  176.6060  137.1830 C   0  0  0  0  0  2  0  0  0  0  0  0
  188.5120  177.2170  143.9860 C   0  0  1  0  0  3  0  0  0  0  0  0
  186.6230  178.1170  140.7710 C   0  0  1  0  0  3  0  0  0  0  0  0
  189.1710  177.6970  146.0590 C   0  0  0  0  0  0  0  0  0  0  0  0
  187.4100  176.8960  144.9410 C   0  0  2  0  0  3  0  0  0  0  0  0
  188.6630  178.4870  139.5340 C   0  0  2  0  0  3  0  0  0  0  0  0
  188.2290  177.4200  142.5540 C   0  0  0  0  0  0  0  0  0  0  0  0
  190.3290  176.7360  139.5750 O   0  0  0  0  0  0  0  0  0  0  0  0
  186.1670  177.6490  144.5600 C   0  0  0  0  0  3  0  0  0  0  0  0
  189.5670  178.0790  137.2340 C   0  0  0  0  0  2  0  0  0  0  0  0
  188.3060  178.3150  138.0590 C   0  0  0  0  0  2  0  0  0  0  0  0
  189.1270  177.1540  140.1600 C   0  0  1  0  0  3  0  0  0  0  0  0
  182.5350  179.3150  140.1750 C   0  0  0  0  0  3  0  0  0  0  0  0
  185.1990  178.5330  140.5420 C   0  0  0  0  0  0  0  0  0  0  0  0
  184.2080  178.0850  141.4210 C   0  0  0  0  0  3  0  0  0  0  0  0
  182.8770  178.4740  141.2380 C   0  0  0  0  0  3  0  0  0  0  0  0
  183.5220  179.7690  139.2970 C   0  0  0  0  0  3  0  0  0  0  0  0
  184.8510  179.3810  139.4790 C   0  0  0  0  0  3  0  0  0  0  0  0
  1 12  1  0  0  0  0
  2 16  2  0  0  0  0
  2  6  1  0  0  0  0
  3 16  1  0  0  0  0
  6 18  2  0  0  0  0
  7  9  1  6  0  0  0
  7 13  1  0  0  0  0
  8 17  1  0  0  0  0
 10 19  1  0  0  0  0
 10  8  1  0  0  0  0
 11 16  1  6  0  0  0
 11  7  1  0  0  0  0
 11 14  1  0  0  0  0
 12 23  1  1  0  0  0
 12  2  1  0  0  0  0
 13  4  2  0  0  0  0
 13  5  1  0  0  0  0
 14 18  1  6  0  0  0
 14  4  1  0  0  0  0
 15 20  1  6  0  0  0
 15 21  1  0  0  0  0
 15  1  1  0  0  0  0
 19 20  1  0  0  0  0
 21 17  1  6  0  0  0
 21  3  1  0  0  0  0
 22 25  1  0  0  0  0
 23 24  1  0  0  0  0
 25 24  2  0  0  0  0
 26 27  1  0  0  0  0
 26 22  2  0  0  0  0
 27 23  2  0  0  0  0
M  END
>  <MODEL>
8

>  <REMARK>
 VINA RESULT:      -7.9      1.951      5.775
  Name = 
  1 active torsions:
  status: ('A' for Active; 'I' for Inactive)
    1  A    between atoms: C_9  and  C_15
                            x       y       z     vdW  Elec       q    Type
                         _______ _______ _______ _____ _____    ______ ____

>  <TORSDO>
F 1

$$$$
=
 OpenBabel10272400573D

 27 31  0  0  1  0  0  0  0  0999 V2000
  189.4220  175.6760  138.3770 N   0  0  0  0  0  2  0  0  0  0  0  0
  190.6100  177.0630  139.9920 C   0  0  0  0  0  0  0  0  0  0  0  0
  188.3000  177.9040  139.8250 N   0  0  0  0  0  2  0  0  0  0  0  0
  190.6430  178.0480  144.0340 N   0  0  0  0  0  0  0  0  0  0  0  0
  188.7380  177.5910  145.4910 C   0  0  0  0  0  1  0  0  0  0  0  0
  191.8010  176.7780  140.8510 C   0  0  0  0  0  3  0  0  0  0  0  0
  188.6790  177.8580  142.8940 C   0  0  2  0  0  3  0  0  0  0  0  0
  187.1860  179.0870  136.8100 C   0  0  0  0  0  2  0  0  0  0  0  0
  187.2820  177.3840  142.6660 C   0  0  0  0  0  1  0  0  0  0  0  0
  186.7320  178.2660  135.5980 C   0  0  0  0  0  2  0  0  0  0  0  0
  189.6040  178.0440  141.9650 C   0  0  1  0  0  3  0  0  0  0  0  0
  190.5730  176.5580  138.5640 C   0  0  1  0  0  3  0  0  0  0  0  0
  189.3700  177.8690  144.1730 C   0  0  0  0  0  0  0  0  0  0  0  0
  190.9270  178.2660  142.6210 C   0  0  2  0  0  3  0  0  0  0  0  0
  188.2760  176.4160  137.8370 C   0  0  2  0  0  3  0  0  0  0  0  0
  189.5250  177.6680  140.5420 C   0  0  0  0  0  0  0  0  0  0  0  0
  186.9230  178.4120  138.0070 O   0  0  0  0  0  0  0  0  0  0  0  0
  191.9340  177.2880  142.0850 C   0  0  0  0  0  3  0  0  0  0  0  0
  186.9420  176.7550  135.7440 C   0  0  0  0  0  2  0  0  0  0  0  0
  188.3110  176.3920  136.3100 C   0  0  0  0  0  2  0  0  0  0  0  0
  188.1550  177.8580  138.3750 C   0  0  1  0  0  3  0  0  0  0  0  0
  194.1600  174.6290  137.1800 C   0  0  0  0  0  3  0  0  0  0  0  0
  191.8360  175.8960  138.0960 C   0  0  0  0  0  0  0  0  0  0  0  0
  191.8010  174.5480  137.7210 C   0  0  0  0  0  3  0  0  0  0  0  0
  192.9620  173.9140  137.2650 C   0  0  0  0  0  3  0  0  0  0  0  0
  194.2000  175.9760  137.5490 C   0  0  0  0  0  3  0  0  0  0  0  0
  193.0410  176.6100  138.0040 C   0  0  0  0  0  3  0  0  0  0  0  0
  1 12  1  0  0  0  0
  2 16  2  0  0  0  0
  2  6  1  0  0  0  0
  3 16  1  0  0  0  0
  4 13  2  0  0  0  0
  6 18  2  0  0  0  0
  7  9  1  6  0  0  0
  7 13  1  0  0  0  0
  8 17  1  0  0  0  0
 10 19  1  0  0  0  0
 10  8  1  0  0  0  0
 11 16  1  6  0  0  0
 11 14  1  0  0  0  0
 11  7  1  0  0  0  0
 12 23  1  1  0  0  0
 12  2  1  0  0  0  0
 13  5  1  0  0  0  0
 14 18  1  6  0  0  0
 14  4  1  0  0  0  0
 15 20  1  6  0  0  0
 15 21  1  0  0  0  0
 15  1  1  0  0  0  0
 19 20  1  0  0  0  0
 21 17  1  1  0  0  0
 21  3  1  0  0  0  0
 22 25  2  0  0  0  0
 22 26  1  0  0  0  0
 24 23  2  0  0  0  0
 25 24  1  0  0  0  0
 26 27  2  0  0  0  0
 27 23  1  0  0  0  0
M  END
>  <MODEL>
9

>  <REMARK>
 VINA RESULT:      -7.8      3.016      6.399
  Name = 
  1 active torsions:
  status: ('A' for Active; 'I' for Inactive)
    1  A    between atoms: C_9  and  C_15
                            x       y       z     vdW  Elec       q    Type
                         _______ _______ _______ _____ _____    ______ ____

>  <TORSDO>
F 1

$$$$
