=
 OpenBabel10272401373D

 55 61  0  0  1  0  0  0  0  0999 V2000
  190.7850  177.4220  140.6520 C   0  0  0  0  0  3  0  0  0  0  0  0
  189.4000  177.5930  138.1870 C   0  0  1  0  0  3  0  0  0  0  0  0
  188.5630  177.4850  139.4600 C   0  0  0  0  0  2  0  0  0  0  0  0
  191.3910  176.9430  139.5630 C   0  0  0  0  0  3  0  0  0  0  0  0
  189.3880  177.7640  140.6310 N   0  0  0  0  0  0  0  0  0  0  0  0
  190.6290  176.6860  138.2920 C   0  0  0  0  0  2  0  0  0  0  0  0
  188.5620  177.2750  136.9500 C   0  0  0  0  0  2  0  0  0  0  0  0
  188.9020  175.9160  136.3490 C   0  0  0  0  0  2  0  0  0  0  0  0
  189.0750  176.0250  134.8400 C   0  0  0  0  0  2  0  0  0  0  0  0
  190.4240  175.4830  134.3900 C   0  0  0  0  0  2  0  0  0  0  0  0
  191.5540  176.1910  135.1100 C   0  0  0  0  0  2  0  0  0  0  0  0
  192.8110  175.5060  134.8250 N   0  0  0  0  0  2  0  0  0  0  0  0
  195.4360  173.1950  136.9970 C   0  0  2  0  0  0  0  0  0  0  0  0
  197.3520  175.4060  137.5690 O   0  0  0  0  0  1  0  0  0  0  0  0
  194.5140  175.1720  136.6420 C   0  0  2  0  0  0  0  0  0  0  0  0
  192.1910  174.5610  136.8820 F   0  0  0  0  0  0  0  0  0  0  0  0
  195.5590  175.4690  134.3460 O   0  0  0  0  0  1  0  0  0  0  0  0
  195.7350  175.1830  135.7060 C   0  0  2  0  0  0  0  0  0  0  0  0
  193.2160  174.6500  135.9470 C   0  0  1  0  0  0  0  0  0  0  0  0
  194.3210  172.3590  136.3390 C   0  0  0  0  0  2  0  0  0  0  0  0
  196.3710  173.8160  135.9560 C   0  0  1  0  0  0  0  0  0  0  0  0
  196.2190  172.3360  137.9730 C   0  0  0  0  0  1  0  0  0  0  0  0
  197.1660  175.0900  136.2180 C   0  0  2  0  0  0  0  0  0  0  0  0
  193.4670  173.2310  135.3960 C   0  0  0  0  0  2  0  0  0  0  0  0
  194.3180  176.4440  137.1840 O   0  0  0  0  0  1  0  0  0  0  0  0
  196.6310  173.1140  134.7720 O   0  0  0  0  0  1  0  0  0  0  0  0
  194.8230  174.2650  137.6760 O   0  0  0  0  0  0  0  0  0  0  0  0
  198.3010  175.4120  135.2550 C   0  0  0  0  0  2  0  0  0  0  0  0
  199.4970  174.8760  135.7370 O   0  0  0  0  0  1  0  0  0  0  0  0
  188.7690  178.3920  141.7870 C   0  0  0  0  0  2  0  0  0  0  0  0
  187.6110  177.5420  142.2880 C   0  0  0  0  0  2  0  0  0  0  0  0
  189.2660  176.9110  146.9450 C   0  0  0  0  0  2  0  0  0  0  0  0
  184.6820  177.7760  142.4140 C   0  0  0  0  0  2  0  0  0  0  0  0
  187.9690  177.8250  148.8860 C   0  0  0  0  0  2  0  0  0  0  0  0
  187.3850  178.5670  146.4960 C   0  0  1  0  0  3  0  0  0  0  0  0
  186.8690  178.2410  147.9000 C   0  0  0  0  0  2  0  0  0  0  0  0
  189.3500  177.6940  148.2520 C   0  0  0  0  0  2  0  0  0  0  0  0
  188.3070  177.5230  146.0180 N   0  0  0  0  0  0  0  0  0  0  0  0
  186.2510  178.3650  144.3420 C   0  0  0  0  0  0  0  0  0  0  0  0
  184.0240  179.5090  143.9650 C   0  0  0  0  0  2  0  0  0  0  0  0
  186.2450  178.7180  145.5950 N   0  0  0  0  0  0  0  0  0  0  0  0
  182.9350  179.3980  142.9160 C   0  0  1  0  0  3  0  0  0  0  0  0
  188.4280  177.2770  144.6040 C   0  0  0  0  0  0  0  0  0  0  0  0
  183.2460  178.1480  142.1010 C   0  0  0  0  0  2  0  0  0  0  0  0
  187.4560  177.7010  143.7720 C   0  0  0  0  0  0  0  0  0  0  0  0
  185.0660  178.5850  143.5560 N   0  0  0  0  0  0  0  0  0  0  0  0
  189.6450  176.5680  144.0680 C   0  0  0  0  0  2  0  0  0  0  0  0
  191.5170  177.9820  143.6280 O   0  0  0  0  0  1  0  0  0  0  0  0
  190.9290  177.1830  144.6090 C   0  0  2  0  0  3  0  0  0  0  0  0
  191.9130  176.1110  145.0580 C   0  0  0  0  0  2  0  0  0  0  0  0
  192.2100  176.2500  146.4020 F   0  0  0  0  0  0  0  0  0  0  0  0
  181.5800  179.2770  143.5940 C   0  0  0  0  0  2  0  0  0  0  0  0
  180.5520  178.7770  142.6360 C   0  0  0  0  0  0  0  0  0  0  0  0
  179.9820  177.6710  142.8400 O   0  0  0  0  0  1  0  0  0  0  0  0
  180.1980  179.5440  141.5350 O   0  0  0  0  0  0  0  0  0  0  0  0
  2  7  1  6  0  0  0
  2  6  1  0  0  0  0
  2  3  1  0  0  0  0
  3  5  1  0  0  0  0
  4  1  2  0  0  0  0
  5  1  1  0  0  0  0
  5 30  1  0  0  0  0
  6  4  1  0  0  0  0
  8  7  1  0  0  0  0
  9  8  1  0  0  0  0
 10  9  1  0  0  0  0
 10 11  1  0  0  0  0
 12 11  1  0  0  0  0
 12 19  1  0  0  0  0
 13 27  1  0  0  0  0
 13 22  1  1  0  0  0
 15 25  1  1  0  0  0
 15 27  1  0  0  0  0
 18 17  1  6  0  0  0
 18 21  1  0  0  0  0
 18 23  1  0  0  0  0
 18 15  1  0  0  0  0
 19 15  1  0  0  0  0
 19 16  1  1  0  0  0
 20 13  1  0  0  0  0
 21 26  1  6  0  0  0
 21 23  1  0  0  0  0
 21 13  1  0  0  0  0
 23 14  1  1  0  0  0
 24 19  1  0  0  0  0
 24 20  1  0  0  0  0
 28 29  1  0  0  0  0
 28 23  1  0  0  0  0
 30 31  1  0  0  0  0
 31 45  1  0  0  0  0
 32 37  1  0  0  0  0
 33 46  1  0  0  0  0
 35 36  1  1  0  0  0
 36 34  1  0  0  0  0
 37 34  1  0  0  0  0
 38 35  1  0  0  0  0
 38 32  1  0  0  0  0
 39 41  2  0  0  0  0
 41 35  1  0  0  0  0
 42 52  1  1  0  0  0
 42 40  1  0  0  0  0
 43 38  1  0  0  0  0
 44 33  1  0  0  0  0
 44 42  1  0  0  0  0
 45 39  1  0  0  0  0
 45 43  2  0  0  0  0
 46 40  1  0  0  0  0
 46 39  1  0  0  0  0
 47 43  1  0  0  0  0
 47 49  1  0  0  0  0
 49 48  1  6  0  0  0
 49 50  1  0  0  0  0
 50 51  1  0  0  0  0
 53 54  1  0  0  0  0
 53 52  1  0  0  0  0
 55 53  2  0  0  0  0
M  END
>  <MODEL>
1

>  <REMARK>
 VINA RESULT:      -8.1      0.000      0.000
  Name = 
  16 active torsions:
  status: ('A' for Active; 'I' for Inactive)
    1  A    between atoms: C_2  and  C_28
    2  A    between atoms: C_2  and  N_44
    3  A    between atoms: C_4  and  C_40
    4  A    between atoms: C_8  and  N_22
    5  A    between atoms: C_8  and  C_43
    6  A    between atoms: C_10  and  C_32
    7  A    between atoms: C_11  and  C_38
    8  A    between atoms: C_19  and  C_40
    9  A    between atoms: C_19  and  C_45
   10  A    between atoms: C_20  and  N_22
   11  A    between atoms: C_27  and  C_54
   12  A    between atoms: C_28  and  C_49
   13  A    between atoms: C_32  and  C_39
   14  A    between atoms: C_35  and  C_43
   15  A    between atoms: C_35  and  C_51
   16  A    between atoms: C_51  and  C_54
                            x       y       z     vdW  Elec       q    Type
                         _______ _______ _______ _____ _____    ______ ____

>  <TORSDO>
F 16

$$$$
=
 OpenBabel10272401373D

 55 61  0  0  1  0  0  0  0  0999 V2000
  183.3630  179.0930  144.3210 C   0  0  0  0  0  3  0  0  0  0  0  0
  182.6840  178.2310  141.7090 C   0  0  1  0  0  3  0  0  0  0  0  0
  184.0760  178.8250  141.9160 C   0  0  0  0  0  2  0  0  0  0  0  0
  182.0760  179.1300  143.9680 C   0  0  0  0  0  3  0  0  0  0  0  0
  184.3930  178.8820  143.3390 N   0  0  0  0  0  0  0  0  0  0  0  0
  181.6540  179.0140  142.5290 C   0  0  0  0  0  2  0  0  0  0  0  0
  182.3190  178.1900  140.2270 C   0  0  0  0  0  2  0  0  0  0  0  0
  183.0390  179.2630  139.4190 C   0  0  0  0  0  2  0  0  0  0  0  0
  182.2530  179.6050  138.1600 C   0  0  0  0  0  2  0  0  0  0  0  0
  181.1310  178.6070  137.9120 C   0  0  0  0  0  2  0  0  0  0  0  0
  181.3780  177.8300  136.6340 C   0  0  0  0  0  2  0  0  0  0  0  0
  182.0350  176.5680  136.9580 N   0  0  0  0  0  2  0  0  0  0  0  0
  185.6270  174.7730  136.0490 C   0  0  2  0  0  0  0  0  0  0  0  0
  184.4470  172.6220  134.3560 O   0  0  0  0  0  1  0  0  0  0  0  0
  183.5600  175.2680  135.4420 C   0  0  2  0  0  0  0  0  0  0  0  0
  183.6570  177.6690  135.6690 F   0  0  0  0  0  0  0  0  0  0  0  0
  182.4770  173.8270  137.2320 O   0  0  0  0  0  1  0  0  0  0  0  0
  183.3960  173.9270  136.1800 C   0  0  2  0  0  0  0  0  0  0  0  0
  183.3820  176.5060  136.3780 C   0  0  1  0  0  0  0  0  0  0  0  0
  185.7760  175.8940  137.0960 C   0  0  0  0  0  2  0  0  0  0  0  0
  184.8270  173.5870  136.5960 C   0  0  1  0  0  0  0  0  0  0  0  0
  186.9970  174.3210  135.5760 C   0  0  0  0  0  1  0  0  0  0  0  0
  184.0450  172.6370  135.6960 C   0  0  2  0  0  0  0  0  0  0  0  0
  184.3950  176.4190  137.5390 C   0  0  0  0  0  2  0  0  0  0  0  0
  182.6810  175.3250  134.3580 O   0  0  0  0  0  1  0  0  0  0  0  0
  184.9350  173.2640  137.9550 O   0  0  0  0  0  1  0  0  0  0  0  0
  184.8880  175.2940  134.9700 O   0  0  0  0  0  0  0  0  0  0  0  0
  183.5830  171.3220  136.3100 C   0  0  0  0  0  2  0  0  0  0  0  0
  184.2730  170.2580  135.7240 O   0  0  0  0  0  1  0  0  0  0  0  0
  185.7790  178.7280  143.7510 C   0  0  0  0  0  2  0  0  0  0  0  0
  186.2150  177.2800  143.5900 C   0  0  0  0  0  2  0  0  0  0  0  0
  189.7440  176.9730  147.0940 C   0  0  0  0  0  2  0  0  0  0  0  0
  187.5030  178.2190  141.1170 C   0  0  0  0  0  2  0  0  0  0  0  0
  192.1310  176.5510  146.4550 C   0  0  0  0  0  2  0  0  0  0  0  0
  190.2670  176.2210  144.7180 C   0  0  1  0  0  3  0  0  0  0  0  0
  191.7110  176.6550  144.9830 C   0  0  0  0  0  2  0  0  0  0  0  0
  190.9980  176.1570  147.3950 C   0  0  0  0  0  2  0  0  0  0  0  0
  189.3450  176.8370  145.6880 N   0  0  0  0  0  0  0  0  0  0  0  0
  188.7200  176.9620  142.9780 C   0  0  0  0  0  0  0  0  0  0  0  0
  189.3820  176.8140  140.5400 C   0  0  0  0  0  2  0  0  0  0  0  0
  189.9080  176.5790  143.3470 N   0  0  0  0  0  0  0  0  0  0  0  0
  188.8370  177.3990  139.2520 C   0  0  1  0  0  3  0  0  0  0  0  0
  187.9780  177.0840  145.3080 C   0  0  0  0  0  0  0  0  0  0  0  0
  187.8220  178.4620  139.6560 C   0  0  0  0  0  2  0  0  0  0  0  0
  187.6490  177.1220  144.0020 C   0  0  0  0  0  0  0  0  0  0  0  0
  188.4920  177.2690  141.5910 N   0  0  0  0  0  0  0  0  0  0  0  0
  186.9290  177.2790  146.3720 C   0  0  0  0  0  2  0  0  0  0  0  0
  187.5510  178.3140  148.4310 O   0  0  0  0  0  1  0  0  0  0  0  0
  187.1400  178.5860  147.1270 C   0  0  2  0  0  3  0  0  0  0  0  0
  185.8690  179.4240  147.1510 C   0  0  0  0  0  2  0  0  0  0  0  0
  184.7470  178.6140  147.1320 F   0  0  0  0  0  0  0  0  0  0  0  0
  189.9720  178.0130  138.4470 C   0  0  0  0  0  2  0  0  0  0  0  0
  190.5740  177.0040  137.5280 C   0  0  0  0  0  0  0  0  0  0  0  0
  190.0240  176.7470  136.4230 O   0  0  0  0  0  0  0  0  0  0  0  0
  191.7600  176.3710  137.8750 O   0  0  0  0  0  1  0  0  0  0  0  0
  2  7  1  6  0  0  0
  2  3  1  0  0  0  0
  2  6  1  0  0  0  0
  3  5  1  0  0  0  0
  4  1  2  0  0  0  0
  5 30  1  0  0  0  0
  5  1  1  0  0  0  0
  6  4  1  0  0  0  0
  8  7  1  0  0  0  0
  9  8  1  0  0  0  0
 10  9  1  0  0  0  0
 11 12  1  0  0  0  0
 11 10  1  0  0  0  0
 13 22  1  6  0  0  0
 13 21  1  0  0  0  0
 13 20  1  0  0  0  0
 15 25  1  6  0  0  0
 15 18  1  0  0  0  0
 15 19  1  0  0  0  0
 18 21  1  0  0  0  0
 18 17  1  1  0  0  0
 19 16  1  6  0  0  0
 19 12  1  0  0  0  0
 19 24  1  0  0  0  0
 20 24  1  0  0  0  0
 21 26  1  1  0  0  0
 23 14  1  6  0  0  0
 23 18  1  0  0  0  0
 23 28  1  0  0  0  0
 23 21  1  0  0  0  0
 27 15  1  0  0  0  0
 27 13  1  0  0  0  0
 29 28  1  0  0  0  0
 31 30  1  0  0  0  0
 31 45  1  0  0  0  0
 32 37  1  0  0  0  0
 33 46  1  0  0  0  0
 34 37  1  0  0  0  0
 35 36  1  1  0  0  0
 35 38  1  0  0  0  0
 36 34  1  0  0  0  0
 38 32  1  0  0  0  0
 39 41  2  0  0  0  0
 39 45  1  0  0  0  0
 40 46  1  0  0  0  0
 41 35  1  0  0  0  0
 42 52  1  1  0  0  0
 42 44  1  0  0  0  0
 42 40  1  0  0  0  0
 43 38  1  0  0  0  0
 43 47  1  0  0  0  0
 44 33  1  0  0  0  0
 45 43  2  0  0  0  0
 46 39  1  0  0  0  0
 47 49  1  0  0  0  0
 49 50  1  0  0  0  0
 49 48  1  1  0  0  0
 51 50  1  0  0  0  0
 53 55  1  0  0  0  0
 53 52  1  0  0  0  0
 54 53  2  0  0  0  0
M  END
>  <MODEL>
2

>  <REMARK>
 VINA RESULT:      -7.9      4.598      8.871
  Name = 
  16 active torsions:
  status: ('A' for Active; 'I' for Inactive)
    1  A    between atoms: C_2  and  C_28
    2  A    between atoms: C_2  and  N_44
    3  A    between atoms: C_4  and  C_40
    4  A    between atoms: C_8  and  N_22
    5  A    between atoms: C_8  and  C_43
    6  A    between atoms: C_10  and  C_32
    7  A    between atoms: C_11  and  C_38
    8  A    between atoms: C_19  and  C_40
    9  A    between atoms: C_19  and  C_45
   10  A    between atoms: C_20  and  N_22
   11  A    between atoms: C_27  and  C_54
   12  A    between atoms: C_28  and  C_49
   13  A    between atoms: C_32  and  C_39
   14  A    between atoms: C_35  and  C_43
   15  A    between atoms: C_35  and  C_51
   16  A    between atoms: C_51  and  C_54
                            x       y       z     vdW  Elec       q    Type
                         _______ _______ _______ _____ _____    ______ ____

>  <TORSDO>
F 16

$$$$
=
 OpenBabel10272401373D

 55 61  0  0  1  0  0  0  0  0999 V2000
  185.6260  179.1040  142.8410 C   0  0  0  0  0  3  0  0  0  0  0  0
  183.4890  178.0560  141.3040 C   0  0  1  0  0  3  0  0  0  0  0  0
  184.6300  178.7390  140.5520 C   0  0  0  0  0  2  0  0  0  0  0  0
  184.4190  179.0480  143.4090 C   0  0  0  0  0  3  0  0  0  0  0  0
  185.7870  178.8960  141.4270 N   0  0  0  0  0  0  0  0  0  0  0  0
  183.1770  178.8240  142.5910 C   0  0  0  0  0  2  0  0  0  0  0  0
  182.2560  177.9080  140.4160 C   0  0  0  0  0  2  0  0  0  0  0  0
  182.0590  179.1030  139.4890 C   0  0  0  0  0  2  0  0  0  0  0  0
  180.9210  178.8400  138.5110 C   0  0  0  0  0  2  0  0  0  0  0  0
  181.3310  179.1510  137.0780 C   0  0  0  0  0  2  0  0  0  0  0  0
  181.1800  177.9240  136.1990 C   0  0  0  0  0  2  0  0  0  0  0  0
  181.8730  176.8000  136.8190 N   0  0  0  0  0  2  0  0  0  0  0  0
  185.3300  174.7090  136.0280 C   0  0  2  0  0  0  0  0  0  0  0  0
  183.9840  172.4760  134.5830 O   0  0  0  0  0  1  0  0  0  0  0  0
  183.2810  175.2650  135.4130 C   0  0  2  0  0  0  0  0  0  0  0  0
  183.5240  177.6670  135.3950 F   0  0  0  0  0  0  0  0  0  0  0  0
  182.1610  174.0780  137.3600 O   0  0  0  0  0  1  0  0  0  0  0  0
  183.0580  174.0170  136.2860 C   0  0  2  0  0  0  0  0  0  0  0  0
  183.1990  176.5990  136.2230 C   0  0  1  0  0  0  0  0  0  0  0  0
  185.5710  175.9170  136.9530 C   0  0  0  0  0  2  0  0  0  0  0  0
  184.4760  173.6340  136.7060 C   0  0  1  0  0  0  0  0  0  0  0  0
  186.6590  174.1300  135.5770 C   0  0  0  0  0  1  0  0  0  0  0  0
  183.6180  172.6480  135.9220 C   0  0  2  0  0  0  0  0  0  0  0  0
  184.2350  176.5660  137.3670 C   0  0  0  0  0  2  0  0  0  0  0  0
  182.3800  175.2680  134.3460 O   0  0  0  0  0  1  0  0  0  0  0  0
  184.5990  173.4420  138.0880 O   0  0  0  0  0  1  0  0  0  0  0  0
  184.5960  175.1640  134.9160 O   0  0  0  0  0  0  0  0  0  0  0  0
  183.0950  171.4310  136.6740 C   0  0  0  0  0  2  0  0  0  0  0  0
  183.7090  170.2750  136.1880 O   0  0  0  0  0  1  0  0  0  0  0  0
  187.1160  178.8450  140.8400 C   0  0  0  0  0  2  0  0  0  0  0  0
  187.4930  177.4070  140.5200 C   0  0  0  0  0  2  0  0  0  0  0  0
  191.7190  176.4180  138.0720 C   0  0  0  0  0  2  0  0  0  0  0  0
  187.9710  176.8550  143.3690 C   0  0  0  0  0  2  0  0  0  0  0  0
  193.9320  176.6160  139.2330 C   0  0  0  0  0  2  0  0  0  0  0  0
  191.8220  177.5880  140.3310 C   0  0  1  0  0  3  0  0  0  0  0  0
  193.1740  176.9000  140.5370 C   0  0  0  0  0  2  0  0  0  0  0  0
  193.1440  176.9560  137.9730 C   0  0  0  0  0  2  0  0  0  0  0  0
  191.0440  176.9160  139.2760 N   0  0  0  0  0  0  0  0  0  0  0  0
  189.8040  177.4810  141.7040 C   0  0  0  0  0  0  0  0  0  0  0  0
  189.9070  178.0620  144.1650 C   0  0  0  0  0  2  0  0  0  0  0  0
  191.0960  177.5960  141.6000 N   0  0  0  0  0  0  0  0  0  0  0  0
  188.9780  177.8600  145.3460 C   0  0  1  0  0  3  0  0  0  0  0  0
  189.6050  176.9600  139.3200 C   0  0  0  0  0  0  0  0  0  0  0  0
  187.8940  176.8940  144.8820 C   0  0  0  0  0  2  0  0  0  0  0  0
  188.9860  177.2590  140.4790 C   0  0  0  0  0  0  0  0  0  0  0  0
  189.2090  177.5230  143.0130 N   0  0  0  0  0  0  0  0  0  0  0  0
  188.8100  176.6920  138.0690 C   0  0  0  0  0  2  0  0  0  0  0  0
  187.8060  178.7670  137.4460 O   0  0  0  0  0  1  0  0  0  0  0  0
  188.8400  177.8880  137.1240 C   0  0  2  0  0  3  0  0  0  0  0  0
  188.7110  177.4510  135.6710 C   0  0  0  0  0  2  0  0  0  0  0  0
  187.5240  177.9070  135.1250 F   0  0  0  0  0  0  0  0  0  0  0  0
  189.7550  177.2780  146.5170 C   0  0  0  0  0  2  0  0  0  0  0  0
  189.0100  177.4720  147.7940 C   0  0  0  0  0  0  0  0  0  0  0  0
  188.2020  176.5910  148.1950 O   0  0  0  0  0  0  0  0  0  0  0  0
  189.2290  178.6090  148.5600 O   0  0  0  0  0  1  0  0  0  0  0  0
  1  4  2  0  0  0  0
  2  7  1  6  0  0  0
  2  6  1  0  0  0  0
  3  2  1  0  0  0  0
  3  5  1  0  0  0  0
  5  1  1  0  0  0  0
  6  4  1  0  0  0  0
  8  7  1  0  0  0  0
  9  8  1  0  0  0  0
 10  9  1  0  0  0  0
 11 12  1  0  0  0  0
 11 10  1  0  0  0  0
 13 22  1  6  0  0  0
 13 21  1  0  0  0  0
 13 20  1  0  0  0  0
 15 25  1  6  0  0  0
 15 19  1  0  0  0  0
 15 18  1  0  0  0  0
 18 21  1  0  0  0  0
 18 17  1  1  0  0  0
 19 16  1  6  0  0  0
 19 12  1  0  0  0  0
 19 24  1  0  0  0  0
 20 24  1  0  0  0  0
 21 26  1  1  0  0  0
 23 14  1  6  0  0  0
 23 18  1  0  0  0  0
 23 28  1  0  0  0  0
 23 21  1  0  0  0  0
 27 15  1  0  0  0  0
 27 13  1  0  0  0  0
 29 28  1  0  0  0  0
 30  5  1  0  0  0  0
 31 30  1  0  0  0  0
 32 38  1  0  0  0  0
 33 44  1  0  0  0  0
 34 36  1  0  0  0  0
 35 36  1  1  0  0  0
 35 41  1  0  0  0  0
 37 32  1  0  0  0  0
 37 34  1  0  0  0  0
 38 43  1  0  0  0  0
 38 35  1  0  0  0  0
 39 46  1  0  0  0  0
 40 42  1  0  0  0  0
 41 39  2  0  0  0  0
 42 52  1  1  0  0  0
 43 45  2  0  0  0  0
 44 42  1  0  0  0  0
 45 31  1  0  0  0  0
 45 39  1  0  0  0  0
 46 33  1  0  0  0  0
 46 40  1  0  0  0  0
 47 43  1  0  0  0  0
 49 48  1  1  0  0  0
 49 47  1  0  0  0  0
 50 49  1  0  0  0  0
 51 50  1  0  0  0  0
 52 53  1  0  0  0  0
 53 54  2  0  0  0  0
 53 55  1  0  0  0  0
M  END
>  <MODEL>
3

>  <REMARK>
 VINA RESULT:      -7.8      4.732      9.487
  Name = 
  16 active torsions:
  status: ('A' for Active; 'I' for Inactive)
    1  A    between atoms: C_2  and  C_28
    2  A    between atoms: C_2  and  N_44
    3  A    between atoms: C_4  and  C_40
    4  A    between atoms: C_8  and  N_22
    5  A    between atoms: C_8  and  C_43
    6  A    between atoms: C_10  and  C_32
    7  A    between atoms: C_11  and  C_38
    8  A    between atoms: C_19  and  C_40
    9  A    between atoms: C_19  and  C_45
   10  A    between atoms: C_20  and  N_22
   11  A    between atoms: C_27  and  C_54
   12  A    between atoms: C_28  and  C_49
   13  A    between atoms: C_32  and  C_39
   14  A    between atoms: C_35  and  C_43
   15  A    between atoms: C_35  and  C_51
   16  A    between atoms: C_51  and  C_54
                            x       y       z     vdW  Elec       q    Type
                         _______ _______ _______ _____ _____    ______ ____

>  <TORSDO>
F 16

$$$$
=
 OpenBabel10272401373D

 55 61  0  0  1  0  0  0  0  0999 V2000
  185.7490  178.4550  144.1290 C   0  0  0  0  0  3  0  0  0  0  0  0
  183.4030  178.4290  142.5420 C   0  0  1  0  0  3  0  0  0  0  0  0
  184.7440  178.5130  141.8160 C   0  0  0  0  0  2  0  0  0  0  0  0
  184.6310  178.9570  144.6610 C   0  0  0  0  0  3  0  0  0  0  0  0
  185.8310  178.1600  142.7240 N   0  0  0  0  0  0  0  0  0  0  0  0
  183.4380  179.2900  143.8080 C   0  0  0  0  0  2  0  0  0  0  0  0
  182.2530  178.8240  141.6180 C   0  0  0  0  0  2  0  0  0  0  0  0
  182.4100  178.2510  140.2140 C   0  0  0  0  0  2  0  0  0  0  0  0
  181.5140  178.9910  139.2290 C   0  0  0  0  0  2  0  0  0  0  0  0
  182.1100  179.0040  137.8290 C   0  0  0  0  0  2  0  0  0  0  0  0
  181.5340  177.8780  136.9910 C   0  0  0  0  0  2  0  0  0  0  0  0
  182.6250  177.0620  136.4680 N   0  0  0  0  0  2  0  0  0  0  0  0
  183.3690  173.0340  136.0530 C   0  0  2  0  0  0  0  0  0  0  0  0
  185.4040  172.8970  138.2270 O   0  0  0  0  0  1  0  0  0  0  0  0
  183.2600  174.8040  137.3720 C   0  0  2  0  0  0  0  0  0  0  0  0
  180.9770  175.4610  136.9450 F   0  0  0  0  0  0  0  0  0  0  0  0
  185.1980  176.0050  136.2510 O   0  0  0  0  0  1  0  0  0  0  0  0
  184.7100  174.8410  136.8570 C   0  0  2  0  0  0  0  0  0  0  0  0
  182.2770  175.6350  136.4860 C   0  0  1  0  0  0  0  0  0  0  0  0
  182.4430  173.5790  134.9480 C   0  0  0  0  0  2  0  0  0  0  0  0
  184.7820  173.6140  135.9490 C   0  0  1  0  0  0  0  0  0  0  0  0
  183.4080  171.5170  135.9930 C   0  0  0  0  0  1  0  0  0  0  0  0
  185.7140  173.7330  137.1490 C   0  0  2  0  0  0  0  0  0  0  0  0
  182.3310  175.1150  135.0350 C   0  0  0  0  0  2  0  0  0  0  0  0
  183.2160  175.2240  138.7030 O   0  0  0  0  0  1  0  0  0  0  0  0
  185.3040  173.9070  134.6820 O   0  0  0  0  0  1  0  0  0  0  0  0
  182.8510  173.4580  137.2910 O   0  0  0  0  0  0  0  0  0  0  0  0
  187.1860  173.9990  136.8620 C   0  0  0  0  0  2  0  0  0  0  0  0
  187.9260  172.8320  137.0620 O   0  0  0  0  0  1  0  0  0  0  0  0
  187.0100  177.5070  142.1790 C   0  0  0  0  0  2  0  0  0  0  0  0
  187.9290  178.5340  141.5370 C   0  0  0  0  0  2  0  0  0  0  0  0
  190.1130  176.6110  137.4930 C   0  0  0  0  0  2  0  0  0  0  0  0
  189.1030  177.2130  143.8890 C   0  0  0  0  0  2  0  0  0  0  0  0
  192.4420  175.6930  137.6250 C   0  0  0  0  0  2  0  0  0  0  0  0
  191.5160  177.1110  139.5570 C   0  0  1  0  0  3  0  0  0  0  0  0
  192.4070  175.9390  139.1400 C   0  0  0  0  0  2  0  0  0  0  0  0
  191.4890  176.5800  136.8330 C   0  0  0  0  0  2  0  0  0  0  0  0
  190.2040  177.0390  138.8940 N   0  0  0  0  0  0  0  0  0  0  0  0
  190.2940  177.4640  141.6430 C   0  0  0  0  0  0  0  0  0  0  0  0
  191.5130  177.3900  143.8600 C   0  0  0  0  0  2  0  0  0  0  0  0
  191.3740  177.1050  141.0120 N   0  0  0  0  0  0  0  0  0  0  0  0
  191.0800  177.2900  145.3090 C   0  0  1  0  0  3  0  0  0  0  0  0
  189.0500  177.6110  139.5400 C   0  0  0  0  0  0  0  0  0  0  0  0
  189.5980  176.9350  145.2950 C   0  0  0  0  0  2  0  0  0  0  0  0
  189.0830  177.8490  140.8650 C   0  0  0  0  0  0  0  0  0  0  0  0
  190.2890  177.4290  143.0820 N   0  0  0  0  0  0  0  0  0  0  0  0
  187.8290  177.9520  138.7260 C   0  0  0  0  0  2  0  0  0  0  0  0
  188.8440  179.8280  137.6550 O   0  0  0  0  0  1  0  0  0  0  0  0
  188.2070  178.6130  137.4060 C   0  0  2  0  0  3  0  0  0  0  0  0
  186.9840  178.8420  136.5290 C   0  0  0  0  0  2  0  0  0  0  0  0
  187.2240  178.4210  135.2330 F   0  0  0  0  0  0  0  0  0  0  0  0
  191.8870  176.2100  146.0140 C   0  0  0  0  0  2  0  0  0  0  0  0
  192.0500  176.5310  147.4610 C   0  0  0  0  0  0  0  0  0  0  0  0
  191.3460  177.4320  147.9920 O   0  0  0  0  0  0  0  0  0  0  0  0
  192.9560  175.8150  148.2320 O   0  0  0  0  0  1  0  0  0  0  0  0
  1  4  2  0  0  0  0
  2  7  1  6  0  0  0
  2  6  1  0  0  0  0
  3  2  1  0  0  0  0
  3  5  1  0  0  0  0
  5  1  1  0  0  0  0
  6  4  1  0  0  0  0
  8  7  1  0  0  0  0
  9  8  1  0  0  0  0
 10  9  1  0  0  0  0
 11 10  1  0  0  0  0
 12 19  1  0  0  0  0
 12 11  1  0  0  0  0
 13 22  1  6  0  0  0
 13 27  1  0  0  0  0
 15 25  1  1  0  0  0
 18 17  1  6  0  0  0
 18 23  1  0  0  0  0
 18 15  1  0  0  0  0
 19 16  1  1  0  0  0
 19 15  1  0  0  0  0
 20 24  1  0  0  0  0
 20 13  1  0  0  0  0
 21 26  1  6  0  0  0
 21 13  1  0  0  0  0
 21 18  1  0  0  0  0
 21 23  1  0  0  0  0
 23 14  1  1  0  0  0
 24 19  1  0  0  0  0
 27 15  1  0  0  0  0
 28 29  1  0  0  0  0
 28 23  1  0  0  0  0
 30  5  1  0  0  0  0
 31 30  1  0  0  0  0
 32 38  1  0  0  0  0
 33 44  1  0  0  0  0
 34 36  1  0  0  0  0
 35 36  1  1  0  0  0
 35 41  1  0  0  0  0
 37 32  1  0  0  0  0
 37 34  1  0  0  0  0
 38 43  1  0  0  0  0
 38 35  1  0  0  0  0
 39 46  1  0  0  0  0
 40 42  1  0  0  0  0
 41 39  2  0  0  0  0
 42 52  1  1  0  0  0
 43 45  2  0  0  0  0
 44 42  1  0  0  0  0
 45 31  1  0  0  0  0
 45 39  1  0  0  0  0
 46 40  1  0  0  0  0
 46 33  1  0  0  0  0
 47 43  1  0  0  0  0
 49 48  1  1  0  0  0
 49 47  1  0  0  0  0
 50 49  1  0  0  0  0
 51 50  1  0  0  0  0
 52 53  1  0  0  0  0
 53 54  2  0  0  0  0
 53 55  1  0  0  0  0
M  END
>  <MODEL>
4

>  <REMARK>
 VINA RESULT:      -7.8      4.533      9.657
  Name = 
  16 active torsions:
  status: ('A' for Active; 'I' for Inactive)
    1  A    between atoms: C_2  and  C_28
    2  A    between atoms: C_2  and  N_44
    3  A    between atoms: C_4  and  C_40
    4  A    between atoms: C_8  and  N_22
    5  A    between atoms: C_8  and  C_43
    6  A    between atoms: C_10  and  C_32
    7  A    between atoms: C_11  and  C_38
    8  A    between atoms: C_19  and  C_40
    9  A    between atoms: C_19  and  C_45
   10  A    between atoms: C_20  and  N_22
   11  A    between atoms: C_27  and  C_54
   12  A    between atoms: C_28  and  C_49
   13  A    between atoms: C_32  and  C_39
   14  A    between atoms: C_35  and  C_43
   15  A    between atoms: C_35  and  C_51
   16  A    between atoms: C_51  and  C_54
                            x       y       z     vdW  Elec       q    Type
                         _______ _______ _______ _____ _____    ______ ____

>  <TORSDO>
F 16

$$$$
=
 OpenBabel10272401373D

 55 61  0  0  1  0  0  0  0  0999 V2000
  190.3580  177.4850  140.4470 C   0  0  0  0  0  3  0  0  0  0  0  0
  189.3360  178.4380  137.9830 C   0  0  1  0  0  3  0  0  0  0  0  0
  188.3400  178.2110  139.1180 C   0  0  0  0  0  2  0  0  0  0  0  0
  191.0120  177.1520  139.3310 C   0  0  0  0  0  3  0  0  0  0  0  0
  189.0470  178.0730  140.3880 N   0  0  0  0  0  0  0  0  0  0  0  0
  190.3840  177.3220  137.9750 C   0  0  0  0  0  2  0  0  0  0  0  0
  188.6200  178.5550  136.6390 C   0  0  0  0  0  2  0  0  0  0  0  0
  187.3670  177.6890  136.5690 C   0  0  0  0  0  2  0  0  0  0  0  0
  187.6400  176.4150  135.7810 C   0  0  0  0  0  2  0  0  0  0  0  0
  186.4850  176.0750  134.8480 C   0  0  0  0  0  2  0  0  0  0  0  0
  185.8420  174.7610  135.2480 C   0  0  0  0  0  2  0  0  0  0  0  0
  184.4420  174.7670  134.8390 N   0  0  0  0  0  2  0  0  0  0  0  0
  182.0060  175.8660  137.9710 C   0  0  2  0  0  0  0  0  0  0  0  0
  179.9860  177.2620  136.2810 O   0  0  0  0  0  1  0  0  0  0  0  0
  182.2000  175.2940  135.8450 C   0  0  2  0  0  0  0  0  0  0  0  0
  183.3020  173.1640  136.1190 F   0  0  0  0  0  0  0  0  0  0  0  0
  183.5110  177.3720  135.1990 O   0  0  0  0  0  1  0  0  0  0  0  0
  182.3780  176.8220  135.8140 C   0  0  2  0  0  0  0  0  0  0  0  0
  183.5530  174.5240  135.9820 C   0  0  1  0  0  0  0  0  0  0  0  0
  183.3260  175.2280  138.4470 C   0  0  0  0  0  2  0  0  0  0  0  0
  182.2410  177.2140  137.2840 C   0  0  1  0  0  0  0  0  0  0  0  0
  181.0550  176.0230  139.1440 C   0  0  0  0  0  1  0  0  0  0  0  0
  181.2820  177.7880  136.2470 C   0  0  2  0  0  0  0  0  0  0  0  0
  184.2810  174.9940  137.2590 C   0  0  0  0  0  2  0  0  0  0  0  0
  181.4930  174.8730  134.7160 O   0  0  0  0  0  1  0  0  0  0  0  0
  183.2900  178.0290  137.7290 O   0  0  0  0  0  1  0  0  0  0  0  0
  181.4460  175.0130  137.0020 O   0  0  0  0  0  0  0  0  0  0  0  0
  181.4380  179.2610  135.8960 C   0  0  0  0  0  2  0  0  0  0  0  0
  181.0260  180.0500  136.9730 O   0  0  0  0  0  1  0  0  0  0  0  0
  188.3950  178.5370  141.6020 C   0  0  0  0  0  2  0  0  0  0  0  0
  187.5180  177.4370  142.1800 C   0  0  0  0  0  2  0  0  0  0  0  0
  189.0910  176.8970  146.8760 C   0  0  0  0  0  2  0  0  0  0  0  0
  184.5920  177.7220  142.2540 C   0  0  0  0  0  2  0  0  0  0  0  0
  187.7810  177.8820  148.7740 C   0  0  0  0  0  2  0  0  0  0  0  0
  187.2460  178.5710  146.3570 C   0  0  1  0  0  3  0  0  0  0  0  0
  186.7030  178.2900  147.7600 C   0  0  0  0  0  2  0  0  0  0  0  0
  189.1680  177.7120  148.1650 C   0  0  0  0  0  2  0  0  0  0  0  0
  188.1570  177.5010  145.9200 N   0  0  0  0  0  0  0  0  0  0  0  0
  186.1400  178.3340  144.1910 C   0  0  0  0  0  0  0  0  0  0  0  0
  183.9390  179.5040  143.7510 C   0  0  0  0  0  2  0  0  0  0  0  0
  186.1210  178.7190  145.4340 N   0  0  0  0  0  0  0  0  0  0  0  0
  182.8650  179.3840  142.6880 C   0  0  1  0  0  3  0  0  0  0  0  0
  188.2950  177.2180  144.5140 C   0  0  0  0  0  0  0  0  0  0  0  0
  183.1670  178.1090  141.9090 C   0  0  0  0  0  2  0  0  0  0  0  0
  187.3430  177.6360  143.6570 C   0  0  0  0  0  0  0  0  0  0  0  0
  184.9710  178.5530  143.3810 N   0  0  0  0  0  0  0  0  0  0  0  0
  189.5080  176.4760  144.0160 C   0  0  0  0  0  2  0  0  0  0  0  0
  191.1160  178.0920  143.3070 O   0  0  0  0  0  1  0  0  0  0  0  0
  190.7930  177.2230  144.3490 C   0  0  2  0  0  3  0  0  0  0  0  0
  191.9470  176.2610  144.5950 C   0  0  0  0  0  2  0  0  0  0  0  0
  191.9070  175.7650  145.8860 F   0  0  0  0  0  0  0  0  0  0  0  0
  181.4970  179.3020  143.3480 C   0  0  0  0  0  2  0  0  0  0  0  0
  180.4890  178.7340  142.4070 C   0  0  0  0  0  0  0  0  0  0  0  0
  179.9820  177.6020  142.6310 O   0  0  0  0  0  1  0  0  0  0  0  0
  180.0840  179.4660  141.2990 O   0  0  0  0  0  0  0  0  0  0  0  0
  2  7  1  6  0  0  0
  2  3  1  0  0  0  0
  3  5  1  0  0  0  0
  4  1  2  0  0  0  0
  5  1  1  0  0  0  0
  5 30  1  0  0  0  0
  6  2  1  0  0  0  0
  6  4  1  0  0  0  0
  8  7  1  0  0  0  0
  9  8  1  0  0  0  0
 10 11  1  0  0  0  0
 10  9  1  0  0  0  0
 12 11  1  0  0  0  0
 12 19  1  0  0  0  0
 13 20  1  0  0  0  0
 13 22  1  1  0  0  0
 15 25  1  6  0  0  0
 15 19  1  0  0  0  0
 15 27  1  0  0  0  0
 18 17  1  6  0  0  0
 18 15  1  0  0  0  0
 18 23  1  0  0  0  0
 18 21  1  0  0  0  0
 19 16  1  1  0  0  0
 19 24  1  0  0  0  0
 21 26  1  1  0  0  0
 21 13  1  0  0  0  0
 23 14  1  1  0  0  0
 23 21  1  0  0  0  0
 24 20  1  0  0  0  0
 27 13  1  0  0  0  0
 28 23  1  0  0  0  0
 28 29  1  0  0  0  0
 30 31  1  0  0  0  0
 31 45  1  0  0  0  0
 32 37  1  0  0  0  0
 33 46  1  0  0  0  0
 35 36  1  1  0  0  0
 36 34  1  0  0  0  0
 37 34  1  0  0  0  0
 38 35  1  0  0  0  0
 38 32  1  0  0  0  0
 39 41  2  0  0  0  0
 41 35  1  0  0  0  0
 42 52  1  1  0  0  0
 42 40  1  0  0  0  0
 43 38  1  0  0  0  0
 44 33  1  0  0  0  0
 44 42  1  0  0  0  0
 45 39  1  0  0  0  0
 45 43  2  0  0  0  0
 46 40  1  0  0  0  0
 46 39  1  0  0  0  0
 47 49  1  0  0  0  0
 47 43  1  0  0  0  0
 49 48  1  6  0  0  0
 49 50  1  0  0  0  0
 50 51  1  0  0  0  0
 53 54  1  0  0  0  0
 53 52  1  0  0  0  0
 55 53  2  0  0  0  0
M  END
>  <MODEL>
5

>  <REMARK>
 VINA RESULT:      -7.7      4.582      7.937
  Name = 
  16 active torsions:
  status: ('A' for Active; 'I' for Inactive)
    1  A    between atoms: C_2  and  C_28
    2  A    between atoms: C_2  and  N_44
    3  A    between atoms: C_4  and  C_40
    4  A    between atoms: C_8  and  N_22
    5  A    between atoms: C_8  and  C_43
    6  A    between atoms: C_10  and  C_32
    7  A    between atoms: C_11  and  C_38
    8  A    between atoms: C_19  and  C_40
    9  A    between atoms: C_19  and  C_45
   10  A    between atoms: C_20  and  N_22
   11  A    between atoms: C_27  and  C_54
   12  A    between atoms: C_28  and  C_49
   13  A    between atoms: C_32  and  C_39
   14  A    between atoms: C_35  and  C_43
   15  A    between atoms: C_35  and  C_51
   16  A    between atoms: C_51  and  C_54
                            x       y       z     vdW  Elec       q    Type
                         _______ _______ _______ _____ _____    ______ ____

>  <TORSDO>
F 16

$$$$
=
 OpenBabel10272401373D

 55 61  0  0  1  0  0  0  0  0999 V2000
  184.0440  178.5300  144.0260 C   0  0  0  0  0  3  0  0  0  0  0  0
  182.1310  178.4070  141.9400 C   0  0  1  0  0  3  0  0  0  0  0  0
  183.6020  178.5060  141.5430 C   0  0  0  0  0  2  0  0  0  0  0  0
  182.8250  179.0170  144.2690 C   0  0  0  0  0  3  0  0  0  0  0  0
  184.4550  178.2020  142.6880 N   0  0  0  0  0  0  0  0  0  0  0  0
  181.8560  179.2990  143.1540 C   0  0  0  0  0  2  0  0  0  0  0  0
  181.2200  178.7500  140.7640 C   0  0  0  0  0  2  0  0  0  0  0  0
  181.5160  177.9040  139.5310 C   0  0  0  0  0  2  0  0  0  0  0  0
  181.2310  178.6920  138.2590 C   0  0  0  0  0  2  0  0  0  0  0  0
  182.2500  178.3870  137.1700 C   0  0  0  0  0  2  0  0  0  0  0  0
  181.6660  177.4420  136.1380 C   0  0  0  0  0  2  0  0  0  0  0  0
  182.6940  176.4970  135.7150 N   0  0  0  0  0  2  0  0  0  0  0  0
  183.3760  172.4650  136.2010 C   0  0  2  0  0  0  0  0  0  0  0  0
  185.5510  172.7880  138.2150 O   0  0  0  0  0  1  0  0  0  0  0  0
  183.3700  174.4950  137.0770 C   0  0  2  0  0  0  0  0  0  0  0  0
  181.0690  175.0880  136.6540 F   0  0  0  0  0  0  0  0  0  0  0  0
  185.2380  175.3590  135.5880 O   0  0  0  0  0  1  0  0  0  0  0  0
  184.7820  174.3770  136.4770 C   0  0  2  0  0  0  0  0  0  0  0  0
  182.3360  175.1220  136.0860 C   0  0  1  0  0  0  0  0  0  0  0  0
  182.3830  172.7620  135.0610 C   0  0  0  0  0  2  0  0  0  0  0  0
  184.7840  172.9730  135.8760 C   0  0  1  0  0  0  0  0  0  0  0  0
  183.3990  170.9760  136.4930 C   0  0  0  0  0  1  0  0  0  0  0  0
  185.7950  173.3440  136.9540 C   0  0  2  0  0  0  0  0  0  0  0  0
  182.2900  174.2780  134.7950 C   0  0  0  0  0  2  0  0  0  0  0  0
  183.4190  175.2120  138.2740 O   0  0  0  0  0  1  0  0  0  0  0  0
  185.2220  172.9520  134.5450 O   0  0  0  0  0  1  0  0  0  0  0  0
  182.9450  173.1770  137.3370 O   0  0  0  0  0  0  0  0  0  0  0  0
  187.2460  173.5020  136.5210 C   0  0  0  0  0  2  0  0  0  0  0  0
  187.9920  172.4040  136.9560 O   0  0  0  0  0  1  0  0  0  0  0  0
  185.7400  177.5650  142.4500 C   0  0  0  0  0  2  0  0  0  0  0  0
  186.8570  178.5950  142.5150 C   0  0  0  0  0  2  0  0  0  0  0  0
  189.8250  177.5670  146.3820 C   0  0  0  0  0  2  0  0  0  0  0  0
  188.5190  178.5560  140.0890 C   0  0  0  0  0  2  0  0  0  0  0  0
  191.8880  176.1780  146.0630 C   0  0  0  0  0  2  0  0  0  0  0  0
  190.1230  176.2910  144.1990 C   0  0  1  0  0  3  0  0  0  0  0  0
  191.6080  176.1860  144.5540 C   0  0  0  0  0  2  0  0  0  0  0  0
  190.6490  176.4010  146.9230 C   0  0  0  0  0  2  0  0  0  0  0  0
  189.4700  177.3600  144.9740 N   0  0  0  0  0  0  0  0  0  0  0  0
  189.0660  177.2600  142.2210 C   0  0  0  0  0  0  0  0  0  0  0  0
  189.7280  176.4720  139.9090 C   0  0  0  0  0  2  0  0  0  0  0  0
  189.9930  176.5250  142.7620 N   0  0  0  0  0  0  0  0  0  0  0  0
  189.5130  176.9960  138.5040 C   0  0  1  0  0  3  0  0  0  0  0  0
  188.3250  178.0380  144.4220 C   0  0  0  0  0  0  0  0  0  0  0  0
  188.9740  178.4150  138.6500 C   0  0  0  0  0  2  0  0  0  0  0  0
  188.0960  177.9790  143.0950 C   0  0  0  0  0  0  0  0  0  0  0  0
  189.0380  177.3960  140.7890 N   0  0  0  0  0  0  0  0  0  0  0  0
  187.3880  178.7870  145.3320 C   0  0  0  0  0  2  0  0  0  0  0  0
  186.3490  176.6850  145.7820 O   0  0  0  0  0  1  0  0  0  0  0  0
  186.7800  177.8670  146.3840 C   0  0  2  0  0  3  0  0  0  0  0  0
  185.6150  178.5350  147.1010 C   0  0  0  0  0  2  0  0  0  0  0  0
  185.9820  179.7840  147.5730 F   0  0  0  0  0  0  0  0  0  0  0  0
  190.8320  176.9950  137.7470 C   0  0  0  0  0  2  0  0  0  0  0  0
  191.3430  175.6040  137.5760 C   0  0  0  0  0  0  0  0  0  0  0  0
  192.4600  175.2770  138.0590 O   0  0  0  0  0  1  0  0  0  0  0  0
  190.5730  174.6600  136.9110 O   0  0  0  0  0  0  0  0  0  0  0  0
  1  4  2  0  0  0  0
  2  7  1  6  0  0  0
  2  6  1  0  0  0  0
  3  2  1  0  0  0  0
  3  5  1  0  0  0  0
  5  1  1  0  0  0  0
  6  4  1  0  0  0  0
  8  7  1  0  0  0  0
  9  8  1  0  0  0  0
 10  9  1  0  0  0  0
 11 10  1  0  0  0  0
 12 19  1  0  0  0  0
 12 11  1  0  0  0  0
 13 22  1  1  0  0  0
 13 27  1  0  0  0  0
 15 27  1  0  0  0  0
 15 25  1  1  0  0  0
 18 17  1  6  0  0  0
 18 23  1  0  0  0  0
 18 15  1  0  0  0  0
 19 16  1  1  0  0  0
 19 15  1  0  0  0  0
 20 13  1  0  0  0  0
 21 26  1  6  0  0  0
 21 13  1  0  0  0  0
 21 18  1  0  0  0  0
 21 23  1  0  0  0  0
 23 14  1  1  0  0  0
 24 20  1  0  0  0  0
 24 19  1  0  0  0  0
 28 23  1  0  0  0  0
 28 29  1  0  0  0  0
 30 31  1  0  0  0  0
 30  5  1  0  0  0  0
 31 45  1  0  0  0  0
 32 37  1  0  0  0  0
 33 46  1  0  0  0  0
 34 37  1  0  0  0  0
 35 36  1  1  0  0  0
 35 38  1  0  0  0  0
 36 34  1  0  0  0  0
 38 32  1  0  0  0  0
 39 41  2  0  0  0  0
 39 45  1  0  0  0  0
 40 46  1  0  0  0  0
 41 35  1  0  0  0  0
 42 52  1  6  0  0  0
 42 44  1  0  0  0  0
 42 40  1  0  0  0  0
 43 38  1  0  0  0  0
 43 47  1  0  0  0  0
 44 33  1  0  0  0  0
 45 43  2  0  0  0  0
 46 39  1  0  0  0  0
 47 49  1  0  0  0  0
 49 48  1  6  0  0  0
 49 50  1  0  0  0  0
 50 51  1  0  0  0  0
 53 52  1  0  0  0  0
 53 54  1  0  0  0  0
 55 53  2  0  0  0  0
M  END
>  <MODEL>
6

>  <REMARK>
 VINA RESULT:      -7.6      4.654      8.843
  Name = 
  16 active torsions:
  status: ('A' for Active; 'I' for Inactive)
    1  A    between atoms: C_2  and  C_28
    2  A    between atoms: C_2  and  N_44
    3  A    between atoms: C_4  and  C_40
    4  A    between atoms: C_8  and  N_22
    5  A    between atoms: C_8  and  C_43
    6  A    between atoms: C_10  and  C_32
    7  A    between atoms: C_11  and  C_38
    8  A    between atoms: C_19  and  C_40
    9  A    between atoms: C_19  and  C_45
   10  A    between atoms: C_20  and  N_22
   11  A    between atoms: C_27  and  C_54
   12  A    between atoms: C_28  and  C_49
   13  A    between atoms: C_32  and  C_39
   14  A    between atoms: C_35  and  C_43
   15  A    between atoms: C_35  and  C_51
   16  A    between atoms: C_51  and  C_54
                            x       y       z     vdW  Elec       q    Type
                         _______ _______ _______ _____ _____    ______ ____

>  <TORSDO>
F 16

$$$$
=
 OpenBabel10272401373D

 55 61  0  0  1  0  0  0  0  0999 V2000
  189.1150  178.4140  137.9620 C   0  0  0  0  0  3  0  0  0  0  0  0
  187.6570  176.7750  136.1690 C   0  0  1  0  0  3  0  0  0  0  0  0
  188.0230  176.1810  137.5280 C   0  0  0  0  0  2  0  0  0  0  0  0
  189.2780  178.6230  136.6530 C   0  0  0  0  0  3  0  0  0  0  0  0
  188.4400  177.2380  138.4430 N   0  0  0  0  0  0  0  0  0  0  0  0
  188.8200  177.6150  135.6350 C   0  0  0  0  0  2  0  0  0  0  0  0
  187.2460  175.6820  135.1850 C   0  0  0  0  0  2  0  0  0  0  0  0
  188.4340  174.8670  134.6870 C   0  0  0  0  0  2  0  0  0  0  0  0
  188.2790  173.4020  135.0710 C   0  0  0  0  0  2  0  0  0  0  0  0
  189.3420  172.9680  136.0700 C   0  0  0  0  0  2  0  0  0  0  0  0
  190.6220  172.5780  135.3560 C   0  0  0  0  0  2  0  0  0  0  0  0
  191.7640  172.9090  136.2030 N   0  0  0  0  0  2  0  0  0  0  0  0
  195.5600  174.2640  135.3630 C   0  0  2  0  0  0  0  0  0  0  0  0
  196.8190  173.1040  137.8040 O   0  0  0  0  0  1  0  0  0  0  0  0
  194.2680  172.7230  136.2820 C   0  0  2  0  0  0  0  0  0  0  0  0
  192.9610  172.1140  134.3470 F   0  0  0  0  0  0  0  0  0  0  0  0
  193.3320  174.2820  138.0570 O   0  0  0  0  0  1  0  0  0  0  0  0
  194.4570  173.7440  137.4180 C   0  0  2  0  0  0  0  0  0  0  0  0
  192.9990  173.0030  135.4150 C   0  0  1  0  0  0  0  0  0  0  0  0
  194.5080  174.8130  134.3810 C   0  0  0  0  0  2  0  0  0  0  0  0
  195.3520  174.8050  136.7810 C   0  0  1  0  0  0  0  0  0  0  0  0
  196.9550  174.5930  134.8650 C   0  0  0  0  0  1  0  0  0  0  0  0
  195.8190  174.0580  138.0250 C   0  0  2  0  0  0  0  0  0  0  0  0
  193.0830  174.4280  134.8310 C   0  0  0  0  0  2  0  0  0  0  0  0
  194.2460  171.4280  136.8040 O   0  0  0  0  0  1  0  0  0  0  0  0
  194.8550  176.1050  136.9440 O   0  0  0  0  0  1  0  0  0  0  0  0
  195.3870  172.8690  135.4370 O   0  0  0  0  0  0  0  0  0  0  0  0
  195.8650  174.8420  139.3290 C   0  0  0  0  0  2  0  0  0  0  0  0
  197.1790  175.2290  139.6030 O   0  0  0  0  0  1  0  0  0  0  0  0
  188.1660  177.0790  139.8630 C   0  0  0  0  0  2  0  0  0  0  0  0
  188.1990  178.4310  140.5580 C   0  0  0  0  0  2  0  0  0  0  0  0
  183.7190  179.3690  142.5250 C   0  0  0  0  0  2  0  0  0  0  0  0
  190.1600  178.5000  142.7500 C   0  0  0  0  0  2  0  0  0  0  0  0
  183.2370  178.7880  144.9160 C   0  0  0  0  0  2  0  0  0  0  0  0
  185.3490  177.8680  143.7780 C   0  0  1  0  0  3  0  0  0  0  0  0
  184.7100  178.3850  145.0700 C   0  0  0  0  0  2  0  0  0  0  0  0
  182.7230  178.7190  143.4820 C   0  0  0  0  0  2  0  0  0  0  0  0
  185.0490  178.7620  142.6470 N   0  0  0  0  0  0  0  0  0  0  0  0
  187.6820  177.9590  143.0600 C   0  0  0  0  0  0  0  0  0  0  0  0
  189.5060  177.0070  144.5350 C   0  0  0  0  0  2  0  0  0  0  0  0
  186.7910  177.7380  143.9820 N   0  0  0  0  0  0  0  0  0  0  0  0
  191.0170  177.1170  144.5630 C   0  0  1  0  0  3  0  0  0  0  0  0
  185.9750  178.8490  141.5470 C   0  0  0  0  0  0  0  0  0  0  0  0
  191.3870  178.2410  143.6010 C   0  0  0  0  0  2  0  0  0  0  0  0
  187.2480  178.4400  141.7180 C   0  0  0  0  0  0  0  0  0  0  0  0
  189.0730  177.7770  143.3840 N   0  0  0  0  0  0  0  0  0  0  0  0
  185.5090  179.3770  140.2160 C   0  0  0  0  0  2  0  0  0  0  0  0
  185.2900  178.3810  138.0570 O   0  0  0  0  0  1  0  0  0  0  0  0
  184.8590  178.2810  139.3800 C   0  0  2  0  0  3  0  0  0  0  0  0
  183.3400  178.3670  139.4350 C   0  0  0  0  0  2  0  0  0  0  0  0
  182.8220  178.6990  138.1950 F   0  0  0  0  0  0  0  0  0  0  0  0
  191.4830  177.4390  145.9740 C   0  0  0  0  0  2  0  0  0  0  0  0
  191.2690  176.2740  146.8810 C   0  0  0  0  0  0  0  0  0  0  0  0
  192.0540  175.2890  146.8410 O   0  0  0  0  0  0  0  0  0  0  0  0
  190.2210  176.2880  147.7920 O   0  0  0  0  0  1  0  0  0  0  0  0
  1  5  1  0  0  0  0
  2  7  1  6  0  0  0
  2  3  1  0  0  0  0
  3  5  1  0  0  0  0
  4  1  2  0  0  0  0
  5 30  1  0  0  0  0
  6  2  1  0  0  0  0
  6  4  1  0  0  0  0
  8  9  1  0  0  0  0
  8  7  1  0  0  0  0
  9 10  1  0  0  0  0
 11 10  1  0  0  0  0
 11 12  1  0  0  0  0
 13 22  1  6  0  0  0
 13 27  1  0  0  0  0
 13 21  1  0  0  0  0
 15 25  1  1  0  0  0
 15 18  1  0  0  0  0
 18 23  1  0  0  0  0
 18 17  1  1  0  0  0
 19 16  1  6  0  0  0
 19 12  1  0  0  0  0
 19 15  1  0  0  0  0
 20 24  1  0  0  0  0
 20 13  1  0  0  0  0
 21 26  1  1  0  0  0
 21 18  1  0  0  0  0
 21 23  1  0  0  0  0
 23 14  1  6  0  0  0
 23 28  1  0  0  0  0
 24 19  1  0  0  0  0
 27 15  1  0  0  0  0
 28 29  1  0  0  0  0
 30 31  1  0  0  0  0
 31 45  1  0  0  0  0
 32 38  1  0  0  0  0
 32 37  1  0  0  0  0
 33 46  1  0  0  0  0
 33 44  1  0  0  0  0
 34 36  1  0  0  0  0
 35 41  1  0  0  0  0
 35 36  1  1  0  0  0
 37 34  1  0  0  0  0
 38 35  1  0  0  0  0
 39 46  1  0  0  0  0
 39 41  2  0  0  0  0
 40 42  1  0  0  0  0
 42 52  1  1  0  0  0
 43 45  2  0  0  0  0
 43 38  1  0  0  0  0
 44 42  1  0  0  0  0
 45 39  1  0  0  0  0
 46 40  1  0  0  0  0
 47 43  1  0  0  0  0
 49 48  1  6  0  0  0
 49 50  1  0  0  0  0
 49 47  1  0  0  0  0
 51 50  1  0  0  0  0
 52 53  1  0  0  0  0
 53 55  1  0  0  0  0
 54 53  2  0  0  0  0
M  END
>  <MODEL>
7

>  <REMARK>
 VINA RESULT:      -7.4      2.915      5.698
  Name = 
  16 active torsions:
  status: ('A' for Active; 'I' for Inactive)
    1  A    between atoms: C_2  and  C_28
    2  A    between atoms: C_2  and  N_44
    3  A    between atoms: C_4  and  C_40
    4  A    between atoms: C_8  and  N_22
    5  A    between atoms: C_8  and  C_43
    6  A    between atoms: C_10  and  C_32
    7  A    between atoms: C_11  and  C_38
    8  A    between atoms: C_19  and  C_40
    9  A    between atoms: C_19  and  C_45
   10  A    between atoms: C_20  and  N_22
   11  A    between atoms: C_27  and  C_54
   12  A    between atoms: C_28  and  C_49
   13  A    between atoms: C_32  and  C_39
   14  A    between atoms: C_35  and  C_43
   15  A    between atoms: C_35  and  C_51
   16  A    between atoms: C_51  and  C_54
                            x       y       z     vdW  Elec       q    Type
                         _______ _______ _______ _____ _____    ______ ____

>  <TORSDO>
F 16

$$$$
=
 OpenBabel10272401373D

 55 61  0  0  1  0  0  0  0  0999 V2000
  189.1870  178.1380  137.7120 C   0  0  0  0  0  3  0  0  0  0  0  0
  188.4280  175.7640  136.3660 C   0  0  1  0  0  3  0  0  0  0  0  0
  189.0280  175.6210  137.7630 C   0  0  0  0  0  2  0  0  0  0  0  0
  189.2250  178.1390  136.3770 C   0  0  0  0  0  3  0  0  0  0  0  0
  189.0280  176.9110  138.4450 N   0  0  0  0  0  0  0  0  0  0  0  0
  189.1640  176.8600  135.5900 C   0  0  0  0  0  2  0  0  0  0  0  0
  188.4450  174.4300  135.6210 C   0  0  0  0  0  2  0  0  0  0  0  0
  189.6670  174.2790  134.7240 C   0  0  0  0  0  2  0  0  0  0  0  0
  190.4170  172.9940  135.0500 C   0  0  0  0  0  2  0  0  0  0  0  0
  191.4740  173.2180  136.1220 C   0  0  0  0  0  2  0  0  0  0  0  0
  192.2630  174.4820  135.8410 C   0  0  0  0  0  2  0  0  0  0  0  0
  193.6520  174.1300  135.5650 N   0  0  0  0  0  2  0  0  0  0  0  0
  197.0000  174.3440  137.9530 C   0  0  2  0  0  0  0  0  0  0  0  0
  198.9560  174.1860  135.7090 O   0  0  0  0  0  1  0  0  0  0  0  0
  196.0380  174.7820  136.0110 C   0  0  2  0  0  0  0  0  0  0  0  0
  194.1500  176.0630  136.7990 F   0  0  0  0  0  0  0  0  0  0  0  0
  195.7820  172.3400  135.3600 O   0  0  0  0  0  1  0  0  0  0  0  0
  196.6190  173.3720  135.8030 C   0  0  2  0  0  0  0  0  0  0  0  0
  194.5630  174.7640  136.5270 C   0  0  1  0  0  0  0  0  0  0  0  0
  195.6990  174.2210  138.7710 C   0  0  0  0  0  2  0  0  0  0  0  0
  197.2850  173.0740  137.1450 C   0  0  1  0  0  0  0  0  0  0  0  0
  198.1630  174.6630  138.8740 C   0  0  0  0  0  1  0  0  0  0  0  0
  198.1130  173.0800  135.8650 C   0  0  2  0  0  0  0  0  0  0  0  0
  194.4910  173.9670  137.8460 C   0  0  0  0  0  2  0  0  0  0  0  0
  196.1510  175.5230  134.8330 O   0  0  0  0  0  1  0  0  0  0  0  0
  196.9060  171.8330  137.6750 O   0  0  0  0  0  1  0  0  0  0  0  0
  196.8200  175.3810  137.0190 O   0  0  0  0  0  0  0  0  0  0  0  0
  198.6080  171.7350  135.3510 C   0  0  0  0  0  2  0  0  0  0  0  0
  199.8270  171.4180  135.9530 O   0  0  0  0  0  1  0  0  0  0  0  0
  188.8720  176.9340  139.8910 C   0  0  0  0  0  2  0  0  0  0  0  0
  188.4900  178.3310  140.3540 C   0  0  0  0  0  2  0  0  0  0  0  0
  187.9870  177.2820  145.1980 C   0  0  0  0  0  2  0  0  0  0  0  0
  185.8250  178.1350  139.1250 C   0  0  0  0  0  2  0  0  0  0  0  0
  185.8160  177.7220  146.3730 C   0  0  0  0  0  2  0  0  0  0  0  0
  186.2270  178.7060  144.0350 C   0  0  1  0  0  3  0  0  0  0  0  0
  185.2130  178.1160  145.0180 C   0  0  0  0  0  2  0  0  0  0  0  0
  187.3310  177.8750  146.4420 C   0  0  0  0  0  2  0  0  0  0  0  0
  187.4440  177.8800  143.9740 N   0  0  0  0  0  0  0  0  0  0  0  0
  186.2300  178.6570  141.5930 C   0  0  0  0  0  0  0  0  0  0  0  0
  184.2320  179.5210  140.3010 C   0  0  0  0  0  2  0  0  0  0  0  0
  185.6010  178.8240  142.7200 N   0  0  0  0  0  0  0  0  0  0  0  0
  183.7660  179.4090  138.8630 C   0  0  1  0  0  3  0  0  0  0  0  0
  188.2250  177.8570  142.7630 C   0  0  0  0  0  0  0  0  0  0  0  0
  184.6370  178.3440  138.2070 C   0  0  0  0  0  2  0  0  0  0  0  0
  187.6640  178.2550  141.6050 C   0  0  0  0  0  0  0  0  0  0  0  0
  185.5000  178.8190  140.3630 N   0  0  0  0  0  0  0  0  0  0  0  0
  189.6620  177.4070  142.8080 C   0  0  0  0  0  2  0  0  0  0  0  0
  191.7820  178.2480  142.1010 O   0  0  0  0  0  1  0  0  0  0  0  0
  190.6170  178.5940  142.7860 C   0  0  2  0  0  3  0  0  0  0  0  0
  190.9650  179.0540  144.1960 C   0  0  0  0  0  2  0  0  0  0  0  0
  192.3350  179.0370  144.3930 F   0  0  0  0  0  0  0  0  0  0  0  0
  182.3000  179.0060  138.8280 C   0  0  0  0  0  2  0  0  0  0  0  0
  181.4480  180.1470  138.3840 C   0  0  0  0  0  0  0  0  0  0  0  0
  180.2560  179.9440  138.0260 O   0  0  0  0  0  0  0  0  0  0  0  0
  181.9570  181.4380  138.3950 O   0  0  0  0  0  1  0  0  0  0  0  0
  1  5  1  0  0  0  0
  2  7  1  6  0  0  0
  2  3  1  0  0  0  0
  3  5  1  0  0  0  0
  4  1  2  0  0  0  0
  5 30  1  0  0  0  0
  6  2  1  0  0  0  0
  6  4  1  0  0  0  0
  8  9  1  0  0  0  0
  8  7  1  0  0  0  0
  9 10  1  0  0  0  0
 11 10  1  0  0  0  0
 12 11  1  0  0  0  0
 12 19  1  0  0  0  0
 13 20  1  0  0  0  0
 13 22  1  1  0  0  0
 15 25  1  6  0  0  0
 15 19  1  0  0  0  0
 15 27  1  0  0  0  0
 18 17  1  6  0  0  0
 18 23  1  0  0  0  0
 18 15  1  0  0  0  0
 18 21  1  0  0  0  0
 19 16  1  1  0  0  0
 19 24  1  0  0  0  0
 21 26  1  1  0  0  0
 21 13  1  0  0  0  0
 23 14  1  6  0  0  0
 23 21  1  0  0  0  0
 24 20  1  0  0  0  0
 27 13  1  0  0  0  0
 28 23  1  0  0  0  0
 28 29  1  0  0  0  0
 30 31  1  0  0  0  0
 31 45  1  0  0  0  0
 32 37  1  0  0  0  0
 33 46  1  0  0  0  0
 34 37  1  0  0  0  0
 35 36  1  1  0  0  0
 36 34  1  0  0  0  0
 38 35  1  0  0  0  0
 38 32  1  0  0  0  0
 39 45  1  0  0  0  0
 39 41  2  0  0  0  0
 40 46  1  0  0  0  0
 41 35  1  0  0  0  0
 42 52  1  1  0  0  0
 42 40  1  0  0  0  0
 43 47  1  0  0  0  0
 43 38  1  0  0  0  0
 44 42  1  0  0  0  0
 44 33  1  0  0  0  0
 45 43  2  0  0  0  0
 46 39  1  0  0  0  0
 49 48  1  1  0  0  0
 49 47  1  0  0  0  0
 49 50  1  0  0  0  0
 50 51  1  0  0  0  0
 53 55  1  0  0  0  0
 53 52  1  0  0  0  0
 54 53  2  0  0  0  0
M  END
>  <MODEL>
8

>  <REMARK>
 VINA RESULT:      -7.2      2.168      3.019
  Name = 
  16 active torsions:
  status: ('A' for Active; 'I' for Inactive)
    1  A    between atoms: C_2  and  C_28
    2  A    between atoms: C_2  and  N_44
    3  A    between atoms: C_4  and  C_40
    4  A    between atoms: C_8  and  N_22
    5  A    between atoms: C_8  and  C_43
    6  A    between atoms: C_10  and  C_32
    7  A    between atoms: C_11  and  C_38
    8  A    between atoms: C_19  and  C_40
    9  A    between atoms: C_19  and  C_45
   10  A    between atoms: C_20  and  N_22
   11  A    between atoms: C_27  and  C_54
   12  A    between atoms: C_28  and  C_49
   13  A    between atoms: C_32  and  C_39
   14  A    between atoms: C_35  and  C_43
   15  A    between atoms: C_35  and  C_51
   16  A    between atoms: C_51  and  C_54
                            x       y       z     vdW  Elec       q    Type
                         _______ _______ _______ _____ _____    ______ ____

>  <TORSDO>
F 16

$$$$
=
 OpenBabel10272401373D

 55 61  0  0  1  0  0  0  0  0999 V2000
  192.2540  177.4750  140.9720 C   0  0  0  0  0  3  0  0  0  0  0  0
  190.7830  176.4730  138.7680 C   0  0  1  0  0  3  0  0  0  0  0  0
  190.2300  176.2030  140.1660 C   0  0  0  0  0  2  0  0  0  0  0  0
  192.9280  177.1680  139.8610 C   0  0  0  0  0  3  0  0  0  0  0  0
  190.8860  177.0670  141.1430 N   0  0  0  0  0  0  0  0  0  0  0  0
  192.3080  176.3360  138.7730 C   0  0  0  0  0  2  0  0  0  0  0  0
  190.1320  175.5580  137.7340 C   0  0  0  0  0  2  0  0  0  0  0  0
  188.7630  176.0610  137.2890 C   0  0  0  0  0  2  0  0  0  0  0  0
  188.8620  176.7680  135.9450 C   0  0  0  0  0  2  0  0  0  0  0  0
  187.4890  177.1430  135.4050 C   0  0  0  0  0  2  0  0  0  0  0  0
  186.3940  176.4890  136.2250 C   0  0  0  0  0  2  0  0  0  0  0  0
  185.1570  177.2460  136.0680 N   0  0  0  0  0  2  0  0  0  0  0  0
  181.8580  175.8640  138.1070 C   0  0  2  0  0  0  0  0  0  0  0  0
  180.3720  178.4470  138.0240 O   0  0  0  0  0  1  0  0  0  0  0  0
  182.6980  177.2280  136.5840 C   0  0  2  0  0  0  0  0  0  0  0  0
  183.7580  175.5990  135.1520 F   0  0  0  0  0  0  0  0  0  0  0  0
  184.0510  178.5810  138.2540 O   0  0  0  0  0  1  0  0  0  0  0  0
  182.8120  178.0430  137.8840 C   0  0  2  0  0  0  0  0  0  0  0  0
  183.9800  176.3920  136.2720 C   0  0  1  0  0  0  0  0  0  0  0  0
  183.0040  174.8340  138.0720 C   0  0  0  0  0  2  0  0  0  0  0  0
  182.2290  177.0990  138.9340 C   0  0  1  0  0  0  0  0  0  0  0  0
  180.5970  175.2170  138.6500 C   0  0  0  0  0  1  0  0  0  0  0  0
  181.5970  178.4660  138.7000 C   0  0  2  0  0  0  0  0  0  0  0  0
  184.2770  175.4500  137.4570 C   0  0  0  0  0  2  0  0  0  0  0  0
  182.3750  178.0720  135.5190 O   0  0  0  0  0  1  0  0  0  0  0  0
  183.0630  176.9440  140.0480 O   0  0  0  0  0  1  0  0  0  0  0  0
  181.6470  176.3110  136.7890 O   0  0  0  0  0  0  0  0  0  0  0  0
  181.7870  179.5140  139.7880 C   0  0  0  0  0  2  0  0  0  0  0  0
  180.8280  179.3390  140.7870 O   0  0  0  0  0  1  0  0  0  0  0  0
  190.1280  177.5060  142.3040 C   0  0  0  0  0  2  0  0  0  0  0  0
  189.1180  176.4430  142.7040 C   0  0  0  0  0  2  0  0  0  0  0  0
  184.7190  178.6040  143.6000 C   0  0  0  0  0  2  0  0  0  0  0  0
  190.9120  177.1310  144.9300 C   0  0  0  0  0  2  0  0  0  0  0  0
  183.9920  179.0710  145.9540 C   0  0  0  0  0  2  0  0  0  0  0  0
  186.0040  177.5330  145.5190 C   0  0  1  0  0  3  0  0  0  0  0  0
  185.3680  178.5870  146.4290 C   0  0  0  0  0  2  0  0  0  0  0  0
  183.5720  178.5060  144.6010 C   0  0  0  0  0  2  0  0  0  0  0  0
  185.9260  177.9410  144.1060 N   0  0  0  0  0  0  0  0  0  0  0  0
  188.3650  177.0550  145.1130 C   0  0  0  0  0  0  0  0  0  0  0  0
  189.9120  176.5480  147.0510 C   0  0  0  0  0  2  0  0  0  0  0  0
  187.3900  177.3220  145.9330 N   0  0  0  0  0  0  0  0  0  0  0  0
  191.4160  176.4790  147.2220 C   0  0  1  0  0  3  0  0  0  0  0  0
  186.9260  177.4780  143.1780 C   0  0  0  0  0  0  0  0  0  0  0  0
  192.0230  177.0820  145.9600 C   0  0  0  0  0  2  0  0  0  0  0  0
  188.1040  177.0200  143.6470 C   0  0  0  0  0  0  0  0  0  0  0  0
  189.6840  176.8510  145.6510 N   0  0  0  0  0  0  0  0  0  0  0  0
  186.6390  177.4930  141.7000 C   0  0  0  0  0  2  0  0  0  0  0  0
  185.9740  179.5860  140.7640 O   0  0  0  0  0  1  0  0  0  0  0  0
  187.0880  178.8000  141.0600 C   0  0  2  0  0  3  0  0  0  0  0  0
  187.8940  178.5510  139.7920 C   0  0  0  0  0  2  0  0  0  0  0  0
  187.0920  178.6720  138.6700 F   0  0  0  0  0  0  0  0  0  0  0  0
  191.8310  177.2700  148.4530 C   0  0  0  0  0  2  0  0  0  0  0  0
  192.9950  176.6270  149.1280 C   0  0  0  0  0  0  0  0  0  0  0  0
  193.1120  175.3720  149.1280 O   0  0  0  0  0  0  0  0  0  0  0  0
  193.9680  177.4130  149.7300 O   0  0  0  0  0  1  0  0  0  0  0  0
  1  5  1  0  0  0  0
  2  7  1  6  0  0  0
  2  6  1  0  0  0  0
  2  3  1  0  0  0  0
  3  5  1  0  0  0  0
  4  1  2  0  0  0  0
  5 30  1  0  0  0  0
  6  4  1  0  0  0  0
  8  7  1  0  0  0  0
  9  8  1  0  0  0  0
 10  9  1  0  0  0  0
 10 11  1  0  0  0  0
 12 11  1  0  0  0  0
 12 19  1  0  0  0  0
 13 22  1  1  0  0  0
 13 21  1  0  0  0  0
 15 25  1  6  0  0  0
 15 27  1  0  0  0  0
 15 18  1  0  0  0  0
 18 17  1  1  0  0  0
 18 23  1  0  0  0  0
 18 21  1  0  0  0  0
 19 16  1  6  0  0  0
 19 15  1  0  0  0  0
 19 24  1  0  0  0  0
 20 13  1  0  0  0  0
 21 26  1  1  0  0  0
 23 14  1  6  0  0  0
 23 21  1  0  0  0  0
 23 28  1  0  0  0  0
 24 20  1  0  0  0  0
 27 13  1  0  0  0  0
 28 29  1  0  0  0  0
 30 31  1  0  0  0  0
 31 45  1  0  0  0  0
 32 38  1  0  0  0  0
 32 37  1  0  0  0  0
 33 46  1  0  0  0  0
 33 44  1  0  0  0  0
 34 36  1  0  0  0  0
 35 41  1  0  0  0  0
 35 36  1  1  0  0  0
 37 34  1  0  0  0  0
 38 35  1  0  0  0  0
 39 46  1  0  0  0  0
 39 41  2  0  0  0  0
 40 42  1  0  0  0  0
 42 52  1  1  0  0  0
 43 45  2  0  0  0  0
 43 38  1  0  0  0  0
 44 42  1  0  0  0  0
 45 39  1  0  0  0  0
 46 40  1  0  0  0  0
 47 43  1  0  0  0  0
 49 48  1  6  0  0  0
 49 47  1  0  0  0  0
 50 49  1  0  0  0  0
 51 50  1  0  0  0  0
 52 53  1  0  0  0  0
 53 54  2  0  0  0  0
 53 55  1  0  0  0  0
M  END
>  <MODEL>
9

>  <REMARK>
 VINA RESULT:      -7.0      5.238      9.531
  Name = 
  16 active torsions:
  status: ('A' for Active; 'I' for Inactive)
    1  A    between atoms: C_2  and  C_28
    2  A    between atoms: C_2  and  N_44
    3  A    between atoms: C_4  and  C_40
    4  A    between atoms: C_8  and  N_22
    5  A    between atoms: C_8  and  C_43
    6  A    between atoms: C_10  and  C_32
    7  A    between atoms: C_11  and  C_38
    8  A    between atoms: C_19  and  C_40
    9  A    between atoms: C_19  and  C_45
   10  A    between atoms: C_20  and  N_22
   11  A    between atoms: C_27  and  C_54
   12  A    between atoms: C_28  and  C_49
   13  A    between atoms: C_32  and  C_39
   14  A    between atoms: C_35  and  C_43
   15  A    between atoms: C_35  and  C_51
   16  A    between atoms: C_51  and  C_54
                            x       y       z     vdW  Elec       q    Type
                         _______ _______ _______ _____ _____    ______ ____

>  <TORSDO>
F 16

$$$$
