=
 OpenBabel10272401583D

 28 31  0  0  1  0  0  0  0  0999 V2000
  189.2710  178.0150  142.9020 C   0  0  1  0  0  3  0  0  0  0  0  0
  187.3120  175.9230  137.4350 C   0  0  0  0  0  2  0  0  0  0  0  0
  192.2290  176.7030  139.2390 O   0  0  0  0  0  0  0  0  0  0  0  0
  187.7530  178.4340  137.3800 C   0  0  2  0  0  3  0  0  0  0  0  0
  188.6090  176.9970  139.2750 C   0  0  2  0  0  3  0  0  0  0  0  0
  186.4740  177.2850  135.5630 C   0  0  0  0  0  0  0  0  0  0  0  0
  187.4730  177.2010  138.2690 C   0  0  2  0  0  3  0  0  0  0  0  0
  190.0780  178.4220  137.9540 O   0  0  0  0  0  0  0  0  0  0  0  0
  186.7440  178.5930  136.2380 C   0  0  0  0  0  2  0  0  0  0  0  0
  190.8260  177.3740  141.0410 C   0  0  0  0  0  0  0  0  0  0  0  0
  188.4770  177.9600  140.4530 C   0  0  0  0  0  2  0  0  0  0  0  0
  189.1920  178.3940  136.8630 C   0  0  0  0  0  2  0  0  0  0  0  0
  191.5560  177.1340  143.4430 C   0  0  0  0  0  2  0  0  0  0  0  0
  191.0790  177.0530  139.6150 C   0  0  0  0  0  0  0  0  0  0  0  0
  191.9910  177.3350  141.9990 C   0  0  0  0  0  2  0  0  0  0  0  0
  186.4150  177.2190  134.3460 O   0  0  0  0  0  0  0  0  0  0  0  0
  186.2050  176.0760  136.3990 C   0  0  0  0  0  2  0  0  0  0  0  0
  189.9860  177.1710  138.5960 C   0  0  1  0  0  3  0  0  0  0  0  0
  190.5020  178.1710  143.8000 C   0  0  0  0  0  2  0  0  0  0  0  0
  189.5900  177.7560  141.4480 C   0  0  0  0  0  0  0  0  0  0  0  0
  188.2250  177.0480  143.4740 C   0  0  0  0  0  2  0  0  0  0  0  0
  187.0250  177.7290  143.9590 N   0  0  0  0  0  0  0  0  0  0  0  0
  187.7190  177.6890  146.1920 O   0  0  0  0  0  0  0  0  0  0  0  0
  186.8590  178.0570  145.3470 C   0  0  0  0  0  0  0  0  0  0  0  0
  185.7320  178.7710  145.7610 O   0  0  0  0  0  0  0  0  0  0  0  0
  184.8970  178.3110  146.8120 C   0  0  0  0  0  1  0  0  0  0  0  0
  185.8900  177.8200  143.0520 C   0  0  0  0  0  2  0  0  0  0  0  0
  185.8410  179.0870  142.4710 O   0  0  0  0  0  1  0  0  0  0  0  0
  1 21  1  1  0  0  0
  1 19  1  0  0  0  0
  3 14  2  0  0  0  0
  4  9  1  6  0  0  0
  4  7  1  0  0  0  0
  5 11  1  1  0  0  0
  6  9  1  0  0  0  0
  6 17  1  0  0  0  0
  7  2  1  6  0  0  0
  7  5  1  0  0  0  0
 10 20  2  0  0  0  0
 10 15  1  0  0  0  0
 11 20  1  0  0  0  0
 12  4  1  0  0  0  0
 12  8  1  0  0  0  0
 13 19  1  0  0  0  0
 14 10  1  0  0  0  0
 15 13  1  0  0  0  0
 16  6  2  0  0  0  0
 17  2  1  0  0  0  0
 18  8  1  1  0  0  0
 18  5  1  0  0  0  0
 18 14  1  0  0  0  0
 20  1  1  0  0  0  0
 21 22  1  0  0  0  0
 22 24  1  0  0  0  0
 24 25  1  0  0  0  0
 24 23  2  0  0  0  0
 25 26  1  0  0  0  0
 27 22  1  0  0  0  0
 28 27  1  0  0  0  0
M  END
>  <MODEL>
1

>  <REMARK>
 VINA RESULT:      -7.0      0.000      0.000
  Name = 
  4 active torsions:
  status: ('A' for Active; 'I' for Inactive)
    1  A    between atoms: C_1  and  C_2
    2  A    between atoms: C_2  and  N_3
    3  A    between atoms: N_3  and  C_7
    4  A    between atoms: O_6  and  C_11
                            x       y       z     vdW  Elec       q    Type
                         _______ _______ _______ _____ _____    ______ ____

>  <TORSDO>
F 4

$$$$
=
 OpenBabel10272401583D

 28 31  0  0  1  0  0  0  0  0999 V2000
  185.3240  178.2310  142.7650 C   0  0  1  0  0  3  0  0  0  0  0  0
  181.9190  179.1940  137.7080 C   0  0  0  0  0  2  0  0  0  0  0  0
  180.5720  179.3690  142.8260 O   0  0  0  0  0  0  0  0  0  0  0  0
  181.7290  176.7870  138.5270 C   0  0  2  0  0  3  0  0  0  0  0  0
  182.7120  178.5940  139.9960 C   0  0  2  0  0  3  0  0  0  0  0  0
  180.9410  177.4660  136.2520 C   0  0  0  0  0  0  0  0  0  0  0  0
  182.5610  178.0890  138.5580 C   0  0  2  0  0  3  0  0  0  0  0  0
  180.8490  177.2000  140.7160 O   0  0  0  0  0  0  0  0  0  0  0  0
  181.3920  176.3220  137.1060 C   0  0  0  0  0  2  0  0  0  0  0  0
  182.8810  178.7910  142.8430 C   0  0  0  0  0  0  0  0  0  0  0  0
  183.7890  177.8100  140.7410 C   0  0  0  0  0  2  0  0  0  0  0  0
  180.4730  176.9430  139.3860 C   0  0  0  0  0  2  0  0  0  0  0  0
  184.4020  179.4850  144.7310 C   0  0  0  0  0  2  0  0  0  0  0  0
  181.5590  178.9260  142.1820 C   0  0  0  0  0  0  0  0  0  0  0  0
  182.9830  179.1310  144.3090 C   0  0  0  0  0  2  0  0  0  0  0  0
  179.9820  177.3400  135.5090 O   0  0  0  0  0  0  0  0  0  0  0  0
  181.7230  178.7380  136.2670 C   0  0  0  0  0  2  0  0  0  0  0  0
  181.3680  178.5090  140.7550 C   0  0  1  0  0  3  0  0  0  0  0  0
  185.3490  178.3800  144.2900 C   0  0  0  0  0  2  0  0  0  0  0  0
  183.9450  178.3100  142.1540 C   0  0  0  0  0  0  0  0  0  0  0  0
  186.3540  179.1210  142.0550 C   0  0  0  0  0  2  0  0  0  0  0  0
  187.4300  178.3570  141.4260 N   0  0  0  0  0  0  0  0  0  0  0  0
  186.6630  178.7710  139.2550 O   0  0  0  0  0  0  0  0  0  0  0  0
  187.5440  178.2590  139.9980 C   0  0  0  0  0  0  0  0  0  0  0  0
  188.6260  177.5790  139.4340 O   0  0  0  0  0  0  0  0  0  0  0  0
  189.3790  178.1240  138.3620 C   0  0  0  0  0  1  0  0  0  0  0  0
  188.2170  177.4770  142.2780 C   0  0  0  0  0  2  0  0  0  0  0  0
  189.4740  178.0350  142.5120 O   0  0  0  0  0  1  0  0  0  0  0  0
  1 21  1  6  0  0  0
  1 19  1  0  0  0  0
  4  9  1  6  0  0  0
  4  7  1  0  0  0  0
  4 12  1  0  0  0  0
  5 11  1  1  0  0  0
  5 18  1  0  0  0  0
  6 17  1  0  0  0  0
  6  9  1  0  0  0  0
  7  2  1  6  0  0  0
  7  5  1  0  0  0  0
 10 15  1  0  0  0  0
 11 20  1  0  0  0  0
 12  8  1  0  0  0  0
 14  3  2  0  0  0  0
 14 10  1  0  0  0  0
 15 13  1  0  0  0  0
 16  6  2  0  0  0  0
 17  2  1  0  0  0  0
 18  8  1  1  0  0  0
 18 14  1  0  0  0  0
 19 13  1  0  0  0  0
 20  1  1  0  0  0  0
 20 10  2  0  0  0  0
 22 21  1  0  0  0  0
 22 27  1  0  0  0  0
 23 24  2  0  0  0  0
 24 22  1  0  0  0  0
 25 24  1  0  0  0  0
 26 25  1  0  0  0  0
 27 28  1  0  0  0  0
M  END
>  <MODEL>
2

>  <REMARK>
 VINA RESULT:      -6.9      4.016      6.986
  Name = 
  4 active torsions:
  status: ('A' for Active; 'I' for Inactive)
    1  A    between atoms: C_1  and  C_2
    2  A    between atoms: C_2  and  N_3
    3  A    between atoms: N_3  and  C_7
    4  A    between atoms: O_6  and  C_11
                            x       y       z     vdW  Elec       q    Type
                         _______ _______ _______ _____ _____    ______ ____

>  <TORSDO>
F 4

$$$$
=
 OpenBabel10272401583D

 28 31  0  0  1  0  0  0  0  0999 V2000
  189.2130  177.9180  142.9670 C   0  0  1  0  0  3  0  0  0  0  0  0
  187.3990  175.8900  137.4270 C   0  0  0  0  0  2  0  0  0  0  0  0
  192.2620  176.7770  139.3220 O   0  0  0  0  0  0  0  0  0  0  0  0
  187.7630  178.4130  137.4330 C   0  0  2  0  0  3  0  0  0  0  0  0
  188.6360  176.9610  139.3090 C   0  0  2  0  0  3  0  0  0  0  0  0
  186.5470  177.2670  135.5710 C   0  0  0  0  0  0  0  0  0  0  0  0
  187.5080  177.1530  138.2910 C   0  0  2  0  0  3  0  0  0  0  0  0
  190.0790  178.4590  138.0420 O   0  0  0  0  0  0  0  0  0  0  0  0
  186.7670  178.5670  136.2790 C   0  0  0  0  0  2  0  0  0  0  0  0
  190.8140  177.3660  141.1170 C   0  0  0  0  0  0  0  0  0  0  0  0
  188.4570  177.8930  140.5050 C   0  0  0  0  0  2  0  0  0  0  0  0
  189.2110  178.4290  136.9370 C   0  0  0  0  0  2  0  0  0  0  0  0
  191.5150  177.0950  143.5230 C   0  0  0  0  0  2  0  0  0  0  0  0
  191.0970  177.0840  139.6880 C   0  0  0  0  0  0  0  0  0  0  0  0
  191.9650  177.3410  142.0910 C   0  0  0  0  0  2  0  0  0  0  0  0
  186.5080  177.2260  134.3530 O   0  0  0  0  0  0  0  0  0  0  0  0
  186.3030  176.0330  136.3770 C   0  0  0  0  0  2  0  0  0  0  0  0
  190.0160  177.1920  138.6540 C   0  0  1  0  0  3  0  0  0  0  0  0
  190.4260  178.0910  143.8870 C   0  0  0  0  0  2  0  0  0  0  0  0
  189.5610  177.7010  141.5120 C   0  0  0  0  0  0  0  0  0  0  0  0
  188.1880  176.9080  143.5020 C   0  0  0  0  0  2  0  0  0  0  0  0
  187.1680  177.5250  144.3470 N   0  0  0  0  0  0  0  0  0  0  0  0
  185.6860  177.8700  142.5710 O   0  0  0  0  0  0  0  0  0  0  0  0
  185.9060  177.9510  143.8100 C   0  0  0  0  0  0  0  0  0  0  0  0
  184.9290  178.4720  144.6610 O   0  0  0  0  0  0  0  0  0  0  0  0
  184.0840  179.5420  144.2690 C   0  0  0  0  0  1  0  0  0  0  0  0
  187.5650  177.9470  145.6830 C   0  0  0  0  0  2  0  0  0  0  0  0
  188.3210  176.9480  146.2960 O   0  0  0  0  0  1  0  0  0  0  0  0
  1 21  1  1  0  0  0
  1 19  1  0  0  0  0
  3 14  2  0  0  0  0
  4  9  1  6  0  0  0
  4  7  1  0  0  0  0
  5 11  1  1  0  0  0
  6  9  1  0  0  0  0
  6 17  1  0  0  0  0
  7  2  1  6  0  0  0
  7  5  1  0  0  0  0
 10 20  2  0  0  0  0
 10 15  1  0  0  0  0
 11 20  1  0  0  0  0
 12  4  1  0  0  0  0
 12  8  1  0  0  0  0
 13 19  1  0  0  0  0
 14 10  1  0  0  0  0
 15 13  1  0  0  0  0
 16  6  2  0  0  0  0
 17  2  1  0  0  0  0
 18  8  1  1  0  0  0
 18  5  1  0  0  0  0
 18 14  1  0  0  0  0
 20  1  1  0  0  0  0
 21 22  1  0  0  0  0
 22 27  1  0  0  0  0
 23 24  2  0  0  0  0
 24 22  1  0  0  0  0
 24 25  1  0  0  0  0
 26 25  1  0  0  0  0
 27 28  1  0  0  0  0
M  END
>  <MODEL>
3

>  <REMARK>
 VINA RESULT:      -6.9      0.720      1.543
  Name = 
  4 active torsions:
  status: ('A' for Active; 'I' for Inactive)
    1  A    between atoms: C_1  and  C_2
    2  A    between atoms: C_2  and  N_3
    3  A    between atoms: N_3  and  C_7
    4  A    between atoms: O_6  and  C_11
                            x       y       z     vdW  Elec       q    Type
                         _______ _______ _______ _____ _____    ______ ____

>  <TORSDO>
F 4

$$$$
=
 OpenBabel10272401583D

 28 31  0  0  1  0  0  0  0  0999 V2000
  183.8790  179.0190  142.3310 C   0  0  1  0  0  3  0  0  0  0  0  0
  188.9640  175.6700  143.3460 C   0  0  0  0  0  2  0  0  0  0  0  0
  185.5080  177.7660  146.7660 O   0  0  0  0  0  0  0  0  0  0  0  0
  189.4430  178.1710  143.4740 C   0  0  2  0  0  3  0  0  0  0  0  0
  187.0740  177.2880  143.5250 C   0  0  2  0  0  3  0  0  0  0  0  0
  191.2860  176.4890  143.3100 C   0  0  0  0  0  0  0  0  0  0  0  0
  188.4820  177.0750  142.9600 C   0  0  2  0  0  3  0  0  0  0  0  0
  187.9580  178.7490  145.2620 O   0  0  0  0  0  0  0  0  0  0  0  0
  190.9040  177.9190  143.0890 C   0  0  0  0  0  2  0  0  0  0  0  0
  184.6910  178.4180  144.6270 C   0  0  0  0  0  0  0  0  0  0  0  0
  186.3390  178.3860  142.7600 C   0  0  0  0  0  2  0  0  0  0  0  0
  189.2770  178.3510  144.9840 C   0  0  0  0  0  2  0  0  0  0  0  0
  182.2280  178.7460  144.1980 C   0  0  0  0  0  2  0  0  0  0  0  0
  185.7500  177.9230  145.5400 C   0  0  0  0  0  0  0  0  0  0  0  0
  183.3540  178.7890  145.2210 C   0  0  0  0  0  2  0  0  0  0  0  0
  192.3570  176.2080  143.8220 O   0  0  0  0  0  0  0  0  0  0  0  0
  190.3730  175.4090  142.8270 C   0  0  0  0  0  2  0  0  0  0  0  0
  187.1300  177.6330  145.0300 C   0  0  1  0  0  3  0  0  0  0  0  0
  182.6140  179.5810  142.9880 C   0  0  0  0  0  2  0  0  0  0  0  0
  184.9510  178.5930  143.3080 C   0  0  0  0  0  0  0  0  0  0  0  0
  183.5840  177.9630  141.2570 C   0  0  0  0  0  2  0  0  0  0  0  0
  183.1870  178.5480  139.9780 N   0  0  0  0  0  0  0  0  0  0  0  0
  180.9480  177.9110  140.2050 O   0  0  0  0  0  0  0  0  0  0  0  0
  181.8230  178.5180  139.5300 C   0  0  0  0  0  0  0  0  0  0  0  0
  181.4700  179.1500  138.3360 O   0  0  0  0  0  0  0  0  0  0  0  0
  181.0150  180.4940  138.3020 C   0  0  0  0  0  1  0  0  0  0  0  0
  184.2460  178.9150  139.0480 C   0  0  0  0  0  2  0  0  0  0  0  0
  184.4820  180.2880  139.1090 O   0  0  0  0  0  1  0  0  0  0  0  0
  1 21  1  1  0  0  0
  1 19  1  0  0  0  0
  1 20  1  0  0  0  0
  4  9  1  1  0  0  0
  4 12  1  0  0  0  0
  5 11  1  6  0  0  0
  5 18  1  0  0  0  0
  6 16  2  0  0  0  0
  7  2  1  1  0  0  0
  7  4  1  0  0  0  0
  7  5  1  0  0  0  0
  9  6  1  0  0  0  0
 10 15  1  0  0  0  0
 10 14  1  0  0  0  0
 11 20  1  0  0  0  0
 12  8  1  0  0  0  0
 13 15  1  0  0  0  0
 14  3  2  0  0  0  0
 17  6  1  0  0  0  0
 17  2  1  0  0  0  0
 18  8  1  6  0  0  0
 18 14  1  0  0  0  0
 19 13  1  0  0  0  0
 20 10  2  0  0  0  0
 22 21  1  0  0  0  0
 24 22  1  0  0  0  0
 24 23  2  0  0  0  0
 25 24  1  0  0  0  0
 26 25  1  0  0  0  0
 27 28  1  0  0  0  0
 27 22  1  0  0  0  0
M  END
>  <MODEL>
4

>  <REMARK>
 VINA RESULT:      -6.7      3.510      7.454
  Name = 
  4 active torsions:
  status: ('A' for Active; 'I' for Inactive)
    1  A    between atoms: C_1  and  C_2
    2  A    between atoms: C_2  and  N_3
    3  A    between atoms: N_3  and  C_7
    4  A    between atoms: O_6  and  C_11
                            x       y       z     vdW  Elec       q    Type
                         _______ _______ _______ _____ _____    ______ ____

>  <TORSDO>
F 4

$$$$
=
 OpenBabel10272401583D

 28 31  0  0  1  0  0  0  0  0999 V2000
  187.9270  178.0380  144.8930 C   0  0  1  0  0  3  0  0  0  0  0  0
  188.6300  176.0600  139.0880 C   0  0  0  0  0  2  0  0  0  0  0  0
  191.9780  175.9010  143.1870 O   0  0  0  0  0  0  0  0  0  0  0  0
  189.5610  178.4130  139.4010 C   0  0  2  0  0  3  0  0  0  0  0  0
  189.0040  176.9520  141.3880 C   0  0  2  0  0  3  0  0  0  0  0  0
  189.1750  177.4450  137.1270 C   0  0  0  0  0  0  0  0  0  0  0  0
  188.6120  177.3260  139.9550 C   0  0  2  0  0  3  0  0  0  0  0  0
  191.2050  177.9490  141.0790 O   0  0  0  0  0  0  0  0  0  0  0  0
  189.3350  178.7080  137.9140 C   0  0  0  0  0  2  0  0  0  0  0  0
  190.0340  176.9670  144.0540 C   0  0  0  0  0  0  0  0  0  0  0  0
  188.5000  177.9950  142.3820 C   0  0  0  0  0  2  0  0  0  0  0  0
  191.0160  178.0380  139.6890 C   0  0  0  0  0  2  0  0  0  0  0  0
  189.3690  176.7330  146.4750 C   0  0  0  0  0  2  0  0  0  0  0  0
  190.9030  176.5090  142.9420 C   0  0  0  0  0  0  0  0  0  0  0  0
  190.5100  176.7440  145.4690 C   0  0  0  0  0  2  0  0  0  0  0  0
  189.7310  177.3150  136.0490 O   0  0  0  0  0  0  0  0  0  0  0  0
  188.2670  176.3760  137.6420 C   0  0  0  0  0  2  0  0  0  0  0  0
  190.5350  176.7880  141.5160 C   0  0  1  0  0  3  0  0  0  0  0  0
  188.5300  177.9890  146.3010 C   0  0  0  0  0  2  0  0  0  0  0  0
  188.8780  177.6250  143.7930 C   0  0  0  0  0  0  0  0  0  0  0  0
  186.5570  177.3520  144.7980 C   0  0  0  0  0  2  0  0  0  0  0  0
  185.4430  178.2970  144.8450 N   0  0  0  0  0  0  0  0  0  0  0  0
  184.9270  178.0390  142.5790 O   0  0  0  0  0  0  0  0  0  0  0  0
  184.6360  178.5630  143.6880 C   0  0  0  0  0  0  0  0  0  0  0  0
  183.5360  179.4190  143.7900 O   0  0  0  0  0  0  0  0  0  0  0  0
  182.2040  178.9470  143.6670 C   0  0  0  0  0  1  0  0  0  0  0  0
  185.3440  179.1640  146.0110 C   0  0  0  0  0  2  0  0  0  0  0  0
  184.8340  178.4500  147.0960 O   0  0  0  0  0  1  0  0  0  0  0  0
  1 21  1  1  0  0  0
  1 19  1  0  0  0  0
  4  9  1  6  0  0  0
  4 12  1  0  0  0  0
  4  7  1  0  0  0  0
  5 18  1  0  0  0  0
  5 11  1  1  0  0  0
  6 17  1  0  0  0  0
  6  9  1  0  0  0  0
  7  2  1  6  0  0  0
  7  5  1  0  0  0  0
 10 15  1  0  0  0  0
 11 20  1  0  0  0  0
 12  8  1  0  0  0  0
 14  3  2  0  0  0  0
 14 10  1  0  0  0  0
 15 13  1  0  0  0  0
 16  6  2  0  0  0  0
 17  2  1  0  0  0  0
 18  8  1  1  0  0  0
 18 14  1  0  0  0  0
 19 13  1  0  0  0  0
 20 10  2  0  0  0  0
 20  1  1  0  0  0  0
 21 22  1  0  0  0  0
 22 27  1  0  0  0  0
 23 24  2  0  0  0  0
 24 25  1  0  0  0  0
 24 22  1  0  0  0  0
 26 25  1  0  0  0  0
 27 28  1  0  0  0  0
M  END
>  <MODEL>
5

>  <REMARK>
 VINA RESULT:      -6.6      1.856      3.167
  Name = 
  4 active torsions:
  status: ('A' for Active; 'I' for Inactive)
    1  A    between atoms: C_1  and  C_2
    2  A    between atoms: C_2  and  N_3
    3  A    between atoms: N_3  and  C_7
    4  A    between atoms: O_6  and  C_11
                            x       y       z     vdW  Elec       q    Type
                         _______ _______ _______ _____ _____    ______ ____

>  <TORSDO>
F 4

$$$$
=
 OpenBabel10272401583D

 28 31  0  0  1  0  0  0  0  0999 V2000
  187.8380  177.3800  143.8050 C   0  0  1  0  0  3  0  0  0  0  0  0
  188.9600  179.1070  137.9860 C   0  0  0  0  0  2  0  0  0  0  0  0
  184.5420  179.4920  140.8790 O   0  0  0  0  0  0  0  0  0  0  0  0
  187.9170  176.7830  138.0940 C   0  0  2  0  0  3  0  0  0  0  0  0
  187.8900  178.3230  140.0990 C   0  0  2  0  0  3  0  0  0  0  0  0
  188.9920  177.6440  136.0060 C   0  0  0  0  0  0  0  0  0  0  0  0
  188.6840  177.8810  138.8660 C   0  0  2  0  0  3  0  0  0  0  0  0
  185.8580  177.3430  139.1810 O   0  0  0  0  0  0  0  0  0  0  0  0
  188.5710  176.4200  136.7570 C   0  0  0  0  0  2  0  0  0  0  0  0
  186.1070  178.4410  142.3310 C   0  0  0  0  0  0  0  0  0  0  0  0
  188.0450  177.3190  141.2380 C   0  0  0  0  0  2  0  0  0  0  0  0
  186.4530  177.1900  137.9170 C   0  0  0  0  0  2  0  0  0  0  0  0
  186.0220  178.7730  144.8290 C   0  0  0  0  0  2  0  0  0  0  0  0
  185.6250  178.8600  140.9920 C   0  0  0  0  0  0  0  0  0  0  0  0
  185.2350  178.7320  143.5270 C   0  0  0  0  0  2  0  0  0  0  0  0
  188.7890  177.7340  134.8070 O   0  0  0  0  0  0  0  0  0  0  0  0
  189.7310  178.7230  136.7290 C   0  0  0  0  0  2  0  0  0  0  0  0
  186.3960  178.5130  139.7540 C   0  0  1  0  0  3  0  0  0  0  0  0
  186.8420  177.5000  144.9630 C   0  0  0  0  0  2  0  0  0  0  0  0
  187.2710  177.7560  142.4550 C   0  0  0  0  0  0  0  0  0  0  0  0
  189.1900  178.0430  144.1000 C   0  0  0  0  0  2  0  0  0  0  0  0
  190.2270  177.0810  144.4700 N   0  0  0  0  0  0  0  0  0  0  0  0
  190.1390  177.6280  146.7430 O   0  0  0  0  0  0  0  0  0  0  0  0
  190.6260  176.8980  145.8370 C   0  0  0  0  0  0  0  0  0  0  0  0
  191.5690  175.9200  146.1600 O   0  0  0  0  0  0  0  0  0  0  0  0
  192.0970  175.7880  147.4710 C   0  0  0  0  0  1  0  0  0  0  0  0
  191.0340  176.5150  143.3980 C   0  0  0  0  0  2  0  0  0  0  0  0
  190.4810  175.3080  142.9700 O   0  0  0  0  0  1  0  0  0  0  0  0
  1 21  1  1  0  0  0
  1 19  1  0  0  0  0
  3 14  2  0  0  0  0
  4  9  1  6  0  0  0
  4  7  1  0  0  0  0
  5 11  1  1  0  0  0
  6 17  1  0  0  0  0
  6  9  1  0  0  0  0
  7  2  1  6  0  0  0
  7  5  1  0  0  0  0
 10 20  2  0  0  0  0
 10 15  1  0  0  0  0
 11 20  1  0  0  0  0
 12  4  1  0  0  0  0
 12  8  1  0  0  0  0
 13 19  1  0  0  0  0
 14 10  1  0  0  0  0
 15 13  1  0  0  0  0
 16  6  2  0  0  0  0
 17  2  1  0  0  0  0
 18  8  1  1  0  0  0
 18  5  1  0  0  0  0
 18 14  1  0  0  0  0
 20  1  1  0  0  0  0
 21 22  1  0  0  0  0
 22 24  1  0  0  0  0
 24 25  1  0  0  0  0
 24 23  2  0  0  0  0
 25 26  1  0  0  0  0
 27 22  1  0  0  0  0
 28 27  1  0  0  0  0
M  END
>  <MODEL>
6

>  <REMARK>
 VINA RESULT:      -6.5      2.182      4.433
  Name = 
  4 active torsions:
  status: ('A' for Active; 'I' for Inactive)
    1  A    between atoms: C_1  and  C_2
    2  A    between atoms: C_2  and  N_3
    3  A    between atoms: N_3  and  C_7
    4  A    between atoms: O_6  and  C_11
                            x       y       z     vdW  Elec       q    Type
                         _______ _______ _______ _____ _____    ______ ____

>  <TORSDO>
F 4

$$$$
=
 OpenBabel10272401583D

 28 31  0  0  1  0  0  0  0  0999 V2000
  187.7410  177.3060  144.3180 C   0  0  1  0  0  3  0  0  0  0  0  0
  184.1450  179.8950  140.0210 C   0  0  0  0  0  2  0  0  0  0  0  0
  183.5090  179.5600  145.2660 O   0  0  0  0  0  0  0  0  0  0  0  0
  183.4150  177.5090  140.5470 C   0  0  2  0  0  3  0  0  0  0  0  0
  185.0130  178.7520  142.0610 C   0  0  2  0  0  3  0  0  0  0  0  0
  182.5750  178.7250  138.5290 C   0  0  0  0  0  0  0  0  0  0  0  0
  184.5630  178.5420  140.6130 C   0  0  2  0  0  3  0  0  0  0  0  0
  182.9430  177.7650  142.8810 O   0  0  0  0  0  0  0  0  0  0  0  0
  182.8000  177.3820  139.1490 C   0  0  0  0  0  2  0  0  0  0  0  0
  185.5640  178.4330  144.8490 C   0  0  0  0  0  0  0  0  0  0  0  0
  185.9200  177.6150  142.5230 C   0  0  0  0  0  2  0  0  0  0  0  0
  182.3580  177.8300  141.6050 C   0  0  0  0  0  2  0  0  0  0  0  0
  187.4270  178.4110  146.5470 C   0  0  0  0  0  2  0  0  0  0  0  0
  184.2580  178.9970  144.4250 C   0  0  0  0  0  0  0  0  0  0  0  0
  185.9260  178.4930  146.3120 C   0  0  0  0  0  2  0  0  0  0  0  0
  181.5370  178.9640  137.9350 O   0  0  0  0  0  0  0  0  0  0  0  0
  183.6660  179.7430  138.5820 C   0  0  0  0  0  2  0  0  0  0  0  0
  183.7950  178.8800  143.0040 C   0  0  1  0  0  3  0  0  0  0  0  0
  187.9840  177.1940  145.8270 C   0  0  0  0  0  2  0  0  0  0  0  0
  186.3700  177.8230  143.9460 C   0  0  0  0  0  0  0  0  0  0  0  0
  188.8800  178.0170  143.5740 C   0  0  0  0  0  2  0  0  0  0  0  0
  189.5480  177.1570  142.6000 N   0  0  0  0  0  0  0  0  0  0  0  0
  188.7140  178.3350  140.7590 O   0  0  0  0  0  0  0  0  0  0  0  0
  189.4500  177.4060  141.1890 C   0  0  0  0  0  0  0  0  0  0  0  0
  190.1590  176.6040  140.2920 O   0  0  0  0  0  0  0  0  0  0  0  0
  189.9650  176.6920  138.8890 C   0  0  0  0  0  1  0  0  0  0  0  0
  190.0830  175.8890  143.0760 C   0  0  0  0  0  2  0  0  0  0  0  0
  191.0420  176.1150  144.0630 O   0  0  0  0  0  1  0  0  0  0  0  0
  1 21  1  1  0  0  0
  1 19  1  0  0  0  0
  4  9  1  6  0  0  0
  4  7  1  0  0  0  0
  4 12  1  0  0  0  0
  5 11  1  1  0  0  0
  5 18  1  0  0  0  0
  6 17  1  0  0  0  0
  6  9  1  0  0  0  0
  7  2  1  1  0  0  0
  7  5  1  0  0  0  0
 10 15  1  0  0  0  0
 11 20  1  0  0  0  0
 12  8  1  0  0  0  0
 14 10  1  0  0  0  0
 14  3  2  0  0  0  0
 15 13  1  0  0  0  0
 16  6  2  0  0  0  0
 17  2  1  0  0  0  0
 18  8  1  1  0  0  0
 18 14  1  0  0  0  0
 19 13  1  0  0  0  0
 20  1  1  0  0  0  0
 20 10  2  0  0  0  0
 22 27  1  0  0  0  0
 22 21  1  0  0  0  0
 23 24  2  0  0  0  0
 24 22  1  0  0  0  0
 25 24  1  0  0  0  0
 26 25  1  0  0  0  0
 27 28  1  0  0  0  0
M  END
>  <MODEL>
7

>  <REMARK>
 VINA RESULT:      -6.4      2.913      6.152
  Name = 
  4 active torsions:
  status: ('A' for Active; 'I' for Inactive)
    1  A    between atoms: C_1  and  C_2
    2  A    between atoms: C_2  and  N_3
    3  A    between atoms: N_3  and  C_7
    4  A    between atoms: O_6  and  C_11
                            x       y       z     vdW  Elec       q    Type
                         _______ _______ _______ _____ _____    ______ ____

>  <TORSDO>
F 4

$$$$
=
 OpenBabel10272401583D

 28 31  0  0  1  0  0  0  0  0999 V2000
  188.4330  177.3650  142.4350 C   0  0  1  0  0  3  0  0  0  0  0  0
  192.3670  176.9890  137.6940 C   0  0  0  0  0  2  0  0  0  0  0  0
  187.3100  178.5540  137.8290 O   0  0  0  0  0  0  0  0  0  0  0  0
  190.9280  174.8940  137.8920 C   0  0  2  0  0  3  0  0  0  0  0  0
  190.3290  177.0140  139.1330 C   0  0  2  0  0  3  0  0  0  0  0  0
  192.9750  174.9500  136.4560 C   0  0  0  0  0  0  0  0  0  0  0  0
  191.4790  176.1430  138.6160 C   0  0  2  0  0  3  0  0  0  0  0  0
  188.7670  175.8940  137.6370 O   0  0  0  0  0  0  0  0  0  0  0  0
  192.0190  174.0710  137.1990 C   0  0  0  0  0  2  0  0  0  0  0  0
  187.8060  177.9650  140.0820 C   0  0  0  0  0  0  0  0  0  0  0  0
  189.7470  176.4410  140.4230 C   0  0  0  0  0  2  0  0  0  0  0  0
  189.8170  175.2960  136.9200 C   0  0  0  0  0  2  0  0  0  0  0  0
  186.6850  179.1160  142.0250 C   0  0  0  0  0  2  0  0  0  0  0  0
  188.0710  177.9390  138.6220 C   0  0  0  0  0  0  0  0  0  0  0  0
  186.5730  178.6850  140.5700 C   0  0  0  0  0  2  0  0  0  0  0  0
  193.3520  174.6450  135.3370 O   0  0  0  0  0  0  0  0  0  0  0  0
  193.5190  176.1660  137.1310 C   0  0  0  0  0  2  0  0  0  0  0  0
  189.2220  177.1570  138.0650 C   0  0  1  0  0  3  0  0  0  0  0  0
  187.0740  177.9180  142.8770 C   0  0  0  0  0  2  0  0  0  0  0  0
  188.6200  177.2990  140.9370 C   0  0  0  0  0  0  0  0  0  0  0  0
  189.6160  178.0150  143.1660 C   0  0  0  0  0  2  0  0  0  0  0  0
  190.2050  177.1450  144.1820 N   0  0  0  0  0  0  0  0  0  0  0  0
  189.0140  178.1290  145.9380 O   0  0  0  0  0  0  0  0  0  0  0  0
  189.8190  177.2350  145.5620 C   0  0  0  0  0  0  0  0  0  0  0  0
  190.3520  176.3380  146.4910 O   0  0  0  0  0  0  0  0  0  0  0  0
  191.2920  176.7450  147.4730 C   0  0  0  0  0  1  0  0  0  0  0  0
  191.3850  176.3770  143.8090 C   0  0  0  0  0  2  0  0  0  0  0  0
  192.0900  177.0420  142.8050 O   0  0  0  0  0  1  0  0  0  0  0  0
  1 19  1  0  0  0  0
  1 21  1  1  0  0  0
  3 14  2  0  0  0  0
  4 12  1  6  0  0  0
  4  7  1  0  0  0  0
  5 11  1  1  0  0  0
  6 17  1  0  0  0  0
  6  9  1  0  0  0  0
  7  2  1  6  0  0  0
  7  5  1  0  0  0  0
  9  4  1  0  0  0  0
 10 15  1  0  0  0  0
 10 20  2  0  0  0  0
 11 20  1  0  0  0  0
 12  8  1  0  0  0  0
 13 19  1  0  0  0  0
 14 10  1  0  0  0  0
 15 13  1  0  0  0  0
 16  6  2  0  0  0  0
 17  2  1  0  0  0  0
 18  8  1  1  0  0  0
 18 14  1  0  0  0  0
 18  5  1  0  0  0  0
 20  1  1  0  0  0  0
 21 22  1  0  0  0  0
 22 24  1  0  0  0  0
 24 23  2  0  0  0  0
 24 25  1  0  0  0  0
 25 26  1  0  0  0  0
 27 22  1  0  0  0  0
 28 27  1  0  0  0  0
M  END
>  <MODEL>
8

>  <REMARK>
 VINA RESULT:      -6.2      2.502      4.637
  Name = 
  4 active torsions:
  status: ('A' for Active; 'I' for Inactive)
    1  A    between atoms: C_1  and  C_2
    2  A    between atoms: C_2  and  N_3
    3  A    between atoms: N_3  and  C_7
    4  A    between atoms: O_6  and  C_11
                            x       y       z     vdW  Elec       q    Type
                         _______ _______ _______ _____ _____    ______ ____

>  <TORSDO>
F 4

$$$$
=
 OpenBabel10272401583D

 28 31  0  0  1  0  0  0  0  0999 V2000
  190.0760  177.4780  137.4080 C   0  0  1  0  0  3  0  0  0  0  0  0
  190.3830  175.7870  143.3360 C   0  0  0  0  0  2  0  0  0  0  0  0
  186.5860  178.3780  140.7080 O   0  0  0  0  0  0  0  0  0  0  0  0
  191.1910  178.1810  142.9970 C   0  0  2  0  0  3  0  0  0  0  0  0
  189.8970  176.9700  141.1940 C   0  0  2  0  0  3  0  0  0  0  0  0
  191.6260  176.9380  145.1230 C   0  0  0  0  0  0  0  0  0  0  0  0
  190.9150  176.8150  142.3280 C   0  0  2  0  0  3  0  0  0  0  0  0
  189.1930  179.1280  142.0760 O   0  0  0  0  0  0  0  0  0  0  0  0
  192.0650  178.0720  144.2510 C   0  0  0  0  0  2  0  0  0  0  0  0
  188.2690  177.9820  139.0730 C   0  0  0  0  0  0  0  0  0  0  0  0
  190.5610  177.5260  139.9360 C   0  0  0  0  0  2  0  0  0  0  0  0
  189.8730  178.9030  143.2850 C   0  0  0  0  0  2  0  0  0  0  0  0
  187.6960  177.6570  136.6390 C   0  0  0  0  0  2  0  0  0  0  0  0
  187.7870  178.0850  140.4720 C   0  0  0  0  0  0  0  0  0  0  0  0
  187.3020  178.3020  137.9600 C   0  0  0  0  0  2  0  0  0  0  0  0
  191.5540  177.0810  146.3320 O   0  0  0  0  0  0  0  0  0  0  0  0
  191.3470  175.6080  144.5020 C   0  0  0  0  0  2  0  0  0  0  0  0
  188.7240  177.8780  141.6240 C   0  0  1  0  0  3  0  0  0  0  0  0
  189.1400  178.0090  136.3170 C   0  0  0  0  0  2  0  0  0  0  0  0
  189.5640  177.6720  138.8160 C   0  0  0  0  0  0  0  0  0  0  0  0
  190.5740  176.0520  137.1340 C   0  0  0  0  0  2  0  0  0  0  0  0
  191.9700  176.0090  136.7040 N   0  0  0  0  0  0  0  0  0  0  0  0
  191.4280  175.9260  134.4310 O   0  0  0  0  0  0  0  0  0  0  0  0
  192.3260  175.9880  135.3130 C   0  0  0  0  0  0  0  0  0  0  0  0
  193.6720  176.0190  134.9410 O   0  0  0  0  0  0  0  0  0  0  0  0
  194.3170  174.8950  134.3610 C   0  0  0  0  0  1  0  0  0  0  0  0
  192.9770  175.7120  137.7140 C   0  0  0  0  0  2  0  0  0  0  0  0
  193.5110  176.8970  138.2190 O   0  0  0  0  0  1  0  0  0  0  0  0
  1 21  1  6  0  0  0
  1 20  1  0  0  0  0
  2 17  1  0  0  0  0
  4 12  1  1  0  0  0
  4  9  1  0  0  0  0
  5 11  1  6  0  0  0
  5 18  1  0  0  0  0
  5  7  1  0  0  0  0
  6 16  2  0  0  0  0
  7  4  1  0  0  0  0
  7  2  1  1  0  0  0
  8 12  1  0  0  0  0
  9  6  1  0  0  0  0
 10 14  1  0  0  0  0
 13 15  1  0  0  0  0
 14  3  2  0  0  0  0
 15 10  1  0  0  0  0
 17  6  1  0  0  0  0
 18 14  1  6  0  0  0
 18  8  1  0  0  0  0
 19 13  1  0  0  0  0
 19  1  1  0  0  0  0
 20 10  2  0  0  0  0
 20 11  1  0  0  0  0
 22 21  1  0  0  0  0
 22 27  1  0  0  0  0
 23 24  2  0  0  0  0
 24 22  1  0  0  0  0
 25 24  1  0  0  0  0
 26 25  1  0  0  0  0
 27 28  1  0  0  0  0
M  END
>  <MODEL>
9

>  <REMARK>
 VINA RESULT:      -6.1      3.049      8.351
  Name = 
  4 active torsions:
  status: ('A' for Active; 'I' for Inactive)
    1  A    between atoms: C_1  and  C_2
    2  A    between atoms: C_2  and  N_3
    3  A    between atoms: N_3  and  C_7
    4  A    between atoms: O_6  and  C_11
                            x       y       z     vdW  Elec       q    Type
                         _______ _______ _______ _____ _____    ______ ____

>  <TORSDO>
F 4

$$$$
