=
 OpenBabel10272401403D

 55 61  0  0  1  0  0  0  0  0999 V2000
  186.4830  177.0870  137.6700 C   0  0  0  0  0  3  0  0  0  0  0  0
  189.2440  176.8860  137.2610 C   0  0  0  0  0  0  0  0  0  0  0  0
  188.3810  175.9330  136.7090 C   0  0  0  0  0  3  0  0  0  0  0  0
  187.3440  178.0420  138.2210 C   0  0  0  0  0  3  0  0  0  0  0  0
  187.0010  176.0320  136.9050 C   0  0  0  0  0  0  0  0  0  0  0  0
  188.7230  177.9400  138.0180 C   0  0  0  0  0  3  0  0  0  0  0  0
  186.1120  174.9830  136.3220 C   0  0  1  0  0  3  0  0  0  0  0  0
  186.1200  173.1470  134.6540 C   0  0  0  0  0  2  0  0  0  0  0  0
  186.1650  170.7360  135.2440 C   0  0  0  0  0  1  0  0  0  0  0  0
  184.5690  172.1950  136.5090 C   0  0  1  0  0  3  0  0  0  0  0  0
  186.9290  173.8340  135.7460 C   0  0  0  0  0  2  0  0  0  0  0  0
  183.5070  171.1340  136.7480 C   0  0  0  0  0  1  0  0  0  0  0  0
  185.2870  171.9690  135.1670 C   0  0  1  0  0  3  0  0  0  0  0  0
  183.9950  173.6020  136.7430 C   0  0  1  0  0  3  0  0  0  0  0  0
  185.0720  174.5150  137.3410 C   0  0  0  0  0  2  0  0  0  0  0  0
  182.1340  173.2360  135.0960 C   0  0  0  0  0  2  0  0  0  0  0  0
  180.3420  173.0340  136.8110 C   0  0  0  0  0  1  0  0  0  0  0  0
  182.4130  175.3860  135.9640 C   0  0  0  0  0  0  0  0  0  0  0  0
  181.1430  175.1800  136.0080 N   0  0  0  0  0  0  0  0  0  0  0  0
  180.8220  173.8240  135.6070 C   0  0  1  0  0  3  0  0  0  0  0  0
  183.2220  174.2070  135.5470 C   0  0  1  0  0  3  0  0  0  0  0  0
  182.9860  176.6680  136.2210 N   0  0  0  0  0  2  0  0  0  0  0  0
  182.2710  177.7150  136.9290 C   0  0  0  0  0  2  0  0  0  0  0  0
  182.8150  177.0430  139.2690 C   0  0  0  0  0  3  0  0  0  0  0  0
  184.0760  178.4990  140.7420 C   0  0  0  0  0  0  0  0  0  0  0  0
  183.6270  179.1680  138.4500 C   0  0  0  0  0  3  0  0  0  0  0  0
  184.1970  179.4290  139.7000 C   0  0  0  0  0  3  0  0  0  0  0  0
  183.3810  177.3050  140.5180 C   0  0  0  0  0  3  0  0  0  0  0  0
  182.9400  177.9710  138.2340 C   0  0  0  0  0  0  0  0  0  0  0  0
  184.6680  178.7700  142.0600 C   0  0  0  0  0  0  0  0  0  0  0  0
  184.4380  178.0060  143.0330 O   0  0  0  0  0  1  0  0  0  0  0  0
  185.4890  179.8770  142.2470 O   0  0  0  0  0  0  0  0  0  0  0  0
  190.7190  176.7670  137.0640 C   0  0  0  0  0  2  0  0  0  0  0  0
  191.3940  176.2220  138.3130 C   0  0  0  0  0  2  0  0  0  0  0  0
  192.8660  176.6000  138.3260 C   0  0  0  0  0  2  0  0  0  0  0  0
  193.2840  177.0880  139.7020 C   0  0  0  0  0  2  0  0  0  0  0  0
  192.1360  177.8020  140.3900 C   0  0  0  0  0  2  0  0  0  0  0  0
  189.9810  176.0840  141.1060 O   0  0  0  0  0  0  0  0  0  0  0  0
  190.8160  176.3790  142.0020 C   0  0  0  0  0  0  0  0  0  0  0  0
  191.9330  177.2170  141.7030 N   0  0  0  0  0  2  0  0  0  0  0  0
  191.8600  175.4130  143.8710 O   0  0  0  0  0  1  0  0  0  0  0  0
  190.6280  175.8560  143.3900 C   0  0  1  0  0  3  0  0  0  0  0  0
  188.5110  177.2190  144.0790 C   0  0  0  0  0  0  0  0  0  0  0  0
  189.1080  177.5310  146.5220 C   0  0  2  0  0  3  0  0  0  0  0  0
  186.6930  176.9510  145.9710 C   0  0  0  0  0  2  0  0  0  0  0  0
  189.5240  178.8490  146.7290 O   0  0  0  0  0  1  0  0  0  0  0  0
  187.7700  176.0230  143.4690 C   0  0  0  0  0  1  0  0  0  0  0  0
  188.3590  178.4210  143.1580 C   0  0  0  0  0  1  0  0  0  0  0  0
  190.1940  176.7050  145.8100 C   0  0  1  0  0  3  0  0  0  0  0  0
  190.0210  176.9470  144.3020 C   0  0  1  0  0  3  0  0  0  0  0  0
  186.8060  178.4460  145.7030 C   0  0  0  0  0  2  0  0  0  0  0  0
  188.0080  177.5410  145.4930 C   0  0  0  0  0  0  0  0  0  0  0  0
  191.6600  176.7900  146.2950 C   0  0  2  0  0  3  0  0  0  0  0  0
  192.0370  175.6410  147.1460 C   0  0  0  0  0  2  0  0  0  0  0  0
  191.7630  176.9130  147.6910 O   0  0  0  0  0  0  0  0  0  0  0  0
  1  4  1  0  0  0  0
  2  6  1  0  0  0  0
  3  5  1  0  0  0  0
  3  2  2  0  0  0  0
  5  1  2  0  0  0  0
  6  4  2  0  0  0  0
  7  5  1  1  0  0  0
  7 15  1  0  0  0  0
  8 13  1  0  0  0  0
  8 11  1  0  0  0  0
 10 14  1  0  0  0  0
 10 12  1  6  0  0  0
 11  7  1  0  0  0  0
 13  9  1  1  0  0  0
 13 10  1  0  0  0  0
 14 15  1  6  0  0  0
 16 20  1  0  0  0  0
 18 19  2  0  0  0  0
 18 22  1  0  0  0  0
 20 19  1  0  0  0  0
 20 17  1  1  0  0  0
 21 16  1  1  0  0  0
 21 18  1  0  0  0  0
 21 14  1  0  0  0  0
 22 23  1  0  0  0  0
 23 29  1  0  0  0  0
 24 28  1  0  0  0  0
 25 30  1  0  0  0  0
 26 27  2  0  0  0  0
 27 25  1  0  0  0  0
 28 25  2  0  0  0  0
 29 26  1  0  0  0  0
 29 24  2  0  0  0  0
 30 32  2  0  0  0  0
 30 31  1  0  0  0  0
 33  2  1  0  0  0  0
 33 34  1  0  0  0  0
 34 35  1  0  0  0  0
 35 36  1  0  0  0  0
 36 37  1  0  0  0  0
 37 40  1  0  0  0  0
 38 39  2  0  0  0  0
 39 42  1  0  0  0  0
 40 39  1  0  0  0  0
 42 41  1  1  0  0  0
 43 50  1  0  0  0  0
 43 52  1  0  0  0  0
 44 46  1  6  0  0  0
 47 43  1  0  0  0  0
 48 43  1  0  0  0  0
 49 53  1  1  0  0  0
 49 44  1  0  0  0  0
 50 42  1  6  0  0  0
 50 49  1  0  0  0  0
 51 45  1  0  0  0  0
 52 51  1  0  0  0  0
 52 45  1  0  0  0  0
 52 44  1  0  0  0  0
 53 54  1  1  0  0  0
 53 55  1  0  0  0  0
 54 55  1  0  0  0  0
M  END
>  <MODEL>
1

>  <REMARK>
 VINA RESULT:      -8.0      0.000      0.000
  Name = 
  14 active torsions:
  status: ('A' for Active; 'I' for Inactive)
    1  A    between atoms: C_2  and  C_44
    2  A    between atoms: C_8  and  N_22
    3  A    between atoms: C_8  and  C_35
    4  A    between atoms: C_10  and  C_32
    5  A    between atoms: C_11  and  C_38
    6  A    between atoms: C_20  and  C_50
    7  A    between atoms: C_26  and  C_45
    8  A    between atoms: C_27  and  C_54
    9  A    between atoms: C_33  and  N_36
   10  A    between atoms: C_33  and  C_52
   11  A    between atoms: C_35  and  C_43
   12  A    between atoms: C_42  and  C_50
   13  A    between atoms: C_43  and  C_51
   14  A    between atoms: C_51  and  C_54
                            x       y       z     vdW  Elec       q    Type
                         _______ _______ _______ _____ _____    ______ ____

>  <TORSDO>
F 14

$$$$
=
 OpenBabel10272401403D

 55 61  0  0  1  0  0  0  0  0999 V2000
  187.4470  178.6330  140.5590 C   0  0  0  0  0  3  0  0  0  0  0  0
  188.0530  177.3260  138.1610 C   0  0  0  0  0  0  0  0  0  0  0  0
  186.7340  177.6930  138.4460 C   0  0  0  0  0  3  0  0  0  0  0  0
  188.7670  178.2700  140.2750 C   0  0  0  0  0  3  0  0  0  0  0  0
  186.4260  178.3510  139.6400 C   0  0  0  0  0  0  0  0  0  0  0  0
  189.0690  177.6150  139.0770 C   0  0  0  0  0  3  0  0  0  0  0  0
  185.0030  178.7050  139.9230 C   0  0  1  0  0  3  0  0  0  0  0  0
  183.1330  180.0700  139.0330 C   0  0  0  0  0  2  0  0  0  0  0  0
  181.1590  179.1250  137.8630 C   0  0  0  0  0  1  0  0  0  0  0  0
  181.8920  177.9890  139.9720 C   0  0  1  0  0  3  0  0  0  0  0  0
  184.2900  179.1550  138.6550 C   0  0  0  0  0  2  0  0  0  0  0  0
  180.5150  177.5180  140.4110 C   0  0  0  0  0  1  0  0  0  0  0  0
  181.8070  179.3270  139.2180 C   0  0  1  0  0  3  0  0  0  0  0  0
  182.8860  177.9320  141.1430 C   0  0  1  0  0  3  0  0  0  0  0  0
  184.2810  177.5570  140.6300 C   0  0  0  0  0  2  0  0  0  0  0  0
  181.4040  179.5040  142.4250 C   0  0  0  0  0  2  0  0  0  0  0  0
  180.3400  177.7360  143.8170 C   0  0  0  0  0  1  0  0  0  0  0  0
  183.3840  178.8000  143.4440 C   0  0  0  0  0  0  0  0  0  0  0  0
  182.4920  178.7100  144.3690 N   0  0  0  0  0  0  0  0  0  0  0  0
  181.1720  179.0040  143.8480 C   0  0  1  0  0  3  0  0  0  0  0  0
  182.8520  179.1500  142.0980 C   0  0  1  0  0  3  0  0  0  0  0  0
  184.7780  178.6500  143.7120 N   0  0  0  0  0  2  0  0  0  0  0  0
  185.2760  178.0020  144.9120 C   0  0  0  0  0  2  0  0  0  0  0  0
  187.6870  178.0460  145.5530 C   0  0  0  0  0  3  0  0  0  0  0  0
  189.3690  176.9190  144.2190 C   0  0  0  0  0  0  0  0  0  0  0  0
  187.0260  176.7930  143.5930 C   0  0  0  0  0  3  0  0  0  0  0  0
  188.3630  176.4580  143.3590 C   0  0  0  0  0  3  0  0  0  0  0  0
  189.0230  177.7140  145.3160 C   0  0  0  0  0  3  0  0  0  0  0  0
  186.6880  177.5830  144.6940 C   0  0  0  0  0  0  0  0  0  0  0  0
  190.7780  176.5750  143.9750 C   0  0  0  0  0  0  0  0  0  0  0  0
  191.2350  176.5470  142.8030 O   0  0  0  0  0  0  0  0  0  0  0  0
  191.6230  176.2770  145.0390 O   0  0  0  0  0  1  0  0  0  0  0  0
  188.3750  176.6090  136.8920 C   0  0  0  0  0  2  0  0  0  0  0  0
  188.9060  175.2120  137.1770 C   0  0  0  0  0  2  0  0  0  0  0  0
  189.9790  174.8380  136.1660 C   0  0  0  0  0  2  0  0  0  0  0  0
  191.1380  174.1320  136.8470 C   0  0  0  0  0  2  0  0  0  0  0  0
  192.0980  175.1390  137.4540 C   0  0  0  0  0  2  0  0  0  0  0  0
  194.8160  175.8410  136.9790 O   0  0  0  0  0  0  0  0  0  0  0  0
  194.5900  174.8260  137.6910 C   0  0  0  0  0  0  0  0  0  0  0  0
  193.2490  174.4330  137.9870 N   0  0  0  0  0  2  0  0  0  0  0  0
  195.2380  173.0690  139.1090 O   0  0  0  0  0  1  0  0  0  0  0  0
  195.7340  174.0220  138.2200 C   0  0  1  0  0  3  0  0  0  0  0  0
  197.9760  173.8600  136.8920 C   0  0  0  0  0  0  0  0  0  0  0  0
  197.8010  171.4120  136.2600 C   0  0  2  0  0  3  0  0  0  0  0  0
  200.0730  172.2650  137.0210 C   0  0  0  0  0  2  0  0  0  0  0  0
  197.4640  171.3100  134.9080 O   0  0  0  0  0  1  0  0  0  0  0  0
  198.5710  174.4240  138.1880 C   0  0  0  0  0  1  0  0  0  0  0  0
  198.0090  174.9380  135.8180 C   0  0  0  0  0  1  0  0  0  0  0  0
  196.5880  171.8300  137.1100 C   0  0  1  0  0  3  0  0  0  0  0  0
  196.5170  173.3650  137.0590 C   0  0  1  0  0  3  0  0  0  0  0  0
  199.9610  172.6990  135.5660 C   0  0  0  0  0  2  0  0  0  0  0  0
  198.7150  172.5970  136.4280 C   0  0  0  0  0  0  0  0  0  0  0  0
  195.2250  171.1320  136.8940 C   0  0  2  0  0  3  0  0  0  0  0  0
  194.9970  170.0350  137.8610 C   0  0  0  0  0  2  0  0  0  0  0  0
  195.3600  169.7840  136.5210 O   0  0  0  0  0  0  0  0  0  0  0  0
  2  3  2  0  0  0  0
  2  6  1  0  0  0  0
  3  5  1  0  0  0  0
  4  1  1  0  0  0  0
  5  1  2  0  0  0  0
  6  4  2  0  0  0  0
  7  5  1  6  0  0  0
  7 15  1  0  0  0  0
  8 13  1  0  0  0  0
 10 12  1  1  0  0  0
 10 14  1  0  0  0  0
 11  8  1  0  0  0  0
 11  7  1  0  0  0  0
 13  9  1  6  0  0  0
 13 10  1  0  0  0  0
 14 15  1  6  0  0  0
 14 21  1  0  0  0  0
 16 20  1  0  0  0  0
 18 22  1  0  0  0  0
 18 19  2  0  0  0  0
 20 17  1  6  0  0  0
 20 19  1  0  0  0  0
 21 16  1  1  0  0  0
 21 18  1  0  0  0  0
 22 23  1  0  0  0  0
 25 28  2  0  0  0  0
 26 29  1  0  0  0  0
 27 26  2  0  0  0  0
 27 25  1  0  0  0  0
 28 24  1  0  0  0  0
 29 23  1  0  0  0  0
 29 24  2  0  0  0  0
 30 25  1  0  0  0  0
 30 32  1  0  0  0  0
 31 30  2  0  0  0  0
 33 34  1  0  0  0  0
 33  2  1  0  0  0  0
 35 36  1  0  0  0  0
 35 34  1  0  0  0  0
 36 37  1  0  0  0  0
 37 40  1  0  0  0  0
 38 39  2  0  0  0  0
 39 40  1  0  0  0  0
 39 42  1  0  0  0  0
 42 41  1  1  0  0  0
 43 50  1  0  0  0  0
 43 47  1  0  0  0  0
 44 46  1  6  0  0  0
 44 52  1  0  0  0  0
 44 49  1  0  0  0  0
 48 43  1  0  0  0  0
 49 53  1  6  0  0  0
 50 49  1  0  0  0  0
 50 42  1  1  0  0  0
 51 52  1  0  0  0  0
 51 45  1  0  0  0  0
 52 43  1  0  0  0  0
 52 45  1  0  0  0  0
 53 54  1  1  0  0  0
 55 53  1  0  0  0  0
 55 54  1  0  0  0  0
M  END
>  <MODEL>
2

>  <REMARK>
 VINA RESULT:      -7.6      4.459      8.870
  Name = 
  14 active torsions:
  status: ('A' for Active; 'I' for Inactive)
    1  A    between atoms: C_2  and  C_44
    2  A    between atoms: C_8  and  N_22
    3  A    between atoms: C_8  and  C_35
    4  A    between atoms: C_10  and  C_32
    5  A    between atoms: C_11  and  C_38
    6  A    between atoms: C_20  and  C_50
    7  A    between atoms: C_26  and  C_45
    8  A    between atoms: C_27  and  C_54
    9  A    between atoms: C_33  and  N_36
   10  A    between atoms: C_33  and  C_52
   11  A    between atoms: C_35  and  C_43
   12  A    between atoms: C_42  and  C_50
   13  A    between atoms: C_43  and  C_51
   14  A    between atoms: C_51  and  C_54
                            x       y       z     vdW  Elec       q    Type
                         _______ _______ _______ _____ _____    ______ ____

>  <TORSDO>
F 14

$$$$
=
 OpenBabel10272401403D

 55 61  0  0  1  0  0  0  0  0999 V2000
  185.4500  178.4210  137.8420 C   0  0  0  0  0  3  0  0  0  0  0  0
  185.6280  178.7830  140.6110 C   0  0  0  0  0  0  0  0  0  0  0  0
  186.6840  178.1890  139.9110 C   0  0  0  0  0  3  0  0  0  0  0  0
  184.3940  179.0170  138.5390 C   0  0  0  0  0  3  0  0  0  0  0  0
  186.6030  178.0110  138.5280 C   0  0  0  0  0  0  0  0  0  0  0  0
  184.4830  179.1970  139.9230 C   0  0  0  0  0  3  0  0  0  0  0  0
  187.7380  177.3500  137.8180 C   0  0  1  0  0  3  0  0  0  0  0  0
  190.0530  177.7840  137.0430 C   0  0  0  0  0  2  0  0  0  0  0  0
  192.0790  176.8500  138.1310 C   0  0  0  0  0  1  0  0  0  0  0  0
  190.1680  175.2810  137.7320 C   0  0  1  0  0  3  0  0  0  0  0  0
  189.0640  178.0060  138.1790 C   0  0  0  0  0  2  0  0  0  0  0  0
  191.0030  174.0270  137.5350 C   0  0  0  0  0  1  0  0  0  0  0  0
  190.9110  176.5290  137.2220 C   0  0  1  0  0  3  0  0  0  0  0  0
  188.7420  175.0760  137.1960 C   0  0  1  0  0  3  0  0  0  0  0  0
  187.7390  175.8410  138.0670 C   0  0  0  0  0  2  0  0  0  0  0  0
  189.5890  174.4320  134.9200 C   0  0  0  0  0  2  0  0  0  0  0  0
  189.0790  172.0080  135.1590 C   0  0  0  0  0  1  0  0  0  0  0  0
  187.2860  174.7140  135.1860 C   0  0  0  0  0  0  0  0  0  0  0  0
  187.4040  173.6330  134.4960 N   0  0  0  0  0  0  0  0  0  0  0  0
  188.7970  173.2600  134.3490 C   0  0  1  0  0  3  0  0  0  0  0  0
  188.5710  175.2860  135.6730 C   0  0  1  0  0  3  0  0  0  0  0  0
  186.0250  175.3480  135.3980 N   0  0  0  0  0  2  0  0  0  0  0  0
  184.7610  174.6530  135.2200 C   0  0  0  0  0  2  0  0  0  0  0  0
  182.5870  175.7440  135.7740 C   0  0  0  0  0  3  0  0  0  0  0  0
  181.9740  176.2500  138.0650 C   0  0  0  0  0  0  0  0  0  0  0  0
  184.0730  175.1280  137.5790 C   0  0  0  0  0  3  0  0  0  0  0  0
  183.1710  175.6670  138.5020 C   0  0  0  0  0  3  0  0  0  0  0  0
  181.6880  176.2850  136.6950 C   0  0  0  0  0  3  0  0  0  0  0  0
  183.7770  175.1620  136.2150 C   0  0  0  0  0  0  0  0  0  0  0  0
  181.0250  176.8250  139.0290 C   0  0  0  0  0  0  0  0  0  0  0  0
  180.2520  177.7560  138.6870 O   0  0  0  0  0  0  0  0  0  0  0  0
  180.9710  176.3430  140.3330 O   0  0  0  0  0  1  0  0  0  0  0  0
  185.7110  178.9560  142.0910 C   0  0  0  0  0  2  0  0  0  0  0  0
  184.3610  179.3530  142.6700 C   0  0  0  0  0  2  0  0  0  0  0  0
  184.4880  179.6430  144.1580 C   0  0  0  0  0  2  0  0  0  0  0  0
  184.6620  178.3550  144.9440 C   0  0  0  0  0  2  0  0  0  0  0  0
  185.2970  178.6320  146.2940 C   0  0  0  0  0  2  0  0  0  0  0  0
  187.1960  176.5910  146.8700 O   0  0  0  0  0  0  0  0  0  0  0  0
  187.6340  177.6970  146.4570 C   0  0  0  0  0  0  0  0  0  0  0  0
  186.7330  178.7550  146.1270 N   0  0  0  0  0  2  0  0  0  0  0  0
  189.6970  177.7750  147.5780 O   0  0  0  0  0  1  0  0  0  0  0  0
  189.1080  177.9060  146.3200 C   0  0  1  0  0  3  0  0  0  0  0  0
  189.6030  177.3370  143.8210 C   0  0  0  0  0  0  0  0  0  0  0  0
  191.7310  176.0150  144.2050 C   0  0  2  0  0  3  0  0  0  0  0  0
  191.7010  177.6430  142.2510 C   0  0  0  0  0  2  0  0  0  0  0  0
  191.4630  174.6540  144.0390 O   0  0  0  0  0  1  0  0  0  0  0  0
  189.4960  178.8560  143.6460 C   0  0  0  0  0  1  0  0  0  0  0  0
  188.3810  176.6760  143.1990 C   0  0  0  0  0  1  0  0  0  0  0  0
  191.1790  176.5360  145.5440 C   0  0  1  0  0  3  0  0  0  0  0  0
  189.7050  176.9030  145.3050 C   0  0  1  0  0  3  0  0  0  0  0  0
  190.9690  176.4090  141.7420 C   0  0  0  0  0  2  0  0  0  0  0  0
  190.8990  176.7830  143.2130 C   0  0  0  0  0  0  0  0  0  0  0  0
  191.4220  175.7260  146.8390 C   0  0  2  0  0  3  0  0  0  0  0  0
  192.4680  176.3300  147.6920 C   0  0  0  0  0  2  0  0  0  0  0  0
  192.7170  175.1860  146.9050 O   0  0  0  0  0  0  0  0  0  0  0  0
  1  5  2  0  0  0  0
  1  4  1  0  0  0  0
  2 33  1  0  0  0  0
  3  2  2  0  0  0  0
  4  6  2  0  0  0  0
  5  3  1  0  0  0  0
  6  2  1  0  0  0  0
  7 15  1  0  0  0  0
  7 11  1  0  0  0  0
  7  5  1  1  0  0  0
  8 13  1  0  0  0  0
  8 11  1  0  0  0  0
 10 12  1  6  0  0  0
 13 10  1  0  0  0  0
 13  9  1  1  0  0  0
 14 10  1  0  0  0  0
 14 15  1  1  0  0  0
 18 22  1  0  0  0  0
 18 21  1  0  0  0  0
 19 18  2  0  0  0  0
 20 19  1  0  0  0  0
 20 16  1  0  0  0  0
 20 17  1  1  0  0  0
 21 16  1  6  0  0  0
 21 14  1  0  0  0  0
 23 22  1  0  0  0  0
 23 29  1  0  0  0  0
 24 29  2  0  0  0  0
 24 28  1  0  0  0  0
 25 27  1  0  0  0  0
 25 30  1  0  0  0  0
 26 27  2  0  0  0  0
 28 25  2  0  0  0  0
 29 26  1  0  0  0  0
 30 32  1  0  0  0  0
 31 30  2  0  0  0  0
 33 34  1  0  0  0  0
 34 35  1  0  0  0  0
 35 36  1  0  0  0  0
 36 37  1  0  0  0  0
 39 38  2  0  0  0  0
 40 37  1  0  0  0  0
 40 39  1  0  0  0  0
 42 39  1  0  0  0  0
 42 41  1  1  0  0  0
 43 50  1  0  0  0  0
 44 46  1  1  0  0  0
 44 49  1  0  0  0  0
 45 52  1  0  0  0  0
 47 43  1  0  0  0  0
 48 43  1  0  0  0  0
 49 53  1  1  0  0  0
 50 49  1  0  0  0  0
 50 42  1  1  0  0  0
 51 45  1  0  0  0  0
 51 52  1  0  0  0  0
 52 43  1  0  0  0  0
 52 44  1  0  0  0  0
 53 55  1  0  0  0  0
 53 54  1  1  0  0  0
 55 54  1  0  0  0  0
M  END
>  <MODEL>
3

>  <REMARK>
 VINA RESULT:      -7.3      2.291      5.604
  Name = 
  14 active torsions:
  status: ('A' for Active; 'I' for Inactive)
    1  A    between atoms: C_2  and  C_44
    2  A    between atoms: C_8  and  N_22
    3  A    between atoms: C_8  and  C_35
    4  A    between atoms: C_10  and  C_32
    5  A    between atoms: C_11  and  C_38
    6  A    between atoms: C_20  and  C_50
    7  A    between atoms: C_26  and  C_45
    8  A    between atoms: C_27  and  C_54
    9  A    between atoms: C_33  and  N_36
   10  A    between atoms: C_33  and  C_52
   11  A    between atoms: C_35  and  C_43
   12  A    between atoms: C_42  and  C_50
   13  A    between atoms: C_43  and  C_51
   14  A    between atoms: C_51  and  C_54
                            x       y       z     vdW  Elec       q    Type
                         _______ _______ _______ _____ _____    ______ ____

>  <TORSDO>
F 14

$$$$
=
 OpenBabel10272401403D

 55 61  0  0  1  0  0  0  0  0999 V2000
  187.6620  178.0060  141.0670 C   0  0  0  0  0  3  0  0  0  0  0  0
  188.7270  178.3030  138.4970 C   0  0  0  0  0  0  0  0  0  0  0  0
  187.3760  178.5790  138.7330 C   0  0  0  0  0  3  0  0  0  0  0  0
  189.0140  177.7320  140.8330 C   0  0  0  0  0  3  0  0  0  0  0  0
  186.8400  178.4380  140.0160 C   0  0  0  0  0  0  0  0  0  0  0  0
  189.5450  177.8790  139.5480 C   0  0  0  0  0  3  0  0  0  0  0  0
  185.3880  178.7160  140.2260 C   0  0  1  0  0  3  0  0  0  0  0  0
  183.4670  179.8760  139.1720 C   0  0  0  0  0  2  0  0  0  0  0  0
  181.6000  178.7100  138.0250 C   0  0  0  0  0  1  0  0  0  0  0  0
  182.3310  177.7980  140.2410 C   0  0  1  0  0  3  0  0  0  0  0  0
  184.6930  179.0140  138.9050 C   0  0  0  0  0  2  0  0  0  0  0  0
  180.9730  177.2730  140.6760 C   0  0  0  0  0  1  0  0  0  0  0  0
  182.1860  179.0630  139.3770 C   0  0  1  0  0  3  0  0  0  0  0  0
  183.2840  177.9030  141.4420 C   0  0  1  0  0  3  0  0  0  0  0  0
  184.7170  177.5820  141.0040 C   0  0  0  0  0  2  0  0  0  0  0  0
  181.6640  179.5730  142.3880 C   0  0  0  0  0  2  0  0  0  0  0  0
  180.3890  177.9190  143.7430 C   0  0  0  0  0  1  0  0  0  0  0  0
  183.4720  178.9350  143.7210 C   0  0  0  0  0  0  0  0  0  0  0  0
  182.4600  178.9190  144.5170 N   0  0  0  0  0  0  0  0  0  0  0  0
  181.2290  179.1810  143.7980 C   0  0  1  0  0  3  0  0  0  0  0  0
  183.1380  179.1880  142.2920 C   0  0  1  0  0  3  0  0  0  0  0  0
  184.8130  178.7970  144.1910 N   0  0  0  0  0  2  0  0  0  0  0  0
  185.1310  178.2370  145.4920 C   0  0  0  0  0  2  0  0  0  0  0  0
  187.3160  177.7230  144.4040 C   0  0  0  0  0  3  0  0  0  0  0  0
  189.3220  177.3470  145.7130 C   0  0  0  0  0  0  0  0  0  0  0  0
  187.2310  177.9100  146.8130 C   0  0  0  0  0  3  0  0  0  0  0  0
  188.5920  177.6000  146.8830 C   0  0  0  0  0  3  0  0  0  0  0  0
  188.6750  177.4110  144.4740 C   0  0  0  0  0  3  0  0  0  0  0  0
  186.5940  177.9760  145.5720 C   0  0  0  0  0  0  0  0  0  0  0  0
  190.7530  177.0150  145.7800 C   0  0  0  0  0  0  0  0  0  0  0  0
  191.4910  177.1640  144.7720 O   0  0  0  0  0  0  0  0  0  0  0  0
  191.3070  176.5320  146.9600 O   0  0  0  0  0  1  0  0  0  0  0  0
  189.2920  178.4390  137.1220 C   0  0  0  0  0  2  0  0  0  0  0  0
  189.8160  177.1050  136.6140 C   0  0  0  0  0  2  0  0  0  0  0  0
  188.8060  176.4620  135.6760 C   0  0  0  0  0  2  0  0  0  0  0  0
  188.5130  175.0330  136.0990 C   0  0  0  0  0  2  0  0  0  0  0  0
  189.1420  174.0470  135.1320 C   0  0  0  0  0  2  0  0  0  0  0  0
  191.4130  172.6140  136.0770 O   0  0  0  0  0  0  0  0  0  0  0  0
  191.6190  173.6710  135.4260 C   0  0  0  0  0  0  0  0  0  0  0  0
  190.5240  174.4250  134.9030 N   0  0  0  0  0  2  0  0  0  0  0  0
  193.0230  175.5400  135.1880 O   0  0  0  0  0  1  0  0  0  0  0  0
  193.0200  174.1460  135.2070 C   0  0  1  0  0  3  0  0  0  0  0  0
  195.1750  172.7880  135.7800 C   0  0  0  0  0  0  0  0  0  0  0  0
  195.7940  174.0400  137.8940 C   0  0  2  0  0  3  0  0  0  0  0  0
  197.6770  173.4490  136.2910 C   0  0  0  0  0  2  0  0  0  0  0  0
  195.4900  173.2470  139.0040 O   0  0  0  0  0  1  0  0  0  0  0  0
  195.5730  173.1680  134.3480 C   0  0  0  0  0  1  0  0  0  0  0  0
  194.8420  171.3040  135.8260 C   0  0  0  0  0  1  0  0  0  0  0  0
  194.5230  174.6440  137.2710 C   0  0  1  0  0  3  0  0  0  0  0  0
  193.9570  173.5900  136.3050 C   0  0  1  0  0  3  0  0  0  0  0  0
  197.4110  172.1680  137.0690 C   0  0  0  0  0  2  0  0  0  0  0  0
  196.2770  173.1380  136.7890 C   0  0  0  0  0  0  0  0  0  0  0  0
  193.4570  175.2930  138.1850 C   0  0  2  0  0  3  0  0  0  0  0  0
  193.3630  176.7560  137.9860 C   0  0  0  0  0  2  0  0  0  0  0  0
  194.0110  176.1960  139.1070 O   0  0  0  0  0  0  0  0  0  0  0  0
  2  3  2  0  0  0  0
  2  6  1  0  0  0  0
  3  5  1  0  0  0  0
  4  1  1  0  0  0  0
  5  1  2  0  0  0  0
  6  4  2  0  0  0  0
  7  5  1  6  0  0  0
  7 15  1  0  0  0  0
  8 13  1  0  0  0  0
 10 12  1  1  0  0  0
 10 14  1  0  0  0  0
 11  8  1  0  0  0  0
 11  7  1  0  0  0  0
 13  9  1  6  0  0  0
 13 10  1  0  0  0  0
 14 15  1  6  0  0  0
 14 21  1  0  0  0  0
 16 20  1  0  0  0  0
 18 22  1  0  0  0  0
 18 19  2  0  0  0  0
 20 17  1  6  0  0  0
 20 19  1  0  0  0  0
 21 16  1  1  0  0  0
 21 18  1  0  0  0  0
 22 23  1  0  0  0  0
 23 29  1  0  0  0  0
 24 28  2  0  0  0  0
 24 29  1  0  0  0  0
 25 30  1  0  0  0  0
 25 27  2  0  0  0  0
 26 27  1  0  0  0  0
 28 25  1  0  0  0  0
 29 26  2  0  0  0  0
 30 32  1  0  0  0  0
 31 30  2  0  0  0  0
 33  2  1  0  0  0  0
 34 33  1  0  0  0  0
 35 36  1  0  0  0  0
 35 34  1  0  0  0  0
 37 36  1  0  0  0  0
 39 38  2  0  0  0  0
 40 37  1  0  0  0  0
 40 39  1  0  0  0  0
 42 41  1  1  0  0  0
 42 39  1  0  0  0  0
 43 48  1  0  0  0  0
 43 50  1  0  0  0  0
 43 52  1  0  0  0  0
 44 46  1  1  0  0  0
 45 52  1  0  0  0  0
 45 51  1  0  0  0  0
 47 43  1  0  0  0  0
 49 44  1  0  0  0  0
 49 53  1  1  0  0  0
 50 42  1  6  0  0  0
 50 49  1  0  0  0  0
 52 51  1  0  0  0  0
 52 44  1  0  0  0  0
 53 54  1  6  0  0  0
 53 55  1  0  0  0  0
 54 55  1  0  0  0  0
M  END
>  <MODEL>
4

>  <REMARK>
 VINA RESULT:      -7.1      3.625      8.412
  Name = 
  14 active torsions:
  status: ('A' for Active; 'I' for Inactive)
    1  A    between atoms: C_2  and  C_44
    2  A    between atoms: C_8  and  N_22
    3  A    between atoms: C_8  and  C_35
    4  A    between atoms: C_10  and  C_32
    5  A    between atoms: C_11  and  C_38
    6  A    between atoms: C_20  and  C_50
    7  A    between atoms: C_26  and  C_45
    8  A    between atoms: C_27  and  C_54
    9  A    between atoms: C_33  and  N_36
   10  A    between atoms: C_33  and  C_52
   11  A    between atoms: C_35  and  C_43
   12  A    between atoms: C_42  and  C_50
   13  A    between atoms: C_43  and  C_51
   14  A    between atoms: C_51  and  C_54
                            x       y       z     vdW  Elec       q    Type
                         _______ _______ _______ _____ _____    ______ ____

>  <TORSDO>
F 14

$$$$
=
 OpenBabel10272401403D

 55 61  0  0  1  0  0  0  0  0999 V2000
  192.3290  177.6440  141.7740 C   0  0  0  0  0  3  0  0  0  0  0  0
  190.9480  176.6570  139.5490 C   0  0  0  0  0  0  0  0  0  0  0  0
  190.3940  176.5410  140.8290 C   0  0  0  0  0  3  0  0  0  0  0  0
  192.8850  177.7630  140.4970 C   0  0  0  0  0  3  0  0  0  0  0  0
  191.0760  177.0370  141.9420 C   0  0  0  0  0  0  0  0  0  0  0  0
  192.1950  177.2690  139.3850 C   0  0  0  0  0  3  0  0  0  0  0  0
  190.4650  176.8730  143.2950 C   0  0  1  0  0  3  0  0  0  0  0  0
  190.6160  175.4610  145.3290 C   0  0  0  0  0  2  0  0  0  0  0  0
  191.6350  176.2100  147.4650 C   0  0  0  0  0  1  0  0  0  0  0  0
  190.0700  177.7990  146.3250 C   0  0  1  0  0  3  0  0  0  0  0  0
  191.4210  176.1610  144.2430 C   0  0  0  0  0  2  0  0  0  0  0  0
  189.5410  178.4650  147.5840 C   0  0  0  0  0  1  0  0  0  0  0  0
  190.4100  176.3200  146.5800 C   0  0  1  0  0  3  0  0  0  0  0  0
  189.1490  178.0860  145.1280 C   0  0  1  0  0  3  0  0  0  0  0  0
  189.9780  178.2140  143.8460 C   0  0  0  0  0  2  0  0  0  0  0  0
  187.2550  177.0110  146.3820 C   0  0  0  0  0  2  0  0  0  0  0  0
  186.2270  179.1510  147.1300 C   0  0  0  0  0  1  0  0  0  0  0  0
  186.8210  177.8140  144.2320 C   0  0  0  0  0  0  0  0  0  0  0  0
  185.8150  178.2040  144.9350 N   0  0  0  0  0  0  0  0  0  0  0  0
  186.0010  177.8790  146.3350 C   0  0  1  0  0  3  0  0  0  0  0  0
  187.9110  177.1640  145.0120 C   0  0  1  0  0  3  0  0  0  0  0  0
  186.8480  177.9300  142.8100 N   0  0  0  0  0  2  0  0  0  0  0  0
  185.9710  178.8310  142.0830 C   0  0  0  0  0  2  0  0  0  0  0  0
  185.0780  178.6380  139.7620 C   0  0  0  0  0  3  0  0  0  0  0  0
  186.5350  178.1610  137.8830 C   0  0  0  0  0  0  0  0  0  0  0  0
  187.4590  178.4060  140.1160 C   0  0  0  0  0  3  0  0  0  0  0  0
  187.6360  178.1680  138.7500 C   0  0  0  0  0  3  0  0  0  0  0  0
  185.2560  178.3970  138.3980 C   0  0  0  0  0  3  0  0  0  0  0  0
  186.1790  178.6460  140.6210 C   0  0  0  0  0  0  0  0  0  0  0  0
  186.7140  177.9050  136.4460 C   0  0  0  0  0  0  0  0  0  0  0  0
  187.8460  178.0280  135.9120 O   0  0  0  0  0  1  0  0  0  0  0  0
  185.6310  177.5250  135.6600 O   0  0  0  0  0  0  0  0  0  0  0  0
  190.2240  176.1110  138.3640 C   0  0  0  0  0  2  0  0  0  0  0  0
  190.9440  176.4700  137.0730 C   0  0  0  0  0  2  0  0  0  0  0  0
  191.0960  175.2400  136.1930 C   0  0  0  0  0  2  0  0  0  0  0  0
  192.4670  175.2110  135.5400 C   0  0  0  0  0  2  0  0  0  0  0  0
  193.3850  176.2390  136.1740 C   0  0  0  0  0  2  0  0  0  0  0  0
  193.5960  174.4410  138.3710 O   0  0  0  0  0  0  0  0  0  0  0  0
  194.6470  174.7060  137.7300 C   0  0  0  0  0  0  0  0  0  0  0  0
  194.6070  175.5820  136.6030 N   0  0  0  0  0  2  0  0  0  0  0  0
  195.7100  173.2280  139.2150 O   0  0  0  0  0  1  0  0  0  0  0  0
  195.9490  174.1080  138.1600 C   0  0  1  0  0  3  0  0  0  0  0  0
  198.1140  173.8010  136.7340 C   0  0  0  0  0  0  0  0  0  0  0  0
  197.7620  171.3640  136.1330 C   0  0  2  0  0  3  0  0  0  0  0  0
  200.1130  172.0810  136.7840 C   0  0  0  0  0  2  0  0  0  0  0  0
  197.3590  171.2740  134.7980 O   0  0  0  0  0  1  0  0  0  0  0  0
  198.8000  174.3350  137.9970 C   0  0  0  0  0  1  0  0  0  0  0  0
  198.1640  174.8680  135.6510 C   0  0  0  0  0  1  0  0  0  0  0  0
  196.6160  171.8610  137.0320 C   0  0  1  0  0  3  0  0  0  0  0  0
  196.6360  173.3970  136.9710 C   0  0  1  0  0  3  0  0  0  0  0  0
  199.9630  172.5120  135.3320 C   0  0  0  0  0  2  0  0  0  0  0  0
  198.7530  172.4920  136.2490 C   0  0  0  0  0  0  0  0  0  0  0  0
  195.2060  171.2450  136.8840 C   0  0  2  0  0  3  0  0  0  0  0  0
  195.0050  170.0790  137.7720 C   0  0  0  0  0  2  0  0  0  0  0  0
  195.2370  169.9310  136.3880 O   0  0  0  0  0  0  0  0  0  0  0  0
  1  5  1  0  0  0  0
  2  3  1  0  0  0  0
  3  5  2  0  0  0  0
  4  1  2  0  0  0  0
  6  2  2  0  0  0  0
  6  4  1  0  0  0  0
  7  5  1  6  0  0  0
  7 15  1  0  0  0  0
  7 11  1  0  0  0  0
  8 13  1  0  0  0  0
 10 13  1  0  0  0  0
 10 12  1  1  0  0  0
 11  8  1  0  0  0  0
 13  9  1  1  0  0  0
 14 15  1  6  0  0  0
 14 10  1  0  0  0  0
 18 19  2  0  0  0  0
 18 21  1  0  0  0  0
 19 20  1  0  0  0  0
 20 16  1  0  0  0  0
 20 17  1  1  0  0  0
 21 14  1  0  0  0  0
 21 16  1  1  0  0  0
 22 18  1  0  0  0  0
 23 22  1  0  0  0  0
 24 29  1  0  0  0  0
 25 28  1  0  0  0  0
 25 27  2  0  0  0  0
 26 29  2  0  0  0  0
 27 26  1  0  0  0  0
 28 24  2  0  0  0  0
 29 23  1  0  0  0  0
 30 25  1  0  0  0  0
 31 30  1  0  0  0  0
 32 30  2  0  0  0  0
 33  2  1  0  0  0  0
 34 33  1  0  0  0  0
 35 34  1  0  0  0  0
 36 37  1  0  0  0  0
 36 35  1  0  0  0  0
 37 40  1  0  0  0  0
 39 42  1  0  0  0  0
 39 38  2  0  0  0  0
 40 39  1  0  0  0  0
 42 41  1  1  0  0  0
 43 50  1  0  0  0  0
 43 47  1  0  0  0  0
 44 46  1  6  0  0  0
 44 52  1  0  0  0  0
 44 49  1  0  0  0  0
 48 43  1  0  0  0  0
 49 53  1  6  0  0  0
 50 49  1  0  0  0  0
 50 42  1  1  0  0  0
 51 52  1  0  0  0  0
 51 45  1  0  0  0  0
 52 43  1  0  0  0  0
 52 45  1  0  0  0  0
 53 54  1  1  0  0  0
 55 53  1  0  0  0  0
 55 54  1  0  0  0  0
M  END
>  <MODEL>
5

>  <REMARK>
 VINA RESULT:      -7.1      4.441      9.845
  Name = 
  14 active torsions:
  status: ('A' for Active; 'I' for Inactive)
    1  A    between atoms: C_2  and  C_44
    2  A    between atoms: C_8  and  N_22
    3  A    between atoms: C_8  and  C_35
    4  A    between atoms: C_10  and  C_32
    5  A    between atoms: C_11  and  C_38
    6  A    between atoms: C_20  and  C_50
    7  A    between atoms: C_26  and  C_45
    8  A    between atoms: C_27  and  C_54
    9  A    between atoms: C_33  and  N_36
   10  A    between atoms: C_33  and  C_52
   11  A    between atoms: C_35  and  C_43
   12  A    between atoms: C_42  and  C_50
   13  A    between atoms: C_43  and  C_51
   14  A    between atoms: C_51  and  C_54
                            x       y       z     vdW  Elec       q    Type
                         _______ _______ _______ _____ _____    ______ ____

>  <TORSDO>
F 14

$$$$
=
 OpenBabel10272401403D

 55 61  0  0  1  0  0  0  0  0999 V2000
  186.2860  178.1350  138.9140 C   0  0  0  0  0  3  0  0  0  0  0  0
  186.1190  179.0230  141.5630 C   0  0  0  0  0  0  0  0  0  0  0  0
  184.9530  178.7870  140.8260 C   0  0  0  0  0  3  0  0  0  0  0  0
  187.4530  178.3680  139.6500 C   0  0  0  0  0  3  0  0  0  0  0  0
  185.0310  178.3380  139.5050 C   0  0  0  0  0  0  0  0  0  0  0  0
  187.3690  178.8130  140.9720 C   0  0  0  0  0  3  0  0  0  0  0  0
  183.7660  178.1210  138.7410 C   0  0  1  0  0  3  0  0  0  0  0  0
  181.4580  179.0020  138.5270 C   0  0  0  0  0  2  0  0  0  0  0  0
  180.6730  180.3920  136.6260 C   0  0  0  0  0  1  0  0  0  0  0  0
  182.0260  178.3570  136.0740 C   0  0  1  0  0  3  0  0  0  0  0  0
  182.9190  179.3860  138.7180 C   0  0  0  0  0  2  0  0  0  0  0  0
  181.3690  178.0620  134.7360 C   0  0  0  0  0  1  0  0  0  0  0  0
  181.0220  178.9830  137.0590 C   0  0  1  0  0  3  0  0  0  0  0  0
  182.8010  177.1310  136.5830 C   0  0  1  0  0  3  0  0  0  0  0  0
  184.0560  177.5800  137.3390 C   0  0  0  0  0  2  0  0  0  0  0  0
  180.6430  175.8440  136.5540 C   0  0  0  0  0  2  0  0  0  0  0  0
  181.0610  174.7400  134.3630 C   0  0  0  0  0  1  0  0  0  0  0  0
  182.5730  174.7190  137.2350 C   0  0  0  0  0  0  0  0  0  0  0  0
  181.9780  173.8950  136.4440 N   0  0  0  0  0  0  0  0  0  0  0  0
  180.8100  174.5050  135.8410 C   0  0  1  0  0  3  0  0  0  0  0  0
  181.9470  176.0680  137.3160 C   0  0  1  0  0  3  0  0  0  0  0  0
  183.6980  174.3370  138.0270 N   0  0  0  0  0  2  0  0  0  0  0  0
  184.5030  173.1660  137.7270 C   0  0  0  0  0  2  0  0  0  0  0  0
  186.1920  174.9560  137.3220 C   0  0  0  0  0  3  0  0  0  0  0  0
  188.4290  174.4300  136.5480 C   0  0  0  0  0  0  0  0  0  0  0  0
  186.8390  172.6500  136.9930 C   0  0  0  0  0  3  0  0  0  0  0  0
  188.1110  173.0660  136.5900 C   0  0  0  0  0  3  0  0  0  0  0  0
  187.4620  175.3720  136.9170 C   0  0  0  0  0  3  0  0  0  0  0  0
  185.8810  173.5960  137.3640 C   0  0  0  0  0  0  0  0  0  0  0  0
  189.7640  174.8750  136.1200 C   0  0  0  0  0  0  0  0  0  0  0  0
  190.6840  174.0400  135.9280 O   0  0  0  0  0  1  0  0  0  0  0  0
  190.0230  176.2280  135.9220 O   0  0  0  0  0  0  0  0  0  0  0  0
  186.0310  179.5190  142.9680 C   0  0  0  0  0  2  0  0  0  0  0  0
  184.7320  179.0740  143.6230 C   0  0  0  0  0  2  0  0  0  0  0  0
  184.7820  179.3270  145.1210 C   0  0  0  0  0  2  0  0  0  0  0  0
  184.6520  178.0250  145.8910 C   0  0  0  0  0  2  0  0  0  0  0  0
  185.5150  178.0510  147.1400 C   0  0  0  0  0  2  0  0  0  0  0  0
  187.7750  176.6040  148.0900 O   0  0  0  0  0  0  0  0  0  0  0  0
  187.9840  177.5540  147.2910 C   0  0  0  0  0  0  0  0  0  0  0  0
  186.8920  178.3060  146.7580 N   0  0  0  0  0  2  0  0  0  0  0  0
  190.1690  177.9490  148.0590 O   0  0  0  0  0  1  0  0  0  0  0  0
  189.3860  177.9050  146.9060 C   0  0  1  0  0  3  0  0  0  0  0  0
  189.7430  177.2780  144.3970 C   0  0  0  0  0  0  0  0  0  0  0  0
  191.9090  175.9950  144.6900 C   0  0  2  0  0  3  0  0  0  0  0  0
  191.7420  177.5720  142.7010 C   0  0  0  0  0  2  0  0  0  0  0  0
  191.6510  174.6270  144.5730 O   0  0  0  0  0  1  0  0  0  0  0  0
  189.6040  178.7920  144.1910 C   0  0  0  0  0  1  0  0  0  0  0  0
  188.4970  176.5860  143.8640 C   0  0  0  0  0  1  0  0  0  0  0  0
  191.4280  176.5430  146.0450 C   0  0  1  0  0  3  0  0  0  0  0  0
  189.9380  176.8840  145.8830 C   0  0  1  0  0  3  0  0  0  0  0  0
  191.0000  176.3160  142.2660 C   0  0  0  0  0  2  0  0  0  0  0  0
  191.0090  176.7260  143.7280 C   0  0  0  0  0  0  0  0  0  0  0  0
  191.7570  175.7690  147.3430 C   0  0  2  0  0  3  0  0  0  0  0  0
  192.7240  176.4930  148.1980 C   0  0  0  0  0  2  0  0  0  0  0  0
  193.1060  175.3820  147.4160 O   0  0  0  0  0  0  0  0  0  0  0  0
  1  5  2  0  0  0  0
  1  4  1  0  0  0  0
  2 33  1  0  0  0  0
  3  2  2  0  0  0  0
  4  6  2  0  0  0  0
  5  3  1  0  0  0  0
  6  2  1  0  0  0  0
  7  5  1  6  0  0  0
  8 11  1  0  0  0  0
 10 12  1  6  0  0  0
 10 14  1  0  0  0  0
 10 13  1  0  0  0  0
 11  7  1  0  0  0  0
 13  9  1  6  0  0  0
 13  8  1  0  0  0  0
 14 21  1  0  0  0  0
 14 15  1  1  0  0  0
 15  7  1  0  0  0  0
 18 21  1  0  0  0  0
 18 22  1  0  0  0  0
 19 18  2  0  0  0  0
 20 17  1  6  0  0  0
 20 19  1  0  0  0  0
 20 16  1  0  0  0  0
 21 16  1  6  0  0  0
 23 22  1  0  0  0  0
 24 29  1  0  0  0  0
 25 27  2  0  0  0  0
 25 28  1  0  0  0  0
 26 29  2  0  0  0  0
 27 26  1  0  0  0  0
 28 24  2  0  0  0  0
 29 23  1  0  0  0  0
 30 25  1  0  0  0  0
 31 30  1  0  0  0  0
 32 30  2  0  0  0  0
 33 34  1  0  0  0  0
 34 35  1  0  0  0  0
 35 36  1  0  0  0  0
 36 37  1  0  0  0  0
 39 38  2  0  0  0  0
 40 37  1  0  0  0  0
 40 39  1  0  0  0  0
 42 39  1  0  0  0  0
 42 41  1  1  0  0  0
 43 50  1  0  0  0  0
 44 46  1  1  0  0  0
 44 49  1  0  0  0  0
 45 52  1  0  0  0  0
 47 43  1  0  0  0  0
 48 43  1  0  0  0  0
 49 53  1  1  0  0  0
 50 49  1  0  0  0  0
 50 42  1  1  0  0  0
 51 45  1  0  0  0  0
 51 52  1  0  0  0  0
 52 43  1  0  0  0  0
 52 44  1  0  0  0  0
 53 55  1  0  0  0  0
 53 54  1  1  0  0  0
 55 54  1  0  0  0  0
M  END
>  <MODEL>
6

>  <REMARK>
 VINA RESULT:      -7.1      2.415      5.971
  Name = 
  14 active torsions:
  status: ('A' for Active; 'I' for Inactive)
    1  A    between atoms: C_2  and  C_44
    2  A    between atoms: C_8  and  N_22
    3  A    between atoms: C_8  and  C_35
    4  A    between atoms: C_10  and  C_32
    5  A    between atoms: C_11  and  C_38
    6  A    between atoms: C_20  and  C_50
    7  A    between atoms: C_26  and  C_45
    8  A    between atoms: C_27  and  C_54
    9  A    between atoms: C_33  and  N_36
   10  A    between atoms: C_33  and  C_52
   11  A    between atoms: C_35  and  C_43
   12  A    between atoms: C_42  and  C_50
   13  A    between atoms: C_43  and  C_51
   14  A    between atoms: C_51  and  C_54
                            x       y       z     vdW  Elec       q    Type
                         _______ _______ _______ _____ _____    ______ ____

>  <TORSDO>
F 14

$$$$
=
 OpenBabel10272401403D

 55 61  0  0  1  0  0  0  0  0999 V2000
  192.3760  177.7600  141.9210 C   0  0  0  0  0  3  0  0  0  0  0  0
  191.0980  176.6900  139.6730 C   0  0  0  0  0  0  0  0  0  0  0  0
  190.5010  176.5900  140.9350 C   0  0  0  0  0  3  0  0  0  0  0  0
  192.9740  177.8630  140.6600 C   0  0  0  0  0  3  0  0  0  0  0  0
  191.1320  177.1280  142.0590 C   0  0  0  0  0  0  0  0  0  0  0  0
  192.3360  177.3270  139.5380 C   0  0  0  0  0  3  0  0  0  0  0  0
  190.4780  176.9800  143.3940 C   0  0  1  0  0  3  0  0  0  0  0  0
  190.5880  175.6200  145.4640 C   0  0  0  0  0  2  0  0  0  0  0  0
  191.5150  176.4390  147.6160 C   0  0  0  0  0  1  0  0  0  0  0  0
  189.9560  177.9660  146.3850 C   0  0  1  0  0  3  0  0  0  0  0  0
  191.4160  176.3130  144.3900 C   0  0  0  0  0  2  0  0  0  0  0  0
  189.3690  178.6480  147.6090 C   0  0  0  0  0  1  0  0  0  0  0  0
  190.3200  176.5010  146.6870 C   0  0  1  0  0  3  0  0  0  0  0  0
  189.0710  178.2040  145.1510 C   0  0  1  0  0  3  0  0  0  0  0  0
  189.9420  178.3220  143.8960 C   0  0  0  0  0  2  0  0  0  0  0  0
  187.1470  177.1310  146.3580 C   0  0  0  0  0  2  0  0  0  0  0  0
  186.0440  179.2710  146.9870 C   0  0  0  0  0  1  0  0  0  0  0  0
  186.7920  177.8510  144.1660 C   0  0  0  0  0  0  0  0  0  0  0  0
  185.7470  178.2420  144.8100 N   0  0  0  0  0  0  0  0  0  0  0  0
  185.8780  177.9680  146.2270 C   0  0  1  0  0  3  0  0  0  0  0  0
  187.8590  177.2520  145.0140 C   0  0  1  0  0  3  0  0  0  0  0  0
  186.8780  177.9190  142.7420 N   0  0  0  0  0  2  0  0  0  0  0  0
  186.0150  178.7760  141.9480 C   0  0  0  0  0  2  0  0  0  0  0  0
  185.1970  178.4230  139.6180 C   0  0  0  0  0  3  0  0  0  0  0  0
  186.7260  177.9210  137.8040 C   0  0  0  0  0  0  0  0  0  0  0  0
  187.5750  178.3230  140.0440 C   0  0  0  0  0  3  0  0  0  0  0  0
  187.8010  178.0240  138.6970 C   0  0  0  0  0  3  0  0  0  0  0  0
  185.4230  178.1220  138.2730 C   0  0  0  0  0  3  0  0  0  0  0  0
  186.2710  178.5270  140.5030 C   0  0  0  0  0  0  0  0  0  0  0  0
  186.9560  177.6020  136.3870 C   0  0  0  0  0  0  0  0  0  0  0  0
  188.1200  177.6140  135.9110 O   0  0  0  0  0  1  0  0  0  0  0  0
  185.8870  177.2830  135.5560 O   0  0  0  0  0  0  0  0  0  0  0  0
  190.4290  176.0990  138.4770 C   0  0  0  0  0  2  0  0  0  0  0  0
  191.3770  176.0560  137.2880 C   0  0  0  0  0  2  0  0  0  0  0  0
  190.8090  175.1710  136.1900 C   0  0  0  0  0  2  0  0  0  0  0  0
  191.5890  175.3470  134.8990 C   0  0  0  0  0  2  0  0  0  0  0  0
  192.7830  176.2590  135.1130 C   0  0  0  0  0  2  0  0  0  0  0  0
  195.4430  177.2580  135.2850 O   0  0  0  0  0  0  0  0  0  0  0  0
  195.2810  176.0120  135.3600 C   0  0  0  0  0  0  0  0  0  0  0  0
  193.9700  175.4470  135.3050 N   0  0  0  0  0  2  0  0  0  0  0  0
  197.4320  175.7650  136.2730 O   0  0  0  0  0  1  0  0  0  0  0  0
  196.4720  175.1160  135.4970 C   0  0  1  0  0  3  0  0  0  0  0  0
  196.4510  172.5150  135.2820 C   0  0  0  0  0  0  0  0  0  0  0  0
  196.5680  171.9850  137.7570 C   0  0  2  0  0  3  0  0  0  0  0  0
  198.0050  170.5880  136.1920 C   0  0  0  0  0  2  0  0  0  0  0  0
  195.3130  171.5520  138.1950 O   0  0  0  0  0  1  0  0  0  0  0  0
  197.6420  172.7670  134.3490 C   0  0  0  0  0  1  0  0  0  0  0  0
  195.2510  172.0830  134.4520 C   0  0  0  0  0  1  0  0  0  0  0  0
  196.5910  173.5080  137.5380 C   0  0  1  0  0  3  0  0  0  0  0  0
  196.0600  173.7610  136.1170 C   0  0  1  0  0  3  0  0  0  0  0  0
  196.6110  169.9880  136.0800 C   0  0  0  0  0  2  0  0  0  0  0  0
  196.7810  171.4710  136.3580 C   0  0  0  0  0  0  0  0  0  0  0  0
  195.9850  174.4450  138.6090 C   0  0  2  0  0  3  0  0  0  0  0  0
  197.0190  175.0310  139.4910 C   0  0  0  0  0  2  0  0  0  0  0  0
  196.1880  173.9740  139.9170 O   0  0  0  0  0  0  0  0  0  0  0  0
  1  5  1  0  0  0  0
  2  3  1  0  0  0  0
  3  5  2  0  0  0  0
  4  1  2  0  0  0  0
  6  2  2  0  0  0  0
  6  4  1  0  0  0  0
  7  5  1  6  0  0  0
  7 15  1  0  0  0  0
  7 11  1  0  0  0  0
  8 13  1  0  0  0  0
 10 13  1  0  0  0  0
 10 12  1  1  0  0  0
 11  8  1  0  0  0  0
 13  9  1  1  0  0  0
 14 15  1  6  0  0  0
 14 10  1  0  0  0  0
 18 19  2  0  0  0  0
 18 21  1  0  0  0  0
 19 20  1  0  0  0  0
 20 16  1  0  0  0  0
 20 17  1  1  0  0  0
 21 14  1  0  0  0  0
 21 16  1  1  0  0  0
 22 18  1  0  0  0  0
 23 22  1  0  0  0  0
 24 29  1  0  0  0  0
 25 28  1  0  0  0  0
 25 27  2  0  0  0  0
 26 29  2  0  0  0  0
 27 26  1  0  0  0  0
 28 24  2  0  0  0  0
 29 23  1  0  0  0  0
 30 25  1  0  0  0  0
 31 30  1  0  0  0  0
 32 30  2  0  0  0  0
 33  2  1  0  0  0  0
 34 33  1  0  0  0  0
 35 34  1  0  0  0  0
 36 37  1  0  0  0  0
 36 35  1  0  0  0  0
 37 40  1  0  0  0  0
 38 39  2  0  0  0  0
 39 42  1  0  0  0  0
 40 39  1  0  0  0  0
 42 41  1  1  0  0  0
 43 50  1  0  0  0  0
 43 52  1  0  0  0  0
 44 46  1  6  0  0  0
 45 52  1  0  0  0  0
 47 43  1  0  0  0  0
 48 43  1  0  0  0  0
 49 44  1  0  0  0  0
 49 53  1  1  0  0  0
 50 42  1  6  0  0  0
 50 49  1  0  0  0  0
 51 45  1  0  0  0  0
 51 52  1  0  0  0  0
 52 44  1  0  0  0  0
 53 54  1  1  0  0  0
 53 55  1  0  0  0  0
 54 55  1  0  0  0  0
M  END
>  <MODEL>
7

>  <REMARK>
 VINA RESULT:      -6.8      4.428      9.636
  Name = 
  14 active torsions:
  status: ('A' for Active; 'I' for Inactive)
    1  A    between atoms: C_2  and  C_44
    2  A    between atoms: C_8  and  N_22
    3  A    between atoms: C_8  and  C_35
    4  A    between atoms: C_10  and  C_32
    5  A    between atoms: C_11  and  C_38
    6  A    between atoms: C_20  and  C_50
    7  A    between atoms: C_26  and  C_45
    8  A    between atoms: C_27  and  C_54
    9  A    between atoms: C_33  and  N_36
   10  A    between atoms: C_33  and  C_52
   11  A    between atoms: C_35  and  C_43
   12  A    between atoms: C_42  and  C_50
   13  A    between atoms: C_43  and  C_51
   14  A    between atoms: C_51  and  C_54
                            x       y       z     vdW  Elec       q    Type
                         _______ _______ _______ _____ _____    ______ ____

>  <TORSDO>
F 14

$$$$
=
 OpenBabel10272401403D

 55 61  0  0  1  0  0  0  0  0999 V2000
  191.6560  177.2310  141.2420 C   0  0  0  0  0  3  0  0  0  0  0  0
  189.6930  177.7380  139.3140 C   0  0  0  0  0  0  0  0  0  0  0  0
  189.3340  177.5740  140.6570 C   0  0  0  0  0  3  0  0  0  0  0  0
  192.0190  177.3970  139.9020 C   0  0  0  0  0  3  0  0  0  0  0  0
  190.3100  177.3270  141.6240 C   0  0  0  0  0  0  0  0  0  0  0  0
  191.0370  177.6490  138.9380 C   0  0  0  0  0  3  0  0  0  0  0  0
  189.8880  177.1310  143.0430 C   0  0  1  0  0  3  0  0  0  0  0  0
  190.3130  175.6790  145.0080 C   0  0  0  0  0  2  0  0  0  0  0  0
  191.6100  176.3860  147.0030 C   0  0  0  0  0  1  0  0  0  0  0  0
  189.9040  177.9920  146.1180 C   0  0  1  0  0  3  0  0  0  0  0  0
  190.9640  176.4040  143.8380 C   0  0  0  0  0  2  0  0  0  0  0  0
  189.5490  178.6300  147.4510 C   0  0  0  0  0  1  0  0  0  0  0  0
  190.2770  176.5100  146.2930 C   0  0  1  0  0  3  0  0  0  0  0  0
  188.8290  178.3010  145.0630 C   0  0  1  0  0  3  0  0  0  0  0  0
  189.4780  178.4590  143.6830 C   0  0  0  0  0  2  0  0  0  0  0  0
  187.1240  177.1910  146.5360 C   0  0  0  0  0  2  0  0  0  0  0  0
  186.2040  179.3100  147.4640 C   0  0  0  0  0  1  0  0  0  0  0  0
  186.4020  178.0390  144.4830 C   0  0  0  0  0  0  0  0  0  0  0  0
  185.5000  178.4090  145.3240 N   0  0  0  0  0  0  0  0  0  0  0  0
  185.8730  178.0550  146.6780 C   0  0  1  0  0  3  0  0  0  0  0  0
  187.5880  177.3770  145.0940 C   0  0  1  0  0  3  0  0  0  0  0  0
  186.2360  178.1850  143.0730 N   0  0  0  0  0  2  0  0  0  0  0  0
  185.2680  179.0990  142.4920 C   0  0  0  0  0  2  0  0  0  0  0  0
  185.4550  178.7960  140.0230 C   0  0  0  0  0  3  0  0  0  0  0  0
  183.7650  177.5940  138.7660 C   0  0  0  0  0  0  0  0  0  0  0  0
  183.5750  177.8060  141.1780 C   0  0  0  0  0  3  0  0  0  0  0  0
  183.0780  177.3340  139.9590 C   0  0  0  0  0  3  0  0  0  0  0  0
  184.9560  178.3270  138.8050 C   0  0  0  0  0  3  0  0  0  0  0  0
  184.7680  178.5330  141.2090 C   0  0  0  0  0  0  0  0  0  0  0  0
  183.2440  177.1050  137.4800 C   0  0  0  0  0  0  0  0  0  0  0  0
  182.5020  177.8350  136.7730 O   0  0  0  0  0  0  0  0  0  0  0  0
  183.5670  175.8290  137.0310 O   0  0  0  0  0  1  0  0  0  0  0  0
  188.6450  177.9860  138.2810 C   0  0  0  0  0  2  0  0  0  0  0  0
  188.9350  177.2000  137.0110 C   0  0  0  0  0  2  0  0  0  0  0  0
  188.5280  175.7450  137.1840 C   0  0  0  0  0  2  0  0  0  0  0  0
  189.4400  174.8320  136.3860 C   0  0  0  0  0  2  0  0  0  0  0  0
  190.5670  174.3060  137.2560 C   0  0  0  0  0  2  0  0  0  0  0  0
  193.3430  174.4060  137.8830 O   0  0  0  0  0  0  0  0  0  0  0  0
  193.0120  173.9190  136.7700 C   0  0  0  0  0  0  0  0  0  0  0  0
  191.6350  173.8170  136.4030 N   0  0  0  0  0  2  0  0  0  0  0  0
  194.2440  174.4230  134.8330 O   0  0  0  0  0  1  0  0  0  0  0  0
  194.0710  173.4530  135.8210 C   0  0  1  0  0  3  0  0  0  0  0  0
  195.7510  171.6700  136.7190 C   0  0  0  0  0  0  0  0  0  0  0  0
  197.8550  173.0630  136.4900 C   0  0  2  0  0  3  0  0  0  0  0  0
  197.9860  170.6230  135.7870 C   0  0  0  0  0  2  0  0  0  0  0  0
  198.2630  173.4920  137.7560 O   0  0  0  0  0  1  0  0  0  0  0  0
  195.1180  170.7940  135.6310 C   0  0  0  0  0  1  0  0  0  0  0  0
  195.2900  171.1790  138.0840 C   0  0  0  0  0  1  0  0  0  0  0  0
  196.6340  173.8580  135.9950 C   0  0  1  0  0  3  0  0  0  0  0  0
  195.3890  173.1700  136.5770 C   0  0  1  0  0  3  0  0  0  0  0  0
  198.1090  170.5980  137.3040 C   0  0  0  0  0  2  0  0  0  0  0  0
  197.2830  171.6770  136.6240 C   0  0  0  0  0  0  0  0  0  0  0  0
  196.6190  175.3990  136.1280 C   0  0  2  0  0  3  0  0  0  0  0  0
  197.0780  176.0740  134.8940 C   0  0  0  0  0  2  0  0  0  0  0  0
  197.9020  175.9640  136.0340 O   0  0  0  0  0  0  0  0  0  0  0  0
  1  5  1  0  0  0  0
  2  3  1  0  0  0  0
  3  5  2  0  0  0  0
  4  1  2  0  0  0  0
  6  2  2  0  0  0  0
  6  4  1  0  0  0  0
  7  5  1  6  0  0  0
  7 15  1  0  0  0  0
  7 11  1  0  0  0  0
  8 13  1  0  0  0  0
 10 13  1  0  0  0  0
 10 12  1  1  0  0  0
 11  8  1  0  0  0  0
 13  9  1  6  0  0  0
 14 15  1  6  0  0  0
 14 21  1  0  0  0  0
 14 10  1  0  0  0  0
 16 20  1  0  0  0  0
 18 21  1  0  0  0  0
 18 19  2  0  0  0  0
 19 20  1  0  0  0  0
 20 17  1  1  0  0  0
 21 16  1  1  0  0  0
 22 18  1  0  0  0  0
 23 22  1  0  0  0  0
 24 29  1  0  0  0  0
 25 28  1  0  0  0  0
 25 27  2  0  0  0  0
 26 29  2  0  0  0  0
 27 26  1  0  0  0  0
 28 24  2  0  0  0  0
 29 23  1  0  0  0  0
 30 25  1  0  0  0  0
 31 30  2  0  0  0  0
 32 30  1  0  0  0  0
 33  2  1  0  0  0  0
 34 35  1  0  0  0  0
 34 33  1  0  0  0  0
 36 35  1  0  0  0  0
 36 37  1  0  0  0  0
 39 38  2  0  0  0  0
 40 39  1  0  0  0  0
 40 37  1  0  0  0  0
 42 41  1  6  0  0  0
 42 39  1  0  0  0  0
 43 48  1  0  0  0  0
 44 52  1  0  0  0  0
 44 46  1  1  0  0  0
 45 52  1  0  0  0  0
 45 51  1  0  0  0  0
 47 43  1  0  0  0  0
 49 53  1  1  0  0  0
 49 44  1  0  0  0  0
 49 50  1  0  0  0  0
 50 42  1  6  0  0  0
 50 43  1  0  0  0  0
 52 43  1  0  0  0  0
 52 51  1  0  0  0  0
 53 54  1  6  0  0  0
 54 55  1  0  0  0  0
 55 53  1  0  0  0  0
M  END
>  <MODEL>
8

>  <REMARK>
 VINA RESULT:      -6.7      4.233      9.596
  Name = 
  14 active torsions:
  status: ('A' for Active; 'I' for Inactive)
    1  A    between atoms: C_2  and  C_44
    2  A    between atoms: C_8  and  N_22
    3  A    between atoms: C_8  and  C_35
    4  A    between atoms: C_10  and  C_32
    5  A    between atoms: C_11  and  C_38
    6  A    between atoms: C_20  and  C_50
    7  A    between atoms: C_26  and  C_45
    8  A    between atoms: C_27  and  C_54
    9  A    between atoms: C_33  and  N_36
   10  A    between atoms: C_33  and  C_52
   11  A    between atoms: C_35  and  C_43
   12  A    between atoms: C_42  and  C_50
   13  A    between atoms: C_43  and  C_51
   14  A    between atoms: C_51  and  C_54
                            x       y       z     vdW  Elec       q    Type
                         _______ _______ _______ _____ _____    ______ ____

>  <TORSDO>
F 14

$$$$
=
 OpenBabel10272401403D

 55 61  0  0  1  0  0  0  0  0999 V2000
  186.1470  178.0210  137.1620 C   0  0  0  0  0  3  0  0  0  0  0  0
  186.4840  178.3280  139.9230 C   0  0  0  0  0  0  0  0  0  0  0  0
  187.4270  177.6150  139.1750 C   0  0  0  0  0  3  0  0  0  0  0  0
  185.2030  178.7360  137.9070 C   0  0  0  0  0  3  0  0  0  0  0  0
  187.2670  177.4640  137.7950 C   0  0  0  0  0  0  0  0  0  0  0  0
  185.3710  178.8880  139.2870 C   0  0  0  0  0  3  0  0  0  0  0  0
  188.2800  176.6750  137.0330 C   0  0  1  0  0  3  0  0  0  0  0  0
  190.4080  176.9460  135.7880 C   0  0  0  0  0  2  0  0  0  0  0  0
  192.6230  176.2370  136.6540 C   0  0  0  0  0  1  0  0  0  0  0  0
  190.7240  174.6240  136.9110 C   0  0  1  0  0  3  0  0  0  0  0  0
  189.6270  177.3860  137.0190 C   0  0  0  0  0  2  0  0  0  0  0  0
  191.5520  173.3540  136.8110 C   0  0  0  0  0  1  0  0  0  0  0  0
  191.3240  175.7470  136.0470 C   0  0  1  0  0  3  0  0  0  0  0  0
  189.2330  174.3210  136.6890 C   0  0  1  0  0  3  0  0  0  0  0  0
  188.3750  175.2430  137.5620 C   0  0  0  0  0  2  0  0  0  0  0  0
  189.5870  173.1400  134.5000 C   0  0  0  0  0  2  0  0  0  0  0  0
  188.9710  170.8840  135.3520 C   0  0  0  0  0  1  0  0  0  0  0  0
  187.4000  173.7120  135.0880 C   0  0  0  0  0  0  0  0  0  0  0  0
  187.3130  172.5070  134.6430 N   0  0  0  0  0  0  0  0  0  0  0  0
  188.6240  171.9660  134.3460 C   0  0  1  0  0  3  0  0  0  0  0  0
  188.7900  174.2320  135.2090 C   0  0  1  0  0  3  0  0  0  0  0  0
  186.2480  174.5070  135.3670 N   0  0  0  0  0  2  0  0  0  0  0  0
  184.9310  173.9280  135.5670 C   0  0  0  0  0  2  0  0  0  0  0  0
  183.9340  174.7160  137.7140 C   0  0  0  0  0  3  0  0  0  0  0  0
  182.3900  176.5860  137.7790 C   0  0  0  0  0  0  0  0  0  0  0  0
  183.3870  175.8960  135.6750 C   0  0  0  0  0  3  0  0  0  0  0  0
  182.5450  176.7470  136.3950 C   0  0  0  0  0  3  0  0  0  0  0  0
  183.0890  175.5660  138.4330 C   0  0  0  0  0  3  0  0  0  0  0  0
  184.0860  174.8830  136.3360 C   0  0  0  0  0  0  0  0  0  0  0  0
  181.5010  177.4740  138.5420 C   0  0  0  0  0  0  0  0  0  0  0  0
  181.9770  178.3730  139.2820 O   0  0  0  0  0  1  0  0  0  0  0  0
  180.1200  177.3300  138.4540 O   0  0  0  0  0  0  0  0  0  0  0  0
  186.6500  178.4730  141.3990 C   0  0  0  0  0  2  0  0  0  0  0  0
  185.3000  178.4850  142.1010 C   0  0  0  0  0  2  0  0  0  0  0  0
  185.1720  179.7200  142.9800 C   0  0  0  0  0  2  0  0  0  0  0  0
  183.9310  179.6350  143.8500 C   0  0  0  0  0  2  0  0  0  0  0  0
  184.2790  179.1190  145.2340 C   0  0  0  0  0  2  0  0  0  0  0  0
  186.8420  179.0140  146.4700 O   0  0  0  0  0  0  0  0  0  0  0  0
  186.5060  178.0460  145.7380 C   0  0  0  0  0  0  0  0  0  0  0  0
  185.2240  178.0250  145.1070 N   0  0  0  0  0  2  0  0  0  0  0  0
  187.2970  176.4360  144.2210 O   0  0  0  0  0  1  0  0  0  0  0  0
  187.4600  176.9150  145.5200 C   0  0  1  0  0  3  0  0  0  0  0  0
  189.4840  176.9940  147.1660 C   0  0  0  0  0  0  0  0  0  0  0  0
  191.3220  176.9580  145.4220 C   0  0  2  0  0  3  0  0  0  0  0  0
  191.6440  175.5140  147.4910 C   0  0  0  0  0  2  0  0  0  0  0  0
  191.8810  178.2350  145.3160 O   0  0  0  0  0  1  0  0  0  0  0  0
  188.7930  175.7730  147.7840 C   0  0  0  0  0  1  0  0  0  0  0  0
  189.3290  178.1820  148.1050 C   0  0  0  0  0  1  0  0  0  0  0  0
  189.9430  176.8920  144.7430 C   0  0  1  0  0  3  0  0  0  0  0  0
  188.9140  177.3770  145.7770 C   0  0  1  0  0  3  0  0  0  0  0  0
  192.0250  176.9200  147.9340 C   0  0  0  0  0  2  0  0  0  0  0  0
  190.9640  176.7200  146.8650 C   0  0  0  0  0  0  0  0  0  0  0  0
  189.7530  177.5030  143.3350 C   0  0  2  0  0  3  0  0  0  0  0  0
  189.6560  176.4680  142.2820 C   0  0  0  0  0  2  0  0  0  0  0  0
  190.8290  177.2270  142.4750 O   0  0  0  0  0  0  0  0  0  0  0  0
  1  5  2  0  0  0  0
  1  4  1  0  0  0  0
  2 33  1  0  0  0  0
  3  2  2  0  0  0  0
  4  6  2  0  0  0  0
  5  3  1  0  0  0  0
  6  2  1  0  0  0  0
  7 15  1  0  0  0  0
  7  5  1  1  0  0  0
  8 13  1  0  0  0  0
  8 11  1  0  0  0  0
 10 12  1  6  0  0  0
 11  7  1  0  0  0  0
 13  9  1  1  0  0  0
 13 10  1  0  0  0  0
 14 10  1  0  0  0  0
 14 15  1  1  0  0  0
 18 21  1  0  0  0  0
 18 22  1  0  0  0  0
 19 18  2  0  0  0  0
 20 16  1  0  0  0  0
 20 19  1  0  0  0  0
 20 17  1  1  0  0  0
 21 16  1  6  0  0  0
 21 14  1  0  0  0  0
 22 23  1  0  0  0  0
 23 29  1  0  0  0  0
 24 28  1  0  0  0  0
 25 28  2  0  0  0  0
 25 30  1  0  0  0  0
 26 29  1  0  0  0  0
 26 27  2  0  0  0  0
 27 25  1  0  0  0  0
 29 24  2  0  0  0  0
 30 31  1  0  0  0  0
 32 30  2  0  0  0  0
 33 34  1  0  0  0  0
 34 35  1  0  0  0  0
 35 36  1  0  0  0  0
 36 37  1  0  0  0  0
 39 38  2  0  0  0  0
 40 37  1  0  0  0  0
 40 39  1  0  0  0  0
 42 41  1  6  0  0  0
 42 39  1  0  0  0  0
 43 47  1  0  0  0  0
 43 48  1  0  0  0  0
 44 46  1  1  0  0  0
 44 52  1  0  0  0  0
 45 51  1  0  0  0  0
 49 53  1  6  0  0  0
 49 44  1  0  0  0  0
 49 50  1  0  0  0  0
 50 42  1  6  0  0  0
 50 43  1  0  0  0  0
 52 43  1  0  0  0  0
 52 45  1  0  0  0  0
 52 51  1  0  0  0  0
 53 54  1  6  0  0  0
 54 55  1  0  0  0  0
 55 53  1  0  0  0  0
M  END
>  <MODEL>
9

>  <REMARK>
 VINA RESULT:      -6.5      2.423      5.563
  Name = 
  14 active torsions:
  status: ('A' for Active; 'I' for Inactive)
    1  A    between atoms: C_2  and  C_44
    2  A    between atoms: C_8  and  N_22
    3  A    between atoms: C_8  and  C_35
    4  A    between atoms: C_10  and  C_32
    5  A    between atoms: C_11  and  C_38
    6  A    between atoms: C_20  and  C_50
    7  A    between atoms: C_26  and  C_45
    8  A    between atoms: C_27  and  C_54
    9  A    between atoms: C_33  and  N_36
   10  A    between atoms: C_33  and  C_52
   11  A    between atoms: C_35  and  C_43
   12  A    between atoms: C_42  and  C_50
   13  A    between atoms: C_43  and  C_51
   14  A    between atoms: C_51  and  C_54
                            x       y       z     vdW  Elec       q    Type
                         _______ _______ _______ _____ _____    ______ ____

>  <TORSDO>
F 14

$$$$
