=
 OpenBabel10262423413D

 34 38  0  0  1  0  0  0  0  0999 V2000
  191.8590  175.4430  136.9930 C   0  0  0  0  0  0  0  0  0  0  0  0
  193.0360  176.4580  138.8260 C   0  0  0  0  0  0  0  0  0  0  0  0
  190.7490  176.9900  138.7620 C   0  0  0  0  0  2  0  0  0  0  0  0
  192.8680  177.3350  140.0020 C   0  0  0  0  0  2  0  0  0  0  0  0
  193.0730  174.8380  136.5870 C   0  0  0  0  0  0  0  0  0  0  0  0
  194.1980  175.8790  138.4470 N   0  0  0  0  0  0  0  0  0  0  0  0
  194.2590  175.0660  137.3520 C   0  0  0  0  0  0  0  0  0  0  0  0
  191.3750  177.6890  139.9780 C   0  0  2  0  0  3  0  0  0  0  0  0
  191.8760  176.2570  138.1370 C   0  0  0  0  0  0  0  0  0  0  0  0
  189.8970  176.4400  135.8960 N   0  0  0  0  0  0  0  0  0  0  0  0
  189.5650  174.4510  136.9690 C   0  0  0  0  0  0  0  0  0  0  0  0
  188.6910  176.3810  136.3690 C   0  0  0  0  0  0  0  0  0  0  0  0
  188.3580  175.1860  137.0670 N   0  0  0  0  0  2  0  0  0  0  0  0
  190.5940  175.1970  136.2010 C   0  0  2  0  0  3  0  0  0  0  0  0
  187.7730  177.4570  136.2270 N   0  0  0  0  0  1  0  0  0  0  0  0
  189.7160  173.3000  137.4560 O   0  0  0  0  0  0  0  0  0  0  0  0
  197.6670  174.4450  135.7890 C   0  0  0  0  0  0  0  0  0  0  0  0
  197.9830  173.2190  136.3760 C   0  0  0  0  0  3  0  0  0  0  0  0
  195.5740  174.4620  137.0160 C   0  0  0  0  0  0  0  0  0  0  0  0
  197.1150  172.6360  137.2440 N   0  0  0  0  0  0  0  0  0  0  0  0
  196.4570  175.0600  136.1070 C   0  0  0  0  0  3  0  0  0  0  0  0
  195.9310  173.2230  137.5670 C   0  0  0  0  0  3  0  0  0  0  0  0
  198.6070  175.0860  134.8350 C   0  0  0  0  0  1  0  0  0  0  0  0
  190.2080  176.8150  142.2150 C   0  0  0  0  0  0  0  0  0  0  0  0
  190.7340  177.2070  141.2030 C   0  0  0  0  0  0  0  0  0  0  0  0
  191.3710  176.6280  145.1820 C   0  0  0  0  0  1  0  0  0  0  0  0
  189.5730  176.3420  143.4480 C   0  0  1  0  0  3  0  0  0  0  0  0
  190.0670  177.1820  144.6450 C   0  0  1  0  0  3  0  0  0  0  0  0
  187.7580  177.3970  145.4620 C   0  0  0  0  0  3  0  0  0  0  0  0
  187.3300  177.4320  144.0260 C   0  0  0  0  0  2  0  0  0  0  0  0
  188.0420  176.3130  143.2640 C   0  0  0  0  0  2  0  0  0  0  0  0
  189.0550  177.2660  145.7550 C   0  0  0  0  0  3  0  0  0  0  0  0
  192.8370  172.5710  135.6190 C   0  0  0  0  0  1  0  0  0  0  0  0
  193.1040  174.0350  135.3190 C   0  0  0  0  0  2  0  0  0  0  0  0
  1  9  1  0  0  0  0
  2  4  1  0  0  0  0
  3  8  1  0  0  0  0
  5  1  2  0  0  0  0
  5  7  1  0  0  0  0
  6  2  1  0  0  0  0
  7  6  2  0  0  0  0
  8  4  1  0  0  0  0
  8 25  1  1  0  0  0
  9  3  1  0  0  0  0
  9  2  2  0  0  0  0
 10 14  1  0  0  0  0
 10 12  2  0  0  0  0
 11 13  1  0  0  0  0
 11 16  2  0  0  0  0
 12 13  1  0  0  0  0
 14 11  1  0  0  0  0
 14  1  1  1  0  0  0
 15 12  1  0  0  0  0
 17 21  2  0  0  0  0
 17 18  1  0  0  0  0
 18 20  2  0  0  0  0
 19  7  1  0  0  0  0
 19 22  2  0  0  0  0
 20 22  1  0  0  0  0
 21 19  1  0  0  0  0
 23 17  1  0  0  0  0
 25 24  3  0  0  0  0
 27 24  1  6  0  0  0
 27 28  1  0  0  0  0
 28 26  1  1  0  0  0
 28 32  1  0  0  0  0
 29 32  2  0  0  0  0
 30 29  1  0  0  0  0
 31 27  1  0  0  0  0
 31 30  1  0  0  0  0
 34 33  1  0  0  0  0
 34  5  1  0  0  0  0
M  END
>  <MODEL>
1

>  <REMARK>
 VINA RESULT:      -8.2      0.000      0.000
  Name = 
  5 active torsions:
  status: ('A' for Active; 'I' for Inactive)
    1  A    between atoms: C_3  and  C_13
    2  A    between atoms: C_4  and  C_15
    3  A    between atoms: C_12  and  C_28
    4  A    between atoms: C_17  and  C_29
    5  A    between atoms: C_21  and  C_32
                            x       y       z     vdW  Elec       q    Type
                         _______ _______ _______ _____ _____    ______ ____

>  <TORSDO>
F 5

$$$$
=
 OpenBabel10262423413D

 34 38  0  0  1  0  0  0  0  0999 V2000
  188.0850  176.9950  137.8190 C   0  0  0  0  0  0  0  0  0  0  0  0
  189.7820  176.8660  139.5170 C   0  0  0  0  0  0  0  0  0  0  0  0
  188.0760  178.4070  140.0020 C   0  0  0  0  0  2  0  0  0  0  0  0
  190.1900  177.4090  140.8280 C   0  0  0  0  0  2  0  0  0  0  0  0
  188.7880  176.0090  137.0850 C   0  0  0  0  0  0  0  0  0  0  0  0
  190.4550  175.9210  138.8220 N   0  0  0  0  0  0  0  0  0  0  0  0
  189.9950  175.4630  137.6220 C   0  0  0  0  0  0  0  0  0  0  0  0
  189.0810  178.4150  141.1630 C   0  0  2  0  0  3  0  0  0  0  0  0
  188.6180  177.4050  139.0520 C   0  0  0  0  0  0  0  0  0  0  0  0
  186.4560  178.8350  137.9050 N   0  0  0  0  0  0  0  0  0  0  0  0
  185.6100  176.7370  137.5870 C   0  0  0  0  0  0  0  0  0  0  0  0
  185.2800  178.7400  138.4410 C   0  0  0  0  0  0  0  0  0  0  0  0
  184.6430  177.4730  138.3150 N   0  0  0  0  0  2  0  0  0  0  0  0
  186.7980  177.5690  137.2690 C   0  0  2  0  0  3  0  0  0  0  0  0
  184.6800  179.8240  139.1390 N   0  0  0  0  0  1  0  0  0  0  0  0
  185.4520  175.5370  137.2420 O   0  0  0  0  0  0  0  0  0  0  0  0
  192.8940  173.5060  136.1350 C   0  0  0  0  0  0  0  0  0  0  0  0
  192.1980  172.4460  135.5530 C   0  0  0  0  0  3  0  0  0  0  0  0
  190.7910  174.4140  136.9340 C   0  0  0  0  0  0  0  0  0  0  0  0
  190.8450  172.3840  135.6540 N   0  0  0  0  0  0  0  0  0  0  0  0
  192.1850  174.4930  136.8200 C   0  0  0  0  0  3  0  0  0  0  0  0
  190.1360  173.3370  136.3190 C   0  0  0  0  0  3  0  0  0  0  0  0
  194.3730  173.5850  136.0250 C   0  0  0  0  0  1  0  0  0  0  0  0
  187.8440  177.6830  143.4130 C   0  0  0  0  0  0  0  0  0  0  0  0
  188.4060  178.0130  142.3980 C   0  0  0  0  0  0  0  0  0  0  0  0
  189.0320  176.9600  146.2870 C   0  0  0  0  0  1  0  0  0  0  0  0
  187.1570  177.2870  144.6450 C   0  0  1  0  0  3  0  0  0  0  0  0
  187.8960  177.8710  145.8670 C   0  0  1  0  0  3  0  0  0  0  0  0
  185.7540  178.5980  146.8320 C   0  0  0  0  0  3  0  0  0  0  0  0
  185.2960  178.8610  145.4290 C   0  0  0  0  0  2  0  0  0  0  0  0
  185.6640  177.6650  144.5490 C   0  0  0  0  0  2  0  0  0  0  0  0
  186.9830  178.1170  147.0380 C   0  0  0  0  0  3  0  0  0  0  0  0
  188.9560  176.4660  134.6570 C   0  0  0  0  0  1  0  0  0  0  0  0
  188.2910  175.6160  135.7240 C   0  0  0  0  0  2  0  0  0  0  0  0
  1  9  1  0  0  0  0
  2  4  1  0  0  0  0
  3  8  1  0  0  0  0
  4  8  1  0  0  0  0
  5  7  1  0  0  0  0
  5  1  2  0  0  0  0
  6  2  1  0  0  0  0
  7  6  2  0  0  0  0
  8 25  1  1  0  0  0
  9  2  2  0  0  0  0
  9  3  1  0  0  0  0
 10 12  2  0  0  0  0
 11 13  1  0  0  0  0
 12 15  1  0  0  0  0
 13 12  1  0  0  0  0
 14 11  1  0  0  0  0
 14  1  1  1  0  0  0
 14 10  1  0  0  0  0
 16 11  2  0  0  0  0
 17 21  1  0  0  0  0
 18 20  1  0  0  0  0
 18 17  2  0  0  0  0
 19  7  1  0  0  0  0
 20 22  2  0  0  0  0
 21 19  2  0  0  0  0
 22 19  1  0  0  0  0
 23 17  1  0  0  0  0
 25 24  3  0  0  0  0
 27 24  1  6  0  0  0
 27 28  1  0  0  0  0
 28 26  1  1  0  0  0
 28 32  1  0  0  0  0
 29 32  2  0  0  0  0
 30 29  1  0  0  0  0
 31 27  1  0  0  0  0
 31 30  1  0  0  0  0
 33 34  1  0  0  0  0
 34  5  1  0  0  0  0
M  END
>  <MODEL>
2

>  <REMARK>
 VINA RESULT:      -8.1      2.548      4.190
  Name = 
  5 active torsions:
  status: ('A' for Active; 'I' for Inactive)
    1  A    between atoms: C_3  and  C_13
    2  A    between atoms: C_4  and  C_15
    3  A    between atoms: C_12  and  C_28
    4  A    between atoms: C_17  and  C_29
    5  A    between atoms: C_21  and  C_32
                            x       y       z     vdW  Elec       q    Type
                         _______ _______ _______ _____ _____    ______ ____

>  <TORSDO>
F 5

$$$$
=
 OpenBabel10262423413D

 34 38  0  0  1  0  0  0  0  0999 V2000
  188.1910  178.3140  141.8680 C   0  0  0  0  0  0  0  0  0  0  0  0
  186.0280  178.3520  142.9170 C   0  0  0  0  0  0  0  0  0  0  0  0
  185.9620  178.7470  140.6020 C   0  0  0  0  0  2  0  0  0  0  0  0
  184.5870  178.5330  142.6540 C   0  0  0  0  0  2  0  0  0  0  0  0
  188.7660  178.0380  143.1330 C   0  0  0  0  0  0  0  0  0  0  0  0
  186.5710  178.0840  144.1270 N   0  0  0  0  0  0  0  0  0  0  0  0
  187.9170  177.9140  144.2760 C   0  0  0  0  0  0  0  0  0  0  0  0
  184.5250  178.7880  141.1430 C   0  0  2  0  0  3  0  0  0  0  0  0
  186.7960  178.4640  141.7960 C   0  0  0  0  0  0  0  0  0  0  0  0
  188.4070  179.1340  139.5600 N   0  0  0  0  0  0  0  0  0  0  0  0
  189.3820  177.1200  140.0240 C   0  0  0  0  0  0  0  0  0  0  0  0
  188.3800  178.3710  138.5120 C   0  0  0  0  0  0  0  0  0  0  0  0
  188.9570  177.0790  138.6730 N   0  0  0  0  0  2  0  0  0  0  0  0
  189.0770  178.4330  140.6480 C   0  0  2  0  0  3  0  0  0  0  0  0
  187.7830  178.7880  137.2910 N   0  0  0  0  0  1  0  0  0  0  0  0
  189.9650  176.1630  140.5960 O   0  0  0  0  0  0  0  0  0  0  0  0
  190.1200  176.7450  147.1440 C   0  0  0  0  0  0  0  0  0  0  0  0
  189.2670  176.9910  148.2210 C   0  0  0  0  0  3  0  0  0  0  0  0
  188.4250  177.6100  145.6380 C   0  0  0  0  0  0  0  0  0  0  0  0
  188.0340  177.5190  148.0050 N   0  0  0  0  0  0  0  0  0  0  0  0
  189.6920  177.0500  145.8530 C   0  0  0  0  0  3  0  0  0  0  0  0
  187.6000  177.8240  146.7520 C   0  0  0  0  0  3  0  0  0  0  0  0
  191.4670  176.1630  147.3710 C   0  0  0  0  0  1  0  0  0  0  0  0
  183.0750  176.8770  139.9710 C   0  0  0  0  0  0  0  0  0  0  0  0
  183.7310  177.7410  140.4970 C   0  0  0  0  0  0  0  0  0  0  0  0
  179.9900  176.1380  140.3300 C   0  0  0  0  0  1  0  0  0  0  0  0
  182.2790  175.8220  139.3380 C   0  0  1  0  0  3  0  0  0  0  0  0
  180.8420  176.3290  139.0910 C   0  0  1  0  0  3  0  0  0  0  0  0
  180.8950  175.4080  136.8120 C   0  0  0  0  0  3  0  0  0  0  0  0
  182.3500  175.7660  136.7790 C   0  0  0  0  0  2  0  0  0  0  0  0
  183.0090  175.3060  138.0810 C   0  0  0  0  0  2  0  0  0  0  0  0
  180.1830  175.6640  137.9130 C   0  0  0  0  0  3  0  0  0  0  0  0
  190.8170  179.2950  143.7200 C   0  0  0  0  0  1  0  0  0  0  0  0
  190.2600  177.9610  143.2570 C   0  0  0  0  0  2  0  0  0  0  0  0
  1  5  1  0  0  0  0
  2  6  2  0  0  0  0
  3  8  1  0  0  0  0
  3  9  1  0  0  0  0
  4  2  1  0  0  0  0
  5 34  1  0  0  0  0
  5  7  2  0  0  0  0
  6  7  1  0  0  0  0
  7 19  1  0  0  0  0
  8 25  1  6  0  0  0
  8  4  1  0  0  0  0
  9  1  2  0  0  0  0
  9  2  1  0  0  0  0
 10 14  1  0  0  0  0
 11 16  2  0  0  0  0
 11 14  1  0  0  0  0
 12 13  1  0  0  0  0
 12 10  2  0  0  0  0
 13 11  1  0  0  0  0
 14  1  1  1  0  0  0
 15 12  1  0  0  0  0
 17 23  1  0  0  0  0
 17 18  1  0  0  0  0
 19 21  1  0  0  0  0
 19 22  2  0  0  0  0
 20 18  2  0  0  0  0
 21 17  2  0  0  0  0
 22 20  1  0  0  0  0
 24 25  3  0  0  0  0
 27 24  1  6  0  0  0
 28 27  1  0  0  0  0
 28 26  1  1  0  0  0
 29 32  2  0  0  0  0
 30 29  1  0  0  0  0
 30 31  1  0  0  0  0
 31 27  1  0  0  0  0
 32 28  1  0  0  0  0
 34 33  1  0  0  0  0
M  END
>  <MODEL>
3

>  <REMARK>
 VINA RESULT:      -7.8      5.274      9.462
  Name = 
  5 active torsions:
  status: ('A' for Active; 'I' for Inactive)
    1  A    between atoms: C_3  and  C_13
    2  A    between atoms: C_4  and  C_15
    3  A    between atoms: C_12  and  C_28
    4  A    between atoms: C_17  and  C_29
    5  A    between atoms: C_21  and  C_32
                            x       y       z     vdW  Elec       q    Type
                         _______ _______ _______ _____ _____    ______ ____

>  <TORSDO>
F 5

$$$$
=
 OpenBabel10262423413D

 34 38  0  0  1  0  0  0  0  0999 V2000
  190.3960  175.8940  136.7180 C   0  0  0  0  0  0  0  0  0  0  0  0
  192.0850  176.1460  138.4100 C   0  0  0  0  0  0  0  0  0  0  0  0
  190.1450  177.4080  138.8160 C   0  0  0  0  0  2  0  0  0  0  0  0
  192.3920  176.8230  139.6860 C   0  0  0  0  0  2  0  0  0  0  0  0
  191.2560  174.9970  136.0370 C   0  0  0  0  0  0  0  0  0  0  0  0
  192.9070  175.2860  137.7670 N   0  0  0  0  0  0  0  0  0  0  0  0
  192.5340  174.6910  136.5970 C   0  0  0  0  0  0  0  0  0  0  0  0
  191.1310  177.6490  139.9690 C   0  0  2  0  0  3  0  0  0  0  0  0
  190.8500  176.4570  137.9220 C   0  0  0  0  0  0  0  0  0  0  0  0
  188.7610  177.6460  136.1680 N   0  0  0  0  0  0  0  0  0  0  0  0
  187.9190  175.6770  136.9620 C   0  0  0  0  0  0  0  0  0  0  0  0
  187.6730  177.8620  136.8390 C   0  0  0  0  0  0  0  0  0  0  0  0
  187.0490  176.7090  137.3930 N   0  0  0  0  0  2  0  0  0  0  0  0
  189.0340  176.2150  136.1430 C   0  0  2  0  0  3  0  0  0  0  0  0
  187.1570  179.1720  137.0360 N   0  0  0  0  0  1  0  0  0  0  0  0
  187.7360  174.4600  137.2280 O   0  0  0  0  0  0  0  0  0  0  0  0
  194.4120  171.5280  135.6440 C   0  0  0  0  0  0  0  0  0  0  0  0
  195.3890  172.0680  134.8060 C   0  0  0  0  0  3  0  0  0  0  0  0
  193.4950  173.7500  135.9660 C   0  0  0  0  0  0  0  0  0  0  0  0
  195.4170  173.4050  134.5690 N   0  0  0  0  0  0  0  0  0  0  0  0
  193.4700  172.3740  136.2280 C   0  0  0  0  0  3  0  0  0  0  0  0
  194.5050  174.2470  135.1290 C   0  0  0  0  0  3  0  0  0  0  0  0
  194.3780  170.0670  135.9130 C   0  0  0  0  0  1  0  0  0  0  0  0
  190.0330  176.8530  142.2690 C   0  0  0  0  0  0  0  0  0  0  0  0
  190.5260  177.2120  141.2280 C   0  0  0  0  0  0  0  0  0  0  0  0
  191.2990  176.7430  145.1980 C   0  0  0  0  0  1  0  0  0  0  0  0
  189.4410  176.4170  143.5360 C   0  0  1  0  0  3  0  0  0  0  0  0
  189.9780  177.2870  144.6910 C   0  0  1  0  0  3  0  0  0  0  0  0
  187.7000  177.5330  145.5830 C   0  0  0  0  0  3  0  0  0  0  0  0
  187.2220  177.5300  144.1620 C   0  0  0  0  0  2  0  0  0  0  0  0
  187.9040  176.3880  143.4060 C   0  0  0  0  0  2  0  0  0  0  0  0
  189.0060  177.4050  145.8330 C   0  0  0  0  0  3  0  0  0  0  0  0
  190.1090  173.1300  134.8840 C   0  0  0  0  0  1  0  0  0  0  0  0
  190.8350  174.4510  134.7030 C   0  0  0  0  0  2  0  0  0  0  0  0
  1  9  1  0  0  0  0
  2  4  1  0  0  0  0
  3  8  1  0  0  0  0
  4  8  1  0  0  0  0
  5  7  1  0  0  0  0
  5  1  2  0  0  0  0
  6  2  1  0  0  0  0
  7  6  2  0  0  0  0
  8 25  1  1  0  0  0
  9  2  2  0  0  0  0
  9  3  1  0  0  0  0
 10 12  2  0  0  0  0
 11 16  2  0  0  0  0
 11 13  1  0  0  0  0
 12 15  1  0  0  0  0
 12 13  1  0  0  0  0
 14 10  1  0  0  0  0
 14  1  1  1  0  0  0
 14 11  1  0  0  0  0
 17 23  1  0  0  0  0
 17 21  1  0  0  0  0
 18 17  2  0  0  0  0
 19 21  2  0  0  0  0
 19  7  1  0  0  0  0
 20 18  1  0  0  0  0
 20 22  2  0  0  0  0
 22 19  1  0  0  0  0
 25 24  3  0  0  0  0
 27 24  1  6  0  0  0
 27 28  1  0  0  0  0
 28 26  1  1  0  0  0
 28 32  1  0  0  0  0
 29 32  2  0  0  0  0
 30 29  1  0  0  0  0
 31 27  1  0  0  0  0
 31 30  1  0  0  0  0
 34 33  1  0  0  0  0
 34  5  1  0  0  0  0
M  END
>  <MODEL>
4

>  <REMARK>
 VINA RESULT:      -7.6      1.687      2.256
  Name = 
  5 active torsions:
  status: ('A' for Active; 'I' for Inactive)
    1  A    between atoms: C_3  and  C_13
    2  A    between atoms: C_4  and  C_15
    3  A    between atoms: C_12  and  C_28
    4  A    between atoms: C_17  and  C_29
    5  A    between atoms: C_21  and  C_32
                            x       y       z     vdW  Elec       q    Type
                         _______ _______ _______ _____ _____    ______ ____

>  <TORSDO>
F 5

$$$$
=
 OpenBabel10262423413D

 34 38  0  0  1  0  0  0  0  0999 V2000
  189.2620  176.0420  136.9660 C   0  0  0  0  0  0  0  0  0  0  0  0
  190.3680  177.3110  138.6820 C   0  0  0  0  0  0  0  0  0  0  0  0
  188.0440  177.6450  138.6100 C   0  0  0  0  0  2  0  0  0  0  0  0
  190.1390  178.2740  139.7780 C   0  0  0  0  0  2  0  0  0  0  0  0
  190.5190  175.5050  136.5950 C   0  0  0  0  0  0  0  0  0  0  0  0
  191.5710  176.7980  138.3350 N   0  0  0  0  0  0  0  0  0  0  0  0
  191.6890  175.8970  137.3170 C   0  0  0  0  0  0  0  0  0  0  0  0
  188.6220  178.5000  139.7470 C   0  0  2  0  0  3  0  0  0  0  0  0
  189.2230  176.9540  138.0330 C   0  0  0  0  0  0  0  0  0  0  0  0
  187.1140  176.7460  135.9990 N   0  0  0  0  0  0  0  0  0  0  0  0
  187.1580  174.6940  137.0010 C   0  0  0  0  0  0  0  0  0  0  0  0
  185.9580  176.4780  136.5220 C   0  0  0  0  0  0  0  0  0  0  0  0
  185.8560  175.2220  137.1830 N   0  0  0  0  0  2  0  0  0  0  0  0
  188.0150  175.6220  136.2200 C   0  0  2  0  0  3  0  0  0  0  0  0
  184.8740  177.3960  136.4640 N   0  0  0  0  0  1  0  0  0  0  0  0
  187.5150  173.5660  137.4320 O   0  0  0  0  0  0  0  0  0  0  0  0
  194.7760  173.6840  137.1920 C   0  0  0  0  0  0  0  0  0  0  0  0
  195.6380  174.5100  136.4700 C   0  0  0  0  0  3  0  0  0  0  0  0
  193.0460  175.3760  137.0130 C   0  0  0  0  0  0  0  0  0  0  0  0
  195.2150  175.7300  136.0460 N   0  0  0  0  0  0  0  0  0  0  0  0
  193.4820  174.1240  137.4680 C   0  0  0  0  0  3  0  0  0  0  0  0
  193.9550  176.1750  136.3040 C   0  0  0  0  0  3  0  0  0  0  0  0
  195.2330  172.3530  137.6650 C   0  0  0  0  0  1  0  0  0  0  0  0
  187.5460  177.7340  142.0680 C   0  0  0  0  0  0  0  0  0  0  0  0
  188.0350  178.0790  141.0210 C   0  0  0  0  0  0  0  0  0  0  0  0
  188.9240  177.0800  144.8730 C   0  0  0  0  0  1  0  0  0  0  0  0
  186.9460  177.3180  143.3390 C   0  0  1  0  0  3  0  0  0  0  0  0
  187.7290  177.9410  144.5140 C   0  0  1  0  0  3  0  0  0  0  0  0
  185.6170  178.5850  145.5960 C   0  0  0  0  0  3  0  0  0  0  0  0
  185.0690  178.8190  144.2200 C   0  0  0  0  0  2  0  0  0  0  0  0
  185.4360  177.6330  143.3260 C   0  0  0  0  0  2  0  0  0  0  0  0
  186.8740  178.1570  145.7340 C   0  0  0  0  0  3  0  0  0  0  0  0
  190.3550  173.1590  135.8210 C   0  0  0  0  0  1  0  0  0  0  0  0
  190.6040  174.5960  135.4030 C   0  0  0  0  0  2  0  0  0  0  0  0
  1  9  1  0  0  0  0
  2  4  1  0  0  0  0
  3  8  1  0  0  0  0
  5  1  2  0  0  0  0
  5  7  1  0  0  0  0
  6  2  1  0  0  0  0
  7  6  2  0  0  0  0
  8  4  1  0  0  0  0
  8 25  1  1  0  0  0
  9  3  1  0  0  0  0
  9  2  2  0  0  0  0
 10 14  1  0  0  0  0
 10 12  2  0  0  0  0
 11 13  1  0  0  0  0
 11 16  2  0  0  0  0
 12 13  1  0  0  0  0
 14  1  1  1  0  0  0
 14 11  1  0  0  0  0
 15 12  1  0  0  0  0
 17 21  1  0  0  0  0
 17 23  1  0  0  0  0
 18 17  2  0  0  0  0
 19  7  1  0  0  0  0
 19 21  2  0  0  0  0
 20 22  2  0  0  0  0
 20 18  1  0  0  0  0
 22 19  1  0  0  0  0
 25 24  3  0  0  0  0
 27 24  1  6  0  0  0
 27 28  1  0  0  0  0
 28 26  1  1  0  0  0
 28 32  1  0  0  0  0
 29 32  2  0  0  0  0
 30 29  1  0  0  0  0
 31 27  1  0  0  0  0
 31 30  1  0  0  0  0
 34 33  1  0  0  0  0
 34  5  1  0  0  0  0
M  END
>  <MODEL>
5

>  <REMARK>
 VINA RESULT:      -7.2      1.919      2.899
  Name = 
  5 active torsions:
  status: ('A' for Active; 'I' for Inactive)
    1  A    between atoms: C_3  and  C_13
    2  A    between atoms: C_4  and  C_15
    3  A    between atoms: C_12  and  C_28
    4  A    between atoms: C_17  and  C_29
    5  A    between atoms: C_21  and  C_32
                            x       y       z     vdW  Elec       q    Type
                         _______ _______ _______ _____ _____    ______ ____

>  <TORSDO>
F 5

$$$$
=
 OpenBabel10262423413D

 34 38  0  0  1  0  0  0  0  0999 V2000
  188.1720  177.5150  143.1320 C   0  0  0  0  0  0  0  0  0  0  0  0
  187.5880  178.2250  140.9110 C   0  0  0  0  0  0  0  0  0  0  0  0
  189.8510  177.6450  141.1520 C   0  0  0  0  0  2  0  0  0  0  0  0
  188.1310  178.4470  139.5560 C   0  0  0  0  0  2  0  0  0  0  0  0
  186.8240  177.7170  143.5180 C   0  0  0  0  0  0  0  0  0  0  0  0
  186.2980  178.4150  141.2730 N   0  0  0  0  0  0  0  0  0  0  0  0
  185.8770  178.1680  142.5480 C   0  0  0  0  0  0  0  0  0  0  0  0
  189.6110  178.0670  139.6950 C   0  0  2  0  0  3  0  0  0  0  0  0
  188.5230  177.7810  141.7980 C   0  0  0  0  0  0  0  0  0  0  0  0
  189.9960  178.1110  144.6690 N   0  0  0  0  0  0  0  0  0  0  0  0
  190.2080  176.1280  143.5550 C   0  0  0  0  0  0  0  0  0  0  0  0
  191.2480  177.8520  144.4480 C   0  0  0  0  0  0  0  0  0  0  0  0
  191.5140  176.6390  143.7530 N   0  0  0  0  0  2  0  0  0  0  0  0
  189.1810  177.0230  144.1460 C   0  0  2  0  0  3  0  0  0  0  0  0
  192.2830  178.7420  144.8460 N   0  0  0  0  0  1  0  0  0  0  0  0
  189.9710  175.0380  142.9710 O   0  0  0  0  0  0  0  0  0  0  0  0
  182.1280  178.6640  142.1750 C   0  0  0  0  0  0  0  0  0  0  0  0
  181.7810  178.9020  143.5050 C   0  0  0  0  0  3  0  0  0  0  0  0
  184.4410  178.3910  142.8540 C   0  0  0  0  0  0  0  0  0  0  0  0
  182.7380  178.8920  144.4700 N   0  0  0  0  0  0  0  0  0  0  0  0
  183.4610  178.4150  141.8520 C   0  0  0  0  0  3  0  0  0  0  0  0
  184.0440  178.6500  144.1740 C   0  0  0  0  0  3  0  0  0  0  0  0
  181.0890  178.6780  141.1140 C   0  0  0  0  0  1  0  0  0  0  0  0
  190.1670  176.0220  138.0720 C   0  0  0  0  0  0  0  0  0  0  0  0
  189.9190  176.9460  138.8050 C   0  0  0  0  0  0  0  0  0  0  0  0
  188.5720  174.9450  135.5230 C   0  0  0  0  0  1  0  0  0  0  0  0
  190.4610  174.8950  137.1820 C   0  0  1  0  0  3  0  0  0  0  0  0
  190.0420  175.2450  135.7390 C   0  0  1  0  0  3  0  0  0  0  0  0
  192.1770  174.3650  134.8920 C   0  0  0  0  0  3  0  0  0  0  0  0
  192.8050  174.8810  136.1520 C   0  0  0  0  0  2  0  0  0  0  0  0
  191.9380  174.4780  137.3460 C   0  0  0  0  0  2  0  0  0  0  0  0
  190.8640  174.5270  134.7030 C   0  0  0  0  0  3  0  0  0  0  0  0
  186.7300  178.7880  145.7480 C   0  0  0  0  0  1  0  0  0  0  0  0
  186.4390  177.5270  144.9570 C   0  0  0  0  0  2  0  0  0  0  0  0
  1  5  1  0  0  0  0
  2  6  2  0  0  0  0
  2  9  1  0  0  0  0
  3  9  1  0  0  0  0
  4  8  1  0  0  0  0
  4  2  1  0  0  0  0
  5 34  1  0  0  0  0
  6  7  1  0  0  0  0
  7 19  1  0  0  0  0
  7  5  2  0  0  0  0
  8 25  1  6  0  0  0
  8  3  1  0  0  0  0
  9  1  2  0  0  0  0
 11 13  1  0  0  0  0
 11 14  1  0  0  0  0
 12 10  2  0  0  0  0
 12 15  1  0  0  0  0
 13 12  1  0  0  0  0
 14  1  1  6  0  0  0
 14 10  1  0  0  0  0
 16 11  2  0  0  0  0
 17 18  1  0  0  0  0
 18 20  2  0  0  0  0
 19 22  2  0  0  0  0
 21 17  2  0  0  0  0
 21 19  1  0  0  0  0
 22 20  1  0  0  0  0
 23 17  1  0  0  0  0
 24 25  3  0  0  0  0
 27 31  1  0  0  0  0
 27 24  1  1  0  0  0
 28 26  1  1  0  0  0
 28 27  1  0  0  0  0
 29 30  1  0  0  0  0
 30 31  1  0  0  0  0
 32 29  2  0  0  0  0
 32 28  1  0  0  0  0
 34 33  1  0  0  0  0
M  END
>  <MODEL>
6

>  <REMARK>
 VINA RESULT:      -7.1      3.910     10.571
  Name = 
  5 active torsions:
  status: ('A' for Active; 'I' for Inactive)
    1  A    between atoms: C_3  and  C_13
    2  A    between atoms: C_4  and  C_15
    3  A    between atoms: C_12  and  C_28
    4  A    between atoms: C_17  and  C_29
    5  A    between atoms: C_21  and  C_32
                            x       y       z     vdW  Elec       q    Type
                         _______ _______ _______ _____ _____    ______ ____

>  <TORSDO>
F 5

$$$$
=
 OpenBabel10262423413D

 34 38  0  0  1  0  0  0  0  0999 V2000
  188.4170  177.7930  142.4790 C   0  0  0  0  0  0  0  0  0  0  0  0
  188.1500  178.1670  140.1190 C   0  0  0  0  0  0  0  0  0  0  0  0
  190.3480  177.6230  140.7460 C   0  0  0  0  0  2  0  0  0  0  0  0
  188.8740  178.1840  138.8330 C   0  0  0  0  0  2  0  0  0  0  0  0
  187.0350  178.0540  142.6450 C   0  0  0  0  0  0  0  0  0  0  0  0
  186.8290  178.4130  140.2720 N   0  0  0  0  0  0  0  0  0  0  0  0
  186.2360  178.3590  141.5000 C   0  0  0  0  0  0  0  0  0  0  0  0
  190.3140  177.8240  139.2240 C   0  0  2  0  0  3  0  0  0  0  0  0
  188.9490  177.8570  141.1800 C   0  0  0  0  0  0  0  0  0  0  0  0
  190.0770  178.5890  144.1080 N   0  0  0  0  0  0  0  0  0  0  0  0
  190.3090  176.4350  143.3850 C   0  0  0  0  0  0  0  0  0  0  0  0
  191.3290  178.2540  144.0940 C   0  0  0  0  0  0  0  0  0  0  0  0
  191.6090  176.9280  143.6570 N   0  0  0  0  0  2  0  0  0  0  0  0
  189.2700  177.4540  143.6810 C   0  0  2  0  0  3  0  0  0  0  0  0
  192.3570  179.1640  144.4620 N   0  0  0  0  0  1  0  0  0  0  0  0
  190.0830  175.2680  142.9710 O   0  0  0  0  0  0  0  0  0  0  0  0
  182.6980  178.8160  142.8070 C   0  0  0  0  0  0  0  0  0  0  0  0
  182.0260  179.0650  141.6100 C   0  0  0  0  0  3  0  0  0  0  0  0
  184.7780  178.6290  141.5730 C   0  0  0  0  0  0  0  0  0  0  0  0
  182.7120  179.0840  140.4370 N   0  0  0  0  0  0  0  0  0  0  0  0
  184.0730  178.5930  142.7840 C   0  0  0  0  0  3  0  0  0  0  0  0
  184.0550  178.8690  140.3950 C   0  0  0  0  0  3  0  0  0  0  0  0
  181.9540  178.7880  144.0930 C   0  0  0  0  0  1  0  0  0  0  0  0
  191.0340  175.5570  138.0110 C   0  0  0  0  0  0  0  0  0  0  0  0
  190.7110  176.5830  138.5580 C   0  0  0  0  0  0  0  0  0  0  0  0
  189.2210  173.1770  136.8960 C   0  0  0  0  0  1  0  0  0  0  0  0
  191.4210  174.3080  137.3500 C   0  0  1  0  0  3  0  0  0  0  0  0
  190.3760  173.9400  136.2760 C   0  0  1  0  0  3  0  0  0  0  0  0
  192.1760  173.4440  134.6760 C   0  0  0  0  0  3  0  0  0  0  0  0
  192.9480  174.5610  135.3110 C   0  0  0  0  0  2  0  0  0  0  0  0
  192.8690  174.4230  136.8330 C   0  0  0  0  0  2  0  0  0  0  0  0
  190.9610  173.1420  135.1430 C   0  0  0  0  0  3  0  0  0  0  0  0
  186.7310  176.7660  144.7380 C   0  0  0  0  0  1  0  0  0  0  0  0
  186.4570  178.0810  144.0310 C   0  0  0  0  0  2  0  0  0  0  0  0
  1  5  1  0  0  0  0
  2  6  2  0  0  0  0
  2  9  1  0  0  0  0
  3  9  1  0  0  0  0
  4  8  1  0  0  0  0
  4  2  1  0  0  0  0
  5 34  1  0  0  0  0
  6  7  1  0  0  0  0
  7 19  1  0  0  0  0
  7  5  2  0  0  0  0
  8 25  1  6  0  0  0
  8  3  1  0  0  0  0
  9  1  2  0  0  0  0
 11 13  1  0  0  0  0
 11 14  1  0  0  0  0
 12 10  2  0  0  0  0
 12 15  1  0  0  0  0
 13 12  1  0  0  0  0
 14  1  1  6  0  0  0
 14 10  1  0  0  0  0
 16 11  2  0  0  0  0
 17 23  1  0  0  0  0
 18 17  2  0  0  0  0
 19 21  2  0  0  0  0
 20 18  1  0  0  0  0
 21 17  1  0  0  0  0
 22 20  2  0  0  0  0
 22 19  1  0  0  0  0
 24 25  3  0  0  0  0
 27 24  1  6  0  0  0
 28 26  1  1  0  0  0
 28 27  1  0  0  0  0
 29 32  2  0  0  0  0
 29 30  1  0  0  0  0
 30 31  1  0  0  0  0
 31 27  1  0  0  0  0
 32 28  1  0  0  0  0
 34 33  1  0  0  0  0
M  END
>  <MODEL>
7

>  <REMARK>
 VINA RESULT:      -7.0      3.592     10.241
  Name = 
  5 active torsions:
  status: ('A' for Active; 'I' for Inactive)
    1  A    between atoms: C_3  and  C_13
    2  A    between atoms: C_4  and  C_15
    3  A    between atoms: C_12  and  C_28
    4  A    between atoms: C_17  and  C_29
    5  A    between atoms: C_21  and  C_32
                            x       y       z     vdW  Elec       q    Type
                         _______ _______ _______ _____ _____    ______ ____

>  <TORSDO>
F 5

$$$$
=
 OpenBabel10262423413D

 34 38  0  0  1  0  0  0  0  0999 V2000
  188.1040  177.5080  143.0990 C   0  0  0  0  0  0  0  0  0  0  0  0
  187.4540  178.4970  141.0080 C   0  0  0  0  0  0  0  0  0  0  0  0
  189.7180  177.8770  141.0960 C   0  0  0  0  0  2  0  0  0  0  0  0
  187.9540  178.8860  139.6740 C   0  0  0  0  0  2  0  0  0  0  0  0
  186.7720  177.6680  143.5540 C   0  0  0  0  0  0  0  0  0  0  0  0
  186.1790  178.6480  141.4350 N   0  0  0  0  0  0  0  0  0  0  0  0
  185.7980  178.2440  142.6820 C   0  0  0  0  0  0  0  0  0  0  0  0
  189.4340  178.4820  139.7130 C   0  0  2  0  0  3  0  0  0  0  0  0
  188.4140  177.9380  141.7990 C   0  0  0  0  0  0  0  0  0  0  0  0
  190.0080  177.8900  144.6070 N   0  0  0  0  0  0  0  0  0  0  0  0
  190.1160  176.0360  143.2780 C   0  0  0  0  0  0  0  0  0  0  0  0
  191.2410  177.6280  144.3040 C   0  0  0  0  0  0  0  0  0  0  0  0
  191.4430  176.4910  143.4710 N   0  0  0  0  0  2  0  0  0  0  0  0
  189.1410  176.8840  144.0080 C   0  0  2  0  0  3  0  0  0  0  0  0
  192.3170  178.4440  144.7480 N   0  0  0  0  0  1  0  0  0  0  0  0
  189.8240  175.0220  142.5910 O   0  0  0  0  0  0  0  0  0  0  0  0
  182.0210  178.6170  142.5100 C   0  0  0  0  0  0  0  0  0  0  0  0
  181.7420  178.8910  143.8500 C   0  0  0  0  0  3  0  0  0  0  0  0
  184.3760  178.4360  143.0630 C   0  0  0  0  0  0  0  0  0  0  0  0
  182.7520  178.9440  144.7570 N   0  0  0  0  0  0  0  0  0  0  0  0
  183.3400  178.3970  142.1190 C   0  0  0  0  0  3  0  0  0  0  0  0
  184.0470  178.7290  144.3940 C   0  0  0  0  0  3  0  0  0  0  0  0
  180.9230  178.5640  141.5110 C   0  0  0  0  0  1  0  0  0  0  0  0
  189.9160  176.6600  137.8210 C   0  0  0  0  0  0  0  0  0  0  0  0
  189.7000  177.4810  138.6780 C   0  0  0  0  0  0  0  0  0  0  0  0
  192.3490  174.6200  137.4830 C   0  0  0  0  0  1  0  0  0  0  0  0
  190.1740  175.6660  136.7760 C   0  0  1  0  0  3  0  0  0  0  0  0
  190.8490  174.4220  137.3930 C   0  0  1  0  0  3  0  0  0  0  0  0
  189.3230  172.9570  136.1400 C   0  0  0  0  0  3  0  0  0  0  0  0
  188.2730  174.0100  136.3300 C   0  0  0  0  0  2  0  0  0  0  0  0
  188.8710  175.3790  136.0020 C   0  0  0  0  0  2  0  0  0  0  0  0
  190.5480  173.1590  136.6340 C   0  0  0  0  0  3  0  0  0  0  0  0
  186.7330  178.4600  145.9000 C   0  0  0  0  0  1  0  0  0  0  0  0
  186.4330  177.2990  144.9700 C   0  0  0  0  0  2  0  0  0  0  0  0
  1  5  1  0  0  0  0
  2  6  2  0  0  0  0
  2  9  1  0  0  0  0
  3  9  1  0  0  0  0
  4  8  1  0  0  0  0
  4  2  1  0  0  0  0
  5 34  1  0  0  0  0
  6  7  1  0  0  0  0
  7 19  1  0  0  0  0
  7  5  2  0  0  0  0
  8 25  1  6  0  0  0
  8  3  1  0  0  0  0
  9  1  2  0  0  0  0
 11 13  1  0  0  0  0
 11 14  1  0  0  0  0
 12 10  2  0  0  0  0
 12 15  1  0  0  0  0
 13 12  1  0  0  0  0
 14  1  1  6  0  0  0
 14 10  1  0  0  0  0
 16 11  2  0  0  0  0
 17 18  1  0  0  0  0
 18 20  2  0  0  0  0
 19 22  2  0  0  0  0
 21 17  2  0  0  0  0
 21 19  1  0  0  0  0
 22 20  1  0  0  0  0
 23 17  1  0  0  0  0
 24 25  3  0  0  0  0
 27 28  1  0  0  0  0
 27 24  1  1  0  0  0
 28 26  1  6  0  0  0
 29 30  1  0  0  0  0
 29 32  2  0  0  0  0
 31 30  1  0  0  0  0
 31 27  1  0  0  0  0
 32 28  1  0  0  0  0
 34 33  1  0  0  0  0
M  END
>  <MODEL>
8

>  <REMARK>
 VINA RESULT:      -6.8      3.925     10.418
  Name = 
  5 active torsions:
  status: ('A' for Active; 'I' for Inactive)
    1  A    between atoms: C_3  and  C_13
    2  A    between atoms: C_4  and  C_15
    3  A    between atoms: C_12  and  C_28
    4  A    between atoms: C_17  and  C_29
    5  A    between atoms: C_21  and  C_32
                            x       y       z     vdW  Elec       q    Type
                         _______ _______ _______ _____ _____    ______ ____

>  <TORSDO>
F 5

$$$$
=
 OpenBabel10262423413D

 34 38  0  0  1  0  0  0  0  0999 V2000
  185.2020  177.4560  138.1960 C   0  0  0  0  0  0  0  0  0  0  0  0
  187.2780  178.0390  139.2580 C   0  0  0  0  0  0  0  0  0  0  0  0
  185.3790  178.7900  140.4200 C   0  0  0  0  0  2  0  0  0  0  0  0
  187.8580  178.7230  140.4310 C   0  0  0  0  0  2  0  0  0  0  0  0
  185.9410  176.8130  137.1730 C   0  0  0  0  0  0  0  0  0  0  0  0
  187.9890  177.4230  138.2870 N   0  0  0  0  0  0  0  0  0  0  0  0
  187.3690  176.7980  137.2440 C   0  0  0  0  0  0  0  0  0  0  0  0
  186.6290  179.2170  141.2050 C   0  0  2  0  0  3  0  0  0  0  0  0
  185.9150  178.0660  139.2420 C   0  0  0  0  0  0  0  0  0  0  0  0
  183.1330  178.6390  138.8010 N   0  0  0  0  0  0  0  0  0  0  0  0
  183.0760  176.3580  138.9170 C   0  0  0  0  0  0  0  0  0  0  0  0
  182.3260  178.2570  139.7420 C   0  0  0  0  0  0  0  0  0  0  0  0
  182.2040  176.8500  139.9190 N   0  0  0  0  0  2  0  0  0  0  0  0
  183.6900  177.4650  138.1410 C   0  0  2  0  0  3  0  0  0  0  0  0
  181.6330  179.1880  140.5630 N   0  0  0  0  0  1  0  0  0  0  0  0
  183.2710  175.1320  138.7100 O   0  0  0  0  0  0  0  0  0  0  0  0
  189.2270  174.1610  135.2350 C   0  0  0  0  0  0  0  0  0  0  0  0
  189.9240  174.9800  134.3460 C   0  0  0  0  0  3  0  0  0  0  0  0
  188.2270  176.1360  136.2290 C   0  0  0  0  0  0  0  0  0  0  0  0
  189.7800  176.3290  134.4090 N   0  0  0  0  0  0  0  0  0  0  0  0
  188.3840  174.7440  136.1810 C   0  0  0  0  0  3  0  0  0  0  0  0
  188.9600  176.9160  135.3230 C   0  0  0  0  0  3  0  0  0  0  0  0
  189.3840  172.6850  135.1780 C   0  0  0  0  0  1  0  0  0  0  0  0
  186.5860  178.1030  143.6310 C   0  0  0  0  0  0  0  0  0  0  0  0
  186.6030  178.6030  142.5350 C   0  0  0  0  0  0  0  0  0  0  0  0
  188.9480  176.7630  145.3110 C   0  0  0  0  0  1  0  0  0  0  0  0
  186.5680  177.4990  144.9670 C   0  0  1  0  0  3  0  0  0  0  0  0
  187.9000  177.7910  145.6890 C   0  0  1  0  0  3  0  0  0  0  0  0
  186.6740  178.4080  147.7290 C   0  0  0  0  0  3  0  0  0  0  0  0
  185.6100  178.9670  146.8320 C   0  0  0  0  0  2  0  0  0  0  0  0
  185.3050  177.9570  145.7250 C   0  0  0  0  0  2  0  0  0  0  0  0
  187.7530  177.8390  147.1860 C   0  0  0  0  0  3  0  0  0  0  0  0
  185.1780  177.2280  134.8550 C   0  0  0  0  0  1  0  0  0  0  0  0
  185.2110  176.2300  135.9980 C   0  0  0  0  0  2  0  0  0  0  0  0
  1  9  1  0  0  0  0
  2  4  1  0  0  0  0
  3  8  1  0  0  0  0
  4  8  1  0  0  0  0
  5  7  1  0  0  0  0
  5  1  2  0  0  0  0
  6  2  1  0  0  0  0
  7  6  2  0  0  0  0
  8 25  1  1  0  0  0
  9  2  2  0  0  0  0
  9  3  1  0  0  0  0
 10 12  2  0  0  0  0
 11 13  1  0  0  0  0
 12 13  1  0  0  0  0
 12 15  1  0  0  0  0
 14  1  1  1  0  0  0
 14 10  1  0  0  0  0
 14 11  1  0  0  0  0
 16 11  2  0  0  0  0
 17 21  1  0  0  0  0
 18 20  1  0  0  0  0
 18 17  2  0  0  0  0
 19  7  1  0  0  0  0
 20 22  2  0  0  0  0
 21 19  2  0  0  0  0
 22 19  1  0  0  0  0
 23 17  1  0  0  0  0
 25 24  3  0  0  0  0
 27 24  1  6  0  0  0
 27 28  1  0  0  0  0
 27 31  1  0  0  0  0
 28 26  1  1  0  0  0
 28 32  1  0  0  0  0
 30 29  1  0  0  0  0
 31 30  1  0  0  0  0
 32 29  2  0  0  0  0
 33 34  1  0  0  0  0
 34  5  1  0  0  0  0
M  END
>  <MODEL>
9

>  <REMARK>
 VINA RESULT:      -6.7      4.668      6.615
  Name = 
  5 active torsions:
  status: ('A' for Active; 'I' for Inactive)
    1  A    between atoms: C_3  and  C_13
    2  A    between atoms: C_4  and  C_15
    3  A    between atoms: C_12  and  C_28
    4  A    between atoms: C_17  and  C_29
    5  A    between atoms: C_21  and  C_32
                            x       y       z     vdW  Elec       q    Type
                         _______ _______ _______ _____ _____    ______ ____

>  <TORSDO>
F 5

$$$$
