=
 OpenBabel10272400393D

 31 32  0  0  1  0  0  0  0  0999 V2000
  192.0500  175.9050  146.4650 C   0  0  0  0  0  0  0  0  0  0  0  0
  190.3740  178.2790  144.0190 C   0  0  0  0  0  2  0  0  0  0  0  0
  191.0470  177.0610  144.5890 C   0  0  0  0  0  0  0  0  0  0  0  0
  192.3170  174.8030  145.6460 C   0  0  0  0  0  3  0  0  0  0  0  0
  190.4950  177.1810  141.7860 C   0  0  1  0  0  0  0  0  0  0  0  0
  192.4360  175.8750  147.9000 C   0  0  0  0  0  1  0  0  0  0  0  0
  190.9570  175.9820  142.4110 O   0  0  0  0  0  0  0  0  0  0  0  0
  189.5380  177.9280  142.7640 C   0  0  1  0  0  3  0  0  0  0  0  0
  191.6040  177.9930  141.5250 O   0  0  0  0  0  1  0  0  0  0  0  0
  191.4160  177.0330  145.9380 C   0  0  0  0  0  3  0  0  0  0  0  0
  191.3280  175.9570  143.7610 C   0  0  0  0  0  0  0  0  0  0  0  0
  191.9550  174.8290  144.2950 C   0  0  0  0  0  3  0  0  0  0  0  0
  188.3570  177.1060  143.1310 N   0  0  0  0  0  0  0  0  0  0  0  0
  187.1480  177.6550  142.5320 C   0  0  0  0  0  1  0  0  0  0  0  0
  188.1340  177.0320  144.5870 C   0  0  0  0  0  2  0  0  0  0  0  0
  186.6950  177.3530  145.0150 C   0  0  0  0  0  2  0  0  0  0  0  0
  187.0020  177.9340  147.2940 O   0  0  0  0  0  1  0  0  0  0  0  0
  186.6490  178.4680  146.0530 C   0  0  2  0  0  3  0  0  0  0  0  0
  185.2530  179.0930  146.1330 C   0  0  1  0  0  3  0  0  0  0  0  0
  184.5780  179.0610  144.7740 C   0  0  0  0  0  1  0  0  0  0  0  0
  184.4610  178.3940  147.0440 O   0  0  0  0  0  1  0  0  0  0  0  0
  189.8400  176.8220  140.4490 C   0  0  0  0  0  2  0  0  0  0  0  0
  190.2850  177.7090  139.3720 N   0  0  0  0  0  0  0  0  0  0  0  0
  189.1710  178.5580  138.9330 C   0  0  0  0  0  2  0  0  0  0  0  0
  189.0880  178.7220  137.4140 C   0  0  0  0  0  1  0  0  0  0  0  0
  190.7270  176.8890  138.2470 C   0  0  0  0  0  2  0  0  0  0  0  0
  192.1840  176.4950  138.4200 C   0  0  0  0  0  2  0  0  0  0  0  0
  192.7350  175.9100  137.1310 C   0  0  0  0  0  2  0  0  0  0  0  0
  193.2460  174.5000  137.3690 C   0  0  0  0  0  2  0  0  0  0  0  0
  195.1290  173.1480  138.2350 C   0  0  0  0  0  1  0  0  0  0  0  0
  194.5240  174.5370  138.1850 C   0  0  0  0  0  2  0  0  0  0  0  0
  1  6  1  0  0  0  0
  2  3  1  0  0  0  0
  3 10  2  0  0  0  0
  4  1  2  0  0  0  0
  5  9  1  6  0  0  0
  5  7  1  0  0  0  0
  5  8  1  0  0  0  0
  7 11  1  0  0  0  0
  8 13  1  1  0  0  0
  8  2  1  0  0  0  0
 10  1  1  0  0  0  0
 11 12  2  0  0  0  0
 11  3  1  0  0  0  0
 12  4  1  0  0  0  0
 13 15  1  0  0  0  0
 14 13  1  0  0  0  0
 15 16  1  0  0  0  0
 16 18  1  0  0  0  0
 18 19  1  0  0  0  0
 18 17  1  1  0  0  0
 19 20  1  6  0  0  0
 19 21  1  0  0  0  0
 22  5  1  0  0  0  0
 23 22  1  0  0  0  0
 24 23  1  0  0  0  0
 25 24  1  0  0  0  0
 26 27  1  0  0  0  0
 26 23  1  0  0  0  0
 28 29  1  0  0  0  0
 28 27  1  0  0  0  0
 29 31  1  0  0  0  0
 31 30  1  0  0  0  0
M  END
>  <MODEL>
1

>  <REMARK>
 VINA RESULT:      -7.2      0.000      0.000
  Name = 
  13 active torsions:
  status: ('A' for Active; 'I' for Inactive)
    1  A    between atoms: C_1  and  C_11
    2  A    between atoms: C_1  and  C_24
    3  A    between atoms: C_3  and  N_9
    4  A    between atoms: N_5  and  C_10
    5  A    between atoms: N_5  and  C_21
    6  A    between atoms: C_6  and  N_9
    7  A    between atoms: C_6  and  C_19
    8  A    between atoms: C_7  and  N_9
    9  A    between atoms: C_7  and  C_15
   10  A    between atoms: C_10  and  C_18
   11  A    between atoms: C_17  and  C_31
   12  A    between atoms: C_18  and  C_31
   13  A    between atoms: C_19  and  C_24
                            x       y       z     vdW  Elec       q    Type
                         _______ _______ _______ _____ _____    ______ ____

>  <TORSDO>
F 13

$$$$
=
 OpenBabel10272400393D

 31 32  0  0  1  0  0  0  0  0999 V2000
  192.0550  175.9480  146.3990 C   0  0  0  0  0  0  0  0  0  0  0  0
  190.4330  178.3540  143.9480 C   0  0  0  0  0  2  0  0  0  0  0  0
  191.0650  177.1170  144.5240 C   0  0  0  0  0  0  0  0  0  0  0  0
  192.2600  174.8240  145.5920 C   0  0  0  0  0  3  0  0  0  0  0  0
  190.4640  177.2200  141.7310 C   0  0  1  0  0  0  0  0  0  0  0  0
  192.4670  175.9230  147.8270 C   0  0  0  0  0  1  0  0  0  0  0  0
  190.8880  176.0110  142.3650 O   0  0  0  0  0  0  0  0  0  0  0  0
  189.5590  178.0200  142.7150 C   0  0  1  0  0  3  0  0  0  0  0  0
  191.6010  177.9800  141.4370 O   0  0  0  0  0  1  0  0  0  0  0  0
  191.4580  177.0940  145.8670 C   0  0  0  0  0  3  0  0  0  0  0  0
  191.2840  175.9910  143.7080 C   0  0  0  0  0  0  0  0  0  0  0  0
  191.8730  174.8450  144.2480 C   0  0  0  0  0  3  0  0  0  0  0  0
  188.3520  177.2550  143.1160 N   0  0  0  0  0  0  0  0  0  0  0  0
  187.1500  177.8760  142.5740 C   0  0  0  0  0  1  0  0  0  0  0  0
  188.1820  177.1680  144.5790 C   0  0  0  0  0  2  0  0  0  0  0  0
  186.8500  177.7360  145.0880 C   0  0  0  0  0  2  0  0  0  0  0  0
  186.1020  178.8160  147.0630 O   0  0  0  0  0  1  0  0  0  0  0  0
  186.7470  177.6640  146.6070 C   0  0  2  0  0  3  0  0  0  0  0  0
  188.1310  177.5520  147.2520 C   0  0  1  0  0  3  0  0  0  0  0  0
  188.2770  178.5640  148.3740 C   0  0  0  0  0  1  0  0  0  0  0  0
  188.3210  176.2720  147.7740 O   0  0  0  0  0  1  0  0  0  0  0  0
  189.7690  176.8690  140.4120 C   0  0  0  0  0  2  0  0  0  0  0  0
  190.1850  177.7600  139.3270 N   0  0  0  0  0  0  0  0  0  0  0  0
  189.0960  178.6880  138.9980 C   0  0  0  0  0  2  0  0  0  0  0  0
  188.9700  178.9790  137.5020 C   0  0  0  0  0  1  0  0  0  0  0  0
  190.4870  176.9490  138.1500 C   0  0  0  0  0  2  0  0  0  0  0  0
  191.5470  175.9120  138.4790 C   0  0  0  0  0  2  0  0  0  0  0  0
  192.9370  176.5120  138.3570 C   0  0  0  0  0  2  0  0  0  0  0  0
  193.5240  176.2060  136.9900 C   0  0  0  0  0  2  0  0  0  0  0  0
  194.9300  174.5440  138.1680 C   0  0  0  0  0  1  0  0  0  0  0  0
  194.0550  174.7850  136.9550 C   0  0  0  0  0  2  0  0  0  0  0  0
  1  6  1  0  0  0  0
  2  3  1  0  0  0  0
  3 10  2  0  0  0  0
  4  1  2  0  0  0  0
  5  9  1  6  0  0  0
  5  7  1  0  0  0  0
  5  8  1  0  0  0  0
  7 11  1  0  0  0  0
  8 13  1  1  0  0  0
  8  2  1  0  0  0  0
 10  1  1  0  0  0  0
 11 12  2  0  0  0  0
 11  3  1  0  0  0  0
 12  4  1  0  0  0  0
 13 15  1  0  0  0  0
 14 13  1  0  0  0  0
 15 16  1  0  0  0  0
 16 18  1  0  0  0  0
 18 17  1  1  0  0  0
 18 19  1  0  0  0  0
 19 21  1  0  0  0  0
 19 20  1  1  0  0  0
 22  5  1  0  0  0  0
 23 22  1  0  0  0  0
 24 23  1  0  0  0  0
 25 24  1  0  0  0  0
 26 27  1  0  0  0  0
 26 23  1  0  0  0  0
 28 27  1  0  0  0  0
 29 28  1  0  0  0  0
 31 29  1  0  0  0  0
 31 30  1  0  0  0  0
M  END
>  <MODEL>
2

>  <REMARK>
 VINA RESULT:      -7.1      0.872      1.519
  Name = 
  13 active torsions:
  status: ('A' for Active; 'I' for Inactive)
    1  A    between atoms: C_1  and  C_11
    2  A    between atoms: C_1  and  C_24
    3  A    between atoms: C_3  and  N_9
    4  A    between atoms: N_5  and  C_10
    5  A    between atoms: N_5  and  C_21
    6  A    between atoms: C_6  and  N_9
    7  A    between atoms: C_6  and  C_19
    8  A    between atoms: C_7  and  N_9
    9  A    between atoms: C_7  and  C_15
   10  A    between atoms: C_10  and  C_18
   11  A    between atoms: C_17  and  C_31
   12  A    between atoms: C_18  and  C_31
   13  A    between atoms: C_19  and  C_24
                            x       y       z     vdW  Elec       q    Type
                         _______ _______ _______ _____ _____    ______ ____

>  <TORSDO>
F 13

$$$$
=
 OpenBabel10272400393D

 31 32  0  0  1  0  0  0  0  0999 V2000
  192.0390  175.9760  146.3660 C   0  0  0  0  0  0  0  0  0  0  0  0
  190.6900  178.4340  143.8050 C   0  0  0  0  0  2  0  0  0  0  0  0
  191.1900  177.1630  144.4360 C   0  0  0  0  0  0  0  0  0  0  0  0
  192.1400  174.8070  145.6050 C   0  0  0  0  0  3  0  0  0  0  0  0
  190.6330  177.2170  141.6320 C   0  0  1  0  0  0  0  0  0  0  0  0
  192.4310  175.9650  147.8000 C   0  0  0  0  0  1  0  0  0  0  0  0
  190.9280  175.9970  142.3170 O   0  0  0  0  0  0  0  0  0  0  0  0
  189.8000  178.1400  142.5720 C   0  0  1  0  0  3  0  0  0  0  0  0
  191.8430  177.8490  141.3260 O   0  0  0  0  0  1  0  0  0  0  0  0
  191.5650  177.1530  145.7830 C   0  0  0  0  0  3  0  0  0  0  0  0
  191.3050  175.9910  143.6660 C   0  0  0  0  0  0  0  0  0  0  0  0
  191.7720  174.8140  144.2560 C   0  0  0  0  0  3  0  0  0  0  0  0
  188.5190  177.5140  142.9840 N   0  0  0  0  0  0  0  0  0  0  0  0
  187.4020  178.1200  142.2720 C   0  0  0  0  0  1  0  0  0  0  0  0
  188.2480  177.6480  144.4270 C   0  0  0  0  0  2  0  0  0  0  0  0
  186.8000  177.3260  144.8230 C   0  0  0  0  0  2  0  0  0  0  0  0
  185.7150  178.4980  146.5760 O   0  0  0  0  0  1  0  0  0  0  0  0
  186.5860  177.4350  146.3280 C   0  0  2  0  0  3  0  0  0  0  0  0
  187.9100  177.6670  147.0610 C   0  0  1  0  0  3  0  0  0  0  0  0
  187.6980  178.5550  148.2730 C   0  0  0  0  0  1  0  0  0  0  0  0
  188.4500  176.4520  147.4840 O   0  0  0  0  0  1  0  0  0  0  0  0
  189.9200  176.8860  140.3170 C   0  0  0  0  0  2  0  0  0  0  0  0
  190.2860  177.8210  139.2520 N   0  0  0  0  0  0  0  0  0  0  0  0
  189.1110  178.6030  138.8490 C   0  0  0  0  0  2  0  0  0  0  0  0
  187.8470  177.7610  138.6690 C   0  0  0  0  0  1  0  0  0  0  0  0
  190.7610  177.0550  138.1020 C   0  0  0  0  0  2  0  0  0  0  0  0
  190.7310  175.5670  138.4090 C   0  0  0  0  0  2  0  0  0  0  0  0
  190.8080  174.7560  137.1270 C   0  0  0  0  0  2  0  0  0  0  0  0
  189.6740  173.7480  137.0730 C   0  0  0  0  0  2  0  0  0  0  0  0
  187.3270  174.5150  136.9080 C   0  0  0  0  0  1  0  0  0  0  0  0
  188.5910  174.2270  136.1240 C   0  0  0  0  0  2  0  0  0  0  0  0
  1  6  1  0  0  0  0
  2  3  1  0  0  0  0
  3 10  2  0  0  0  0
  4  1  2  0  0  0  0
  5  9  1  6  0  0  0
  5  7  1  0  0  0  0
  5  8  1  0  0  0  0
  7 11  1  0  0  0  0
  8 13  1  1  0  0  0
  8  2  1  0  0  0  0
 10  1  1  0  0  0  0
 11 12  2  0  0  0  0
 11  3  1  0  0  0  0
 12  4  1  0  0  0  0
 13 15  1  0  0  0  0
 14 13  1  0  0  0  0
 15 16  1  0  0  0  0
 16 18  1  0  0  0  0
 18 17  1  6  0  0  0
 18 19  1  0  0  0  0
 19 21  1  0  0  0  0
 19 20  1  1  0  0  0
 22  5  1  0  0  0  0
 23 22  1  0  0  0  0
 24 23  1  0  0  0  0
 25 24  1  0  0  0  0
 26 27  1  0  0  0  0
 26 23  1  0  0  0  0
 28 27  1  0  0  0  0
 29 28  1  0  0  0  0
 31 30  1  0  0  0  0
 31 29  1  0  0  0  0
M  END
>  <MODEL>
3

>  <REMARK>
 VINA RESULT:      -6.7      1.558      2.457
  Name = 
  13 active torsions:
  status: ('A' for Active; 'I' for Inactive)
    1  A    between atoms: C_1  and  C_11
    2  A    between atoms: C_1  and  C_24
    3  A    between atoms: C_3  and  N_9
    4  A    between atoms: N_5  and  C_10
    5  A    between atoms: N_5  and  C_21
    6  A    between atoms: C_6  and  N_9
    7  A    between atoms: C_6  and  C_19
    8  A    between atoms: C_7  and  N_9
    9  A    between atoms: C_7  and  C_15
   10  A    between atoms: C_10  and  C_18
   11  A    between atoms: C_17  and  C_31
   12  A    between atoms: C_18  and  C_31
   13  A    between atoms: C_19  and  C_24
                            x       y       z     vdW  Elec       q    Type
                         _______ _______ _______ _____ _____    ______ ____

>  <TORSDO>
F 13

$$$$
=
 OpenBabel10272400393D

 31 32  0  0  1  0  0  0  0  0999 V2000
  185.1760  178.5310  143.7600 C   0  0  0  0  0  0  0  0  0  0  0  0
  188.3740  176.5690  143.1670 C   0  0  0  0  0  2  0  0  0  0  0  0
  187.2540  177.5570  142.9890 C   0  0  0  0  0  0  0  0  0  0  0  0
  185.1580  179.3780  142.6470 C   0  0  0  0  0  3  0  0  0  0  0  0
  189.2370  177.2940  140.9460 C   0  0  1  0  0  0  0  0  0  0  0  0
  184.0840  178.6010  144.7660 C   0  0  0  0  0  1  0  0  0  0  0  0
  188.2620  178.3400  140.9180 O   0  0  0  0  0  0  0  0  0  0  0  0
  189.6530  177.0250  142.4230 C   0  0  1  0  0  3  0  0  0  0  0  0
  188.6510  176.1380  140.4190 O   0  0  0  0  0  1  0  0  0  0  0  0
  186.2220  177.6210  143.9310 C   0  0  0  0  0  3  0  0  0  0  0  0
  187.2290  178.4000  141.8620 C   0  0  0  0  0  0  0  0  0  0  0  0
  186.1850  179.3140  141.7000 C   0  0  0  0  0  3  0  0  0  0  0  0
  190.2390  178.2270  143.0690 N   0  0  0  0  0  0  0  0  0  0  0  0
  191.6930  178.1930  142.9870 C   0  0  0  0  0  1  0  0  0  0  0  0
  189.8790  178.3500  144.4940 C   0  0  0  0  0  2  0  0  0  0  0  0
  190.9190  177.7520  145.4540 C   0  0  0  0  0  2  0  0  0  0  0  0
  189.4600  177.7440  147.3230 O   0  0  0  0  0  1  0  0  0  0  0  0
  190.2660  176.9110  146.5440 C   0  0  2  0  0  3  0  0  0  0  0  0
  191.3170  176.2310  147.4250 C   0  0  1  0  0  3  0  0  0  0  0  0
  192.2580  175.3920  146.5790 C   0  0  0  0  0  1  0  0  0  0  0  0
  192.0660  177.1880  148.1130 O   0  0  0  0  0  1  0  0  0  0  0  0
  190.4110  177.6880  140.0440 C   0  0  0  0  0  2  0  0  0  0  0  0
  190.2980  177.0870  138.7140 N   0  0  0  0  0  0  0  0  0  0  0  0
  191.6210  176.6520  138.2490 C   0  0  0  0  0  2  0  0  0  0  0  0
  191.6830  175.1710  137.8760 C   0  0  0  0  0  1  0  0  0  0  0  0
  189.7800  178.0940  137.7910 C   0  0  0  0  0  2  0  0  0  0  0  0
  189.0120  177.4300  136.6610 C   0  0  0  0  0  2  0  0  0  0  0  0
  187.7910  176.7040  137.1990 C   0  0  0  0  0  2  0  0  0  0  0  0
  186.5330  177.5010  136.9060 C   0  0  0  0  0  2  0  0  0  0  0  0
  184.4820  178.1040  138.1540 C   0  0  0  0  0  1  0  0  0  0  0  0
  185.9970  178.1230  138.1820 C   0  0  0  0  0  2  0  0  0  0  0  0
  1 10  1  0  0  0  0
  1  6  1  0  0  0  0
  3  2  1  0  0  0  0
  3 10  2  0  0  0  0
  4  1  2  0  0  0  0
  5  9  1  6  0  0  0
  5  8  1  0  0  0  0
  7  5  1  0  0  0  0
  7 11  1  0  0  0  0
  8 13  1  1  0  0  0
  8  2  1  0  0  0  0
 11  3  1  0  0  0  0
 12 11  2  0  0  0  0
 12  4  1  0  0  0  0
 13 15  1  0  0  0  0
 14 13  1  0  0  0  0
 15 16  1  0  0  0  0
 16 18  1  0  0  0  0
 18 17  1  1  0  0  0
 18 19  1  0  0  0  0
 19 20  1  6  0  0  0
 19 21  1  0  0  0  0
 22  5  1  0  0  0  0
 23 22  1  0  0  0  0
 24 23  1  0  0  0  0
 25 24  1  0  0  0  0
 26 23  1  0  0  0  0
 27 28  1  0  0  0  0
 27 26  1  0  0  0  0
 29 28  1  0  0  0  0
 29 31  1  0  0  0  0
 30 31  1  0  0  0  0
M  END
>  <MODEL>
4

>  <REMARK>
 VINA RESULT:      -6.5      2.121      5.704
  Name = 
  13 active torsions:
  status: ('A' for Active; 'I' for Inactive)
    1  A    between atoms: C_1  and  C_11
    2  A    between atoms: C_1  and  C_24
    3  A    between atoms: C_3  and  N_9
    4  A    between atoms: N_5  and  C_10
    5  A    between atoms: N_5  and  C_21
    6  A    between atoms: C_6  and  N_9
    7  A    between atoms: C_6  and  C_19
    8  A    between atoms: C_7  and  N_9
    9  A    between atoms: C_7  and  C_15
   10  A    between atoms: C_10  and  C_18
   11  A    between atoms: C_17  and  C_31
   12  A    between atoms: C_18  and  C_31
   13  A    between atoms: C_19  and  C_24
                            x       y       z     vdW  Elec       q    Type
                         _______ _______ _______ _____ _____    ______ ____

>  <TORSDO>
F 13

$$$$
=
 OpenBabel10272400393D

 31 32  0  0  1  0  0  0  0  0999 V2000
  191.3930  176.3800  146.1920 C   0  0  0  0  0  0  0  0  0  0  0  0
  189.4650  175.7920  142.9730 C   0  0  0  0  0  2  0  0  0  0  0  0
  189.9180  176.3980  144.2740 C   0  0  0  0  0  0  0  0  0  0  0  0
  190.7470  177.5110  146.7030 C   0  0  0  0  0  3  0  0  0  0  0  0
  187.6120  177.4570  142.9550 C   0  0  1  0  0  0  0  0  0  0  0  0
  192.5260  175.7720  146.9380 C   0  0  0  0  0  1  0  0  0  0  0  0
  188.1960  178.1060  144.0870 O   0  0  0  0  0  0  0  0  0  0  0  0
  188.7450  176.8360  142.0840 C   0  0  1  0  0  3  0  0  0  0  0  0
  186.7810  176.4320  143.4210 O   0  0  0  0  0  1  0  0  0  0  0  0
  190.9800  175.8230  144.9790 C   0  0  0  0  0  3  0  0  0  0  0  0
  189.2580  177.5270  144.7940 C   0  0  0  0  0  0  0  0  0  0  0  0
  189.6810  178.0840  146.0030 C   0  0  0  0  0  3  0  0  0  0  0  0
  189.7020  177.8590  141.5940 N   0  0  0  0  0  0  0  0  0  0  0  0
  189.1140  178.6260  140.5030 C   0  0  0  0  0  1  0  0  0  0  0  0
  190.9640  177.2810  141.0970 C   0  0  0  0  0  2  0  0  0  0  0  0
  191.1270  177.3560  139.5720 C   0  0  0  0  0  2  0  0  0  0  0  0
  193.4760  177.1500  139.3170 O   0  0  0  0  0  1  0  0  0  0  0  0
  192.2740  176.4800  139.0810 C   0  0  2  0  0  3  0  0  0  0  0  0
  192.1350  176.1710  137.5880 C   0  0  1  0  0  3  0  0  0  0  0  0
  192.3610  174.6920  137.3280 C   0  0  0  0  0  1  0  0  0  0  0  0
  190.8600  176.5160  137.1370 O   0  0  0  0  0  1  0  0  0  0  0  0
  186.7460  178.4670  142.1970 C   0  0  0  0  0  2  0  0  0  0  0  0
  185.3210  178.2750  142.4740 N   0  0  0  0  0  0  0  0  0  0  0  0
  184.5950  178.0500  141.2170 C   0  0  0  0  0  2  0  0  0  0  0  0
  184.8750  179.1100  140.1500 C   0  0  0  0  0  1  0  0  0  0  0  0
  184.8030  179.4840  143.1090 C   0  0  0  0  0  2  0  0  0  0  0  0
  185.1240  179.4810  144.5940 C   0  0  0  0  0  2  0  0  0  0  0  0
  184.0240  178.7860  145.3770 C   0  0  0  0  0  2  0  0  0  0  0  0
  184.5400  178.3490  146.7360 C   0  0  0  0  0  2  0  0  0  0  0  0
  186.7320  178.8340  147.7780 C   0  0  0  0  0  1  0  0  0  0  0  0
  186.0310  178.0770  146.6680 C   0  0  0  0  0  2  0  0  0  0  0  0
  1  4  1  0  0  0  0
  1  6  1  0  0  0  0
  2  3  1  0  0  0  0
  3 11  2  0  0  0  0
  3 10  1  0  0  0  0
  5  9  1  1  0  0  0
  5  7  1  0  0  0  0
  7 11  1  0  0  0  0
  8 13  1  1  0  0  0
  8  5  1  0  0  0  0
  8  2  1  0  0  0  0
 10  1  2  0  0  0  0
 11 12  1  0  0  0  0
 12  4  2  0  0  0  0
 14 13  1  0  0  0  0
 15 13  1  0  0  0  0
 16 15  1  0  0  0  0
 18 17  1  6  0  0  0
 18 16  1  0  0  0  0
 19 20  1  1  0  0  0
 19 18  1  0  0  0  0
 21 19  1  0  0  0  0
 22 23  1  0  0  0  0
 22  5  1  0  0  0  0
 23 26  1  0  0  0  0
 24 23  1  0  0  0  0
 25 24  1  0  0  0  0
 26 27  1  0  0  0  0
 27 28  1  0  0  0  0
 28 29  1  0  0  0  0
 31 29  1  0  0  0  0
 31 30  1  0  0  0  0
M  END
>  <MODEL>
5

>  <REMARK>
 VINA RESULT:      -5.9      2.073      7.477
  Name = 
  13 active torsions:
  status: ('A' for Active; 'I' for Inactive)
    1  A    between atoms: C_1  and  C_11
    2  A    between atoms: C_1  and  C_24
    3  A    between atoms: C_3  and  N_9
    4  A    between atoms: N_5  and  C_10
    5  A    between atoms: N_5  and  C_21
    6  A    between atoms: C_6  and  N_9
    7  A    between atoms: C_6  and  C_19
    8  A    between atoms: C_7  and  N_9
    9  A    between atoms: C_7  and  C_15
   10  A    between atoms: C_10  and  C_18
   11  A    between atoms: C_17  and  C_31
   12  A    between atoms: C_18  and  C_31
   13  A    between atoms: C_19  and  C_24
                            x       y       z     vdW  Elec       q    Type
                         _______ _______ _______ _____ _____    ______ ____

>  <TORSDO>
F 13

$$$$
=
 OpenBabel10272400393D

 31 32  0  0  1  0  0  0  0  0999 V2000
  191.0760  174.5260  137.1320 C   0  0  0  0  0  0  0  0  0  0  0  0
  189.8330  177.9670  138.1520 C   0  0  0  0  0  2  0  0  0  0  0  0
  189.8470  176.5330  137.6980 C   0  0  0  0  0  0  0  0  0  0  0  0
  189.8750  173.8730  136.8330 C   0  0  0  0  0  3  0  0  0  0  0  0
  187.3730  177.9660  137.7600 C   0  0  1  0  0  0  0  0  0  0  0  0
  192.3680  173.8040  136.9960 C   0  0  0  0  0  1  0  0  0  0  0  0
  187.4210  176.5580  137.5190 O   0  0  0  0  0  0  0  0  0  0  0  0
  188.4760  178.3430  138.7950 C   0  0  1  0  0  3  0  0  0  0  0  0
  187.6360  178.6240  136.5530 O   0  0  0  0  0  1  0  0  0  0  0  0
  191.0620  175.8540  137.5640 C   0  0  0  0  0  3  0  0  0  0  0  0
  188.6390  175.8810  137.3830 C   0  0  0  0  0  0  0  0  0  0  0  0
  188.6580  174.5500  136.9590 C   0  0  0  0  0  3  0  0  0  0  0  0
  188.2940  177.6410  140.0900 N   0  0  0  0  0  0  0  0  0  0  0  0
  187.5810  178.4900  141.0350 C   0  0  0  0  0  1  0  0  0  0  0  0
  189.5680  177.2510  140.7210 C   0  0  0  0  0  2  0  0  0  0  0  0
  189.7730  177.8340  142.1270 C   0  0  0  0  0  2  0  0  0  0  0  0
  190.2140  175.5300  142.4730 O   0  0  0  0  0  1  0  0  0  0  0  0
  190.1810  176.7620  143.1300 C   0  0  2  0  0  3  0  0  0  0  0  0
  189.2000  176.7000  144.3040 C   0  0  1  0  0  3  0  0  0  0  0  0
  189.1140  178.0480  144.9960 C   0  0  0  0  0  1  0  0  0  0  0  0
  187.9270  176.3440  143.8550 O   0  0  0  0  0  1  0  0  0  0  0  0
  185.9590  178.3430  138.2120 C   0  0  0  0  0  2  0  0  0  0  0  0
  184.9910  177.2900  137.9000 N   0  0  0  0  0  0  0  0  0  0  0  0
  184.4230  177.5150  136.5640 C   0  0  0  0  0  2  0  0  0  0  0  0
  183.9490  176.2330  135.8770 C   0  0  0  0  0  1  0  0  0  0  0  0
  183.9150  177.3410  138.8860 C   0  0  0  0  0  2  0  0  0  0  0  0
  184.1080  178.5220  139.8210 C   0  0  0  0  0  2  0  0  0  0  0  0
  183.3190  178.3230  141.1030 C   0  0  0  0  0  2  0  0  0  0  0  0
  184.2620  178.1310  142.2770 C   0  0  0  0  0  2  0  0  0  0  0  0
  182.3330  178.9010  143.6240 C   0  0  0  0  0  1  0  0  0  0  0  0
  183.8340  179.0050  143.4420 C   0  0  0  0  0  2  0  0  0  0  0  0
  1 10  1  0  0  0  0
  2  8  1  0  0  0  0
  3  2  1  0  0  0  0
  4 12  1  0  0  0  0
  4  1  2  0  0  0  0
  5  9  1  6  0  0  0
  5 22  1  0  0  0  0
  5  8  1  0  0  0  0
  6  1  1  0  0  0  0
  7  5  1  0  0  0  0
  8 13  1  1  0  0  0
 10  3  2  0  0  0  0
 11  7  1  0  0  0  0
 11  3  1  0  0  0  0
 12 11  2  0  0  0  0
 13 15  1  0  0  0  0
 13 14  1  0  0  0  0
 15 16  1  0  0  0  0
 16 18  1  0  0  0  0
 18 17  1  6  0  0  0
 18 19  1  0  0  0  0
 19 20  1  6  0  0  0
 21 19  1  0  0  0  0
 23 22  1  0  0  0  0
 23 26  1  0  0  0  0
 24 23  1  0  0  0  0
 25 24  1  0  0  0  0
 26 27  1  0  0  0  0
 27 28  1  0  0  0  0
 28 29  1  0  0  0  0
 29 31  1  0  0  0  0
 31 30  1  0  0  0  0
M  END
>  <MODEL>
6

>  <REMARK>
 VINA RESULT:      -5.8      3.207      7.454
  Name = 
  13 active torsions:
  status: ('A' for Active; 'I' for Inactive)
    1  A    between atoms: C_1  and  C_11
    2  A    between atoms: C_1  and  C_24
    3  A    between atoms: C_3  and  N_9
    4  A    between atoms: N_5  and  C_10
    5  A    between atoms: N_5  and  C_21
    6  A    between atoms: C_6  and  N_9
    7  A    between atoms: C_6  and  C_19
    8  A    between atoms: C_7  and  N_9
    9  A    between atoms: C_7  and  C_15
   10  A    between atoms: C_10  and  C_18
   11  A    between atoms: C_17  and  C_31
   12  A    between atoms: C_18  and  C_31
   13  A    between atoms: C_19  and  C_24
                            x       y       z     vdW  Elec       q    Type
                         _______ _______ _______ _____ _____    ______ ____

>  <TORSDO>
F 13

$$$$
=
 OpenBabel10272400393D

 31 32  0  0  1  0  0  0  0  0999 V2000
  192.7510  176.5350  138.3030 C   0  0  0  0  0  0  0  0  0  0  0  0
  189.4290  176.1530  140.1040 C   0  0  0  0  0  2  0  0  0  0  0  0
  190.8450  176.5550  139.7950 C   0  0  0  0  0  0  0  0  0  0  0  0
  193.4850  177.2850  139.2270 C   0  0  0  0  0  3  0  0  0  0  0  0
  189.7360  177.1680  142.3580 C   0  0  1  0  0  0  0  0  0  0  0  0
  193.3720  176.1300  137.0140 C   0  0  0  0  0  1  0  0  0  0  0  0
  191.0010  177.6880  141.9420 O   0  0  0  0  0  0  0  0  0  0  0  0
  188.7790  177.1140  141.1290 C   0  0  1  0  0  3  0  0  0  0  0  0
  189.9340  175.8700  142.8390 O   0  0  0  0  0  1  0  0  0  0  0  0
  191.4320  176.1700  138.5850 C   0  0  0  0  0  3  0  0  0  0  0  0
  191.5880  177.2980  140.7320 C   0  0  0  0  0  0  0  0  0  0  0  0
  192.9030  177.6670  140.4400 C   0  0  0  0  0  3  0  0  0  0  0  0
  188.5600  178.4540  140.5280 N   0  0  0  0  0  0  0  0  0  0  0  0
  187.3500  179.0620  141.0640 C   0  0  0  0  0  1  0  0  0  0  0  0
  188.4220  178.4140  139.0600 C   0  0  0  0  0  2  0  0  0  0  0  0
  186.9740  178.2600  138.5740 C   0  0  0  0  0  2  0  0  0  0  0  0
  186.0490  176.7340  137.0120 O   0  0  0  0  0  1  0  0  0  0  0  0
  186.9100  177.8290  137.1130 C   0  0  2  0  0  3  0  0  0  0  0  0
  188.2960  177.4510  136.5860 C   0  0  1  0  0  3  0  0  0  0  0  0
  188.4410  175.9420  136.5070 C   0  0  0  0  0  1  0  0  0  0  0  0
  188.4940  177.9870  135.3120 O   0  0  0  0  0  1  0  0  0  0  0  0
  189.2020  178.0280  143.5080 C   0  0  0  0  0  2  0  0  0  0  0  0
  188.4910  177.2220  144.5020 N   0  0  0  0  0  0  0  0  0  0  0  0
  187.0630  177.1630  144.1680 C   0  0  0  0  0  2  0  0  0  0  0  0
  186.1880  178.0460  145.0580 C   0  0  0  0  0  1  0  0  0  0  0  0
  188.6450  177.8550  145.8100 C   0  0  0  0  0  2  0  0  0  0  0  0
  189.2410  176.8760  146.8060 C   0  0  0  0  0  2  0  0  0  0  0  0
  190.6850  177.2360  147.1100 C   0  0  0  0  0  2  0  0  0  0  0  0
  191.6180  176.5360  146.1390 C   0  0  0  0  0  2  0  0  0  0  0  0
  192.7210  175.7840  148.2230 C   0  0  0  0  0  1  0  0  0  0  0  0
  192.3100  175.3720  146.8240 C   0  0  0  0  0  2  0  0  0  0  0  0
  1 10  2  0  0  0  0
  1  4  1  0  0  0  0
  2  8  1  0  0  0  0
  3  2  1  0  0  0  0
  3 11  2  0  0  0  0
  4 12  2  0  0  0  0
  5  9  1  1  0  0  0
  5 22  1  0  0  0  0
  6  1  1  0  0  0  0
  7  5  1  0  0  0  0
  8 13  1  6  0  0  0
  8  5  1  0  0  0  0
 10  3  1  0  0  0  0
 11  7  1  0  0  0  0
 12 11  1  0  0  0  0
 13 14  1  0  0  0  0
 15 13  1  0  0  0  0
 16 15  1  0  0  0  0
 18 17  1  1  0  0  0
 18 16  1  0  0  0  0
 19 20  1  6  0  0  0
 19 18  1  0  0  0  0
 21 19  1  0  0  0  0
 22 23  1  0  0  0  0
 23 26  1  0  0  0  0
 24 23  1  0  0  0  0
 24 25  1  0  0  0  0
 26 27  1  0  0  0  0
 27 28  1  0  0  0  0
 29 31  1  0  0  0  0
 29 28  1  0  0  0  0
 31 30  1  0  0  0  0
M  END
>  <MODEL>
7

>  <REMARK>
 VINA RESULT:      -5.7      2.326      7.358
  Name = 
  13 active torsions:
  status: ('A' for Active; 'I' for Inactive)
    1  A    between atoms: C_1  and  C_11
    2  A    between atoms: C_1  and  C_24
    3  A    between atoms: C_3  and  N_9
    4  A    between atoms: N_5  and  C_10
    5  A    between atoms: N_5  and  C_21
    6  A    between atoms: C_6  and  N_9
    7  A    between atoms: C_6  and  C_19
    8  A    between atoms: C_7  and  N_9
    9  A    between atoms: C_7  and  C_15
   10  A    between atoms: C_10  and  C_18
   11  A    between atoms: C_17  and  C_31
   12  A    between atoms: C_18  and  C_31
   13  A    between atoms: C_19  and  C_24
                            x       y       z     vdW  Elec       q    Type
                         _______ _______ _______ _____ _____    ______ ____

>  <TORSDO>
F 13

$$$$
=
 OpenBabel10272400393D

 31 32  0  0  1  0  0  0  0  0999 V2000
  186.9810  178.0170  147.2740 C   0  0  0  0  0  0  0  0  0  0  0  0
  186.8470  176.7560  143.6940 C   0  0  0  0  0  2  0  0  0  0  0  0
  186.6740  177.6320  144.9040 C   0  0  0  0  0  0  0  0  0  0  0  0
  186.3350  179.2530  147.1590 C   0  0  0  0  0  3  0  0  0  0  0  0
  185.5070  178.4220  142.4160 C   0  0  1  0  0  0  0  0  0  0  0  0
  187.4930  177.5670  148.5950 C   0  0  0  0  0  1  0  0  0  0  0  0
  185.5360  179.2980  143.5450 O   0  0  0  0  0  0  0  0  0  0  0  0
  186.8220  177.5850  142.3870 C   0  0  1  0  0  3  0  0  0  0  0  0
  184.4180  177.5560  142.5650 O   0  0  0  0  0  1  0  0  0  0  0  0
  187.1510  177.2070  146.1480 C   0  0  0  0  0  3  0  0  0  0  0  0
  186.0120  178.8690  144.7900 C   0  0  0  0  0  0  0  0  0  0  0  0
  185.8520  179.6790  145.9170 C   0  0  0  0  0  3  0  0  0  0  0  0
  188.0300  178.4410  142.2820 N   0  0  0  0  0  0  0  0  0  0  0  0
  188.2840  178.7970  140.8930 C   0  0  0  0  0  1  0  0  0  0  0  0
  189.2470  177.7890  142.8010 C   0  0  0  0  0  2  0  0  0  0  0  0
  189.8940  178.5250  143.9830 C   0  0  0  0  0  2  0  0  0  0  0  0
  191.8670  177.9250  142.8120 O   0  0  0  0  0  1  0  0  0  0  0  0
  191.3850  178.2290  144.0870 C   0  0  2  0  0  3  0  0  0  0  0  0
  191.6530  177.0570  145.0360 C   0  0  1  0  0  3  0  0  0  0  0  0
  190.6770  177.0830  146.1990 C   0  0  0  0  0  1  0  0  0  0  0  0
  191.5140  175.8440  144.3610 O   0  0  0  0  0  1  0  0  0  0  0  0
  185.2860  179.2530  141.1490 C   0  0  0  0  0  2  0  0  0  0  0  0
  184.5760  178.4940  140.1190 N   0  0  0  0  0  0  0  0  0  0  0  0
  185.3930  178.4180  138.9020 C   0  0  0  0  0  2  0  0  0  0  0  0
  184.8400  177.4530  137.8520 C   0  0  0  0  0  1  0  0  0  0  0  0
  183.3280  179.1870  139.8080 C   0  0  0  0  0  2  0  0  0  0  0  0
  182.1620  178.5270  140.5240 C   0  0  0  0  0  2  0  0  0  0  0  0
  181.0190  179.5100  140.7030 C   0  0  0  0  0  2  0  0  0  0  0  0
  179.9930  178.9540  141.6740 C   0  0  0  0  0  2  0  0  0  0  0  0
  180.0740  178.4240  144.0910 C   0  0  0  0  0  1  0  0  0  0  0  0
  180.2210  179.5260  143.0610 C   0  0  0  0  0  2  0  0  0  0  0  0
  1  6  1  0  0  0  0
  2  3  1  0  0  0  0
  3 10  1  0  0  0  0
  4  1  1  0  0  0  0
  5  9  1  1  0  0  0
  5  7  1  0  0  0  0
  7 11  1  0  0  0  0
  8 13  1  1  0  0  0
  8  5  1  0  0  0  0
  8  2  1  0  0  0  0
 10  1  2  0  0  0  0
 11  3  2  0  0  0  0
 11 12  1  0  0  0  0
 12  4  2  0  0  0  0
 13 15  1  0  0  0  0
 14 13  1  0  0  0  0
 15 16  1  0  0  0  0
 16 18  1  0  0  0  0
 18 17  1  6  0  0  0
 18 19  1  0  0  0  0
 19 20  1  1  0  0  0
 21 19  1  0  0  0  0
 22  5  1  0  0  0  0
 23 22  1  0  0  0  0
 24 23  1  0  0  0  0
 25 24  1  0  0  0  0
 26 23  1  0  0  0  0
 26 27  1  0  0  0  0
 27 28  1  0  0  0  0
 28 29  1  0  0  0  0
 29 31  1  0  0  0  0
 31 30  1  0  0  0  0
M  END
>  <MODEL>
8

>  <REMARK>
 VINA RESULT:      -5.7      3.542      7.691
  Name = 
  13 active torsions:
  status: ('A' for Active; 'I' for Inactive)
    1  A    between atoms: C_1  and  C_11
    2  A    between atoms: C_1  and  C_24
    3  A    between atoms: C_3  and  N_9
    4  A    between atoms: N_5  and  C_10
    5  A    between atoms: N_5  and  C_21
    6  A    between atoms: C_6  and  N_9
    7  A    between atoms: C_6  and  C_19
    8  A    between atoms: C_7  and  N_9
    9  A    between atoms: C_7  and  C_15
   10  A    between atoms: C_10  and  C_18
   11  A    between atoms: C_17  and  C_31
   12  A    between atoms: C_18  and  C_31
   13  A    between atoms: C_19  and  C_24
                            x       y       z     vdW  Elec       q    Type
                         _______ _______ _______ _____ _____    ______ ____

>  <TORSDO>
F 13

$$$$
=
 OpenBabel10272400393D

 31 32  0  0  1  0  0  0  0  0999 V2000
  191.1590  175.8490  138.3560 C   0  0  0  0  0  0  0  0  0  0  0  0
  190.3410  178.0230  141.3610 C   0  0  0  0  0  2  0  0  0  0  0  0
  190.1880  177.2200  140.0990 C   0  0  0  0  0  0  0  0  0  0  0  0
  189.9080  175.7440  137.7390 C   0  0  0  0  0  3  0  0  0  0  0  0
  187.9510  178.6820  141.1170 C   0  0  1  0  0  0  0  0  0  0  0  0
  192.3410  175.1710  137.7610 C   0  0  0  0  0  1  0  0  0  0  0  0
  187.8160  177.7580  140.0350 O   0  0  0  0  0  0  0  0  0  0  0  0
  189.0010  178.1310  142.1290 C   0  0  1  0  0  3  0  0  0  0  0  0
  188.4120  179.8970  140.5980 O   0  0  0  0  0  1  0  0  0  0  0  0
  191.3000  176.5860  139.5350 C   0  0  0  0  0  3  0  0  0  0  0  0
  188.9320  177.1270  139.4700 C   0  0  0  0  0  0  0  0  0  0  0  0
  188.7950  176.3820  138.2970 C   0  0  0  0  0  3  0  0  0  0  0  0
  188.6050  176.8130  142.6860 N   0  0  0  0  0  0  0  0  0  0  0  0
  187.4330  176.9500  143.5390 C   0  0  0  0  0  1  0  0  0  0  0  0
  189.6670  176.1840  143.4930 C   0  0  0  0  0  2  0  0  0  0  0  0
  189.8950  176.8540  144.8560 C   0  0  0  0  0  2  0  0  0  0  0  0
  191.9220  175.6520  144.5900 O   0  0  0  0  0  1  0  0  0  0  0  0
  191.3220  176.6560  145.3540 C   0  0  2  0  0  3  0  0  0  0  0  0
  191.3440  176.2660  146.8340 C   0  0  1  0  0  3  0  0  0  0  0  0
  192.5370  175.3760  147.1310 C   0  0  0  0  0  1  0  0  0  0  0  0
  191.4250  177.4070  147.6350 O   0  0  0  0  0  1  0  0  0  0  0  0
  186.5720  178.9210  141.7390 C   0  0  0  0  0  2  0  0  0  0  0  0
  185.5110  178.2650  140.9740 N   0  0  0  0  0  0  0  0  0  0  0  0
  185.2530  179.0130  139.7370 C   0  0  0  0  0  2  0  0  0  0  0  0
  183.7780  179.3550  139.5250 C   0  0  0  0  0  1  0  0  0  0  0  0
  184.2940  178.2520  141.7820 C   0  0  0  0  0  2  0  0  0  0  0  0
  184.4630  179.1330  143.0080 C   0  0  0  0  0  2  0  0  0  0  0  0
  183.3070  178.9330  143.9720 C   0  0  0  0  0  2  0  0  0  0  0  0
  183.8290  178.6150  145.3620 C   0  0  0  0  0  2  0  0  0  0  0  0
  185.7810  178.7410  146.8780 C   0  0  0  0  0  1  0  0  0  0  0  0
  185.2250  179.1820  145.5390 C   0  0  0  0  0  2  0  0  0  0  0  0
  1 10  1  0  0  0  0
  2  8  1  0  0  0  0
  3  2  1  0  0  0  0
  4 12  1  0  0  0  0
  4  1  2  0  0  0  0
  5  9  1  6  0  0  0
  5 22  1  0  0  0  0
  5  8  1  0  0  0  0
  6  1  1  0  0  0  0
  7  5  1  0  0  0  0
  8 13  1  6  0  0  0
 10  3  2  0  0  0  0
 11  7  1  0  0  0  0
 11  3  1  0  0  0  0
 12 11  2  0  0  0  0
 13 15  1  0  0  0  0
 13 14  1  0  0  0  0
 15 16  1  0  0  0  0
 16 18  1  0  0  0  0
 18 17  1  6  0  0  0
 18 19  1  0  0  0  0
 19 20  1  6  0  0  0
 19 21  1  0  0  0  0
 23 22  1  0  0  0  0
 23 26  1  0  0  0  0
 24 23  1  0  0  0  0
 25 24  1  0  0  0  0
 26 27  1  0  0  0  0
 27 28  1  0  0  0  0
 28 29  1  0  0  0  0
 29 31  1  0  0  0  0
 31 30  1  0  0  0  0
M  END
>  <MODEL>
9

>  <REMARK>
 VINA RESULT:      -5.7      2.299      7.155
  Name = 
  13 active torsions:
  status: ('A' for Active; 'I' for Inactive)
    1  A    between atoms: C_1  and  C_11
    2  A    between atoms: C_1  and  C_24
    3  A    between atoms: C_3  and  N_9
    4  A    between atoms: N_5  and  C_10
    5  A    between atoms: N_5  and  C_21
    6  A    between atoms: C_6  and  N_9
    7  A    between atoms: C_6  and  C_19
    8  A    between atoms: C_7  and  N_9
    9  A    between atoms: C_7  and  C_15
   10  A    between atoms: C_10  and  C_18
   11  A    between atoms: C_17  and  C_31
   12  A    between atoms: C_18  and  C_31
   13  A    between atoms: C_19  and  C_24
                            x       y       z     vdW  Elec       q    Type
                         _______ _______ _______ _____ _____    ______ ____

>  <TORSDO>
F 13

$$$$
