=
 OpenBabel10272413433D

 30 32  0  0  1  0  0  0  0  0999 V2000
  184.8860  177.6350  138.5570 C   0  0  1  0  0  3  0  0  0  0  0  0
  184.8280  176.3830  137.6210 C   0  0  2  0  0  3  0  0  0  0  0  0
  185.7720  178.6840  138.0590 N   0  0  0  0  0  2  0  0  0  0  0  0
  188.4690  176.4750  136.7000 C   0  0  0  0  0  2  0  0  0  0  0  0
  187.1150  177.2040  136.7080 C   0  0  2  0  0  3  0  0  0  0  0  0
  188.0910  179.0520  137.8940 O   0  0  0  0  0  0  0  0  0  0  0  0
  187.0810  178.0770  137.9590 C   0  0  1  0  0  3  0  0  0  0  0  0
  185.9840  176.2590  136.6910 N   0  0  0  0  0  0  0  0  0  0  0  0
  189.6060  177.4790  136.8730 C   0  0  0  0  0  2  0  0  0  0  0  0
  189.3010  178.3660  138.0810 C   0  0  0  0  0  2  0  0  0  0  0  0
  186.4620  175.3270  134.5680 N   0  0  0  0  0  2  0  0  0  0  0  0
  186.0480  175.1480  135.7840 C   0  0  0  0  0  0  0  0  0  0  0  0
  183.1330  177.8310  140.3840 C   0  0  1  0  0  3  0  0  0  0  0  0
  182.1550  178.8620  140.9650 C   0  0  0  0  0  2  0  0  0  0  0  0
  182.5100  176.5840  140.3700 O   0  0  0  0  0  1  0  0  0  0  0  0
  183.4360  179.7150  138.7080 C   0  0  0  0  0  2  0  0  0  0  0  0
  181.2600  180.6130  137.9140 C   0  0  0  0  0  1  0  0  0  0  0  0
  183.5170  178.2030  138.9480 C   0  0  1  0  0  3  0  0  0  0  0  0
  181.3110  179.3610  139.9480 O   0  0  0  0  0  0  0  0  0  0  0  0
  182.0620  180.2680  139.1520 C   0  0  1  0  0  3  0  0  0  0  0  0
  185.6910  173.8750  136.2290 O   0  0  0  0  0  0  0  0  0  0  0  0
  186.4770  173.1470  137.1630 C   0  0  0  0  0  1  0  0  0  0  0  0
  183.4210  176.1070  136.9900 C   0  0  1  0  0  3  0  0  0  0  0  0
  182.1310  177.7340  135.6050 C   0  0  0  0  0  1  0  0  0  0  0  0
  183.1520  176.6020  135.5590 C   0  0  2  0  0  3  0  0  0  0  0  0
  182.6560  175.5670  134.7580 O   0  0  0  0  0  0  0  0  0  0  0  0
  181.4030  176.0140  134.3470 C   0  0  0  0  0  1  0  0  0  0  0  0
  182.8650  174.7080  137.2900 C   0  0  0  0  0  2  0  0  0  0  0  0
  181.4290  174.7370  137.8080 C   0  0  0  0  0  2  0  0  0  0  0  0
  180.6920  173.5110  137.3080 C   0  0  0  0  0  1  0  0  0  0  0  0
  1  3  1  6  0  0  0
  1 18  1  0  0  0  0
  2 23  1  6  0  0  0
  2  1  1  0  0  0  0
  4  9  1  0  0  0  0
  5  4  1  1  0  0  0
  5  7  1  0  0  0  0
  6 10  1  0  0  0  0
  7  6  1  6  0  0  0
  7  3  1  0  0  0  0
  8  5  1  0  0  0  0
  8  2  1  0  0  0  0
  9 10  1  0  0  0  0
 11 12  2  0  0  0  0
 12 21  1  0  0  0  0
 12  8  1  0  0  0  0
 13 15  1  6  0  0  0
 13 14  1  0  0  0  0
 16 20  1  0  0  0  0
 18 16  1  1  0  0  0
 18 13  1  0  0  0  0
 19 14  1  0  0  0  0
 20 17  1  6  0  0  0
 20 19  1  0  0  0  0
 21 22  1  0  0  0  0
 23 28  1  6  0  0  0
 25 24  1  1  0  0  0
 25 23  1  0  0  0  0
 26 25  1  0  0  0  0
 27 26  1  0  0  0  0
 28 29  1  0  0  0  0
 30 29  1  0  0  0  0
M  END
>  <MODEL>
1

>  <REMARK>
 VINA RESULT:      -4.1      0.000      0.000
  Name = 
  7 active torsions:
  status: ('A' for Active; 'I' for Inactive)
    1  A    between atoms: C_1  and  C_22
    2  A    between atoms: C_4  and  C_23
    3  A    between atoms: O_7  and  C_30
    4  A    between atoms: C_10  and  C_15
    5  A    between atoms: C_10  and  C_23
    6  A    between atoms: O_11  and  C_25
    7  A    between atoms: C_23  and  C_25
                            x       y       z     vdW  Elec       q    Type
                         _______ _______ _______ _____ _____    ______ ____

>  <TORSDO>
F 7

$$$$
=
 OpenBabel10272413433D

 30 32  0  0  1  0  0  0  0  0999 V2000
  189.6530  173.7420  136.4150 C   0  0  1  0  0  3  0  0  0  0  0  0
  188.3170  174.5420  136.5670 C   0  0  2  0  0  3  0  0  0  0  0  0
  189.6650  172.8590  135.2520 N   0  0  0  0  0  2  0  0  0  0  0  0
  186.1020  171.7280  135.4300 C   0  0  0  0  0  2  0  0  0  0  0  0
  187.2640  172.6800  135.0980 C   0  0  2  0  0  3  0  0  0  0  0  0
  188.6950  170.8060  134.6320 O   0  0  0  0  0  0  0  0  0  0  0  0
  188.5580  171.9470  135.4400 C   0  0  1  0  0  3  0  0  0  0  0  0
  187.1620  173.9490  135.8390 N   0  0  0  0  0  0  0  0  0  0  0  0
  186.3270  170.3730  134.7640 C   0  0  0  0  0  2  0  0  0  0  0  0
  187.7390  169.8880  135.0960 C   0  0  0  0  0  2  0  0  0  0  0  0
  185.1360  174.6630  134.8450 N   0  0  0  0  0  2  0  0  0  0  0  0
  185.8790  174.5900  135.9050 C   0  0  0  0  0  0  0  0  0  0  0  0
  191.6170  174.5010  137.8350 C   0  0  1  0  0  3  0  0  0  0  0  0
  193.1160  174.8020  137.6980 C   0  0  0  0  0  2  0  0  0  0  0  0
  191.0510  175.4410  138.6950 O   0  0  0  0  0  1  0  0  0  0  0  0
  191.8770  174.2880  135.3170 C   0  0  0  0  0  2  0  0  0  0  0  0
  193.1340  176.1980  134.3460 C   0  0  0  0  0  1  0  0  0  0  0  0
  190.9210  174.6020  136.4740 C   0  0  1  0  0  3  0  0  0  0  0  0
  193.3300  175.7670  136.6890 O   0  0  0  0  0  0  0  0  0  0  0  0
  193.1660  175.1360  135.4250 C   0  0  1  0  0  3  0  0  0  0  0  0
  185.4280  175.1030  137.1220 O   0  0  0  0  0  0  0  0  0  0  0  0
  184.5870  176.2460  137.2000 C   0  0  0  0  0  1  0  0  0  0  0  0
  188.4710  176.0960  136.4400 C   0  0  1  0  0  3  0  0  0  0  0  0
  189.4590  177.0270  134.3460 C   0  0  0  0  0  1  0  0  0  0  0  0
  188.1540  176.7520  135.0860 C   0  0  2  0  0  3  0  0  0  0  0  0
  187.4640  177.9570  135.2650 O   0  0  0  0  0  0  0  0  0  0  0  0
  186.4100  177.8950  134.3570 C   0  0  0  0  0  1  0  0  0  0  0  0
  187.9570  176.8760  137.6570 C   0  0  0  0  0  2  0  0  0  0  0  0
  188.9040  177.9920  138.0920 C   0  0  0  0  0  2  0  0  0  0  0  0
  188.6210  178.3540  139.5360 C   0  0  0  0  0  1  0  0  0  0  0  0
  1  3  1  6  0  0  0
  1 18  1  0  0  0  0
  1  2  1  0  0  0  0
  2 23  1  6  0  0  0
  3  7  1  0  0  0  0
  5  4  1  1  0  0  0
  5  7  1  0  0  0  0
  5  8  1  0  0  0  0
  6 10  1  0  0  0  0
  7  6  1  6  0  0  0
  8 12  1  0  0  0  0
  8  2  1  0  0  0  0
  9 10  1  0  0  0  0
  9  4  1  0  0  0  0
 11 12  2  0  0  0  0
 12 21  1  0  0  0  0
 13 15  1  1  0  0  0
 14 13  1  0  0  0  0
 16 20  1  0  0  0  0
 18 16  1  6  0  0  0
 18 13  1  0  0  0  0
 19 14  1  0  0  0  0
 20 17  1  6  0  0  0
 20 19  1  0  0  0  0
 21 22  1  0  0  0  0
 23 28  1  1  0  0  0
 25 24  1  1  0  0  0
 25 26  1  0  0  0  0
 25 23  1  0  0  0  0
 27 26  1  0  0  0  0
 28 29  1  0  0  0  0
 29 30  1  0  0  0  0
M  END
>  <MODEL>
2

>  <REMARK>
 VINA RESULT:      -3.8      3.358      7.803
  Name = 
  7 active torsions:
  status: ('A' for Active; 'I' for Inactive)
    1  A    between atoms: C_1  and  C_22
    2  A    between atoms: C_4  and  C_23
    3  A    between atoms: O_7  and  C_30
    4  A    between atoms: C_10  and  C_15
    5  A    between atoms: C_10  and  C_23
    6  A    between atoms: O_11  and  C_25
    7  A    between atoms: C_23  and  C_25
                            x       y       z     vdW  Elec       q    Type
                         _______ _______ _______ _____ _____    ______ ____

>  <TORSDO>
F 7

$$$$
=
 OpenBabel10272413433D

 30 32  0  0  1  0  0  0  0  0999 V2000
  187.2280  178.4100  139.3170 C   0  0  1  0  0  3  0  0  0  0  0  0
  186.1900  178.7880  140.4240 C   0  0  2  0  0  3  0  0  0  0  0  0
  188.0720  177.2750  139.6830 N   0  0  0  0  0  2  0  0  0  0  0  0
  188.5000  178.1060  143.3070 C   0  0  0  0  0  2  0  0  0  0  0  0
  187.7830  177.5570  142.0610 C   0  0  2  0  0  3  0  0  0  0  0  0
  189.8860  176.8680  141.1260 O   0  0  0  0  0  0  0  0  0  0  0  0
  188.7580  177.6720  140.8930 C   0  0  1  0  0  3  0  0  0  0  0  0
  186.5340  178.2880  141.7830 N   0  0  0  0  0  0  0  0  0  0  0  0
  189.8590  177.4280  143.4710 C   0  0  0  0  0  2  0  0  0  0  0  0
  190.6130  177.5080  142.1420 C   0  0  0  0  0  2  0  0  0  0  0  0
  185.4220  177.6630  143.7770 N   0  0  0  0  0  2  0  0  0  0  0  0
  185.6600  178.5740  142.8850 C   0  0  0  0  0  0  0  0  0  0  0  0
  187.6130  178.6440  136.8170 C   0  0  1  0  0  3  0  0  0  0  0  0
  187.3030  177.9030  135.5080 C   0  0  0  0  0  2  0  0  0  0  0  0
  187.4810  180.0140  136.5960 O   0  0  0  0  0  1  0  0  0  0  0  0
  186.0990  176.8060  137.7030 C   0  0  0  0  0  2  0  0  0  0  0  0
  184.0320  176.5690  136.3460 C   0  0  0  0  0  1  0  0  0  0  0  0
  186.6300  178.2280  137.9160 C   0  0  1  0  0  3  0  0  0  0  0  0
  185.9110  177.6900  135.3860 O   0  0  0  0  0  0  0  0  0  0  0  0
  185.5430  176.6380  136.2690 C   0  0  1  0  0  3  0  0  0  0  0  0
  185.0960  179.8450  143.0040 O   0  0  0  0  0  0  0  0  0  0  0  0
  184.2630  180.2080  144.0970 C   0  0  0  0  0  1  0  0  0  0  0  0
  184.6930  178.6140  139.9980 C   0  0  1  0  0  3  0  0  0  0  0  0
  183.1450  176.6570  139.9530 C   0  0  0  0  0  1  0  0  0  0  0  0
  183.7910  177.7070  140.8520 C   0  0  2  0  0  3  0  0  0  0  0  0
  182.7890  178.4510  141.4840 O   0  0  0  0  0  0  0  0  0  0  0  0
  181.5990  177.8590  141.0680 C   0  0  0  0  0  1  0  0  0  0  0  0
  184.0210  179.9130  139.5300 C   0  0  0  0  0  2  0  0  0  0  0  0
  183.0840  179.7040  138.3430 C   0  0  0  0  0  2  0  0  0  0  0  0
  181.8830  180.6170  138.4880 C   0  0  0  0  0  1  0  0  0  0  0  0
  1  3  1  1  0  0  0
  1  2  1  0  0  0  0
  2 23  1  6  0  0  0
  2  8  1  0  0  0  0
  4  9  1  0  0  0  0
  5  4  1  1  0  0  0
  6 10  1  0  0  0  0
  7  3  1  6  0  0  0
  7  6  1  0  0  0  0
  7  5  1  0  0  0  0
  8  5  1  0  0  0  0
  8 12  1  0  0  0  0
 10  9  1  0  0  0  0
 12 21  1  0  0  0  0
 12 11  2  0  0  0  0
 13 15  1  6  0  0  0
 13 18  1  0  0  0  0
 14 13  1  0  0  0  0
 18 16  1  6  0  0  0
 18  1  1  0  0  0  0
 19 14  1  0  0  0  0
 19 20  1  0  0  0  0
 20 17  1  1  0  0  0
 20 16  1  0  0  0  0
 21 22  1  0  0  0  0
 23 28  1  1  0  0  0
 23 25  1  0  0  0  0
 25 24  1  6  0  0  0
 25 26  1  0  0  0  0
 27 26  1  0  0  0  0
 29 30  1  0  0  0  0
 29 28  1  0  0  0  0
M  END
>  <MODEL>
3

>  <REMARK>
 VINA RESULT:      -3.8      3.055      6.129
  Name = 
  7 active torsions:
  status: ('A' for Active; 'I' for Inactive)
    1  A    between atoms: C_1  and  C_22
    2  A    between atoms: C_4  and  C_23
    3  A    between atoms: O_7  and  C_30
    4  A    between atoms: C_10  and  C_15
    5  A    between atoms: C_10  and  C_23
    6  A    between atoms: O_11  and  C_25
    7  A    between atoms: C_23  and  C_25
                            x       y       z     vdW  Elec       q    Type
                         _______ _______ _______ _____ _____    ______ ____

>  <TORSDO>
F 7

$$$$
=
 OpenBabel10272413433D

 30 32  0  0  1  0  0  0  0  0999 V2000
  185.8700  178.3390  138.6880 C   0  0  1  0  0  3  0  0  0  0  0  0
  184.4170  177.9040  138.3060 C   0  0  2  0  0  3  0  0  0  0  0  0
  186.2470  177.9550  140.0450 N   0  0  0  0  0  2  0  0  0  0  0  0
  182.9500  178.5980  141.6940 C   0  0  0  0  0  2  0  0  0  0  0  0
  183.9820  177.8170  140.8630 C   0  0  2  0  0  3  0  0  0  0  0  0
  185.7620  178.6610  142.2380 O   0  0  0  0  0  0  0  0  0  0  0  0
  185.2890  178.6010  140.9160 C   0  0  1  0  0  3  0  0  0  0  0  0
  183.5340  177.6280  139.4710 N   0  0  0  0  0  0  0  0  0  0  0  0
  183.5160  178.9050  143.0780 C   0  0  0  0  0  2  0  0  0  0  0  0
  184.9000  179.5360  142.9160 C   0  0  0  0  0  2  0  0  0  0  0  0
  181.6440  176.3000  139.9900 N   0  0  0  0  0  2  0  0  0  0  0  0
  182.1740  177.2230  139.2500 C   0  0  0  0  0  0  0  0  0  0  0  0
  187.9380  179.0660  137.4040 C   0  0  1  0  0  3  0  0  0  0  0  0
  189.2890  178.5030  136.9420 C   0  0  0  0  0  2  0  0  0  0  0  0
  187.4230  179.8740  136.3910 O   0  0  0  0  0  1  0  0  0  0  0  0
  187.6570  176.6360  138.0890 C   0  0  0  0  0  2  0  0  0  0  0  0
  188.3030  175.0740  136.2690 C   0  0  0  0  0  1  0  0  0  0  0  0
  186.9460  177.9300  137.6750 C   0  0  1  0  0  3  0  0  0  0  0  0
  189.0950  177.3270  136.1830 O   0  0  0  0  0  0  0  0  0  0  0  0
  188.7650  176.2700  137.0750 C   0  0  1  0  0  3  0  0  0  0  0  0
  181.4230  177.8520  138.2560 O   0  0  0  0  0  0  0  0  0  0  0  0
  180.9360  179.1800  138.3970 C   0  0  0  0  0  1  0  0  0  0  0  0
  184.3350  176.8670  137.1350 C   0  0  1  0  0  3  0  0  0  0  0  0
  184.9500  174.4490  137.1780 C   0  0  0  0  0  1  0  0  0  0  0  0
  183.8300  175.4490  137.4480 C   0  0  2  0  0  3  0  0  0  0  0  0
  182.7240  175.1260  136.6550 O   0  0  0  0  0  0  0  0  0  0  0  0
  182.2300  173.9470  137.2060 C   0  0  0  0  0  1  0  0  0  0  0  0
  183.8030  177.4510  135.8190 C   0  0  0  0  0  2  0  0  0  0  0  0
  184.4780  176.8540  134.5860 C   0  0  0  0  0  2  0  0  0  0  0  0
  185.8080  177.5440  134.3610 C   0  0  0  0  0  1  0  0  0  0  0  0
  1  3  1  1  0  0  0
  2 23  1  6  0  0  0
  2  1  1  0  0  0  0
  2  8  1  0  0  0  0
  4  9  1  0  0  0  0
  5  7  1  0  0  0  0
  5  4  1  1  0  0  0
  6 10  1  0  0  0  0
  7  3  1  6  0  0  0
  7  6  1  0  0  0  0
  8  5  1  0  0  0  0
 10  9  1  0  0  0  0
 12  8  1  0  0  0  0
 12 11  2  0  0  0  0
 13 15  1  6  0  0  0
 13 18  1  0  0  0  0
 14 13  1  0  0  0  0
 18 16  1  1  0  0  0
 18  1  1  0  0  0  0
 19 14  1  0  0  0  0
 19 20  1  0  0  0  0
 20 17  1  6  0  0  0
 20 16  1  0  0  0  0
 21 22  1  0  0  0  0
 21 12  1  0  0  0  0
 23 28  1  6  0  0  0
 23 25  1  0  0  0  0
 25 24  1  6  0  0  0
 26 27  1  0  0  0  0
 26 25  1  0  0  0  0
 29 28  1  0  0  0  0
 30 29  1  0  0  0  0
M  END
>  <MODEL>
4

>  <REMARK>
 VINA RESULT:      -3.8      2.122      5.810
  Name = 
  7 active torsions:
  status: ('A' for Active; 'I' for Inactive)
    1  A    between atoms: C_1  and  C_22
    2  A    between atoms: C_4  and  C_23
    3  A    between atoms: O_7  and  C_30
    4  A    between atoms: C_10  and  C_15
    5  A    between atoms: C_10  and  C_23
    6  A    between atoms: O_11  and  C_25
    7  A    between atoms: C_23  and  C_25
                            x       y       z     vdW  Elec       q    Type
                         _______ _______ _______ _____ _____    ______ ____

>  <TORSDO>
F 7

$$$$
=
 OpenBabel10272413433D

 30 32  0  0  1  0  0  0  0  0999 V2000
  193.5390  173.6640  135.4830 C   0  0  1  0  0  3  0  0  0  0  0  0
  195.1010  173.6760  135.4170 C   0  0  2  0  0  3  0  0  0  0  0  0
  192.9970  172.4400  136.0660 N   0  0  0  0  0  2  0  0  0  0  0  0
  195.4360  170.0330  134.5610 C   0  0  0  0  0  2  0  0  0  0  0  0
  194.9310  171.0900  135.5580 C   0  0  2  0  0  3  0  0  0  0  0  0
  192.7050  170.1980  135.4120 O   0  0  0  0  0  0  0  0  0  0  0  0
  193.4680  171.3620  135.2240 C   0  0  1  0  0  3  0  0  0  0  0  0
  195.7280  172.3290  135.4940 N   0  0  0  0  0  0  0  0  0  0  0  0
  194.4940  168.8310  134.5500 C   0  0  0  0  0  2  0  0  0  0  0  0
  193.0600  169.3310  134.3670 C   0  0  0  0  0  2  0  0  0  0  0  0
  197.7660  171.3570  136.2070 N   0  0  0  0  0  2  0  0  0  0  0  0
  197.1570  172.2070  135.4400 C   0  0  0  0  0  0  0  0  0  0  0  0
  191.6410  175.3510  135.4030 C   0  0  1  0  0  3  0  0  0  0  0  0
  190.7220  176.1280  136.3560 C   0  0  0  0  0  2  0  0  0  0  0  0
  191.9960  176.1880  134.3460 O   0  0  0  0  0  1  0  0  0  0  0  0
  192.6860  174.7180  137.6300 C   0  0  0  0  0  2  0  0  0  0  0  0
  193.0470  176.6990  139.0860 C   0  0  0  0  0  1  0  0  0  0  0  0
  192.9170  174.9090  136.1270 C   0  0  1  0  0  3  0  0  0  0  0  0
  191.4920  176.8700  137.2800 O   0  0  0  0  0  0  0  0  0  0  0  0
  192.0190  175.9700  138.2460 C   0  0  1  0  0  3  0  0  0  0  0  0
  197.8800  172.9880  134.5370 O   0  0  0  0  0  0  0  0  0  0  0  0
  199.1800  173.4830  134.8300 C   0  0  0  0  0  1  0  0  0  0  0  0
  195.7800  174.7880  136.2860 C   0  0  1  0  0  3  0  0  0  0  0  0
  195.7560  174.1870  138.7090 C   0  0  0  0  0  1  0  0  0  0  0  0
  196.6460  174.3550  137.4810 C   0  0  2  0  0  3  0  0  0  0  0  0
  197.6320  175.3090  137.7550 O   0  0  0  0  0  0  0  0  0  0  0  0
  198.0000  175.0620  139.0760 C   0  0  0  0  0  1  0  0  0  0  0  0
  196.3650  175.9490  135.4700 C   0  0  0  0  0  2  0  0  0  0  0  0
  195.3780  177.0980  135.2790 C   0  0  0  0  0  2  0  0  0  0  0  0
  196.1070  178.2930  134.6970 C   0  0  0  0  0  1  0  0  0  0  0  0
  1  3  1  1  0  0  0
  1 18  1  0  0  0  0
  2  1  1  0  0  0  0
  2  8  1  0  0  0  0
  2 23  1  1  0  0  0
  5  4  1  6  0  0  0
  7  6  1  1  0  0  0
  7  5  1  0  0  0  0
  7  3  1  0  0  0  0
  8  5  1  0  0  0  0
  9  4  1  0  0  0  0
 10  9  1  0  0  0  0
 10  6  1  0  0  0  0
 12  8  1  0  0  0  0
 12 11  2  0  0  0  0
 13 15  1  6  0  0  0
 13 18  1  0  0  0  0
 13 14  1  0  0  0  0
 14 19  1  0  0  0  0
 16 20  1  0  0  0  0
 18 16  1  1  0  0  0
 19 20  1  0  0  0  0
 20 17  1  6  0  0  0
 21 22  1  0  0  0  0
 21 12  1  0  0  0  0
 23 28  1  6  0  0  0
 23 25  1  0  0  0  0
 25 26  1  0  0  0  0
 25 24  1  1  0  0  0
 26 27  1  0  0  0  0
 29 28  1  0  0  0  0
 30 29  1  0  0  0  0
M  END
>  <MODEL>
5

>  <REMARK>
 VINA RESULT:      -3.7      7.780     11.997
  Name = 
  7 active torsions:
  status: ('A' for Active; 'I' for Inactive)
    1  A    between atoms: C_1  and  C_22
    2  A    between atoms: C_4  and  C_23
    3  A    between atoms: O_7  and  C_30
    4  A    between atoms: C_10  and  C_15
    5  A    between atoms: C_10  and  C_23
    6  A    between atoms: O_11  and  C_25
    7  A    between atoms: C_23  and  C_25
                            x       y       z     vdW  Elec       q    Type
                         _______ _______ _______ _____ _____    ______ ____

>  <TORSDO>
F 7

$$$$
=
 OpenBabel10272413433D

 30 32  0  0  1  0  0  0  0  0999 V2000
  188.6020  177.3540  141.0070 C   0  0  1  0  0  3  0  0  0  0  0  0
  187.0810  177.6630  141.2030 C   0  0  2  0  0  3  0  0  0  0  0  0
  189.2320  178.1890  139.9870 N   0  0  0  0  0  2  0  0  0  0  0  0
  186.3840  178.2690  137.5610 C   0  0  0  0  0  2  0  0  0  0  0  0
  187.1810  178.6720  138.8130 C   0  0  2  0  0  3  0  0  0  0  0  0
  189.2470  178.3280  137.6380 O   0  0  0  0  0  0  0  0  0  0  0  0
  188.5090  177.9240  138.7630 C   0  0  1  0  0  3  0  0  0  0  0  0
  186.4450  178.3630  140.0530 N   0  0  0  0  0  0  0  0  0  0  0  0
  187.2390  178.4620  136.3110 C   0  0  0  0  0  2  0  0  0  0  0  0
  188.5890  177.7770  136.5270 C   0  0  0  0  0  2  0  0  0  0  0  0
  184.6390  179.8390  139.6530 N   0  0  0  0  0  2  0  0  0  0  0  0
  185.0510  178.6980  140.1110 C   0  0  0  0  0  0  0  0  0  0  0  0
  190.0100  175.9600  142.5960 C   0  0  1  0  0  3  0  0  0  0  0  0
  191.2750  176.0830  143.4570 C   0  0  0  0  0  2  0  0  0  0  0  0
  189.0630  175.2150  143.2990 O   0  0  0  0  0  1  0  0  0  0  0  0
  190.5000  178.4350  142.3030 C   0  0  0  0  0  2  0  0  0  0  0  0
  190.9660  179.5560  144.4710 C   0  0  0  0  0  1  0  0  0  0  0  0
  189.4230  177.3450  142.3020 C   0  0  1  0  0  3  0  0  0  0  0  0
  191.1580  177.1770  144.3440 O   0  0  0  0  0  0  0  0  0  0  0  0
  191.3410  178.3750  143.6000 C   0  0  1  0  0  3  0  0  0  0  0  0
  184.1430  177.7760  140.6330 O   0  0  0  0  0  0  0  0  0  0  0  0
  182.9890  177.3570  139.9180 C   0  0  0  0  0  1  0  0  0  0  0  0
  186.7060  178.2140  142.6200 C   0  0  1  0  0  3  0  0  0  0  0  0
  185.6070  180.2880  143.4680 C   0  0  0  0  0  1  0  0  0  0  0  0
  185.3630  178.9440  142.7890 C   0  0  2  0  0  3  0  0  0  0  0  0
  184.4800  178.1890  143.5680 O   0  0  0  0  0  0  0  0  0  0  0  0
  183.7740  179.1320  144.3110 C   0  0  0  0  0  1  0  0  0  0  0  0
  187.0590  177.2640  143.7730 C   0  0  0  0  0  2  0  0  0  0  0  0
  187.6030  177.9930  144.9990 C   0  0  0  0  0  2  0  0  0  0  0  0
  186.7390  177.6640  146.2010 C   0  0  0  0  0  1  0  0  0  0  0  0
  1  3  1  6  0  0  0
  1  2  1  0  0  0  0
  1 18  1  0  0  0  0
  2 23  1  1  0  0  0
  5  4  1  6  0  0  0
  5  8  1  0  0  0  0
  7  6  1  6  0  0  0
  7  5  1  0  0  0  0
  7  3  1  0  0  0  0
  8 12  1  0  0  0  0
  8  2  1  0  0  0  0
  9 10  1  0  0  0  0
  9  4  1  0  0  0  0
 10  6  1  0  0  0  0
 11 12  2  0  0  0  0
 12 21  1  0  0  0  0
 13 15  1  1  0  0  0
 13 14  1  0  0  0  0
 14 19  1  0  0  0  0
 16 20  1  0  0  0  0
 18 16  1  6  0  0  0
 18 13  1  0  0  0  0
 20 19  1  0  0  0  0
 20 17  1  1  0  0  0
 22 21  1  0  0  0  0
 23 25  1  0  0  0  0
 23 28  1  1  0  0  0
 25 24  1  1  0  0  0
 25 26  1  0  0  0  0
 26 27  1  0  0  0  0
 28 29  1  0  0  0  0
 29 30  1  0  0  0  0
M  END
>  <MODEL>
6

>  <REMARK>
 VINA RESULT:      -3.5      4.245      7.384
  Name = 
  7 active torsions:
  status: ('A' for Active; 'I' for Inactive)
    1  A    between atoms: C_1  and  C_22
    2  A    between atoms: C_4  and  C_23
    3  A    between atoms: O_7  and  C_30
    4  A    between atoms: C_10  and  C_15
    5  A    between atoms: C_10  and  C_23
    6  A    between atoms: O_11  and  C_25
    7  A    between atoms: C_23  and  C_25
                            x       y       z     vdW  Elec       q    Type
                         _______ _______ _______ _____ _____    ______ ____

>  <TORSDO>
F 7

$$$$
=
 OpenBabel10272413433D

 30 32  0  0  1  0  0  0  0  0999 V2000
  190.4700  176.1620  139.1680 C   0  0  1  0  0  3  0  0  0  0  0  0
  189.7980  176.0270  137.7620 C   0  0  2  0  0  3  0  0  0  0  0  0
  191.7730  176.8210  139.1220 N   0  0  0  0  0  2  0  0  0  0  0  0
  192.9950  175.3130  135.9230 C   0  0  0  0  0  2  0  0  0  0  0  0
  192.1980  176.2850  136.8090 C   0  0  2  0  0  3  0  0  0  0  0  0
  193.9590  176.2770  138.4430 O   0  0  0  0  0  0  0  0  0  0  0  0
  192.5940  176.0050  138.2550 C   0  0  1  0  0  3  0  0  0  0  0  0
  190.7440  176.1330  136.6180 N   0  0  0  0  0  0  0  0  0  0  0  0
  194.4820  175.3940  136.2610 C   0  0  0  0  0  2  0  0  0  0  0  0
  194.6510  175.2540  137.7740 C   0  0  0  0  0  2  0  0  0  0  0  0
  190.7130  176.7960  134.3460 N   0  0  0  0  0  2  0  0  0  0  0  0
  190.2490  176.0210  135.2760 C   0  0  0  0  0  0  0  0  0  0  0  0
  190.2610  176.8090  141.6160 C   0  0  1  0  0  3  0  0  0  0  0  0
  189.6850  177.9340  142.4870 C   0  0  0  0  0  2  0  0  0  0  0  0
  190.0330  175.5900  142.2540 O   0  0  0  0  0  1  0  0  0  0  0  0
  189.0580  178.1650  139.8370 C   0  0  0  0  0  2  0  0  0  0  0  0
  186.7430  178.7540  140.5220 C   0  0  0  0  0  1  0  0  0  0  0  0
  189.5730  176.7810  140.2470 C   0  0  1  0  0  3  0  0  0  0  0  0
  188.3110  178.1120  142.2080 O   0  0  0  0  0  0  0  0  0  0  0  0
  188.1930  178.7840  140.9600 C   0  0  1  0  0  3  0  0  0  0  0  0
  189.2880  175.0540  134.9760 O   0  0  0  0  0  0  0  0  0  0  0  0
  189.6310  173.7790  134.4500 C   0  0  0  0  0  1  0  0  0  0  0  0
  188.4550  176.8170  137.6040 C   0  0  1  0  0  3  0  0  0  0  0  0
  188.9590  179.1980  137.0500 C   0  0  0  0  0  1  0  0  0  0  0  0
  188.3670  177.8980  136.5140 C   0  0  2  0  0  3  0  0  0  0  0  0
  187.0380  178.1190  136.1360 O   0  0  0  0  0  0  0  0  0  0  0  0
  187.0470  178.0130  134.7470 C   0  0  0  0  0  1  0  0  0  0  0  0
  187.1980  175.9450  137.7330 C   0  0  0  0  0  2  0  0  0  0  0  0
  187.4370  174.4940  137.3240 C   0  0  0  0  0  2  0  0  0  0  0  0
  186.1070  173.7700  137.2480 C   0  0  0  0  0  1  0  0  0  0  0  0
  1  3  1  6  0  0  0
  1 18  1  0  0  0  0
  2 23  1  6  0  0  0
  2  1  1  0  0  0  0
  4  9  1  0  0  0  0
  5  4  1  6  0  0  0
  5  7  1  0  0  0  0
  7  6  1  6  0  0  0
  7  3  1  0  0  0  0
  8  5  1  0  0  0  0
  8  2  1  0  0  0  0
  9 10  1  0  0  0  0
 10  6  1  0  0  0  0
 11 12  2  0  0  0  0
 12  8  1  0  0  0  0
 13 15  1  1  0  0  0
 13 14  1  0  0  0  0
 16 20  1  0  0  0  0
 18 16  1  6  0  0  0
 18 13  1  0  0  0  0
 19 14  1  0  0  0  0
 20 17  1  6  0  0  0
 20 19  1  0  0  0  0
 21 12  1  0  0  0  0
 22 21  1  0  0  0  0
 23 28  1  6  0  0  0
 25 24  1  1  0  0  0
 25 23  1  0  0  0  0
 26 25  1  0  0  0  0
 27 26  1  0  0  0  0
 29 28  1  0  0  0  0
 30 29  1  0  0  0  0
M  END
>  <MODEL>
7

>  <REMARK>
 VINA RESULT:      -3.5      4.193      5.869
  Name = 
  7 active torsions:
  status: ('A' for Active; 'I' for Inactive)
    1  A    between atoms: C_1  and  C_22
    2  A    between atoms: C_4  and  C_23
    3  A    between atoms: O_7  and  C_30
    4  A    between atoms: C_10  and  C_15
    5  A    between atoms: C_10  and  C_23
    6  A    between atoms: O_11  and  C_25
    7  A    between atoms: C_23  and  C_25
                            x       y       z     vdW  Elec       q    Type
                         _______ _______ _______ _____ _____    ______ ____

>  <TORSDO>
F 7

$$$$
=
 OpenBabel10272413433D

 30 32  0  0  1  0  0  0  0  0999 V2000
  185.9830  178.3690  138.7910 C   0  0  1  0  0  3  0  0  0  0  0  0
  184.5550  177.8880  138.3720 C   0  0  2  0  0  3  0  0  0  0  0  0
  186.3310  178.0090  140.1630 N   0  0  0  0  0  2  0  0  0  0  0  0
  182.9700  178.5720  141.7090 C   0  0  0  0  0  2  0  0  0  0  0  0
  184.0480  177.8130  140.9160 C   0  0  2  0  0  3  0  0  0  0  0  0
  185.7630  178.7220  142.3330 O   0  0  0  0  0  0  0  0  0  0  0  0
  185.3310  178.6350  140.9990 C   0  0  1  0  0  3  0  0  0  0  0  0
  183.6460  177.5970  139.5140 N   0  0  0  0  0  0  0  0  0  0  0  0
  183.4870  178.9080  143.1060 C   0  0  0  0  0  2  0  0  0  0  0  0
  184.8560  179.5780  142.9770 C   0  0  0  0  0  2  0  0  0  0  0  0
  181.7810  176.2200  139.9920 N   0  0  0  0  0  2  0  0  0  0  0  0
  182.3060  177.1510  139.2590 C   0  0  0  0  0  0  0  0  0  0  0  0
  187.9500  179.1890  137.4100 C   0  0  1  0  0  3  0  0  0  0  0  0
  189.3590  178.7420  136.9930 C   0  0  0  0  0  2  0  0  0  0  0  0
  187.3430  179.8170  136.3230 O   0  0  0  0  0  1  0  0  0  0  0  0
  187.9570  176.8320  138.3550 C   0  0  0  0  0  2  0  0  0  0  0  0
  188.7820  175.1680  136.7040 C   0  0  0  0  0  1  0  0  0  0  0  0
  187.0990  177.9810  137.8140 C   0  0  1  0  0  3  0  0  0  0  0  0
  189.3030  177.4760  136.3670 O   0  0  0  0  0  0  0  0  0  0  0  0
  189.1010  176.4900  137.3710 C   0  0  1  0  0  3  0  0  0  0  0  0
  181.5660  177.7480  138.2370 O   0  0  0  0  0  0  0  0  0  0  0  0
  181.1750  179.1130  138.2800 C   0  0  0  0  0  1  0  0  0  0  0  0
  184.5370  176.8370  137.2100 C   0  0  1  0  0  3  0  0  0  0  0  0
  183.5930  177.4060  134.9710 C   0  0  0  0  0  1  0  0  0  0  0  0
  184.8780  177.3140  135.7890 C   0  0  2  0  0  3  0  0  0  0  0  0
  185.7600  176.4260  135.1620 O   0  0  0  0  0  0  0  0  0  0  0  0
  186.5490  177.2330  134.3460 C   0  0  0  0  0  1  0  0  0  0  0  0
  185.1490  175.4800  137.5860 C   0  0  0  0  0  2  0  0  0  0  0  0
  184.1140  174.3600  137.6560 C   0  0  0  0  0  2  0  0  0  0  0  0
  184.8270  173.0260  137.7460 C   0  0  0  0  0  1  0  0  0  0  0  0
  1  3  1  1  0  0  0
  2 23  1  1  0  0  0
  2  1  1  0  0  0  0
  2  8  1  0  0  0  0
  4  9  1  0  0  0  0
  5  7  1  0  0  0  0
  5  4  1  1  0  0  0
  6 10  1  0  0  0  0
  7  3  1  6  0  0  0
  7  6  1  0  0  0  0
  8  5  1  0  0  0  0
 10  9  1  0  0  0  0
 12  8  1  0  0  0  0
 12 11  2  0  0  0  0
 13 15  1  6  0  0  0
 13 18  1  0  0  0  0
 14 13  1  0  0  0  0
 18 16  1  1  0  0  0
 18  1  1  0  0  0  0
 19 14  1  0  0  0  0
 19 20  1  0  0  0  0
 20 17  1  6  0  0  0
 20 16  1  0  0  0  0
 21 22  1  0  0  0  0
 21 12  1  0  0  0  0
 23 28  1  1  0  0  0
 25 24  1  6  0  0  0
 25 23  1  0  0  0  0
 26 25  1  0  0  0  0
 27 26  1  0  0  0  0
 28 29  1  0  0  0  0
 29 30  1  0  0  0  0
M  END
>  <MODEL>
8

>  <REMARK>
 VINA RESULT:      -3.4      2.266      5.669
  Name = 
  7 active torsions:
  status: ('A' for Active; 'I' for Inactive)
    1  A    between atoms: C_1  and  C_22
    2  A    between atoms: C_4  and  C_23
    3  A    between atoms: O_7  and  C_30
    4  A    between atoms: C_10  and  C_15
    5  A    between atoms: C_10  and  C_23
    6  A    between atoms: O_11  and  C_25
    7  A    between atoms: C_23  and  C_25
                            x       y       z     vdW  Elec       q    Type
                         _______ _______ _______ _____ _____    ______ ____

>  <TORSDO>
F 7

$$$$
=
 OpenBabel10272413433D

 30 32  0  0  1  0  0  0  0  0999 V2000
  190.8440  175.6190  138.3640 C   0  0  1  0  0  3  0  0  0  0  0  0
  190.4760  174.5520  137.2810 C   0  0  2  0  0  3  0  0  0  0  0  0
  192.1270  176.2710  138.1150 N   0  0  0  0  0  2  0  0  0  0  0  0
  193.9840  173.2810  136.8460 C   0  0  0  0  0  2  0  0  0  0  0  0
  193.0190  174.4770  136.7730 C   0  0  2  0  0  3  0  0  0  0  0  0
  194.4080  175.7190  138.2910 O   0  0  0  0  0  0  0  0  0  0  0  0
  193.1110  175.2110  138.1070 C   0  0  1  0  0  3  0  0  0  0  0  0
  191.6360  174.0490  136.4970 N   0  0  0  0  0  0  0  0  0  0  0  0
  195.3700  173.7510  137.2830 C   0  0  0  0  0  2  0  0  0  0  0  0
  195.2250  174.6060  138.5430 C   0  0  0  0  0  2  0  0  0  0  0  0
  192.0710  173.1450  134.3530 N   0  0  0  0  0  2  0  0  0  0  0  0
  191.4280  173.0620  135.4750 C   0  0  0  0  0  0  0  0  0  0  0  0
  189.8320  177.2040  140.0710 C   0  0  1  0  0  3  0  0  0  0  0  0
  189.2030  178.6030  140.1450 C   0  0  0  0  0  2  0  0  0  0  0  0
  189.1310  176.3550  140.9260 O   0  0  0  0  0  1  0  0  0  0  0  0
  189.7220  177.7640  137.5960 C   0  0  0  0  0  2  0  0  0  0  0  0
  187.4950  178.6510  136.9410 C   0  0  0  0  0  1  0  0  0  0  0  0
  189.7430  176.6480  138.6470 C   0  0  1  0  0  3  0  0  0  0  0  0
  188.1150  178.6960  139.2490 O   0  0  0  0  0  0  0  0  0  0  0  0
  188.6320  178.8100  137.9290 C   0  0  1  0  0  3  0  0  0  0  0  0
  190.5520  172.0020  135.7120 O   0  0  0  0  0  0  0  0  0  0  0  0
  189.7900  171.3990  134.6750 C   0  0  0  0  0  1  0  0  0  0  0  0
  189.1920  174.8860  136.4490 C   0  0  1  0  0  3  0  0  0  0  0  0
  190.1700  176.5310  134.8470 C   0  0  0  0  0  1  0  0  0  0  0  0
  189.3570  175.2450  134.9630 C   0  0  2  0  0  3  0  0  0  0  0  0
  188.1120  175.4310  134.3520 O   0  0  0  0  0  0  0  0  0  0  0  0
  187.9280  176.8110  134.3460 C   0  0  0  0  0  1  0  0  0  0  0  0
  187.9960  173.9710  136.7490 C   0  0  0  0  0  2  0  0  0  0  0  0
  186.7720  174.7350  137.2460 C   0  0  0  0  0  2  0  0  0  0  0  0
  185.6090  173.7750  137.3950 C   0  0  0  0  0  1  0  0  0  0  0  0
  1  3  1  6  0  0  0
  1 18  1  0  0  0  0
  2 23  1  6  0  0  0
  2  1  1  0  0  0  0
  4  9  1  0  0  0  0
  5  4  1  1  0  0  0
  5  7  1  0  0  0  0
  6 10  1  0  0  0  0
  7  3  1  6  0  0  0
  7  6  1  0  0  0  0
  8  5  1  0  0  0  0
  8  2  1  0  0  0  0
  9 10  1  0  0  0  0
 11 12  2  0  0  0  0
 12 21  1  0  0  0  0
 12  8  1  0  0  0  0
 13 14  1  0  0  0  0
 13 15  1  1  0  0  0
 16 20  1  0  0  0  0
 18 16  1  6  0  0  0
 18 13  1  0  0  0  0
 19 14  1  0  0  0  0
 20 17  1  6  0  0  0
 20 19  1  0  0  0  0
 22 21  1  0  0  0  0
 23 28  1  6  0  0  0
 25 24  1  1  0  0  0
 25 23  1  0  0  0  0
 26 25  1  0  0  0  0
 27 26  1  0  0  0  0
 28 29  1  0  0  0  0
 29 30  1  0  0  0  0
M  END
>  <MODEL>
9

>  <REMARK>
 VINA RESULT:      -3.3      4.518      6.351
  Name = 
  7 active torsions:
  status: ('A' for Active; 'I' for Inactive)
    1  A    between atoms: C_1  and  C_22
    2  A    between atoms: C_4  and  C_23
    3  A    between atoms: O_7  and  C_30
    4  A    between atoms: C_10  and  C_15
    5  A    between atoms: C_10  and  C_23
    6  A    between atoms: O_11  and  C_25
    7  A    between atoms: C_23  and  C_25
                            x       y       z     vdW  Elec       q    Type
                         _______ _______ _______ _____ _____    ______ ____

>  <TORSDO>
F 7

$$$$
