=
 OpenBabel10272413343D

 32 36  0  0  1  0  0  0  0  0999 V2000
  187.3110  177.6230  143.4360 C   0  0  0  0  0  3  0  0  0  0  0  0
  190.5790  177.3960  139.6550 C   0  0  1  0  0  3  0  0  0  0  0  0
  187.3580  178.4330  135.7510 C   0  0  0  0  0  3  0  0  0  0  0  0
  188.2160  177.5870  135.0540 C   0  0  0  0  0  3  0  0  0  0  0  0
  189.9300  177.5590  142.5190 C   0  0  0  0  0  0  0  0  0  0  0  0
  189.1600  177.5550  140.1440 C   0  0  0  0  0  0  0  0  0  0  0  0
  187.5550  177.6080  142.0640 C   0  0  0  0  0  3  0  0  0  0  0  0
  187.3810  178.4530  137.1450 C   0  0  0  0  0  3  0  0  0  0  0  0
  188.1810  177.6890  139.2970 N   0  0  0  0  0  0  0  0  0  0  0  0
  188.2720  177.6460  137.8630 C   0  0  0  0  0  0  0  0  0  0  0  0
  190.0620  175.8050  137.8200 C   0  0  0  0  0  0  0  0  0  0  0  0
  190.5880  177.5680  144.7330 O   0  0  0  0  0  0  0  0  0  0  0  0
  189.6440  177.5780  143.8950 C   0  0  0  0  0  0  0  0  0  0  0  0
  188.8720  177.5750  141.5950 C   0  0  0  0  0  0  0  0  0  0  0  0
  191.3230  177.5470  142.0390 C   0  0  0  0  0  3  0  0  0  0  0  0
  188.3440  177.6090  144.3230 N   0  0  0  0  0  0  0  0  0  0  0  0
  189.0940  176.7570  135.7510 C   0  0  0  0  0  3  0  0  0  0  0  0
  189.1430  176.7680  137.1550 C   0  0  0  0  0  0  0  0  0  0  0  0
  191.6180  177.4870  140.7400 C   0  0  0  0  0  3  0  0  0  0  0  0
  190.7120  176.0920  138.9530 C   0  0  0  0  0  3  0  0  0  0  0  0
  191.6980  173.8050  135.2740 C   0  0  0  0  0  0  0  0  0  0  0  0
  190.5890  172.9970  134.6600 C   0  0  0  0  0  2  0  0  0  0  0  0
  189.0830  173.9670  136.3950 C   0  0  1  0  0  3  0  0  0  0  0  0
  188.3690  172.1930  134.9570 O   0  0  0  0  0  1  0  0  0  0  0  0
  189.4700  172.6960  135.6500 C   0  0  1  0  0  3  0  0  0  0  0  0
  191.5160  174.5060  136.3550 N   0  0  0  0  0  0  0  0  0  0  0  0
  192.9270  173.9260  134.5680 N   0  0  0  0  0  1  0  0  0  0  0  0
  188.0390  173.6930  137.2810 O   0  0  0  0  0  1  0  0  0  0  0  0
  190.3020  174.4670  137.1760 C   0  0  1  0  0  3  0  0  0  0  0  0
  188.0240  177.6160  145.7460 C   0  0  0  0  0  2  0  0  0  0  0  0
  186.5200  177.5580  145.9440 C   0  0  0  0  0  2  0  0  0  0  0  0
  186.0870  178.6880  146.8530 C   0  0  0  0  0  1  0  0  0  0  0  0
  1 16  1  0  0  0  0
  2 20  1  1  0  0  0
  2  6  1  0  0  0  0
  2 19  1  0  0  0  0
  3  8  1  0  0  0  0
  4  3  2  0  0  0  0
  4 17  1  0  0  0  0
  5 13  1  0  0  0  0
  6 14  1  0  0  0  0
  7  1  2  0  0  0  0
  8 10  2  0  0  0  0
  9  6  2  0  0  0  0
 10  9  1  0  0  0  0
 11 20  2  0  0  0  0
 13 16  1  0  0  0  0
 13 12  2  0  0  0  0
 14  7  1  0  0  0  0
 14  5  2  0  0  0  0
 15  5  1  0  0  0  0
 16 30  1  0  0  0  0
 17 18  2  0  0  0  0
 18 11  1  0  0  0  0
 18 10  1  0  0  0  0
 19 15  2  0  0  0  0
 21 26  2  0  0  0  0
 22 21  1  0  0  0  0
 22 25  1  0  0  0  0
 23 29  1  0  0  0  0
 23 28  1  1  0  0  0
 25 24  1  6  0  0  0
 25 23  1  0  0  0  0
 26 29  1  0  0  0  0
 27 21  1  0  0  0  0
 29 11  1  6  0  0  0
 30 31  1  0  0  0  0
 31 32  1  0  0  0  0
M  END
>  <MODEL>
1

>  <REMARK>
 VINA RESULT:      -8.0      0.000      0.000
  Name = 
  3 active torsions:
  status: ('A' for Active; 'I' for Inactive)
    1  A    between atoms: C_1  and  C_10
    2  A    between atoms: C_10  and  N_24
    3  A    between atoms: C_16  and  C_32
                            x       y       z     vdW  Elec       q    Type
                         _______ _______ _______ _____ _____    ______ ____

>  <TORSDO>
F 3

$$$$
=
 OpenBabel10272413343D

 32 36  0  0  1  0  0  0  0  0999 V2000
  187.5350  176.9120  144.7600 C   0  0  0  0  0  3  0  0  0  0  0  0
  185.1060  178.9320  140.8810 C   0  0  1  0  0  3  0  0  0  0  0  0
  180.4680  179.5460  143.0730 C   0  0  0  0  0  3  0  0  0  0  0  0
  180.0220  179.3070  141.7750 C   0  0  0  0  0  3  0  0  0  0  0  0
  187.5720  178.1140  142.2580 C   0  0  0  0  0  0  0  0  0  0  0  0
  185.0920  178.3940  142.2910 C   0  0  0  0  0  0  0  0  0  0  0  0
  186.3370  177.3340  144.1850 C   0  0  0  0  0  3  0  0  0  0  0  0
  181.7780  179.2280  143.4270 C   0  0  0  0  0  3  0  0  0  0  0  0
  183.9790  178.3360  142.9630 N   0  0  0  0  0  0  0  0  0  0  0  0
  182.6680  178.6880  142.4910 C   0  0  0  0  0  0  0  0  0  0  0  0
  183.0460  177.7740  140.1210 C   0  0  0  0  0  0  0  0  0  0  0  0
  189.8650  177.8350  142.2810 O   0  0  0  0  0  0  0  0  0  0  0  0
  188.7600  177.6780  142.8710 C   0  0  0  0  0  0  0  0  0  0  0  0
  186.3480  177.9390  142.9250 C   0  0  0  0  0  0  0  0  0  0  0  0
  187.6020  178.7710  140.9400 C   0  0  0  0  0  3  0  0  0  0  0  0
  188.7160  177.0880  144.1060 N   0  0  0  0  0  0  0  0  0  0  0  0
  180.8850  178.7460  140.8340 C   0  0  0  0  0  3  0  0  0  0  0  0
  182.2130  178.4290  141.1650 C   0  0  0  0  0  0  0  0  0  0  0  0
  186.4860  179.1550  140.3210 C   0  0  0  0  0  3  0  0  0  0  0  0
  184.3570  178.0050  139.9930 C   0  0  0  0  0  3  0  0  0  0  0  0
  183.2300  174.8880  137.9300 C   0  0  0  0  0  0  0  0  0  0  0  0
  182.6560  175.3680  136.6270 C   0  0  0  0  0  2  0  0  0  0  0  0
  182.1220  177.5100  137.7880 C   0  0  1  0  0  3  0  0  0  0  0  0
  181.3200  177.0380  135.5830 O   0  0  0  0  0  1  0  0  0  0  0  0
  181.6050  176.4560  136.8180 C   0  0  1  0  0  3  0  0  0  0  0  0
  183.1550  175.6020  139.0150 N   0  0  0  0  0  0  0  0  0  0  0  0
  184.0070  173.6970  137.9370 N   0  0  0  0  0  1  0  0  0  0  0  0
  181.1680  178.5180  137.9380 O   0  0  0  0  0  1  0  0  0  0  0  0
  182.3840  176.8430  139.1410 C   0  0  1  0  0  3  0  0  0  0  0  0
  189.9340  176.6170  144.7540 C   0  0  0  0  0  2  0  0  0  0  0  0
  190.0590  177.2280  146.1380 C   0  0  0  0  0  2  0  0  0  0  0  0
  191.2260  176.5960  146.8650 C   0  0  0  0  0  1  0  0  0  0  0  0
  2 20  1  6  0  0  0
  2  6  1  0  0  0  0
  3  8  1  0  0  0  0
  4  3  2  0  0  0  0
  5 13  1  0  0  0  0
  5 14  2  0  0  0  0
  6 14  1  0  0  0  0
  6  9  2  0  0  0  0
  7  1  2  0  0  0  0
 10  9  1  0  0  0  0
 10  8  2  0  0  0  0
 11 18  1  0  0  0  0
 12 13  2  0  0  0  0
 13 16  1  0  0  0  0
 14  7  1  0  0  0  0
 15  5  1  0  0  0  0
 16 30  1  0  0  0  0
 16  1  1  0  0  0  0
 17 18  2  0  0  0  0
 17  4  1  0  0  0  0
 18 10  1  0  0  0  0
 19  2  1  0  0  0  0
 19 15  2  0  0  0  0
 20 11  2  0  0  0  0
 21 27  1  0  0  0  0
 21 26  2  0  0  0  0
 22 25  1  0  0  0  0
 22 21  1  0  0  0  0
 23 28  1  1  0  0  0
 23 29  1  0  0  0  0
 25 24  1  6  0  0  0
 25 23  1  0  0  0  0
 26 29  1  0  0  0  0
 29 11  1  1  0  0  0
 30 31  1  0  0  0  0
 31 32  1  0  0  0  0
M  END
>  <MODEL>
2

>  <REMARK>
 VINA RESULT:      -7.5      5.010      6.853
  Name = 
  3 active torsions:
  status: ('A' for Active; 'I' for Inactive)
    1  A    between atoms: C_1  and  C_10
    2  A    between atoms: C_10  and  N_24
    3  A    between atoms: C_16  and  C_32
                            x       y       z     vdW  Elec       q    Type
                         _______ _______ _______ _____ _____    ______ ____

>  <TORSDO>
F 3

$$$$
=
 OpenBabel10272413343D

 32 36  0  0  1  0  0  0  0  0999 V2000
  186.0270  173.1200  136.5290 C   0  0  0  0  0  3  0  0  0  0  0  0
  188.1200  177.4440  137.9260 C   0  0  0  0  0  0  0  0  0  0  0  0
  193.0650  175.9480  138.0140 C   0  0  0  0  0  3  0  0  0  0  0  0
  193.1420  176.8800  139.0450 C   0  0  0  0  0  3  0  0  0  0  0  0
  185.8550  175.8630  136.9160 C   0  0  0  0  0  0  0  0  0  0  0  0
  188.2540  175.9760  137.6000 C   0  0  0  0  0  0  0  0  0  0  0  0
  187.1540  173.8230  136.9520 C   0  0  0  0  0  3  0  0  0  0  0  0
  191.8210  175.4860  137.5860 C   0  0  0  0  0  3  0  0  0  0  0  0
  189.4060  175.3810  137.7010 N   0  0  0  0  0  0  0  0  0  0  0  0
  190.6370  175.9600  138.1650 C   0  0  0  0  0  0  0  0  0  0  0  0
  189.5230  177.4010  139.9740 C   0  0  0  0  0  0  0  0  0  0  0  0
  183.6430  175.7030  136.2700 O   0  0  0  0  0  0  0  0  0  0  0  0
  184.7420  175.1190  136.4870 C   0  0  0  0  0  0  0  0  0  0  0  0
  187.0740  175.2050  137.1500 C   0  0  2  0  0  3  0  0  0  0  0  0
  185.7620  177.3220  137.0970 C   0  0  0  0  0  3  0  0  0  0  0  0
  184.8510  173.7670  136.3040 N   0  0  0  0  0  0  0  0  0  0  0  0
  191.9760  177.3460  139.6520 C   0  0  0  0  0  3  0  0  0  0  0  0
  190.7110  176.9030  139.2300 C   0  0  0  0  0  0  0  0  0  0  0  0
  186.7930  178.0420  137.5420 C   0  0  0  0  0  3  0  0  0  0  0  0
  188.3500  177.6460  139.3810 C   0  0  0  0  0  3  0  0  0  0  0  0
  190.5980  176.3490  143.2760 C   0  0  0  0  0  0  0  0  0  0  0  0
  189.4040  176.5920  144.1550 C   0  0  0  0  0  2  0  0  0  0  0  0
  188.3030  177.6280  142.1710 C   0  0  1  0  0  3  0  0  0  0  0  0
  187.3360  177.7520  144.3560 O   0  0  0  0  0  1  0  0  0  0  0  0
  188.5490  177.7570  143.6690 C   0  0  1  0  0  3  0  0  0  0  0  0
  190.6460  176.7840  142.0500 N   0  0  0  0  0  0  0  0  0  0  0  0
  191.6300  175.4900  143.7460 N   0  0  0  0  0  1  0  0  0  0  0  0
  187.4970  178.6800  141.7350 O   0  0  0  0  0  1  0  0  0  0  0  0
  189.6520  177.6780  141.4470 C   0  0  1  0  0  3  0  0  0  0  0  0
  183.7050  172.9750  135.8730 C   0  0  0  0  0  2  0  0  0  0  0  0
  183.3800  171.9180  136.9130 C   0  0  0  0  0  2  0  0  0  0  0  0
  183.3360  170.5570  136.2510 C   0  0  0  0  0  1  0  0  0  0  0  0
  1  7  2  0  0  0  0
  2 20  1  0  0  0  0
  3  4  1  0  0  0  0
  4 17  2  0  0  0  0
  5 15  2  0  0  0  0
  5 14  1  0  0  0  0
  6  9  2  0  0  0  0
  6  2  1  0  0  0  0
  8  3  2  0  0  0  0
  8 10  1  0  0  0  0
  9 10  1  0  0  0  0
 10 18  2  0  0  0  0
 12 13  2  0  0  0  0
 13  5  1  0  0  0  0
 14  7  1  6  0  0  0
 14  6  1  0  0  0  0
 15 19  1  0  0  0  0
 16 13  1  0  0  0  0
 16  1  1  0  0  0  0
 18 17  1  0  0  0  0
 18 11  1  0  0  0  0
 19  2  2  0  0  0  0
 20 11  2  0  0  0  0
 21 27  1  0  0  0  0
 21 22  1  0  0  0  0
 23 28  1  6  0  0  0
 23 25  1  0  0  0  0
 25 22  1  0  0  0  0
 25 24  1  1  0  0  0
 26 21  2  0  0  0  0
 29 11  1  6  0  0  0
 29 26  1  0  0  0  0
 29 23  1  0  0  0  0
 30 16  1  0  0  0  0
 30 31  1  0  0  0  0
 32 31  1  0  0  0  0
M  END
>  <MODEL>
3

>  <REMARK>
 VINA RESULT:      -7.3      3.127      7.618
  Name = 
  3 active torsions:
  status: ('A' for Active; 'I' for Inactive)
    1  A    between atoms: C_1  and  C_10
    2  A    between atoms: C_10  and  N_24
    3  A    between atoms: C_16  and  C_32
                            x       y       z     vdW  Elec       q    Type
                         _______ _______ _______ _____ _____    ______ ____

>  <TORSDO>
F 3

$$$$
=
 OpenBabel10272413343D

 32 36  0  0  1  0  0  0  0  0999 V2000
  184.3000  178.4460  143.8970 C   0  0  0  0  0  3  0  0  0  0  0  0
  184.6590  178.9630  138.9350 C   0  0  1  0  0  3  0  0  0  0  0  0
  180.1200  181.2650  138.0400 C   0  0  0  0  0  3  0  0  0  0  0  0
  180.2060  180.5660  136.8380 C   0  0  0  0  0  3  0  0  0  0  0  0
  185.8240  178.4120  141.5780 C   0  0  0  0  0  0  0  0  0  0  0  0
  183.8570  179.1040  140.2050 C   0  0  0  0  0  0  0  0  0  0  0  0
  183.7040  178.7760  142.6820 C   0  0  0  0  0  3  0  0  0  0  0  0
  180.9410  180.9110  139.1100 C   0  0  0  0  0  3  0  0  0  0  0  0
  182.6310  179.5380  140.1670 N   0  0  0  0  0  0  0  0  0  0  0  0
  181.8720  179.8710  138.9920 C   0  0  0  0  0  0  0  0  0  0  0  0
  182.8410  177.9670  137.5690 C   0  0  0  0  0  0  0  0  0  0  0  0
  187.6130  177.7770  142.8950 O   0  0  0  0  0  0  0  0  0  0  0  0
  186.3910  178.0880  142.8230 C   0  0  0  0  0  0  0  0  0  0  0  0
  184.4650  178.7600  141.5090 C   0  0  0  0  0  0  0  0  0  0  0  0
  186.6450  178.4130  140.3540 C   0  0  0  0  0  3  0  0  0  0  0  0
  185.6180  178.1110  143.9530 N   0  0  0  0  0  0  0  0  0  0  0  0
  181.1090  179.5120  136.7090 C   0  0  0  0  0  3  0  0  0  0  0  0
  181.9540  179.1440  137.7690 C   0  0  0  0  0  0  0  0  0  0  0  0
  186.1200  178.6770  139.1570 C   0  0  0  0  0  3  0  0  0  0  0  0
  184.0670  177.8880  138.0970 C   0  0  0  0  0  3  0  0  0  0  0  0
  181.5240  174.5990  137.2700 C   0  0  0  0  0  0  0  0  0  0  0  0
  182.4020  173.9420  136.2430 C   0  0  0  0  0  2  0  0  0  0  0  0
  183.4990  176.1600  135.9340 C   0  0  1  0  0  3  0  0  0  0  0  0
  183.9530  174.3180  134.4770 O   0  0  0  0  0  1  0  0  0  0  0  0
  182.9460  174.9330  135.2210 C   0  0  1  0  0  3  0  0  0  0  0  0
  181.5820  175.8780  137.5020 N   0  0  0  0  0  0  0  0  0  0  0  0
  180.7260  173.7780  138.1140 N   0  0  0  0  0  1  0  0  0  0  0  0
  184.0220  177.0530  134.9970 O   0  0  0  0  0  1  0  0  0  0  0  0
  182.3590  176.8330  136.7050 C   0  0  1  0  0  3  0  0  0  0  0  0
  186.1830  177.7660  145.2520 C   0  0  0  0  0  2  0  0  0  0  0  0
  185.3740  178.4140  146.3620 C   0  0  0  0  0  2  0  0  0  0  0  0
  186.3080  178.8920  147.4530 C   0  0  0  0  0  1  0  0  0  0  0  0
  1 16  1  0  0  0  0
  2 20  1  6  0  0  0
  2 19  1  0  0  0  0
  2  6  1  0  0  0  0
  3  8  1  0  0  0  0
  4  3  2  0  0  0  0
  5 13  1  0  0  0  0
  6 14  1  0  0  0  0
  7  1  2  0  0  0  0
  9  6  2  0  0  0  0
 10  8  2  0  0  0  0
 10  9  1  0  0  0  0
 11 18  1  0  0  0  0
 11 20  2  0  0  0  0
 13 12  2  0  0  0  0
 13 16  1  0  0  0  0
 14  5  2  0  0  0  0
 14  7  1  0  0  0  0
 15  5  1  0  0  0  0
 16 30  1  0  0  0  0
 17  4  1  0  0  0  0
 17 18  2  0  0  0  0
 18 10  1  0  0  0  0
 19 15  2  0  0  0  0
 21 26  2  0  0  0  0
 21 27  1  0  0  0  0
 22 21  1  0  0  0  0
 23 28  1  6  0  0  0
 23 29  1  0  0  0  0
 25 24  1  1  0  0  0
 25 23  1  0  0  0  0
 25 22  1  0  0  0  0
 29 26  1  0  0  0  0
 29 11  1  1  0  0  0
 30 31  1  0  0  0  0
 31 32  1  0  0  0  0
M  END
>  <MODEL>
4

>  <REMARK>
 VINA RESULT:      -7.2      5.152      6.601
  Name = 
  3 active torsions:
  status: ('A' for Active; 'I' for Inactive)
    1  A    between atoms: C_1  and  C_10
    2  A    between atoms: C_10  and  N_24
    3  A    between atoms: C_16  and  C_32
                            x       y       z     vdW  Elec       q    Type
                         _______ _______ _______ _____ _____    ______ ____

>  <TORSDO>
F 3

$$$$
=
 OpenBabel10272413343D

 32 36  0  0  1  0  0  0  0  0999 V2000
  185.8340  178.3670  143.4120 C   0  0  0  0  0  3  0  0  0  0  0  0
  185.4150  178.5590  138.4310 C   0  0  1  0  0  3  0  0  0  0  0  0
  180.7820  180.8230  138.1030 C   0  0  0  0  0  3  0  0  0  0  0  0
  180.6840  180.0470  136.9510 C   0  0  0  0  0  3  0  0  0  0  0  0
  186.9790  178.1740  140.8910 C   0  0  0  0  0  0  0  0  0  0  0  0
  184.8200  178.7860  139.7980 C   0  0  0  0  0  0  0  0  0  0  0  0
  185.0540  178.6210  142.2850 C   0  0  0  0  0  3  0  0  0  0  0  0
  181.7610  180.5340  139.0540 C   0  0  0  0  0  3  0  0  0  0  0  0
  183.6000  179.2240  139.9220 N   0  0  0  0  0  0  0  0  0  0  0  0
  182.6670  179.4840  138.8610 C   0  0  0  0  0  0  0  0  0  0  0  0
  183.4110  177.4860  137.4310 C   0  0  0  0  0  0  0  0  0  0  0  0
  188.9530  177.6160  141.9530 O   0  0  0  0  0  0  0  0  0  0  0  0
  187.7340  177.9280  142.0520 C   0  0  0  0  0  0  0  0  0  0  0  0
  185.6240  178.5240  141.0120 C   0  0  0  0  0  0  0  0  0  0  0  0
  187.6000  178.0910  139.5580 C   0  0  0  0  0  3  0  0  0  0  0  0
  187.1460  178.0290  143.2840 N   0  0  0  0  0  0  0  0  0  0  0  0
  181.5600  178.9820  136.7520 C   0  0  0  0  0  3  0  0  0  0  0  0
  182.5610  178.6790  137.6900 C   0  0  0  0  0  0  0  0  0  0  0  0
  186.8940  178.2790  138.4420 C   0  0  0  0  0  3  0  0  0  0  0  0
  184.7050  177.4350  137.7660 C   0  0  0  0  0  3  0  0  0  0  0  0
  181.5190  174.3940  137.5700 C   0  0  0  0  0  0  0  0  0  0  0  0
  182.3490  173.4100  136.7940 C   0  0  0  0  0  2  0  0  0  0  0  0
  183.8650  175.3100  136.2370 C   0  0  1  0  0  3  0  0  0  0  0  0
  184.0970  173.1670  135.1980 O   0  0  0  0  0  1  0  0  0  0  0  0
  183.1610  174.0760  135.6890 C   0  0  1  0  0  3  0  0  0  0  0  0
  181.7940  175.6660  137.5780 N   0  0  0  0  0  0  0  0  0  0  0  0
  180.5080  173.8990  138.4390 N   0  0  0  0  0  1  0  0  0  0  0  0
  184.6300  175.9010  135.2300 O   0  0  0  0  0  1  0  0  0  0  0  0
  182.8060  176.3010  136.7280 C   0  0  1  0  0  3  0  0  0  0  0  0
  187.9070  177.7650  144.4990 C   0  0  0  0  0  2  0  0  0  0  0  0
  186.9680  177.6340  145.6850 C   0  0  0  0  0  2  0  0  0  0  0  0
  187.7720  177.6340  146.9670 C   0  0  0  0  0  1  0  0  0  0  0  0
  2 20  1  1  0  0  0
  2 19  1  0  0  0  0
  2  6  1  0  0  0  0
  3  8  1  0  0  0  0
  4  3  2  0  0  0  0
  5 14  2  0  0  0  0
  5 13  1  0  0  0  0
  6  9  2  0  0  0  0
  6 14  1  0  0  0  0
  7  1  2  0  0  0  0
 10  8  2  0  0  0  0
 10  9  1  0  0  0  0
 11 18  1  0  0  0  0
 11 20  2  0  0  0  0
 12 13  2  0  0  0  0
 13 16  1  0  0  0  0
 14  7  1  0  0  0  0
 15  5  1  0  0  0  0
 16  1  1  0  0  0  0
 16 30  1  0  0  0  0
 17  4  1  0  0  0  0
 17 18  2  0  0  0  0
 18 10  1  0  0  0  0
 19 15  2  0  0  0  0
 21 26  2  0  0  0  0
 21 27  1  0  0  0  0
 22 21  1  0  0  0  0
 23 28  1  6  0  0  0
 23 29  1  0  0  0  0
 25 24  1  1  0  0  0
 25 23  1  0  0  0  0
 25 22  1  0  0  0  0
 29 11  1  1  0  0  0
 29 26  1  0  0  0  0
 30 31  1  0  0  0  0
 31 32  1  0  0  0  0
M  END
>  <MODEL>
5

>  <REMARK>
 VINA RESULT:      -7.1      4.579      6.107
  Name = 
  3 active torsions:
  status: ('A' for Active; 'I' for Inactive)
    1  A    between atoms: C_1  and  C_10
    2  A    between atoms: C_10  and  N_24
    3  A    between atoms: C_16  and  C_32
                            x       y       z     vdW  Elec       q    Type
                         _______ _______ _______ _____ _____    ______ ____

>  <TORSDO>
F 3

$$$$
=
 OpenBabel10272413343D

 32 36  0  0  1  0  0  0  0  0999 V2000
  189.2720  177.6600  142.3020 C   0  0  0  0  0  3  0  0  0  0  0  0
  187.4100  178.0560  137.6760 C   0  0  1  0  0  3  0  0  0  0  0  0
  182.6740  179.7480  138.8620 C   0  0  0  0  0  3  0  0  0  0  0  0
  182.3260  179.0260  137.7230 C   0  0  0  0  0  3  0  0  0  0  0  0
  189.6500  177.7390  139.5540 C   0  0  0  0  0  0  0  0  0  0  0  0
  187.2160  178.1380  139.1710 C   0  0  0  0  0  0  0  0  0  0  0  0
  188.1770  177.8750  141.4670 C   0  0  0  0  0  3  0  0  0  0  0  0
  183.9100  179.5330  139.4690 C   0  0  0  0  0  3  0  0  0  0  0  0
  186.0470  178.4160  139.6700 N   0  0  0  0  0  0  0  0  0  0  0  0
  184.8240  178.6140  138.9410 C   0  0  0  0  0  0  0  0  0  0  0  0
  185.3230  176.7980  137.1950 C   0  0  0  0  0  0  0  0  0  0  0  0
  191.8950  177.3740  139.9650 O   0  0  0  0  0  0  0  0  0  0  0  0
  190.7310  177.5280  140.4290 C   0  0  0  0  0  0  0  0  0  0  0  0
  188.3610  177.9140  140.0810 C   0  0  0  0  0  0  0  0  0  0  0  0
  189.8630  177.8020  138.0970 C   0  0  0  0  0  3  0  0  0  0  0  0
  190.5180  177.4930  141.7810 N   0  0  0  0  0  0  0  0  0  0  0  0
  183.2110  178.0880  137.1950 C   0  0  0  0  0  3  0  0  0  0  0  0
  184.4670  177.8630  137.7840 C   0  0  0  0  0  0  0  0  0  0  0  0
  188.8490  177.9590  137.2460 C   0  0  0  0  0  3  0  0  0  0  0  0
  186.6570  176.8880  137.1470 C   0  0  0  0  0  3  0  0  0  0  0  0
  182.7470  174.2460  137.3240 C   0  0  0  0  0  0  0  0  0  0  0  0
  183.4860  172.9550  137.1080 C   0  0  0  0  0  2  0  0  0  0  0  0
  185.5310  174.3280  136.7210 C   0  0  1  0  0  3  0  0  0  0  0  0
  185.4980  171.9730  136.3040 O   0  0  0  0  0  1  0  0  0  0  0  0
  184.7240  173.1310  136.2370 C   0  0  1  0  0  3  0  0  0  0  0  0
  183.3240  175.4010  137.1570 N   0  0  0  0  0  0  0  0  0  0  0  0
  181.4370  174.2000  137.8740 N   0  0  0  0  0  1  0  0  0  0  0  0
  186.6790  174.4690  135.9380 O   0  0  0  0  0  1  0  0  0  0  0  0
  184.6660  175.5850  136.5950 C   0  0  1  0  0  3  0  0  0  0  0  0
  191.6220  177.2630  142.7060 C   0  0  0  0  0  2  0  0  0  0  0  0
  191.2450  176.1910  143.7120 C   0  0  0  0  0  2  0  0  0  0  0  0
  191.5430  176.6860  145.1110 C   0  0  0  0  0  1  0  0  0  0  0  0
  2 20  1  1  0  0  0
  2  6  1  0  0  0  0
  3  8  1  0  0  0  0
  4  3  2  0  0  0  0
  5 14  2  0  0  0  0
  5 13  1  0  0  0  0
  6  9  2  0  0  0  0
  6 14  1  0  0  0  0
  7  1  2  0  0  0  0
 10  8  2  0  0  0  0
 10  9  1  0  0  0  0
 11 18  1  0  0  0  0
 12 13  2  0  0  0  0
 13 16  1  0  0  0  0
 14  7  1  0  0  0  0
 15  5  1  0  0  0  0
 16  1  1  0  0  0  0
 16 30  1  0  0  0  0
 17  4  1  0  0  0  0
 17 18  2  0  0  0  0
 18 10  1  0  0  0  0
 19  2  1  0  0  0  0
 19 15  2  0  0  0  0
 20 11  2  0  0  0  0
 21 27  1  0  0  0  0
 22 21  1  0  0  0  0
 23 28  1  6  0  0  0
 25 24  1  1  0  0  0
 25 23  1  0  0  0  0
 25 22  1  0  0  0  0
 26 21  2  0  0  0  0
 29 23  1  0  0  0  0
 29 26  1  0  0  0  0
 29 11  1  1  0  0  0
 30 31  1  0  0  0  0
 31 32  1  0  0  0  0
M  END
>  <MODEL>
6

>  <REMARK>
 VINA RESULT:      -7.0      3.571      5.212
  Name = 
  3 active torsions:
  status: ('A' for Active; 'I' for Inactive)
    1  A    between atoms: C_1  and  C_10
    2  A    between atoms: C_10  and  N_24
    3  A    between atoms: C_16  and  C_32
                            x       y       z     vdW  Elec       q    Type
                         _______ _______ _______ _____ _____    ______ ____

>  <TORSDO>
F 3

$$$$
=
 OpenBabel10272413343D

 32 36  0  0  1  0  0  0  0  0999 V2000
  187.3780  177.5980  143.6800 C   0  0  0  0  0  3  0  0  0  0  0  0
  187.2070  178.4130  138.7480 C   0  0  1  0  0  3  0  0  0  0  0  0
  182.1370  179.2810  138.2550 C   0  0  0  0  0  3  0  0  0  0  0  0
  182.3400  178.6930  137.0090 C   0  0  0  0  0  3  0  0  0  0  0  0
  188.6710  178.1240  141.2820 C   0  0  0  0  0  0  0  0  0  0  0  0
  186.4940  178.2510  140.0680 C   0  0  0  0  0  0  0  0  0  0  0  0
  186.6240  177.7860  142.5240 C   0  0  0  0  0  3  0  0  0  0  0  0
  183.1020  179.1440  139.2530 C   0  0  0  0  0  3  0  0  0  0  0  0
  185.1940  178.2980  140.1250 N   0  0  0  0  0  0  0  0  0  0  0  0
  184.2880  178.4380  139.0190 C   0  0  0  0  0  0  0  0  0  0  0  0
  185.6730  176.9760  137.4260 C   0  0  0  0  0  0  0  0  0  0  0  0
  190.6580  178.0000  142.4540 O   0  0  0  0  0  0  0  0  0  0  0  0
  189.3970  177.9310  142.4710 C   0  0  0  0  0  0  0  0  0  0  0  0
  187.2690  178.0500  141.3120 C   0  0  0  0  0  0  0  0  0  0  0  0
  189.3640  178.4240  140.0170 C   0  0  0  0  0  3  0  0  0  0  0  0
  188.7370  177.6720  143.6410 N   0  0  0  0  0  0  0  0  0  0  0  0
  183.5030  177.9650  136.7630 C   0  0  0  0  0  3  0  0  0  0  0  0
  184.4940  177.8230  137.7500 C   0  0  0  0  0  0  0  0  0  0  0  0
  188.6990  178.5700  138.8700 C   0  0  0  0  0  3  0  0  0  0  0  0
  186.9020  177.2470  137.8790 C   0  0  0  0  0  3  0  0  0  0  0  0
  185.1240  173.4150  137.0080 C   0  0  0  0  0  0  0  0  0  0  0  0
  186.1730  172.9860  136.0200 C   0  0  0  0  0  2  0  0  0  0  0  0
  186.7830  175.3950  135.8030 C   0  0  1  0  0  3  0  0  0  0  0  0
  187.6930  173.7290  134.3460 O   0  0  0  0  0  1  0  0  0  0  0  0
  186.5420  174.0970  135.0430 C   0  0  1  0  0  3  0  0  0  0  0  0
  184.8950  174.6700  137.2610 N   0  0  0  0  0  0  0  0  0  0  0  0
  184.4810  172.4210  137.7950 N   0  0  0  0  0  1  0  0  0  0  0  0
  187.1480  176.4020  134.9080 O   0  0  0  0  0  1  0  0  0  0  0  0
  185.4890  175.7890  136.5210 C   0  0  1  0  0  3  0  0  0  0  0  0
  189.4700  177.4570  144.8820 C   0  0  0  0  0  2  0  0  0  0  0  0
  188.5500  177.6560  146.0740 C   0  0  0  0  0  2  0  0  0  0  0  0
  189.1730  177.0250  147.3010 C   0  0  0  0  0  1  0  0  0  0  0  0
  2 20  1  6  0  0  0
  2 19  1  0  0  0  0
  2  6  1  0  0  0  0
  3  8  1  0  0  0  0
  4  3  2  0  0  0  0
  5 14  2  0  0  0  0
  5 13  1  0  0  0  0
  6  9  2  0  0  0  0
  6 14  1  0  0  0  0
  7  1  2  0  0  0  0
 10  8  2  0  0  0  0
 10  9  1  0  0  0  0
 11 18  1  0  0  0  0
 11 20  2  0  0  0  0
 12 13  2  0  0  0  0
 13 16  1  0  0  0  0
 14  7  1  0  0  0  0
 15  5  1  0  0  0  0
 16  1  1  0  0  0  0
 16 30  1  0  0  0  0
 17  4  1  0  0  0  0
 17 18  2  0  0  0  0
 18 10  1  0  0  0  0
 19 15  2  0  0  0  0
 21 26  2  0  0  0  0
 21 27  1  0  0  0  0
 22 21  1  0  0  0  0
 23 28  1  6  0  0  0
 23 29  1  0  0  0  0
 25 24  1  1  0  0  0
 25 23  1  0  0  0  0
 25 22  1  0  0  0  0
 29 26  1  0  0  0  0
 29 11  1  1  0  0  0
 30 31  1  0  0  0  0
 31 32  1  0  0  0  0
M  END
>  <MODEL>
7

>  <REMARK>
 VINA RESULT:      -6.8      3.072      4.164
  Name = 
  3 active torsions:
  status: ('A' for Active; 'I' for Inactive)
    1  A    between atoms: C_1  and  C_10
    2  A    between atoms: C_10  and  N_24
    3  A    between atoms: C_16  and  C_32
                            x       y       z     vdW  Elec       q    Type
                         _______ _______ _______ _____ _____    ______ ____

>  <TORSDO>
F 3

$$$$
=
 OpenBabel10272413343D

 32 36  0  0  1  0  0  0  0  0999 V2000
  180.7610  181.1550  138.2190 C   0  0  0  0  0  3  0  0  0  0  0  0
  183.4860  177.5250  140.3220 C   0  0  0  0  0  0  0  0  0  0  0  0
  183.3570  179.1630  145.2200 C   0  0  0  0  0  3  0  0  0  0  0  0
  184.6230  178.5840  145.2590 C   0  0  0  0  0  3  0  0  0  0  0  0
  181.9420  178.6470  138.0850 C   0  0  0  0  0  0  0  0  0  0  0  0
  182.7420  178.8330  140.4420 C   0  0  0  0  0  0  0  0  0  0  0  0
  181.4280  180.6520  139.3350 C   0  0  0  0  0  3  0  0  0  0  0  0
  182.7520  179.4300  143.9930 C   0  0  0  0  0  3  0  0  0  0  0  0
  182.7150  179.4740  141.5740 N   0  0  0  0  0  0  0  0  0  0  0  0
  183.3890  179.1060  142.7890 C   0  0  0  0  0  0  0  0  0  0  0  0
  185.4920  178.2280  141.6060 C   0  0  0  0  0  0  0  0  0  0  0  0
  181.1740  178.5250  135.9090 O   0  0  0  0  0  0  0  0  0  0  0  0
  181.2580  179.1870  136.9810 C   0  0  0  0  0  0  0  0  0  0  0  0
  182.0260  179.3900  139.2740 C   0  0  1  0  0  3  0  0  0  0  0  0
  182.5470  177.3060  138.0130 C   0  0  0  0  0  3  0  0  0  0  0  0
  180.6840  180.4270  137.0710 N   0  0  0  0  0  0  0  0  0  0  0  0
  185.2840  178.2770  144.0710 C   0  0  0  0  0  3  0  0  0  0  0  0
  184.6900  178.5260  142.8230 C   0  0  0  0  0  0  0  0  0  0  0  0
  183.2350  176.7900  139.0320 C   0  0  0  0  0  3  0  0  0  0  0  0
  184.9430  177.7730  140.4740 C   0  0  0  0  0  3  0  0  0  0  0  0
  188.6740  178.4880  139.8840 C   0  0  0  0  0  0  0  0  0  0  0  0
  189.5740  177.5280  140.6100 C   0  0  0  0  0  2  0  0  0  0  0  0
  187.7010  177.1760  142.2190 C   0  0  1  0  0  3  0  0  0  0  0  0
  189.8890  176.2930  142.6200 O   0  0  0  0  0  1  0  0  0  0  0  0
  189.2040  177.3820  142.0820 C   0  0  1  0  0  3  0  0  0  0  0  0
  187.4970  178.8010  140.3400 N   0  0  0  0  0  0  0  0  0  0  0  0
  189.0580  178.9390  138.5910 N   0  0  0  0  0  1  0  0  0  0  0  0
  187.3700  177.0140  143.5660 O   0  0  0  0  0  1  0  0  0  0  0  0
  186.9850  178.4070  141.6570 C   0  0  1  0  0  3  0  0  0  0  0  0
  179.9820  181.0110  135.9350 C   0  0  0  0  0  2  0  0  0  0  0  0
  180.8960  181.9690  135.1930 C   0  0  0  0  0  2  0  0  0  0  0  0
  180.3140  183.3650  135.2490 C   0  0  0  0  0  1  0  0  0  0  0  0
  1  7  2  0  0  0  0
  2  6  1  0  0  0  0
  2 20  1  0  0  0  0
  3  4  1  0  0  0  0
  5 14  1  0  0  0  0
  6  9  2  0  0  0  0
  8  3  2  0  0  0  0
  9 10  1  0  0  0  0
 10 18  2  0  0  0  0
 10  8  1  0  0  0  0
 11 18  1  0  0  0  0
 12 13  2  0  0  0  0
 13 16  1  0  0  0  0
 13  5  1  0  0  0  0
 14  7  1  6  0  0  0
 14  6  1  0  0  0  0
 15  5  2  0  0  0  0
 15 19  1  0  0  0  0
 16  1  1  0  0  0  0
 17  4  2  0  0  0  0
 18 17  1  0  0  0  0
 19  2  2  0  0  0  0
 20 11  2  0  0  0  0
 21 26  2  0  0  0  0
 21 22  1  0  0  0  0
 22 25  1  0  0  0  0
 23 28  1  1  0  0  0
 25 23  1  0  0  0  0
 25 24  1  6  0  0  0
 26 29  1  0  0  0  0
 27 21  1  0  0  0  0
 29 11  1  6  0  0  0
 29 23  1  0  0  0  0
 30 16  1  0  0  0  0
 31 32  1  0  0  0  0
 31 30  1  0  0  0  0
M  END
>  <MODEL>
8

>  <REMARK>
 VINA RESULT:      -6.4      4.914      8.975
  Name = 
  3 active torsions:
  status: ('A' for Active; 'I' for Inactive)
    1  A    between atoms: C_1  and  C_10
    2  A    between atoms: C_10  and  N_24
    3  A    between atoms: C_16  and  C_32
                            x       y       z     vdW  Elec       q    Type
                         _______ _______ _______ _____ _____    ______ ____

>  <TORSDO>
F 3

$$$$
=
 OpenBabel10272413343D

 32 36  0  0  1  0  0  0  0  0999 V2000
  188.2660  176.8660  143.6090 C   0  0  0  0  0  3  0  0  0  0  0  0
  190.7220  177.6450  139.3220 C   0  0  1  0  0  3  0  0  0  0  0  0
  186.7190  178.9700  136.3360 C   0  0  0  0  0  3  0  0  0  0  0  0
  187.4830  178.3540  135.3470 C   0  0  0  0  0  3  0  0  0  0  0  0
  190.6460  177.2460  142.2340 C   0  0  0  0  0  0  0  0  0  0  0  0
  189.4210  177.5620  140.0820 C   0  0  0  0  0  0  0  0  0  0  0  0
  188.2320  177.1110  142.2380 C   0  0  0  0  0  3  0  0  0  0  0  0
  187.0190  178.7550  137.6800 C   0  0  0  0  0  3  0  0  0  0  0  0
  188.2860  177.7290  139.4680 N   0  0  0  0  0  0  0  0  0  0  0  0
  188.0930  177.9410  138.0600 C   0  0  0  0  0  0  0  0  0  0  0  0
  189.9710  176.3420  137.3460 C   0  0  0  0  0  0  0  0  0  0  0  0
  191.7300  176.9520  144.2530 O   0  0  0  0  0  0  0  0  0  0  0  0
  190.6400  177.0000  143.6190 C   0  0  0  0  0  0  0  0  0  0  0  0
  189.4280  177.3030  141.5390 C   0  0  0  0  0  0  0  0  0  0  0  0
  191.9130  177.4700  141.5160 C   0  0  0  0  0  3  0  0  0  0  0  0
  189.4520  176.8150  144.2750 N   0  0  0  0  0  0  0  0  0  0  0  0
  188.5410  177.5200  135.7040 C   0  0  0  0  0  3  0  0  0  0  0  0
  188.8690  177.2970  137.0520 C   0  0  0  0  0  0  0  0  0  0  0  0
  191.9470  177.6640  140.1970 C   0  0  0  0  0  3  0  0  0  0  0  0
  190.8100  176.5030  138.3740 C   0  0  0  0  0  3  0  0  0  0  0  0
  189.0750  172.9830  136.3100 C   0  0  0  0  0  0  0  0  0  0  0  0
  190.3860  172.2540  136.2210 C   0  0  0  0  0  2  0  0  0  0  0  0
  191.4940  174.4350  136.7060 C   0  0  1  0  0  3  0  0  0  0  0  0
  192.7470  172.5050  136.0500 O   0  0  0  0  0  1  0  0  0  0  0  0
  191.5410  173.1770  135.8490 C   0  0  1  0  0  3  0  0  0  0  0  0
  189.0180  174.2720  136.4760 N   0  0  0  0  0  0  0  0  0  0  0  0
  187.8740  172.2230  136.3710 N   0  0  0  0  0  1  0  0  0  0  0  0
  192.5700  175.2650  136.3830 O   0  0  0  0  0  1  0  0  0  0  0  0
  190.1780  175.1680  136.4290 C   0  0  1  0  0  3  0  0  0  0  0  0
  189.4230  176.5450  145.7070 C   0  0  0  0  0  2  0  0  0  0  0  0
  188.5320  177.5530  146.4100 C   0  0  0  0  0  2  0  0  0  0  0  0
  188.9560  177.6760  147.8580 C   0  0  0  0  0  1  0  0  0  0  0  0
  1 16  1  0  0  0  0
  2 20  1  6  0  0  0
  2  6  1  0  0  0  0
  2 19  1  0  0  0  0
  3  8  1  0  0  0  0
  4 17  1  0  0  0  0
  4  3  2  0  0  0  0
  5 13  1  0  0  0  0
  6 14  1  0  0  0  0
  7  1  2  0  0  0  0
  8 10  2  0  0  0  0
  9  6  2  0  0  0  0
 10  9  1  0  0  0  0
 11 20  2  0  0  0  0
 13 12  2  0  0  0  0
 13 16  1  0  0  0  0
 14  5  2  0  0  0  0
 14  7  1  0  0  0  0
 15  5  1  0  0  0  0
 16 30  1  0  0  0  0
 17 18  2  0  0  0  0
 18 11  1  0  0  0  0
 18 10  1  0  0  0  0
 19 15  2  0  0  0  0
 21 27  1  0  0  0  0
 21 26  2  0  0  0  0
 22 21  1  0  0  0  0
 23 28  1  6  0  0  0
 25 24  1  1  0  0  0
 25 22  1  0  0  0  0
 25 23  1  0  0  0  0
 29 26  1  0  0  0  0
 29 23  1  0  0  0  0
 29 11  1  1  0  0  0
 30 31  1  0  0  0  0
 31 32  1  0  0  0  0
M  END
>  <MODEL>
9

>  <REMARK>
 VINA RESULT:      -6.4      1.780      2.080
  Name = 
  3 active torsions:
  status: ('A' for Active; 'I' for Inactive)
    1  A    between atoms: C_1  and  C_10
    2  A    between atoms: C_10  and  N_24
    3  A    between atoms: C_16  and  C_32
                            x       y       z     vdW  Elec       q    Type
                         _______ _______ _______ _____ _____    ______ ____

>  <TORSDO>
F 3

$$$$
