=
 OpenBabel10272400233D

 31 36  0  0  0  0  0  0  0  0999 V2000
  190.3530  177.0820  146.1920 C   0  0  0  0  0  0  0  0  0  0  0  0
  188.0030  177.7430  143.3470 C   0  0  0  0  0  0  0  0  0  0  0  0
  186.6490  177.9090  143.9800 C   0  0  0  0  0  0  0  0  0  0  0  0
  185.9190  178.0620  146.3420 C   0  0  0  0  0  3  0  0  0  0  0  0
  189.1820  177.4590  144.0870 C   0  0  0  0  0  0  0  0  0  0  0  0
  191.5560  176.9120  145.5040 C   0  0  0  0  0  3  0  0  0  0  0  0
  186.3130  177.1500  145.2300 C   0  0  0  0  0  2  0  0  0  0  0  0
  189.3310  177.7380  141.2790 C   0  0  0  0  0  0  0  0  0  0  0  0
  190.3240  176.9770  147.6090 N   0  0  0  0  0  1  0  0  0  0  0  0
  185.9590  179.1510  141.9540 C   0  0  0  0  0  2  0  0  0  0  0  0
  184.8310  178.8260  146.2870 C   0  0  0  0  0  3  0  0  0  0  0  0
  190.4730  177.4350  142.0220 C   0  0  0  0  0  3  0  0  0  0  0  0
  188.1040  177.9110  141.9440 C   0  0  0  0  0  0  0  0  0  0  0  0
  189.1780  177.3570  145.4880 C   0  0  0  0  0  3  0  0  0  0  0  0
  183.9440  178.9320  145.1160 C   0  0  0  0  0  3  0  0  0  0  0  0
  190.4130  177.3010  143.4050 C   0  0  0  0  0  0  0  0  0  0  0  0
  191.5860  177.0240  144.1140 C   0  0  0  0  0  3  0  0  0  0  0  0
  186.8670  178.2250  141.1530 C   0  0  0  0  0  2  0  0  0  0  0  0
  185.6750  178.5720  143.3100 C   0  0  0  0  0  0  0  0  0  0  0  0
  184.3110  178.8120  143.8340 C   0  0  0  0  0  3  0  0  0  0  0  0
  189.3850  177.8880  139.8480 N   0  0  0  0  0  2  0  0  0  0  0  0
  191.1780  173.2400  135.7630 C   0  0  0  0  0  3  0  0  0  0  0  0
  190.8800  175.2280  137.7110 C   0  0  0  0  0  0  0  0  0  0  0  0
  188.5640  175.5270  137.0360 C   0  0  0  0  0  3  0  0  0  0  0  0
  188.4190  176.5190  138.0100 C   0  0  0  0  0  3  0  0  0  0  0  0
  192.2570  173.5870  136.5830 C   0  0  0  0  0  3  0  0  0  0  0  0
  189.4950  176.8730  138.8400 C   0  0  0  0  0  0  0  0  0  0  0  0
  192.1090  174.5800  137.5570 C   0  0  0  0  0  3  0  0  0  0  0  0
  189.7910  174.8780  136.8810 C   0  0  0  0  0  0  0  0  0  0  0  0
  190.7250  176.2210  138.6820 C   0  0  0  0  0  3  0  0  0  0  0  0
  189.9460  173.8850  135.9110 C   0  0  0  0  0  3  0  0  0  0  0  0
  1  9  1  0  0  0  0
  2  3  1  0  0  0  0
  2  5  1  0  0  0  0
  3  7  1  0  0  0  0
  5 14  1  0  0  0  0
  6  1  1  0  0  0  0
  7  4  1  0  0  0  0
  8 13  1  0  0  0  0
  8 12  2  0  0  0  0
 10 19  1  0  0  0  0
 11  4  2  0  0  0  0
 12 16  1  0  0  0  0
 13  2  2  0  0  0  0
 14  1  2  0  0  0  0
 15 11  1  0  0  0  0
 16  5  2  0  0  0  0
 16 17  1  0  0  0  0
 17  6  2  0  0  0  0
 18 13  1  0  0  0  0
 18 10  1  0  0  0  0
 19 20  1  0  0  0  0
 19  3  2  0  0  0  0
 20 15  2  0  0  0  0
 21  8  1  0  0  0  0
 22 31  2  0  0  0  0
 22 26  1  0  0  0  0
 23 30  1  0  0  0  0
 24 25  2  0  0  0  0
 25 27  1  0  0  0  0
 26 28  2  0  0  0  0
 27 21  1  0  0  0  0
 28 23  1  0  0  0  0
 29 24  1  0  0  0  0
 29 23  2  0  0  0  0
 30 27  2  0  0  0  0
 31 29  1  0  0  0  0
M  END
>  <MODEL>
1

>  <REMARK>
 VINA RESULT:     -11.5      0.000      0.000
  Name = 
  2 active torsions:
  status: ('A' for Active; 'I' for Inactive)
    1  A    between atoms: C_9  and  N_23
    2  A    between atoms: C_15  and  N_23
                            x       y       z     vdW  Elec       q    Type
                         _______ _______ _______ _____ _____    ______ ____

>  <TORSDO>
F 2

$$$$
=
 OpenBabel10272400233D

 31 36  0  0  0  0  0  0  0  0999 V2000
  190.4120  177.0380  146.0890 C   0  0  0  0  0  0  0  0  0  0  0  0
  188.0110  177.7260  143.2930 C   0  0  0  0  0  0  0  0  0  0  0  0
  186.6700  177.8900  143.9520 C   0  0  0  0  0  0  0  0  0  0  0  0
  185.9840  178.0250  146.3280 C   0  0  0  0  0  3  0  0  0  0  0  0
  189.2030  177.4340  144.0090 C   0  0  0  0  0  0  0  0  0  0  0  0
  191.6020  176.8710  145.3780 C   0  0  0  0  0  3  0  0  0  0  0  0
  186.3550  177.1220  145.2020 C   0  0  0  0  0  2  0  0  0  0  0  0
  189.3010  177.7340  141.2010 C   0  0  0  0  0  0  0  0  0  0  0  0
  190.4090  176.9210  147.5060 N   0  0  0  0  0  1  0  0  0  0  0  0
  185.9450  179.1490  141.9490 C   0  0  0  0  0  2  0  0  0  0  0  0
  184.8970  178.7920  146.3000 C   0  0  0  0  0  3  0  0  0  0  0  0
  190.4560  177.4230  141.9200 C   0  0  0  0  0  3  0  0  0  0  0  0
  188.0870  177.9050  141.8900 C   0  0  0  0  0  0  0  0  0  0  0  0
  189.2250  177.3200  145.4090 C   0  0  0  0  0  3  0  0  0  0  0  0
  183.9880  178.9090  145.1460 C   0  0  0  0  0  3  0  0  0  0  0  0
  190.4210  177.2780  143.3030 C   0  0  0  0  0  0  0  0  0  0  0  0
  191.6060  176.9930  143.9880 C   0  0  0  0  0  3  0  0  0  0  0  0
  186.8360  178.2270  141.1240 C   0  0  0  0  0  2  0  0  0  0  0  0
  185.6850  178.5600  143.3050 C   0  0  0  0  0  0  0  0  0  0  0  0
  184.3310  178.7980  143.8560 C   0  0  0  0  0  3  0  0  0  0  0  0
  189.3290  177.8960  139.7710 N   0  0  0  0  0  2  0  0  0  0  0  0
  188.1480  173.7370  134.9940 C   0  0  0  0  0  3  0  0  0  0  0  0
  188.1760  175.6920  136.9970 C   0  0  0  0  0  0  0  0  0  0  0  0
  190.4890  175.1360  137.4920 C   0  0  0  0  0  3  0  0  0  0  0  0
  190.5000  176.1140  138.4920 C   0  0  0  0  0  3  0  0  0  0  0  0
  187.0030  174.5000  135.2460 C   0  0  0  0  0  3  0  0  0  0  0  0
  189.3560  176.8860  138.7510 C   0  0  0  0  0  0  0  0  0  0  0  0
  187.0160  175.4770  136.2470 C   0  0  0  0  0  3  0  0  0  0  0  0
  189.3320  174.9210  136.7420 C   0  0  0  0  0  0  0  0  0  0  0  0
  188.1960  176.6670  137.9980 C   0  0  0  0  0  3  0  0  0  0  0  0
  189.3110  173.9460  135.7410 C   0  0  0  0  0  3  0  0  0  0  0  0
  1  9  1  0  0  0  0
  2  3  1  0  0  0  0
  2  5  1  0  0  0  0
  3  7  1  0  0  0  0
  5 14  2  0  0  0  0
  6  1  2  0  0  0  0
  7  4  1  0  0  0  0
  8 13  1  0  0  0  0
  8 12  2  0  0  0  0
 10 19  1  0  0  0  0
 11  4  2  0  0  0  0
 12 16  1  0  0  0  0
 13  2  2  0  0  0  0
 14  1  1  0  0  0  0
 15 11  1  0  0  0  0
 16 17  2  0  0  0  0
 16  5  1  0  0  0  0
 17  6  1  0  0  0  0
 18 13  1  0  0  0  0
 18 10  1  0  0  0  0
 19 20  1  0  0  0  0
 19  3  2  0  0  0  0
 20 15  2  0  0  0  0
 21  8  1  0  0  0  0
 22 26  2  0  0  0  0
 22 31  1  0  0  0  0
 23 30  1  0  0  0  0
 24 25  2  0  0  0  0
 25 27  1  0  0  0  0
 26 28  1  0  0  0  0
 27 21  1  0  0  0  0
 28 23  2  0  0  0  0
 29 23  1  0  0  0  0
 29 24  1  0  0  0  0
 30 27  2  0  0  0  0
 31 29  2  0  0  0  0
M  END
>  <MODEL>
2

>  <REMARK>
 VINA RESULT:     -11.2      0.701      1.736
  Name = 
  2 active torsions:
  status: ('A' for Active; 'I' for Inactive)
    1  A    between atoms: C_9  and  N_23
    2  A    between atoms: C_15  and  N_23
                            x       y       z     vdW  Elec       q    Type
                         _______ _______ _______ _____ _____    ______ ____

>  <TORSDO>
F 2

$$$$
=
 OpenBabel10272400233D

 31 36  0  0  0  0  0  0  0  0999 V2000
  185.1910  178.4140  144.9250 C   0  0  0  0  0  0  0  0  0  0  0  0
  188.6300  177.8890  143.5260 C   0  0  0  0  0  0  0  0  0  0  0  0
  189.5050  177.6110  144.7170 C   0  0  0  0  0  0  0  0  0  0  0  0
  188.9950  177.2310  147.1100 C   0  0  0  0  0  3  0  0  0  0  0  0
  187.2390  178.1620  143.6260 C   0  0  0  0  0  0  0  0  0  0  0  0
  184.4740  178.6930  143.7600 C   0  0  0  0  0  3  0  0  0  0  0  0
  189.1900  178.2480  146.0380 C   0  0  0  0  0  2  0  0  0  0  0  0
  188.4750  178.1250  141.0850 C   0  0  0  0  0  0  0  0  0  0  0  0
  184.5280  178.4000  146.1830 N   0  0  0  0  0  1  0  0  0  0  0  0
  191.0960  176.5130  143.1710 C   0  0  0  0  0  2  0  0  0  0  0  0
  189.9740  176.4260  147.5180 C   0  0  0  0  0  3  0  0  0  0  0  0
  187.1150  178.4150  141.2060 C   0  0  0  0  0  3  0  0  0  0  0  0
  189.2240  177.8430  142.2410 C   0  0  0  0  0  0  0  0  0  0  0  0
  186.5610  178.1470  144.8560 C   0  0  0  0  0  3  0  0  0  0  0  0
  191.3190  176.3800  146.9180 C   0  0  0  0  0  3  0  0  0  0  0  0
  186.4950  178.4310  142.4510 C   0  0  0  0  0  0  0  0  0  0  0  0
  185.1240  178.6990  142.5260 C   0  0  0  0  0  3  0  0  0  0  0  0
  190.6900  177.5420  142.1220 C   0  0  0  0  0  2  0  0  0  0  0  0
  190.6840  176.9640  144.5430 C   0  0  0  0  0  0  0  0  0  0  0  0
  191.6220  176.6220  145.6370 C   0  0  0  0  0  3  0  0  0  0  0  0
  189.1240  178.0970  139.8000 N   0  0  0  0  0  2  0  0  0  0  0  0
  190.7620  173.2240  135.9150 C   0  0  0  0  0  3  0  0  0  0  0  0
  190.5400  175.3260  137.7520 C   0  0  0  0  0  0  0  0  0  0  0  0
  188.1880  175.5570  137.1860 C   0  0  0  0  0  3  0  0  0  0  0  0
  188.0810  176.6070  138.1040 C   0  0  0  0  0  3  0  0  0  0  0  0
  191.8780  173.6330  136.6540 C   0  0  0  0  0  3  0  0  0  0  0  0
  189.1950  177.0220  138.8510 C   0  0  0  0  0  0  0  0  0  0  0  0
  191.7680  174.6830  137.5720 C   0  0  0  0  0  3  0  0  0  0  0  0
  189.4140  174.9140  137.0050 C   0  0  0  0  0  0  0  0  0  0  0  0
  190.4230  176.3750  138.6670 C   0  0  0  0  0  3  0  0  0  0  0  0
  189.5310  173.8640  136.0900 C   0  0  0  0  0  3  0  0  0  0  0  0
  1  9  1  0  0  0  0
  2  5  1  0  0  0  0
  2  3  1  0  0  0  0
  3  7  1  0  0  0  0
  4 11  2  0  0  0  0
  5 14  2  0  0  0  0
  6  1  2  0  0  0  0
  7  4  1  0  0  0  0
  8 12  2  0  0  0  0
  8 13  1  0  0  0  0
 10 19  1  0  0  0  0
 12 16  1  0  0  0  0
 13  2  2  0  0  0  0
 14  1  1  0  0  0  0
 15 11  1  0  0  0  0
 16 17  2  0  0  0  0
 16  5  1  0  0  0  0
 17  6  1  0  0  0  0
 18 13  1  0  0  0  0
 18 10  1  0  0  0  0
 19  3  2  0  0  0  0
 19 20  1  0  0  0  0
 20 15  2  0  0  0  0
 21  8  1  0  0  0  0
 22 31  2  0  0  0  0
 22 26  1  0  0  0  0
 23 30  1  0  0  0  0
 24 25  2  0  0  0  0
 25 27  1  0  0  0  0
 26 28  2  0  0  0  0
 27 21  1  0  0  0  0
 28 23  1  0  0  0  0
 29 24  1  0  0  0  0
 29 23  2  0  0  0  0
 30 27  2  0  0  0  0
 31 29  1  0  0  0  0
M  END
>  <MODEL>
3

>  <REMARK>
 VINA RESULT:     -11.1      1.366      3.965
  Name = 
  2 active torsions:
  status: ('A' for Active; 'I' for Inactive)
    1  A    between atoms: C_9  and  N_23
    2  A    between atoms: C_15  and  N_23
                            x       y       z     vdW  Elec       q    Type
                         _______ _______ _______ _____ _____    ______ ____

>  <TORSDO>
F 2

$$$$
=
 OpenBabel10272400233D

 31 36  0  0  0  0  0  0  0  0999 V2000
  190.7420  177.0090  144.8010 C   0  0  0  0  0  0  0  0  0  0  0  0
  187.6120  177.9210  142.9480 C   0  0  0  0  0  0  0  0  0  0  0  0
  186.5330  177.9740  143.9930 C   0  0  0  0  0  0  0  0  0  0  0  0
  186.5940  177.8330  146.4650 C   0  0  0  0  0  3  0  0  0  0  0  0
  188.9640  177.5900  143.2370 C   0  0  0  0  0  0  0  0  0  0  0  0
  191.6610  176.9550  143.7520 C   0  0  0  0  0  3  0  0  0  0  0  0
  186.6060  177.0670  145.1860 C   0  0  0  0  0  2  0  0  0  0  0  0
  188.2120  178.1930  140.5800 C   0  0  0  0  0  0  0  0  0  0  0  0
  191.1640  176.7410  146.1320 N   0  0  0  0  0  1  0  0  0  0  0  0
  185.2430  179.4180  142.4520 C   0  0  0  0  0  2  0  0  0  0  0  0
  185.5520  178.5650  146.8490 C   0  0  0  0  0  3  0  0  0  0  0  0
  189.5290  177.8410  140.8810 C   0  0  0  0  0  3  0  0  0  0  0  0
  187.2630  178.2520  141.6160 C   0  0  0  0  0  0  0  0  0  0  0  0
  189.4060  177.3280  144.5440 C   0  0  0  0  0  3  0  0  0  0  0  0
  184.3390  178.7780  146.0410 C   0  0  0  0  0  3  0  0  0  0  0  0
  189.9120  177.5470  142.1850 C   0  0  0  0  0  0  0  0  0  0  0  0
  191.2470  177.2260  142.4480 C   0  0  0  0  0  3  0  0  0  0  0  0
  185.8410  178.6170  141.3010 C   0  0  0  0  0  2  0  0  0  0  0  0
  185.4010  178.6800  143.7500 C   0  0  0  0  0  0  0  0  0  0  0  0
  184.2770  178.8170  144.7040 C   0  0  0  0  0  3  0  0  0  0  0  0
  187.8090  178.5080  139.2350 N   0  0  0  0  0  2  0  0  0  0  0  0
  184.5020  175.2810  134.7450 C   0  0  0  0  0  3  0  0  0  0  0  0
  185.5130  176.9640  136.7400 C   0  0  0  0  0  0  0  0  0  0  0  0
  187.6200  175.7550  136.6770 C   0  0  0  0  0  3  0  0  0  0  0  0
  188.1220  176.5970  137.6740 C   0  0  0  0  0  3  0  0  0  0  0  0
  183.7040  176.3010  135.2730 C   0  0  0  0  0  3  0  0  0  0  0  0
  187.3290  177.6260  138.2090 C   0  0  0  0  0  0  0  0  0  0  0  0
  184.2080  177.1430  136.2710 C   0  0  0  0  0  3  0  0  0  0  0  0
  186.3180  175.9320  136.2070 C   0  0  0  0  0  0  0  0  0  0  0  0
  186.0230  177.8010  137.7360 C   0  0  0  0  0  3  0  0  0  0  0  0
  185.8070  175.0950  135.2110 C   0  0  0  0  0  3  0  0  0  0  0  0
  1  9  1  0  0  0  0
  2  5  1  0  0  0  0
  2  3  1  0  0  0  0
  3  7  1  0  0  0  0
  4 11  2  0  0  0  0
  5 14  2  0  0  0  0
  6  1  2  0  0  0  0
  7  4  1  0  0  0  0
  8 12  2  0  0  0  0
  8 13  1  0  0  0  0
 10 19  1  0  0  0  0
 12 16  1  0  0  0  0
 13  2  2  0  0  0  0
 14  1  1  0  0  0  0
 15 11  1  0  0  0  0
 16 17  2  0  0  0  0
 16  5  1  0  0  0  0
 17  6  1  0  0  0  0
 18 13  1  0  0  0  0
 18 10  1  0  0  0  0
 19  3  2  0  0  0  0
 19 20  1  0  0  0  0
 20 15  2  0  0  0  0
 21  8  1  0  0  0  0
 22 31  2  0  0  0  0
 22 26  1  0  0  0  0
 23 30  1  0  0  0  0
 24 25  2  0  0  0  0
 25 27  1  0  0  0  0
 26 28  2  0  0  0  0
 27 21  1  0  0  0  0
 28 23  1  0  0  0  0
 29 24  1  0  0  0  0
 29 23  2  0  0  0  0
 30 27  2  0  0  0  0
 31 29  1  0  0  0  0
M  END
>  <MODEL>
4

>  <REMARK>
 VINA RESULT:     -11.0      2.009      3.261
  Name = 
  2 active torsions:
  status: ('A' for Active; 'I' for Inactive)
    1  A    between atoms: C_9  and  N_23
    2  A    between atoms: C_15  and  N_23
                            x       y       z     vdW  Elec       q    Type
                         _______ _______ _______ _____ _____    ______ ____

>  <TORSDO>
F 2

$$$$
=
 OpenBabel10272400233D

 31 36  0  0  0  0  0  0  0  0999 V2000
  185.1340  178.4360  145.4130 C   0  0  0  0  0  0  0  0  0  0  0  0
  188.4320  177.9540  143.6960 C   0  0  0  0  0  0  0  0  0  0  0  0
  189.4010  177.6000  144.7900 C   0  0  0  0  0  0  0  0  0  0  0  0
  189.0920  177.0920  147.1940 C   0  0  0  0  0  3  0  0  0  0  0  0
  187.0590  178.2350  143.9310 C   0  0  0  0  0  0  0  0  0  0  0  0
  184.3240  178.7870  144.3320 C   0  0  0  0  0  3  0  0  0  0  0  0
  189.2100  178.1660  146.1660 C   0  0  0  0  0  2  0  0  0  0  0  0
  188.0720  178.3270  141.2940 C   0  0  0  0  0  0  0  0  0  0  0  0
  184.5800  178.3580  146.7200 N   0  0  0  0  0  1  0  0  0  0  0  0
  190.8370  176.5740  143.0550 C   0  0  0  0  0  2  0  0  0  0  0  0
  190.0890  176.2560  147.4710 C   0  0  0  0  0  3  0  0  0  0  0  0
  186.7320  178.6250  141.5480 C   0  0  0  0  0  3  0  0  0  0  0  0
  188.9130  177.9730  142.3640 C   0  0  0  0  0  0  0  0  0  0  0  0
  186.4880  178.1590  145.2120 C   0  0  0  0  0  3  0  0  0  0  0  0
  191.3780  176.2290  146.7560 C   0  0  0  0  0  3  0  0  0  0  0  0
  186.2210  178.5770  142.8400 C   0  0  0  0  0  0  0  0  0  0  0  0
  184.8660  178.8560  143.0480 C   0  0  0  0  0  3  0  0  0  0  0  0
  190.3590  177.6640  142.1030 C   0  0  0  0  0  2  0  0  0  0  0  0
  190.5510  176.9520  144.4800 C   0  0  0  0  0  0  0  0  0  0  0  0
  191.5730  176.5390  145.4680 C   0  0  0  0  0  3  0  0  0  0  0  0
  188.6080  178.3640  139.9590 N   0  0  0  0  0  2  0  0  0  0  0  0
  185.9610  175.4730  134.8450 C   0  0  0  0  0  3  0  0  0  0  0  0
  186.6960  177.0290  137.0530 C   0  0  0  0  0  0  0  0  0  0  0  0
  188.7310  175.7200  137.2850 C   0  0  0  0  0  3  0  0  0  0  0  0
  189.0950  176.4990  138.3870 C   0  0  0  0  0  3  0  0  0  0  0  0
  185.1310  176.5110  135.2800 C   0  0  0  0  0  3  0  0  0  0  0  0
  188.2690  177.5450  138.8290 C   0  0  0  0  0  0  0  0  0  0  0  0
  185.4970  177.2900  136.3830 C   0  0  0  0  0  3  0  0  0  0  0  0
  187.5340  175.9790  136.6140 C   0  0  0  0  0  0  0  0  0  0  0  0
  187.0690  177.8020  138.1560 C   0  0  0  0  0  3  0  0  0  0  0  0
  187.1610  175.2060  135.5120 C   0  0  0  0  0  3  0  0  0  0  0  0
  1  9  1  0  0  0  0
  2  5  1  0  0  0  0
  2  3  1  0  0  0  0
  3  7  1  0  0  0  0
  4 11  2  0  0  0  0
  5 14  2  0  0  0  0
  6  1  2  0  0  0  0
  7  4  1  0  0  0  0
  8 12  2  0  0  0  0
  8 13  1  0  0  0  0
 10 19  1  0  0  0  0
 12 16  1  0  0  0  0
 13  2  2  0  0  0  0
 14  1  1  0  0  0  0
 15 11  1  0  0  0  0
 16 17  2  0  0  0  0
 16  5  1  0  0  0  0
 17  6  1  0  0  0  0
 18 13  1  0  0  0  0
 18 10  1  0  0  0  0
 19  3  2  0  0  0  0
 19 20  1  0  0  0  0
 20 15  2  0  0  0  0
 21  8  1  0  0  0  0
 22 26  2  0  0  0  0
 22 31  1  0  0  0  0
 23 30  1  0  0  0  0
 24 25  2  0  0  0  0
 25 27  1  0  0  0  0
 26 28  1  0  0  0  0
 27 21  1  0  0  0  0
 28 23  2  0  0  0  0
 29 23  1  0  0  0  0
 29 24  1  0  0  0  0
 30 27  2  0  0  0  0
 31 29  2  0  0  0  0
M  END
>  <MODEL>
5

>  <REMARK>
 VINA RESULT:     -10.9      1.916      4.724
  Name = 
  2 active torsions:
  status: ('A' for Active; 'I' for Inactive)
    1  A    between atoms: C_9  and  N_23
    2  A    between atoms: C_15  and  N_23
                            x       y       z     vdW  Elec       q    Type
                         _______ _______ _______ _____ _____    ______ ____

>  <TORSDO>
F 2

$$$$
=
 OpenBabel10272400233D

 31 36  0  0  0  0  0  0  0  0999 V2000
  190.6420  177.3820  142.3280 C   0  0  0  0  0  0  0  0  0  0  0  0
  187.3440  177.9970  144.0020 C   0  0  0  0  0  0  0  0  0  0  0  0
  187.5970  177.7810  145.4690 C   0  0  0  0  0  0  0  0  0  0  0  0
  189.6720  177.4030  146.7670 C   0  0  0  0  0  3  0  0  0  0  0  0
  188.3460  177.8440  143.0060 C   0  0  0  0  0  0  0  0  0  0  0  0
  190.2960  177.5720  140.9890 C   0  0  0  0  0  3  0  0  0  0  0  0
  188.6230  176.7800  145.9090 C   0  0  0  0  0  2  0  0  0  0  0  0
  185.7280  178.5930  142.2490 C   0  0  0  0  0  0  0  0  0  0  0  0
  191.9790  177.0470  142.6760 N   0  0  0  0  0  1  0  0  0  0  0  0
  185.5950  179.1650  145.9200 C   0  0  0  0  0  2  0  0  0  0  0  0
  189.4000  177.9280  147.9580 C   0  0  0  0  0  3  0  0  0  0  0  0
  186.7210  178.4140  141.2840 C   0  0  0  0  0  3  0  0  0  0  0  0
  186.0470  178.4050  143.6060 C   0  0  0  0  0  0  0  0  0  0  0  0
  189.6750  177.5210  143.3270 C   0  0  0  0  0  3  0  0  0  0  0  0
  188.0470  178.0370  148.5320 C   0  0  0  0  0  3  0  0  0  0  0  0
  188.0140  178.0510  141.6450 C   0  0  0  0  0  0  0  0  0  0  0  0
  188.9850  177.9080  140.6490 C   0  0  0  0  0  3  0  0  0  0  0  0
  184.9840  178.5830  144.6510 C   0  0  0  0  0  2  0  0  0  0  0  0
  186.7560  178.3310  146.3790 C   0  0  0  0  0  0  0  0  0  0  0  0
  186.9090  178.2010  147.8470 C   0  0  0  0  0  3  0  0  0  0  0  0
  184.3900  178.9780  141.8860 N   0  0  0  0  0  2  0  0  0  0  0  0
  180.7690  176.2730  137.2940 C   0  0  0  0  0  3  0  0  0  0  0  0
  182.2440  177.0200  139.5530 C   0  0  0  0  0  0  0  0  0  0  0  0
  182.8210  179.1180  138.4690 C   0  0  0  0  0  3  0  0  0  0  0  0
  183.5570  179.4880  139.5980 C   0  0  0  0  0  3  0  0  0  0  0  0
  180.8500  175.4150  138.3950 C   0  0  0  0  0  3  0  0  0  0  0  0
  183.6420  178.6340  140.7100 C   0  0  0  0  0  0  0  0  0  0  0  0
  181.5870  175.7870  139.5250 C   0  0  0  0  0  3  0  0  0  0  0  0
  182.1640  177.8870  138.4390 C   0  0  0  0  0  0  0  0  0  0  0  0
  182.9820  177.3990  140.6770 C   0  0  0  0  0  3  0  0  0  0  0  0
  181.4260  177.5080  137.3150 C   0  0  0  0  0  3  0  0  0  0  0  0
  1  9  1  0  0  0  0
  1 14  1  0  0  0  0
  2  3  1  0  0  0  0
  3  7  1  0  0  0  0
  3 19  2  0  0  0  0
  4 11  2  0  0  0  0
  5 14  2  0  0  0  0
  5  2  1  0  0  0  0
  6  1  2  0  0  0  0
  7  4  1  0  0  0  0
  8 13  1  0  0  0  0
 10 19  1  0  0  0  0
 11 15  1  0  0  0  0
 12 16  1  0  0  0  0
 12  8  2  0  0  0  0
 13  2  2  0  0  0  0
 13 18  1  0  0  0  0
 16  5  1  0  0  0  0
 17  6  1  0  0  0  0
 17 16  2  0  0  0  0
 18 10  1  0  0  0  0
 19 20  1  0  0  0  0
 20 15  2  0  0  0  0
 21  8  1  0  0  0  0
 22 31  2  0  0  0  0
 22 26  1  0  0  0  0
 23 30  1  0  0  0  0
 24 25  2  0  0  0  0
 25 27  1  0  0  0  0
 26 28  2  0  0  0  0
 27 21  1  0  0  0  0
 28 23  1  0  0  0  0
 29 24  1  0  0  0  0
 29 23  2  0  0  0  0
 30 27  2  0  0  0  0
 31 29  1  0  0  0  0
M  END
>  <MODEL>
6

>  <REMARK>
 VINA RESULT:     -10.8      3.444      5.991
  Name = 
  2 active torsions:
  status: ('A' for Active; 'I' for Inactive)
    1  A    between atoms: C_9  and  N_23
    2  A    between atoms: C_15  and  N_23
                            x       y       z     vdW  Elec       q    Type
                         _______ _______ _______ _____ _____    ______ ____

>  <TORSDO>
F 2

$$$$
=
 OpenBabel10272400233D

 31 36  0  0  0  0  0  0  0  0999 V2000
  186.5650  178.0330  146.7340 C   0  0  0  0  0  0  0  0  0  0  0  0
  187.6460  178.2400  143.1500 C   0  0  0  0  0  0  0  0  0  0  0  0
  189.1050  177.8780  143.1530 C   0  0  0  0  0  0  0  0  0  0  0  0
  190.6060  177.0140  144.9240 C   0  0  0  0  0  3  0  0  0  0  0  0
  186.8530  178.2980  144.3280 C   0  0  0  0  0  0  0  0  0  0  0  0
  185.2260  178.4130  146.6270 C   0  0  0  0  0  3  0  0  0  0  0  0
  189.9550  178.2220  144.3400 C   0  0  0  0  0  2  0  0  0  0  0  0
  185.6780  178.8800  141.8240 C   0  0  0  0  0  0  0  0  0  0  0  0
  187.1120  177.7060  148.0050 N   0  0  0  0  0  1  0  0  0  0  0  0
  188.8690  177.2990  140.7590 C   0  0  0  0  0  2  0  0  0  0  0  0
  191.5010  176.2920  144.2540 C   0  0  0  0  0  3  0  0  0  0  0  0
  184.9220  178.9550  142.9960 C   0  0  0  0  0  3  0  0  0  0  0  0
  187.0300  178.5030  141.9010 C   0  0  0  0  0  0  0  0  0  0  0  0
  187.3690  177.9730  145.5930 C   0  0  0  0  0  3  0  0  0  0  0  0
  191.8920  176.5370  142.8540 C   0  0  0  0  0  3  0  0  0  0  0  0
  185.4880  178.6660  144.2320 C   0  0  0  0  0  0  0  0  0  0  0  0
  184.6890  178.7270  145.3780 C   0  0  0  0  0  3  0  0  0  0  0  0
  187.8560  178.4320  140.6490 C   0  0  0  0  0  2  0  0  0  0  0  0
  189.6870  177.4390  142.0100 C   0  0  0  0  0  0  0  0  0  0  0  0
  191.1080  177.0400  141.8930 C   0  0  0  0  0  3  0  0  0  0  0  0
  185.0990  179.1690  140.5380 N   0  0  0  0  0  2  0  0  0  0  0  0
  181.4500  174.8720  137.4170 C   0  0  0  0  0  3  0  0  0  0  0  0
  182.7190  176.6510  139.1670 C   0  0  0  0  0  0  0  0  0  0  0  0
  184.3190  177.2080  137.4230 C   0  0  0  0  0  3  0  0  0  0  0  0
  184.9500  178.0950  138.3000 C   0  0  0  0  0  3  0  0  0  0  0  0
  180.9700  175.0380  138.7210 C   0  0  0  0  0  3  0  0  0  0  0  0
  184.4750  178.2690  139.6100 C   0  0  0  0  0  0  0  0  0  0  0  0
  181.6040  175.9260  139.5960 C   0  0  0  0  0  3  0  0  0  0  0  0
  183.2050  176.4830  137.8500 C   0  0  0  0  0  0  0  0  0  0  0  0
  183.3580  177.5410  140.0360 C   0  0  0  0  0  3  0  0  0  0  0  0
  182.5660  175.5930  136.9820 C   0  0  0  0  0  3  0  0  0  0  0  0
  1  9  1  0  0  0  0
  2  3  1  0  0  0  0
  2  5  1  0  0  0  0
  3  7  1  0  0  0  0
  5 14  1  0  0  0  0
  6  1  1  0  0  0  0
  7  4  1  0  0  0  0
  8 13  1  0  0  0  0
  8 12  2  0  0  0  0
 10 19  1  0  0  0  0
 11  4  2  0  0  0  0
 12 16  1  0  0  0  0
 13  2  2  0  0  0  0
 14  1  2  0  0  0  0
 15 11  1  0  0  0  0
 16  5  2  0  0  0  0
 16 17  1  0  0  0  0
 17  6  2  0  0  0  0
 18 10  1  0  0  0  0
 18 13  1  0  0  0  0
 19  3  2  0  0  0  0
 20 19  1  0  0  0  0
 20 15  2  0  0  0  0
 21  8  1  0  0  0  0
 22 26  1  0  0  0  0
 23 28  1  0  0  0  0
 23 30  1  0  0  0  0
 24 29  1  0  0  0  0
 24 25  2  0  0  0  0
 25 27  1  0  0  0  0
 26 28  2  0  0  0  0
 27 30  2  0  0  0  0
 27 21  1  0  0  0  0
 29 23  2  0  0  0  0
 31 22  2  0  0  0  0
 31 29  1  0  0  0  0
M  END
>  <MODEL>
7

>  <REMARK>
 VINA RESULT:     -10.5      3.216      6.067
  Name = 
  2 active torsions:
  status: ('A' for Active; 'I' for Inactive)
    1  A    between atoms: C_9  and  N_23
    2  A    between atoms: C_15  and  N_23
                            x       y       z     vdW  Elec       q    Type
                         _______ _______ _______ _____ _____    ______ ____

>  <TORSDO>
F 2

$$$$
=
 OpenBabel10272400233D

 31 36  0  0  0  0  0  0  0  0999 V2000
  190.1440  177.6670  141.0590 C   0  0  0  0  0  0  0  0  0  0  0  0
  186.8660  178.0490  142.8390 C   0  0  0  0  0  0  0  0  0  0  0  0
  187.1510  177.7010  144.2740 C   0  0  0  0  0  0  0  0  0  0  0  0
  189.2570  177.2480  145.4950 C   0  0  0  0  0  3  0  0  0  0  0  0
  187.8530  178.0130  141.8160 C   0  0  0  0  0  0  0  0  0  0  0  0
  189.7690  177.9760  139.7500 C   0  0  0  0  0  3  0  0  0  0  0  0
  188.2060  176.6860  144.6000 C   0  0  0  0  0  2  0  0  0  0  0  0
  185.2060  178.7710  141.1770 C   0  0  0  0  0  0  0  0  0  0  0  0
  191.4940  177.3310  141.3510 N   0  0  0  0  0  1  0  0  0  0  0  0
  185.1300  178.9910  144.8870 C   0  0  0  0  0  2  0  0  0  0  0  0
  188.9970  177.6530  146.7360 C   0  0  0  0  0  3  0  0  0  0  0  0
  186.1840  178.7060  140.1830 C   0  0  0  0  0  3  0  0  0  0  0  0
  185.5540  178.4630  142.5040 C   0  0  0  0  0  0  0  0  0  0  0  0
  189.1930  177.6900  142.0820 C   0  0  0  0  0  3  0  0  0  0  0  0
  187.6530  177.6770  147.3400 C   0  0  0  0  0  3  0  0  0  0  0  0
  187.4910  178.3390  140.4860 C   0  0  0  0  0  0  0  0  0  0  0  0
  188.4460  178.3130  139.4650 C   0  0  0  0  0  3  0  0  0  0  0  0
  184.5070  178.5180  143.5790 C   0  0  0  0  0  2  0  0  0  0  0  0
  186.3160  178.1430  145.2460 C   0  0  0  0  0  0  0  0  0  0  0  0
  186.4990  177.8800  146.6920 C   0  0  0  0  0  3  0  0  0  0  0  0
  183.8540  179.1590  140.8740 N   0  0  0  0  0  2  0  0  0  0  0  0
  180.2880  179.8730  135.5560 C   0  0  0  0  0  3  0  0  0  0  0  0
  181.7200  180.0540  137.9540 C   0  0  0  0  0  0  0  0  0  0  0  0
  182.3890  177.7290  137.7170 C   0  0  0  0  0  3  0  0  0  0  0  0
  183.1030  177.8230  138.9160 C   0  0  0  0  0  3  0  0  0  0  0  0
  180.3110  181.0750  136.2710 C   0  0  0  0  0  3  0  0  0  0  0  0
  183.1340  179.0260  139.6400 C   0  0  0  0  0  0  0  0  0  0  0  0
  181.0260  181.1660  137.4700 C   0  0  0  0  0  3  0  0  0  0  0  0
  181.6960  178.8390  137.2320 C   0  0  0  0  0  0  0  0  0  0  0  0
  182.4370  180.1380  139.1510 C   0  0  0  0  0  3  0  0  0  0  0  0
  180.9790  178.7550  136.0350 C   0  0  0  0  0  3  0  0  0  0  0  0
  1  9  1  0  0  0  0
  1 14  1  0  0  0  0
  2  3  1  0  0  0  0
  3  7  1  0  0  0  0
  3 19  2  0  0  0  0
  4 11  2  0  0  0  0
  5 14  2  0  0  0  0
  5  2  1  0  0  0  0
  6  1  2  0  0  0  0
  7  4  1  0  0  0  0
  8 13  1  0  0  0  0
 10 19  1  0  0  0  0
 11 15  1  0  0  0  0
 12 16  1  0  0  0  0
 12  8  2  0  0  0  0
 13  2  2  0  0  0  0
 13 18  1  0  0  0  0
 16  5  1  0  0  0  0
 17  6  1  0  0  0  0
 17 16  2  0  0  0  0
 18 10  1  0  0  0  0
 19 20  1  0  0  0  0
 20 15  2  0  0  0  0
 21  8  1  0  0  0  0
 22 31  2  0  0  0  0
 22 26  1  0  0  0  0
 23 30  1  0  0  0  0
 24 25  2  0  0  0  0
 25 27  1  0  0  0  0
 26 28  2  0  0  0  0
 27 21  1  0  0  0  0
 28 23  1  0  0  0  0
 29 24  1  0  0  0  0
 29 23  2  0  0  0  0
 30 27  2  0  0  0  0
 31 29  1  0  0  0  0
M  END
>  <MODEL>
8

>  <REMARK>
 VINA RESULT:     -10.5      3.917      6.669
  Name = 
  2 active torsions:
  status: ('A' for Active; 'I' for Inactive)
    1  A    between atoms: C_9  and  N_23
    2  A    between atoms: C_15  and  N_23
                            x       y       z     vdW  Elec       q    Type
                         _______ _______ _______ _____ _____    ______ ____

>  <TORSDO>
F 2

$$$$
=
 OpenBabel10272400233D

 31 36  0  0  0  0  0  0  0  0999 V2000
  186.6010  178.0150  146.7900 C   0  0  0  0  0  0  0  0  0  0  0  0
  187.6350  178.2600  143.1940 C   0  0  0  0  0  0  0  0  0  0  0  0
  189.0970  177.9110  143.1760 C   0  0  0  0  0  0  0  0  0  0  0  0
  190.6280  177.0450  144.9200 C   0  0  0  0  0  3  0  0  0  0  0  0
  186.8560  178.3020  144.3820 C   0  0  0  0  0  0  0  0  0  0  0  0
  185.2580  178.3840  146.7020 C   0  0  0  0  0  3  0  0  0  0  0  0
  189.9590  178.2520  144.3550 C   0  0  0  0  0  2  0  0  0  0  0  0
  185.6450  178.8950  141.8980 C   0  0  0  0  0  0  0  0  0  0  0  0
  187.1670  177.6820  148.0510 N   0  0  0  0  0  1  0  0  0  0  0  0
  188.8360  177.3490  140.7800 C   0  0  0  0  0  2  0  0  0  0  0  0
  191.5200  176.3360  144.2330 C   0  0  0  0  0  3  0  0  0  0  0  0
  184.9030  178.9540  143.0800 C   0  0  0  0  0  3  0  0  0  0  0  0
  187.0010  178.5290  141.9560 C   0  0  0  0  0  0  0  0  0  0  0  0
  187.3910  177.9710  145.6380 C   0  0  0  0  0  3  0  0  0  0  0  0
  191.8910  176.5950  142.8310 C   0  0  0  0  0  3  0  0  0  0  0  0
  185.4870  178.6590  144.3070 C   0  0  0  0  0  0  0  0  0  0  0  0
  184.7020  178.7030  145.4630 C   0  0  0  0  0  3  0  0  0  0  0  0
  187.8110  178.4740  140.6920 C   0  0  0  0  0  2  0  0  0  0  0  0
  189.6680  177.4860  142.0220 C   0  0  0  0  0  0  0  0  0  0  0  0
  191.0910  177.1000  141.8830 C   0  0  0  0  0  3  0  0  0  0  0  0
  185.0470  179.1890  140.6230 N   0  0  0  0  0  2  0  0  0  0  0  0
  182.7360  175.6660  135.7480 C   0  0  0  0  0  3  0  0  0  0  0  0
  184.0920  177.3490  137.5260 C   0  0  0  0  0  0  0  0  0  0  0  0
  182.5200  176.7460  139.2790 C   0  0  0  0  0  3  0  0  0  0  0  0
  183.2000  177.5880  140.1650 C   0  0  0  0  0  3  0  0  0  0  0  0
  183.8560  176.3860  135.3180 C   0  0  0  0  0  3  0  0  0  0  0  0
  184.3260  178.3130  139.7430 C   0  0  0  0  0  0  0  0  0  0  0  0
  184.5340  177.2280  136.2060 C   0  0  0  0  0  3  0  0  0  0  0  0
  182.9600  176.6230  137.9600 C   0  0  0  0  0  0  0  0  0  0  0  0
  184.7650  178.1880  138.4190 C   0  0  0  0  0  3  0  0  0  0  0  0
  182.2880  175.7840  137.0670 C   0  0  0  0  0  3  0  0  0  0  0  0
  1  9  1  0  0  0  0
  2  5  1  0  0  0  0
  3  2  1  0  0  0  0
  3  7  1  0  0  0  0
  5 14  1  0  0  0  0
  6  1  1  0  0  0  0
  7  4  1  0  0  0  0
  8 13  1  0  0  0  0
  8 12  2  0  0  0  0
 10 19  1  0  0  0  0
 11  4  2  0  0  0  0
 12 16  1  0  0  0  0
 13  2  2  0  0  0  0
 14  1  2  0  0  0  0
 15 11  1  0  0  0  0
 16  5  2  0  0  0  0
 16 17  1  0  0  0  0
 17  6  2  0  0  0  0
 18 10  1  0  0  0  0
 18 13  1  0  0  0  0
 19  3  2  0  0  0  0
 20 19  1  0  0  0  0
 20 15  2  0  0  0  0
 21  8  1  0  0  0  0
 22 31  1  0  0  0  0
 23 29  1  0  0  0  0
 23 30  1  0  0  0  0
 24 25  2  0  0  0  0
 26 22  2  0  0  0  0
 26 28  1  0  0  0  0
 27 25  1  0  0  0  0
 27 21  1  0  0  0  0
 28 23  2  0  0  0  0
 29 24  1  0  0  0  0
 30 27  2  0  0  0  0
 31 29  2  0  0  0  0
M  END
>  <MODEL>
9

>  <REMARK>
 VINA RESULT:     -10.3      3.023      5.753
  Name = 
  2 active torsions:
  status: ('A' for Active; 'I' for Inactive)
    1  A    between atoms: C_9  and  N_23
    2  A    between atoms: C_15  and  N_23
                            x       y       z     vdW  Elec       q    Type
                         _______ _______ _______ _____ _____    ______ ____

>  <TORSDO>
F 2

$$$$
