=
 OpenBabel10272414233D

 43 48  0  0  1  0  0  0  0  0999 V2000
  189.3650  177.5620  138.8860 C   0  0  2  0  0  3  0  0  0  0  0  0
  182.9360  178.5410  138.6310 C   0  0  0  0  0  0  0  0  0  0  0  0
  187.8990  177.7040  138.5780 C   0  0  0  0  0  0  0  0  0  0  0  0
  185.1770  177.8550  138.0260 C   0  0  0  0  0  0  0  0  0  0  0  0
  183.4250  179.1020  139.8140 C   0  0  0  0  0  3  0  0  0  0  0  0
  181.5460  178.6110  138.3330 N   0  0  0  0  0  1  0  0  0  0  0  0
  185.6760  178.4140  139.2220 C   0  0  0  0  0  0  0  0  0  0  0  0
  183.8100  177.9200  137.7360 C   0  0  0  0  0  3  0  0  0  0  0  0
  184.7910  179.0400  140.1100 C   0  0  0  0  0  3  0  0  0  0  0  0
  187.5570  178.8560  140.6880 O   0  0  0  0  0  1  0  0  0  0  0  0
  187.0460  178.3310  139.5030 C   0  0  0  0  0  0  0  0  0  0  0  0
  187.3830  177.1720  137.4360 N   0  0  0  0  0  0  0  0  0  0  0  0
  186.0590  177.2390  137.1410 C   0  0  0  0  0  3  0  0  0  0  0  0
  190.3000  177.5870  137.6660 C   0  0  0  0  0  2  0  0  0  0  0  0
  193.5350  175.6170  137.9470 C   0  0  0  0  0  3  0  0  0  0  0  0
  193.1300  174.3490  137.4940 C   0  0  0  0  0  0  0  0  0  0  0  0
  190.8810  175.2020  137.1750 C   0  0  0  0  0  3  0  0  0  0  0  0
  192.6170  176.6680  138.0090 C   0  0  0  0  0  3  0  0  0  0  0  0
  191.2890  176.4650  137.6170 C   0  0  0  0  0  0  0  0  0  0  0  0
  191.7990  174.1490  137.1140 C   0  0  0  0  0  3  0  0  0  0  0  0
  194.0230  173.2780  137.4160 O   0  0  0  0  0  0  0  0  0  0  0  0
  195.1650  173.1640  138.2580 C   0  0  0  0  0  1  0  0  0  0  0  0
  189.6830  176.5150  139.9600 C   0  0  0  0  0  2  0  0  0  0  0  0
  190.5830  177.0640  141.0560 C   0  0  0  0  0  2  0  0  0  0  0  0
  189.1430  176.2550  142.5850 O   0  0  0  0  0  1  0  0  0  0  0  0
  190.4560  176.2430  142.2500 N   0  0  0  0  0  0  0  0  0  0  0  0
  190.2410  177.7950  144.1350 C   0  0  2  0  0  3  0  0  0  0  0  0
  191.8820  178.1490  142.7970 C   0  0  0  0  0  2  0  0  0  0  0  0
  191.1850  176.9060  143.3280 C   0  0  2  0  0  3  0  0  0  0  0  0
  190.9380  179.0280  143.5920 C   0  0  0  0  0  2  0  0  0  0  0  0
  190.4980  177.6630  145.6410 C   0  0  2  0  0  3  0  0  0  0  0  0
  189.5790  176.6370  147.6480 C   0  0  0  0  0  2  0  0  0  0  0  0
  191.3140  176.4350  145.9750 C   0  0  0  0  0  2  0  0  0  0  0  0
  189.2230  177.5410  146.4720 C   0  0  1  0  0  0  0  0  0  0  0  0
  188.8480  178.8030  146.9350 O   0  0  0  0  0  1  0  0  0  0  0  0
  191.0030  176.1580  147.4290 C   0  0  0  0  0  2  0  0  0  0  0  0
  188.1640  176.9600  145.7010 O   0  0  0  0  0  0  0  0  0  0  0  0
  186.9230  177.5620  145.4510 C   0  0  0  0  0  0  0  0  0  0  0  0
  184.8210  178.5290  146.1990 C   0  0  0  0  0  3  0  0  0  0  0  0
  185.3220  178.4060  143.8340 C   0  0  0  0  0  3  0  0  0  0  0  0
  184.4570  178.7680  144.8720 C   0  0  0  0  0  3  0  0  0  0  0  0
  186.5510  177.8070  144.1250 C   0  0  0  0  0  3  0  0  0  0  0  0
  186.0500  177.9290  146.4890 C   0  0  0  0  0  3  0  0  0  0  0  0
  1 14  1  6  0  0  0
  1 23  1  0  0  0  0
  2  5  1  0  0  0  0
  3  1  1  0  0  0  0
  3 11  1  0  0  0  0
  4  7  1  0  0  0  0
  5  9  2  0  0  0  0
  6  2  1  0  0  0  0
  7 11  2  0  0  0  0
  7  9  1  0  0  0  0
  8  4  1  0  0  0  0
  8  2  2  0  0  0  0
 11 10  1  0  0  0  0
 12  3  2  0  0  0  0
 13 12  1  0  0  0  0
 13  4  2  0  0  0  0
 15 18  1  0  0  0  0
 16 15  2  0  0  0  0
 17 19  1  0  0  0  0
 19 14  1  0  0  0  0
 19 18  2  0  0  0  0
 20 17  2  0  0  0  0
 20 16  1  0  0  0  0
 21 16  1  0  0  0  0
 21 22  1  0  0  0  0
 23 24  1  0  0  0  0
 24 26  1  0  0  0  0
 26 25  1  0  0  0  0
 27 30  1  6  0  0  0
 27 31  1  0  0  0  0
 28 29  1  0  0  0  0
 28 30  1  0  0  0  0
 29 26  1  6  0  0  0
 29 27  1  0  0  0  0
 31 33  1  6  0  0  0
 31 34  1  0  0  0  0
 33 36  1  0  0  0  0
 34 35  1  1  0  0  0
 34 32  1  0  0  0  0
 36 32  1  0  0  0  0
 37 34  1  0  0  0  0
 38 37  1  0  0  0  0
 38 43  1  0  0  0  0
 39 43  2  0  0  0  0
 40 42  1  0  0  0  0
 40 41  2  0  0  0  0
 41 39  1  0  0  0  0
 42 38  2  0  0  0  0
M  END
>  <MODEL>
1

>  <REMARK>
 VINA RESULT:      -9.1      0.000      0.000
  Name = 
  11 active torsions:
  status: ('A' for Active; 'I' for Inactive)
    1  A    between atoms: C_1  and  C_34
    2  A    between atoms: C_1  and  C_35
    3  A    between atoms: C_3  and  C_4
    4  A    between atoms: N_6  and  C_12
    5  A    between atoms: N_6  and  C_13
    6  A    between atoms: C_8  and  C_34
    7  A    between atoms: C_11  and  O_14
    8  A    between atoms: C_13  and  C_38
    9  A    between atoms: O_14  and  C_22
   10  A    between atoms: C_19  and  O_25
   11  A    between atoms: C_34  and  C_38
                            x       y       z     vdW  Elec       q    Type
                         _______ _______ _______ _____ _____    ______ ____

>  <TORSDO>
F 11

$$$$
=
 OpenBabel10272414233D

 43 48  0  0  1  0  0  0  0  0999 V2000
  188.2950  177.3060  143.2970 C   0  0  2  0  0  3  0  0  0  0  0  0
  182.0960  179.2850  143.2130 C   0  0  0  0  0  0  0  0  0  0  0  0
  186.9150  177.8420  143.0320 C   0  0  0  0  0  0  0  0  0  0  0  0
  184.3380  178.7380  142.4850 C   0  0  0  0  0  0  0  0  0  0  0  0
  182.4360  178.9430  144.5250 C   0  0  0  0  0  3  0  0  0  0  0  0
  180.7820  179.7470  142.9170 N   0  0  0  0  0  1  0  0  0  0  0  0
  184.6860  178.3840  143.8060 C   0  0  0  0  0  0  0  0  0  0  0  0
  183.0460  179.1850  142.1940 C   0  0  0  0  0  3  0  0  0  0  0  0
  183.7270  178.4940  144.8230 C   0  0  0  0  0  3  0  0  0  0  0  0
  186.3400  177.5500  145.3730 O   0  0  0  0  0  1  0  0  0  0  0  0
  185.9810  177.9260  144.0800 C   0  0  0  0  0  0  0  0  0  0  0  0
  186.5440  178.1880  141.7680 N   0  0  0  0  0  0  0  0  0  0  0  0
  185.2950  178.6330  141.4770 C   0  0  0  0  0  3  0  0  0  0  0  0
  189.2120  178.2250  144.1220 C   0  0  0  0  0  2  0  0  0  0  0  0
  190.4090  176.9020  147.4750 C   0  0  0  0  0  3  0  0  0  0  0  0
  191.5760  176.2130  147.1020 C   0  0  0  0  0  0  0  0  0  0  0  0
  191.1800  176.8300  144.7890 C   0  0  0  0  0  3  0  0  0  0  0  0
  189.6360  177.5510  146.5080 C   0  0  0  0  0  3  0  0  0  0  0  0
  190.0230  177.5210  145.1640 C   0  0  0  0  0  0  0  0  0  0  0  0
  191.9530  176.1790  145.7550 C   0  0  0  0  0  3  0  0  0  0  0  0
  192.3730  175.5570  148.0430 O   0  0  0  0  0  0  0  0  0  0  0  0
  193.0830  176.2460  149.0670 C   0  0  0  0  0  1  0  0  0  0  0  0
  188.9410  176.6110  142.0940 C   0  0  0  0  0  2  0  0  0  0  0  0
  189.7900  177.5610  141.2620 C   0  0  0  0  0  2  0  0  0  0  0  0
  192.0170  177.3070  141.4690 O   0  0  0  0  0  1  0  0  0  0  0  0
  190.9570  176.8570  140.7550 N   0  0  0  0  0  0  0  0  0  0  0  0
  190.2980  176.4250  138.4350 C   0  0  2  0  0  3  0  0  0  0  0  0
  192.4050  176.6040  138.8040 C   0  0  0  0  0  2  0  0  0  0  0  0
  191.1600  177.2700  139.3680 C   0  0  2  0  0  3  0  0  0  0  0  0
  191.5450  175.7600  137.8840 C   0  0  0  0  0  2  0  0  0  0  0  0
  189.6360  177.2850  137.3510 C   0  0  2  0  0  3  0  0  0  0  0  0
  187.5070  177.6160  136.2170 C   0  0  0  0  0  2  0  0  0  0  0  0
  188.9650  178.5110  137.9260 C   0  0  0  0  0  2  0  0  0  0  0  0
  188.5450  176.5550  136.5700 C   0  0  1  0  0  0  0  0  0  0  0  0
  189.0910  176.0130  135.4060 O   0  0  0  0  0  1  0  0  0  0  0  0
  187.9430  178.9080  136.8850 C   0  0  0  0  0  2  0  0  0  0  0  0
  187.9500  175.5230  137.3670 O   0  0  0  0  0  0  0  0  0  0  0  0
  187.4610  174.3050  136.8750 C   0  0  0  0  0  0  0  0  0  0  0  0
  185.7060  172.9440  135.8830 C   0  0  0  0  0  3  0  0  0  0  0  0
  187.8520  171.9560  136.4070 C   0  0  0  0  0  3  0  0  0  0  0  0
  186.5530  171.8340  135.9030 C   0  0  0  0  0  3  0  0  0  0  0  0
  188.3040  173.1890  136.8890 C   0  0  0  0  0  3  0  0  0  0  0  0
  186.1570  174.1760  136.3660 C   0  0  0  0  0  3  0  0  0  0  0  0
  1 23  1  6  0  0  0
  1 14  1  0  0  0  0
  2  5  1  0  0  0  0
  3  1  1  0  0  0  0
  3 11  1  0  0  0  0
  4  7  1  0  0  0  0
  5  9  2  0  0  0  0
  6  2  1  0  0  0  0
  7 11  2  0  0  0  0
  7  9  1  0  0  0  0
  8  4  1  0  0  0  0
  8  2  2  0  0  0  0
 11 10  1  0  0  0  0
 12  3  2  0  0  0  0
 13 12  1  0  0  0  0
 13  4  2  0  0  0  0
 14 19  1  0  0  0  0
 16 15  1  0  0  0  0
 16 21  1  0  0  0  0
 17 19  2  0  0  0  0
 17 20  1  0  0  0  0
 18 15  2  0  0  0  0
 19 18  1  0  0  0  0
 20 16  2  0  0  0  0
 21 22  1  0  0  0  0
 24 23  1  0  0  0  0
 26 24  1  0  0  0  0
 26 25  1  0  0  0  0
 27 30  1  6  0  0  0
 27 29  1  0  0  0  0
 28 29  1  0  0  0  0
 29 26  1  1  0  0  0
 30 28  1  0  0  0  0
 31 33  1  1  0  0  0
 31 27  1  0  0  0  0
 32 34  1  0  0  0  0
 32 36  1  0  0  0  0
 34 35  1  6  0  0  0
 34 31  1  0  0  0  0
 34 37  1  0  0  0  0
 36 33  1  0  0  0  0
 38 42  1  0  0  0  0
 38 37  1  0  0  0  0
 39 41  2  0  0  0  0
 39 43  1  0  0  0  0
 40 42  2  0  0  0  0
 41 40  1  0  0  0  0
 43 38  2  0  0  0  0
M  END
>  <MODEL>
2

>  <REMARK>
 VINA RESULT:      -9.0      2.701      7.729
  Name = 
  11 active torsions:
  status: ('A' for Active; 'I' for Inactive)
    1  A    between atoms: C_1  and  C_34
    2  A    between atoms: C_1  and  C_35
    3  A    between atoms: C_3  and  C_4
    4  A    between atoms: N_6  and  C_12
    5  A    between atoms: N_6  and  C_13
    6  A    between atoms: C_8  and  C_34
    7  A    between atoms: C_11  and  O_14
    8  A    between atoms: C_13  and  C_38
    9  A    between atoms: O_14  and  C_22
   10  A    between atoms: C_19  and  O_25
   11  A    between atoms: C_34  and  C_38
                            x       y       z     vdW  Elec       q    Type
                         _______ _______ _______ _____ _____    ______ ____

>  <TORSDO>
F 11

$$$$
=
 OpenBabel10272414233D

 43 48  0  0  1  0  0  0  0  0999 V2000
  189.6630  176.9450  140.8150 C   0  0  2  0  0  3  0  0  0  0  0  0
  184.6270  178.8420  144.4740 C   0  0  0  0  0  0  0  0  0  0  0  0
  188.5460  177.1630  141.7980 C   0  0  0  0  0  0  0  0  0  0  0  0
  186.5550  177.6070  143.6900 C   0  0  0  0  0  0  0  0  0  0  0  0
  184.6780  179.6490  143.3330 C   0  0  0  0  0  3  0  0  0  0  0  0
  183.6140  179.0550  145.4510 N   0  0  0  0  0  1  0  0  0  0  0  0
  186.6160  178.4230  142.5400 C   0  0  0  0  0  0  0  0  0  0  0  0
  185.5630  177.8210  144.6520 C   0  0  0  0  0  3  0  0  0  0  0  0
  185.6680  179.4410  142.3680 C   0  0  0  0  0  3  0  0  0  0  0  0
  187.7150  179.0110  140.4590 O   0  0  0  0  0  1  0  0  0  0  0  0
  187.6220  178.2030  141.5910 C   0  0  0  0  0  0  0  0  0  0  0  0
  188.4600  176.3980  142.9210 N   0  0  0  0  0  0  0  0  0  0  0  0
  187.4940  176.5910  143.8560 C   0  0  0  0  0  3  0  0  0  0  0  0
  191.0590  177.3710  141.2980 C   0  0  0  0  0  2  0  0  0  0  0  0
  191.7380  175.8680  144.7190 C   0  0  0  0  0  3  0  0  0  0  0  0
  191.6560  177.0030  145.5440 C   0  0  0  0  0  0  0  0  0  0  0  0
  191.2010  178.3680  143.5890 C   0  0  0  0  0  3  0  0  0  0  0  0
  191.5500  175.9850  143.3390 C   0  0  0  0  0  3  0  0  0  0  0  0
  191.2760  177.2350  142.7720 C   0  0  0  0  0  0  0  0  0  0  0  0
  191.3910  178.2510  144.9700 C   0  0  0  0  0  3  0  0  0  0  0  0
  191.8350  176.9200  146.9270 O   0  0  0  0  0  0  0  0  0  0  0  0
  192.3440  175.7570  147.5700 C   0  0  0  0  0  1  0  0  0  0  0  0
  189.3080  177.3090  139.3690 C   0  0  0  0  0  2  0  0  0  0  0  0
  190.3220  176.7720  138.3700 C   0  0  0  0  0  2  0  0  0  0  0  0
  191.4110  174.8030  138.3360 O   0  0  0  0  0  1  0  0  0  0  0  0
  190.1670  175.3320  138.2430 N   0  0  0  0  0  0  0  0  0  0  0  0
  188.1500  175.0150  136.8890 C   0  0  2  0  0  3  0  0  0  0  0  0
  189.7020  173.5540  136.6330 C   0  0  0  0  0  2  0  0  0  0  0  0
  189.6760  175.0520  136.8960 C   0  0  2  0  0  3  0  0  0  0  0  0
  188.1870  173.5190  136.6360 C   0  0  0  0  0  2  0  0  0  0  0  0
  187.5770  175.7430  135.6660 C   0  0  2  0  0  3  0  0  0  0  0  0
  185.8540  177.3430  135.0360 C   0  0  0  0  0  2  0  0  0  0  0  0
  188.2230  177.0930  135.4530 C   0  0  0  0  0  2  0  0  0  0  0  0
  186.0790  176.0230  135.7650 C   0  0  1  0  0  0  0  0  0  0  0  0
  185.3740  174.9990  135.1300 O   0  0  0  0  0  1  0  0  0  0  0  0
  187.2200  177.8670  134.6280 C   0  0  0  0  0  2  0  0  0  0  0  0
  185.6690  176.1330  137.1340 O   0  0  0  0  0  0  0  0  0  0  0  0
  184.7720  177.0870  137.6330 C   0  0  0  0  0  0  0  0  0  0  0  0
  182.5250  177.9720  137.9220 C   0  0  0  0  0  3  0  0  0  0  0  0
  184.4140  179.1270  138.8990 C   0  0  0  0  0  3  0  0  0  0  0  0
  183.0380  179.0360  138.6680 C   0  0  0  0  0  3  0  0  0  0  0  0
  185.2770  178.1550  138.3830 C   0  0  0  0  0  3  0  0  0  0  0  0
  183.3870  177.0000  137.4060 C   0  0  0  0  0  3  0  0  0  0  0  0
  1 23  1  6  0  0  0
  1 14  1  0  0  0  0
  1  3  1  0  0  0  0
  2  8  1  0  0  0  0
  2  6  1  0  0  0  0
  3 12  1  0  0  0  0
  4 13  1  0  0  0  0
  4  8  2  0  0  0  0
  5  2  2  0  0  0  0
  7  4  1  0  0  0  0
  9  7  2  0  0  0  0
  9  5  1  0  0  0  0
 10 11  1  0  0  0  0
 11  3  2  0  0  0  0
 11  7  1  0  0  0  0
 12 13  2  0  0  0  0
 14 19  1  0  0  0  0
 15 16  1  0  0  0  0
 16 21  1  0  0  0  0
 17 20  1  0  0  0  0
 18 15  2  0  0  0  0
 19 18  1  0  0  0  0
 19 17  2  0  0  0  0
 20 16  2  0  0  0  0
 21 22  1  0  0  0  0
 24 23  1  0  0  0  0
 26 25  1  0  0  0  0
 26 24  1  0  0  0  0
 27 30  1  6  0  0  0
 27 29  1  0  0  0  0
 28 30  1  0  0  0  0
 28 29  1  0  0  0  0
 29 26  1  1  0  0  0
 31 33  1  1  0  0  0
 31 34  1  0  0  0  0
 31 27  1  0  0  0  0
 32 34  1  0  0  0  0
 34 35  1  6  0  0  0
 34 37  1  0  0  0  0
 36 32  1  0  0  0  0
 36 33  1  0  0  0  0
 37 38  1  0  0  0  0
 38 42  1  0  0  0  0
 39 41  2  0  0  0  0
 41 40  1  0  0  0  0
 42 40  2  0  0  0  0
 43 38  2  0  0  0  0
 43 39  1  0  0  0  0
M  END
>  <MODEL>
3

>  <REMARK>
 VINA RESULT:      -8.8      2.459      7.544
  Name = 
  11 active torsions:
  status: ('A' for Active; 'I' for Inactive)
    1  A    between atoms: C_1  and  C_34
    2  A    between atoms: C_1  and  C_35
    3  A    between atoms: C_3  and  C_4
    4  A    between atoms: N_6  and  C_12
    5  A    between atoms: N_6  and  C_13
    6  A    between atoms: C_8  and  C_34
    7  A    between atoms: C_11  and  O_14
    8  A    between atoms: C_13  and  C_38
    9  A    between atoms: O_14  and  C_22
   10  A    between atoms: C_19  and  O_25
   11  A    between atoms: C_34  and  C_38
                            x       y       z     vdW  Elec       q    Type
                         _______ _______ _______ _____ _____    ______ ____

>  <TORSDO>
F 11

$$$$
=
 OpenBabel10272414233D

 43 48  0  0  1  0  0  0  0  0999 V2000
  188.6350  178.2270  139.7280 C   0  0  2  0  0  3  0  0  0  0  0  0
  182.3920  178.8550  141.4550 C   0  0  0  0  0  0  0  0  0  0  0  0
  187.1480  178.4070  139.8700 C   0  0  0  0  0  0  0  0  0  0  0  0
  184.3850  178.6320  140.1000 C   0  0  0  0  0  0  0  0  0  0  0  0
  183.1780  178.8660  142.6120 C   0  0  0  0  0  3  0  0  0  0  0  0
  180.9770  178.9700  141.5560 N   0  0  0  0  0  1  0  0  0  0  0  0
  185.1830  178.6360  141.2650 C   0  0  0  0  0  0  0  0  0  0  0  0
  182.9950  178.7400  140.2010 C   0  0  0  0  0  3  0  0  0  0  0  0
  184.5690  178.7580  142.5180 C   0  0  0  0  0  3  0  0  0  0  0  0
  187.3790  178.4950  142.2850 O   0  0  0  0  0  1  0  0  0  0  0  0
  186.5730  178.5160  141.1480 C   0  0  0  0  0  0  0  0  0  0  0  0
  186.3480  178.4030  138.7680 N   0  0  0  0  0  0  0  0  0  0  0  0
  184.9970  178.5170  138.8540 C   0  0  0  0  0  3  0  0  0  0  0  0
  189.1770  178.3270  138.2930 C   0  0  0  0  0  2  0  0  0  0  0  0
  189.0890  174.8880  136.6820 C   0  0  0  0  0  3  0  0  0  0  0  0
  190.4580  174.5770  136.6150 C   0  0  0  0  0  0  0  0  0  0  0  0
  190.9770  176.7210  137.6270 C   0  0  0  0  0  3  0  0  0  0  0  0
  188.6710  176.1080  137.2220 C   0  0  0  0  0  3  0  0  0  0  0  0
  189.6140  177.0240  137.7000 C   0  0  0  0  0  0  0  0  0  0  0  0
  191.3970  175.5010  137.0860 C   0  0  0  0  0  3  0  0  0  0  0  0
  190.9100  173.3660  136.0850 O   0  0  0  0  0  0  0  0  0  0  0  0
  192.2910  173.0290  136.0000 C   0  0  0  0  0  1  0  0  0  0  0  0
  189.2170  177.1040  140.5930 C   0  0  0  0  0  2  0  0  0  0  0  0
  190.5430  177.4920  141.2310 C   0  0  0  0  0  2  0  0  0  0  0  0
  189.7120  176.0450  142.7410 O   0  0  0  0  0  1  0  0  0  0  0  0
  190.8850  176.5330  142.2700 N   0  0  0  0  0  0  0  0  0  0  0  0
  190.5730  177.3600  144.5550 C   0  0  2  0  0  3  0  0  0  0  0  0
  191.3730  178.7630  143.1390 C   0  0  0  0  0  2  0  0  0  0  0  0
  191.5210  177.2650  143.3620 C   0  0  2  0  0  3  0  0  0  0  0  0
  190.4260  178.8520  144.3190 C   0  0  0  0  0  2  0  0  0  0  0  0
  191.3090  177.1050  145.8770 C   0  0  2  0  0  3  0  0  0  0  0  0
  191.0470  175.9730  148.0160 C   0  0  0  0  0  2  0  0  0  0  0  0
  192.1060  175.8210  145.8470 C   0  0  0  0  0  2  0  0  0  0  0  0
  190.3790  176.9760  147.0820 C   0  0  1  0  0  0  0  0  0  0  0  0
  190.2650  178.2160  147.7130 O   0  0  0  0  0  1  0  0  0  0  0  0
  192.2810  175.4500  147.3020 C   0  0  0  0  0  2  0  0  0  0  0  0
  189.0880  176.5020  146.6820 O   0  0  0  0  0  0  0  0  0  0  0  0
  187.9220  177.2780  146.6350 C   0  0  0  0  0  0  0  0  0  0  0  0
  185.9710  178.1470  145.4710 C   0  0  0  0  0  3  0  0  0  0  0  0
  186.3840  178.7710  147.7730 C   0  0  0  0  0  3  0  0  0  0  0  0
  185.5990  178.8520  146.6190 C   0  0  0  0  0  3  0  0  0  0  0  0
  187.5400  177.9860  147.7800 C   0  0  0  0  0  3  0  0  0  0  0  0
  187.1270  177.3620  145.4780 C   0  0  0  0  0  3  0  0  0  0  0  0
  1 14  1  6  0  0  0
  1  3  1  0  0  0  0
  1 23  1  0  0  0  0
  2  6  1  0  0  0  0
  2  5  1  0  0  0  0
  3 11  1  0  0  0  0
  4  8  1  0  0  0  0
  4  7  1  0  0  0  0
  7  9  1  0  0  0  0
  8  2  2  0  0  0  0
  9  5  2  0  0  0  0
 11  7  2  0  0  0  0
 11 10  1  0  0  0  0
 12 13  1  0  0  0  0
 12  3  2  0  0  0  0
 13  4  2  0  0  0  0
 15 18  1  0  0  0  0
 16 15  2  0  0  0  0
 16 20  1  0  0  0  0
 17 19  1  0  0  0  0
 18 19  2  0  0  0  0
 19 14  1  0  0  0  0
 20 17  2  0  0  0  0
 21 16  1  0  0  0  0
 22 21  1  0  0  0  0
 23 24  1  0  0  0  0
 24 26  1  0  0  0  0
 26 25  1  0  0  0  0
 27 30  1  1  0  0  0
 27 31  1  0  0  0  0
 28 29  1  0  0  0  0
 28 30  1  0  0  0  0
 29 26  1  6  0  0  0
 29 27  1  0  0  0  0
 31 33  1  6  0  0  0
 31 34  1  0  0  0  0
 33 36  1  0  0  0  0
 34 35  1  1  0  0  0
 34 32  1  0  0  0  0
 36 32  1  0  0  0  0
 37 34  1  0  0  0  0
 38 37  1  0  0  0  0
 38 42  1  0  0  0  0
 39 43  1  0  0  0  0
 39 41  2  0  0  0  0
 40 42  2  0  0  0  0
 41 40  1  0  0  0  0
 43 38  2  0  0  0  0
M  END
>  <MODEL>
4

>  <REMARK>
 VINA RESULT:      -8.7      1.517      2.222
  Name = 
  11 active torsions:
  status: ('A' for Active; 'I' for Inactive)
    1  A    between atoms: C_1  and  C_34
    2  A    between atoms: C_1  and  C_35
    3  A    between atoms: C_3  and  C_4
    4  A    between atoms: N_6  and  C_12
    5  A    between atoms: N_6  and  C_13
    6  A    between atoms: C_8  and  C_34
    7  A    between atoms: C_11  and  O_14
    8  A    between atoms: C_13  and  C_38
    9  A    between atoms: O_14  and  C_22
   10  A    between atoms: C_19  and  O_25
   11  A    between atoms: C_34  and  C_38
                            x       y       z     vdW  Elec       q    Type
                         _______ _______ _______ _____ _____    ______ ____

>  <TORSDO>
F 11

$$$$
=
 OpenBabel10272414233D

 43 48  0  0  1  0  0  0  0  0999 V2000
  189.8310  176.8640  138.5510 C   0  0  2  0  0  3  0  0  0  0  0  0
  194.8240  173.2650  136.4380 C   0  0  0  0  0  0  0  0  0  0  0  0
  191.1270  176.2510  138.0970 C   0  0  0  0  0  0  0  0  0  0  0  0
  193.5540  175.1050  137.3650 C   0  0  0  0  0  0  0  0  0  0  0  0
  193.6400  172.5530  136.2230 C   0  0  0  0  0  3  0  0  0  0  0  0
  196.0740  172.6930  136.0680 N   0  0  0  0  0  1  0  0  0  0  0  0
  192.3560  174.3890  137.1570 C   0  0  0  0  0  0  0  0  0  0  0  0
  194.7820  174.5400  137.0070 C   0  0  0  0  0  3  0  0  0  0  0  0
  192.4090  173.1130  136.5800 C   0  0  0  0  0  3  0  0  0  0  0  0
  189.9420  174.2660  137.3570 O   0  0  0  0  0  1  0  0  0  0  0  0
  191.1350  174.9640  137.5320 C   0  0  0  0  0  0  0  0  0  0  0  0
  192.3030  176.9120  138.2870 N   0  0  0  0  0  0  0  0  0  0  0  0
  193.4990  176.3760  137.9330 C   0  0  0  0  0  3  0  0  0  0  0  0
  189.0510  177.6330  137.4720 C   0  0  0  0  0  2  0  0  0  0  0  0
  185.3270  178.0390  138.0960 C   0  0  0  0  0  3  0  0  0  0  0  0
  184.8140  176.8810  137.4850 C   0  0  0  0  0  0  0  0  0  0  0  0
  187.0680  176.2350  136.8590 C   0  0  0  0  0  3  0  0  0  0  0  0
  186.7020  178.2880  138.0880 C   0  0  0  0  0  3  0  0  0  0  0  0
  187.5750  177.3840  137.4740 C   0  0  0  0  0  0  0  0  0  0  0  0
  185.6920  175.9860  136.8650 C   0  0  0  0  0  3  0  0  0  0  0  0
  183.4450  176.6000  137.4780 O   0  0  0  0  0  0  0  0  0  0  0  0
  182.8200  175.7890  138.4670 C   0  0  0  0  0  1  0  0  0  0  0  0
  189.8980  177.5220  139.9340 C   0  0  0  0  0  2  0  0  0  0  0  0
  190.3760  176.5610  141.0120 C   0  0  0  0  0  2  0  0  0  0  0  0
  188.9710  177.9730  142.0590 O   0  0  0  0  0  1  0  0  0  0  0  0
  189.6700  176.8280  142.2540 N   0  0  0  0  0  0  0  0  0  0  0  0
  190.1770  178.2060  144.2170 C   0  0  2  0  0  3  0  0  0  0  0  0
  191.7320  178.0410  142.7460 C   0  0  0  0  0  2  0  0  0  0  0  0
  190.6680  177.0990  143.2860 C   0  0  2  0  0  3  0  0  0  0  0  0
  191.2370  179.1400  143.6640 C   0  0  0  0  0  2  0  0  0  0  0  0
  190.4760  177.8770  145.6850 C   0  0  2  0  0  3  0  0  0  0  0  0
  189.6520  176.5380  147.5430 C   0  0  0  0  0  2  0  0  0  0  0  0
  191.3530  176.6530  145.8280 C   0  0  0  0  0  2  0  0  0  0  0  0
  189.2280  177.5790  146.5130 C   0  0  1  0  0  0  0  0  0  0  0  0
  188.8100  178.7450  147.1560 O   0  0  0  0  0  1  0  0  0  0  0  0
  191.0900  176.1610  147.2340 C   0  0  0  0  0  2  0  0  0  0  0  0
  188.1770  177.0630  145.6870 O   0  0  0  0  0  0  0  0  0  0  0  0
  186.9090  177.6410  145.5400 C   0  0  0  0  0  0  0  0  0  0  0  0
  185.1310  178.5910  144.1790 C   0  0  0  0  0  3  0  0  0  0  0  0
  184.8550  178.4140  146.5770 C   0  0  0  0  0  3  0  0  0  0  0  0
  184.3570  178.7890  145.3250 C   0  0  0  0  0  3  0  0  0  0  0  0
  186.1260  177.8400  146.6820 C   0  0  0  0  0  3  0  0  0  0  0  0
  186.4020  178.0190  144.2840 C   0  0  0  0  0  3  0  0  0  0  0  0
  1 14  1  6  0  0  0
  1 23  1  0  0  0  0
  2  8  1  0  0  0  0
  3 12  1  0  0  0  0
  3  1  1  0  0  0  0
  4 13  1  0  0  0  0
  5  2  2  0  0  0  0
  5  9  1  0  0  0  0
  6  2  1  0  0  0  0
  7  4  1  0  0  0  0
  7 11  1  0  0  0  0
  8  4  2  0  0  0  0
  9  7  2  0  0  0  0
 10 11  1  0  0  0  0
 11  3  2  0  0  0  0
 13 12  2  0  0  0  0
 14 19  1  0  0  0  0
 16 15  2  0  0  0  0
 17 20  2  0  0  0  0
 17 19  1  0  0  0  0
 18 15  1  0  0  0  0
 19 18  2  0  0  0  0
 20 16  1  0  0  0  0
 21 16  1  0  0  0  0
 21 22  1  0  0  0  0
 23 24  1  0  0  0  0
 24 26  1  0  0  0  0
 25 26  1  0  0  0  0
 27 30  1  6  0  0  0
 27 31  1  0  0  0  0
 28 29  1  0  0  0  0
 28 30  1  0  0  0  0
 29 26  1  6  0  0  0
 29 27  1  0  0  0  0
 31 33  1  6  0  0  0
 31 34  1  0  0  0  0
 33 36  1  0  0  0  0
 34 35  1  1  0  0  0
 34 32  1  0  0  0  0
 36 32  1  0  0  0  0
 37 34  1  0  0  0  0
 38 37  1  0  0  0  0
 38 42  1  0  0  0  0
 39 43  1  0  0  0  0
 39 41  2  0  0  0  0
 40 42  2  0  0  0  0
 41 40  1  0  0  0  0
 43 38  2  0  0  0  0
M  END
>  <MODEL>
5

>  <REMARK>
 VINA RESULT:      -8.5      2.111      6.294
  Name = 
  11 active torsions:
  status: ('A' for Active; 'I' for Inactive)
    1  A    between atoms: C_1  and  C_34
    2  A    between atoms: C_1  and  C_35
    3  A    between atoms: C_3  and  C_4
    4  A    between atoms: N_6  and  C_12
    5  A    between atoms: N_6  and  C_13
    6  A    between atoms: C_8  and  C_34
    7  A    between atoms: C_11  and  O_14
    8  A    between atoms: C_13  and  C_38
    9  A    between atoms: O_14  and  C_22
   10  A    between atoms: C_19  and  O_25
   11  A    between atoms: C_34  and  C_38
                            x       y       z     vdW  Elec       q    Type
                         _______ _______ _______ _____ _____    ______ ____

>  <TORSDO>
F 11

$$$$
=
 OpenBabel10272414233D

 43 48  0  0  1  0  0  0  0  0999 V2000
  189.4980  177.6260  140.4350 C   0  0  2  0  0  3  0  0  0  0  0  0
  193.4500  174.4340  136.3690 C   0  0  0  0  0  0  0  0  0  0  0  0
  190.1980  176.7460  139.4360 C   0  0  0  0  0  0  0  0  0  0  0  0
  191.4490  175.1820  137.5050 C   0  0  0  0  0  0  0  0  0  0  0  0
  194.2270  175.2580  137.1890 C   0  0  0  0  0  3  0  0  0  0  0  0
  194.0750  173.6260  135.3760 N   0  0  0  0  0  1  0  0  0  0  0  0
  192.2270  176.0220  138.3310 C   0  0  0  0  0  0  0  0  0  0  0  0
  192.0630  174.3940  136.5270 C   0  0  0  0  0  3  0  0  0  0  0  0
  193.6190  176.0490  138.1680 C   0  0  0  0  0  3  0  0  0  0  0  0
  192.3420  177.6660  140.1110 O   0  0  0  0  0  1  0  0  0  0  0  0
  191.5960  176.8140  139.2990 C   0  0  0  0  0  0  0  0  0  0  0  0
  189.4790  175.9290  138.6190 N   0  0  0  0  0  0  0  0  0  0  0  0
  190.0660  175.1510  137.6730 C   0  0  0  0  0  3  0  0  0  0  0  0
  188.8570  176.8930  141.6250 C   0  0  0  0  0  2  0  0  0  0  0  0
  191.6030  176.1670  144.1460 C   0  0  0  0  0  3  0  0  0  0  0  0
  191.1790  176.9300  145.2480 C   0  0  0  0  0  0  0  0  0  0  0  0
  189.2550  177.6730  143.9700 C   0  0  0  0  0  3  0  0  0  0  0  0
  190.8540  176.1570  142.9660 C   0  0  0  0  0  3  0  0  0  0  0  0
  189.6750  176.9060  142.8780 C   0  0  0  0  0  0  0  0  0  0  0  0
  190.0050  177.6830  145.1500 C   0  0  0  0  0  3  0  0  0  0  0  0
  191.9020  176.9580  146.4430 O   0  0  0  0  0  0  0  0  0  0  0  0
  192.2370  175.7800  147.1690 C   0  0  0  0  0  1  0  0  0  0  0  0
  188.6670  178.7520  139.8080 C   0  0  0  0  0  2  0  0  0  0  0  0
  187.3130  178.2660  139.3130 C   0  0  0  0  0  2  0  0  0  0  0  0
  187.9290  179.2660  137.3940 O   0  0  0  0  0  1  0  0  0  0  0  0
  187.3380  178.1420  137.8640 N   0  0  0  0  0  0  0  0  0  0  0  0
  185.0620  177.3860  138.3680 C   0  0  2  0  0  3  0  0  0  0  0  0
  185.7530  177.0470  136.3630 C   0  0  0  0  0  2  0  0  0  0  0  0
  185.9560  178.1480  137.3920 C   0  0  2  0  0  3  0  0  0  0  0  0
  184.8730  176.2890  137.3370 C   0  0  0  0  0  2  0  0  0  0  0  0
  183.7370  178.1210  138.6050 C   0  0  2  0  0  3  0  0  0  0  0  0
  182.4400  179.1900  140.3670 C   0  0  0  0  0  2  0  0  0  0  0  0
  183.8850  179.6200  138.4760 C   0  0  0  0  0  2  0  0  0  0  0  0
  183.1490  177.8910  139.9960 C   0  0  1  0  0  0  0  0  0  0  0  0
  182.2300  176.8420  139.9430 O   0  0  0  0  0  1  0  0  0  0  0  0
  182.7180  180.1840  139.2540 C   0  0  0  0  0  2  0  0  0  0  0  0
  184.1820  177.5990  140.9450 O   0  0  0  0  0  0  0  0  0  0  0  0
  184.2590  178.1260  142.2410 C   0  0  0  0  0  0  0  0  0  0  0  0
  183.2500  179.1590  144.1990 C   0  0  0  0  0  3  0  0  0  0  0  0
  185.6160  178.6480  144.1850 C   0  0  0  0  0  3  0  0  0  0  0  0
  184.4920  179.1620  144.8390 C   0  0  0  0  0  3  0  0  0  0  0  0
  185.4980  178.1310  142.8910 C   0  0  0  0  0  3  0  0  0  0  0  0
  183.1330  178.6420  142.9050 C   0  0  0  0  0  3  0  0  0  0  0  0
  1 23  1  6  0  0  0
  1 14  1  0  0  0  0
  2  8  2  0  0  0  0
  2  5  1  0  0  0  0
  3  1  1  0  0  0  0
  4 13  2  0  0  0  0
  4  7  1  0  0  0  0
  5  9  2  0  0  0  0
  6  2  1  0  0  0  0
  7 11  2  0  0  0  0
  8  4  1  0  0  0  0
  9  7  1  0  0  0  0
 11  3  1  0  0  0  0
 11 10  1  0  0  0  0
 12  3  2  0  0  0  0
 13 12  1  0  0  0  0
 14 19  1  0  0  0  0
 15 16  1  0  0  0  0
 16 21  1  0  0  0  0
 17 20  1  0  0  0  0
 18 15  2  0  0  0  0
 19 18  1  0  0  0  0
 19 17  2  0  0  0  0
 20 16  2  0  0  0  0
 21 22  1  0  0  0  0
 24 23  1  0  0  0  0
 25 26  1  0  0  0  0
 26 24  1  0  0  0  0
 27 30  1  6  0  0  0
 27 31  1  0  0  0  0
 28 30  1  0  0  0  0
 28 29  1  0  0  0  0
 29 26  1  1  0  0  0
 29 27  1  0  0  0  0
 31 33  1  1  0  0  0
 31 34  1  0  0  0  0
 33 36  1  0  0  0  0
 34 35  1  6  0  0  0
 34 32  1  0  0  0  0
 34 37  1  0  0  0  0
 36 32  1  0  0  0  0
 37 38  1  0  0  0  0
 38 42  2  0  0  0  0
 38 43  1  0  0  0  0
 39 41  1  0  0  0  0
 40 41  2  0  0  0  0
 42 40  1  0  0  0  0
 43 39  2  0  0  0  0
M  END
>  <MODEL>
6

>  <REMARK>
 VINA RESULT:      -8.3      2.202      7.559
  Name = 
  11 active torsions:
  status: ('A' for Active; 'I' for Inactive)
    1  A    between atoms: C_1  and  C_34
    2  A    between atoms: C_1  and  C_35
    3  A    between atoms: C_3  and  C_4
    4  A    between atoms: N_6  and  C_12
    5  A    between atoms: N_6  and  C_13
    6  A    between atoms: C_8  and  C_34
    7  A    between atoms: C_11  and  O_14
    8  A    between atoms: C_13  and  C_38
    9  A    between atoms: O_14  and  C_22
   10  A    between atoms: C_19  and  O_25
   11  A    between atoms: C_34  and  C_38
                            x       y       z     vdW  Elec       q    Type
                         _______ _______ _______ _____ _____    ______ ____

>  <TORSDO>
F 11

$$$$
=
 OpenBabel10272414233D

 43 48  0  0  1  0  0  0  0  0999 V2000
  189.2150  177.4580  138.7500 C   0  0  2  0  0  3  0  0  0  0  0  0
  182.8990  177.9640  137.2670 C   0  0  0  0  0  0  0  0  0  0  0  0
  187.7290  177.6710  138.6510 C   0  0  0  0  0  0  0  0  0  0  0  0
  185.0000  178.1730  138.4490 C   0  0  0  0  0  0  0  0  0  0  0  0
  183.5330  177.2240  136.2650 C   0  0  0  0  0  3  0  0  0  0  0  0
  181.5030  178.2290  137.1790 N   0  0  0  0  0  1  0  0  0  0  0  0
  185.6480  177.4320  137.4380 C   0  0  0  0  0  0  0  0  0  0  0  0
  183.6300  178.4370  138.3590 C   0  0  0  0  0  3  0  0  0  0  0  0
  184.9030  176.9570  136.3490 C   0  0  0  0  0  3  0  0  0  0  0  0
  187.6880  176.4750  136.5380 O   0  0  0  0  0  1  0  0  0  0  0  0
  187.0230  177.1850  137.5370 C   0  0  0  0  0  0  0  0  0  0  0  0
  187.0730  178.3850  139.6070 N   0  0  0  0  0  0  0  0  0  0  0  0
  185.7410  178.6390  139.5340 C   0  0  0  0  0  3  0  0  0  0  0  0
  189.7130  176.0710  138.3150 C   0  0  0  0  0  2  0  0  0  0  0  0
  193.3290  176.4090  137.2010 C   0  0  0  0  0  3  0  0  0  0  0  0
  193.2230  176.1440  135.8250 C   0  0  0  0  0  0  0  0  0  0  0  0
  190.8330  175.8180  136.0900 C   0  0  0  0  0  3  0  0  0  0  0  0
  192.1920  176.3800  138.0130 C   0  0  0  0  0  3  0  0  0  0  0  0
  190.9400  176.0900  137.4580 C   0  0  0  0  0  0  0  0  0  0  0  0
  191.9700  175.8450  135.2780 C   0  0  0  0  0  3  0  0  0  0  0  0
  194.3390  176.1680  134.9850 O   0  0  0  0  0  0  0  0  0  0  0  0
  195.3500  177.1660  135.0750 C   0  0  0  0  0  1  0  0  0  0  0  0
  189.8490  178.0350  140.0210 C   0  0  0  0  0  2  0  0  0  0  0  0
  190.2370  176.9540  141.0180 C   0  0  0  0  0  2  0  0  0  0  0  0
  188.9980  178.4210  142.1930 O   0  0  0  0  0  1  0  0  0  0  0  0
  189.5620  177.1920  142.2840 N   0  0  0  0  0  0  0  0  0  0  0  0
  190.2340  178.3520  144.3360 C   0  0  2  0  0  3  0  0  0  0  0  0
  191.7620  178.0900  142.8500 C   0  0  0  0  0  2  0  0  0  0  0  0
  190.5810  177.2590  143.3280 C   0  0  2  0  0  3  0  0  0  0  0  0
  191.4090  179.1770  143.8460 C   0  0  0  0  0  2  0  0  0  0  0  0
  190.4800  177.8860  145.7760 C   0  0  2  0  0  3  0  0  0  0  0  0
  189.5860  176.3860  147.4730 C   0  0  0  0  0  2  0  0  0  0  0  0
  191.3450  176.6470  145.8340 C   0  0  0  0  0  2  0  0  0  0  0  0
  189.2030  177.5230  146.5300 C   0  0  1  0  0  0  0  0  0  0  0  0
  188.7680  178.6270  147.2640 O   0  0  0  0  0  1  0  0  0  0  0  0
  191.0320  176.0290  147.1780 C   0  0  0  0  0  2  0  0  0  0  0  0
  188.1790  177.0940  145.6240 O   0  0  0  0  0  0  0  0  0  0  0  0
  186.8960  177.6510  145.5350 C   0  0  0  0  0  0  0  0  0  0  0  0
  184.8580  178.5140  146.5440 C   0  0  0  0  0  3  0  0  0  0  0  0
  185.0880  178.4680  144.1350 C   0  0  0  0  0  3  0  0  0  0  0  0
  184.3350  178.7690  145.2740 C   0  0  0  0  0  3  0  0  0  0  0  0
  186.3650  177.9120  144.2660 C   0  0  0  0  0  3  0  0  0  0  0  0
  186.1340  177.9580  146.6750 C   0  0  0  0  0  3  0  0  0  0  0  0
  1 14  1  1  0  0  0
  1 23  1  0  0  0  0
  2  8  1  0  0  0  0
  3  1  1  0  0  0  0
  3 12  1  0  0  0  0
  4 13  1  0  0  0  0
  5  9  1  0  0  0  0
  5  2  2  0  0  0  0
  6  2  1  0  0  0  0
  7 11  1  0  0  0  0
  7  4  1  0  0  0  0
  8  4  2  0  0  0  0
  9  7  2  0  0  0  0
 10 11  1  0  0  0  0
 11  3  2  0  0  0  0
 13 12  2  0  0  0  0
 15 18  1  0  0  0  0
 16 15  2  0  0  0  0
 17 19  1  0  0  0  0
 19 18  2  0  0  0  0
 19 14  1  0  0  0  0
 20 16  1  0  0  0  0
 20 17  2  0  0  0  0
 21 22  1  0  0  0  0
 21 16  1  0  0  0  0
 23 24  1  0  0  0  0
 24 26  1  0  0  0  0
 25 26  1  0  0  0  0
 27 30  1  6  0  0  0
 27 31  1  0  0  0  0
 28 29  1  0  0  0  0
 28 30  1  0  0  0  0
 29 26  1  6  0  0  0
 29 27  1  0  0  0  0
 31 33  1  6  0  0  0
 31 34  1  0  0  0  0
 33 36  1  0  0  0  0
 34 35  1  1  0  0  0
 34 32  1  0  0  0  0
 36 32  1  0  0  0  0
 37 34  1  0  0  0  0
 38 37  1  0  0  0  0
 38 43  1  0  0  0  0
 39 43  2  0  0  0  0
 40 42  1  0  0  0  0
 40 41  2  0  0  0  0
 41 39  1  0  0  0  0
 42 38  2  0  0  0  0
M  END
>  <MODEL>
7

>  <REMARK>
 VINA RESULT:      -8.2      1.476      1.906
  Name = 
  11 active torsions:
  status: ('A' for Active; 'I' for Inactive)
    1  A    between atoms: C_1  and  C_34
    2  A    between atoms: C_1  and  C_35
    3  A    between atoms: C_3  and  C_4
    4  A    between atoms: N_6  and  C_12
    5  A    between atoms: N_6  and  C_13
    6  A    between atoms: C_8  and  C_34
    7  A    between atoms: C_11  and  O_14
    8  A    between atoms: C_13  and  C_38
    9  A    between atoms: O_14  and  C_22
   10  A    between atoms: C_19  and  O_25
   11  A    between atoms: C_34  and  C_38
                            x       y       z     vdW  Elec       q    Type
                         _______ _______ _______ _____ _____    ______ ____

>  <TORSDO>
F 11

$$$$
=
 OpenBabel10272414233D

 43 48  0  0  1  0  0  0  0  0999 V2000
  189.7790  176.8750  140.9190 C   0  0  2  0  0  3  0  0  0  0  0  0
  184.6130  178.9150  144.3100 C   0  0  0  0  0  0  0  0  0  0  0  0
  188.6220  177.1290  141.8460 C   0  0  0  0  0  0  0  0  0  0  0  0
  186.5550  177.6380  143.6370 C   0  0  0  0  0  0  0  0  0  0  0  0
  184.7280  179.7000  143.1580 C   0  0  0  0  0  3  0  0  0  0  0  0
  183.5600  179.1620  145.2360 N   0  0  0  0  0  1  0  0  0  0  0  0
  186.6800  178.4300  142.4760 C   0  0  0  0  0  0  0  0  0  0  0  0
  185.5250  177.8840  144.5490 C   0  0  0  0  0  3  0  0  0  0  0  0
  185.7570  179.4580  142.2420 C   0  0  0  0  0  3  0  0  0  0  0  0
  187.8810  178.9620  140.4360 O   0  0  0  0  0  1  0  0  0  0  0  0
  187.7250  178.1770  141.5780 C   0  0  0  0  0  0  0  0  0  0  0  0
  188.4740  176.3870  142.9780 N   0  0  0  0  0  0  0  0  0  0  0  0
  187.4700  176.6120  143.8650 C   0  0  0  0  0  3  0  0  0  0  0  0
  191.1560  177.3060  141.4490 C   0  0  0  0  0  2  0  0  0  0  0  0
  191.3040  178.2690  145.1200 C   0  0  0  0  0  3  0  0  0  0  0  0
  191.6140  177.0360  145.7190 C   0  0  0  0  0  0  0  0  0  0  0  0
  191.6060  175.9900  143.5300 C   0  0  0  0  0  3  0  0  0  0  0  0
  191.1490  178.3590  143.7340 C   0  0  0  0  0  3  0  0  0  0  0  0
  191.3060  177.2200  142.9350 C   0  0  0  0  0  0  0  0  0  0  0  0
  191.7600  175.9000  144.9170 C   0  0  0  0  0  3  0  0  0  0  0  0
  191.7790  176.9130  147.1010 O   0  0  0  0  0  0  0  0  0  0  0  0
  192.3410  175.7550  147.7100 C   0  0  0  0  0  1  0  0  0  0  0  0
  189.4890  177.1990  139.4490 C   0  0  0  0  0  2  0  0  0  0  0  0
  189.4030  175.9500  138.5850 C   0  0  0  0  0  2  0  0  0  0  0  0
  191.0190  176.9100  137.3470 O   0  0  0  0  0  1  0  0  0  0  0  0
  189.8360  176.2600  137.2320 N   0  0  0  0  0  0  0  0  0  0  0  0
  187.7210  176.4480  136.0090 C   0  0  2  0  0  3  0  0  0  0  0  0
  189.3440  177.6540  135.2860 C   0  0  0  0  0  2  0  0  0  0  0  0
  188.8760  177.2030  136.6620 C   0  0  2  0  0  3  0  0  0  0  0  0
  188.2010  176.8960  134.6410 C   0  0  0  0  0  2  0  0  0  0  0  0
  186.3710  177.1000  136.3340 C   0  0  2  0  0  3  0  0  0  0  0  0
  184.3400  176.7340  137.6260 C   0  0  0  0  0  2  0  0  0  0  0  0
  186.4330  177.9450  137.5860 C   0  0  0  0  0  2  0  0  0  0  0  0
  185.2470  176.0950  136.5800 C   0  0  1  0  0  0  0  0  0  0  0  0
  184.5410  175.8900  135.3940 O   0  0  0  0  0  1  0  0  0  0  0  0
  184.9980  178.0330  138.0550 C   0  0  0  0  0  2  0  0  0  0  0  0
  185.7710  174.8530  137.0670 O   0  0  0  0  0  0  0  0  0  0  0  0
  185.2910  173.5830  136.7180 C   0  0  0  0  0  0  0  0  0  0  0  0
  185.4520  171.4980  135.4760 C   0  0  0  0  0  3  0  0  0  0  0  0
  183.5990  171.8640  136.9890 C   0  0  0  0  0  3  0  0  0  0  0  0
  184.2710  171.0500  136.0720 C   0  0  0  0  0  3  0  0  0  0  0  0
  184.1100  173.1250  137.3120 C   0  0  0  0  0  3  0  0  0  0  0  0
  185.9620  172.7590  135.7970 C   0  0  0  0  0  3  0  0  0  0  0  0
  1 23  1  6  0  0  0
  1 14  1  0  0  0  0
  1  3  1  0  0  0  0
  2  8  1  0  0  0  0
  2  6  1  0  0  0  0
  3 12  1  0  0  0  0
  4 13  1  0  0  0  0
  4  8  2  0  0  0  0
  5  2  2  0  0  0  0
  7  4  1  0  0  0  0
  9  7  2  0  0  0  0
  9  5  1  0  0  0  0
 10 11  1  0  0  0  0
 11  3  2  0  0  0  0
 11  7  1  0  0  0  0
 12 13  2  0  0  0  0
 14 19  1  0  0  0  0
 15 16  1  0  0  0  0
 16 21  1  0  0  0  0
 17 20  1  0  0  0  0
 18 15  2  0  0  0  0
 19 17  2  0  0  0  0
 19 18  1  0  0  0  0
 20 16  2  0  0  0  0
 21 22  1  0  0  0  0
 24 23  1  0  0  0  0
 26 25  1  0  0  0  0
 26 24  1  0  0  0  0
 27 30  1  6  0  0  0
 27 31  1  0  0  0  0
 27 29  1  0  0  0  0
 28 29  1  0  0  0  0
 29 26  1  6  0  0  0
 30 28  1  0  0  0  0
 31 34  1  0  0  0  0
 31 33  1  1  0  0  0
 32 36  1  0  0  0  0
 33 36  1  0  0  0  0
 34 35  1  6  0  0  0
 34 37  1  0  0  0  0
 34 32  1  0  0  0  0
 38 37  1  0  0  0  0
 38 42  1  0  0  0  0
 39 43  1  0  0  0  0
 39 41  2  0  0  0  0
 40 42  2  0  0  0  0
 41 40  1  0  0  0  0
 43 38  2  0  0  0  0
M  END
>  <MODEL>
8

>  <REMARK>
 VINA RESULT:      -8.2      3.093      7.943
  Name = 
  11 active torsions:
  status: ('A' for Active; 'I' for Inactive)
    1  A    between atoms: C_1  and  C_34
    2  A    between atoms: C_1  and  C_35
    3  A    between atoms: C_3  and  C_4
    4  A    between atoms: N_6  and  C_12
    5  A    between atoms: N_6  and  C_13
    6  A    between atoms: C_8  and  C_34
    7  A    between atoms: C_11  and  O_14
    8  A    between atoms: C_13  and  C_38
    9  A    between atoms: O_14  and  C_22
   10  A    between atoms: C_19  and  O_25
   11  A    between atoms: C_34  and  C_38
                            x       y       z     vdW  Elec       q    Type
                         _______ _______ _______ _____ _____    ______ ____

>  <TORSDO>
F 11

$$$$
=
 OpenBabel10272414233D

 43 48  0  0  1  0  0  0  0  0999 V2000
  188.0030  177.5810  142.8280 C   0  0  2  0  0  3  0  0  0  0  0  0
  181.6950  179.1730  142.9680 C   0  0  0  0  0  0  0  0  0  0  0  0
  186.5870  178.0410  142.6170 C   0  0  0  0  0  0  0  0  0  0  0  0
  183.9480  178.7980  142.1680 C   0  0  0  0  0  0  0  0  0  0  0  0
  182.0870  178.7940  144.2550 C   0  0  0  0  0  3  0  0  0  0  0  0
  180.3480  179.5640  142.7210 N   0  0  0  0  0  1  0  0  0  0  0  0
  184.3480  178.4080  143.4630 C   0  0  0  0  0  0  0  0  0  0  0  0
  182.6240  179.1770  141.9250 C   0  0  0  0  0  3  0  0  0  0  0  0
  183.4100  178.4130  144.5040 C   0  0  0  0  0  3  0  0  0  0  0  0
  186.0880  177.6100  144.9540 O   0  0  0  0  0  1  0  0  0  0  0  0
  185.6760  178.0210  143.6880 C   0  0  0  0  0  0  0  0  0  0  0  0
  186.1650  178.4190  141.3790 N   0  0  0  0  0  0  0  0  0  0  0  0
  184.8840  178.7990  141.1350 C   0  0  0  0  0  3  0  0  0  0  0  0
  188.9260  178.5890  143.5340 C   0  0  0  0  0  2  0  0  0  0  0  0
  191.7670  177.0190  145.5060 C   0  0  0  0  0  3  0  0  0  0  0  0
  191.1980  176.9240  146.7880 C   0  0  0  0  0  0  0  0  0  0  0  0
  189.1600  177.9300  145.9370 C   0  0  0  0  0  3  0  0  0  0  0  0
  191.0340  177.5650  144.4490 C   0  0  0  0  0  3  0  0  0  0  0  0
  189.7260  178.0160  144.6610 C   0  0  0  0  0  0  0  0  0  0  0  0
  189.8940  177.3860  146.9950 C   0  0  0  0  0  3  0  0  0  0  0  0
  191.9020  176.3810  147.8650 O   0  0  0  0  0  0  0  0  0  0  0  0
  192.3420  175.0280  147.8940 C   0  0  0  0  0  1  0  0  0  0  0  0
  188.6070  176.8360  141.6320 C   0  0  0  0  0  2  0  0  0  0  0  0
  189.2100  177.7810  140.6040 C   0  0  0  0  0  2  0  0  0  0  0  0
  190.3750  177.1120  138.7980 O   0  0  0  0  0  1  0  0  0  0  0  0
  189.1110  177.1900  139.2790 N   0  0  0  0  0  0  0  0  0  0  0  0
  187.9480  177.4330  137.1350 C   0  0  2  0  0  3  0  0  0  0  0  0
  189.3550  178.9770  137.6310 C   0  0  0  0  0  2  0  0  0  0  0  0
  188.3790  178.1240  138.4270 C   0  0  2  0  0  3  0  0  0  0  0  0
  188.9310  178.2830  136.3530 C   0  0  0  0  0  2  0  0  0  0  0  0
  186.5090  177.8040  136.7540 C   0  0  2  0  0  3  0  0  0  0  0  0
  184.4230  176.8080  135.9910 C   0  0  0  0  0  2  0  0  0  0  0  0
  185.5630  177.6980  137.9290 C   0  0  0  0  0  2  0  0  0  0  0  0
  185.9110  176.9080  135.6710 C   0  0  1  0  0  0  0  0  0  0  0  0
  186.0940  177.5050  134.4230 O   0  0  0  0  0  1  0  0  0  0  0  0
  184.1960  177.5400  137.3010 C   0  0  0  0  0  2  0  0  0  0  0  0
  186.5140  175.6080  135.6930 O   0  0  0  0  0  0  0  0  0  0  0  0
  185.8510  174.4170  136.0170 C   0  0  0  0  0  0  0  0  0  0  0  0
  184.5250  172.4690  135.4150 C   0  0  0  0  0  3  0  0  0  0  0  0
  185.2240  172.7930  137.7090 C   0  0  0  0  0  3  0  0  0  0  0  0
  184.5500  172.0390  136.7430 C   0  0  0  0  0  3  0  0  0  0  0  0
  185.8730  173.9770  137.3460 C   0  0  0  0  0  3  0  0  0  0  0  0
  185.1730  173.6530  135.0510 C   0  0  0  0  0  3  0  0  0  0  0  0
  1 23  1  6  0  0  0
  1 14  1  0  0  0  0
  2  5  1  0  0  0  0
  3  1  1  0  0  0  0
  3 11  1  0  0  0  0
  4  7  1  0  0  0  0
  5  9  2  0  0  0  0
  6  2  1  0  0  0  0
  7 11  2  0  0  0  0
  7  9  1  0  0  0  0
  8  4  1  0  0  0  0
  8  2  2  0  0  0  0
 11 10  1  0  0  0  0
 12  3  2  0  0  0  0
 13 12  1  0  0  0  0
 13  4  2  0  0  0  0
 14 19  1  0  0  0  0
 15 16  1  0  0  0  0
 16 20  2  0  0  0  0
 16 21  1  0  0  0  0
 17 20  1  0  0  0  0
 18 19  1  0  0  0  0
 18 15  2  0  0  0  0
 19 17  2  0  0  0  0
 21 22  1  0  0  0  0
 24 23  1  0  0  0  0
 25 26  1  0  0  0  0
 26 24  1  0  0  0  0
 27 30  1  6  0  0  0
 27 29  1  0  0  0  0
 28 29  1  0  0  0  0
 29 26  1  1  0  0  0
 30 28  1  0  0  0  0
 31 27  1  0  0  0  0
 31 33  1  1  0  0  0
 32 36  1  0  0  0  0
 34 35  1  6  0  0  0
 34 37  1  0  0  0  0
 34 32  1  0  0  0  0
 34 31  1  0  0  0  0
 36 33  1  0  0  0  0
 37 38  1  0  0  0  0
 38 42  1  0  0  0  0
 39 41  2  0  0  0  0
 41 40  1  0  0  0  0
 42 40  2  0  0  0  0
 43 39  1  0  0  0  0
 43 38  2  0  0  0  0
M  END
>  <MODEL>
9

>  <REMARK>
 VINA RESULT:      -8.2      2.932      7.992
  Name = 
  11 active torsions:
  status: ('A' for Active; 'I' for Inactive)
    1  A    between atoms: C_1  and  C_34
    2  A    between atoms: C_1  and  C_35
    3  A    between atoms: C_3  and  C_4
    4  A    between atoms: N_6  and  C_12
    5  A    between atoms: N_6  and  C_13
    6  A    between atoms: C_8  and  C_34
    7  A    between atoms: C_11  and  O_14
    8  A    between atoms: C_13  and  C_38
    9  A    between atoms: O_14  and  C_22
   10  A    between atoms: C_19  and  O_25
   11  A    between atoms: C_34  and  C_38
                            x       y       z     vdW  Elec       q    Type
                         _______ _______ _______ _____ _____    ______ ____

>  <TORSDO>
F 11

$$$$
