=
 OpenBabel10272415033D

 37 39  0  0  1  0  0  0  0  0999 V2000
  184.5510  180.0850  139.2070 O   0  0  0  0  0  1  0  0  0  0  0  0
  184.2860  178.7100  139.2630 C   0  0  1  0  0  0  0  0  0  0  0  0
  179.9820  177.8630  141.4460 O   0  0  0  0  0  1  0  0  0  0  0  0
  181.8580  178.8860  138.1200 C   0  0  0  0  0  2  0  0  0  0  0  0
  181.9950  179.8770  139.2660 C   0  0  2  0  0  3  0  0  0  0  0  0
  181.1440  178.5700  141.1410 C   0  0  0  0  0  0  0  0  0  0  0  0
  182.7420  178.5540  139.3070 C   0  0  2  0  0  0  0  0  0  0  0  0
  181.7370  179.0350  142.3150 O   0  0  0  0  0  1  0  0  0  0  0  0
  180.8270  179.7350  140.2270 C   0  0  0  0  0  2  0  0  0  0  0  0
  182.1150  177.6860  140.3900 C   0  0  0  0  0  2  0  0  0  0  0  0
  184.9430  178.0320  138.0240 C   0  0  2  0  0  3  0  0  0  0  0  0
  183.9440  176.2670  136.4990 C   0  0  0  0  0  0  0  0  0  0  0  0
  184.4180  176.6540  137.6840 C   0  0  0  0  0  3  0  0  0  0  0  0
  183.8540  177.1470  135.4310 O   0  0  0  0  0  1  0  0  0  0  0  0
  183.4850  174.8650  136.3260 C   0  0  0  0  0  1  0  0  0  0  0  0
  186.4710  178.1060  138.0180 C   0  0  0  0  0  2  0  0  0  0  0  0
  187.0670  176.8220  137.4690 C   0  0  0  0  0  2  0  0  0  0  0  0
  188.4270  177.3910  139.2940 C   0  0  0  0  0  2  0  0  0  0  0  0
  188.3610  176.5780  138.0810 N   0  0  0  0  0  0  0  0  0  0  0  0
  189.3670  177.0710  137.1390 C   0  0  0  0  0  2  0  0  0  0  0  0
  191.1460  175.4130  137.7770 C   0  0  0  0  0  1  0  0  0  0  0  0
  190.9060  177.5560  139.0700 C   0  0  0  0  0  2  0  0  0  0  0  0
  190.7800  176.8850  137.7000 C   0  0  2  0  0  3  0  0  0  0  0  0
  189.7590  177.1580  139.9990 C   0  0  0  0  0  2  0  0  0  0  0  0
  184.8550  178.1410  140.5750 C   0  0  0  0  0  2  0  0  0  0  0  0
  185.7180  179.1410  141.3360 C   0  0  0  0  0  2  0  0  0  0  0  0
  185.0860  179.4880  142.6730 C   0  0  0  0  0  2  0  0  0  0  0  0
  185.0870  178.2880  143.6150 C   0  0  2  0  0  3  0  0  0  0  0  0
  183.9640  178.4880  144.6190 C   0  0  0  0  0  1  0  0  0  0  0  0
  186.2230  177.8770  145.8220 C   0  0  0  0  0  1  0  0  0  0  0  0
  186.4350  178.1350  144.3370 C   0  0  1  0  0  3  0  0  0  0  0  0
  188.5760  176.9900  143.6990 C   0  0  0  0  0  0  0  0  0  0  0  0
  187.2380  176.9990  143.7640 C   0  0  0  0  0  3  0  0  0  0  0  0
  189.2560  175.7910  143.1360 C   0  0  0  0  0  1  0  0  0  0  0  0
  189.4180  178.1240  144.2030 C   0  0  0  0  0  2  0  0  0  0  0  0
  190.8210  177.6440  144.5260 C   0  0  0  0  0  2  0  0  0  0  0  0
  190.8770  177.2310  145.8560 O   0  0  0  0  0  1  0  0  0  0  0  0
  2  1  1  6  0  0  0
  2 25  1  0  0  0  0
  4  7  1  0  0  0  0
  5  4  1  6  0  0  0
  5  7  1  0  0  0  0
  5  9  1  0  0  0  0
  6  3  1  0  0  0  0
  6  8  1  0  0  0  0
  7  2  1  6  0  0  0
  7 10  1  0  0  0  0
  9  6  1  0  0  0  0
 10  6  1  0  0  0  0
 11 13  1  1  0  0  0
 11  2  1  0  0  0  0
 12 13  2  0  0  0  0
 14 12  1  0  0  0  0
 15 12  1  0  0  0  0
 16 11  1  0  0  0  0
 17 16  1  0  0  0  0
 17 19  1  0  0  0  0
 18 24  1  0  0  0  0
 19 18  1  0  0  0  0
 20 23  1  0  0  0  0
 20 19  1  0  0  0  0
 22 24  1  0  0  0  0
 23 21  1  1  0  0  0
 23 22  1  0  0  0  0
 25 26  1  0  0  0  0
 26 27  1  0  0  0  0
 27 28  1  0  0  0  0
 28 31  1  0  0  0  0
 28 29  1  1  0  0  0
 31 30  1  1  0  0  0
 32 33  2  0  0  0  0
 32 35  1  0  0  0  0
 33 31  1  0  0  0  0
 34 32  1  0  0  0  0
 35 36  1  0  0  0  0
 36 37  1  0  0  0  0
M  END
>  <MODEL>
1

>  <REMARK>
 VINA RESULT:      -6.8      0.000      0.000
  Name = 
  14 active torsions:
  status: ('A' for Active; 'I' for Inactive)
    1  A    between atoms: C_1  and  C_5
    2  A    between atoms: C_1  and  C_36
    3  A    between atoms: C_5  and  C_17
    4  A    between atoms: N_6  and  C_31
    5  A    between atoms: C_7  and  C_33
    6  A    between atoms: C_10  and  C_14
    7  A    between atoms: C_10  and  C_20
    8  A    between atoms: C_10  and  C_22
    9  A    between atoms: C_11  and  C_33
   10  A    between atoms: C_14  and  C_31
   11  A    between atoms: C_17  and  C_26
   12  A    between atoms: C_20  and  C_24
   13  A    between atoms: C_20  and  C_29
   14  A    between atoms: C_29  and  C_36
                            x       y       z     vdW  Elec       q    Type
                         _______ _______ _______ _____ _____    ______ ____

>  <TORSDO>
F 14

$$$$
=
 OpenBabel10272415033D

 37 39  0  0  1  0  0  0  0  0999 V2000
  190.7520  177.8630  137.8720 O   0  0  0  0  0  1  0  0  0  0  0  0
  189.9350  176.7240  137.8590 C   0  0  1  0  0  0  0  0  0  0  0  0
  185.1850  177.7410  137.2190 O   0  0  0  0  0  1  0  0  0  0  0  0
  188.7580  177.4510  135.5530 C   0  0  0  0  0  2  0  0  0  0  0  0
  188.6240  178.5440  136.6020 C   0  0  2  0  0  3  0  0  0  0  0  0
  186.4940  177.9640  137.6390 C   0  0  0  0  0  0  0  0  0  0  0  0
  188.6780  177.0840  137.0230 C   0  0  2  0  0  0  0  0  0  0  0  0
  186.4970  178.4290  138.9540 O   0  0  0  0  0  1  0  0  0  0  0  0
  187.1730  178.9720  136.7350 C   0  0  0  0  0  2  0  0  0  0  0  0
  187.3020  176.6880  137.5420 C   0  0  0  0  0  2  0  0  0  0  0  0
  190.7540  175.5380  137.2680 C   0  0  2  0  0  3  0  0  0  0  0  0
  189.5770  173.6380  136.0680 C   0  0  0  0  0  0  0  0  0  0  0  0
  190.0180  174.2180  137.1840 C   0  0  0  0  0  3  0  0  0  0  0  0
  189.7320  174.2390  134.8270 O   0  0  0  0  0  1  0  0  0  0  0  0
  188.8870  172.3250  136.1580 C   0  0  0  0  0  1  0  0  0  0  0  0
  192.1570  175.4010  137.8630 C   0  0  0  0  0  2  0  0  0  0  0  0
  193.2060  175.8800  136.8750 C   0  0  0  0  0  2  0  0  0  0  0  0
  195.3090  175.1650  136.1190 C   0  0  0  0  0  2  0  0  0  0  0  0
  194.5250  175.4630  137.3170 N   0  0  0  0  0  0  0  0  0  0  0  0
  194.3390  174.2210  138.0680 C   0  0  0  0  0  2  0  0  0  0  0  0
  196.2770  174.5770  139.6300 C   0  0  0  0  0  1  0  0  0  0  0  0
  196.6510  173.4930  137.3920 C   0  0  0  0  0  2  0  0  0  0  0  0
  195.6820  173.6750  138.5630 C   0  0  2  0  0  3  0  0  0  0  0  0
  196.7190  174.7440  136.5180 C   0  0  0  0  0  2  0  0  0  0  0  0
  189.4730  176.4190  139.2960 C   0  0  0  0  0  2  0  0  0  0  0  0
  189.6560  177.5990  140.2450 C   0  0  0  0  0  2  0  0  0  0  0  0
  189.9200  177.1130  141.6590 C   0  0  0  0  0  2  0  0  0  0  0  0
  189.4400  178.1270  142.6940 C   0  0  2  0  0  3  0  0  0  0  0  0
  190.6520  178.5880  143.4850 C   0  0  0  0  0  1  0  0  0  0  0  0
  188.1720  176.0450  143.3220 C   0  0  0  0  0  1  0  0  0  0  0  0
  188.3820  177.5220  143.6310 C   0  0  1  0  0  3  0  0  0  0  0  0
  187.9170  177.6870  146.0920 C   0  0  0  0  0  0  0  0  0  0  0  0
  188.7870  177.6550  145.0730 C   0  0  0  0  0  3  0  0  0  0  0  0
  188.4460  177.7930  147.4800 C   0  0  0  0  0  1  0  0  0  0  0  0
  186.4350  177.5840  145.8930 C   0  0  0  0  0  2  0  0  0  0  0  0
  185.7890  178.9550  145.9670 C   0  0  0  0  0  2  0  0  0  0  0  0
  184.4620  178.8230  146.3720 O   0  0  0  0  0  1  0  0  0  0  0  0
  2  1  1  1  0  0  0
  2 25  1  0  0  0  0
  3  6  1  0  0  0  0
  4  7  1  0  0  0  0
  5  4  1  6  0  0  0
  5  9  1  0  0  0  0
  5  7  1  0  0  0  0
  6  8  1  0  0  0  0
  7 10  1  0  0  0  0
  7  2  1  1  0  0  0
  9  6  1  0  0  0  0
 10  6  1  0  0  0  0
 11 13  1  1  0  0  0
 11  2  1  0  0  0  0
 11 16  1  0  0  0  0
 12 15  1  0  0  0  0
 12 13  2  0  0  0  0
 14 12  1  0  0  0  0
 17 19  1  0  0  0  0
 17 16  1  0  0  0  0
 18 24  1  0  0  0  0
 18 19  1  0  0  0  0
 19 20  1  0  0  0  0
 20 23  1  0  0  0  0
 22 23  1  0  0  0  0
 23 21  1  1  0  0  0
 24 22  1  0  0  0  0
 25 26  1  0  0  0  0
 26 27  1  0  0  0  0
 27 28  1  0  0  0  0
 28 29  1  1  0  0  0
 28 31  1  0  0  0  0
 31 30  1  6  0  0  0
 31 33  1  0  0  0  0
 32 34  1  0  0  0  0
 33 32  2  0  0  0  0
 35 36  1  0  0  0  0
 35 32  1  0  0  0  0
 36 37  1  0  0  0  0
M  END
>  <MODEL>
2

>  <REMARK>
 VINA RESULT:      -6.6      3.503      5.968
  Name = 
  14 active torsions:
  status: ('A' for Active; 'I' for Inactive)
    1  A    between atoms: C_1  and  C_5
    2  A    between atoms: C_1  and  C_36
    3  A    between atoms: C_5  and  C_17
    4  A    between atoms: N_6  and  C_31
    5  A    between atoms: C_7  and  C_33
    6  A    between atoms: C_10  and  C_14
    7  A    between atoms: C_10  and  C_20
    8  A    between atoms: C_10  and  C_22
    9  A    between atoms: C_11  and  C_33
   10  A    between atoms: C_14  and  C_31
   11  A    between atoms: C_17  and  C_26
   12  A    between atoms: C_20  and  C_24
   13  A    between atoms: C_20  and  C_29
   14  A    between atoms: C_29  and  C_36
                            x       y       z     vdW  Elec       q    Type
                         _______ _______ _______ _____ _____    ______ ____

>  <TORSDO>
F 14

$$$$
=
 OpenBabel10272415033D

 37 39  0  0  1  0  0  0  0  0999 V2000
  188.1820  179.1040  137.6310 O   0  0  0  0  0  1  0  0  0  0  0  0
  188.0730  177.7210  137.8360 C   0  0  1  0  0  0  0  0  0  0  0  0
  186.2790  174.7880  134.3460 O   0  0  0  0  0  1  0  0  0  0  0  0
  189.0010  177.4840  135.3230 C   0  0  0  0  0  2  0  0  0  0  0  0
  187.5650  177.9870  135.3290 C   0  0  2  0  0  3  0  0  0  0  0  0
  186.3170  175.8960  135.1890 C   0  0  0  0  0  0  0  0  0  0  0  0
  188.0550  177.0610  136.4310 C   0  0  2  0  0  0  0  0  0  0  0  0
  185.0690  176.0810  135.7860 O   0  0  0  0  0  1  0  0  0  0  0  0
  186.7050  177.1370  134.4110 C   0  0  0  0  0  2  0  0  0  0  0  0
  187.3740  175.7100  136.2550 C   0  0  0  0  0  2  0  0  0  0  0  0
  189.2680  177.2600  138.7230 C   0  0  2  0  0  3  0  0  0  0  0  0
  191.2690  175.8800  137.9950 C   0  0  0  0  0  0  0  0  0  0  0  0
  189.9690  175.9990  138.2640 C   0  0  0  0  0  3  0  0  0  0  0  0
  192.1310  176.9630  138.0850 O   0  0  0  0  0  1  0  0  0  0  0  0
  191.8030  174.5600  137.5730 C   0  0  0  0  0  1  0  0  0  0  0  0
  188.9590  177.2580  140.2210 C   0  0  0  0  0  2  0  0  0  0  0  0
  190.2030  177.5960  141.0240 C   0  0  0  0  0  2  0  0  0  0  0  0
  188.5830  177.1270  142.6540 C   0  0  0  0  0  2  0  0  0  0  0  0
  190.0220  177.1910  142.4070 N   0  0  0  0  0  0  0  0  0  0  0  0
  190.5850  178.2620  143.2320 C   0  0  0  0  0  2  0  0  0  0  0  0
  191.2950  176.7740  145.1290 C   0  0  0  0  0  1  0  0  0  0  0  0
  188.9530  177.6830  145.0570 C   0  0  0  0  0  2  0  0  0  0  0  0
  190.4220  177.9480  144.7220 C   0  0  2  0  0  3  0  0  0  0  0  0
  188.3260  176.6800  144.0900 C   0  0  0  0  0  2  0  0  0  0  0  0
  186.7260  177.4180  138.5170 C   0  0  0  0  0  2  0  0  0  0  0  0
  185.6290  178.4070  138.1390 C   0  0  0  0  0  2  0  0  0  0  0  0
  185.0100  179.0220  139.3810 C   0  0  0  0  0  2  0  0  0  0  0  0
  184.5540  177.9480  140.3640 C   0  0  2  0  0  3  0  0  0  0  0  0
  183.0360  177.8900  140.3140 C   0  0  0  0  0  1  0  0  0  0  0  0
  185.9810  179.4400  141.8030 C   0  0  0  0  0  1  0  0  0  0  0  0
  185.0350  178.2470  141.7930 C   0  0  1  0  0  3  0  0  0  0  0  0
  184.0000  178.6960  144.0350 C   0  0  0  0  0  0  0  0  0  0  0  0
  183.8800  178.5450  142.7090 C   0  0  0  0  0  3  0  0  0  0  0  0
  182.7830  179.0190  144.8300 C   0  0  0  0  0  1  0  0  0  0  0  0
  185.3150  178.5880  144.7460 C   0  0  0  0  0  2  0  0  0  0  0  0
  185.1030  178.3520  146.2300 C   0  0  0  0  0  2  0  0  0  0  0  0
  185.6150  179.4290  146.9500 O   0  0  0  0  0  1  0  0  0  0  0  0
  2  1  1  6  0  0  0
  2 25  1  0  0  0  0
  2 11  1  0  0  0  0
  3  6  1  0  0  0  0
  4  5  1  0  0  0  0
  4  7  1  0  0  0  0
  5  9  1  6  0  0  0
  5  7  1  0  0  0  0
  6  8  1  0  0  0  0
  6 10  1  0  0  0  0
  7  2  1  1  0  0  0
  9  6  1  0  0  0  0
 10  7  1  0  0  0  0
 11 13  1  6  0  0  0
 11 16  1  0  0  0  0
 12 14  1  0  0  0  0
 12 13  2  0  0  0  0
 15 12  1  0  0  0  0
 16 17  1  0  0  0  0
 17 19  1  0  0  0  0
 18 24  1  0  0  0  0
 19 18  1  0  0  0  0
 19 20  1  0  0  0  0
 20 23  1  0  0  0  0
 23 22  1  0  0  0  0
 23 21  1  6  0  0  0
 24 22  1  0  0  0  0
 26 25  1  0  0  0  0
 26 27  1  0  0  0  0
 27 28  1  0  0  0  0
 28 29  1  1  0  0  0
 28 31  1  0  0  0  0
 31 30  1  6  0  0  0
 31 33  1  0  0  0  0
 32 35  1  0  0  0  0
 32 34  1  0  0  0  0
 33 32  2  0  0  0  0
 35 36  1  0  0  0  0
 36 37  1  0  0  0  0
M  END
>  <MODEL>
3

>  <REMARK>
 VINA RESULT:      -6.6      2.594      6.006
  Name = 
  14 active torsions:
  status: ('A' for Active; 'I' for Inactive)
    1  A    between atoms: C_1  and  C_5
    2  A    between atoms: C_1  and  C_36
    3  A    between atoms: C_5  and  C_17
    4  A    between atoms: N_6  and  C_31
    5  A    between atoms: C_7  and  C_33
    6  A    between atoms: C_10  and  C_14
    7  A    between atoms: C_10  and  C_20
    8  A    between atoms: C_10  and  C_22
    9  A    between atoms: C_11  and  C_33
   10  A    between atoms: C_14  and  C_31
   11  A    between atoms: C_17  and  C_26
   12  A    between atoms: C_20  and  C_24
   13  A    between atoms: C_20  and  C_29
   14  A    between atoms: C_29  and  C_36
                            x       y       z     vdW  Elec       q    Type
                         _______ _______ _______ _____ _____    ______ ____

>  <TORSDO>
F 14

$$$$
=
 OpenBabel10272415033D

 37 39  0  0  1  0  0  0  0  0999 V2000
  189.5270  178.8110  138.6030 O   0  0  0  0  0  1  0  0  0  0  0  0
  189.2030  177.4520  138.7120 C   0  0  1  0  0  0  0  0  0  0  0  0
  186.0840  175.2700  135.6250 O   0  0  0  0  0  1  0  0  0  0  0  0
  189.3560  177.4540  136.0270 C   0  0  0  0  0  2  0  0  0  0  0  0
  188.0740  178.1220  136.5000 C   0  0  2  0  0  3  0  0  0  0  0  0
  186.5250  176.2390  136.5250 C   0  0  0  0  0  0  0  0  0  0  0  0
  188.6960  177.0000  137.3150 C   0  0  2  0  0  0  0  0  0  0  0  0
  185.5330  176.4890  137.4740 O   0  0  0  0  0  1  0  0  0  0  0  0
  186.8730  177.5180  135.7940 C   0  0  0  0  0  2  0  0  0  0  0  0
  187.7910  175.7790  137.2130 C   0  0  0  0  0  2  0  0  0  0  0  0
  190.4680  176.6810  139.1920 C   0  0  2  0  0  3  0  0  0  0  0  0
  191.1280  176.8900  141.6330 C   0  0  0  0  0  0  0  0  0  0  0  0
  191.1980  177.2980  140.3660 C   0  0  0  0  0  3  0  0  0  0  0  0
  190.3140  175.8320  142.0110 O   0  0  0  0  0  1  0  0  0  0  0  0
  191.9280  177.5960  142.6670 C   0  0  0  0  0  1  0  0  0  0  0  0
  191.4070  176.2690  138.0560 C   0  0  0  0  0  2  0  0  0  0  0  0
  192.8320  176.7020  138.3560 C   0  0  0  0  0  2  0  0  0  0  0  0
  194.0580  176.2080  136.4180 C   0  0  0  0  0  2  0  0  0  0  0  0
  193.7670  175.7540  137.7770 N   0  0  0  0  0  0  0  0  0  0  0  0
  193.0630  174.4720  137.6950 C   0  0  0  0  0  2  0  0  0  0  0  0
  195.1090  173.0410  137.9920 C   0  0  0  0  0  1  0  0  0  0  0  0
  194.4680  173.8540  135.7010 C   0  0  0  0  0  2  0  0  0  0  0  0
  193.9570  173.3970  137.0690 C   0  0  2  0  0  3  0  0  0  0  0  0
  195.0590  175.2620  135.7630 C   0  0  0  0  0  2  0  0  0  0  0  0
  188.0410  177.2890  139.7090 C   0  0  0  0  0  2  0  0  0  0  0  0
  187.7050  178.5790  140.4500 C   0  0  0  0  0  2  0  0  0  0  0  0
  188.0520  178.4560  141.9240 C   0  0  0  0  0  2  0  0  0  0  0  0
  187.0750  177.5360  142.6490 C   0  0  2  0  0  3  0  0  0  0  0  0
  185.6940  178.1600  142.5510 C   0  0  0  0  0  1  0  0  0  0  0  0
  188.8640  177.8950  144.3820 C   0  0  0  0  0  1  0  0  0  0  0  0
  187.4730  177.3350  144.1200 C   0  0  1  0  0  3  0  0  0  0  0  0
  186.6140  177.9990  146.3840 C   0  0  0  0  0  0  0  0  0  0  0  0
  186.5020  178.0120  145.0480 C   0  0  0  0  0  3  0  0  0  0  0  0
  185.6030  178.7340  147.1920 C   0  0  0  0  0  1  0  0  0  0  0  0
  187.7370  177.3050  147.0940 C   0  0  0  0  0  2  0  0  0  0  0  0
  187.9780  177.9340  148.4540 C   0  0  0  0  0  2  0  0  0  0  0  0
  189.3170  178.3060  148.5630 O   0  0  0  0  0  1  0  0  0  0  0  0
  2  1  1  6  0  0  0
  2 11  1  0  0  0  0
  2 25  1  0  0  0  0
  3  6  1  0  0  0  0
  4  5  1  0  0  0  0
  4  7  1  0  0  0  0
  5  9  1  6  0  0  0
  5  7  1  0  0  0  0
  6 10  1  0  0  0  0
  6  8  1  0  0  0  0
  7  2  1  1  0  0  0
  9  6  1  0  0  0  0
 10  7  1  0  0  0  0
 11 16  1  6  0  0  0
 11 13  1  0  0  0  0
 12 14  1  0  0  0  0
 12 15  1  0  0  0  0
 13 12  2  0  0  0  0
 16 17  1  0  0  0  0
 18 19  1  0  0  0  0
 19 17  1  0  0  0  0
 20 19  1  0  0  0  0
 22 24  1  0  0  0  0
 22 23  1  0  0  0  0
 23 20  1  0  0  0  0
 23 21  1  1  0  0  0
 24 18  1  0  0  0  0
 25 26  1  0  0  0  0
 26 27  1  0  0  0  0
 27 28  1  0  0  0  0
 28 29  1  1  0  0  0
 28 31  1  0  0  0  0
 31 30  1  6  0  0  0
 31 33  1  0  0  0  0
 32 35  1  0  0  0  0
 32 34  1  0  0  0  0
 33 32  2  0  0  0  0
 35 36  1  0  0  0  0
 36 37  1  0  0  0  0
M  END
>  <MODEL>
4

>  <REMARK>
 VINA RESULT:      -6.6      3.268      5.922
  Name = 
  14 active torsions:
  status: ('A' for Active; 'I' for Inactive)
    1  A    between atoms: C_1  and  C_5
    2  A    between atoms: C_1  and  C_36
    3  A    between atoms: C_5  and  C_17
    4  A    between atoms: N_6  and  C_31
    5  A    between atoms: C_7  and  C_33
    6  A    between atoms: C_10  and  C_14
    7  A    between atoms: C_10  and  C_20
    8  A    between atoms: C_10  and  C_22
    9  A    between atoms: C_11  and  C_33
   10  A    between atoms: C_14  and  C_31
   11  A    between atoms: C_17  and  C_26
   12  A    between atoms: C_20  and  C_24
   13  A    between atoms: C_20  and  C_29
   14  A    between atoms: C_29  and  C_36
                            x       y       z     vdW  Elec       q    Type
                         _______ _______ _______ _____ _____    ______ ____

>  <TORSDO>
F 14

$$$$
=
 OpenBabel10272415033D

 37 39  0  0  1  0  0  0  0  0999 V2000
  184.5360  179.9620  139.1150 O   0  0  0  0  0  1  0  0  0  0  0  0
  184.1680  178.6090  139.0980 C   0  0  1  0  0  0  0  0  0  0  0  0
  179.9820  177.8930  141.5410 O   0  0  0  0  0  1  0  0  0  0  0  0
  181.6850  179.0630  138.1710 C   0  0  0  0  0  2  0  0  0  0  0  0
  181.9840  179.9370  139.3800 C   0  0  2  0  0  3  0  0  0  0  0  0
  181.1710  178.5360  141.2040 C   0  0  0  0  0  0  0  0  0  0  0  0
  182.6240  178.5640  139.2520 C   0  0  2  0  0  0  0  0  0  0  0  0
  181.8840  178.8520  142.3610 O   0  0  0  0  0  1  0  0  0  0  0  0
  180.8820  179.7970  140.4160 C   0  0  0  0  0  2  0  0  0  0  0  0
  182.0100  177.6530  140.3070 C   0  0  0  0  0  2  0  0  0  0  0  0
  184.6780  177.9790  137.7680 C   0  0  2  0  0  3  0  0  0  0  0  0
  183.3730  176.3060  136.3750 C   0  0  0  0  0  0  0  0  0  0  0  0
  184.1150  176.6120  137.4400 C   0  0  0  0  0  3  0  0  0  0  0  0
  183.0050  177.2680  135.4460 O   0  0  0  0  0  1  0  0  0  0  0  0
  182.9150  174.9050  136.1900 C   0  0  0  0  0  1  0  0  0  0  0  0
  186.1950  178.0560  137.5900 C   0  0  0  0  0  2  0  0  0  0  0  0
  186.6600  177.0760  136.5280 C   0  0  0  0  0  2  0  0  0  0  0  0
  188.2870  177.0530  138.2180 C   0  0  0  0  0  2  0  0  0  0  0  0
  187.9560  176.5320  136.8930 N   0  0  0  0  0  0  0  0  0  0  0  0
  188.9200  177.0710  135.9310 C   0  0  0  0  0  2  0  0  0  0  0  0
  190.4640  175.0870  135.9810 C   0  0  0  0  0  1  0  0  0  0  0  0
  190.7190  176.9190  137.6840 C   0  0  0  0  0  2  0  0  0  0  0  0
  190.3370  176.5780  136.2420 C   0  0  2  0  0  3  0  0  0  0  0  0
  189.6320  176.4950  138.6710 C   0  0  0  0  0  2  0  0  0  0  0  0
  184.7850  177.9040  140.3200 C   0  0  0  0  0  2  0  0  0  0  0  0
  185.6190  178.8380  141.1900 C   0  0  0  0  0  2  0  0  0  0  0  0
  185.9090  178.1990  142.5370 C   0  0  0  0  0  2  0  0  0  0  0  0
  187.3980  178.2470  142.8660 C   0  0  2  0  0  3  0  0  0  0  0  0
  188.1560  178.3760  141.5560 C   0  0  0  0  0  1  0  0  0  0  0  0
  188.8760  176.2110  142.8210 C   0  0  0  0  0  1  0  0  0  0  0  0
  187.8500  176.9920  143.6300 C   0  0  1  0  0  3  0  0  0  0  0  0
  187.7440  177.6420  146.0530 C   0  0  0  0  0  0  0  0  0  0  0  0
  188.4590  177.3490  144.9580 C   0  0  0  0  0  3  0  0  0  0  0  0
  188.4670  177.9510  147.3170 C   0  0  0  0  0  1  0  0  0  0  0  0
  186.2450  177.6370  146.0640 C   0  0  0  0  0  2  0  0  0  0  0  0
  185.7060  179.0550  146.0830 C   0  0  0  0  0  2  0  0  0  0  0  0
  185.4880  179.4520  147.4010 O   0  0  0  0  0  1  0  0  0  0  0  0
  2  1  1  1  0  0  0
  2 25  1  0  0  0  0
  4  7  1  0  0  0  0
  5  4  1  6  0  0  0
  5  9  1  0  0  0  0
  6  3  1  0  0  0  0
  6  8  1  0  0  0  0
  7  2  1  6  0  0  0
  7  5  1  0  0  0  0
  7 10  1  0  0  0  0
  9  6  1  0  0  0  0
 10  6  1  0  0  0  0
 11 13  1  1  0  0  0
 11  2  1  0  0  0  0
 12 13  2  0  0  0  0
 14 12  1  0  0  0  0
 15 12  1  0  0  0  0
 16 11  1  0  0  0  0
 17 19  1  0  0  0  0
 17 16  1  0  0  0  0
 18 24  1  0  0  0  0
 19 18  1  0  0  0  0
 20 23  1  0  0  0  0
 20 19  1  0  0  0  0
 22 24  1  0  0  0  0
 23 21  1  1  0  0  0
 23 22  1  0  0  0  0
 25 26  1  0  0  0  0
 26 27  1  0  0  0  0
 27 28  1  0  0  0  0
 28 29  1  6  0  0  0
 28 31  1  0  0  0  0
 31 30  1  6  0  0  0
 31 33  1  0  0  0  0
 32 35  1  0  0  0  0
 32 34  1  0  0  0  0
 33 32  2  0  0  0  0
 35 36  1  0  0  0  0
 36 37  1  0  0  0  0
M  END
>  <MODEL>
5

>  <REMARK>
 VINA RESULT:      -6.5      1.443      2.266
  Name = 
  14 active torsions:
  status: ('A' for Active; 'I' for Inactive)
    1  A    between atoms: C_1  and  C_5
    2  A    between atoms: C_1  and  C_36
    3  A    between atoms: C_5  and  C_17
    4  A    between atoms: N_6  and  C_31
    5  A    between atoms: C_7  and  C_33
    6  A    between atoms: C_10  and  C_14
    7  A    between atoms: C_10  and  C_20
    8  A    between atoms: C_10  and  C_22
    9  A    between atoms: C_11  and  C_33
   10  A    between atoms: C_14  and  C_31
   11  A    between atoms: C_17  and  C_26
   12  A    between atoms: C_20  and  C_24
   13  A    between atoms: C_20  and  C_29
   14  A    between atoms: C_29  and  C_36
                            x       y       z     vdW  Elec       q    Type
                         _______ _______ _______ _____ _____    ______ ____

>  <TORSDO>
F 14

$$$$
=
 OpenBabel10272415033D

 37 39  0  0  1  0  0  0  0  0999 V2000
  188.9490  175.5800  142.4180 O   0  0  0  0  0  1  0  0  0  0  0  0
  189.2580  176.9430  142.3070 C   0  0  1  0  0  0  0  0  0  0  0  0
  191.6080  178.0350  146.4650 O   0  0  0  0  0  1  0  0  0  0  0  0
  191.9200  176.9130  142.6870 C   0  0  0  0  0  2  0  0  0  0  0  0
  191.2280  175.9120  143.6000 C   0  0  2  0  0  3  0  0  0  0  0  0
  190.8420  177.2620  145.5950 C   0  0  0  0  0  0  0  0  0  0  0  0
  190.5140  177.1890  143.1850 C   0  0  2  0  0  0  0  0  0  0  0  0
  189.7270  176.7590  146.2660 O   0  0  0  0  0  1  0  0  0  0  0  0
  191.6670  176.1200  145.0390 C   0  0  0  0  0  2  0  0  0  0  0  0
  190.4000  178.0900  144.4090 C   0  0  0  0  0  2  0  0  0  0  0  0
  189.4790  177.2760  140.8020 C   0  0  2  0  0  3  0  0  0  0  0  0
  191.4440  176.5900  139.3510 C   0  0  0  0  0  0  0  0  0  0  0  0
  190.9220  177.3050  140.3480 C   0  0  0  0  0  3  0  0  0  0  0  0
  190.6790  175.6860  138.6280 O   0  0  0  0  0  1  0  0  0  0  0  0
  192.8830  176.7520  139.0190 C   0  0  0  0  0  1  0  0  0  0  0  0
  188.6760  178.4830  140.3130 C   0  0  0  0  0  2  0  0  0  0  0  0
  187.5060  178.0360  139.4550 C   0  0  0  0  0  2  0  0  0  0  0  0
  188.7770  178.5590  137.5540 C   0  0  0  0  0  2  0  0  0  0  0  0
  187.9940  177.5040  138.1950 N   0  0  0  0  0  0  0  0  0  0  0  0
  186.8140  177.2380  137.3700 C   0  0  0  0  0  2  0  0  0  0  0  0
  187.8120  175.3020  136.1160 C   0  0  0  0  0  1  0  0  0  0  0  0
  188.1920  177.6510  135.3050 C   0  0  0  0  0  2  0  0  0  0  0  0
  187.2180  176.6940  135.9960 C   0  0  2  0  0  3  0  0  0  0  0  0
  189.3400  178.0510  136.2310 C   0  0  0  0  0  2  0  0  0  0  0  0
  188.1010  177.7710  142.8960 C   0  0  0  0  0  2  0  0  0  0  0  0
  186.9520  176.9110  143.4100 C   0  0  0  0  0  2  0  0  0  0  0  0
  186.4970  177.3870  144.7790 C   0  0  0  0  0  2  0  0  0  0  0  0
  185.6250  178.6340  144.6710 C   0  0  2  0  0  3  0  0  0  0  0  0
  185.1240  178.9690  146.0660 C   0  0  0  0  0  1  0  0  0  0  0  0
  183.1460  178.9140  144.3360 C   0  0  0  0  0  1  0  0  0  0  0  0
  184.4430  178.4170  143.7120 C   0  0  1  0  0  3  0  0  0  0  0  0
  184.1730  178.7160  141.2340 C   0  0  0  0  0  0  0  0  0  0  0  0
  184.6540  179.1400  142.4110 C   0  0  0  0  0  3  0  0  0  0  0  0
  184.4260  179.5380  140.0190 C   0  0  0  0  0  1  0  0  0  0  0  0
  183.3580  177.4640  141.0990 C   0  0  0  0  0  2  0  0  0  0  0  0
  182.0710  177.7430  140.3440 C   0  0  0  0  0  2  0  0  0  0  0  0
  181.1860  178.4290  141.1720 O   0  0  0  0  0  1  0  0  0  0  0  0
  2  1  1  1  0  0  0
  2 25  1  0  0  0  0
  4  7  1  0  0  0  0
  5  4  1  6  0  0  0
  5  9  1  0  0  0  0
  6  8  1  0  0  0  0
  6  3  1  0  0  0  0
  7  2  1  6  0  0  0
  7  5  1  0  0  0  0
  7 10  1  0  0  0  0
  9  6  1  0  0  0  0
 10  6  1  0  0  0  0
 11 16  1  1  0  0  0
 11  2  1  0  0  0  0
 12 13  2  0  0  0  0
 13 11  1  0  0  0  0
 14 12  1  0  0  0  0
 15 12  1  0  0  0  0
 17 16  1  0  0  0  0
 18 19  1  0  0  0  0
 19 17  1  0  0  0  0
 20 19  1  0  0  0  0
 22 23  1  0  0  0  0
 22 24  1  0  0  0  0
 23 21  1  1  0  0  0
 23 20  1  0  0  0  0
 24 18  1  0  0  0  0
 25 26  1  0  0  0  0
 26 27  1  0  0  0  0
 28 27  1  0  0  0  0
 28 29  1  1  0  0  0
 31 30  1  1  0  0  0
 31 28  1  0  0  0  0
 32 33  2  0  0  0  0
 33 31  1  0  0  0  0
 34 32  1  0  0  0  0
 35 32  1  0  0  0  0
 36 35  1  0  0  0  0
 36 37  1  0  0  0  0
M  END
>  <MODEL>
6

>  <REMARK>
 VINA RESULT:      -6.5      2.038      6.998
  Name = 
  14 active torsions:
  status: ('A' for Active; 'I' for Inactive)
    1  A    between atoms: C_1  and  C_5
    2  A    between atoms: C_1  and  C_36
    3  A    between atoms: C_5  and  C_17
    4  A    between atoms: N_6  and  C_31
    5  A    between atoms: C_7  and  C_33
    6  A    between atoms: C_10  and  C_14
    7  A    between atoms: C_10  and  C_20
    8  A    between atoms: C_10  and  C_22
    9  A    between atoms: C_11  and  C_33
   10  A    between atoms: C_14  and  C_31
   11  A    between atoms: C_17  and  C_26
   12  A    between atoms: C_20  and  C_24
   13  A    between atoms: C_20  and  C_29
   14  A    between atoms: C_29  and  C_36
                            x       y       z     vdW  Elec       q    Type
                         _______ _______ _______ _____ _____    ______ ____

>  <TORSDO>
F 14

$$$$
=
 OpenBabel10272415033D

 37 39  0  0  1  0  0  0  0  0999 V2000
  189.1090  179.2610  139.2170 O   0  0  0  0  0  1  0  0  0  0  0  0
  189.0600  177.8610  139.1900 C   0  0  1  0  0  0  0  0  0  0  0  0
  186.2550  175.6860  135.8120 O   0  0  0  0  0  1  0  0  0  0  0  0
  189.3760  178.0070  136.5230 C   0  0  0  0  0  2  0  0  0  0  0  0
  188.0340  178.5860  136.9460 C   0  0  2  0  0  3  0  0  0  0  0  0
  186.5880  176.6280  136.7830 C   0  0  0  0  0  0  0  0  0  0  0  0
  188.6640  177.4560  137.7440 C   0  0  2  0  0  0  0  0  0  0  0  0
  185.5290  176.7800  137.6780 O   0  0  0  0  0  1  0  0  0  0  0  0
  186.9120  177.9590  136.1370 C   0  0  0  0  0  2  0  0  0  0  0  0
  187.8330  176.1980  137.5270 C   0  0  0  0  0  2  0  0  0  0  0  0
  190.4490  177.3110  139.6290 C   0  0  2  0  0  3  0  0  0  0  0  0
  192.5470  176.5440  138.4250 C   0  0  0  0  0  0  0  0  0  0  0  0
  191.2210  176.5660  138.5610 C   0  0  0  0  0  3  0  0  0  0  0  0
  193.3760  177.2650  139.2730 O   0  0  0  0  0  1  0  0  0  0  0  0
  193.1490  175.7420  137.3290 C   0  0  0  0  0  1  0  0  0  0  0  0
  190.4250  176.5750  140.9700 C   0  0  0  0  0  2  0  0  0  0  0  0
  191.2980  177.2870  141.9880 C   0  0  0  0  0  2  0  0  0  0  0  0
  189.4160  177.2550  143.3890 C   0  0  0  0  0  2  0  0  0  0  0  0
  190.8480  176.9680  143.3320 N   0  0  0  0  0  0  0  0  0  0  0  0
  191.5410  177.8900  144.2330 C   0  0  0  0  0  2  0  0  0  0  0  0
  191.6240  176.3160  146.1920 C   0  0  0  0  0  1  0  0  0  0  0  0
  189.5970  177.7590  145.8250 C   0  0  0  0  0  2  0  0  0  0  0  0
  191.1180  177.6560  145.6870 C   0  0  2  0  0  3  0  0  0  0  0  0
  188.8780  176.9140  144.7750 C   0  0  0  0  0  2  0  0  0  0  0  0
  187.9460  177.3780  140.1360 C   0  0  0  0  0  2  0  0  0  0  0  0
  187.1300  178.5200  140.7310 C   0  0  0  0  0  2  0  0  0  0  0  0
  186.4110  178.0670  141.9890 C   0  0  0  0  0  2  0  0  0  0  0  0
  185.2450  178.9910  142.3260 C   0  0  2  0  0  3  0  0  0  0  0  0
  185.2220  179.1760  143.8340 C   0  0  0  0  0  1  0  0  0  0  0  0
  182.7820  178.7740  142.7950 C   0  0  0  0  0  1  0  0  0  0  0  0
  183.9070  178.4160  141.8340 C   0  0  1  0  0  3  0  0  0  0  0  0
  182.9680  178.2040  139.5150 C   0  0  0  0  0  0  0  0  0  0  0  0
  183.5540  178.9400  140.4690 C   0  0  0  0  0  3  0  0  0  0  0  0
  182.6420  178.8480  138.2130 C   0  0  0  0  0  1  0  0  0  0  0  0
  182.5950  176.7660  139.7190 C   0  0  0  0  0  2  0  0  0  0  0  0
  181.1060  176.6320  139.9820 C   0  0  0  0  0  2  0  0  0  0  0  0
  180.7370  175.2920  139.8910 O   0  0  0  0  0  1  0  0  0  0  0  0
  2  1  1  1  0  0  0
  2 11  1  0  0  0  0
  2 25  1  0  0  0  0
  3  6  1  0  0  0  0
  4  5  1  0  0  0  0
  4  7  1  0  0  0  0
  5  9  1  6  0  0  0
  5  7  1  0  0  0  0
  6 10  1  0  0  0  0
  6  8  1  0  0  0  0
  7  2  1  1  0  0  0
  9  6  1  0  0  0  0
 10  7  1  0  0  0  0
 11 13  1  6  0  0  0
 11 16  1  0  0  0  0
 12 13  2  0  0  0  0
 12 14  1  0  0  0  0
 15 12  1  0  0  0  0
 16 17  1  0  0  0  0
 17 19  1  0  0  0  0
 18 24  1  0  0  0  0
 19 18  1  0  0  0  0
 19 20  1  0  0  0  0
 20 23  1  0  0  0  0
 23 22  1  0  0  0  0
 23 21  1  6  0  0  0
 24 22  1  0  0  0  0
 25 26  1  0  0  0  0
 26 27  1  0  0  0  0
 27 28  1  0  0  0  0
 28 29  1  1  0  0  0
 31 28  1  0  0  0  0
 31 30  1  1  0  0  0
 32 35  1  0  0  0  0
 32 33  2  0  0  0  0
 33 31  1  0  0  0  0
 34 32  1  0  0  0  0
 35 36  1  0  0  0  0
 37 36  1  0  0  0  0
M  END
>  <MODEL>
7

>  <REMARK>
 VINA RESULT:      -6.5      2.458      6.847
  Name = 
  14 active torsions:
  status: ('A' for Active; 'I' for Inactive)
    1  A    between atoms: C_1  and  C_5
    2  A    between atoms: C_1  and  C_36
    3  A    between atoms: C_5  and  C_17
    4  A    between atoms: N_6  and  C_31
    5  A    between atoms: C_7  and  C_33
    6  A    between atoms: C_10  and  C_14
    7  A    between atoms: C_10  and  C_20
    8  A    between atoms: C_10  and  C_22
    9  A    between atoms: C_11  and  C_33
   10  A    between atoms: C_14  and  C_31
   11  A    between atoms: C_17  and  C_26
   12  A    between atoms: C_20  and  C_24
   13  A    between atoms: C_20  and  C_29
   14  A    between atoms: C_29  and  C_36
                            x       y       z     vdW  Elec       q    Type
                         _______ _______ _______ _____ _____    ______ ____

>  <TORSDO>
F 14

$$$$
=
 OpenBabel10272415033D

 37 39  0  0  1  0  0  0  0  0999 V2000
  188.5910  175.9220  142.7160 O   0  0  0  0  0  1  0  0  0  0  0  0
  188.8040  177.2840  142.4620 C   0  0  1  0  0  0  0  0  0  0  0  0
  191.9760  176.8170  146.1670 O   0  0  0  0  0  1  0  0  0  0  0  0
  190.0170  179.2880  143.7830 C   0  0  0  0  0  2  0  0  0  0  0  0
  191.0360  178.3970  143.0890 C   0  0  2  0  0  3  0  0  0  0  0  0
  191.5420  176.7800  144.8440 C   0  0  0  0  0  0  0  0  0  0  0  0
  189.7270  177.8110  143.5940 C   0  0  2  0  0  0  0  0  0  0  0  0
  191.9430  175.5850  144.2470 O   0  0  0  0  0  1  0  0  0  0  0  0
  192.1060  177.9560  144.0720 C   0  0  0  0  0  2  0  0  0  0  0  0
  190.0360  176.9080  144.7810 C   0  0  0  0  0  2  0  0  0  0  0  0
  189.4220  177.4280  141.0400 C   0  0  2  0  0  3  0  0  0  0  0  0
  188.2760  178.1870  138.9070 C   0  0  0  0  0  0  0  0  0  0  0  0
  188.4450  177.3040  139.8910 C   0  0  0  0  0  3  0  0  0  0  0  0
  188.9950  179.3740  138.8660 O   0  0  0  0  0  1  0  0  0  0  0  0
  187.2830  177.9030  137.8400 C   0  0  0  0  0  1  0  0  0  0  0  0
  190.6930  176.6020  140.8340 C   0  0  0  0  0  2  0  0  0  0  0  0
  191.5590  177.2140  139.7460 C   0  0  0  0  0  2  0  0  0  0  0  0
  193.3410  176.4000  138.4560 C   0  0  0  0  0  2  0  0  0  0  0  0
  191.9300  176.1960  138.7800 N   0  0  0  0  0  0  0  0  0  0  0  0
  191.1370  176.4540  137.5770 C   0  0  0  0  0  2  0  0  0  0  0  0
  190.9930  174.0530  136.8480 C   0  0  0  0  0  1  0  0  0  0  0  0
  192.9730  175.4510  136.1790 C   0  0  0  0  0  2  0  0  0  0  0  0
  191.4710  175.4450  136.4740 C   0  0  2  0  0  3  0  0  0  0  0  0
  193.7990  175.3400  137.4600 C   0  0  0  0  0  2  0  0  0  0  0  0
  187.4610  178.0310  142.5640 C   0  0  0  0  0  2  0  0  0  0  0  0
  186.4180  177.2750  143.3790 C   0  0  0  0  0  2  0  0  0  0  0  0
  186.1680  177.9700  144.7060 C   0  0  0  0  0  2  0  0  0  0  0  0
  184.9410  178.8740  144.6370 C   0  0  2  0  0  3  0  0  0  0  0  0
  184.2330  178.7940  145.9790 C   0  0  0  0  0  1  0  0  0  0  0  0
  182.5490  178.7790  143.8610 C   0  0  0  0  0  1  0  0  0  0  0  0
  183.9930  178.4570  143.5010 C   0  0  1  0  0  3  0  0  0  0  0  0
  184.0620  178.6690  141.0010 C   0  0  0  0  0  0  0  0  0  0  0  0
  184.3350  179.1620  142.2170 C   0  0  0  0  0  3  0  0  0  0  0  0
  184.4240  179.4780  139.8040 C   0  0  0  0  0  1  0  0  0  0  0  0
  183.3740  177.3520  140.7970 C   0  0  0  0  0  2  0  0  0  0  0  0
  182.2280  177.4950  139.8120 C   0  0  0  0  0  2  0  0  0  0  0  0
  182.5180  176.7750  138.6550 O   0  0  0  0  0  1  0  0  0  0  0  0
  2 25  1  0  0  0  0
  2  1  1  1  0  0  0
  5  7  1  0  0  0  0
  5  4  1  1  0  0  0
  5  9  1  0  0  0  0
  6  3  1  0  0  0  0
  7  2  1  6  0  0  0
  7  4  1  0  0  0  0
  7 10  1  0  0  0  0
  8  6  1  0  0  0  0
  9  6  1  0  0  0  0
 10  6  1  0  0  0  0
 11 13  1  6  0  0  0
 11  2  1  0  0  0  0
 12 13  2  0  0  0  0
 14 12  1  0  0  0  0
 15 12  1  0  0  0  0
 16 11  1  0  0  0  0
 17 16  1  0  0  0  0
 18 19  1  0  0  0  0
 19 17  1  0  0  0  0
 20 19  1  0  0  0  0
 22 23  1  0  0  0  0
 22 24  1  0  0  0  0
 23 21  1  1  0  0  0
 23 20  1  0  0  0  0
 24 18  1  0  0  0  0
 25 26  1  0  0  0  0
 26 27  1  0  0  0  0
 28 27  1  0  0  0  0
 28 29  1  1  0  0  0
 31 30  1  1  0  0  0
 31 28  1  0  0  0  0
 32 33  2  0  0  0  0
 33 31  1  0  0  0  0
 34 32  1  0  0  0  0
 35 32  1  0  0  0  0
 36 35  1  0  0  0  0
 37 36  1  0  0  0  0
M  END
>  <MODEL>
8

>  <REMARK>
 VINA RESULT:      -6.4      2.201      6.766
  Name = 
  14 active torsions:
  status: ('A' for Active; 'I' for Inactive)
    1  A    between atoms: C_1  and  C_5
    2  A    between atoms: C_1  and  C_36
    3  A    between atoms: C_5  and  C_17
    4  A    between atoms: N_6  and  C_31
    5  A    between atoms: C_7  and  C_33
    6  A    between atoms: C_10  and  C_14
    7  A    between atoms: C_10  and  C_20
    8  A    between atoms: C_10  and  C_22
    9  A    between atoms: C_11  and  C_33
   10  A    between atoms: C_14  and  C_31
   11  A    between atoms: C_17  and  C_26
   12  A    between atoms: C_20  and  C_24
   13  A    between atoms: C_20  and  C_29
   14  A    between atoms: C_29  and  C_36
                            x       y       z     vdW  Elec       q    Type
                         _______ _______ _______ _____ _____    ______ ____

>  <TORSDO>
F 14

$$$$
=
 OpenBabel10272415033D

 37 39  0  0  1  0  0  0  0  0999 V2000
  184.5820  179.9320  139.1230 O   0  0  0  0  0  1  0  0  0  0  0  0
  183.5760  178.9730  139.3020 C   0  0  1  0  0  0  0  0  0  0  0  0
  179.9850  181.9170  137.7370 O   0  0  0  0  0  1  0  0  0  0  0  0
  181.3150  179.5720  140.6290 C   0  0  0  0  0  2  0  0  0  0  0  0
  181.0070  178.8650  139.3180 C   0  0  2  0  0  3  0  0  0  0  0  0
  180.7500  180.7540  137.7960 C   0  0  0  0  0  0  0  0  0  0  0  0
  182.2380  179.7490  139.4380 C   0  0  2  0  0  0  0  0  0  0  0  0
  181.0760  180.3350  136.5060 O   0  0  0  0  0  1  0  0  0  0  0  0
  179.9900  179.6590  138.5170 C   0  0  0  0  0  2  0  0  0  0  0  0
  182.0130  180.9950  138.5930 C   0  0  0  0  0  2  0  0  0  0  0  0
  183.6060  177.9960  138.0890 C   0  0  2  0  0  3  0  0  0  0  0  0
  182.1120  175.9920  137.6560 C   0  0  0  0  0  0  0  0  0  0  0  0
  183.0620  176.6100  138.3580 C   0  0  0  0  0  3  0  0  0  0  0  0
  181.4840  176.6090  136.5840 O   0  0  0  0  0  1  0  0  0  0  0  0
  181.7050  174.6160  138.0420 C   0  0  0  0  0  1  0  0  0  0  0  0
  184.9430  177.9780  137.3460 C   0  0  0  0  0  2  0  0  0  0  0  0
  185.6940  176.6870  137.6260 C   0  0  0  0  0  2  0  0  0  0  0  0
  187.3850  177.8830  138.7270 C   0  0  0  0  0  2  0  0  0  0  0  0
  187.1230  176.9420  137.6390 N   0  0  0  0  0  0  0  0  0  0  0  0
  187.4410  177.6020  136.3710 C   0  0  0  0  0  2  0  0  0  0  0  0
  189.7730  176.6810  136.1840 C   0  0  0  0  0  1  0  0  0  0  0  0
  189.3560  178.7870  137.4930 C   0  0  0  0  0  2  0  0  0  0  0  0
  188.9320  177.9420  136.2890 C   0  0  2  0  0  3  0  0  0  0  0  0
  188.8810  178.1710  138.8080 C   0  0  0  0  0  2  0  0  0  0  0  0
  183.8230  178.2250  140.6250 C   0  0  0  0  0  2  0  0  0  0  0  0
  185.0680  178.7090  141.3610 C   0  0  0  0  0  2  0  0  0  0  0  0
  184.6880  179.4020  142.6580 C   0  0  0  0  0  2  0  0  0  0  0  0
  184.6340  178.4150  143.8200 C   0  0  2  0  0  3  0  0  0  0  0  0
  183.4930  178.8360  144.7310 C   0  0  0  0  0  1  0  0  0  0  0  0
  185.7060  178.4500  146.0970 C   0  0  0  0  0  1  0  0  0  0  0  0
  185.9600  178.3830  144.5970 C   0  0  1  0  0  3  0  0  0  0  0  0
  187.8370  177.1000  143.5320 C   0  0  0  0  0  0  0  0  0  0  0  0
  186.7390  177.1310  144.3000 C   0  0  0  0  0  3  0  0  0  0  0  0
  188.5360  175.8000  143.3370 C   0  0  0  0  0  1  0  0  0  0  0  0
  188.4100  178.3280  142.8900 C   0  0  0  0  0  2  0  0  0  0  0  0
  189.8490  178.0900  142.4720 C   0  0  0  0  0  2  0  0  0  0  0  0
  190.7060  178.6080  143.4410 O   0  0  0  0  0  1  0  0  0  0  0  0
  2  1  1  6  0  0  0
  2 25  1  0  0  0  0
  3  6  1  0  0  0  0
  5  9  1  6  0  0  0
  5  7  1  0  0  0  0
  5  4  1  0  0  0  0
  6  9  1  0  0  0  0
  6 10  1  0  0  0  0
  7  2  1  1  0  0  0
  7  4  1  0  0  0  0
  8  6  1  0  0  0  0
 10  7  1  0  0  0  0
 11 16  1  1  0  0  0
 11 13  1  0  0  0  0
 11  2  1  0  0  0  0
 12 15  1  0  0  0  0
 12 13  2  0  0  0  0
 14 12  1  0  0  0  0
 16 17  1  0  0  0  0
 17 19  1  0  0  0  0
 18 24  1  0  0  0  0
 19 18  1  0  0  0  0
 20 19  1  0  0  0  0
 22 24  1  0  0  0  0
 23 21  1  1  0  0  0
 23 20  1  0  0  0  0
 23 22  1  0  0  0  0
 25 26  1  0  0  0  0
 26 27  1  0  0  0  0
 27 28  1  0  0  0  0
 28 31  1  0  0  0  0
 28 29  1  1  0  0  0
 31 30  1  1  0  0  0
 32 33  2  0  0  0  0
 33 31  1  0  0  0  0
 34 32  1  0  0  0  0
 35 32  1  0  0  0  0
 36 35  1  0  0  0  0
 36 37  1  0  0  0  0
M  END
>  <MODEL>
9

>  <REMARK>
 VINA RESULT:      -6.4      1.796      2.265
  Name = 
  14 active torsions:
  status: ('A' for Active; 'I' for Inactive)
    1  A    between atoms: C_1  and  C_5
    2  A    between atoms: C_1  and  C_36
    3  A    between atoms: C_5  and  C_17
    4  A    between atoms: N_6  and  C_31
    5  A    between atoms: C_7  and  C_33
    6  A    between atoms: C_10  and  C_14
    7  A    between atoms: C_10  and  C_20
    8  A    between atoms: C_10  and  C_22
    9  A    between atoms: C_11  and  C_33
   10  A    between atoms: C_14  and  C_31
   11  A    between atoms: C_17  and  C_26
   12  A    between atoms: C_20  and  C_24
   13  A    between atoms: C_20  and  C_29
   14  A    between atoms: C_29  and  C_36
                            x       y       z     vdW  Elec       q    Type
                         _______ _______ _______ _____ _____    ______ ____

>  <TORSDO>
F 14

$$$$
