=
 OpenBabel10262423473D

 34 38  0  0  1  0  0  0  0  0999 V2000
  190.3980  175.8840  137.4990 C   0  0  0  0  0  0  0  0  0  0  0  0
  192.5080  176.3690  138.8250 C   0  0  2  0  0  3  0  0  0  0  0  0
  190.2040  177.2150  139.5370 C   0  0  0  0  0  0  0  0  0  0  0  0
  190.3630  178.5370  143.1830 C   0  0  0  0  0  1  0  0  0  0  0  0
  193.2120  176.5790  137.6390 O   0  0  0  0  0  1  0  0  0  0  0  0
  192.1870  177.2930  141.1210 C   0  0  0  0  0  2  0  0  0  0  0  0
  191.0120  176.5250  138.5980 C   0  0  0  0  0  0  0  0  0  0  0  0
  189.7970  177.8240  141.9560 C   0  0  1  0  0  0  0  0  0  0  0  0
  188.8180  177.3720  139.3090 C   0  0  0  0  0  0  0  0  0  0  0  0
  189.0160  176.0100  137.3090 C   0  0  0  0  0  3  0  0  0  0  0  0
  193.0580  177.3230  139.8810 C   0  0  0  0  0  2  0  0  0  0  0  0
  188.6010  178.6460  141.4900 C   0  0  0  0  0  2  0  0  0  0  0  0
  188.0000  178.0960  140.2650 N   0  0  0  0  0  0  0  0  0  0  0  0
  190.8010  177.8410  140.7780 C   0  0  2  0  0  3  0  0  0  0  0  0
  188.2400  176.7470  138.1980 C   0  0  0  0  0  3  0  0  0  0  0  0
  184.3180  178.5240  140.9180 C   0  0  0  0  0  0  0  0  0  0  0  0
  183.8340  178.2670  139.5990 N   0  0  0  0  0  2  0  0  0  0  0  0
  186.6220  178.4260  140.0000 C   0  0  0  0  0  0  0  0  0  0  0  0
  184.6870  178.5630  138.4540 C   0  0  0  0  0  2  0  0  0  0  0  0
  185.7390  178.9580  141.1090 C   0  0  0  0  0  2  0  0  0  0  0  0
  186.1150  178.2250  138.7720 C   0  0  0  0  0  3  0  0  0  0  0  0
  183.5540  178.3970  141.9100 O   0  0  0  0  0  0  0  0  0  0  0  0
  191.1450  173.6990  136.5990 C   0  0  0  0  0  1  0  0  0  0  0  0
  191.1690  175.1200  136.6160 O   0  0  0  0  0  0  0  0  0  0  0  0
  189.3120  176.5260  142.2750 O   0  0  0  0  0  0  0  0  0  0  0  0
  188.8250  176.4810  143.5910 C   0  0  0  0  0  2  0  0  0  0  0  0
  187.3090  176.5160  143.5630 C   0  0  0  0  0  2  0  0  0  0  0  0
  184.8270  178.6370  145.4990 C   0  0  0  0  0  2  0  0  0  0  0  0
  186.7730  177.1230  144.8450 C   0  0  0  0  0  3  0  0  0  0  0  0
  185.9690  178.3760  144.5120 C   0  0  0  0  0  2  0  0  0  0  0  0
  186.5510  178.8510  147.3640 C   0  0  0  0  0  2  0  0  0  0  0  0
  187.5440  177.7090  147.1840 C   0  0  0  0  0  2  0  0  0  0  0  0
  187.9510  177.5200  145.7260 C   0  0  0  0  0  2  0  0  0  0  0  0
  185.1570  178.3810  146.9720 C   0  0  0  0  0  2  0  0  0  0  0  0
  1  7  1  0  0  0  0
  2  5  1  6  0  0  0
  2 11  1  0  0  0  0
  3 14  1  0  0  0  0
  7  2  1  0  0  0  0
  7  3  2  0  0  0  0
  8 25  1  0  0  0  0
  8  4  1  1  0  0  0
  9  3  1  0  0  0  0
  9 13  1  0  0  0  0
 10  1  2  0  0  0  0
 10 15  1  0  0  0  0
 11  6  1  0  0  0  0
 12  8  1  0  0  0  0
 13 12  1  0  0  0  0
 14  6  1  1  0  0  0
 14  8  1  0  0  0  0
 15  9  2  0  0  0  0
 16 20  1  0  0  0  0
 16 22  2  0  0  0  0
 17 16  1  0  0  0  0
 18 13  1  0  0  0  0
 18 20  1  0  0  0  0
 19 21  1  0  0  0  0
 19 17  1  0  0  0  0
 21 18  2  0  0  0  0
 23 24  1  0  0  0  0
 24  1  1  0  0  0  0
 25 26  1  0  0  0  0
 27 26  1  0  0  0  0
 27 29  1  0  0  0  0
 28 34  1  0  0  0  0
 29 33  1  0  0  0  0
 30 29  1  0  0  0  0
 30 28  1  0  0  0  0
 32 31  1  0  0  0  0
 33 32  1  0  0  0  0
 34 31  1  0  0  0  0
M  END
>  <MODEL>
1

>  <REMARK>
 VINA RESULT:      -8.9      0.000      0.000
  Name = 
  6 active torsions:
  status: ('A' for Active; 'I' for Inactive)
    1  A    between atoms: C_1  and  O_19
    2  A    between atoms: C_3  and  C_13
    3  A    between atoms: C_3  and  C_17
    4  A    between atoms: C_12  and  N_28
    5  A    between atoms: C_17  and  O_29
    6  A    between atoms: C_18  and  O_29
                            x       y       z     vdW  Elec       q    Type
                         _______ _______ _______ _____ _____    ______ ____

>  <TORSDO>
F 6

$$$$
=
 OpenBabel10262423473D

 34 38  0  0  1  0  0  0  0  0999 V2000
  185.5310  177.5940  137.5240 C   0  0  0  0  0  0  0  0  0  0  0  0
  188.0330  177.9220  137.2420 C   0  0  2  0  0  3  0  0  0  0  0  0
  186.8240  178.3410  139.4540 C   0  0  0  0  0  0  0  0  0  0  0  0
  189.4220  178.7090  142.3150 C   0  0  0  0  0  1  0  0  0  0  0  0
  187.8220  178.4900  135.9840 O   0  0  0  0  0  1  0  0  0  0  0  0
  189.3570  178.2020  139.3380 C   0  0  0  0  0  2  0  0  0  0  0  0
  186.7660  177.9900  138.0810 C   0  0  0  0  0  0  0  0  0  0  0  0
  188.1330  178.2780  141.6150 C   0  0  1  0  0  0  0  0  0  0  0  0
  185.6420  178.4210  140.2230 C   0  0  0  0  0  0  0  0  0  0  0  0
  184.3720  177.6330  138.3090 C   0  0  0  0  0  3  0  0  0  0  0  0
  189.2220  178.6260  137.8890 C   0  0  0  0  0  2  0  0  0  0  0  0
  187.0040  179.0770  142.2580 C   0  0  0  0  0  2  0  0  0  0  0  0
  185.7060  178.8000  141.6230 N   0  0  0  0  0  0  0  0  0  0  0  0
  188.1380  178.6870  140.1220 C   0  0  2  0  0  3  0  0  0  0  0  0
  184.4270  178.0460  139.6370 C   0  0  0  0  0  3  0  0  0  0  0  0
  183.5460  179.1660  144.6830 C   0  0  0  0  0  0  0  0  0  0  0  0
  182.2980  178.7640  144.1150 N   0  0  0  0  0  2  0  0  0  0  0  0
  184.5220  179.0560  142.4030 C   0  0  0  0  0  0  0  0  0  0  0  0
  182.0600  178.9750  142.6910 C   0  0  0  0  0  2  0  0  0  0  0  0
  184.6370  179.6640  143.7850 C   0  0  0  0  0  2  0  0  0  0  0  0
  183.3180  178.7190  141.9130 C   0  0  0  0  0  3  0  0  0  0  0  0
  183.7230  179.1110  145.9280 O   0  0  0  0  0  0  0  0  0  0  0  0
  184.6420  176.0810  135.7720 C   0  0  0  0  0  1  0  0  0  0  0  0
  185.4740  177.1530  136.1960 O   0  0  0  0  0  0  0  0  0  0  0  0
  187.8470  176.9030  141.8310 O   0  0  0  0  0  0  0  0  0  0  0  0
  188.2830  176.4930  143.1010 C   0  0  0  0  0  2  0  0  0  0  0  0
  187.1260  176.5840  144.0790 C   0  0  0  0  0  2  0  0  0  0  0  0
  186.8400  178.2950  147.4540 C   0  0  0  0  0  2  0  0  0  0  0  0
  187.6370  176.9050  145.4700 C   0  0  0  0  0  3  0  0  0  0  0  0
  187.0330  178.2260  145.9370 C   0  0  0  0  0  2  0  0  0  0  0  0
  189.3600  178.0290  147.7390 C   0  0  0  0  0  2  0  0  0  0  0  0
  189.8000  176.9260  146.7850 C   0  0  0  0  0  2  0  0  0  0  0  0
  189.1520  177.0560  145.4100 C   0  0  0  0  0  2  0  0  0  0  0  0
  187.9790  177.7050  148.2910 C   0  0  0  0  0  2  0  0  0  0  0  0
  1  7  2  0  0  0  0
  1 10  1  0  0  0  0
  2  5  1  6  0  0  0
  2 11  1  0  0  0  0
  2  7  1  0  0  0  0
  3 14  1  0  0  0  0
  3  9  2  0  0  0  0
  7  3  1  0  0  0  0
  8 25  1  0  0  0  0
  8 12  1  0  0  0  0
  8  4  1  1  0  0  0
  9 13  1  0  0  0  0
 10 15  2  0  0  0  0
 11  6  1  0  0  0  0
 13 12  1  0  0  0  0
 13 18  1  0  0  0  0
 14  6  1  6  0  0  0
 14  8  1  0  0  0  0
 15  9  1  0  0  0  0
 16 22  2  0  0  0  0
 17 16  1  0  0  0  0
 18 20  1  0  0  0  0
 19 17  1  0  0  0  0
 20 16  1  0  0  0  0
 21 18  2  0  0  0  0
 21 19  1  0  0  0  0
 23 24  1  0  0  0  0
 24  1  1  0  0  0  0
 25 26  1  0  0  0  0
 26 27  1  0  0  0  0
 27 29  1  0  0  0  0
 28 34  1  0  0  0  0
 29 30  1  0  0  0  0
 30 28  1  0  0  0  0
 31 34  1  0  0  0  0
 32 31  1  0  0  0  0
 33 29  1  0  0  0  0
 33 32  1  0  0  0  0
M  END
>  <MODEL>
2

>  <REMARK>
 VINA RESULT:      -8.3      2.487      3.745
  Name = 
  6 active torsions:
  status: ('A' for Active; 'I' for Inactive)
    1  A    between atoms: C_1  and  O_19
    2  A    between atoms: C_3  and  C_13
    3  A    between atoms: C_3  and  C_17
    4  A    between atoms: C_12  and  N_28
    5  A    between atoms: C_17  and  O_29
    6  A    between atoms: C_18  and  O_29
                            x       y       z     vdW  Elec       q    Type
                         _______ _______ _______ _____ _____    ______ ____

>  <TORSDO>
F 6

$$$$
=
 OpenBabel10262423473D

 34 38  0  0  1  0  0  0  0  0999 V2000
  186.5570  177.5370  144.6580 C   0  0  0  0  0  0  0  0  0  0  0  0
  184.2990  178.5830  145.1620 C   0  0  2  0  0  3  0  0  0  0  0  0
  185.2760  178.4740  142.8030 C   0  0  0  0  0  0  0  0  0  0  0  0
  182.5250  179.3470  140.2070 C   0  0  0  0  0  1  0  0  0  0  0  0
  184.8190  179.1600  146.3220 O   0  0  0  0  0  1  0  0  0  0  0  0
  182.8390  179.0690  143.1990 C   0  0  0  0  0  2  0  0  0  0  0  0
  185.4150  178.2250  144.1930 C   0  0  0  0  0  0  0  0  0  0  0  0
  183.7290  178.6230  140.8110 C   0  0  1  0  0  0  0  0  0  0  0  0
  186.3250  178.1570  141.9110 C   0  0  0  0  0  0  0  0  0  0  0  0
  187.5700  177.1870  143.7560 C   0  0  0  0  0  3  0  0  0  0  0  0
  183.2730  179.5440  144.5700 C   0  0  0  0  0  2  0  0  0  0  0  0
  184.9380  179.0170  139.9710 C   0  0  0  0  0  2  0  0  0  0  0  0
  186.1830  178.4320  140.4930 N   0  0  0  0  0  0  0  0  0  0  0  0
  184.0310  179.1270  142.2430 C   0  0  2  0  0  3  0  0  0  0  0  0
  187.4570  177.4970  142.4050 C   0  0  0  0  0  3  0  0  0  0  0  0
  188.1280  177.0980  137.5590 C   0  0  0  0  0  0  0  0  0  0  0  0
  189.4450  177.2400  138.0930 N   0  0  0  0  0  2  0  0  0  0  0  0
  187.2790  178.2820  139.5700 C   0  0  0  0  0  0  0  0  0  0  0  0
  189.7100  178.2830  139.0770 C   0  0  0  0  0  2  0  0  0  0  0  0
  187.0140  177.9260  138.1230 C   0  0  0  0  0  2  0  0  0  0  0  0
  188.5410  178.4240  140.0080 C   0  0  0  0  0  3  0  0  0  0  0  0
  187.9080  176.2910  136.6190 O   0  0  0  0  0  0  0  0  0  0  0  0
  187.8100  177.5060  146.7970 C   0  0  0  0  0  1  0  0  0  0  0  0
  186.6650  177.1990  146.0130 O   0  0  0  0  0  0  0  0  0  0  0  0
  183.5980  177.2100  140.7170 O   0  0  0  0  0  0  0  0  0  0  0  0
  182.3850  176.8580  140.1040 C   0  0  0  0  0  2  0  0  0  0  0  0
  182.5690  175.5550  139.3480 C   0  0  0  0  0  2  0  0  0  0  0  0
  183.1810  177.3780  136.0750 C   0  0  0  0  0  2  0  0  0  0  0  0
  183.3470  175.7950  138.0680 C   0  0  0  0  0  3  0  0  0  0  0  0
  182.4340  176.4500  137.0380 C   0  0  0  0  0  2  0  0  0  0  0  0
  184.5450  175.3760  135.2810 C   0  0  0  0  0  2  0  0  0  0  0  0
  184.9580  174.5980  136.5240 C   0  0  0  0  0  2  0  0  0  0  0  0
  183.8130  174.4500  137.5220 C   0  0  0  0  0  2  0  0  0  0  0  0
  184.5410  176.8660  135.5900 C   0  0  0  0  0  2  0  0  0  0  0  0
  1 24  1  0  0  0  0
  2  5  1  1  0  0  0
  3  7  2  0  0  0  0
  6 11  1  0  0  0  0
  7  1  1  0  0  0  0
  7  2  1  0  0  0  0
  8  4  1  6  0  0  0
  8 14  1  0  0  0  0
  9 15  2  0  0  0  0
  9  3  1  0  0  0  0
 10  1  2  0  0  0  0
 11  2  1  0  0  0  0
 12 13  1  0  0  0  0
 12  8  1  0  0  0  0
 13  9  1  0  0  0  0
 14  3  1  0  0  0  0
 14  6  1  1  0  0  0
 15 10  1  0  0  0  0
 16 17  1  0  0  0  0
 16 20  1  0  0  0  0
 17 19  1  0  0  0  0
 18 21  2  0  0  0  0
 18 13  1  0  0  0  0
 19 21  1  0  0  0  0
 20 18  1  0  0  0  0
 22 16  2  0  0  0  0
 24 23  1  0  0  0  0
 25  8  1  0  0  0  0
 26 25  1  0  0  0  0
 27 26  1  0  0  0  0
 28 30  1  0  0  0  0
 29 27  1  0  0  0  0
 30 29  1  0  0  0  0
 31 34  1  0  0  0  0
 31 32  1  0  0  0  0
 32 33  1  0  0  0  0
 33 29  1  0  0  0  0
 34 28  1  0  0  0  0
M  END
>  <MODEL>
3

>  <REMARK>
 VINA RESULT:      -7.9      2.568      8.016
  Name = 
  6 active torsions:
  status: ('A' for Active; 'I' for Inactive)
    1  A    between atoms: C_1  and  O_19
    2  A    between atoms: C_3  and  C_13
    3  A    between atoms: C_3  and  C_17
    4  A    between atoms: C_12  and  N_28
    5  A    between atoms: C_17  and  O_29
    6  A    between atoms: C_18  and  O_29
                            x       y       z     vdW  Elec       q    Type
                         _______ _______ _______ _____ _____    ______ ____

>  <TORSDO>
F 6

$$$$
=
 OpenBabel10262423473D

 34 38  0  0  1  0  0  0  0  0999 V2000
  187.6790  173.1940  136.4790 C   0  0  0  0  0  0  0  0  0  0  0  0
  189.9840  174.1780  136.0750 C   0  0  2  0  0  3  0  0  0  0  0  0
  187.9640  175.6080  136.7110 C   0  0  0  0  0  0  0  0  0  0  0  0
  189.1430  179.1670  137.7160 C   0  0  0  0  0  1  0  0  0  0  0  0
  190.1670  173.3180  134.9910 O   0  0  0  0  0  1  0  0  0  0  0  0
  190.3230  176.5420  136.7980 C   0  0  0  0  0  2  0  0  0  0  0  0
  188.5050  174.3360  136.3920 C   0  0  0  0  0  0  0  0  0  0  0  0
  188.3290  177.8740  137.7680 C   0  0  1  0  0  0  0  0  0  0  0  0
  186.5850  175.7490  136.9850 C   0  0  0  0  0  0  0  0  0  0  0  0
  186.3230  173.3430  136.7970 C   0  0  0  0  0  3  0  0  0  0  0  0
  190.6750  175.5000  135.7550 C   0  0  0  0  0  2  0  0  0  0  0  0
  186.9100  178.2380  137.3470 C   0  0  0  0  0  2  0  0  0  0  0  0
  186.0330  177.0570  137.2920 N   0  0  0  0  0  0  0  0  0  0  0  0
  188.8280  176.8500  136.7190 C   0  0  2  0  0  3  0  0  0  0  0  0
  185.7840  174.6020  137.0410 C   0  0  0  0  0  3  0  0  0  0  0  0
  182.6080  177.0190  138.8520 C   0  0  0  0  0  0  0  0  0  0  0  0
  181.8300  176.9040  137.6600 N   0  0  0  0  0  2  0  0  0  0  0  0
  184.6160  177.2820  137.4160 C   0  0  0  0  0  0  0  0  0  0  0  0
  182.3540  177.4420  136.4090 C   0  0  0  0  0  2  0  0  0  0  0  0
  184.0030  177.5610  138.7710 C   0  0  0  0  0  2  0  0  0  0  0  0
  183.8340  177.2070  136.3250 C   0  0  0  0  0  3  0  0  0  0  0  0
  182.1230  176.6770  139.9620 O   0  0  0  0  0  0  0  0  0  0  0  0
  187.5760  170.9320  135.4690 C   0  0  0  0  0  1  0  0  0  0  0  0
  188.2210  171.9220  136.2610 O   0  0  0  0  0  0  0  0  0  0  0  0
  188.2510  177.3490  139.0870 O   0  0  0  0  0  0  0  0  0  0  0  0
  188.2040  178.3830  140.0360 C   0  0  0  0  0  2  0  0  0  0  0  0
  188.6400  177.8410  141.3850 C   0  0  0  0  0  2  0  0  0  0  0  0
  187.0190  177.2910  144.7720 C   0  0  0  0  0  2  0  0  0  0  0  0
  187.5900  178.1420  142.4370 C   0  0  0  0  0  3  0  0  0  0  0  0
  187.4170  176.9250  143.3400 C   0  0  0  0  0  2  0  0  0  0  0  0
  184.8860  178.3460  143.8600 C   0  0  0  0  0  2  0  0  0  0  0  0
  185.2830  179.1640  142.6370 C   0  0  0  0  0  2  0  0  0  0  0  0
  186.2660  178.4220  141.7370 C   0  0  0  0  0  2  0  0  0  0  0  0
  185.9910  178.4180  144.9040 C   0  0  0  0  0  2  0  0  0  0  0  0
  1 10  1  0  0  0  0
  2  5  1  6  0  0  0
  2  7  1  0  0  0  0
  3 14  1  0  0  0  0
  3  9  2  0  0  0  0
  7  1  2  0  0  0  0
  7  3  1  0  0  0  0
  8  4  1  6  0  0  0
  8 25  1  0  0  0  0
  9 15  1  0  0  0  0
  9 13  1  0  0  0  0
 10 15  2  0  0  0  0
 11  2  1  0  0  0  0
 11  6  1  0  0  0  0
 12  8  1  0  0  0  0
 13 12  1  0  0  0  0
 13 18  1  0  0  0  0
 14  6  1  1  0  0  0
 14  8  1  0  0  0  0
 16 22  2  0  0  0  0
 17 16  1  0  0  0  0
 18 20  1  0  0  0  0
 19 17  1  0  0  0  0
 20 16  1  0  0  0  0
 21 19  1  0  0  0  0
 21 18  2  0  0  0  0
 23 24  1  0  0  0  0
 24  1  1  0  0  0  0
 25 26  1  0  0  0  0
 26 27  1  0  0  0  0
 27 29  1  0  0  0  0
 28 34  1  0  0  0  0
 29 30  1  0  0  0  0
 30 28  1  0  0  0  0
 31 34  1  0  0  0  0
 32 31  1  0  0  0  0
 33 29  1  0  0  0  0
 33 32  1  0  0  0  0
M  END
>  <MODEL>
4

>  <REMARK>
 VINA RESULT:      -7.6      2.389      3.937
  Name = 
  6 active torsions:
  status: ('A' for Active; 'I' for Inactive)
    1  A    between atoms: C_1  and  O_19
    2  A    between atoms: C_3  and  C_13
    3  A    between atoms: C_3  and  C_17
    4  A    between atoms: C_12  and  N_28
    5  A    between atoms: C_17  and  O_29
    6  A    between atoms: C_18  and  O_29
                            x       y       z     vdW  Elec       q    Type
                         _______ _______ _______ _____ _____    ______ ____

>  <TORSDO>
F 6

$$$$
=
 OpenBabel10262423473D

 34 38  0  0  1  0  0  0  0  0999 V2000
  191.2060  175.2270  137.1900 C   0  0  0  0  0  0  0  0  0  0  0  0
  192.8970  176.1480  138.8440 C   0  0  2  0  0  3  0  0  0  0  0  0
  190.4360  176.8390  138.8530 C   0  0  0  0  0  0  0  0  0  0  0  0
  189.6230  178.7430  142.1370 C   0  0  0  0  0  1  0  0  0  0  0  0
  193.8500  176.2400  137.8290 O   0  0  0  0  0  1  0  0  0  0  0  0
  191.9710  177.3900  140.8000 C   0  0  0  0  0  2  0  0  0  0  0  0
  191.4930  176.1000  138.2620 C   0  0  0  0  0  0  0  0  0  0  0  0
  189.4190  177.7820  140.9650 C   0  0  1  0  0  0  0  0  0  0  0  0
  189.1390  176.8040  138.2940 C   0  0  0  0  0  0  0  0  0  0  0  0
  189.9050  175.1670  136.6740 C   0  0  0  0  0  3  0  0  0  0  0  0
  193.1100  177.3150  139.8040 C   0  0  0  0  0  2  0  0  0  0  0  0
  188.3160  178.3820  140.1000 C   0  0  0  0  0  2  0  0  0  0  0  0
  188.0670  177.5780  138.8930 N   0  0  0  0  0  0  0  0  0  0  0  0
  190.6740  177.7200  140.0600 C   0  0  2  0  0  3  0  0  0  0  0  0
  188.8890  175.9480  137.2150 C   0  0  0  0  0  3  0  0  0  0  0  0
  184.3380  178.0260  138.6320 C   0  0  0  0  0  0  0  0  0  0  0  0
  184.1120  177.2580  137.4490 N   0  0  0  0  0  2  0  0  0  0  0  0
  186.7740  177.7080  138.2700 C   0  0  0  0  0  0  0  0  0  0  0  0
  185.1770  177.1400  136.4590 C   0  0  0  0  0  2  0  0  0  0  0  0
  185.7060  178.5740  138.9030 C   0  0  0  0  0  2  0  0  0  0  0  0
  186.5090  177.0260  137.1430 C   0  0  0  0  0  3  0  0  0  0  0  0
  183.3950  178.2460  139.4350 O   0  0  0  0  0  0  0  0  0  0  0  0
  192.4240  174.2570  135.2600 C   0  0  0  0  0  1  0  0  0  0  0  0
  192.2190  174.4190  136.6570 O   0  0  0  0  0  0  0  0  0  0  0  0
  188.9620  176.5070  141.3990 O   0  0  0  0  0  0  0  0  0  0  0  0
  189.1000  176.3710  142.7890 C   0  0  0  0  0  2  0  0  0  0  0  0
  187.7470  176.5700  143.4460 C   0  0  0  0  0  2  0  0  0  0  0  0
  186.5670  178.0380  146.7410 C   0  0  0  0  0  2  0  0  0  0  0  0
  187.9170  176.8640  144.9240 C   0  0  0  0  0  3  0  0  0  0  0  0
  187.0750  178.0790  145.2970 C   0  0  0  0  0  2  0  0  0  0  0  0
  188.9870  178.0380  147.5430 C   0  0  0  0  0  2  0  0  0  0  0  0
  189.7450  177.0480  146.6670 C   0  0  0  0  0  2  0  0  0  0  0  0
  189.3830  177.1860  145.1910 C   0  0  0  0  0  2  0  0  0  0  0  0
  187.5710  177.5300  147.7800 C   0  0  0  0  0  2  0  0  0  0  0  0
  1  7  1  0  0  0  0
  2  5  1  6  0  0  0
  2 11  1  0  0  0  0
  3 14  1  0  0  0  0
  7  2  1  0  0  0  0
  7  3  2  0  0  0  0
  8 25  1  0  0  0  0
  8  4  1  1  0  0  0
  9  3  1  0  0  0  0
  9 13  1  0  0  0  0
 10  1  2  0  0  0  0
 10 15  1  0  0  0  0
 11  6  1  0  0  0  0
 12  8  1  0  0  0  0
 13 12  1  0  0  0  0
 14  6  1  1  0  0  0
 14  8  1  0  0  0  0
 15  9  2  0  0  0  0
 16 20  1  0  0  0  0
 16 22  2  0  0  0  0
 17 16  1  0  0  0  0
 18 13  1  0  0  0  0
 18 20  1  0  0  0  0
 19 21  1  0  0  0  0
 19 17  1  0  0  0  0
 21 18  2  0  0  0  0
 23 24  1  0  0  0  0
 24  1  1  0  0  0  0
 25 26  1  0  0  0  0
 26 27  1  0  0  0  0
 27 29  1  0  0  0  0
 28 34  1  0  0  0  0
 29 33  1  0  0  0  0
 29 30  1  0  0  0  0
 30 28  1  0  0  0  0
 31 34  1  0  0  0  0
 32 31  1  0  0  0  0
 33 32  1  0  0  0  0
M  END
>  <MODEL>
5

>  <REMARK>
 VINA RESULT:      -7.5      1.288      1.626
  Name = 
  6 active torsions:
  status: ('A' for Active; 'I' for Inactive)
    1  A    between atoms: C_1  and  O_19
    2  A    between atoms: C_3  and  C_13
    3  A    between atoms: C_3  and  C_17
    4  A    between atoms: C_12  and  N_28
    5  A    between atoms: C_17  and  O_29
    6  A    between atoms: C_18  and  O_29
                            x       y       z     vdW  Elec       q    Type
                         _______ _______ _______ _____ _____    ______ ____

>  <TORSDO>
F 6

$$$$
=
 OpenBabel10262423473D

 34 38  0  0  1  0  0  0  0  0999 V2000
  187.8440  173.1610  136.4920 C   0  0  0  0  0  0  0  0  0  0  0  0
  190.1160  174.2200  136.0930 C   0  0  2  0  0  3  0  0  0  0  0  0
  188.0420  175.5850  136.6970 C   0  0  0  0  0  0  0  0  0  0  0  0
  189.0880  179.1950  137.6690 C   0  0  0  0  0  1  0  0  0  0  0  0
  190.3380  173.3540  135.0210 O   0  0  0  0  0  1  0  0  0  0  0  0
  190.3670  176.6020  136.7910 C   0  0  0  0  0  2  0  0  0  0  0  0
  188.6300  174.3300  136.3970 C   0  0  0  0  0  0  0  0  0  0  0  0
  188.3190  177.8750  137.7300 C   0  0  1  0  0  0  0  0  0  0  0  0
  186.6570  175.6820  136.9590 C   0  0  0  0  0  0  0  0  0  0  0  0
  186.4810  173.2660  136.7970 C   0  0  0  0  0  3  0  0  0  0  0  0
  190.7630  175.5620  135.7630 C   0  0  0  0  0  2  0  0  0  0  0  0
  186.8920  178.1840  137.2930 C   0  0  0  0  0  2  0  0  0  0  0  0
  186.0580  176.9720  137.2460 N   0  0  0  0  0  0  0  0  0  0  0  0
  188.8620  176.8570  136.6970 C   0  0  2  0  0  3  0  0  0  0  0  0
  185.8960  174.5080  137.0220 C   0  0  0  0  0  3  0  0  0  0  0  0
  182.5260  177.6780  136.1530 C   0  0  0  0  0  0  0  0  0  0  0  0
  182.0400  178.2620  137.3630 N   0  0  0  0  0  2  0  0  0  0  0  0
  184.6320  177.1490  137.3560 C   0  0  0  0  0  0  0  0  0  0  0  0
  182.6320  177.8680  138.6360 C   0  0  0  0  0  2  0  0  0  0  0  0
  183.7270  176.7840  136.2000 C   0  0  0  0  0  2  0  0  0  0  0  0
  184.1130  177.6740  138.4790 C   0  0  0  0  0  3  0  0  0  0  0  0
  181.9460  177.9070  135.0600 O   0  0  0  0  0  0  0  0  0  0  0  0
  187.8280  170.8850  135.5090 C   0  0  0  0  0  1  0  0  0  0  0  0
  188.4320  171.9050  136.2920 O   0  0  0  0  0  0  0  0  0  0  0  0
  188.2500  177.3630  139.0550 O   0  0  0  0  0  0  0  0  0  0  0  0
  188.5310  178.3660  139.9950 C   0  0  0  0  0  2  0  0  0  0  0  0
  187.9770  177.9520  141.3460 C   0  0  0  0  0  2  0  0  0  0  0  0
  191.5760  177.6390  142.5120 C   0  0  0  0  0  2  0  0  0  0  0  0
  189.0590  178.0370  142.4060 C   0  0  0  0  0  3  0  0  0  0  0  0
  190.2200  177.1290  142.0160 C   0  0  0  0  0  2  0  0  0  0  0  0
  190.7230  177.4360  144.9060 C   0  0  0  0  0  2  0  0  0  0  0  0
  189.3120  178.0110  144.9250 C   0  0  0  0  0  2  0  0  0  0  0  0
  188.4820  177.5500  143.7300 C   0  0  0  0  0  2  0  0  0  0  0  0
  191.5820  178.2240  143.9280 C   0  0  0  0  0  2  0  0  0  0  0  0
  1 10  1  0  0  0  0
  2  5  1  6  0  0  0
  2  7  1  0  0  0  0
  3  9  2  0  0  0  0
  7  1  2  0  0  0  0
  7  3  1  0  0  0  0
  8  4  1  6  0  0  0
  8 25  1  0  0  0  0
  9 15  1  0  0  0  0
  9 13  1  0  0  0  0
 10 15  2  0  0  0  0
 11  2  1  0  0  0  0
 11  6  1  0  0  0  0
 12  8  1  0  0  0  0
 13 12  1  0  0  0  0
 13 18  1  0  0  0  0
 14  3  1  0  0  0  0
 14  6  1  1  0  0  0
 14  8  1  0  0  0  0
 16 20  1  0  0  0  0
 16 17  1  0  0  0  0
 17 19  1  0  0  0  0
 18 21  2  0  0  0  0
 20 18  1  0  0  0  0
 21 19  1  0  0  0  0
 22 16  2  0  0  0  0
 23 24  1  0  0  0  0
 24  1  1  0  0  0  0
 25 26  1  0  0  0  0
 26 27  1  0  0  0  0
 27 29  1  0  0  0  0
 28 34  1  0  0  0  0
 29 33  1  0  0  0  0
 30 29  1  0  0  0  0
 30 28  1  0  0  0  0
 31 32  1  0  0  0  0
 33 32  1  0  0  0  0
 34 31  1  0  0  0  0
M  END
>  <MODEL>
6

>  <REMARK>
 VINA RESULT:      -7.3      2.655      4.473
  Name = 
  6 active torsions:
  status: ('A' for Active; 'I' for Inactive)
    1  A    between atoms: C_1  and  O_19
    2  A    between atoms: C_3  and  C_13
    3  A    between atoms: C_3  and  C_17
    4  A    between atoms: C_12  and  N_28
    5  A    between atoms: C_17  and  O_29
    6  A    between atoms: C_18  and  O_29
                            x       y       z     vdW  Elec       q    Type
                         _______ _______ _______ _____ _____    ______ ____

>  <TORSDO>
F 6

$$$$
=
 OpenBabel10262423473D

 34 38  0  0  1  0  0  0  0  0999 V2000
  186.5480  178.4620  139.0030 C   0  0  0  0  0  0  0  0  0  0  0  0
  187.5260  178.6070  136.6650 C   0  0  2  0  0  3  0  0  0  0  0  0
  188.8930  177.8620  138.6910 C   0  0  0  0  0  0  0  0  0  0  0  0
  192.2360  176.2840  137.5050 C   0  0  0  0  0  1  0  0  0  0  0  0
  186.8300  179.7960  136.4410 O   0  0  0  0  0  1  0  0  0  0  0  0
  189.7480  177.5260  136.3230 C   0  0  0  0  0  2  0  0  0  0  0  0
  187.6700  178.3400  138.1550 C   0  0  0  0  0  0  0  0  0  0  0  0
  190.9690  176.4640  138.3420 C   0  0  1  0  0  0  0  0  0  0  0  0
  189.0260  177.6350  140.0790 C   0  0  0  0  0  0  0  0  0  0  0  0
  186.6800  178.1900  140.3710 C   0  0  0  0  0  3  0  0  0  0  0  0
  188.8640  178.6940  135.9370 C   0  0  0  0  0  2  0  0  0  0  0  0
  191.4250  176.8930  139.7320 C   0  0  0  0  0  2  0  0  0  0  0  0
  190.2860  177.1630  140.6230 N   0  0  0  0  0  0  0  0  0  0  0  0
  190.0990  177.6280  137.8080 C   0  0  2  0  0  3  0  0  0  0  0  0
  187.9020  177.7880  140.9000 C   0  0  0  0  0  3  0  0  0  0  0  0
  189.4940  176.9610  144.2980 C   0  0  0  0  0  0  0  0  0  0  0  0
  190.6420  177.6430  144.8030 N   0  0  0  0  0  2  0  0  0  0  0  0
  190.5240  177.0750  142.0420 C   0  0  0  0  0  0  0  0  0  0  0  0
  191.8880  177.6050  144.0450 C   0  0  0  0  0  2  0  0  0  0  0  0
  189.5470  176.3410  142.9350 C   0  0  0  0  0  2  0  0  0  0  0  0
  191.6000  177.6790  142.5730 C   0  0  0  0  0  3  0  0  0  0  0  0
  188.4500  176.8740  144.9950 O   0  0  0  0  0  0  0  0  0  0  0  0
  184.2730  179.4130  139.2590 C   0  0  0  0  0  1  0  0  0  0  0  0
  185.3090  178.8420  138.4720 O   0  0  0  0  0  0  0  0  0  0  0  0
  190.2580  175.2420  138.4940 O   0  0  0  0  0  0  0  0  0  0  0  0
  190.4130  174.4260  137.3620 C   0  0  0  0  0  2  0  0  0  0  0  0
  189.1910  173.5390  137.2160 C   0  0  0  0  0  2  0  0  0  0  0  0
  185.5480  174.6000  137.2570 C   0  0  0  0  0  2  0  0  0  0  0  0
  188.0190  174.3400  136.6840 C   0  0  0  0  0  3  0  0  0  0  0  0
  186.7180  173.6340  137.0490 C   0  0  0  0  0  2  0  0  0  0  0  0
  185.7970  175.3490  134.8330 C   0  0  0  0  0  2  0  0  0  0  0  0
  187.2870  175.5410  134.5790 C   0  0  0  0  0  2  0  0  0  0  0  0
  188.1260  174.4100  135.1650 C   0  0  0  0  0  2  0  0  0  0  0  0
  185.4660  175.7600  136.2600 C   0  0  0  0  0  2  0  0  0  0  0  0
  1 10  1  0  0  0  0
  2  5  1  1  0  0  0
  2  7  1  0  0  0  0
  3  9  2  0  0  0  0
  7  3  1  0  0  0  0
  7  1  2  0  0  0  0
  8  4  1  6  0  0  0
  8 25  1  0  0  0  0
  8 12  1  0  0  0  0
  9 13  1  0  0  0  0
  9 15  1  0  0  0  0
 10 15  2  0  0  0  0
 11  6  1  0  0  0  0
 11  2  1  0  0  0  0
 12 13  1  0  0  0  0
 13 18  1  0  0  0  0
 14  6  1  6  0  0  0
 14  8  1  0  0  0  0
 14  3  1  0  0  0  0
 16 17  1  0  0  0  0
 16 22  2  0  0  0  0
 18 21  2  0  0  0  0
 18 20  1  0  0  0  0
 19 17  1  0  0  0  0
 20 16  1  0  0  0  0
 21 19  1  0  0  0  0
 24  1  1  0  0  0  0
 24 23  1  0  0  0  0
 26 25  1  0  0  0  0
 27 26  1  0  0  0  0
 29 30  1  0  0  0  0
 29 27  1  0  0  0  0
 30 28  1  0  0  0  0
 31 34  1  0  0  0  0
 32 31  1  0  0  0  0
 32 33  1  0  0  0  0
 33 29  1  0  0  0  0
 34 28  1  0  0  0  0
M  END
>  <MODEL>
7

>  <REMARK>
 VINA RESULT:      -7.1      2.681      7.076
  Name = 
  6 active torsions:
  status: ('A' for Active; 'I' for Inactive)
    1  A    between atoms: C_1  and  O_19
    2  A    between atoms: C_3  and  C_13
    3  A    between atoms: C_3  and  C_17
    4  A    between atoms: C_12  and  N_28
    5  A    between atoms: C_17  and  O_29
    6  A    between atoms: C_18  and  O_29
                            x       y       z     vdW  Elec       q    Type
                         _______ _______ _______ _____ _____    ______ ____

>  <TORSDO>
F 6

$$$$
=
 OpenBabel10262423473D

 34 38  0  0  1  0  0  0  0  0999 V2000
  189.6580  177.3270  139.8230 C   0  0  0  0  0  0  0  0  0  0  0  0
  187.4900  177.4940  138.5130 C   0  0  2  0  0  3  0  0  0  0  0  0
  189.5970  176.3990  137.5670 C   0  0  0  0  0  0  0  0  0  0  0  0
  188.7090  174.4210  134.3470 C   0  0  0  0  0  1  0  0  0  0  0  0
  187.2920  178.7890  138.9940 O   0  0  0  0  0  1  0  0  0  0  0  0
  187.3380  176.1130  136.4410 C   0  0  0  0  0  2  0  0  0  0  0  0
  188.9550  177.0980  138.6210 C   0  0  0  0  0  0  0  0  0  0  0  0
  189.3880  174.7290  135.6810 C   0  0  1  0  0  0  0  0  0  0  0  0
  190.9630  176.0520  137.6660 C   0  0  0  0  0  0  0  0  0  0  0  0
  191.0000  176.9370  139.9260 C   0  0  0  0  0  3  0  0  0  0  0  0
  186.9530  177.4290  137.0870 C   0  0  0  0  0  2  0  0  0  0  0  0
  190.8600  174.9790  135.3710 C   0  0  0  0  0  2  0  0  0  0  0  0
  191.6180  175.3540  136.5750 N   0  0  0  0  0  0  0  0  0  0  0  0
  188.8590  176.0500  136.2920 C   0  0  2  0  0  3  0  0  0  0  0  0
  191.6420  176.3140  138.8610 C   0  0  0  0  0  3  0  0  0  0  0  0
  195.0040  174.2710  137.8120 C   0  0  0  0  0  0  0  0  0  0  0  0
  195.8030  175.2310  137.1200 N   0  0  0  0  0  2  0  0  0  0  0  0
  193.0410  175.1250  136.5560 C   0  0  0  0  0  0  0  0  0  0  0  0
  195.3290  175.7760  135.8530 C   0  0  0  0  0  2  0  0  0  0  0  0
  193.6340  173.9480  137.2990 C   0  0  0  0  0  2  0  0  0  0  0  0
  193.8430  175.9830  135.9030 C   0  0  0  0  0  3  0  0  0  0  0  0
  195.4510  173.6950  138.8380 O   0  0  0  0  0  0  0  0  0  0  0  0
  189.1420  177.4660  142.2450 C   0  0  0  0  0  1  0  0  0  0  0  0
  189.0100  177.9310  140.9080 O   0  0  0  0  0  0  0  0  0  0  0  0
  189.3310  173.6230  136.5730 O   0  0  0  0  0  0  0  0  0  0  0  0
  188.6060  172.5620  136.0090 C   0  0  0  0  0  2  0  0  0  0  0  0
  187.5130  172.1380  136.9730 C   0  0  0  0  0  2  0  0  0  0  0  0
  184.3310  174.1480  137.4670 C   0  0  0  0  0  2  0  0  0  0  0  0
  186.1680  172.6620  136.5060 C   0  0  0  0  0  3  0  0  0  0  0  0
  185.3080  172.9960  137.7210 C   0  0  0  0  0  2  0  0  0  0  0  0
  183.2320  172.7510  135.6400 C   0  0  0  0  0  2  0  0  0  0  0  0
  184.3550  172.1260  134.8230 C   0  0  0  0  0  2  0  0  0  0  0  0
  185.4720  171.5710  135.7020 C   0  0  0  0  0  2  0  0  0  0  0  0
  183.6460  174.1430  136.0970 C   0  0  0  0  0  2  0  0  0  0  0  0
  1 10  1  0  0  0  0
  1 24  1  0  0  0  0
  2  7  1  0  0  0  0
  2  5  1  6  0  0  0
  3  9  2  0  0  0  0
  3  7  1  0  0  0  0
  6 11  1  0  0  0  0
  7  1  2  0  0  0  0
  8  4  1  6  0  0  0
  8 14  1  0  0  0  0
  8 25  1  0  0  0  0
  9 15  1  0  0  0  0
 11  2  1  0  0  0  0
 12  8  1  0  0  0  0
 12 13  1  0  0  0  0
 13  9  1  0  0  0  0
 14  6  1  1  0  0  0
 14  3  1  0  0  0  0
 15 10  2  0  0  0  0
 16 22  2  0  0  0  0
 17 16  1  0  0  0  0
 18 13  1  0  0  0  0
 18 20  1  0  0  0  0
 19 21  1  0  0  0  0
 19 17  1  0  0  0  0
 20 16  1  0  0  0  0
 21 18  2  0  0  0  0
 24 23  1  0  0  0  0
 26 25  1  0  0  0  0
 26 27  1  0  0  0  0
 28 30  1  0  0  0  0
 29 27  1  0  0  0  0
 29 30  1  0  0  0  0
 31 34  1  0  0  0  0
 32 31  1  0  0  0  0
 32 33  1  0  0  0  0
 33 29  1  0  0  0  0
 34 28  1  0  0  0  0
M  END
>  <MODEL>
8

>  <REMARK>
 VINA RESULT:      -7.0      3.743      8.546
  Name = 
  6 active torsions:
  status: ('A' for Active; 'I' for Inactive)
    1  A    between atoms: C_1  and  O_19
    2  A    between atoms: C_3  and  C_13
    3  A    between atoms: C_3  and  C_17
    4  A    between atoms: C_12  and  N_28
    5  A    between atoms: C_17  and  O_29
    6  A    between atoms: C_18  and  O_29
                            x       y       z     vdW  Elec       q    Type
                         _______ _______ _______ _____ _____    ______ ____

>  <TORSDO>
F 6

$$$$
=
 OpenBabel10262423473D

 34 38  0  0  1  0  0  0  0  0999 V2000
  187.2350  178.4130  140.5300 C   0  0  0  0  0  0  0  0  0  0  0  0
  185.1170  178.5300  139.1350 C   0  0  2  0  0  3  0  0  0  0  0  0
  187.2810  177.4750  138.2770 C   0  0  0  0  0  0  0  0  0  0  0  0
  186.5610  175.4660  135.0340 C   0  0  0  0  0  1  0  0  0  0  0  0
  184.8740  179.8230  139.6020 O   0  0  0  0  0  1  0  0  0  0  0  0
  185.0750  177.1380  137.0650 C   0  0  0  0  0  2  0  0  0  0  0  0
  186.5840  178.1650  139.3020 C   0  0  0  0  0  0  0  0  0  0  0  0
  187.1810  175.7940  136.3930 C   0  0  1  0  0  0  0  0  0  0  0  0
  188.6490  177.1570  138.4310 C   0  0  0  0  0  0  0  0  0  0  0  0
  188.5800  178.0520  140.6870 C   0  0  0  0  0  3  0  0  0  0  0  0
  184.6380  178.4480  137.6890 C   0  0  0  0  0  2  0  0  0  0  0  0
  188.6580  176.0730  136.1390 C   0  0  0  0  0  2  0  0  0  0  0  0
  189.3610  176.4680  137.3700 N   0  0  0  0  0  0  0  0  0  0  0  0
  186.6010  177.1060  136.9770 C   0  0  2  0  0  3  0  0  0  0  0  0
  189.2760  177.4380  139.6500 C   0  0  0  0  0  3  0  0  0  0  0  0
  192.9040  176.7670  138.6040 C   0  0  0  0  0  0  0  0  0  0  0  0
  193.5770  176.6860  137.3470 N   0  0  0  0  0  2  0  0  0  0  0  0
  190.7870  176.2680  137.4070 C   0  0  0  0  0  0  0  0  0  0  0  0
  192.9590  175.9470  136.2510 C   0  0  0  0  0  2  0  0  0  0  0  0
  191.5160  176.2180  138.7320 C   0  0  0  0  0  2  0  0  0  0  0  0
  191.4730  176.1630  136.2560 C   0  0  0  0  0  3  0  0  0  0  0  0
  193.4760  177.2880  139.5970 O   0  0  0  0  0  0  0  0  0  0  0  0
  186.1030  178.2850  142.7310 C   0  0  0  0  0  1  0  0  0  0  0  0
  186.5330  179.0080  141.5850 O   0  0  0  0  0  0  0  0  0  0  0  0
  187.1110  174.6900  137.2870 O   0  0  0  0  0  0  0  0  0  0  0  0
  186.5010  173.5850  136.6730 C   0  0  0  0  0  2  0  0  0  0  0  0
  185.7450  172.7880  137.7210 C   0  0  0  0  0  2  0  0  0  0  0  0
  183.2170  170.6020  135.9240 C   0  0  0  0  0  2  0  0  0  0  0  0
  184.3430  172.4770  137.2350 C   0  0  0  0  0  3  0  0  0  0  0  0
  184.4220  171.5400  136.0340 C   0  0  0  0  0  2  0  0  0  0  0  0
  181.7080  172.6420  135.6820 C   0  0  0  0  0  2  0  0  0  0  0  0
  182.1600  173.6550  136.7280 C   0  0  0  0  0  2  0  0  0  0  0  0
  183.6800  173.7770  136.7970 C   0  0  0  0  0  2  0  0  0  0  0  0
  181.8570  171.2330  136.2390 C   0  0  0  0  0  2  0  0  0  0  0  0
  1 10  1  0  0  0  0
  1 24  1  0  0  0  0
  2  7  1  0  0  0  0
  2  5  1  6  0  0  0
  3  9  2  0  0  0  0
  3  7  1  0  0  0  0
  6 11  1  0  0  0  0
  7  1  2  0  0  0  0
  8  4  1  6  0  0  0
  8 14  1  0  0  0  0
  8 25  1  0  0  0  0
  9 15  1  0  0  0  0
 11  2  1  0  0  0  0
 12  8  1  0  0  0  0
 12 13  1  0  0  0  0
 13 18  1  0  0  0  0
 13  9  1  0  0  0  0
 14  6  1  1  0  0  0
 14  3  1  0  0  0  0
 15 10  2  0  0  0  0
 16 20  1  0  0  0  0
 16 22  2  0  0  0  0
 17 16  1  0  0  0  0
 18 20  1  0  0  0  0
 19 21  1  0  0  0  0
 19 17  1  0  0  0  0
 21 18  2  0  0  0  0
 24 23  1  0  0  0  0
 26 25  1  0  0  0  0
 26 27  1  0  0  0  0
 28 30  1  0  0  0  0
 28 34  1  0  0  0  0
 29 27  1  0  0  0  0
 30 29  1  0  0  0  0
 31 34  1  0  0  0  0
 31 32  1  0  0  0  0
 32 33  1  0  0  0  0
 33 29  1  0  0  0  0
M  END
>  <MODEL>
9

>  <REMARK>
 VINA RESULT:      -6.9      3.811      8.334
  Name = 
  6 active torsions:
  status: ('A' for Active; 'I' for Inactive)
    1  A    between atoms: C_1  and  O_19
    2  A    between atoms: C_3  and  C_13
    3  A    between atoms: C_3  and  C_17
    4  A    between atoms: C_12  and  N_28
    5  A    between atoms: C_17  and  O_29
    6  A    between atoms: C_18  and  O_29
                            x       y       z     vdW  Elec       q    Type
                         _______ _______ _______ _____ _____    ______ ____

>  <TORSDO>
F 6

$$$$
