=
 OpenBabel10272413243D

 32 35  0  0  1  0  0  0  0  0999 V2000
  187.8110  177.8780  143.1270 C   0  0  0  0  0  0  0  0  0  0  0  0
  183.1510  179.3580  143.6310 C   0  0  0  0  0  3  0  0  0  0  0  0
  183.1730  178.9870  144.9770 C   0  0  0  0  0  3  0  0  0  0  0  0
  188.9310  177.9630  140.9590 C   0  0  0  0  0  0  0  0  0  0  0  0
  186.5840  178.5380  141.1390 C   0  0  0  0  0  3  0  0  0  0  0  0
  187.6740  178.6030  138.9950 O   0  0  0  0  0  1  0  0  0  0  0  0
  184.2660  179.1270  142.8230 C   0  0  0  0  0  3  0  0  0  0  0  0
  186.6140  178.2980  142.5190 C   0  0  0  0  0  0  0  0  0  0  0  0
  185.4150  178.5200  143.3550 C   0  0  0  0  0  0  0  0  0  0  0  0
  186.6070  177.4270  145.3070 C   0  0  0  0  0  2  0  0  0  0  0  0
  187.7310  178.3650  140.3620 C   0  0  0  0  0  0  0  0  0  0  0  0
  184.3110  178.3790  145.5140 C   0  0  0  0  0  3  0  0  0  0  0  0
  185.4360  178.1540  144.7150 C   0  0  0  0  0  0  0  0  0  0  0  0
  188.9650  177.7220  142.3410 C   0  0  0  0  0  3  0  0  0  0  0  0
  187.8470  177.6380  144.5490 N   0  0  0  0  0  0  0  0  0  0  0  0
  189.1250  177.4510  145.2340 C   0  0  2  0  0  3  0  0  0  0  0  0
  189.9510  176.3650  144.5430 C   0  0  0  0  0  2  0  0  0  0  0  0
  189.8450  176.2620  147.4480 C   0  0  0  0  0  3  0  0  0  0  0  0
  191.1610  176.1770  147.2120 C   0  0  0  0  0  3  0  0  0  0  0  0
  191.8450  177.0000  146.1640 C   0  0  0  0  0  2  0  0  0  0  0  0
  191.4560  176.5690  144.7460 C   0  0  0  0  0  2  0  0  0  0  0  0
  188.8880  177.2010  146.7400 C   0  0  1  0  0  3  0  0  0  0  0  0
  188.7260  178.5120  147.4980 C   0  0  0  0  0  2  0  0  0  0  0  0
  188.0960  178.3010  148.7260 O   0  0  0  0  0  1  0  0  0  0  0  0
  190.0710  177.8100  140.1610 O   0  0  0  0  0  0  0  0  0  0  0  0
  190.6380  176.5440  139.8360 C   0  0  0  0  0  2  0  0  0  0  0  0
  193.0550  176.6090  137.9050 C   0  0  0  0  0  0  0  0  0  0  0  0
  189.4370  175.9850  137.8580 O   0  0  0  0  0  0  0  0  0  0  0  0
  191.7100  176.3030  137.5190 N   0  0  0  0  0  2  0  0  0  0  0  0
  193.3750  177.0170  139.2320 N   0  0  0  0  0  1  0  0  0  0  0  0
  193.9740  176.5210  137.0510 O   0  0  0  0  0  0  0  0  0  0  0  0
  190.5520  176.2840  138.3630 C   0  0  0  0  0  0  0  0  0  0  0  0
  1 15  1  0  0  0  0
  2  3  1  0  0  0  0
  3 12  2  0  0  0  0
  4 14  1  0  0  0  0
  5  8  2  0  0  0  0
  6 11  1  0  0  0  0
  7  9  1  0  0  0  0
  7  2  2  0  0  0  0
  8  1  1  0  0  0  0
  8  9  1  0  0  0  0
  9 13  2  0  0  0  0
 11  4  2  0  0  0  0
 11  5  1  0  0  0  0
 13 10  1  0  0  0  0
 13 12  1  0  0  0  0
 14  1  2  0  0  0  0
 15 16  1  0  0  0  0
 15 10  1  0  0  0  0
 16 17  1  6  0  0  0
 16 22  1  0  0  0  0
 17 21  1  0  0  0  0
 19 18  2  0  0  0  0
 20 19  1  0  0  0  0
 21 20  1  0  0  0  0
 22 18  1  0  0  0  0
 22 23  1  1  0  0  0
 23 24  1  0  0  0  0
 25  4  1  0  0  0  0
 26 25  1  0  0  0  0
 27 30  1  0  0  0  0
 28 32  2  0  0  0  0
 29 27  1  0  0  0  0
 29 32  1  0  0  0  0
 31 27  2  0  0  0  0
 32 26  1  0  0  0  0
M  END
>  <MODEL>
1

>  <REMARK>
 VINA RESULT:     -10.2      0.000      0.000
  Name = 
  5 active torsions:
  status: ('A' for Active; 'I' for Inactive)
    1  A    between atoms: C_6  and  N_31
    2  A    between atoms: C_8  and  O_23
    3  A    between atoms: C_19  and  O_23
    4  A    between atoms: C_19  and  C_24
    5  A    between atoms: C_27  and  C_32
                            x       y       z     vdW  Elec       q    Type
                         _______ _______ _______ _____ _____    ______ ____

>  <TORSDO>
F 5

$$$$
=
 OpenBabel10272413243D

 32 35  0  0  1  0  0  0  0  0999 V2000
  186.8350  178.2280  142.0120 C   0  0  0  0  0  0  0  0  0  0  0  0
  184.2200  178.7640  146.1410 C   0  0  0  0  0  3  0  0  0  0  0  0
  185.2810  178.2450  146.8860 C   0  0  0  0  0  3  0  0  0  0  0  0
  185.8740  178.7730  139.8350 C   0  0  0  0  0  0  0  0  0  0  0  0
  184.5040  178.8850  141.8310 C   0  0  0  0  0  3  0  0  0  0  0  0
  183.5430  179.4010  139.6870 O   0  0  0  0  0  1  0  0  0  0  0  0
  184.3130  178.8370  144.7500 C   0  0  0  0  0  3  0  0  0  0  0  0
  185.5940  178.4930  142.6200 C   0  0  0  0  0  0  0  0  0  0  0  0
  185.4700  178.3910  144.0900 C   0  0  0  0  0  0  0  0  0  0  0  0
  187.7600  177.3100  144.1820 C   0  0  0  0  0  2  0  0  0  0  0  0
  184.6400  179.0170  140.4480 C   0  0  0  0  0  0  0  0  0  0  0  0
  186.4350  177.7960  146.2380 C   0  0  0  0  0  3  0  0  0  0  0  0
  186.5400  177.8770  144.8460 C   0  0  0  0  0  0  0  0  0  0  0  0
  186.9670  178.3790  140.6230 C   0  0  0  0  0  3  0  0  0  0  0  0
  187.9600  177.8320  142.8240 N   0  0  0  0  0  0  0  0  0  0  0  0
  189.3060  177.8010  142.2540 C   0  0  2  0  0  3  0  0  0  0  0  0
  189.4490  176.6350  141.2740 C   0  0  0  0  0  2  0  0  0  0  0  0
  191.6400  177.0330  143.1450 C   0  0  0  0  0  3  0  0  0  0  0  0
  192.2840  176.9440  141.9720 C   0  0  0  0  0  3  0  0  0  0  0  0
  191.7710  177.5920  140.7230 C   0  0  0  0  0  2  0  0  0  0  0  0
  190.5030  176.9120  140.1980 C   0  0  0  0  0  2  0  0  0  0  0  0
  190.3600  177.8090  143.3830 C   0  0  1  0  0  3  0  0  0  0  0  0
  190.6450  179.2260  143.8620 C   0  0  0  0  0  2  0  0  0  0  0  0
  191.9780  179.3580  144.2580 O   0  0  0  0  0  1  0  0  0  0  0  0
  185.9880  178.9260  138.4480 O   0  0  0  0  0  0  0  0  0  0  0  0
  186.5970  177.9580  137.5990 C   0  0  0  0  0  2  0  0  0  0  0  0
  188.8540  175.9800  136.8470 C   0  0  0  0  0  0  0  0  0  0  0  0
  188.2880  179.5880  137.2140 O   0  0  0  0  0  0  0  0  0  0  0  0
  188.9960  177.4050  136.8810 N   0  0  0  0  0  2  0  0  0  0  0  0
  187.6530  175.3400  137.2670 N   0  0  0  0  0  1  0  0  0  0  0  0
  189.8160  175.2770  136.4430 O   0  0  0  0  0  0  0  0  0  0  0  0
  187.9950  178.3640  137.2460 C   0  0  0  0  0  0  0  0  0  0  0  0
  1  8  1  0  0  0  0
  1 15  1  0  0  0  0
  2  3  1  0  0  0  0
  4 11  2  0  0  0  0
  4 14  1  0  0  0  0
  5  8  2  0  0  0  0
  6 11  1  0  0  0  0
  7  2  2  0  0  0  0
  8  9  1  0  0  0  0
  9  7  1  0  0  0  0
  9 13  2  0  0  0  0
 10 13  1  0  0  0  0
 11  5  1  0  0  0  0
 12  3  2  0  0  0  0
 13 12  1  0  0  0  0
 14  1  2  0  0  0  0
 15 10  1  0  0  0  0
 16 17  1  1  0  0  0
 16 15  1  0  0  0  0
 16 22  1  0  0  0  0
 18 22  1  0  0  0  0
 19 18  2  0  0  0  0
 20 19  1  0  0  0  0
 21 20  1  0  0  0  0
 21 17  1  0  0  0  0
 22 23  1  6  0  0  0
 23 24  1  0  0  0  0
 25  4  1  0  0  0  0
 26 25  1  0  0  0  0
 27 29  1  0  0  0  0
 27 30  1  0  0  0  0
 28 32  2  0  0  0  0
 29 32  1  0  0  0  0
 31 27  2  0  0  0  0
 32 26  1  0  0  0  0
M  END
>  <MODEL>
2

>  <REMARK>
 VINA RESULT:      -9.9      2.533      3.694
  Name = 
  5 active torsions:
  status: ('A' for Active; 'I' for Inactive)
    1  A    between atoms: C_6  and  N_31
    2  A    between atoms: C_8  and  O_23
    3  A    between atoms: C_19  and  O_23
    4  A    between atoms: C_19  and  C_24
    5  A    between atoms: C_27  and  C_32
                            x       y       z     vdW  Elec       q    Type
                         _______ _______ _______ _____ _____    ______ ____

>  <TORSDO>
F 5

$$$$
=
 OpenBabel10272413243D

 32 35  0  0  1  0  0  0  0  0999 V2000
  188.7590  177.8610  141.5780 C   0  0  0  0  0  0  0  0  0  0  0  0
  190.7760  176.7720  137.2290 C   0  0  0  0  0  3  0  0  0  0  0  0
  191.9880  176.4790  137.8600 C   0  0  0  0  0  3  0  0  0  0  0  0
  186.4620  178.6750  141.7310 C   0  0  0  0  0  0  0  0  0  0  0  0
  187.4820  178.3120  139.5630 C   0  0  0  0  0  3  0  0  0  0  0  0
  185.2260  179.1360  139.7050 O   0  0  0  0  0  1  0  0  0  0  0  0
  189.6950  177.2410  137.9780 C   0  0  0  0  0  3  0  0  0  0  0  0
  188.6690  177.8850  140.1750 C   0  0  0  0  0  0  0  0  0  0  0  0
  189.8150  177.4200  139.3660 C   0  0  0  0  0  0  0  0  0  0  0  0
  191.2400  177.3710  141.4610 C   0  0  0  0  0  2  0  0  0  0  0  0
  186.3890  178.7110  140.3340 C   0  0  0  0  0  0  0  0  0  0  0  0
  192.1190  176.6570  139.2390 C   0  0  0  0  0  3  0  0  0  0  0  0
  191.0360  177.1150  139.9970 C   0  0  0  0  0  0  0  0  0  0  0  0
  187.6500  178.2490  142.3470 C   0  0  0  0  0  3  0  0  0  0  0  0
  189.9770  177.4140  142.2100 N   0  0  0  0  0  0  0  0  0  0  0  0
  190.0060  177.1400  143.6460 C   0  0  2  0  0  3  0  0  0  0  0  0
  189.7290  178.4170  144.4420 C   0  0  0  0  0  2  0  0  0  0  0  0
  191.9180  176.7490  145.3840 C   0  0  0  0  0  3  0  0  0  0  0  0
  191.2140  176.9490  146.5070 C   0  0  0  0  0  3  0  0  0  0  0  0
  189.7170  176.9180  146.5330 C   0  0  0  0  0  2  0  0  0  0  0  0
  189.1020  178.1200  145.8080 C   0  0  0  0  0  2  0  0  0  0  0  0
  191.3260  176.4340  144.0250 C   0  0  1  0  0  3  0  0  0  0  0  0
  191.2370  174.9330  143.7870 C   0  0  0  0  0  2  0  0  0  0  0  0
  192.3100  174.2700  144.3870 O   0  0  0  0  0  1  0  0  0  0  0  0
  185.3480  179.0680  142.4830 O   0  0  0  0  0  0  0  0  0  0  0  0
  184.4140  178.1490  143.0420 C   0  0  0  0  0  2  0  0  0  0  0  0
  184.9590  178.5640  146.0590 C   0  0  0  0  0  0  0  0  0  0  0  0
  182.4090  179.3330  143.5330 O   0  0  0  0  0  0  0  0  0  0  0  0
  183.7950  179.0320  145.3680 N   0  0  0  0  0  2  0  0  0  0  0  0
  185.9390  177.7610  145.4090 N   0  0  0  0  0  1  0  0  0  0  0  0
  185.1170  178.8660  147.2700 O   0  0  0  0  0  0  0  0  0  0  0  0
  183.4800  178.8450  143.9830 C   0  0  0  0  0  0  0  0  0  0  0  0
  1 15  1  0  0  0  0
  1 14  1  0  0  0  0
  2  3  2  0  0  0  0
  2  7  1  0  0  0  0
  3 12  1  0  0  0  0
  4 14  2  0  0  0  0
  4 25  1  0  0  0  0
  5  8  1  0  0  0  0
  5 11  2  0  0  0  0
  6 11  1  0  0  0  0
  7  9  2  0  0  0  0
  8  1  2  0  0  0  0
  9 13  1  0  0  0  0
  9  8  1  0  0  0  0
 10 15  1  0  0  0  0
 11  4  1  0  0  0  0
 12 13  2  0  0  0  0
 13 10  1  0  0  0  0
 16 15  1  6  0  0  0
 16 22  1  0  0  0  0
 16 17  1  0  0  0  0
 17 21  1  0  0  0  0
 18 19  2  0  0  0  0
 19 20  1  0  0  0  0
 21 20  1  0  0  0  0
 22 23  1  1  0  0  0
 22 18  1  0  0  0  0
 23 24  1  0  0  0  0
 25 26  1  0  0  0  0
 26 32  1  0  0  0  0
 27 31  2  0  0  0  0
 28 32  2  0  0  0  0
 29 27  1  0  0  0  0
 30 27  1  0  0  0  0
 32 29  1  0  0  0  0
M  END
>  <MODEL>
3

>  <REMARK>
 VINA RESULT:      -9.6      2.594      6.880
  Name = 
  5 active torsions:
  status: ('A' for Active; 'I' for Inactive)
    1  A    between atoms: C_6  and  N_31
    2  A    between atoms: C_8  and  O_23
    3  A    between atoms: C_19  and  O_23
    4  A    between atoms: C_19  and  C_24
    5  A    between atoms: C_27  and  C_32
                            x       y       z     vdW  Elec       q    Type
                         _______ _______ _______ _____ _____    ______ ____

>  <TORSDO>
F 5

$$$$
=
 OpenBabel10272413243D

 32 35  0  0  1  0  0  0  0  0999 V2000
  188.0250  177.6690  143.1540 C   0  0  0  0  0  0  0  0  0  0  0  0
  190.3050  177.0170  147.4600 C   0  0  0  0  0  3  0  0  0  0  0  0
  191.4480  176.5710  146.7930 C   0  0  0  0  0  3  0  0  0  0  0  0
  185.6990  178.4060  143.0600 C   0  0  0  0  0  0  0  0  0  0  0  0
  186.7390  177.9300  145.1970 C   0  0  0  0  0  3  0  0  0  0  0  0
  184.4410  178.6340  145.1130 O   0  0  0  0  0  1  0  0  0  0  0  0
  189.1570  177.3450  146.7360 C   0  0  0  0  0  3  0  0  0  0  0  0
  187.9430  177.6030  144.5570 C   0  0  0  0  0  0  0  0  0  0  0  0
  189.1410  177.2290  145.3370 C   0  0  0  0  0  0  0  0  0  0  0  0
  190.3030  176.5640  143.1850 C   0  0  0  0  0  2  0  0  0  0  0  0
  185.6230  178.3210  144.4550 C   0  0  0  0  0  0  0  0  0  0  0  0
  191.4410  176.4490  145.4010 C   0  0  0  0  0  3  0  0  0  0  0  0
  190.2980  176.7860  144.6690 C   0  0  0  0  0  0  0  0  0  0  0  0
  186.9030  178.0790  142.4160 C   0  0  0  0  0  3  0  0  0  0  0  0
  189.2650  177.3400  142.4940 N   0  0  0  0  0  0  0  0  0  0  0  0
  189.4480  177.6440  141.0750 C   0  0  2  0  0  3  0  0  0  0  0  0
  188.1610  177.3680  140.2950 C   0  0  0  0  0  2  0  0  0  0  0  0
  190.6340  176.4220  139.0920 C   0  0  0  0  0  3  0  0  0  0  0  0
  190.0630  177.0850  138.0770 C   0  0  0  0  0  3  0  0  0  0  0  0
  189.3610  178.3940  138.2650 C   0  0  0  0  0  2  0  0  0  0  0  0
  188.0490  178.2400  139.0400 C   0  0  0  0  0  2  0  0  0  0  0  0
  190.6870  176.9010  140.5290 C   0  0  1  0  0  3  0  0  0  0  0  0
  191.9660  177.6780  140.8140 C   0  0  0  0  0  2  0  0  0  0  0  0
  192.9890  177.2860  139.9480 O   0  0  0  0  0  1  0  0  0  0  0  0
  184.5700  178.8140  142.3400 O   0  0  0  0  0  0  0  0  0  0  0  0
  183.9950  178.0520  141.2830 C   0  0  0  0  0  2  0  0  0  0  0  0
  182.8830  177.0150  138.5890 C   0  0  0  0  0  0  0  0  0  0  0  0
  184.8860  179.7880  139.9200 O   0  0  0  0  0  0  0  0  0  0  0  0
  183.6640  178.2050  138.7450 N   0  0  0  0  0  2  0  0  0  0  0  0
  182.6350  176.1370  139.6820 N   0  0  0  0  0  1  0  0  0  0  0  0
  182.4100  176.7360  137.4570 O   0  0  0  0  0  0  0  0  0  0  0  0
  184.2260  178.7160  139.9610 C   0  0  0  0  0  0  0  0  0  0  0  0
  1  8  1  0  0  0  0
  3  2  1  0  0  0  0
  4 11  2  0  0  0  0
  7  2  2  0  0  0  0
  8  5  2  0  0  0  0
  8  9  1  0  0  0  0
  9  7  1  0  0  0  0
 10 13  1  0  0  0  0
 11  6  1  0  0  0  0
 11  5  1  0  0  0  0
 12  3  2  0  0  0  0
 13  9  2  0  0  0  0
 13 12  1  0  0  0  0
 14  4  1  0  0  0  0
 14  1  2  0  0  0  0
 15  1  1  0  0  0  0
 15 10  1  0  0  0  0
 16 17  1  6  0  0  0
 16 15  1  0  0  0  0
 18 22  1  0  0  0  0
 19 20  1  0  0  0  0
 19 18  2  0  0  0  0
 20 21  1  0  0  0  0
 21 17  1  0  0  0  0
 22 23  1  6  0  0  0
 22 16  1  0  0  0  0
 24 23  1  0  0  0  0
 25  4  1  0  0  0  0
 26 25  1  0  0  0  0
 27 29  1  0  0  0  0
 27 30  1  0  0  0  0
 28 32  2  0  0  0  0
 29 32  1  0  0  0  0
 31 27  2  0  0  0  0
 32 26  1  0  0  0  0
M  END
>  <MODEL>
4

>  <REMARK>
 VINA RESULT:      -9.6      2.884      6.932
  Name = 
  5 active torsions:
  status: ('A' for Active; 'I' for Inactive)
    1  A    between atoms: C_6  and  N_31
    2  A    between atoms: C_8  and  O_23
    3  A    between atoms: C_19  and  O_23
    4  A    between atoms: C_19  and  C_24
    5  A    between atoms: C_27  and  C_32
                            x       y       z     vdW  Elec       q    Type
                         _______ _______ _______ _____ _____    ______ ____

>  <TORSDO>
F 5

$$$$
=
 OpenBabel10272413243D

 32 35  0  0  1  0  0  0  0  0999 V2000
  187.2200  177.8920  143.9830 C   0  0  0  0  0  0  0  0  0  0  0  0
  187.4990  178.2740  148.8760 C   0  0  0  0  0  3  0  0  0  0  0  0
  188.8380  177.8810  148.8350 C   0  0  0  0  0  3  0  0  0  0  0  0
  185.1160  178.2840  142.8080 C   0  0  0  0  0  0  0  0  0  0  0  0
  185.1790  178.3120  145.2300 C   0  0  0  0  0  3  0  0  0  0  0  0
  183.0980  178.6760  144.0820 O   0  0  0  0  0  1  0  0  0  0  0  0
  186.7480  178.3200  147.6990 C   0  0  0  0  0  3  0  0  0  0  0  0
  186.5560  178.0490  145.2130 C   0  0  0  0  0  0  0  0  0  0  0  0
  187.3300  177.9730  146.4700 C   0  0  0  0  0  0  0  0  0  0  0  0
  189.3260  177.1250  145.1580 C   0  0  0  0  0  2  0  0  0  0  0  0
  184.4620  178.4210  144.0380 C   0  0  0  0  0  0  0  0  0  0  0  0
  189.4270  177.5310  147.6160 C   0  0  0  0  0  3  0  0  0  0  0  0
  188.6840  177.5860  146.4330 C   0  0  0  0  0  0  0  0  0  0  0  0
  186.4940  178.0200  142.7870 C   0  0  0  0  0  3  0  0  0  0  0  0
  188.6380  177.6290  143.9620 N   0  0  0  0  0  0  0  0  0  0  0  0
  189.3870  177.7170  142.7090 C   0  0  2  0  0  3  0  0  0  0  0  0
  189.0720  176.5190  141.8110 C   0  0  0  0  0  2  0  0  0  0  0  0
  191.8740  177.2650  142.0420 C   0  0  0  0  0  3  0  0  0  0  0  0
  191.7130  177.1820  140.7140 C   0  0  0  0  0  3  0  0  0  0  0  0
  190.4910  177.6960  140.0170 C   0  0  0  0  0  2  0  0  0  0  0  0
  189.2520  176.8500  140.3250 C   0  0  0  0  0  2  0  0  0  0  0  0
  190.8920  177.9060  143.0030 C   0  0  1  0  0  3  0  0  0  0  0  0
  191.2250  179.3710  143.2500 C   0  0  0  0  0  2  0  0  0  0  0  0
  192.0380  179.5130  144.3770 O   0  0  0  0  0  1  0  0  0  0  0  0
  184.3770  178.4110  141.6260 O   0  0  0  0  0  0  0  0  0  0  0  0
  184.8520  179.0990  140.4720 C   0  0  0  0  0  2  0  0  0  0  0  0
  185.8460  178.1190  137.7110 C   0  0  0  0  0  0  0  0  0  0  0  0
  182.7190  178.9970  139.4220 O   0  0  0  0  0  0  0  0  0  0  0  0
  184.4750  178.3640  138.0450 N   0  0  0  0  0  2  0  0  0  0  0  0
  186.8990  178.4120  138.6240 N   0  0  0  0  0  1  0  0  0  0  0  0
  186.1270  177.6390  136.5830 O   0  0  0  0  0  0  0  0  0  0  0  0
  183.9630  178.8430  139.2950 C   0  0  0  0  0  0  0  0  0  0  0  0
  1  8  1  0  0  0  0
  3  2  1  0  0  0  0
  4 11  2  0  0  0  0
  7  2  2  0  0  0  0
  8  5  2  0  0  0  0
  8  9  1  0  0  0  0
  9  7  1  0  0  0  0
 10 13  1  0  0  0  0
 11  6  1  0  0  0  0
 11  5  1  0  0  0  0
 12  3  2  0  0  0  0
 13  9  2  0  0  0  0
 13 12  1  0  0  0  0
 14  4  1  0  0  0  0
 14  1  2  0  0  0  0
 15  1  1  0  0  0  0
 15 10  1  0  0  0  0
 16 17  1  1  0  0  0
 16 22  1  0  0  0  0
 16 15  1  0  0  0  0
 18 22  1  0  0  0  0
 19 18  2  0  0  0  0
 20 21  1  0  0  0  0
 20 19  1  0  0  0  0
 21 17  1  0  0  0  0
 22 23  1  6  0  0  0
 23 24  1  0  0  0  0
 25  4  1  0  0  0  0
 26 25  1  0  0  0  0
 27 29  1  0  0  0  0
 27 30  1  0  0  0  0
 29 32  1  0  0  0  0
 31 27  2  0  0  0  0
 32 28  2  0  0  0  0
 32 26  1  0  0  0  0
M  END
>  <MODEL>
5

>  <REMARK>
 VINA RESULT:      -9.6      2.961      5.461
  Name = 
  5 active torsions:
  status: ('A' for Active; 'I' for Inactive)
    1  A    between atoms: C_6  and  N_31
    2  A    between atoms: C_8  and  O_23
    3  A    between atoms: C_19  and  O_23
    4  A    between atoms: C_19  and  C_24
    5  A    between atoms: C_27  and  C_32
                            x       y       z     vdW  Elec       q    Type
                         _______ _______ _______ _____ _____    ______ ____

>  <TORSDO>
F 5

$$$$
=
 OpenBabel10272413243D

 32 35  0  0  1  0  0  0  0  0999 V2000
  186.7890  178.0530  143.6630 C   0  0  0  0  0  0  0  0  0  0  0  0
  187.8570  177.9670  148.4610 C   0  0  0  0  0  3  0  0  0  0  0  0
  189.1530  177.5380  148.1690 C   0  0  0  0  0  3  0  0  0  0  0  0
  184.5450  178.6200  142.8830 C   0  0  0  0  0  0  0  0  0  0  0  0
  184.9930  178.4200  145.2560 C   0  0  0  0  0  3  0  0  0  0  0  0
  182.7750  178.9560  144.4970 O   0  0  0  0  0  1  0  0  0  0  0  0
  186.9320  178.1470  147.4300 C   0  0  0  0  0  3  0  0  0  0  0  0
  186.3360  178.1150  144.9940 C   0  0  0  0  0  0  0  0  0  0  0  0
  187.2960  177.8980  146.0970 C   0  0  0  0  0  0  0  0  0  0  0  0
  189.0170  177.1130  144.4100 C   0  0  0  0  0  2  0  0  0  0  0  0
  184.1020  178.6630  144.2100 C   0  0  0  0  0  0  0  0  0  0  0  0
  189.5240  177.2840  146.8460 C   0  0  0  0  0  3  0  0  0  0  0  0
  188.6070  177.4730  145.8080 C   0  0  0  0  0  0  0  0  0  0  0  0
  185.8890  178.3150  142.6170 C   0  0  0  0  0  3  0  0  0  0  0  0
  188.1720  177.7480  143.3910 N   0  0  0  0  0  0  0  0  0  0  0  0
  188.7160  177.9280  142.0450 C   0  0  2  0  0  3  0  0  0  0  0  0
  187.6820  177.5310  140.9900 C   0  0  0  0  0  2  0  0  0  0  0  0
  190.3970  176.5780  140.5680 C   0  0  0  0  0  3  0  0  0  0  0  0
  190.1030  177.1220  139.3790 C   0  0  0  0  0  3  0  0  0  0  0  0
  189.3570  178.4140  139.2490 C   0  0  0  0  0  2  0  0  0  0  0  0
  187.8900  178.2790  139.6690 C   0  0  0  0  0  2  0  0  0  0  0  0
  190.0660  177.1880  141.9160 C   0  0  1  0  0  3  0  0  0  0  0  0
  191.2140  178.0380  142.4440 C   0  0  0  0  0  2  0  0  0  0  0  0
  191.9820  177.3200  143.3630 O   0  0  0  0  0  1  0  0  0  0  0  0
  183.6350  178.8810  141.8520 O   0  0  0  0  0  0  0  0  0  0  0  0
  183.4970  178.0570  140.6990 C   0  0  0  0  0  2  0  0  0  0  0  0
  183.4380  176.8670  137.8440 C   0  0  0  0  0  0  0  0  0  0  0  0
  184.5030  179.9110  139.5970 O   0  0  0  0  0  0  0  0  0  0  0  0
  183.9500  178.1620  138.1770 N   0  0  0  0  0  2  0  0  0  0  0  0
  182.9940  175.9600  138.8480 N   0  0  0  0  0  1  0  0  0  0  0  0
  183.3850  176.5200  136.6350 O   0  0  0  0  0  0  0  0  0  0  0  0
  184.0260  178.7510  139.4820 C   0  0  0  0  0  0  0  0  0  0  0  0
  1  8  1  0  0  0  0
  3  2  1  0  0  0  0
  4 11  2  0  0  0  0
  7  2  2  0  0  0  0
  8  5  2  0  0  0  0
  8  9  1  0  0  0  0
  9  7  1  0  0  0  0
 10 13  1  0  0  0  0
 11  6  1  0  0  0  0
 11  5  1  0  0  0  0
 12  3  2  0  0  0  0
 13  9  2  0  0  0  0
 13 12  1  0  0  0  0
 14  4  1  0  0  0  0
 14  1  2  0  0  0  0
 15  1  1  0  0  0  0
 15 10  1  0  0  0  0
 16 17  1  6  0  0  0
 16 15  1  0  0  0  0
 18 22  1  0  0  0  0
 19 18  2  0  0  0  0
 20 19  1  0  0  0  0
 20 21  1  0  0  0  0
 21 17  1  0  0  0  0
 22 16  1  0  0  0  0
 22 23  1  6  0  0  0
 23 24  1  0  0  0  0
 25  4  1  0  0  0  0
 26 25  1  0  0  0  0
 27 29  1  0  0  0  0
 27 30  1  0  0  0  0
 29 32  1  0  0  0  0
 31 27  2  0  0  0  0
 32 28  2  0  0  0  0
 32 26  1  0  0  0  0
M  END
>  <MODEL>
6

>  <REMARK>
 VINA RESULT:      -9.5      3.111      6.222
  Name = 
  5 active torsions:
  status: ('A' for Active; 'I' for Inactive)
    1  A    between atoms: C_6  and  N_31
    2  A    between atoms: C_8  and  O_23
    3  A    between atoms: C_19  and  O_23
    4  A    between atoms: C_19  and  C_24
    5  A    between atoms: C_27  and  C_32
                            x       y       z     vdW  Elec       q    Type
                         _______ _______ _______ _____ _____    ______ ____

>  <TORSDO>
F 5

$$$$
=
 OpenBabel10272413243D

 32 35  0  0  1  0  0  0  0  0999 V2000
  189.3790  177.6850  140.1970 C   0  0  0  0  0  0  0  0  0  0  0  0
  191.4100  175.8170  136.1280 C   0  0  0  0  0  3  0  0  0  0  0  0
  192.6380  175.7100  136.7850 C   0  0  0  0  0  3  0  0  0  0  0  0
  187.0490  178.4140  140.2190 C   0  0  0  0  0  0  0  0  0  0  0  0
  188.0670  177.6590  138.1540 C   0  0  0  0  0  3  0  0  0  0  0  0
  185.7780  178.3970  138.1610 O   0  0  0  0  0  1  0  0  0  0  0  0
  190.3140  176.3820  136.7840 C   0  0  0  0  0  3  0  0  0  0  0  0
  189.2760  177.4170  138.8190 C   0  0  0  0  0  0  0  0  0  0  0  0
  190.4370  176.8470  138.1030 C   0  0  0  0  0  0  0  0  0  0  0  0
  191.8780  177.2890  140.1410 C   0  0  0  0  0  2  0  0  0  0  0  0
  186.9630  178.1610  138.8450 C   0  0  0  0  0  0  0  0  0  0  0  0
  192.7710  176.1730  138.0970 C   0  0  0  0  0  3  0  0  0  0  0  0
  191.6750  176.7300  138.7630 C   0  0  0  0  0  0  0  0  0  0  0  0
  188.2590  178.1740  140.8880 C   0  0  0  0  0  3  0  0  0  0  0  0
  190.6200  177.4290  140.8850 N   0  0  0  0  0  0  0  0  0  0  0  0
  190.6730  177.4570  142.3470 C   0  0  2  0  0  3  0  0  0  0  0  0
  191.8140  178.3560  142.8270 C   0  0  0  0  0  2  0  0  0  0  0  0
  191.5330  175.7900  144.1670 C   0  0  0  0  0  3  0  0  0  0  0  0
  191.6050  176.6400  145.2000 C   0  0  0  0  0  3  0  0  0  0  0  0
  190.9080  177.9650  145.2020 C   0  0  0  0  0  2  0  0  0  0  0  0
  191.5360  178.9500  144.2110 C   0  0  0  0  0  2  0  0  0  0  0  0
  190.7280  176.0170  142.9030 C   0  0  1  0  0  3  0  0  0  0  0  0
  189.3330  175.4140  143.0100 C   0  0  0  0  0  2  0  0  0  0  0  0
  188.4540  176.3030  143.6320 O   0  0  0  0  0  1  0  0  0  0  0  0
  185.9240  178.9040  140.8920 O   0  0  0  0  0  0  0  0  0  0  0  0
  185.7500  178.8110  142.3030 C   0  0  0  0  0  2  0  0  0  0  0  0
  184.6610  178.7320  145.1980 C   0  0  0  0  0  0  0  0  0  0  0  0
  183.4390  178.7880  141.7370 O   0  0  0  0  0  0  0  0  0  0  0  0
  183.8460  178.7530  144.0200 N   0  0  0  0  0  2  0  0  0  0  0  0
  186.0800  178.6430  145.1210 N   0  0  0  0  0  1  0  0  0  0  0  0
  184.1090  178.7880  146.3270 O   0  0  0  0  0  0  0  0  0  0  0  0
  184.2960  178.7620  142.6590 C   0  0  0  0  0  0  0  0  0  0  0  0
  1 15  1  0  0  0  0
  1 14  1  0  0  0  0
  2  7  2  0  0  0  0
  2  3  1  0  0  0  0
  3 12  2  0  0  0  0
  4 14  2  0  0  0  0
  4 25  1  0  0  0  0
  5  8  1  0  0  0  0
  5 11  2  0  0  0  0
  6 11  1  0  0  0  0
  7  9  1  0  0  0  0
  8  1  2  0  0  0  0
  9 13  2  0  0  0  0
  9  8  1  0  0  0  0
 10 15  1  0  0  0  0
 11  4  1  0  0  0  0
 12 13  1  0  0  0  0
 13 10  1  0  0  0  0
 16 15  1  6  0  0  0
 16 17  1  0  0  0  0
 16 22  1  0  0  0  0
 17 21  1  0  0  0  0
 18 19  2  0  0  0  0
 19 20  1  0  0  0  0
 21 20  1  0  0  0  0
 22 23  1  1  0  0  0
 22 18  1  0  0  0  0
 23 24  1  0  0  0  0
 25 26  1  0  0  0  0
 26 32  1  0  0  0  0
 27 31  2  0  0  0  0
 28 32  2  0  0  0  0
 29 27  1  0  0  0  0
 30 27  1  0  0  0  0
 32 29  1  0  0  0  0
M  END
>  <MODEL>
7

>  <REMARK>
 VINA RESULT:      -9.5      2.673      7.082
  Name = 
  5 active torsions:
  status: ('A' for Active; 'I' for Inactive)
    1  A    between atoms: C_6  and  N_31
    2  A    between atoms: C_8  and  O_23
    3  A    between atoms: C_19  and  O_23
    4  A    between atoms: C_19  and  C_24
    5  A    between atoms: C_27  and  C_32
                            x       y       z     vdW  Elec       q    Type
                         _______ _______ _______ _____ _____    ______ ____

>  <TORSDO>
F 5

$$$$
=
 OpenBabel10272413243D

 32 35  0  0  1  0  0  0  0  0999 V2000
  188.7390  177.6470  143.0520 C   0  0  0  0  0  0  0  0  0  0  0  0
  191.9770  176.0650  146.3950 C   0  0  0  0  0  3  0  0  0  0  0  0
  191.0730  176.3600  147.4180 C   0  0  0  0  0  3  0  0  0  0  0  0
  189.3080  177.7030  140.6780 C   0  0  0  0  0  0  0  0  0  0  0  0
  190.9820  177.0810  142.3150 C   0  0  0  0  0  3  0  0  0  0  0  0
  191.5570  177.1550  139.9810 O   0  0  0  0  0  1  0  0  0  0  0  0
  191.6530  176.3600  145.0700 C   0  0  0  0  0  3  0  0  0  0  0  0
  190.0530  177.2430  143.3520 C   0  0  0  0  0  0  0  0  0  0  0  0
  190.4210  176.9540  144.7540 C   0  0  0  0  0  0  0  0  0  0  0  0
  188.2190  177.9540  145.5100 C   0  0  0  0  0  2  0  0  0  0  0  0
  190.6160  177.3160  140.9890 C   0  0  0  0  0  0  0  0  0  0  0  0
  189.8450  176.9550  147.1140 C   0  0  0  0  0  3  0  0  0  0  0  0
  189.5100  177.2430  145.7880 C   0  0  0  0  0  0  0  0  0  0  0  0
  188.3750  177.8670  141.7140 C   0  0  0  0  0  3  0  0  0  0  0  0
  187.7790  177.8070  144.1160 N   0  0  0  0  0  0  0  0  0  0  0  0
  186.3590  177.9750  143.8100 C   0  0  2  0  0  3  0  0  0  0  0  0
  186.1790  178.6370  142.4420 C   0  0  0  0  0  2  0  0  0  0  0  0
  184.5140  179.6500  144.6010 C   0  0  0  0  0  3  0  0  0  0  0  0
  183.6150  179.4310  143.6320 C   0  0  0  0  0  3  0  0  0  0  0  0
  183.6600  178.2200  142.7510 C   0  0  0  0  0  2  0  0  0  0  0  0
  184.8490  178.2520  141.7860 C   0  0  0  0  0  2  0  0  0  0  0  0
  185.6510  178.7160  144.9660 C   0  0  1  0  0  3  0  0  0  0  0  0
  185.2500  177.7510  146.0750 C   0  0  0  0  0  2  0  0  0  0  0  0
  184.5960  178.4260  147.1070 O   0  0  0  0  0  1  0  0  0  0  0  0
  188.9610  177.9200  139.3390 O   0  0  0  0  0  0  0  0  0  0  0  0
  187.9820  177.1520  138.6470 C   0  0  0  0  0  2  0  0  0  0  0  0
  187.9810  177.5820  135.5830 C   0  0  0  0  0  0  0  0  0  0  0  0
  186.1270  178.6410  138.5690 O   0  0  0  0  0  0  0  0  0  0  0  0
  187.0530  178.1850  136.4920 N   0  0  0  0  0  2  0  0  0  0  0  0
  189.0720  176.7920  136.0460 N   0  0  0  0  0  1  0  0  0  0  0  0
  187.8330  177.7600  134.3460 O   0  0  0  0  0  0  0  0  0  0  0  0
  187.0240  178.0420  137.9180 C   0  0  0  0  0  0  0  0  0  0  0  0
  1  8  1  0  0  0  0
  1 15  1  0  0  0  0
  2  3  1  0  0  0  0
  4 11  2  0  0  0  0
  4 14  1  0  0  0  0
  5  8  2  0  0  0  0
  6 11  1  0  0  0  0
  7  2  2  0  0  0  0
  8  9  1  0  0  0  0
  9  7  1  0  0  0  0
  9 13  2  0  0  0  0
 10 13  1  0  0  0  0
 11  5  1  0  0  0  0
 12  3  2  0  0  0  0
 13 12  1  0  0  0  0
 14  1  2  0  0  0  0
 15 10  1  0  0  0  0
 16 17  1  6  0  0  0
 16 15  1  0  0  0  0
 16 22  1  0  0  0  0
 18 22  1  0  0  0  0
 19 18  2  0  0  0  0
 20 19  1  0  0  0  0
 21 17  1  0  0  0  0
 21 20  1  0  0  0  0
 22 23  1  1  0  0  0
 23 24  1  0  0  0  0
 25  4  1  0  0  0  0
 26 25  1  0  0  0  0
 27 30  1  0  0  0  0
 27 29  1  0  0  0  0
 29 32  1  0  0  0  0
 31 27  2  0  0  0  0
 32 28  2  0  0  0  0
 32 26  1  0  0  0  0
M  END
>  <MODEL>
8

>  <REMARK>
 VINA RESULT:      -9.4      1.996      5.343
  Name = 
  5 active torsions:
  status: ('A' for Active; 'I' for Inactive)
    1  A    between atoms: C_6  and  N_31
    2  A    between atoms: C_8  and  O_23
    3  A    between atoms: C_19  and  O_23
    4  A    between atoms: C_19  and  C_24
    5  A    between atoms: C_27  and  C_32
                            x       y       z     vdW  Elec       q    Type
                         _______ _______ _______ _____ _____    ______ ____

>  <TORSDO>
F 5

$$$$
=
 OpenBabel10272413243D

 32 35  0  0  1  0  0  0  0  0999 V2000
  187.0220  178.0390  143.8970 C   0  0  0  0  0  0  0  0  0  0  0  0
  187.5270  178.0550  148.7870 C   0  0  0  0  0  3  0  0  0  0  0  0
  188.8450  177.6100  148.6570 C   0  0  0  0  0  3  0  0  0  0  0  0
  184.8890  178.6020  142.8510 C   0  0  0  0  0  0  0  0  0  0  0  0
  185.0580  178.4530  145.2640 C   0  0  0  0  0  3  0  0  0  0  0  0
  182.9480  178.9860  144.2410 O   0  0  0  0  0  1  0  0  0  0  0  0
  186.7300  178.2170  147.6530 C   0  0  0  0  0  3  0  0  0  0  0  0
  186.4190  178.1340  145.1650 C   0  0  0  0  0  0  0  0  0  0  0  0
  187.2430  177.9360  146.3770 C   0  0  0  0  0  0  0  0  0  0  0  0
  189.1400  177.1010  144.9180 C   0  0  0  0  0  2  0  0  0  0  0  0
  184.2960  178.6780  144.1170 C   0  0  0  0  0  0  0  0  0  0  0  0
  189.3640  177.3240  147.3920 C   0  0  0  0  0  3  0  0  0  0  0  0
  188.5740  177.4960  146.2500 C   0  0  0  0  0  0  0  0  0  0  0  0
  186.2520  178.2830  142.7490 C   0  0  0  0  0  3  0  0  0  0  0  0
  188.4250  177.7190  143.7940 N   0  0  0  0  0  0  0  0  0  0  0  0
  189.1230  177.8640  142.5170 C   0  0  2  0  0  3  0  0  0  0  0  0
  188.6070  176.8410  141.5030 C   0  0  0  0  0  2  0  0  0  0  0  0
  191.4920  177.1810  141.6510 C   0  0  0  0  0  3  0  0  0  0  0  0
  191.2640  177.2870  140.3350 C   0  0  0  0  0  3  0  0  0  0  0  0
  190.0940  178.0390  139.7800 C   0  0  0  0  0  2  0  0  0  0  0  0
  188.7650  177.3290  140.0600 C   0  0  0  0  0  2  0  0  0  0  0  0
  190.6500  177.8180  142.7390 C   0  0  1  0  0  3  0  0  0  0  0  0
  191.1910  179.1850  143.1380 C   0  0  0  0  0  2  0  0  0  0  0  0
  192.0010  179.0870  144.2710 O   0  0  0  0  0  1  0  0  0  0  0  0
  184.1070  178.8460  141.7160 O   0  0  0  0  0  0  0  0  0  0  0  0
  183.4960  177.8140  140.9470 C   0  0  0  0  0  2  0  0  0  0  0  0
  181.6110  176.1260  139.1670 C   0  0  0  0  0  0  0  0  0  0  0  0
  181.4870  178.9740  141.4800 O   0  0  0  0  0  0  0  0  0  0  0  0
  181.1930  177.2210  139.9900 N   0  0  0  0  0  2  0  0  0  0  0  0
  182.9860  175.7820  139.0250 N   0  0  0  0  0  1  0  0  0  0  0  0
  180.7430  175.4540  138.5520 O   0  0  0  0  0  0  0  0  0  0  0  0
  182.0240  178.0520  140.8100 C   0  0  0  0  0  0  0  0  0  0  0  0
  1  8  1  0  0  0  0
  3  2  1  0  0  0  0
  4 11  2  0  0  0  0
  7  2  2  0  0  0  0
  8  5  2  0  0  0  0
  8  9  1  0  0  0  0
  9  7  1  0  0  0  0
 10 13  1  0  0  0  0
 11  6  1  0  0  0  0
 11  5  1  0  0  0  0
 12  3  2  0  0  0  0
 13  9  2  0  0  0  0
 13 12  1  0  0  0  0
 14  4  1  0  0  0  0
 14  1  2  0  0  0  0
 15  1  1  0  0  0  0
 15 10  1  0  0  0  0
 16 17  1  6  0  0  0
 16 22  1  0  0  0  0
 16 15  1  0  0  0  0
 18 22  1  0  0  0  0
 19 18  2  0  0  0  0
 20 21  1  0  0  0  0
 20 19  1  0  0  0  0
 21 17  1  0  0  0  0
 22 23  1  6  0  0  0
 23 24  1  0  0  0  0
 25  4  1  0  0  0  0
 26 25  1  0  0  0  0
 27 29  1  0  0  0  0
 29 32  1  0  0  0  0
 30 27  1  0  0  0  0
 31 27  2  0  0  0  0
 32 26  1  0  0  0  0
 32 28  2  0  0  0  0
M  END
>  <MODEL>
9

>  <REMARK>
 VINA RESULT:      -9.2      3.540      6.564
  Name = 
  5 active torsions:
  status: ('A' for Active; 'I' for Inactive)
    1  A    between atoms: C_6  and  N_31
    2  A    between atoms: C_8  and  O_23
    3  A    between atoms: C_19  and  O_23
    4  A    between atoms: C_19  and  C_24
    5  A    between atoms: C_27  and  C_32
                            x       y       z     vdW  Elec       q    Type
                         _______ _______ _______ _____ _____    ______ ____

>  <TORSDO>
F 5

$$$$
