=
 OpenBabel10272401293D

 55 60  0  0  1  0  0  0  0  0999 V2000
  182.5450  178.9110  144.3810 C   0  0  0  0  0  3  0  0  0  0  0  0
  181.2190  178.6760  141.9280 C   0  0  0  0  0  0  0  0  0  0  0  0
  182.5830  178.9910  141.9620 C   0  0  0  0  0  3  0  0  0  0  0  0
  181.1850  178.5900  144.3500 C   0  0  0  0  0  3  0  0  0  0  0  0
  183.2470  179.1100  143.1870 C   0  0  0  0  0  0  0  0  0  0  0  0
  180.5240  178.4680  143.1230 C   0  0  0  0  0  3  0  0  0  0  0  0
  180.5070  178.5450  140.6220 C   0  0  0  0  0  2  0  0  0  0  0  0
  181.3170  179.1530  139.4830 C   0  0  0  0  0  2  0  0  0  0  0  0
  180.9490  178.5220  138.1470 C   0  0  0  0  0  2  0  0  0  0  0  0
  181.5090  179.3320  136.9850 C   0  0  0  0  0  2  0  0  0  0  0  0
  180.9420  178.8460  135.6640 C   0  0  0  0  0  2  0  0  0  0  0  0
  180.7390  177.3460  135.7170 C   0  0  0  0  0  2  0  0  0  0  0  0
  181.9470  176.6940  135.4350 O   0  0  0  0  0  0  0  0  0  0  0  0
  181.7680  175.3070  135.6330 C   0  0  1  0  0  3  0  0  0  0  0  0
  181.6360  174.4820  134.3490 C   0  0  0  0  0  1  0  0  0  0  0  0
  184.2030  176.2890  137.6590 O   0  0  0  0  0  1  0  0  0  0  0  0
  182.5870  174.6920  136.7930 C   0  0  1  0  0  0  0  0  0  0  0  0
  186.2050  171.9770  136.0440 C   0  0  0  0  0  3  0  0  0  0  0  0
  184.6090  175.3590  135.6220 F   0  0  0  0  0  0  0  0  0  0  0  0
  184.0580  175.1400  136.8750 C   0  0  1  0  0  0  0  0  0  0  0  0
  186.8600  172.9170  136.7160 C   0  0  0  0  0  3  0  0  0  0  0  0
  186.1730  173.9730  137.3270 O   0  0  0  0  0  0  0  0  0  0  0  0
  184.0390  172.7030  137.0600 C   0  0  2  0  0  3  0  0  0  0  0  0
  184.7540  173.9700  137.5440 C   0  0  2  0  0  3  0  0  0  0  0  0
  181.9530  175.0100  137.9880 F   0  0  0  0  0  0  0  0  0  0  0  0
  184.7300  172.0970  135.8380 C   0  0  0  0  0  2  0  0  0  0  0  0
  182.6510  173.1630  136.6280 C   0  0  1  0  0  3  0  0  0  0  0  0
  181.5640  172.4330  137.3630 C   0  0  0  0  0  3  0  0  0  0  0  0
  180.6700  171.5560  136.6630 S   0  0  0  0  0  0  0  0  0  0  0  0
  184.7090  179.4110  143.2080 C   0  0  0  0  0  2  0  0  0  0  0  0
  185.4830  178.3120  143.9240 C   0  0  0  0  0  2  0  0  0  0  0  0
  186.4760  177.6410  142.9840 C   0  0  0  0  0  2  0  0  0  0  0  0
  187.8930  177.7190  143.5510 C   0  0  1  0  0  3  0  0  0  0  0  0
  190.4160  178.1540  145.0800 C   0  0  0  0  0  2  0  0  0  0  0  0
  191.1650  177.0560  146.9270 C   0  0  2  0  0  3  0  0  0  0  0  0
  189.2940  177.3050  145.6020 C   0  0  1  0  0  0  0  0  0  0  0  0
  187.9510  177.0640  144.9270 C   0  0  1  0  0  3  0  0  0  0  0  0
  189.7880  176.4510  146.7050 C   0  0  0  0  0  2  0  0  0  0  0  0
  191.5820  177.7640  145.7730 O   0  0  0  0  0  0  0  0  0  0  0  0
  188.0940  178.1320  146.0090 C   0  0  0  0  0  2  0  0  0  0  0  0
  192.1510  175.9930  147.2790 C   0  0  0  0  0  0  0  0  0  0  0  0
  192.3400  174.9210  146.4130 O   0  0  0  0  0  0  0  0  0  0  0  0
  192.8380  176.0760  148.3370 O   0  0  0  0  0  1  0  0  0  0  0  0
  188.9600  177.1310  142.6120 C   0  0  1  0  0  3  0  0  0  0  0  0
  190.6360  175.3890  142.7390 O   0  0  0  0  0  1  0  0  0  0  0  0
  189.2680  175.6510  142.8670 C   0  0  0  0  0  2  0  0  0  0  0  0
  188.6470  177.4100  141.1470 C   0  0  0  0  0  2  0  0  0  0  0  0
  189.8500  177.6470  140.4300 O   0  0  0  0  0  0  0  0  0  0  0  0
  191.4180  176.5850  139.1380 O   0  0  0  0  0  0  0  0  0  0  0  0
  190.2120  176.9040  139.3040 C   0  0  0  0  0  0  0  0  0  0  0  0
  189.1970  176.4340  138.3120 C   0  0  0  0  0  2  0  0  0  0  0  0
  187.4840  177.2000  136.7040 C   0  0  2  0  0  3  0  0  0  0  0  0
  187.3740  178.0190  135.4390 C   0  0  0  0  0  1  0  0  0  0  0  0
  187.4240  178.1210  137.9080 C   0  0  0  0  0  2  0  0  0  0  0  0
  188.7580  177.5880  137.4300 C   0  0  1  0  0  3  0  0  0  0  0  0
  2  3  2  0  0  0  0
  2  6  1  0  0  0  0
  3  5  1  0  0  0  0
  4  1  1  0  0  0  0
  5 30  1  0  0  0  0
  5  1  2  0  0  0  0
  6  4  2  0  0  0  0
  7  2  1  0  0  0  0
  8  7  1  0  0  0  0
  9  8  1  0  0  0  0
 10  9  1  0  0  0  0
 11 12  1  0  0  0  0
 11 10  1  0  0  0  0
 13 14  1  0  0  0  0
 13 12  1  0  0  0  0
 14 15  1  6  0  0  0
 14 17  1  0  0  0  0
 17 20  1  0  0  0  0
 17 25  1  1  0  0  0
 18 21  2  0  0  0  0
 20 19  1  6  0  0  0
 20 24  1  0  0  0  0
 20 16  1  0  0  0  0
 21 22  1  0  0  0  0
 23 26  1  6  0  0  0
 23 24  1  0  0  0  0
 24 22  1  6  0  0  0
 26 18  1  0  0  0  0
 27 17  1  0  0  0  0
 27 23  1  0  0  0  0
 27 28  1  1  0  0  0
 29 28  2  0  0  0  0
 30 31  1  0  0  0  0
 32 31  1  0  0  0  0
 33 32  1  6  0  0  0
 34 39  1  0  0  0  0
 35 41  1  6  0  0  0
 36 34  1  6  0  0  0
 36 40  1  0  0  0  0
 36 38  1  0  0  0  0
 37 33  1  6  0  0  0
 37 36  1  0  0  0  0
 37 40  1  0  0  0  0
 38 35  1  0  0  0  0
 39 35  1  0  0  0  0
 41 43  1  0  0  0  0
 42 41  2  0  0  0  0
 44 47  1  6  0  0  0
 44 46  1  0  0  0  0
 44 33  1  0  0  0  0
 45 46  1  0  0  0  0
 48 47  1  0  0  0  0
 49 50  2  0  0  0  0
 50 48  1  0  0  0  0
 51 50  1  0  0  0  0
 52 53  1  6  0  0  0
 52 55  1  0  0  0  0
 52 54  1  0  0  0  0
 55 54  1  0  0  0  0
 55 51  1  1  0  0  0
M  END
>  <MODEL>
1

>  <REMARK>
 VINA RESULT:      -6.9      0.000      0.000
  Name = 
  23 active torsions:
  status: ('A' for Active; 'I' for Inactive)
    1  A    between atoms: C_1  and  C_53
    2  A    between atoms: C_2  and  C_28
    3  A    between atoms: C_2  and  C_44
    4  A    between atoms: C_6  and  C_20
    5  A    between atoms: O_7  and  C_20
    6  A    between atoms: O_7  and  C_22
    7  A    between atoms: C_8  and  C_22
    8  A    between atoms: C_8  and  C_35
    9  A    between atoms: C_10  and  C_32
   10  A    between atoms: C_16  and  C_17
   11  A    between atoms: C_16  and  O_26
   12  A    between atoms: C_17  and  C_23
   13  A    between atoms: C_17  and  C_33
   14  A    between atoms: C_19  and  C_40
   15  A    between atoms: C_19  and  C_45
   16  A    between atoms: O_26  and  C_45
   17  A    between atoms: C_27  and  C_54
   18  A    between atoms: C_28  and  C_49
   19  A    between atoms: C_33  and  C_36
   20  A    between atoms: C_33  and  C_49
   21  A    between atoms: C_35  and  C_43
   22  A    between atoms: C_43  and  C_51
   23  A    between atoms: C_51  and  C_54
                            x       y       z     vdW  Elec       q    Type
                         _______ _______ _______ _____ _____    ______ ____

>  <TORSDO>
F 23

$$$$
=
 OpenBabel10272401293D

 55 60  0  0  1  0  0  0  0  0999 V2000
  191.4450  176.9810  144.6440 C   0  0  0  0  0  3  0  0  0  0  0  0
  188.9200  177.4690  145.7470 C   0  0  0  0  0  0  0  0  0  0  0  0
  189.1500  177.7070  144.3860 C   0  0  0  0  0  3  0  0  0  0  0  0
  191.2160  176.7380  146.0010 C   0  0  0  0  0  3  0  0  0  0  0  0
  190.4120  177.4650  143.8330 C   0  0  0  0  0  0  0  0  0  0  0  0
  189.9530  176.9770  146.5500 C   0  0  0  0  0  3  0  0  0  0  0  0
  187.5740  177.7230  146.3400 C   0  0  0  0  0  2  0  0  0  0  0  0
  186.4580  177.3210  145.3820 C   0  0  0  0  0  2  0  0  0  0  0  0
  186.0780  178.4750  144.4640 C   0  0  0  0  0  2  0  0  0  0  0  0
  184.9960  178.0570  143.4770 C   0  0  0  0  0  2  0  0  0  0  0  0
  185.3370  178.5190  142.0720 C   0  0  0  0  0  2  0  0  0  0  0  0
  184.1100  179.1220  141.4210 C   0  0  0  0  0  2  0  0  0  0  0  0
  183.6660  178.2880  140.3840 O   0  0  0  0  0  0  0  0  0  0  0  0
  182.3320  177.9100  140.6500 C   0  0  1  0  0  3  0  0  0  0  0  0
  181.6210  178.7520  141.7130 C   0  0  0  0  0  1  0  0  0  0  0  0
  180.6580  175.2160  139.6820 O   0  0  0  0  0  1  0  0  0  0  0  0
  181.5070  177.4780  139.4140 C   0  0  1  0  0  0  0  0  0  0  0  0
  183.4940  175.8990  135.5950 C   0  0  0  0  0  3  0  0  0  0  0  0
  182.8820  175.4790  139.2850 F   0  0  0  0  0  0  0  0  0  0  0  0
  181.6210  175.9910  139.0280 C   0  0  1  0  0  0  0  0  0  0  0  0
  182.7800  174.8090  135.8540 C   0  0  0  0  0  3  0  0  0  0  0  0
  181.8410  174.7950  136.8930 O   0  0  0  0  0  0  0  0  0  0  0  0
  181.9480  177.2890  136.9840 C   0  0  2  0  0  3  0  0  0  0  0  0
  181.3580  175.9850  137.5350 C   0  0  2  0  0  3  0  0  0  0  0  0
  180.1720  177.7790  139.6560 F   0  0  0  0  0  0  0  0  0  0  0  0
  183.3790  177.0950  136.4840 C   0  0  0  0  0  2  0  0  0  0  0  0
  181.9970  178.2430  138.1720 C   0  0  1  0  0  3  0  0  0  0  0  0
  181.2340  179.5090  137.9060 C   0  0  0  0  0  3  0  0  0  0  0  0
  181.7420  180.7760  138.3500 S   0  0  0  0  0  0  0  0  0  0  0  0
  190.6330  177.6880  142.3740 C   0  0  0  0  0  2  0  0  0  0  0  0
  189.3930  177.3200  141.5700 C   0  0  0  0  0  2  0  0  0  0  0  0
  189.1310  178.3400  140.4700 C   0  0  0  0  0  2  0  0  0  0  0  0
  189.4680  177.7530  139.0990 C   0  0  1  0  0  3  0  0  0  0  0  0
  191.2210  176.8600  136.8590 C   0  0  0  0  0  2  0  0  0  0  0  0
  191.9820  174.7650  136.3990 C   0  0  2  0  0  3  0  0  0  0  0  0
  190.9120  175.9840  138.0380 C   0  0  1  0  0  0  0  0  0  0  0  0
  190.0760  176.3630  139.2530 C   0  0  1  0  0  3  0  0  0  0  0  0
  191.2430  174.5790  137.7140 C   0  0  0  0  0  2  0  0  0  0  0  0
  191.6360  176.0080  135.8130 O   0  0  0  0  0  0  0  0  0  0  0  0
  191.5990  176.4600  139.2990 C   0  0  0  0  0  2  0  0  0  0  0  0
  191.6800  173.6400  135.4660 C   0  0  0  0  0  0  0  0  0  0  0  0
  192.0150  172.3400  135.8320 O   0  0  0  0  0  1  0  0  0  0  0  0
  191.0940  173.8540  134.3670 O   0  0  0  0  0  0  0  0  0  0  0  0
  188.2710  177.7310  138.1330 C   0  0  1  0  0  3  0  0  0  0  0  0
  186.1700  178.9220  138.2910 O   0  0  0  0  0  1  0  0  0  0  0  0
  186.9090  177.8600  138.8240 C   0  0  0  0  0  2  0  0  0  0  0  0
  188.4380  178.7320  136.9970 C   0  0  0  0  0  2  0  0  0  0  0  0
  187.6240  178.3550  135.8950 O   0  0  0  0  0  0  0  0  0  0  0  0
  189.0420  177.4110  134.3610 O   0  0  0  0  0  0  0  0  0  0  0  0
  187.9750  177.3230  135.0210 C   0  0  0  0  0  0  0  0  0  0  0  0
  187.1400  176.0910  134.8830 C   0  0  0  0  0  2  0  0  0  0  0  0
  186.4840  173.9610  135.9520 C   0  0  2  0  0  3  0  0  0  0  0  0
  186.4140  173.3330  137.3250 C   0  0  0  0  0  1  0  0  0  0  0  0
  187.8780  173.7760  135.3830 C   0  0  0  0  0  2  0  0  0  0  0  0
  187.4790  175.1050  135.9870 C   0  0  1  0  0  3  0  0  0  0  0  0
  1  4  1  0  0  0  0
  2  7  1  0  0  0  0
  2  6  1  0  0  0  0
  3  2  2  0  0  0  0
  4  6  2  0  0  0  0
  5  3  1  0  0  0  0
  5  1  2  0  0  0  0
  8  7  1  0  0  0  0
  9  8  1  0  0  0  0
 10  9  1  0  0  0  0
 11 10  1  0  0  0  0
 12 11  1  0  0  0  0
 13 14  1  0  0  0  0
 13 12  1  0  0  0  0
 14 15  1  6  0  0  0
 17 25  1  1  0  0  0
 17 14  1  0  0  0  0
 18 21  2  0  0  0  0
 18 26  1  0  0  0  0
 20 19  1  1  0  0  0
 20 17  1  0  0  0  0
 20 16  1  0  0  0  0
 21 22  1  0  0  0  0
 23 26  1  1  0  0  0
 23 24  1  0  0  0  0
 23 27  1  0  0  0  0
 24 22  1  6  0  0  0
 24 20  1  0  0  0  0
 27 28  1  6  0  0  0
 27 17  1  0  0  0  0
 28 29  2  0  0  0  0
 30  5  1  0  0  0  0
 31 30  1  0  0  0  0
 32 31  1  0  0  0  0
 33 32  1  1  0  0  0
 35 41  1  6  0  0  0
 35 38  1  0  0  0  0
 36 34  1  6  0  0  0
 36 37  1  0  0  0  0
 36 40  1  0  0  0  0
 37 33  1  6  0  0  0
 37 40  1  0  0  0  0
 38 36  1  0  0  0  0
 39 35  1  0  0  0  0
 39 34  1  0  0  0  0
 41 42  1  0  0  0  0
 43 41  2  0  0  0  0
 44 47  1  6  0  0  0
 44 46  1  0  0  0  0
 44 33  1  0  0  0  0
 45 46  1  0  0  0  0
 48 47  1  0  0  0  0
 49 50  2  0  0  0  0
 50 48  1  0  0  0  0
 51 50  1  0  0  0  0
 52 55  1  0  0  0  0
 52 53  1  1  0  0  0
 54 52  1  0  0  0  0
 54 55  1  0  0  0  0
 55 51  1  6  0  0  0
M  END
>  <MODEL>
2

>  <REMARK>
 VINA RESULT:      -6.8      3.531      7.066
  Name = 
  23 active torsions:
  status: ('A' for Active; 'I' for Inactive)
    1  A    between atoms: C_1  and  C_53
    2  A    between atoms: C_2  and  C_28
    3  A    between atoms: C_2  and  C_44
    4  A    between atoms: C_6  and  C_20
    5  A    between atoms: O_7  and  C_20
    6  A    between atoms: O_7  and  C_22
    7  A    between atoms: C_8  and  C_22
    8  A    between atoms: C_8  and  C_35
    9  A    between atoms: C_10  and  C_32
   10  A    between atoms: C_16  and  C_17
   11  A    between atoms: C_16  and  O_26
   12  A    between atoms: C_17  and  C_23
   13  A    between atoms: C_17  and  C_33
   14  A    between atoms: C_19  and  C_40
   15  A    between atoms: C_19  and  C_45
   16  A    between atoms: O_26  and  C_45
   17  A    between atoms: C_27  and  C_54
   18  A    between atoms: C_28  and  C_49
   19  A    between atoms: C_33  and  C_36
   20  A    between atoms: C_33  and  C_49
   21  A    between atoms: C_35  and  C_43
   22  A    between atoms: C_43  and  C_51
   23  A    between atoms: C_51  and  C_54
                            x       y       z     vdW  Elec       q    Type
                         _______ _______ _______ _____ _____    ______ ____

>  <TORSDO>
F 23

$$$$
=
 OpenBabel10272401293D

 55 60  0  0  1  0  0  0  0  0999 V2000
  182.9070  178.8420  144.2810 C   0  0  0  0  0  3  0  0  0  0  0  0
  181.4310  178.7140  141.9060 C   0  0  0  0  0  0  0  0  0  0  0  0
  182.8060  178.9770  141.8660 C   0  0  0  0  0  3  0  0  0  0  0  0
  181.5360  178.5740  144.3230 C   0  0  0  0  0  3  0  0  0  0  0  0
  183.5450  179.0420  143.0520 C   0  0  0  0  0  0  0  0  0  0  0  0
  180.8000  178.5050  143.1360 C   0  0  0  0  0  3  0  0  0  0  0  0
  180.6400  178.6400  140.6430 C   0  0  0  0  0  2  0  0  0  0  0  0
  181.4110  179.2280  139.4670 C   0  0  0  0  0  2  0  0  0  0  0  0
  181.0880  178.4940  138.1730 C   0  0  0  0  0  2  0  0  0  0  0  0
  181.2840  179.3990  136.9640 C   0  0  0  0  0  2  0  0  0  0  0  0
  181.1280  178.6190  135.6720 C   0  0  0  0  0  2  0  0  0  0  0  0
  181.8170  177.2760  135.8000 C   0  0  0  0  0  2  0  0  0  0  0  0
  183.1850  177.4190  135.5300 O   0  0  0  0  0  0  0  0  0  0  0  0
  183.8190  176.1740  135.7410 C   0  0  1  0  0  3  0  0  0  0  0  0
  184.0170  175.3290  134.4800 C   0  0  0  0  0  1  0  0  0  0  0  0
  185.1710  178.3630  137.8330 O   0  0  0  0  0  1  0  0  0  0  0  0
  184.9640  176.1810  136.7810 C   0  0  1  0  0  0  0  0  0  0  0  0
  189.3490  176.7460  135.5660 C   0  0  0  0  0  3  0  0  0  0  0  0
  185.8590  178.1510  135.6750 F   0  0  0  0  0  0  0  0  0  0  0  0
  185.7480  177.5020  136.8940 C   0  0  1  0  0  0  0  0  0  0  0  0
  189.2730  177.8140  136.3530 C   0  0  0  0  0  3  0  0  0  0  0  0
  188.1310  178.0560  137.1250 O   0  0  0  0  0  0  0  0  0  0  0  0
  187.3940  175.7040  136.7240 C   0  0  2  0  0  3  0  0  0  0  0  0
  187.1200  177.0670  137.3710 C   0  0  2  0  0  3  0  0  0  0  0  0
  184.4240  175.8700  138.0230 F   0  0  0  0  0  0  0  0  0  0  0  0
  188.1660  175.8460  135.4130 C   0  0  0  0  0  2  0  0  0  0  0  0
  186.0200  175.1300  136.3940 C   0  0  1  0  0  3  0  0  0  0  0  0
  185.8010  173.7920  137.0400 C   0  0  0  0  0  3  0  0  0  0  0  0
  186.7560  172.7340  136.8720 S   0  0  0  0  0  0  0  0  0  0  0  0
  185.0160  179.2870  142.9920 C   0  0  0  0  0  2  0  0  0  0  0  0
  185.7870  178.1510  143.6520 C   0  0  0  0  0  2  0  0  0  0  0  0
  186.8930  177.6380  142.7410 C   0  0  0  0  0  2  0  0  0  0  0  0
  188.2480  177.7020  143.4460 C   0  0  1  0  0  3  0  0  0  0  0  0
  190.6310  178.1050  145.1920 C   0  0  0  0  0  2  0  0  0  0  0  0
  191.1450  177.0740  147.1550 C   0  0  2  0  0  3  0  0  0  0  0  0
  189.4240  177.3350  145.6430 C   0  0  1  0  0  0  0  0  0  0  0  0
  188.1410  177.1190  144.8520 C   0  0  1  0  0  3  0  0  0  0  0  0
  189.7670  176.5200  146.8280 C   0  0  0  0  0  2  0  0  0  0  0  0
  191.7040  177.7010  146.0150 O   0  0  0  0  0  0  0  0  0  0  0  0
  188.2330  178.2340  145.8900 C   0  0  0  0  0  2  0  0  0  0  0  0
  192.0400  175.9880  147.6530 C   0  0  0  0  0  0  0  0  0  0  0  0
  191.8920  174.6980  147.1540 O   0  0  0  0  0  0  0  0  0  0  0  0
  192.9490  176.2380  148.4940 O   0  0  0  0  0  1  0  0  0  0  0  0
  189.3830  177.0330  142.6530 C   0  0  1  0  0  3  0  0  0  0  0  0
  190.8940  175.2330  143.2320 O   0  0  0  0  0  1  0  0  0  0  0  0
  189.5580  175.5400  142.9530 C   0  0  0  0  0  2  0  0  0  0  0  0
  189.2750  177.3120  141.1590 C   0  0  0  0  0  2  0  0  0  0  0  0
  190.5710  177.3540  140.5780 O   0  0  0  0  0  0  0  0  0  0  0  0
  190.0720  175.8140  138.9550 O   0  0  0  0  0  0  0  0  0  0  0  0
  190.9030  176.6310  139.4300 C   0  0  0  0  0  0  0  0  0  0  0  0
  192.2020  176.8360  138.7190 C   0  0  0  0  0  2  0  0  0  0  0  0
  193.6750  175.6150  137.1560 C   0  0  2  0  0  3  0  0  0  0  0  0
  193.8130  175.3410  135.6760 C   0  0  0  0  0  1  0  0  0  0  0  0
  192.7250  174.6050  137.7700 C   0  0  0  0  0  2  0  0  0  0  0  0
  192.2400  176.0030  137.4510 C   0  0  1  0  0  3  0  0  0  0  0  0
  1  4  1  0  0  0  0
  2  6  1  0  0  0  0
  3  2  2  0  0  0  0
  3  5  1  0  0  0  0
  5  1  2  0  0  0  0
  6  4  2  0  0  0  0
  7  2  1  0  0  0  0
  8  7  1  0  0  0  0
  9  8  1  0  0  0  0
 10  9  1  0  0  0  0
 11 12  1  0  0  0  0
 11 10  1  0  0  0  0
 13 14  1  0  0  0  0
 13 12  1  0  0  0  0
 14 15  1  6  0  0  0
 14 17  1  0  0  0  0
 17 20  1  0  0  0  0
 17 25  1  1  0  0  0
 18 21  2  0  0  0  0
 20 19  1  6  0  0  0
 20 24  1  0  0  0  0
 20 16  1  0  0  0  0
 21 22  1  0  0  0  0
 23 26  1  6  0  0  0
 23 24  1  0  0  0  0
 24 22  1  6  0  0  0
 26 18  1  0  0  0  0
 27 23  1  0  0  0  0
 27 17  1  0  0  0  0
 27 28  1  1  0  0  0
 29 28  2  0  0  0  0
 30  5  1  0  0  0  0
 30 31  1  0  0  0  0
 32 31  1  0  0  0  0
 33 32  1  6  0  0  0
 34 39  1  0  0  0  0
 35 41  1  6  0  0  0
 36 34  1  6  0  0  0
 36 40  1  0  0  0  0
 36 38  1  0  0  0  0
 37 33  1  6  0  0  0
 37 36  1  0  0  0  0
 37 40  1  0  0  0  0
 38 35  1  0  0  0  0
 39 35  1  0  0  0  0
 41 43  1  0  0  0  0
 42 41  2  0  0  0  0
 44 47  1  6  0  0  0
 44 46  1  0  0  0  0
 44 33  1  0  0  0  0
 46 45  1  0  0  0  0
 48 47  1  0  0  0  0
 49 50  2  0  0  0  0
 50 48  1  0  0  0  0
 51 50  1  0  0  0  0
 52 53  1  6  0  0  0
 52 55  1  0  0  0  0
 52 54  1  0  0  0  0
 55 54  1  0  0  0  0
 55 51  1  1  0  0  0
M  END
>  <MODEL>
3

>  <REMARK>
 VINA RESULT:      -6.6      1.853      2.805
  Name = 
  23 active torsions:
  status: ('A' for Active; 'I' for Inactive)
    1  A    between atoms: C_1  and  C_53
    2  A    between atoms: C_2  and  C_28
    3  A    between atoms: C_2  and  C_44
    4  A    between atoms: C_6  and  C_20
    5  A    between atoms: O_7  and  C_20
    6  A    between atoms: O_7  and  C_22
    7  A    between atoms: C_8  and  C_22
    8  A    between atoms: C_8  and  C_35
    9  A    between atoms: C_10  and  C_32
   10  A    between atoms: C_16  and  C_17
   11  A    between atoms: C_16  and  O_26
   12  A    between atoms: C_17  and  C_23
   13  A    between atoms: C_17  and  C_33
   14  A    between atoms: C_19  and  C_40
   15  A    between atoms: C_19  and  C_45
   16  A    between atoms: O_26  and  C_45
   17  A    between atoms: C_27  and  C_54
   18  A    between atoms: C_28  and  C_49
   19  A    between atoms: C_33  and  C_36
   20  A    between atoms: C_33  and  C_49
   21  A    between atoms: C_35  and  C_43
   22  A    between atoms: C_43  and  C_51
   23  A    between atoms: C_51  and  C_54
                            x       y       z     vdW  Elec       q    Type
                         _______ _______ _______ _____ _____    ______ ____

>  <TORSDO>
F 23

$$$$
=
 OpenBabel10272401293D

 55 60  0  0  1  0  0  0  0  0999 V2000
  185.7960  178.6770  144.0700 C   0  0  0  0  0  3  0  0  0  0  0  0
  183.0070  178.8810  143.9640 C   0  0  0  0  0  0  0  0  0  0  0  0
  183.7690  179.0510  142.8010 C   0  0  0  0  0  3  0  0  0  0  0  0
  185.0380  178.5020  145.2310 C   0  0  0  0  0  3  0  0  0  0  0  0
  185.1630  178.9500  142.8520 C   0  0  0  0  0  0  0  0  0  0  0  0
  183.6430  178.5990  145.1760 C   0  0  0  0  0  3  0  0  0  0  0  0
  181.5190  178.9840  143.9120 C   0  0  0  0  0  2  0  0  0  0  0  0
  181.0250  179.2110  142.4880 C   0  0  0  0  0  2  0  0  0  0  0  0
  180.2840  177.9890  141.9610 C   0  0  0  0  0  2  0  0  0  0  0  0
  180.2510  177.9820  140.4390 C   0  0  0  0  0  2  0  0  0  0  0  0
  181.1530  176.8950  139.8830 C   0  0  0  0  0  2  0  0  0  0  0  0
  182.3780  177.5220  139.2520 C   0  0  0  0  0  2  0  0  0  0  0  0
  183.1360  176.5350  138.6060 O   0  0  0  0  0  0  0  0  0  0  0  0
  183.9770  177.1600  137.6590 C   0  0  1  0  0  3  0  0  0  0  0  0
  185.0890  178.0280  138.2560 C   0  0  0  0  0  1  0  0  0  0  0  0
  182.6730  174.5610  136.0660 O   0  0  0  0  0  1  0  0  0  0  0  0
  184.3310  176.3040  136.4200 C   0  0  1  0  0  0  0  0  0  0  0  0
  187.3710  172.8770  136.6170 C   0  0  0  0  0  3  0  0  0  0  0  0
  184.1100  174.3260  137.8140 F   0  0  0  0  0  0  0  0  0  0  0  0
  183.9710  174.8100  136.5230 C   0  0  1  0  0  0  0  0  0  0  0  0
  186.3350  172.1370  136.2370 C   0  0  0  0  0  3  0  0  0  0  0  0
  185.1180  172.7320  135.8850 O   0  0  0  0  0  0  0  0  0  0  0  0
  186.2760  174.9390  135.7210 C   0  0  2  0  0  3  0  0  0  0  0  0
  184.9760  174.1340  135.6100 C   0  0  2  0  0  3  0  0  0  0  0  0
  183.6820  176.8480  135.3170 F   0  0  0  0  0  0  0  0  0  0  0  0
  187.2130  174.3550  136.7780 C   0  0  0  0  0  2  0  0  0  0  0  0
  185.8520  176.3260  136.1920 C   0  0  1  0  0  3  0  0  0  0  0  0
  186.3030  177.4010  135.2460 C   0  0  0  0  0  3  0  0  0  0  0  0
  187.2120  178.4240  135.6800 S   0  0  0  0  0  0  0  0  0  0  0  0
  185.9600  179.0970  141.5990 C   0  0  0  0  0  2  0  0  0  0  0  0
  186.9470  177.9470  141.4410 C   0  0  0  0  0  2  0  0  0  0  0  0
  188.0860  178.3280  140.5050 C   0  0  0  0  0  2  0  0  0  0  0  0
  189.2570  177.3580  140.6560 C   0  0  1  0  0  3  0  0  0  0  0  0
  190.2770  175.4590  138.5960 C   0  0  0  0  0  2  0  0  0  0  0  0
  192.2560  175.5100  137.4720 C   0  0  2  0  0  3  0  0  0  0  0  0
  190.9280  176.7850  138.8610 C   0  0  1  0  0  0  0  0  0  0  0  0
  190.4550  177.8440  139.8480 C   0  0  1  0  0  3  0  0  0  0  0  0
  192.2890  176.7970  138.2820 C   0  0  0  0  0  2  0  0  0  0  0  0
  191.2430  174.6490  137.9610 O   0  0  0  0  0  0  0  0  0  0  0  0
  190.0850  177.9420  138.3700 C   0  0  0  0  0  2  0  0  0  0  0  0
  193.5860  174.8360  137.5080 C   0  0  0  0  0  0  0  0  0  0  0  0
  194.7380  175.5810  137.2750 O   0  0  0  0  0  0  0  0  0  0  0  0
  193.6770  173.6050  137.7820 O   0  0  0  0  0  1  0  0  0  0  0  0
  189.6460  177.0930  142.1200 C   0  0  1  0  0  3  0  0  0  0  0  0
  190.4290  174.9700  142.9810 O   0  0  0  0  0  1  0  0  0  0  0  0
  190.8200  176.1210  142.2870 C   0  0  0  0  0  2  0  0  0  0  0  0
  189.8540  178.3860  142.8970 C   0  0  0  0  0  2  0  0  0  0  0  0
  190.9260  178.2330  143.8180 O   0  0  0  0  0  0  0  0  0  0  0  0
  191.7830  177.3560  145.7550 O   0  0  0  0  0  0  0  0  0  0  0  0
  190.7660  177.6150  145.0600 C   0  0  0  0  0  0  0  0  0  0  0  0
  189.4130  177.2930  145.6100 C   0  0  0  0  0  2  0  0  0  0  0  0
  188.7700  178.2670  147.7880 C   0  0  2  0  0  3  0  0  0  0  0  0
  189.3270  178.4450  149.1820 C   0  0  0  0  0  1  0  0  0  0  0  0
  188.1030  176.9090  147.6810 C   0  0  0  0  0  2  0  0  0  0  0  0
  189.4920  177.1160  147.1160 C   0  0  1  0  0  3  0  0  0  0  0  0
  1  4  1  0  0  0  0
  2  6  1  0  0  0  0
  3  5  1  0  0  0  0
  3  2  2  0  0  0  0
  5  1  2  0  0  0  0
  6  4  2  0  0  0  0
  7  2  1  0  0  0  0
  8  7  1  0  0  0  0
  9  8  1  0  0  0  0
 10  9  1  0  0  0  0
 11 10  1  0  0  0  0
 12 11  1  0  0  0  0
 13 12  1  0  0  0  0
 14 15  1  1  0  0  0
 14 13  1  0  0  0  0
 17 25  1  6  0  0  0
 17 20  1  0  0  0  0
 17 14  1  0  0  0  0
 18 26  1  0  0  0  0
 20 16  1  6  0  0  0
 20 19  1  0  0  0  0
 21 18  2  0  0  0  0
 22 21  1  0  0  0  0
 23 27  1  0  0  0  0
 23 26  1  1  0  0  0
 24 23  1  0  0  0  0
 24 22  1  1  0  0  0
 24 20  1  0  0  0  0
 27 28  1  6  0  0  0
 27 17  1  0  0  0  0
 28 29  2  0  0  0  0
 30  5  1  0  0  0  0
 31 30  1  0  0  0  0
 32 31  1  0  0  0  0
 33 32  1  1  0  0  0
 33 44  1  0  0  0  0
 34 36  1  0  0  0  0
 35 41  1  1  0  0  0
 35 39  1  0  0  0  0
 35 38  1  0  0  0  0
 36 38  1  6  0  0  0
 36 37  1  0  0  0  0
 37 33  1  1  0  0  0
 39 34  1  0  0  0  0
 40 36  1  0  0  0  0
 40 37  1  0  0  0  0
 41 43  1  0  0  0  0
 42 41  2  0  0  0  0
 44 46  1  6  0  0  0
 44 47  1  0  0  0  0
 46 45  1  0  0  0  0
 47 48  1  0  0  0  0
 48 50  1  0  0  0  0
 50 51  1  0  0  0  0
 50 49  2  0  0  0  0
 52 53  1  1  0  0  0
 54 52  1  0  0  0  0
 55 51  1  6  0  0  0
 55 54  1  0  0  0  0
 55 52  1  0  0  0  0
M  END
>  <MODEL>
4

>  <REMARK>
 VINA RESULT:      -6.6      2.299      5.842
  Name = 
  23 active torsions:
  status: ('A' for Active; 'I' for Inactive)
    1  A    between atoms: C_1  and  C_53
    2  A    between atoms: C_2  and  C_28
    3  A    between atoms: C_2  and  C_44
    4  A    between atoms: C_6  and  C_20
    5  A    between atoms: O_7  and  C_20
    6  A    between atoms: O_7  and  C_22
    7  A    between atoms: C_8  and  C_22
    8  A    between atoms: C_8  and  C_35
    9  A    between atoms: C_10  and  C_32
   10  A    between atoms: C_16  and  C_17
   11  A    between atoms: C_16  and  O_26
   12  A    between atoms: C_17  and  C_23
   13  A    between atoms: C_17  and  C_33
   14  A    between atoms: C_19  and  C_40
   15  A    between atoms: C_19  and  C_45
   16  A    between atoms: O_26  and  C_45
   17  A    between atoms: C_27  and  C_54
   18  A    between atoms: C_28  and  C_49
   19  A    between atoms: C_33  and  C_36
   20  A    between atoms: C_33  and  C_49
   21  A    between atoms: C_35  and  C_43
   22  A    between atoms: C_43  and  C_51
   23  A    between atoms: C_51  and  C_54
                            x       y       z     vdW  Elec       q    Type
                         _______ _______ _______ _____ _____    ______ ____

>  <TORSDO>
F 23

$$$$
=
 OpenBabel10272401293D

 55 60  0  0  1  0  0  0  0  0999 V2000
  189.5020  176.7680  147.2610 C   0  0  0  0  0  3  0  0  0  0  0  0
  190.8970  177.7430  145.0400 C   0  0  0  0  0  0  0  0  0  0  0  0
  189.5450  178.0650  145.2180 C   0  0  0  0  0  3  0  0  0  0  0  0
  190.8520  176.4500  147.0890 C   0  0  0  0  0  3  0  0  0  0  0  0
  188.8460  177.5770  146.3270 C   0  0  0  0  0  0  0  0  0  0  0  0
  191.5500  176.9420  145.9810 C   0  0  0  0  0  3  0  0  0  0  0  0
  191.6470  178.2640  143.8590 C   0  0  0  0  0  2  0  0  0  0  0  0
  191.8200  177.1900  142.7900 C   0  0  0  0  0  2  0  0  0  0  0  0
  191.4600  177.7240  141.4100 C   0  0  0  0  0  2  0  0  0  0  0  0
  192.5310  177.3650  140.3880 C   0  0  0  0  0  2  0  0  0  0  0  0
  191.9190  176.6750  139.1830 C   0  0  0  0  0  2  0  0  0  0  0  0
  192.8870  176.7260  138.0200 C   0  0  0  0  0  2  0  0  0  0  0  0
  193.9530  175.8450  138.2530 O   0  0  0  0  0  0  0  0  0  0  0  0
  194.1600  175.0700  137.0900 C   0  0  1  0  0  3  0  0  0  0  0  0
  194.4630  175.8760  135.8230 C   0  0  0  0  0  1  0  0  0  0  0  0
  196.2910  173.8590  139.3230 O   0  0  0  0  0  1  0  0  0  0  0  0
  194.9450  173.7540  137.3010 C   0  0  1  0  0  0  0  0  0  0  0  0
  198.8980  172.9040  135.1400 C   0  0  0  0  0  3  0  0  0  0  0  0
  196.9680  175.0810  137.5270 F   0  0  0  0  0  0  0  0  0  0  0  0
  196.3440  173.9100  137.9270 C   0  0  1  0  0  0  0  0  0  0  0  0
  199.3840  172.8310  136.3740 C   0  0  0  0  0  3  0  0  0  0  0  0
  198.5330  172.8850  137.4840 O   0  0  0  0  0  0  0  0  0  0  0  0
  196.5870  172.4530  135.9800 C   0  0  2  0  0  3  0  0  0  0  0  0
  197.1100  172.7130  137.3970 C   0  0  2  0  0  3  0  0  0  0  0  0
  194.1820  172.9190  138.1090 F   0  0  0  0  0  0  0  0  0  0  0  0
  197.4410  173.1560  134.9250 C   0  0  0  0  0  2  0  0  0  0  0  0
  195.1960  173.0770  135.9420 C   0  0  1  0  0  3  0  0  0  0  0  0
  194.1420  172.0760  135.5660 C   0  0  0  0  0  3  0  0  0  0  0  0
  194.4760  170.6900  135.4000 S   0  0  0  0  0  0  0  0  0  0  0  0
  187.4170  177.9570  146.5230 C   0  0  0  0  0  2  0  0  0  0  0  0
  186.8410  178.5890  145.2630 C   0  0  0  0  0  2  0  0  0  0  0  0
  185.9000  177.6280  144.5480 C   0  0  0  0  0  2  0  0  0  0  0  0
  185.9160  177.8780  143.0410 C   0  0  1  0  0  3  0  0  0  0  0  0
  183.5720  177.2470  141.3090 C   0  0  0  0  0  2  0  0  0  0  0  0
  182.2240  178.6800  140.1640 C   0  0  2  0  0  3  0  0  0  0  0  0
  183.8820  178.6430  141.7660 C   0  0  1  0  0  0  0  0  0  0  0  0
  185.0170  179.0600  142.6910 C   0  0  1  0  0  3  0  0  0  0  0  0
  183.1450  179.6160  140.9310 C   0  0  0  0  0  2  0  0  0  0  0  0
  182.7480  177.3640  140.1690 O   0  0  0  0  0  0  0  0  0  0  0  0
  183.6130  178.8320  143.2430 C   0  0  0  0  0  2  0  0  0  0  0  0
  182.0320  179.1660  138.7670 C   0  0  0  0  0  0  0  0  0  0  0  0
  181.0500  180.1170  138.5020 O   0  0  0  0  0  1  0  0  0  0  0  0
  182.7720  178.7490  137.8310 O   0  0  0  0  0  0  0  0  0  0  0  0
  187.3300  178.0680  142.4670 C   0  0  1  0  0  3  0  0  0  0  0  0
  187.5670  175.7960  143.2680 O   0  0  0  0  0  1  0  0  0  0  0  0
  188.2270  176.8320  142.5970 C   0  0  0  0  0  2  0  0  0  0  0  0
  187.3000  178.6100  141.0440 C   0  0  0  0  0  2  0  0  0  0  0  0
  188.0430  177.7570  140.1830 O   0  0  0  0  0  0  0  0  0  0  0  0
  189.0800  179.2580  138.7950 O   0  0  0  0  0  0  0  0  0  0  0  0
  188.4760  178.1610  138.9180 C   0  0  0  0  0  0  0  0  0  0  0  0
  188.2840  177.3020  137.7100 C   0  0  0  0  0  2  0  0  0  0  0  0
  186.0800  176.8340  136.6950 C   0  0  2  0  0  3  0  0  0  0  0  0
  185.3170  177.1050  135.4180 C   0  0  0  0  0  1  0  0  0  0  0  0
  185.9060  178.0030  137.6450 C   0  0  0  0  0  2  0  0  0  0  0  0
  187.1790  177.8690  136.8380 C   0  0  1  0  0  3  0  0  0  0  0  0
  2  3  2  0  0  0  0
  2  6  1  0  0  0  0
  3  5  1  0  0  0  0
  4  1  1  0  0  0  0
  5 30  1  0  0  0  0
  5  1  2  0  0  0  0
  6  4  2  0  0  0  0
  7  2  1  0  0  0  0
  8  7  1  0  0  0  0
  9  8  1  0  0  0  0
 10  9  1  0  0  0  0
 11 10  1  0  0  0  0
 12 13  1  0  0  0  0
 12 11  1  0  0  0  0
 14 15  1  6  0  0  0
 14 17  1  0  0  0  0
 14 13  1  0  0  0  0
 17 20  1  0  0  0  0
 17 25  1  1  0  0  0
 18 21  2  0  0  0  0
 20 19  1  6  0  0  0
 20 16  1  0  0  0  0
 21 22  1  0  0  0  0
 23 26  1  6  0  0  0
 23 24  1  0  0  0  0
 24 22  1  6  0  0  0
 24 20  1  0  0  0  0
 26 18  1  0  0  0  0
 27 28  1  1  0  0  0
 27 23  1  0  0  0  0
 27 17  1  0  0  0  0
 29 28  2  0  0  0  0
 31 30  1  0  0  0  0
 32 31  1  0  0  0  0
 33 32  1  1  0  0  0
 34 36  1  0  0  0  0
 35 41  1  6  0  0  0
 35 39  1  0  0  0  0
 35 38  1  0  0  0  0
 36 38  1  6  0  0  0
 36 37  1  0  0  0  0
 36 40  1  0  0  0  0
 37 33  1  1  0  0  0
 37 40  1  0  0  0  0
 39 34  1  0  0  0  0
 42 41  1  0  0  0  0
 43 41  2  0  0  0  0
 44 47  1  6  0  0  0
 44 46  1  0  0  0  0
 44 33  1  0  0  0  0
 46 45  1  0  0  0  0
 48 47  1  0  0  0  0
 49 50  2  0  0  0  0
 50 48  1  0  0  0  0
 51 50  1  0  0  0  0
 52 53  1  6  0  0  0
 52 55  1  0  0  0  0
 52 54  1  0  0  0  0
 55 54  1  0  0  0  0
 55 51  1  1  0  0  0
M  END
>  <MODEL>
5

>  <REMARK>
 VINA RESULT:      -6.5      5.004      9.736
  Name = 
  23 active torsions:
  status: ('A' for Active; 'I' for Inactive)
    1  A    between atoms: C_1  and  C_53
    2  A    between atoms: C_2  and  C_28
    3  A    between atoms: C_2  and  C_44
    4  A    between atoms: C_6  and  C_20
    5  A    between atoms: O_7  and  C_20
    6  A    between atoms: O_7  and  C_22
    7  A    between atoms: C_8  and  C_22
    8  A    between atoms: C_8  and  C_35
    9  A    between atoms: C_10  and  C_32
   10  A    between atoms: C_16  and  C_17
   11  A    between atoms: C_16  and  O_26
   12  A    between atoms: C_17  and  C_23
   13  A    between atoms: C_17  and  C_33
   14  A    between atoms: C_19  and  C_40
   15  A    between atoms: C_19  and  C_45
   16  A    between atoms: O_26  and  C_45
   17  A    between atoms: C_27  and  C_54
   18  A    between atoms: C_28  and  C_49
   19  A    between atoms: C_33  and  C_36
   20  A    between atoms: C_33  and  C_49
   21  A    between atoms: C_35  and  C_43
   22  A    between atoms: C_43  and  C_51
   23  A    between atoms: C_51  and  C_54
                            x       y       z     vdW  Elec       q    Type
                         _______ _______ _______ _____ _____    ______ ____

>  <TORSDO>
F 23

$$$$
=
 OpenBabel10272401293D

 55 60  0  0  1  0  0  0  0  0999 V2000
  189.8540  176.6150  147.3870 C   0  0  0  0  0  3  0  0  0  0  0  0
  190.8640  177.8250  145.0740 C   0  0  0  0  0  0  0  0  0  0  0  0
  189.5710  178.1300  145.5200 C   0  0  0  0  0  3  0  0  0  0  0  0
  191.1460  176.3130  146.9470 C   0  0  0  0  0  3  0  0  0  0  0  0
  189.0650  177.5250  146.6740 C   0  0  0  0  0  0  0  0  0  0  0  0
  191.6520  176.9220  145.7940 C   0  0  0  0  0  3  0  0  0  0  0  0
  191.4100  178.4700  143.8430 C   0  0  0  0  0  2  0  0  0  0  0  0
  192.1330  177.4600  142.9590 C   0  0  0  0  0  2  0  0  0  0  0  0
  191.4490  177.3270  141.6040 C   0  0  0  0  0  2  0  0  0  0  0  0
  192.4510  177.4790  140.4680 C   0  0  0  0  0  2  0  0  0  0  0  0
  191.9420  176.8100  139.2040 C   0  0  0  0  0  2  0  0  0  0  0  0
  193.1110  176.4520  138.3100 C   0  0  0  0  0  2  0  0  0  0  0  0
  193.0710  175.0840  138.0050 O   0  0  0  0  0  0  0  0  0  0  0  0
  193.7390  174.8760  136.7770 C   0  0  1  0  0  3  0  0  0  0  0  0
  194.2450  176.1500  136.0940 C   0  0  0  0  0  1  0  0  0  0  0  0
  195.4180  173.0110  138.9440 O   0  0  0  0  0  1  0  0  0  0  0  0
  194.6500  173.6280  136.7210 C   0  0  1  0  0  0  0  0  0  0  0  0
  199.1000  173.9120  135.6500 C   0  0  0  0  0  3  0  0  0  0  0  0
  196.3100  174.8720  137.9870 F   0  0  0  0  0  0  0  0  0  0  0  0
  195.8060  173.6060  137.7390 C   0  0  1  0  0  0  0  0  0  0  0  0
  199.2700  173.3900  136.8600 C   0  0  0  0  0  3  0  0  0  0  0  0
  198.1740  172.9590  137.6160 O   0  0  0  0  0  0  0  0  0  0  0  0
  196.7580  173.0400  135.5600 C   0  0  2  0  0  3  0  0  0  0  0  0
  196.8650  172.7550  137.0630 C   0  0  2  0  0  3  0  0  0  0  0  0
  193.8580  172.5020  136.9160 F   0  0  0  0  0  0  0  0  0  0  0  0
  197.7200  174.1450  135.1260 C   0  0  0  0  0  2  0  0  0  0  0  0
  195.3370  173.5500  135.3460 C   0  0  1  0  0  3  0  0  0  0  0  0
  194.5880  172.7180  134.3460 C   0  0  0  0  0  3  0  0  0  0  0  0
  194.3420  171.3250  134.5900 S   0  0  0  0  0  0  0  0  0  0  0  0
  187.7000  177.8870  147.1580 C   0  0  0  0  0  2  0  0  0  0  0  0
  186.8500  178.4510  146.0260 C   0  0  0  0  0  2  0  0  0  0  0  0
  186.4480  177.3580  145.0460 C   0  0  0  0  0  2  0  0  0  0  0  0
  186.3040  177.9250  143.6340 C   0  0  1  0  0  3  0  0  0  0  0  0
  188.1590  179.0950  141.6140 C   0  0  0  0  0  2  0  0  0  0  0  0
  188.8890  178.1840  139.6600 C   0  0  2  0  0  3  0  0  0  0  0  0
  187.7590  177.6480  141.5970 C   0  0  1  0  0  0  0  0  0  0  0  0
  186.8650  176.9450  142.6100 C   0  0  1  0  0  3  0  0  0  0  0  0
  188.0710  177.0600  140.2760 C   0  0  0  0  0  2  0  0  0  0  0  0
  188.6110  179.4090  140.3140 O   0  0  0  0  0  0  0  0  0  0  0  0
  188.3850  176.8700  142.7340 C   0  0  0  0  0  2  0  0  0  0  0  0
  188.6110  178.2910  138.1980 C   0  0  0  0  0  0  0  0  0  0  0  0
  188.5380  179.5480  137.6060 O   0  0  0  0  0  1  0  0  0  0  0  0
  188.4760  177.2520  137.4900 O   0  0  0  0  0  0  0  0  0  0  0  0
  184.8620  178.3290  143.2820 C   0  0  1  0  0  3  0  0  0  0  0  0
  183.9430  179.8780  144.9000 O   0  0  0  0  0  1  0  0  0  0  0  0
  184.5190  179.7830  143.6290 C   0  0  0  0  0  2  0  0  0  0  0  0
  184.5080  177.9810  141.8420 C   0  0  0  0  0  2  0  0  0  0  0  0
  184.7590  179.0960  140.9970 O   0  0  0  0  0  0  0  0  0  0  0  0
  183.0200  179.7680  139.6630 O   0  0  0  0  0  0  0  0  0  0  0  0
  184.1590  179.2380  139.7440 C   0  0  0  0  0  0  0  0  0  0  0  0
  184.8530  178.8200  138.4880 C   0  0  0  0  0  2  0  0  0  0  0  0
  183.1000  177.0790  138.4830 C   0  0  2  0  0  3  0  0  0  0  0  0
  182.9360  175.6060  138.7790 C   0  0  0  0  0  1  0  0  0  0  0  0
  183.5700  177.2570  137.0520 C   0  0  0  0  0  2  0  0  0  0  0  0
  184.5610  177.3610  138.1910 C   0  0  1  0  0  3  0  0  0  0  0  0
  2  3  2  0  0  0  0
  2  6  1  0  0  0  0
  3  5  1  0  0  0  0
  4  1  1  0  0  0  0
  5 30  1  0  0  0  0
  5  1  2  0  0  0  0
  6  4  2  0  0  0  0
  7  2  1  0  0  0  0
  8  7  1  0  0  0  0
  9  8  1  0  0  0  0
 10  9  1  0  0  0  0
 11 10  1  0  0  0  0
 12 11  1  0  0  0  0
 13 12  1  0  0  0  0
 14 15  1  1  0  0  0
 14 13  1  0  0  0  0
 17 14  1  0  0  0  0
 17 25  1  1  0  0  0
 17 20  1  0  0  0  0
 18 21  2  0  0  0  0
 20 19  1  1  0  0  0
 20 16  1  0  0  0  0
 21 22  1  0  0  0  0
 23 26  1  1  0  0  0
 23 24  1  0  0  0  0
 24 22  1  1  0  0  0
 24 20  1  0  0  0  0
 26 18  1  0  0  0  0
 27 28  1  6  0  0  0
 27 23  1  0  0  0  0
 27 17  1  0  0  0  0
 28 29  2  0  0  0  0
 31 30  1  0  0  0  0
 32 31  1  0  0  0  0
 33 32  1  1  0  0  0
 35 41  1  6  0  0  0
 35 38  1  0  0  0  0
 35 39  1  0  0  0  0
 36 38  1  6  0  0  0
 36 34  1  0  0  0  0
 36 37  1  0  0  0  0
 36 40  1  0  0  0  0
 37 40  1  0  0  0  0
 37 33  1  1  0  0  0
 39 34  1  0  0  0  0
 42 41  1  0  0  0  0
 43 41  2  0  0  0  0
 44 47  1  6  0  0  0
 44 46  1  0  0  0  0
 44 33  1  0  0  0  0
 46 45  1  0  0  0  0
 48 47  1  0  0  0  0
 49 50  2  0  0  0  0
 50 48  1  0  0  0  0
 51 50  1  0  0  0  0
 52 53  1  6  0  0  0
 54 55  1  0  0  0  0
 54 52  1  0  0  0  0
 55 52  1  0  0  0  0
 55 51  1  1  0  0  0
M  END
>  <MODEL>
6

>  <REMARK>
 VINA RESULT:      -6.2      5.077      9.537
  Name = 
  23 active torsions:
  status: ('A' for Active; 'I' for Inactive)
    1  A    between atoms: C_1  and  C_53
    2  A    between atoms: C_2  and  C_28
    3  A    between atoms: C_2  and  C_44
    4  A    between atoms: C_6  and  C_20
    5  A    between atoms: O_7  and  C_20
    6  A    between atoms: O_7  and  C_22
    7  A    between atoms: C_8  and  C_22
    8  A    between atoms: C_8  and  C_35
    9  A    between atoms: C_10  and  C_32
   10  A    between atoms: C_16  and  C_17
   11  A    between atoms: C_16  and  O_26
   12  A    between atoms: C_17  and  C_23
   13  A    between atoms: C_17  and  C_33
   14  A    between atoms: C_19  and  C_40
   15  A    between atoms: C_19  and  C_45
   16  A    between atoms: O_26  and  C_45
   17  A    between atoms: C_27  and  C_54
   18  A    between atoms: C_28  and  C_49
   19  A    between atoms: C_33  and  C_36
   20  A    between atoms: C_33  and  C_49
   21  A    between atoms: C_35  and  C_43
   22  A    between atoms: C_43  and  C_51
   23  A    between atoms: C_51  and  C_54
                            x       y       z     vdW  Elec       q    Type
                         _______ _______ _______ _____ _____    ______ ____

>  <TORSDO>
F 23

$$$$
=
 OpenBabel10272401293D

 55 60  0  0  1  0  0  0  0  0999 V2000
  191.8670  177.0410  139.5840 C   0  0  0  0  0  3  0  0  0  0  0  0
  190.9920  177.6750  142.1660 C   0  0  0  0  0  0  0  0  0  0  0  0
  190.0610  177.4560  141.1420 C   0  0  0  0  0  3  0  0  0  0  0  0
  192.7970  177.2540  140.6050 C   0  0  0  0  0  3  0  0  0  0  0  0
  190.4970  177.1400  139.8510 C   0  0  0  0  0  0  0  0  0  0  0  0
  192.3590  177.5660  141.8970 C   0  0  0  0  0  3  0  0  0  0  0  0
  190.5310  178.0100  143.5460 C   0  0  0  0  0  2  0  0  0  0  0  0
  190.7650  176.8500  144.5080 C   0  0  0  0  0  2  0  0  0  0  0  0
  190.4320  177.2470  145.9400 C   0  0  0  0  0  2  0  0  0  0  0  0
  189.0020  177.7590  146.0480 C   0  0  0  0  0  2  0  0  0  0  0  0
  188.0880  177.0210  145.0870 C   0  0  0  0  0  2  0  0  0  0  0  0
  186.6470  177.4000  145.3610 C   0  0  0  0  0  2  0  0  0  0  0  0
  185.9950  177.6840  144.1520 O   0  0  0  0  0  0  0  0  0  0  0  0
  184.7300  178.2410  144.4430 C   0  0  1  0  0  3  0  0  0  0  0  0
  184.5840  178.8080  145.8580 C   0  0  0  0  0  1  0  0  0  0  0  0
  181.9460  179.9830  143.9850 O   0  0  0  0  0  1  0  0  0  0  0  0
  184.0720  179.0310  143.2880 C   0  0  1  0  0  0  0  0  0  0  0  0
  181.6550  176.9560  139.9890 C   0  0  0  0  0  3  0  0  0  0  0  0
  182.0480  177.7350  143.6510 F   0  0  0  0  0  0  0  0  0  0  0  0
  182.5340  178.9630  143.2310 C   0  0  1  0  0  0  0  0  0  0  0  0
  180.6680  177.7240  140.4380 C   0  0  0  0  0  3  0  0  0  0  0  0
  180.9050  178.7050  141.4080 O   0  0  0  0  0  0  0  0  0  0  0  0
  183.3560  178.4990  140.9770 C   0  0  2  0  0  3  0  0  0  0  0  0
  182.2190  179.1640  141.7610 C   0  0  2  0  0  3  0  0  0  0  0  0
  184.4590  180.3610  143.3960 F   0  0  0  0  0  0  0  0  0  0  0  0
  183.0150  177.0580  140.6000 C   0  0  0  0  0  2  0  0  0  0  0  0
  184.5400  178.4600  141.9380 C   0  0  1  0  0  3  0  0  0  0  0  0
  185.7430  179.1590  141.3740 C   0  0  0  0  0  3  0  0  0  0  0  0
  186.7350  178.4290  140.6360 S   0  0  0  0  0  0  0  0  0  0  0  0
  189.4940  176.8730  138.7790 C   0  0  0  0  0  2  0  0  0  0  0  0
  189.4470  178.0190  137.7760 C   0  0  0  0  0  2  0  0  0  0  0  0
  189.4170  177.4950  136.3470 C   0  0  0  0  0  2  0  0  0  0  0  0
  188.2790  176.4910  136.1640 C   0  0  1  0  0  3  0  0  0  0  0  0
  185.5480  176.9200  137.2800 C   0  0  0  0  0  2  0  0  0  0  0  0
  183.5960  177.2740  136.1640 C   0  0  2  0  0  3  0  0  0  0  0  0
  185.8760  177.1720  135.8370 C   0  0  1  0  0  0  0  0  0  0  0  0
  187.2450  177.0360  135.1840 C   0  0  1  0  0  3  0  0  0  0  0  0
  184.6280  177.2450  135.0480 C   0  0  0  0  0  2  0  0  0  0  0  0
  184.1490  176.7470  137.3570 O   0  0  0  0  0  0  0  0  0  0  0  0
  186.7440  178.3980  135.6560 C   0  0  0  0  0  2  0  0  0  0  0  0
  182.3750  176.5130  135.7670 C   0  0  0  0  0  0  0  0  0  0  0  0
  181.8870  175.5160  136.6060 O   0  0  0  0  0  1  0  0  0  0  0  0
  181.7650  176.7890  134.6940 O   0  0  0  0  0  0  0  0  0  0  0  0
  188.7600  175.0920  135.7420 C   0  0  1  0  0  3  0  0  0  0  0  0
  187.1010  173.7830  136.9230 O   0  0  0  0  0  1  0  0  0  0  0  0
  187.6420  174.0470  135.6590 C   0  0  0  0  0  2  0  0  0  0  0  0
  189.6010  175.1380  134.4720 C   0  0  0  0  0  2  0  0  0  0  0  0
  190.7740  174.3530  134.6390 O   0  0  0  0  0  0  0  0  0  0  0  0
  190.8280  172.7260  136.2530 O   0  0  0  0  0  0  0  0  0  0  0  0
  191.1860  173.8740  135.8840 C   0  0  0  0  0  0  0  0  0  0  0  0
  192.0830  174.6720  136.7760 C   0  0  0  0  0  2  0  0  0  0  0  0
  193.9050  176.3230  136.5330 C   0  0  2  0  0  3  0  0  0  0  0  0
  194.8020  176.9030  135.4640 C   0  0  0  0  0  1  0  0  0  0  0  0
  194.5180  175.0430  137.0670 C   0  0  0  0  0  2  0  0  0  0  0  0
  193.3870  174.9780  136.0620 C   0  0  1  0  0  3  0  0  0  0  0  0
  1  5  2  0  0  0  0
  1  4  1  0  0  0  0
  2  7  1  0  0  0  0
  3  2  2  0  0  0  0
  4  6  2  0  0  0  0
  5  3  1  0  0  0  0
  6  2  1  0  0  0  0
  7  8  1  0  0  0  0
  8  9  1  0  0  0  0
  9 10  1  0  0  0  0
 11 12  1  0  0  0  0
 11 10  1  0  0  0  0
 13 14  1  0  0  0  0
 13 12  1  0  0  0  0
 14 15  1  1  0  0  0
 17 25  1  1  0  0  0
 17 14  1  0  0  0  0
 18 21  2  0  0  0  0
 18 26  1  0  0  0  0
 20 17  1  0  0  0  0
 20 19  1  1  0  0  0
 20 16  1  0  0  0  0
 21 22  1  0  0  0  0
 23 26  1  1  0  0  0
 23 24  1  0  0  0  0
 23 27  1  0  0  0  0
 24 22  1  6  0  0  0
 24 20  1  0  0  0  0
 27 28  1  6  0  0  0
 27 17  1  0  0  0  0
 29 28  2  0  0  0  0
 30  5  1  0  0  0  0
 31 30  1  0  0  0  0
 32 31  1  0  0  0  0
 33 32  1  6  0  0  0
 34 39  1  0  0  0  0
 35 41  1  6  0  0  0
 35 39  1  0  0  0  0
 36 38  1  6  0  0  0
 36 34  1  0  0  0  0
 37 40  1  0  0  0  0
 37 36  1  0  0  0  0
 37 33  1  1  0  0  0
 38 35  1  0  0  0  0
 40 36  1  0  0  0  0
 41 42  1  0  0  0  0
 43 41  2  0  0  0  0
 44 47  1  6  0  0  0
 44 33  1  0  0  0  0
 46 44  1  0  0  0  0
 46 45  1  0  0  0  0
 47 48  1  0  0  0  0
 48 50  1  0  0  0  0
 50 49  2  0  0  0  0
 50 51  1  0  0  0  0
 52 53  1  6  0  0  0
 52 54  1  0  0  0  0
 55 52  1  0  0  0  0
 55 51  1  1  0  0  0
 55 54  1  0  0  0  0
M  END
>  <MODEL>
7

>  <REMARK>
 VINA RESULT:      -5.6      3.395      9.536
  Name = 
  23 active torsions:
  status: ('A' for Active; 'I' for Inactive)
    1  A    between atoms: C_1  and  C_53
    2  A    between atoms: C_2  and  C_28
    3  A    between atoms: C_2  and  C_44
    4  A    between atoms: C_6  and  C_20
    5  A    between atoms: O_7  and  C_20
    6  A    between atoms: O_7  and  C_22
    7  A    between atoms: C_8  and  C_22
    8  A    between atoms: C_8  and  C_35
    9  A    between atoms: C_10  and  C_32
   10  A    between atoms: C_16  and  C_17
   11  A    between atoms: C_16  and  O_26
   12  A    between atoms: C_17  and  C_23
   13  A    between atoms: C_17  and  C_33
   14  A    between atoms: C_19  and  C_40
   15  A    between atoms: C_19  and  C_45
   16  A    between atoms: O_26  and  C_45
   17  A    between atoms: C_27  and  C_54
   18  A    between atoms: C_28  and  C_49
   19  A    between atoms: C_33  and  C_36
   20  A    between atoms: C_33  and  C_49
   21  A    between atoms: C_35  and  C_43
   22  A    between atoms: C_43  and  C_51
   23  A    between atoms: C_51  and  C_54
                            x       y       z     vdW  Elec       q    Type
                         _______ _______ _______ _____ _____    ______ ____

>  <TORSDO>
F 23

$$$$
=
 OpenBabel10272401293D

 55 60  0  0  1  0  0  0  0  0999 V2000
  190.8050  177.0960  144.0850 C   0  0  0  0  0  3  0  0  0  0  0  0
  188.0690  177.5960  144.3980 C   0  0  0  0  0  0  0  0  0  0  0  0
  188.6540  177.6580  143.1270 C   0  0  0  0  0  3  0  0  0  0  0  0
  190.2220  177.0280  145.3540 C   0  0  0  0  0  3  0  0  0  0  0  0
  190.0210  177.4100  142.9690 C   0  0  0  0  0  0  0  0  0  0  0  0
  188.8540  177.2730  145.5090 C   0  0  0  0  0  3  0  0  0  0  0  0
  186.6090  177.8570  144.5710 C   0  0  0  0  0  2  0  0  0  0  0  0
  185.8510  177.6680  143.2620 C   0  0  0  0  0  2  0  0  0  0  0  0
  185.9610  178.9030  142.3790 C   0  0  0  0  0  2  0  0  0  0  0  0
  185.7100  178.5560  140.9170 C   0  0  0  0  0  2  0  0  0  0  0  0
  184.4250  179.1950  140.4220 C   0  0  0  0  0  2  0  0  0  0  0  0
  183.3130  178.1660  140.4170 C   0  0  0  0  0  2  0  0  0  0  0  0
  183.1560  177.6450  139.1250 O   0  0  0  0  0  0  0  0  0  0  0  0
  182.0170  176.8100  139.1120 C   0  0  1  0  0  3  0  0  0  0  0  0
  180.9670  177.1330  140.1790 C   0  0  0  0  0  1  0  0  0  0  0  0
  180.7520  174.0980  137.6840 O   0  0  0  0  0  1  0  0  0  0  0  0
  181.5050  176.4100  137.7080 C   0  0  1  0  0  0  0  0  0  0  0  0
  184.3590  175.1410  134.3500 C   0  0  0  0  0  3  0  0  0  0  0  0
  182.9900  174.4880  137.7950 F   0  0  0  0  0  0  0  0  0  0  0  0
  181.7860  174.9530  137.2920 C   0  0  1  0  0  0  0  0  0  0  0  0
  183.6700  174.0060  134.3990 C   0  0  0  0  0  3  0  0  0  0  0  0
  182.5320  173.8900  135.2050 O   0  0  0  0  0  0  0  0  0  0  0  0
  182.4710  176.3770  135.4270 C   0  0  2  0  0  3  0  0  0  0  0  0
  181.8530  175.0180  135.7780 C   0  0  2  0  0  3  0  0  0  0  0  0
  180.1340  176.6320  137.6650 F   0  0  0  0  0  0  0  0  0  0  0  0
  183.9850  176.2790  135.2440 C   0  0  0  0  0  2  0  0  0  0  0  0
  182.2060  177.2650  136.6380 C   0  0  1  0  0  3  0  0  0  0  0  0
  181.4450  178.5060  136.2680 C   0  0  0  0  0  3  0  0  0  0  0  0
  180.8840  178.6550  134.9550 S   0  0  0  0  0  0  0  0  0  0  0  0
  190.6240  177.4440  141.6040 C   0  0  0  0  0  2  0  0  0  0  0  0
  189.6000  177.0590  140.5440 C   0  0  0  0  0  2  0  0  0  0  0  0
  189.8070  177.8600  139.2660 C   0  0  0  0  0  2  0  0  0  0  0  0
  189.9830  176.9280  138.0670 C   0  0  1  0  0  3  0  0  0  0  0  0
  192.1560  176.4280  136.0870 C   0  0  0  0  0  2  0  0  0  0  0  0
  193.5300  174.6230  135.9120 C   0  0  2  0  0  3  0  0  0  0  0  0
  191.9810  175.5890  137.3200 C   0  0  1  0  0  0  0  0  0  0  0  0
  190.9430  175.7940  138.4140 C   0  0  1  0  0  3  0  0  0  0  0  0
  192.7340  174.3250  137.1720 C   0  0  0  0  0  2  0  0  0  0  0  0
  192.9110  175.6620  135.1740 O   0  0  0  0  0  0  0  0  0  0  0  0
  192.3590  176.3390  138.5790 C   0  0  0  0  0  2  0  0  0  0  0  0
  193.6680  173.3930  135.0780 C   0  0  0  0  0  0  0  0  0  0  0  0
  192.5360  172.6450  134.7690 O   0  0  0  0  0  1  0  0  0  0  0  0
  194.7960  173.0450  134.6240 O   0  0  0  0  0  0  0  0  0  0  0  0
  188.6550  176.3810  137.5180 C   0  0  1  0  0  3  0  0  0  0  0  0
  188.6330  178.4380  136.2420 O   0  0  0  0  0  1  0  0  0  0  0  0
  187.8240  177.4160  136.7500 C   0  0  0  0  0  2  0  0  0  0  0  0
  188.8520  175.0960  136.7230 C   0  0  0  0  0  2  0  0  0  0  0  0
  187.6200  174.6910  136.1420 O   0  0  0  0  0  0  0  0  0  0  0  0
  185.9590  174.5300  137.7130 O   0  0  0  0  0  0  0  0  0  0  0  0
  186.6650  173.9530  136.8460 C   0  0  0  0  0  0  0  0  0  0  0  0
  186.4260  172.5050  136.5650 C   0  0  0  0  0  2  0  0  0  0  0  0
  187.2750  170.4840  135.4260 C   0  0  2  0  0  3  0  0  0  0  0  0
  188.5880  169.8180  135.0830 C   0  0  0  0  0  1  0  0  0  0  0  0
  186.9290  171.5000  134.3550 C   0  0  0  0  0  2  0  0  0  0  0  0
  187.5220  171.9590  135.6690 C   0  0  1  0  0  3  0  0  0  0  0  0
  1  4  1  0  0  0  0
  2  7  1  0  0  0  0
  2  6  1  0  0  0  0
  3  2  2  0  0  0  0
  4  6  2  0  0  0  0
  5  3  1  0  0  0  0
  5  1  2  0  0  0  0
  8  7  1  0  0  0  0
  9  8  1  0  0  0  0
 10  9  1  0  0  0  0
 11 10  1  0  0  0  0
 12 11  1  0  0  0  0
 13 12  1  0  0  0  0
 14 13  1  0  0  0  0
 14 15  1  6  0  0  0
 17 25  1  6  0  0  0
 17 14  1  0  0  0  0
 18 21  2  0  0  0  0
 18 26  1  0  0  0  0
 20 16  1  1  0  0  0
 20 17  1  0  0  0  0
 20 19  1  0  0  0  0
 21 22  1  0  0  0  0
 23 26  1  1  0  0  0
 23 24  1  0  0  0  0
 23 27  1  0  0  0  0
 24 22  1  1  0  0  0
 24 20  1  0  0  0  0
 27 28  1  6  0  0  0
 27 17  1  0  0  0  0
 29 28  2  0  0  0  0
 30  5  1  0  0  0  0
 31 30  1  0  0  0  0
 32 31  1  0  0  0  0
 33 32  1  1  0  0  0
 35 41  1  6  0  0  0
 35 38  1  0  0  0  0
 36 34  1  6  0  0  0
 36 37  1  0  0  0  0
 36 40  1  0  0  0  0
 37 33  1  6  0  0  0
 37 40  1  0  0  0  0
 38 36  1  0  0  0  0
 39 35  1  0  0  0  0
 39 34  1  0  0  0  0
 42 41  1  0  0  0  0
 43 41  2  0  0  0  0
 44 47  1  6  0  0  0
 44 33  1  0  0  0  0
 45 46  1  0  0  0  0
 46 44  1  0  0  0  0
 48 47  1  0  0  0  0
 48 50  1  0  0  0  0
 50 49  2  0  0  0  0
 51 50  1  0  0  0  0
 52 53  1  6  0  0  0
 52 55  1  0  0  0  0
 54 52  1  0  0  0  0
 54 55  1  0  0  0  0
 55 51  1  1  0  0  0
M  END
>  <MODEL>
8

>  <REMARK>
 VINA RESULT:      -5.3      3.535      6.996
  Name = 
  23 active torsions:
  status: ('A' for Active; 'I' for Inactive)
    1  A    between atoms: C_1  and  C_53
    2  A    between atoms: C_2  and  C_28
    3  A    between atoms: C_2  and  C_44
    4  A    between atoms: C_6  and  C_20
    5  A    between atoms: O_7  and  C_20
    6  A    between atoms: O_7  and  C_22
    7  A    between atoms: C_8  and  C_22
    8  A    between atoms: C_8  and  C_35
    9  A    between atoms: C_10  and  C_32
   10  A    between atoms: C_16  and  C_17
   11  A    between atoms: C_16  and  O_26
   12  A    between atoms: C_17  and  C_23
   13  A    between atoms: C_17  and  C_33
   14  A    between atoms: C_19  and  C_40
   15  A    between atoms: C_19  and  C_45
   16  A    between atoms: O_26  and  C_45
   17  A    between atoms: C_27  and  C_54
   18  A    between atoms: C_28  and  C_49
   19  A    between atoms: C_33  and  C_36
   20  A    between atoms: C_33  and  C_49
   21  A    between atoms: C_35  and  C_43
   22  A    between atoms: C_43  and  C_51
   23  A    between atoms: C_51  and  C_54
                            x       y       z     vdW  Elec       q    Type
                         _______ _______ _______ _____ _____    ______ ____

>  <TORSDO>
F 23

$$$$
=
 OpenBabel10272401293D

 55 60  0  0  1  0  0  0  0  0999 V2000
  192.3720  176.6620  138.6030 C   0  0  0  0  0  3  0  0  0  0  0  0
  191.3080  177.3420  141.1010 C   0  0  0  0  0  0  0  0  0  0  0  0
  190.4540  177.0610  140.0260 C   0  0  0  0  0  3  0  0  0  0  0  0
  193.2250  176.9360  139.6750 C   0  0  0  0  0  3  0  0  0  0  0  0
  190.9840  176.7220  138.7770 C   0  0  0  0  0  0  0  0  0  0  0  0
  192.6930  177.2720  140.9250 C   0  0  0  0  0  3  0  0  0  0  0  0
  190.7460  177.7010  142.4370 C   0  0  0  0  0  2  0  0  0  0  0  0
  191.6050  177.1480  143.5690 C   0  0  0  0  0  2  0  0  0  0  0  0
  191.2400  177.7910  144.9000 C   0  0  0  0  0  2  0  0  0  0  0  0
  189.7360  177.9950  145.0170 C   0  0  0  0  0  2  0  0  0  0  0  0
  188.9820  176.8940  144.2930 C   0  0  0  0  0  2  0  0  0  0  0  0
  187.5380  176.8790  144.7500 C   0  0  0  0  0  2  0  0  0  0  0  0
  186.7090  177.3320  143.7140 O   0  0  0  0  0  0  0  0  0  0  0  0
  185.6270  178.0410  144.2810 C   0  0  1  0  0  3  0  0  0  0  0  0
  185.8790  178.5860  145.6900 C   0  0  0  0  0  1  0  0  0  0  0  0
  182.8870  179.9060  144.3850 O   0  0  0  0  0  1  0  0  0  0  0  0
  184.8380  178.9410  143.3010 C   0  0  1  0  0  0  0  0  0  0  0  0
  181.8580  177.2110  140.2760 C   0  0  0  0  0  3  0  0  0  0  0  0
  182.8360  177.6890  143.8780 F   0  0  0  0  0  0  0  0  0  0  0  0
  183.3070  178.9290  143.4780 C   0  0  1  0  0  0  0  0  0  0  0  0
  180.9860  177.9740  140.9250 C   0  0  0  0  0  3  0  0  0  0  0  0
  181.4110  178.8680  141.9150 O   0  0  0  0  0  0  0  0  0  0  0  0
  183.7570  178.6150  141.0960 C   0  0  2  0  0  3  0  0  0  0  0  0
  182.7820  179.2540  142.0930 C   0  0  2  0  0  3  0  0  0  0  0  0
  185.2960  180.2450  143.4430 F   0  0  0  0  0  0  0  0  0  0  0  0
  183.2980  177.2200  140.6740 C   0  0  0  0  0  2  0  0  0  0  0  0
  185.0690  178.4610  141.8570 C   0  0  1  0  0  3  0  0  0  0  0  0
  186.2040  179.1620  141.1660 C   0  0  0  0  0  3  0  0  0  0  0  0
  187.2100  178.4120  140.4700 S   0  0  0  0  0  0  0  0  0  0  0  0
  190.0640  176.3890  137.6510 C   0  0  0  0  0  2  0  0  0  0  0  0
  189.6920  177.6380  136.8610 C   0  0  0  0  0  2  0  0  0  0  0  0
  189.4510  177.3060  135.3950 C   0  0  0  0  0  2  0  0  0  0  0  0
  188.4160  176.1900  135.2560 C   0  0  1  0  0  3  0  0  0  0  0  0
  185.9540  176.7360  136.8470 C   0  0  0  0  0  2  0  0  0  0  0  0
  183.8230  177.0410  136.1080 C   0  0  2  0  0  3  0  0  0  0  0  0
  185.9960  176.8820  135.3540 C   0  0  1  0  0  0  0  0  0  0  0  0
  187.2110  176.6810  134.4590 C   0  0  1  0  0  3  0  0  0  0  0  0
  184.6180  176.9190  134.8180 C   0  0  0  0  0  2  0  0  0  0  0  0
  184.5970  176.5900  137.2060 O   0  0  0  0  0  0  0  0  0  0  0  0
  186.8130  178.0800  134.9210 C   0  0  0  0  0  2  0  0  0  0  0  0
  182.5480  176.2720  136.0100 C   0  0  0  0  0  0  0  0  0  0  0  0
  181.4910  176.5900  136.8580 O   0  0  0  0  0  1  0  0  0  0  0  0
  182.4090  175.3610  135.1440 O   0  0  0  0  0  0  0  0  0  0  0  0
  188.9890  174.8970  134.6540 C   0  0  1  0  0  3  0  0  0  0  0  0
  190.8740  173.3890  134.8460 O   0  0  0  0  0  1  0  0  0  0  0  0
  190.5030  174.7390  134.8410 C   0  0  0  0  0  2  0  0  0  0  0  0
  188.2210  173.6640  135.1130 C   0  0  0  0  0  2  0  0  0  0  0  0
  187.4460  173.9760  136.2630 O   0  0  0  0  0  0  0  0  0  0  0  0
  187.5030  171.9550  137.3420 O   0  0  0  0  0  0  0  0  0  0  0  0
  186.8510  172.9920  137.0570 C   0  0  0  0  0  0  0  0  0  0  0  0
  185.4750  173.1590  137.6170 C   0  0  0  0  0  2  0  0  0  0  0  0
  184.5580  171.4300  136.1100 C   0  0  2  0  0  3  0  0  0  0  0  0
  184.0080  171.2950  134.7080 C   0  0  0  0  0  1  0  0  0  0  0  0
  183.4460  171.8520  137.0500 C   0  0  0  0  0  2  0  0  0  0  0  0
  184.4380  172.8770  136.5460 C   0  0  1  0  0  3  0  0  0  0  0  0
  1  5  2  0  0  0  0
  1  4  1  0  0  0  0
  2  7  1  0  0  0  0
  3  2  2  0  0  0  0
  4  6  2  0  0  0  0
  5  3  1  0  0  0  0
  6  2  1  0  0  0  0
  7  8  1  0  0  0  0
  8  9  1  0  0  0  0
  9 10  1  0  0  0  0
 11 12  1  0  0  0  0
 11 10  1  0  0  0  0
 13 14  1  0  0  0  0
 13 12  1  0  0  0  0
 14 15  1  1  0  0  0
 17 25  1  1  0  0  0
 17 20  1  0  0  0  0
 17 14  1  0  0  0  0
 18 26  1  0  0  0  0
 18 21  2  0  0  0  0
 20 19  1  1  0  0  0
 20 16  1  0  0  0  0
 21 22  1  0  0  0  0
 23 26  1  1  0  0  0
 23 27  1  0  0  0  0
 23 24  1  0  0  0  0
 24 22  1  1  0  0  0
 24 20  1  0  0  0  0
 27 28  1  6  0  0  0
 27 17  1  0  0  0  0
 29 28  2  0  0  0  0
 30  5  1  0  0  0  0
 31 30  1  0  0  0  0
 32 31  1  0  0  0  0
 33 32  1  6  0  0  0
 34 39  1  0  0  0  0
 35 41  1  6  0  0  0
 35 39  1  0  0  0  0
 36 38  1  6  0  0  0
 36 34  1  0  0  0  0
 37 40  1  0  0  0  0
 37 33  1  1  0  0  0
 37 36  1  0  0  0  0
 38 35  1  0  0  0  0
 40 36  1  0  0  0  0
 41 42  1  0  0  0  0
 43 41  2  0  0  0  0
 44 46  1  1  0  0  0
 44 47  1  0  0  0  0
 44 33  1  0  0  0  0
 46 45  1  0  0  0  0
 47 48  1  0  0  0  0
 48 50  1  0  0  0  0
 50 49  2  0  0  0  0
 50 51  1  0  0  0  0
 52 53  1  6  0  0  0
 52 55  1  0  0  0  0
 52 54  1  0  0  0  0
 55 54  1  0  0  0  0
 55 51  1  1  0  0  0
M  END
>  <MODEL>
9

>  <REMARK>
 VINA RESULT:      -5.3      3.198      9.796
  Name = 
  23 active torsions:
  status: ('A' for Active; 'I' for Inactive)
    1  A    between atoms: C_1  and  C_53
    2  A    between atoms: C_2  and  C_28
    3  A    between atoms: C_2  and  C_44
    4  A    between atoms: C_6  and  C_20
    5  A    between atoms: O_7  and  C_20
    6  A    between atoms: O_7  and  C_22
    7  A    between atoms: C_8  and  C_22
    8  A    between atoms: C_8  and  C_35
    9  A    between atoms: C_10  and  C_32
   10  A    between atoms: C_16  and  C_17
   11  A    between atoms: C_16  and  O_26
   12  A    between atoms: C_17  and  C_23
   13  A    between atoms: C_17  and  C_33
   14  A    between atoms: C_19  and  C_40
   15  A    between atoms: C_19  and  C_45
   16  A    between atoms: O_26  and  C_45
   17  A    between atoms: C_27  and  C_54
   18  A    between atoms: C_28  and  C_49
   19  A    between atoms: C_33  and  C_36
   20  A    between atoms: C_33  and  C_49
   21  A    between atoms: C_35  and  C_43
   22  A    between atoms: C_43  and  C_51
   23  A    between atoms: C_51  and  C_54
                            x       y       z     vdW  Elec       q    Type
                         _______ _______ _______ _____ _____    ______ ____

>  <TORSDO>
F 23

$$$$
