=
 OpenBabel10272400583D

 27 31  0  0  1  0  0  0  0  0999 V2000
  187.0840  177.2540  144.3280 C   0  0  0  0  0  3  0  0  0  0  0  0
  187.0520  178.0700  141.9800 C   0  0  0  0  0  0  0  0  0  0  0  0
  189.4280  178.1820  142.6490 C   0  0  0  0  0  3  0  0  0  0  0  0
  188.8570  177.7850  137.8960 S   0  0  0  0  0  0  0  0  0  0  0  0
  191.2010  176.3350  137.6530 C   0  0  0  0  0  1  0  0  0  0  0  0
  186.3630  178.6870  140.8090 C   0  0  0  0  0  3  0  0  0  0  0  0
  190.0410  176.8520  139.8250 C   0  0  0  0  0  0  0  0  0  0  0  0
  190.8920  176.2570  140.5430 O   0  0  0  0  0  0  0  0  0  0  0  0
  188.8950  177.4820  140.3530 C   0  0  1  0  0  3  0  0  0  0  0  0
  186.4230  177.9340  143.1780 C   0  0  0  0  0  0  0  0  0  0  0  0
  190.1690  176.9410  138.4740 N   0  0  0  0  0  0  0  0  0  0  0  0
  188.1270  178.0680  139.3670 C   0  0  0  0  0  0  0  0  0  0  0  0
  188.3770  177.2980  144.6860 C   0  0  0  0  0  0  0  0  0  0  0  0
  188.4400  177.4690  141.7840 C   0  0  0  0  0  0  0  0  0  0  0  0
  186.8660  178.6830  139.6130 N   0  0  0  0  0  0  0  0  0  0  0  0
  189.3800  178.1320  143.9830 C   0  0  0  0  0  0  0  0  0  0  0  0
  182.3170  179.0870  143.8330 C   0  0  0  0  0  3  0  0  0  0  0  0
  185.0090  178.3590  143.4210 C   0  0  0  0  0  0  0  0  0  0  0  0
  184.5560  178.7570  144.6930 C   0  0  0  0  0  3  0  0  0  0  0  0
  183.2230  179.1260  144.8950 C   0  0  0  0  0  3  0  0  0  0  0  0
  182.7450  178.6760  142.5690 C   0  0  0  0  0  3  0  0  0  0  0  0
  184.0790  178.3140  142.3670 C   0  0  0  0  0  3  0  0  0  0  0  0
  191.6790  179.0390  143.8600 C   0  0  0  0  0  2  0  0  0  0  0  0
  191.7080  177.8680  144.8150 C   0  0  0  0  0  2  0  0  0  0  0  0
  190.4880  178.7780  144.7650 C   0  0  0  0  0  3  0  0  0  0  0  0
  188.8020  176.5570  145.7920 O   0  0  0  0  0  0  0  0  0  0  0  0
  188.5860  176.9830  147.0450 O   0  0  0  0  0  1  0  0  0  0  0  0
  1 13  1  0  0  0  0
  2 10  1  0  0  0  0
  3 16  1  0  0  0  0
  4 11  1  0  0  0  0
  4 12  1  0  0  0  0
  5 11  1  0  0  0  0
  6  2  2  0  0  0  0
  7  9  1  0  0  0  0
  7  8  2  0  0  0  0
  9 12  1  6  0  0  0
  9 14  1  0  0  0  0
 10 18  1  0  0  0  0
 10  1  2  0  0  0  0
 11  7  1  0  0  0  0
 12 15  2  0  0  0  0
 13 26  1  0  0  0  0
 14  2  1  0  0  0  0
 14  3  2  0  0  0  0
 15  6  1  0  0  0  0
 16 13  2  0  0  0  0
 16 25  1  0  0  0  0
 17 20  1  0  0  0  0
 18 19  1  0  0  0  0
 19 20  2  0  0  0  0
 21 17  2  0  0  0  0
 22 21  1  0  0  0  0
 22 18  2  0  0  0  0
 23 25  1  0  0  0  0
 23 24  1  0  0  0  0
 25 24  1  0  0  0  0
 26 27  1  0  0  0  0
M  END
>  <MODEL>
1

>  <REMARK>
 VINA RESULT:      -9.8      0.000      0.000
  Name = 
  3 active torsions:
  status: ('A' for Active; 'I' for Inactive)
    1  A    between atoms: C_9  and  C_15
    2  A    between atoms: C_18  and  O_22
    3  A    between atoms: C_20  and  C_26
                            x       y       z     vdW  Elec       q    Type
                         _______ _______ _______ _____ _____    ______ ____

>  <TORSDO>
F 3

$$$$
=
 OpenBabel10272400583D

 27 31  0  0  1  0  0  0  0  0999 V2000
  188.0110  176.7880  143.9790 C   0  0  0  0  0  3  0  0  0  0  0  0
  186.0160  178.2070  144.4100 C   0  0  0  0  0  0  0  0  0  0  0  0
  186.4520  178.4590  141.9920 C   0  0  0  0  0  3  0  0  0  0  0  0
  181.8680  179.3100  143.1500 S   0  0  0  0  0  0  0  0  0  0  0  0
  180.9850  178.3240  140.7200 C   0  0  0  0  0  1  0  0  0  0  0  0
  185.1480  179.0200  145.3120 C   0  0  0  0  0  3  0  0  0  0  0  0
  183.3170  178.0570  141.6260 C   0  0  0  0  0  0  0  0  0  0  0  0
  183.7440  177.4110  140.6290 O   0  0  0  0  0  0  0  0  0  0  0  0
  184.1150  178.3510  142.7510 C   0  0  0  0  0  0  0  0  0  0  0  0
  187.1790  177.6590  144.8560 C   0  0  0  0  0  0  0  0  0  0  0  0
  182.0440  178.5310  141.6910 N   0  0  0  0  0  0  0  0  0  0  0  0
  183.4220  179.0730  143.7020 C   0  0  0  0  0  0  0  0  0  0  0  0
  188.2380  176.9110  142.6610 C   0  0  0  0  0  0  0  0  0  0  0  0
  185.5190  177.8820  143.0060 C   0  0  2  0  0  3  0  0  0  0  0  0
  183.9590  179.4150  144.9750 N   0  0  0  0  0  0  0  0  0  0  0  0
  187.7110  178.0380  141.8540 C   0  0  0  0  0  0  0  0  0  0  0  0
  188.6750  178.1120  148.8770 C   0  0  0  0  0  3  0  0  0  0  0  0
  187.6730  177.8010  146.2610 C   0  0  0  0  0  0  0  0  0  0  0  0
  186.8340  178.2260  147.3090 C   0  0  0  0  0  3  0  0  0  0  0  0
  187.3300  178.3730  148.6080 C   0  0  0  0  0  3  0  0  0  0  0  0
  189.5250  177.7080  147.8460 C   0  0  0  0  0  3  0  0  0  0  0  0
  189.0270  177.5560  146.5500 C   0  0  0  0  0  3  0  0  0  0  0  0
  187.7850  178.4380  139.4130 C   0  0  0  0  0  2  0  0  0  0  0  0
  188.9100  177.4860  139.7470 C   0  0  0  0  0  2  0  0  0  0  0  0
  188.5340  178.5910  140.7260 C   0  0  0  0  0  3  0  0  0  0  0  0
  189.0340  175.9610  142.0160 O   0  0  0  0  0  0  0  0  0  0  0  0
  190.1190  175.4400  142.6070 O   0  0  0  0  0  1  0  0  0  0  0  0
  1 10  1  0  0  0  0
  2 10  2  0  0  0  0
  2  6  1  0  0  0  0
  4 12  1  0  0  0  0
  5 11  1  0  0  0  0
  7 11  1  0  0  0  0
  7  9  1  0  0  0  0
  8  7  2  0  0  0  0
  9 14  1  0  0  0  0
  9 12  2  0  0  0  0
 10 18  1  0  0  0  0
 11  4  1  0  0  0  0
 12 15  1  0  0  0  0
 13  1  2  0  0  0  0
 14  3  1  6  0  0  0
 14  2  1  0  0  0  0
 15  6  2  0  0  0  0
 16  3  2  0  0  0  0
 16 13  1  0  0  0  0
 18 22  2  0  0  0  0
 18 19  1  0  0  0  0
 19 20  2  0  0  0  0
 20 17  1  0  0  0  0
 21 17  2  0  0  0  0
 22 21  1  0  0  0  0
 23 24  1  0  0  0  0
 23 25  1  0  0  0  0
 24 25  1  0  0  0  0
 25 16  1  0  0  0  0
 26 27  1  0  0  0  0
 26 13  1  0  0  0  0
M  END
>  <MODEL>
2

>  <REMARK>
 VINA RESULT:      -9.2      3.293      5.846
  Name = 
  3 active torsions:
  status: ('A' for Active; 'I' for Inactive)
    1  A    between atoms: C_9  and  C_15
    2  A    between atoms: C_18  and  O_22
    3  A    between atoms: C_20  and  C_26
                            x       y       z     vdW  Elec       q    Type
                         _______ _______ _______ _____ _____    ______ ____

>  <TORSDO>
F 3

$$$$
=
 OpenBabel10272400583D

 27 31  0  0  1  0  0  0  0  0999 V2000
  186.5410  178.9010  141.8310 C   0  0  0  0  0  3  0  0  0  0  0  0
  186.1340  178.0740  144.1400 C   0  0  0  0  0  0  0  0  0  0  0  0
  188.3590  177.1840  143.5390 C   0  0  0  0  0  3  0  0  0  0  0  0
  187.7500  177.6080  148.2860 S   0  0  0  0  0  0  0  0  0  0  0  0
  190.4330  178.1700  148.6630 C   0  0  0  0  0  1  0  0  0  0  0  0
  185.2260  177.6920  145.2620 C   0  0  0  0  0  3  0  0  0  0  0  0
  189.2620  178.1420  146.4360 C   0  0  0  0  0  0  0  0  0  0  0  0
  190.2930  178.4350  145.7700 O   0  0  0  0  0  0  0  0  0  0  0  0
  187.9940  177.9540  145.8460 C   0  0  0  0  0  0  0  0  0  0  0  0
  185.6400  178.4510  142.9300 C   0  0  0  0  0  0  0  0  0  0  0  0
  189.2930  177.9750  147.7850 N   0  0  0  0  0  0  0  0  0  0  0  0
  187.0310  177.6330  146.7820 C   0  0  0  0  0  0  0  0  0  0  0  0
  187.7580  178.4330  141.5110 C   0  0  0  0  0  0  0  0  0  0  0  0
  187.6330  178.1630  144.4030 C   0  0  2  0  0  3  0  0  0  0  0  0
  185.6490  177.4890  146.4710 N   0  0  0  0  0  0  0  0  0  0  0  0
  188.3890  177.2870  142.2090 C   0  0  0  0  0  0  0  0  0  0  0  0
  181.4210  178.7830  142.0900 C   0  0  0  0  0  3  0  0  0  0  0  0
  184.1780  178.5380  142.6260 C   0  0  0  0  0  0  0  0  0  0  0  0
  183.6560  178.2050  141.3610 C   0  0  0  0  0  3  0  0  0  0  0  0
  182.2880  178.3190  141.0980 C   0  0  0  0  0  3  0  0  0  0  0  0
  181.9240  179.1350  143.3440 C   0  0  0  0  0  3  0  0  0  0  0  0
  183.2900  179.0140  143.6070 C   0  0  0  0  0  3  0  0  0  0  0  0
  190.4080  175.8580  142.2930 C   0  0  0  0  0  2  0  0  0  0  0  0
  190.6420  176.9040  141.2280 C   0  0  0  0  0  2  0  0  0  0  0  0
  189.2470  176.3280  141.4340 C   0  0  0  0  0  3  0  0  0  0  0  0
  188.4550  179.0190  140.4510 O   0  0  0  0  0  0  0  0  0  0  0  0
  188.1340  178.7620  139.1750 O   0  0  0  0  0  1  0  0  0  0  0  0
  1 10  1  0  0  0  0
  2 14  1  0  0  0  0
  2  6  1  0  0  0  0
  6 15  2  0  0  0  0
  7 11  1  0  0  0  0
  8  7  2  0  0  0  0
  9  7  1  0  0  0  0
  9 12  2  0  0  0  0
 10  2  2  0  0  0  0
 11  4  1  0  0  0  0
 11  5  1  0  0  0  0
 12  4  1  0  0  0  0
 13  1  2  0  0  0  0
 13 16  1  0  0  0  0
 14  3  1  6  0  0  0
 14  9  1  0  0  0  0
 15 12  1  0  0  0  0
 16  3  2  0  0  0  0
 17 21  1  0  0  0  0
 18 10  1  0  0  0  0
 18 22  1  0  0  0  0
 19 18  2  0  0  0  0
 20 19  1  0  0  0  0
 20 17  2  0  0  0  0
 21 22  2  0  0  0  0
 24 25  1  0  0  0  0
 24 23  1  0  0  0  0
 25 16  1  0  0  0  0
 25 23  1  0  0  0  0
 26 13  1  0  0  0  0
 27 26  1  0  0  0  0
M  END
>  <MODEL>
3

>  <REMARK>
 VINA RESULT:      -7.5      3.523      5.407
  Name = 
  3 active torsions:
  status: ('A' for Active; 'I' for Inactive)
    1  A    between atoms: C_9  and  C_15
    2  A    between atoms: C_18  and  O_22
    3  A    between atoms: C_20  and  C_26
                            x       y       z     vdW  Elec       q    Type
                         _______ _______ _______ _____ _____    ______ ____

>  <TORSDO>
F 3

$$$$
=
 OpenBabel10272400583D

 27 31  0  0  1  0  0  0  0  0999 V2000
  188.9920  176.4490  143.3440 C   0  0  0  0  0  3  0  0  0  0  0  0
  187.6610  177.7630  141.7060 C   0  0  0  0  0  0  0  0  0  0  0  0
  189.9060  177.5880  140.6910 C   0  0  0  0  0  3  0  0  0  0  0  0
  186.4450  178.2820  137.4320 S   0  0  0  0  0  0  0  0  0  0  0  0
  187.8110  176.7890  135.5440 C   0  0  0  0  0  1  0  0  0  0  0  0
  186.5230  178.6620  141.3520 C   0  0  0  0  0  3  0  0  0  0  0  0
  188.3720  176.8810  137.9940 C   0  0  0  0  0  0  0  0  0  0  0  0
  189.3560  176.0940  137.9070 O   0  0  0  0  0  0  0  0  0  0  0  0
  187.9440  177.4430  139.2150 C   0  0  0  0  0  0  0  0  0  0  0  0
  187.9000  177.4020  142.9960 C   0  0  0  0  0  0  0  0  0  0  0  0
  187.6470  177.2580  136.9080 N   0  0  0  0  0  0  0  0  0  0  0  0
  186.8560  178.2750  139.0470 C   0  0  0  0  0  0  0  0  0  0  0  0
  190.2080  176.3390  142.7840 C   0  0  0  0  0  0  0  0  0  0  0  0
  188.4850  177.1410  140.5840 C   0  0  2  0  0  3  0  0  0  0  0  0
  186.1630  178.8920  140.1270 N   0  0  0  0  0  0  0  0  0  0  0  0
  190.6890  177.2480  141.7170 C   0  0  0  0  0  0  0  0  0  0  0  0
  185.3930  178.6200  146.2880 C   0  0  0  0  0  3  0  0  0  0  0  0
  187.0540  177.8440  144.1470 C   0  0  0  0  0  0  0  0  0  0  0  0
  187.5550  177.9100  145.4610 C   0  0  0  0  0  3  0  0  0  0  0  0
  186.7330  178.3030  146.5220 C   0  0  0  0  0  3  0  0  0  0  0  0
  184.8750  178.5410  144.9950 C   0  0  0  0  0  3  0  0  0  0  0  0
  185.6990  178.1550  143.9350 C   0  0  0  0  0  3  0  0  0  0  0  0
  192.5640  177.9050  140.2420 C   0  0  0  0  0  2  0  0  0  0  0  0
  192.9510  176.6060  140.9100 C   0  0  0  0  0  2  0  0  0  0  0  0
  192.1390  177.6410  141.6760 C   0  0  0  0  0  3  0  0  0  0  0  0
  191.0810  175.3490  143.2430 O   0  0  0  0  0  0  0  0  0  0  0  0
  191.8830  175.5580  144.2970 O   0  0  0  0  0  1  0  0  0  0  0  0
  2 10  2  0  0  0  0
  3 16  2  0  0  0  0
  4 12  1  0  0  0  0
  5 11  1  0  0  0  0
  6  2  1  0  0  0  0
  7  9  1  0  0  0  0
  8  7  2  0  0  0  0
  9 14  1  0  0  0  0
 10  1  1  0  0  0  0
 10 18  1  0  0  0  0
 11  4  1  0  0  0  0
 11  7  1  0  0  0  0
 12  9  2  0  0  0  0
 12 15  1  0  0  0  0
 13 26  1  0  0  0  0
 13  1  2  0  0  0  0
 14  3  1  6  0  0  0
 14  2  1  0  0  0  0
 15  6  2  0  0  0  0
 16 13  1  0  0  0  0
 17 20  1  0  0  0  0
 18 19  1  0  0  0  0
 19 20  2  0  0  0  0
 21 17  2  0  0  0  0
 22 18  2  0  0  0  0
 22 21  1  0  0  0  0
 23 24  1  0  0  0  0
 23 25  1  0  0  0  0
 24 25  1  0  0  0  0
 25 16  1  0  0  0  0
 26 27  1  0  0  0  0
M  END
>  <MODEL>
4

>  <REMARK>
 VINA RESULT:      -7.1      2.213      2.884
  Name = 
  3 active torsions:
  status: ('A' for Active; 'I' for Inactive)
    1  A    between atoms: C_9  and  C_15
    2  A    between atoms: C_18  and  O_22
    3  A    between atoms: C_20  and  C_26
                            x       y       z     vdW  Elec       q    Type
                         _______ _______ _______ _____ _____    ______ ____

>  <TORSDO>
F 3

$$$$
=
 OpenBabel10272400583D

 27 31  0  0  1  0  0  0  0  0999 V2000
  186.1830  179.0780  144.3570 C   0  0  0  0  0  3  0  0  0  0  0  0
  187.9050  177.6330  143.2960 C   0  0  0  0  0  0  0  0  0  0  0  0
  186.0560  177.7050  141.6600 C   0  0  0  0  0  3  0  0  0  0  0  0
  190.2990  176.7470  139.6220 S   0  0  0  0  0  0  0  0  0  0  0  0
  189.5720  178.0610  137.2970 C   0  0  0  0  0  1  0  0  0  0  0  0
  189.0790  176.7130  143.3680 C   0  0  0  0  0  3  0  0  0  0  0  0
  188.3210  178.1820  139.4770 C   0  0  0  0  0  0  0  0  0  0  0  0
  187.4210  178.9520  139.0400 O   0  0  0  0  0  0  0  0  0  0  0  0
  188.3640  177.7310  140.8130 C   0  0  0  0  0  0  0  0  0  0  0  0
  187.3090  178.1040  144.4240 C   0  0  0  0  0  0  0  0  0  0  0  0
  189.3220  177.7150  138.6850 N   0  0  0  0  0  0  0  0  0  0  0  0
  189.4370  176.8940  141.0410 C   0  0  0  0  0  0  0  0  0  0  0  0
  185.1850  179.1320  143.4600 C   0  0  0  0  0  0  0  0  0  0  0  0
  187.4560  178.1490  141.9340 C   0  0  2  0  0  3  0  0  0  0  0  0
  189.7740  176.3780  142.3250 N   0  0  0  0  0  0  0  0  0  0  0  0
  185.0160  178.1290  142.3810 C   0  0  0  0  0  0  0  0  0  0  0  0
  188.7340  177.1820  148.3910 C   0  0  0  0  0  3  0  0  0  0  0  0
  187.7760  177.7700  145.8060 C   0  0  0  0  0  0  0  0  0  0  0  0
  186.9780  178.0070  146.9420 C   0  0  0  0  0  3  0  0  0  0  0  0
  187.4510  177.7080  148.2230 C   0  0  0  0  0  3  0  0  0  0  0  0
  189.5450  176.9590  147.2770 C   0  0  0  0  0  3  0  0  0  0  0  0
  189.0690  177.2520  145.9960 C   0  0  0  0  0  3  0  0  0  0  0  0
  183.6230  177.4010  140.4700 C   0  0  0  0  0  2  0  0  0  0  0  0
  183.0720  178.7240  140.9500 C   0  0  0  0  0  2  0  0  0  0  0  0
  183.6330  177.7260  141.9530 C   0  0  0  0  0  3  0  0  0  0  0  0
  184.2360  180.1530  143.5590 O   0  0  0  0  0  0  0  0  0  0  0  0
  183.1300  180.0110  144.3040 O   0  0  0  0  0  1  0  0  0  0  0  0
  1 10  1  0  0  0  0
  2  6  1  0  0  0  0
  2 10  2  0  0  0  0
  3 16  2  0  0  0  0
  4 12  1  0  0  0  0
  5 11  1  0  0  0  0
  7  9  1  0  0  0  0
  8  7  2  0  0  0  0
  9 12  2  0  0  0  0
  9 14  1  0  0  0  0
 10 18  1  0  0  0  0
 11  7  1  0  0  0  0
 11  4  1  0  0  0  0
 12 15  1  0  0  0  0
 13 26  1  0  0  0  0
 13  1  2  0  0  0  0
 14  3  1  6  0  0  0
 14  2  1  0  0  0  0
 15  6  2  0  0  0  0
 16 13  1  0  0  0  0
 18 22  2  0  0  0  0
 18 19  1  0  0  0  0
 19 20  2  0  0  0  0
 20 17  1  0  0  0  0
 21 17  2  0  0  0  0
 22 21  1  0  0  0  0
 23 24  1  0  0  0  0
 23 25  1  0  0  0  0
 24 25  1  0  0  0  0
 25 16  1  0  0  0  0
 26 27  1  0  0  0  0
M  END
>  <MODEL>
5

>  <REMARK>
 VINA RESULT:      -6.9      2.741      5.047
  Name = 
  3 active torsions:
  status: ('A' for Active; 'I' for Inactive)
    1  A    between atoms: C_9  and  C_15
    2  A    between atoms: C_18  and  O_22
    3  A    between atoms: C_20  and  C_26
                            x       y       z     vdW  Elec       q    Type
                         _______ _______ _______ _____ _____    ______ ____

>  <TORSDO>
F 3

$$$$
=
 OpenBabel10272400583D

 27 31  0  0  0  0  0  0  0  0999 V2000
  190.3590  175.2030  137.5410 C   0  0  0  0  0  3  0  0  0  0  0  0
  191.4960  176.5450  139.2970 C   0  0  0  0  0  0  0  0  0  0  0  0
  189.1760  177.3930  139.2660 C   0  0  0  0  0  3  0  0  0  0  0  0
  191.3570  178.1090  143.4860 S   0  0  0  0  0  0  0  0  0  0  0  0
  188.9720  177.8210  144.8600 C   0  0  0  0  0  1  0  0  0  0  0  0
  192.7180  177.1340  139.9200 C   0  0  0  0  0  2  0  0  0  0  0  0
  189.3250  177.2310  142.4400 C   0  0  0  0  0  0  0  0  0  0  0  0
  188.1380  176.8470  142.2500 O   0  0  0  0  0  0  0  0  0  0  0  0
  190.3160  177.1920  141.4360 C   0  0  0  0  0  0  0  0  0  0  0  0
  191.5650  175.8530  138.1280 C   0  0  0  0  0  0  0  0  0  0  0  0
  189.7450  177.7260  143.6340 N   0  0  0  0  0  0  0  0  0  0  0  0
  191.5280  177.6730  141.8860 C   0  0  0  0  0  0  0  0  0  0  0  0
  189.0930  175.6510  137.5350 C   0  0  0  0  0  0  0  0  0  0  0  0
  190.1760  176.6140  140.0560 C   0  0  0  0  0  0  0  0  0  0  0  0
  192.7210  177.6520  141.1090 N   0  0  0  0  0  0  0  0  0  0  0  0
  188.7030  176.9690  138.0920 C   0  0  0  0  0  0  0  0  0  0  0  0
  195.2210  175.0550  135.9820 C   0  0  0  0  0  3  0  0  0  0  0  0
  192.8410  175.6060  137.3880 C   0  0  0  0  0  0  0  0  0  0  0  0
  193.2940  176.4680  136.3700 C   0  0  0  0  0  3  0  0  0  0  0  0
  194.4790  176.1980  135.6780 C   0  0  0  0  0  3  0  0  0  0  0  0
  194.7770  174.1800  136.9750 C   0  0  0  0  0  3  0  0  0  0  0  0
  193.5970  174.4550  137.6700 C   0  0  0  0  0  3  0  0  0  0  0  0
  187.9080  177.9220  135.9510 C   0  0  0  0  0  2  0  0  0  0  0  0
  188.1520  179.0770  136.8940 C   0  0  0  0  0  2  0  0  0  0  0  0
  187.6100  177.7590  137.4310 C   0  0  0  0  0  3  0  0  0  0  0  0
  188.0960  174.8670  136.9500 O   0  0  0  0  0  0  0  0  0  0  0  0
  188.2210  174.3910  135.7030 O   0  0  0  0  0  1  0  0  0  0  0  0
  1 10  1  0  0  0  0
  2  6  1  0  0  0  0
  2 14  1  0  0  0  0
  3 14  1  0  0  0  0
  4 11  1  0  0  0  0
  6 15  1  0  0  0  0
  7 11  1  0  0  0  0
  8  7  2  0  0  0  0
  9 12  1  0  0  0  0
  9  7  1  0  0  0  0
 10  2  2  0  0  0  0
 11  5  1  0  0  0  0
 12  4  1  0  0  0  0
 13  1  2  0  0  0  0
 13 16  1  0  0  0  0
 14  9  2  0  0  0  0
 15 12  2  0  0  0  0
 16  3  2  0  0  0  0
 17 21  1  0  0  0  0
 18 22  1  0  0  0  0
 18 10  1  0  0  0  0
 19 18  2  0  0  0  0
 20 17  2  0  0  0  0
 20 19  1  0  0  0  0
 21 22  2  0  0  0  0
 23 24  1  0  0  0  0
 23 25  1  0  0  0  0
 24 25  1  0  0  0  0
 25 16  1  0  0  0  0
 26 13  1  0  0  0  0
 27 26  1  0  0  0  0
M  END
>  <MODEL>
6

>  <REMARK>
 VINA RESULT:      -6.9      3.718      8.565
  Name = 
  3 active torsions:
  status: ('A' for Active; 'I' for Inactive)
    1  A    between atoms: C_9  and  C_15
    2  A    between atoms: C_18  and  O_22
    3  A    between atoms: C_20  and  C_26
                            x       y       z     vdW  Elec       q    Type
                         _______ _______ _______ _____ _____    ______ ____

>  <TORSDO>
F 3

$$$$
