=
 OpenBabel10272413283D

 32 35  0  0  1  0  0  0  0  0999 V2000
  187.5000  177.8470  142.1790 C   0  0  0  0  0  0  0  0  0  0  0  0
  186.2180  178.0690  146.8490 N   0  0  0  0  0  0  0  0  0  0  0  0
  184.9630  178.4550  146.5040 C   0  0  0  0  0  3  0  0  0  0  0  0
  185.8560  178.5110  140.4480 C   0  0  0  0  0  0  0  0  0  0  0  0
  184.4140  178.4780  140.0090 C   0  0  2  0  0  3  0  0  0  0  0  0
  181.7200  178.6360  139.3580 C   0  0  0  0  0  2  0  0  0  0  0  0
  187.1670  177.8200  145.9090 C   0  0  0  0  0  3  0  0  0  0  0  0
  187.8450  177.6950  143.5570 C   0  0  0  0  0  0  0  0  0  0  0  0
  186.8770  177.9570  144.5400 C   0  0  0  0  0  0  0  0  0  0  0  0
  185.2770  178.5080  142.8060 C   0  0  0  0  0  0  0  0  0  0  0  0
  182.6290  179.6320  138.6280 C   0  0  0  0  0  2  0  0  0  0  0  0
  184.0350  179.7430  139.2370 C   0  0  0  0  0  2  0  0  0  0  0  0
  184.6250  178.6060  145.1600 C   0  0  0  0  0  3  0  0  0  0  0  0
  185.5840  178.3570  144.1660 C   0  0  0  0  0  0  0  0  0  0  0  0
  183.8970  178.9670  142.4170 C   0  0  0  0  0  2  0  0  0  0  0  0
  188.3360  177.5560  141.2130 N   0  0  0  0  0  0  0  0  0  0  0  0
  186.7330  178.7490  139.5730 O   0  0  0  0  0  0  0  0  0  0  0  0
  181.9960  178.6400  140.8590 C   0  0  0  0  0  2  0  0  0  0  0  0
  186.2300  178.2870  141.8400 N   0  0  0  0  0  0  0  0  0  0  0  0
  183.4400  178.2260  141.1760 C   0  0  1  0  0  3  0  0  0  0  0  0
  189.6980  177.0450  141.2870 C   0  0  0  0  0  2  0  0  0  0  0  0
  189.9380  178.2150  139.2480 F   0  0  0  0  0  0  0  0  0  0  0  0
  190.3210  177.0640  139.9090 C   0  0  0  0  0  2  0  0  0  0  0  0
  189.2260  177.3120  144.0140 C   0  0  0  0  0  2  0  0  0  0  0  0
  190.0320  178.5060  144.1930 N   0  0  0  0  0  2  0  0  0  0  0  0
  191.3910  178.0600  144.4450 C   0  0  0  0  0  2  0  0  0  0  0  0
  191.4010  176.5700  144.7300 C   0  0  0  0  0  2  0  0  0  0  0  0
  191.8860  176.3140  146.1470 C   0  0  0  0  0  2  0  0  0  0  0  0
  190.0790  177.1740  147.6940 C   0  0  0  0  0  0  0  0  0  0  0  0
  191.3450  177.3200  147.0490 N   0  0  0  0  0  2  0  0  0  0  0  0
  189.6000  178.2310  148.6220 C   0  0  0  0  0  1  0  0  0  0  0  0
  189.3610  176.1600  147.4810 O   0  0  0  0  0  0  0  0  0  0  0  0
  1  8  1  0  0  0  0
  3  2  1  0  0  0  0
  4 19  1  0  0  0  0
  5 12  1  1  0  0  0
  5  4  1  0  0  0  0
  5 20  1  0  0  0  0
  6 18  1  0  0  0  0
  7  2  2  0  0  0  0
  8 24  1  0  0  0  0
  8  9  2  0  0  0  0
  9  7  1  0  0  0  0
 10 14  2  0  0  0  0
 11 12  1  0  0  0  0
 11  6  1  0  0  0  0
 13  3  2  0  0  0  0
 14  9  1  0  0  0  0
 14 13  1  0  0  0  0
 15 10  1  0  0  0  0
 16 21  1  0  0  0  0
 16  1  2  0  0  0  0
 17  4  2  0  0  0  0
 19  1  1  0  0  0  0
 19 10  1  0  0  0  0
 20 18  1  6  0  0  0
 20 15  1  0  0  0  0
 22 23  1  0  0  0  0
 23 21  1  0  0  0  0
 24 25  1  0  0  0  0
 25 26  1  0  0  0  0
 26 27  1  0  0  0  0
 27 28  1  0  0  0  0
 28 30  1  0  0  0  0
 29 31  1  0  0  0  0
 30 29  1  0  0  0  0
 32 29  2  0  0  0  0
M  END
>  <MODEL>
1

>  <REMARK>
 VINA RESULT:      -8.6      0.000      0.000
  Name = 
  8 active torsions:
  status: ('A' for Active; 'I' for Inactive)
    1  A    between atoms: C_2  and  C_12
    2  A    between atoms: C_2  and  C_24
    3  A    between atoms: C_8  and  C_23
    4  A    between atoms: C_8  and  N_28
    5  A    between atoms: C_9  and  C_14
    6  A    between atoms: C_9  and  N_21
    7  A    between atoms: N_10  and  C_24
    8  A    between atoms: C_12  and  N_21
                            x       y       z     vdW  Elec       q    Type
                         _______ _______ _______ _____ _____    ______ ____

>  <TORSDO>
F 8

$$$$
=
 OpenBabel10272413283D

 32 35  0  0  1  0  0  0  0  0999 V2000
  187.7710  177.9380  142.7450 C   0  0  0  0  0  0  0  0  0  0  0  0
  183.8180  178.9540  145.3600 N   0  0  0  0  0  0  0  0  0  0  0  0
  184.4460  178.5560  146.4960 C   0  0  0  0  0  3  0  0  0  0  0  0
  189.7380  176.9430  143.8760 C   0  0  0  0  0  0  0  0  0  0  0  0
  190.6060  176.9350  145.1090 C   0  0  2  0  0  3  0  0  0  0  0  0
  192.0200  176.7510  147.4910 C   0  0  0  0  0  2  0  0  0  0  0  0
  184.4410  178.9130  144.1530 C   0  0  0  0  0  3  0  0  0  0  0  0
  186.4250  178.4130  142.8040 C   0  0  0  0  0  0  0  0  0  0  0  0
  185.7650  178.4520  144.0430 C   0  0  0  0  0  0  0  0  0  0  0  0
  187.7460  177.5640  145.1180 C   0  0  0  0  0  0  0  0  0  0  0  0
  192.1850  175.5610  146.5380 C   0  0  0  0  0  2  0  0  0  0  0  0
  191.1550  175.5370  145.3980 C   0  0  0  0  0  2  0  0  0  0  0  0
  185.7590  178.0900  146.4400 C   0  0  0  0  0  3  0  0  0  0  0  0
  186.4290  178.0350  145.2070 C   0  0  0  0  0  0  0  0  0  0  0  0
  188.4380  177.0910  146.3680 C   0  0  0  0  0  2  0  0  0  0  0  0
  188.4640  177.9370  141.6320 N   0  0  0  0  0  0  0  0  0  0  0  0
  190.2160  176.4510  142.8170 O   0  0  0  0  0  0  0  0  0  0  0  0
  190.5480  177.1090  147.6710 C   0  0  0  0  0  2  0  0  0  0  0  0
  188.3860  177.4890  143.9030 N   0  0  0  0  0  0  0  0  0  0  0  0
  189.8930  177.5190  146.3450 C   0  0  1  0  0  3  0  0  0  0  0  0
  188.0800  178.3830  140.3000 C   0  0  0  0  0  2  0  0  0  0  0  0
  189.1940  179.1510  138.3630 F   0  0  0  0  0  0  0  0  0  0  0  0
  189.2370  178.1820  139.3470 C   0  0  0  0  0  2  0  0  0  0  0  0
  185.6530  178.8300  141.5820 C   0  0  0  0  0  2  0  0  0  0  0  0
  184.5940  177.8730  141.3210 N   0  0  0  0  0  2  0  0  0  0  0  0
  183.5930  178.5630  140.5270 C   0  0  0  0  0  2  0  0  0  0  0  0
  182.9320  177.5900  139.5690 C   0  0  0  0  0  2  0  0  0  0  0  0
  183.2190  177.9960  138.1330 C   0  0  0  0  0  2  0  0  0  0  0  0
  185.6510  177.6920  137.5100 C   0  0  0  0  0  0  0  0  0  0  0  0
  184.3130  177.2000  137.5980 N   0  0  0  0  0  2  0  0  0  0  0  0
  186.7230  176.8150  136.9730 C   0  0  0  0  0  1  0  0  0  0  0  0
  185.9310  178.8640  137.8780 O   0  0  0  0  0  0  0  0  0  0  0  0
  1  8  1  0  0  0  0
  1 19  1  0  0  0  0
  2  3  1  0  0  0  0
  4 19  1  0  0  0  0
  4  5  1  0  0  0  0
  5 12  1  1  0  0  0
  5 20  1  0  0  0  0
  6 18  1  0  0  0  0
  7  2  2  0  0  0  0
  8  9  2  0  0  0  0
  9  7  1  0  0  0  0
  9 14  1  0  0  0  0
 10 14  2  0  0  0  0
 10 15  1  0  0  0  0
 11  6  1  0  0  0  0
 12 11  1  0  0  0  0
 13  3  2  0  0  0  0
 14 13  1  0  0  0  0
 16  1  2  0  0  0  0
 17  4  2  0  0  0  0
 19 10  1  0  0  0  0
 20 15  1  1  0  0  0
 20 18  1  0  0  0  0
 21 16  1  0  0  0  0
 22 23  1  0  0  0  0
 23 21  1  0  0  0  0
 24  8  1  0  0  0  0
 25 24  1  0  0  0  0
 26 25  1  0  0  0  0
 27 26  1  0  0  0  0
 28 27  1  0  0  0  0
 29 30  1  0  0  0  0
 29 32  2  0  0  0  0
 30 28  1  0  0  0  0
 31 29  1  0  0  0  0
M  END
>  <MODEL>
2

>  <REMARK>
 VINA RESULT:      -8.1      1.953      7.432
  Name = 
  8 active torsions:
  status: ('A' for Active; 'I' for Inactive)
    1  A    between atoms: C_2  and  C_12
    2  A    between atoms: C_2  and  C_24
    3  A    between atoms: C_8  and  C_23
    4  A    between atoms: C_8  and  N_28
    5  A    between atoms: C_9  and  C_14
    6  A    between atoms: C_9  and  N_21
    7  A    between atoms: N_10  and  C_24
    8  A    between atoms: C_12  and  N_21
                            x       y       z     vdW  Elec       q    Type
                         _______ _______ _______ _____ _____    ______ ____

>  <TORSDO>
F 8

$$$$
=
 OpenBabel10272413283D

 32 35  0  0  1  0  0  0  0  0999 V2000
  187.0530  178.0380  142.3440 C   0  0  0  0  0  0  0  0  0  0  0  0
  182.3490  178.9080  143.1320 N   0  0  0  0  0  0  0  0  0  0  0  0
  182.5340  178.7890  144.4720 C   0  0  0  0  0  3  0  0  0  0  0  0
  188.5190  177.5210  144.2730 C   0  0  0  0  0  0  0  0  0  0  0  0
  188.8630  177.8320  145.7070 C   0  0  2  0  0  3  0  0  0  0  0  0
  189.2960  178.2320  148.4200 C   0  0  0  0  0  2  0  0  0  0  0  0
  183.3790  178.7590  142.2580 C   0  0  0  0  0  3  0  0  0  0  0  0
  185.7520  178.3270  141.8270 C   0  0  0  0  0  0  0  0  0  0  0  0
  184.6770  178.4740  142.7170 C   0  0  0  0  0  0  0  0  0  0  0  0
  186.1700  178.0530  144.5780 C   0  0  0  0  0  0  0  0  0  0  0  0
  189.8860  176.9380  147.8460 C   0  0  0  0  0  2  0  0  0  0  0  0
  189.3600  176.5880  146.4460 C   0  0  0  0  0  2  0  0  0  0  0  0
  183.8020  178.5060  144.9780 C   0  0  0  0  0  3  0  0  0  0  0  0
  184.8850  178.3460  144.1000 C   0  0  0  0  0  0  0  0  0  0  0  0
  186.3770  177.8870  146.0600 C   0  0  0  0  0  2  0  0  0  0  0  0
  188.1090  177.9540  141.5720 N   0  0  0  0  0  0  0  0  0  0  0  0
  189.3910  176.9350  143.5730 O   0  0  0  0  0  0  0  0  0  0  0  0
  187.8410  178.4080  147.9920 C   0  0  0  0  0  2  0  0  0  0  0  0
  187.2210  177.8720  143.7090 N   0  0  0  0  0  0  0  0  0  0  0  0
  187.7020  178.5030  146.4670 C   0  0  1  0  0  3  0  0  0  0  0  0
  188.2200  178.1220  140.1300 C   0  0  0  0  0  2  0  0  0  0  0  0
  190.0130  176.6310  140.5110 F   0  0  0  0  0  0  0  0  0  0  0  0
  189.5740  177.6320  139.6660 C   0  0  0  0  0  2  0  0  0  0  0  0
  185.4650  178.4300  140.3540 C   0  0  0  0  0  2  0  0  0  0  0  0
  184.8570  179.7160  140.0620 N   0  0  0  0  0  2  0  0  0  0  0  0
  184.0380  179.5320  138.8770 C   0  0  0  0  0  2  0  0  0  0  0  0
  183.7390  178.0570  138.6800 C   0  0  0  0  0  2  0  0  0  0  0  0
  183.9890  177.6640  137.2340 C   0  0  0  0  0  2  0  0  0  0  0  0
  186.4340  177.0560  137.0120 C   0  0  0  0  0  0  0  0  0  0  0  0
  185.0640  176.6850  137.1620 N   0  0  0  0  0  2  0  0  0  0  0  0
  187.4810  176.0020  136.9680 C   0  0  0  0  0  1  0  0  0  0  0  0
  186.7660  178.2680  136.9110 O   0  0  0  0  0  0  0  0  0  0  0  0
  1 19  1  0  0  0  0
  2  3  1  0  0  0  0
  3 13  2  0  0  0  0
  4  5  1  0  0  0  0
  5 12  1  1  0  0  0
  5 20  1  0  0  0  0
  7  9  1  0  0  0  0
  7  2  2  0  0  0  0
  8  1  1  0  0  0  0
  8  9  2  0  0  0  0
  9 14  1  0  0  0  0
 10 15  1  0  0  0  0
 11  6  1  0  0  0  0
 12 11  1  0  0  0  0
 14 10  2  0  0  0  0
 14 13  1  0  0  0  0
 16  1  2  0  0  0  0
 17  4  2  0  0  0  0
 18  6  1  0  0  0  0
 19  4  1  0  0  0  0
 19 10  1  0  0  0  0
 20 15  1  6  0  0  0
 20 18  1  0  0  0  0
 21 16  1  0  0  0  0
 23 21  1  0  0  0  0
 23 22  1  0  0  0  0
 24  8  1  0  0  0  0
 25 24  1  0  0  0  0
 26 25  1  0  0  0  0
 27 26  1  0  0  0  0
 28 27  1  0  0  0  0
 29 30  1  0  0  0  0
 30 28  1  0  0  0  0
 31 29  1  0  0  0  0
 32 29  2  0  0  0  0
M  END
>  <MODEL>
3

>  <REMARK>
 VINA RESULT:      -8.1      2.170      7.222
  Name = 
  8 active torsions:
  status: ('A' for Active; 'I' for Inactive)
    1  A    between atoms: C_2  and  C_12
    2  A    between atoms: C_2  and  C_24
    3  A    between atoms: C_8  and  C_23
    4  A    between atoms: C_8  and  N_28
    5  A    between atoms: C_9  and  C_14
    6  A    between atoms: C_9  and  N_21
    7  A    between atoms: N_10  and  C_24
    8  A    between atoms: C_12  and  N_21
                            x       y       z     vdW  Elec       q    Type
                         _______ _______ _______ _____ _____    ______ ____

>  <TORSDO>
F 8

$$$$
=
 OpenBabel10272413283D

 32 35  0  0  1  0  0  0  0  0999 V2000
  186.4830  178.4560  141.0160 C   0  0  0  0  0  0  0  0  0  0  0  0
  186.0590  178.0650  145.8290 N   0  0  0  0  0  0  0  0  0  0  0  0
  184.7250  178.3050  145.7480 C   0  0  0  0  0  3  0  0  0  0  0  0
  184.4840  179.0450  139.6770 C   0  0  0  0  0  0  0  0  0  0  0  0
  183.0000  178.8550  139.4870 C   0  0  2  0  0  3  0  0  0  0  0  0
  180.2330  178.7010  139.3230 C   0  0  0  0  0  2  0  0  0  0  0  0
  186.8430  178.0380  144.7200 C   0  0  0  0  0  3  0  0  0  0  0  0
  187.0900  178.2250  142.2890 C   0  0  0  0  0  0  0  0  0  0  0  0
  186.2940  178.2600  143.4460 C   0  0  0  0  0  0  0  0  0  0  0  0
  184.3500  178.7440  142.0820 C   0  0  0  0  0  0  0  0  0  0  0  0
  180.8690  179.8760  138.5700 C   0  0  0  0  0  2  0  0  0  0  0  0
  182.3390  180.1230  138.9410 C   0  0  0  0  0  2  0  0  0  0  0  0
  184.1320  178.5320  144.5080 C   0  0  0  0  0  3  0  0  0  0  0  0
  184.9160  178.5110  143.3440 C   0  0  0  0  0  0  0  0  0  0  0  0
  182.8780  179.0430  141.9880 C   0  0  0  0  0  2  0  0  0  0  0  0
  187.1580  178.3730  139.8950 N   0  0  0  0  0  0  0  0  0  0  0  0
  185.1510  179.4820  138.6990 O   0  0  0  0  0  0  0  0  0  0  0  0
  180.7760  178.6030  140.7460 C   0  0  0  0  0  2  0  0  0  0  0  0
  185.1300  178.7470  140.9500 N   0  0  0  0  0  0  0  0  0  0  0  0
  182.2930  178.3640  140.7640 C   0  0  1  0  0  3  0  0  0  0  0  0
  188.5610  178.0500  139.6790 C   0  0  0  0  0  2  0  0  0  0  0  0
  189.2250  179.4780  137.9170 F   0  0  0  0  0  0  0  0  0  0  0  0
  188.8860  178.1700  138.2060 C   0  0  0  0  0  2  0  0  0  0  0  0
  188.5670  177.9950  142.4590 C   0  0  0  0  0  2  0  0  0  0  0  0
  188.8250  176.5780  142.6400 N   0  0  0  0  0  2  0  0  0  0  0  0
  190.2610  176.4320  142.8000 C   0  0  0  0  0  2  0  0  0  0  0  0
  190.8480  177.7040  143.3830 C   0  0  0  0  0  2  0  0  0  0  0  0
  191.2920  177.4630  144.8160 C   0  0  0  0  0  2  0  0  0  0  0  0
  190.1010  177.0650  147.0110 C   0  0  0  0  0  0  0  0  0  0  0  0
  190.1800  177.6870  145.7280 N   0  0  0  0  0  2  0  0  0  0  0  0
  188.9460  177.3590  147.8990 C   0  0  0  0  0  1  0  0  0  0  0  0
  190.9960  176.2670  147.3960 O   0  0  0  0  0  0  0  0  0  0  0  0
  1  8  1  0  0  0  0
  3  2  1  0  0  0  0
  4 19  1  0  0  0  0
  5 12  1  1  0  0  0
  5  4  1  0  0  0  0
  5 20  1  0  0  0  0
  6 18  1  0  0  0  0
  7  2  2  0  0  0  0
  8 24  1  0  0  0  0
  8  9  2  0  0  0  0
  9  7  1  0  0  0  0
 10 14  2  0  0  0  0
 11 12  1  0  0  0  0
 11  6  1  0  0  0  0
 13  3  2  0  0  0  0
 14  9  1  0  0  0  0
 14 13  1  0  0  0  0
 15 10  1  0  0  0  0
 16  1  2  0  0  0  0
 17  4  2  0  0  0  0
 19  1  1  0  0  0  0
 19 10  1  0  0  0  0
 20 18  1  6  0  0  0
 20 15  1  0  0  0  0
 21 16  1  0  0  0  0
 22 23  1  0  0  0  0
 23 21  1  0  0  0  0
 24 25  1  0  0  0  0
 25 26  1  0  0  0  0
 26 27  1  0  0  0  0
 27 28  1  0  0  0  0
 28 30  1  0  0  0  0
 29 32  2  0  0  0  0
 29 31  1  0  0  0  0
 30 29  1  0  0  0  0
M  END
>  <MODEL>
4

>  <REMARK>
 VINA RESULT:      -8.1      1.329      1.663
  Name = 
  8 active torsions:
  status: ('A' for Active; 'I' for Inactive)
    1  A    between atoms: C_2  and  C_12
    2  A    between atoms: C_2  and  C_24
    3  A    between atoms: C_8  and  C_23
    4  A    between atoms: C_8  and  N_28
    5  A    between atoms: C_9  and  C_14
    6  A    between atoms: C_9  and  N_21
    7  A    between atoms: N_10  and  C_24
    8  A    between atoms: C_12  and  N_21
                            x       y       z     vdW  Elec       q    Type
                         _______ _______ _______ _____ _____    ______ ____

>  <TORSDO>
F 8

$$$$
=
 OpenBabel10272413283D

 32 35  0  0  1  0  0  0  0  0999 V2000
  187.5150  177.9880  142.5320 C   0  0  0  0  0  0  0  0  0  0  0  0
  183.5540  179.0230  145.1280 N   0  0  0  0  0  0  0  0  0  0  0  0
  184.1870  178.6550  146.2710 C   0  0  0  0  0  3  0  0  0  0  0  0
  189.4920  177.0370  143.6830 C   0  0  0  0  0  0  0  0  0  0  0  0
  190.3600  177.0630  144.9160 C   0  0  2  0  0  3  0  0  0  0  0  0
  191.7780  176.9440  147.3000 C   0  0  0  0  0  2  0  0  0  0  0  0
  184.1770  178.9620  143.9220 C   0  0  0  0  0  3  0  0  0  0  0  0
  186.1650  178.4520  142.5820 C   0  0  0  0  0  0  0  0  0  0  0  0
  185.5050  178.5120  143.8200 C   0  0  0  0  0  0  0  0  0  0  0  0
  187.4950  177.6650  144.9130 C   0  0  0  0  0  0  0  0  0  0  0  0
  191.9540  175.7360  146.3720 C   0  0  0  0  0  2  0  0  0  0  0  0
  190.9240  175.6770  145.2340 C   0  0  0  0  0  2  0  0  0  0  0  0
  185.5030  178.2010  146.2240 C   0  0  0  0  0  3  0  0  0  0  0  0
  186.1730  178.1260  144.9930 C   0  0  0  0  0  0  0  0  0  0  0  0
  188.1920  177.2250  146.1720 C   0  0  0  0  0  2  0  0  0  0  0  0
  188.2080  177.9700  141.4190 N   0  0  0  0  0  0  0  0  0  0  0  0
  189.9750  176.5270  142.6350 O   0  0  0  0  0  0  0  0  0  0  0  0
  190.3020  177.2920  147.4730 C   0  0  0  0  0  2  0  0  0  0  0  0
  188.1350  177.5700  143.6990 N   0  0  0  0  0  0  0  0  0  0  0  0
  189.6430  177.6670  146.1390 C   0  0  1  0  0  3  0  0  0  0  0  0
  187.8180  178.3840  140.0780 C   0  0  0  0  0  2  0  0  0  0  0  0
  190.1320  177.9770  139.8230 F   0  0  0  0  0  0  0  0  0  0  0  0
  188.9530  178.1110  139.1160 C   0  0  0  0  0  2  0  0  0  0  0  0
  185.3880  178.8350  141.3520 C   0  0  0  0  0  2  0  0  0  0  0  0
  184.5090  177.7460  140.9680 N   0  0  0  0  0  2  0  0  0  0  0  0
  183.6410  178.2580  139.9220 C   0  0  0  0  0  2  0  0  0  0  0  0
  182.8150  179.4120  140.4560 C   0  0  0  0  0  2  0  0  0  0  0  0
  181.3400  179.0470  140.4440 C   0  0  0  0  0  2  0  0  0  0  0  0
  180.4510  179.1770  142.8080 C   0  0  0  0  0  0  0  0  0  0  0  0
  180.9690  178.4280  141.7080 N   0  0  0  0  0  2  0  0  0  0  0  0
  180.0710  178.4740  144.0620 C   0  0  0  0  0  1  0  0  0  0  0  0
  180.3160  180.4270  142.7300 O   0  0  0  0  0  0  0  0  0  0  0  0
  1  8  1  0  0  0  0
  1 19  1  0  0  0  0
  2  3  1  0  0  0  0
  4 19  1  0  0  0  0
  4  5  1  0  0  0  0
  5 12  1  1  0  0  0
  5 20  1  0  0  0  0
  6 18  1  0  0  0  0
  7  2  2  0  0  0  0
  8  9  2  0  0  0  0
  9  7  1  0  0  0  0
  9 14  1  0  0  0  0
 10 14  2  0  0  0  0
 10 15  1  0  0  0  0
 11  6  1  0  0  0  0
 12 11  1  0  0  0  0
 13  3  2  0  0  0  0
 14 13  1  0  0  0  0
 16  1  2  0  0  0  0
 17  4  2  0  0  0  0
 19 10  1  0  0  0  0
 20 15  1  1  0  0  0
 20 18  1  0  0  0  0
 21 16  1  0  0  0  0
 23 22  1  0  0  0  0
 23 21  1  0  0  0  0
 24  8  1  0  0  0  0
 25 24  1  0  0  0  0
 26 27  1  0  0  0  0
 26 25  1  0  0  0  0
 28 27  1  0  0  0  0
 28 30  1  0  0  0  0
 29 31  1  0  0  0  0
 30 29  1  0  0  0  0
 32 29  2  0  0  0  0
M  END
>  <MODEL>
5

>  <REMARK>
 VINA RESULT:      -8.1      2.325      7.309
  Name = 
  8 active torsions:
  status: ('A' for Active; 'I' for Inactive)
    1  A    between atoms: C_2  and  C_12
    2  A    between atoms: C_2  and  C_24
    3  A    between atoms: C_8  and  C_23
    4  A    between atoms: C_8  and  N_28
    5  A    between atoms: C_9  and  C_14
    6  A    between atoms: C_9  and  N_21
    7  A    between atoms: N_10  and  C_24
    8  A    between atoms: C_12  and  N_21
                            x       y       z     vdW  Elec       q    Type
                         _______ _______ _______ _____ _____    ______ ____

>  <TORSDO>
F 8

$$$$
=
 OpenBabel10272413283D

 32 35  0  0  1  0  0  0  0  0999 V2000
  186.8340  178.1560  142.2450 C   0  0  0  0  0  0  0  0  0  0  0  0
  182.1180  178.9320  143.0560 N   0  0  0  0  0  0  0  0  0  0  0  0
  182.3070  178.7880  144.3920 C   0  0  0  0  0  3  0  0  0  0  0  0
  188.3110  177.6220  144.1610 C   0  0  0  0  0  0  0  0  0  0  0  0
  188.6510  177.9080  145.6020 C   0  0  2  0  0  3  0  0  0  0  0  0
  189.0810  178.2570  148.3230 C   0  0  0  0  0  2  0  0  0  0  0  0
  183.1490  178.8190  142.1780 C   0  0  0  0  0  3  0  0  0  0  0  0
  185.5290  178.4350  141.7350 C   0  0  0  0  0  0  0  0  0  0  0  0
  184.4520  178.5450  142.6300 C   0  0  0  0  0  0  0  0  0  0  0  0
  185.9540  178.1090  144.4800 C   0  0  0  0  0  0  0  0  0  0  0  0
  189.6910  176.9850  147.7210 C   0  0  0  0  0  2  0  0  0  0  0  0
  189.1700  176.6570  146.3140 C   0  0  0  0  0  2  0  0  0  0  0  0
  183.5790  178.5150  144.8910 C   0  0  0  0  0  3  0  0  0  0  0  0
  184.6640  178.3910  144.0090 C   0  0  0  0  0  0  0  0  0  0  0  0
  186.1650  177.9150  145.9580 C   0  0  0  0  0  2  0  0  0  0  0  0
  187.8910  178.1060  141.4710 N   0  0  0  0  0  0  0  0  0  0  0  0
  189.1920  177.0650  143.4480 O   0  0  0  0  0  0  0  0  0  0  0  0
  187.6230  178.4180  147.9000 C   0  0  0  0  0  2  0  0  0  0  0  0
  187.0070  177.9640  143.6070 N   0  0  0  0  0  0  0  0  0  0  0  0
  187.4800  178.5440  146.3770 C   0  0  1  0  0  3  0  0  0  0  0  0
  187.9970  178.3060  140.0330 C   0  0  0  0  0  2  0  0  0  0  0  0
  189.8020  176.7820  140.0690 F   0  0  0  0  0  0  0  0  0  0  0  0
  189.4120  178.0150  139.5850 C   0  0  0  0  0  2  0  0  0  0  0  0
  185.2380  178.5650  140.2650 C   0  0  0  0  0  2  0  0  0  0  0  0
  184.7870  179.9130  139.9720 N   0  0  0  0  0  2  0  0  0  0  0  0
  183.8890  179.8160  138.8350 C   0  0  0  0  0  2  0  0  0  0  0  0
  183.6680  178.3590  138.4750 C   0  0  0  0  0  2  0  0  0  0  0  0
  182.2360  178.1480  138.0130 C   0  0  0  0  0  2  0  0  0  0  0  0
  180.8570  176.7050  139.5660 C   0  0  0  0  0  0  0  0  0  0  0  0
  181.7520  176.8510  138.4630 N   0  0  0  0  0  2  0  0  0  0  0  0
  180.3850  175.3500  139.9560 C   0  0  0  0  0  1  0  0  0  0  0  0
  180.4660  177.7110  140.2160 O   0  0  0  0  0  0  0  0  0  0  0  0
  1 19  1  0  0  0  0
  2  3  1  0  0  0  0
  3 13  2  0  0  0  0
  4  5  1  0  0  0  0
  5 12  1  1  0  0  0
  5 20  1  0  0  0  0
  7  9  1  0  0  0  0
  7  2  2  0  0  0  0
  8  1  1  0  0  0  0
  8  9  2  0  0  0  0
  9 14  1  0  0  0  0
 10 15  1  0  0  0  0
 11  6  1  0  0  0  0
 12 11  1  0  0  0  0
 14 10  2  0  0  0  0
 14 13  1  0  0  0  0
 16  1  2  0  0  0  0
 17  4  2  0  0  0  0
 18  6  1  0  0  0  0
 19  4  1  0  0  0  0
 19 10  1  0  0  0  0
 20 15  1  6  0  0  0
 20 18  1  0  0  0  0
 21 16  1  0  0  0  0
 23 21  1  0  0  0  0
 23 22  1  0  0  0  0
 24  8  1  0  0  0  0
 25 24  1  0  0  0  0
 26 25  1  0  0  0  0
 27 26  1  0  0  0  0
 28 30  1  0  0  0  0
 28 27  1  0  0  0  0
 29 31  1  0  0  0  0
 29 32  2  0  0  0  0
 30 29  1  0  0  0  0
M  END
>  <MODEL>
6

>  <REMARK>
 VINA RESULT:      -8.0      2.367      7.431
  Name = 
  8 active torsions:
  status: ('A' for Active; 'I' for Inactive)
    1  A    between atoms: C_2  and  C_12
    2  A    between atoms: C_2  and  C_24
    3  A    between atoms: C_8  and  C_23
    4  A    between atoms: C_8  and  N_28
    5  A    between atoms: C_9  and  C_14
    6  A    between atoms: C_9  and  N_21
    7  A    between atoms: N_10  and  C_24
    8  A    between atoms: C_12  and  N_21
                            x       y       z     vdW  Elec       q    Type
                         _______ _______ _______ _____ _____    ______ ____

>  <TORSDO>
F 8

$$$$
=
 OpenBabel10272413283D

 32 35  0  0  1  0  0  0  0  0999 V2000
  186.5060  178.3500  141.2420 C   0  0  0  0  0  0  0  0  0  0  0  0
  183.0300  179.1730  144.5200 N   0  0  0  0  0  0  0  0  0  0  0  0
  183.8620  178.7910  145.5230 C   0  0  0  0  0  3  0  0  0  0  0  0
  188.6790  177.4300  141.9990 C   0  0  0  0  0  0  0  0  0  0  0  0
  189.7470  177.4480  143.0630 C   0  0  2  0  0  3  0  0  0  0  0  0
  191.5600  177.3020  145.1600 C   0  0  0  0  0  2  0  0  0  0  0  0
  183.4350  179.1700  143.2230 C   0  0  0  0  0  3  0  0  0  0  0  0
  185.1720  178.7680  141.5420 C   0  0  0  0  0  0  0  0  0  0  0  0
  184.7370  178.7670  142.8770 C   0  0  0  0  0  0  0  0  0  0  0  0
  186.9090  177.9540  143.5770 C   0  0  0  0  0  0  0  0  0  0  0  0
  191.6050  176.1290  144.1720 C   0  0  0  0  0  2  0  0  0  0  0  0
  190.3940  176.0720  143.2290 C   0  0  0  0  0  2  0  0  0  0  0  0
  185.1620  178.3830  145.2320 C   0  0  0  0  0  3  0  0  0  0  0  0
  185.6100  178.3680  143.9020 C   0  0  0  0  0  0  0  0  0  0  0  0
  187.8260  177.4990  144.6800 C   0  0  0  0  0  2  0  0  0  0  0  0
  186.9940  178.3900  140.0260 N   0  0  0  0  0  0  0  0  0  0  0  0
  188.9850  176.9690  140.8650 O   0  0  0  0  0  0  0  0  0  0  0  0
  190.1280  177.5960  145.5980 C   0  0  0  0  0  2  0  0  0  0  0  0
  187.3310  177.9180  142.2680 N   0  0  0  0  0  0  0  0  0  0  0  0
  189.2360  177.9890  144.4120 C   0  0  1  0  0  3  0  0  0  0  0  0
  186.3660  178.8320  138.7890 C   0  0  0  0  0  2  0  0  0  0  0  0
  186.9980  178.8480  136.5120 F   0  0  0  0  0  0  0  0  0  0  0  0
  186.9240  178.0380  137.6280 C   0  0  0  0  0  2  0  0  0  0  0  0
  184.1840  179.1630  140.4790 C   0  0  0  0  0  2  0  0  0  0  0  0
  183.2880  178.0530  140.2070 N   0  0  0  0  0  2  0  0  0  0  0  0
  182.0870  178.6200  139.6190 C   0  0  0  0  0  2  0  0  0  0  0  0
  182.4530  179.7870  138.7210 C   0  0  0  0  0  2  0  0  0  0  0  0
  181.2330  180.6570  138.4720 C   0  0  0  0  0  2  0  0  0  0  0  0
  181.1130  182.9300  137.3700 C   0  0  0  0  0  0  0  0  0  0  0  0
  181.6260  182.0540  138.3750 N   0  0  0  0  0  2  0  0  0  0  0  0
  181.5420  184.3520  137.3450 C   0  0  0  0  0  1  0  0  0  0  0  0
  180.3030  182.5080  136.5010 O   0  0  0  0  0  0  0  0  0  0  0  0
  1  8  1  0  0  0  0
  1 19  1  0  0  0  0
  2  3  1  0  0  0  0
  4 19  1  0  0  0  0
  4  5  1  0  0  0  0
  5 12  1  1  0  0  0
  5 20  1  0  0  0  0
  6 18  1  0  0  0  0
  7  2  2  0  0  0  0
  8  9  2  0  0  0  0
  9  7  1  0  0  0  0
  9 14  1  0  0  0  0
 10 14  2  0  0  0  0
 10 15  1  0  0  0  0
 11  6  1  0  0  0  0
 12 11  1  0  0  0  0
 13  3  2  0  0  0  0
 14 13  1  0  0  0  0
 16  1  2  0  0  0  0
 17  4  2  0  0  0  0
 19 10  1  0  0  0  0
 20 15  1  1  0  0  0
 20 18  1  0  0  0  0
 21 16  1  0  0  0  0
 22 23  1  0  0  0  0
 23 21  1  0  0  0  0
 24  8  1  0  0  0  0
 25 24  1  0  0  0  0
 26 25  1  0  0  0  0
 27 26  1  0  0  0  0
 28 27  1  0  0  0  0
 29 30  1  0  0  0  0
 30 28  1  0  0  0  0
 31 29  1  0  0  0  0
 32 29  2  0  0  0  0
M  END
>  <MODEL>
7

>  <REMARK>
 VINA RESULT:      -7.9      2.780      8.075
  Name = 
  8 active torsions:
  status: ('A' for Active; 'I' for Inactive)
    1  A    between atoms: C_2  and  C_12
    2  A    between atoms: C_2  and  C_24
    3  A    between atoms: C_8  and  C_23
    4  A    between atoms: C_8  and  N_28
    5  A    between atoms: C_9  and  C_14
    6  A    between atoms: C_9  and  N_21
    7  A    between atoms: N_10  and  C_24
    8  A    between atoms: C_12  and  N_21
                            x       y       z     vdW  Elec       q    Type
                         _______ _______ _______ _____ _____    ______ ____

>  <TORSDO>
F 8

$$$$
=
 OpenBabel10272413283D

 32 35  0  0  1  0  0  0  0  0999 V2000
  189.6930  176.9770  142.2520 C   0  0  0  0  0  0  0  0  0  0  0  0
  185.1260  178.4190  143.0060 N   0  0  0  0  0  0  0  0  0  0  0  0
  185.3040  178.3370  144.3500 C   0  0  0  0  0  3  0  0  0  0  0  0
  191.1010  176.3760  144.2000 C   0  0  0  0  0  0  0  0  0  0  0  0
  191.4860  176.7060  145.6200 C   0  0  2  0  0  3  0  0  0  0  0  0
  191.9790  177.1690  148.3120 C   0  0  0  0  0  2  0  0  0  0  0  0
  186.1270  178.1150  142.1390 C   0  0  0  0  0  3  0  0  0  0  0  0
  188.4310  177.3920  141.7240 C   0  0  0  0  0  0  0  0  0  0  0  0
  187.3850  177.7010  142.6090 C   0  0  0  0  0  0  0  0  0  0  0  0
  188.8310  177.1900  144.4850 C   0  0  0  0  0  0  0  0  0  0  0  0
  192.4120  175.7920  147.7940 C   0  0  0  0  0  2  0  0  0  0  0  0
  191.8400  175.4460  146.4110 C   0  0  0  0  0  2  0  0  0  0  0  0
  186.5330  177.9310  144.8660 C   0  0  0  0  0  3  0  0  0  0  0  0
  187.5860  177.6090  143.9950 C   0  0  0  0  0  0  0  0  0  0  0  0
  189.0250  177.0650  145.9720 C   0  0  0  0  0  2  0  0  0  0  0  0
  190.7270  176.7380  141.4840 N   0  0  0  0  0  0  0  0  0  0  0  0
  191.8950  175.6640  143.5250 O   0  0  0  0  0  0  0  0  0  0  0  0
  190.5520  177.4940  147.8790 C   0  0  0  0  0  2  0  0  0  0  0  0
  189.8480  176.8510  143.6230 N   0  0  0  0  0  0  0  0  0  0  0  0
  190.4150  177.5390  146.3500 C   0  0  1  0  0  3  0  0  0  0  0  0
  190.8480  176.8310  140.0350 C   0  0  0  0  0  2  0  0  0  0  0  0
  192.8190  177.9250  140.7420 F   0  0  0  0  0  0  0  0  0  0  0  0
  192.2520  177.2610  139.6720 C   0  0  0  0  0  2  0  0  0  0  0  0
  188.1490  177.4660  140.2480 C   0  0  0  0  0  2  0  0  0  0  0  0
  188.3190  178.8310  139.7840 N   0  0  0  0  0  2  0  0  0  0  0  0
  188.2900  178.7850  138.3330 C   0  0  0  0  0  2  0  0  0  0  0  0
  187.4550  177.6060  137.8690 C   0  0  0  0  0  2  0  0  0  0  0  0
  186.1620  178.0980  137.2430 C   0  0  0  0  0  2  0  0  0  0  0  0
  184.4180  178.6080  139.0020 C   0  0  0  0  0  0  0  0  0  0  0  0
  185.0280  177.7140  138.0700 N   0  0  0  0  0  2  0  0  0  0  0  0
  183.2480  178.1540  139.7980 C   0  0  0  0  0  1  0  0  0  0  0  0
  184.8630  179.7760  139.1600 O   0  0  0  0  0  0  0  0  0  0  0  0
  1 19  1  0  0  0  0
  2  3  1  0  0  0  0
  3 13  2  0  0  0  0
  4  5  1  0  0  0  0
  5 20  1  0  0  0  0
  5 12  1  1  0  0  0
  7  9  1  0  0  0  0
  7  2  2  0  0  0  0
  8  1  1  0  0  0  0
  8  9  2  0  0  0  0
  9 14  1  0  0  0  0
 10 15  1  0  0  0  0
 11  6  1  0  0  0  0
 12 11  1  0  0  0  0
 14 10  2  0  0  0  0
 14 13  1  0  0  0  0
 16  1  2  0  0  0  0
 17  4  2  0  0  0  0
 18  6  1  0  0  0  0
 19  4  1  0  0  0  0
 19 10  1  0  0  0  0
 20 15  1  1  0  0  0
 20 18  1  0  0  0  0
 21 16  1  0  0  0  0
 23 21  1  0  0  0  0
 23 22  1  0  0  0  0
 24  8  1  0  0  0  0
 25 24  1  0  0  0  0
 26 25  1  0  0  0  0
 27 26  1  0  0  0  0
 28 27  1  0  0  0  0
 28 30  1  0  0  0  0
 29 32  2  0  0  0  0
 29 31  1  0  0  0  0
 30 29  1  0  0  0  0
M  END
>  <MODEL>
8

>  <REMARK>
 VINA RESULT:      -7.9      2.017      7.439
  Name = 
  8 active torsions:
  status: ('A' for Active; 'I' for Inactive)
    1  A    between atoms: C_2  and  C_12
    2  A    between atoms: C_2  and  C_24
    3  A    between atoms: C_8  and  C_23
    4  A    between atoms: C_8  and  N_28
    5  A    between atoms: C_9  and  C_14
    6  A    between atoms: C_9  and  N_21
    7  A    between atoms: N_10  and  C_24
    8  A    between atoms: C_12  and  N_21
                            x       y       z     vdW  Elec       q    Type
                         _______ _______ _______ _____ _____    ______ ____

>  <TORSDO>
F 8

$$$$
=
 OpenBabel10272413283D

 32 35  0  0  1  0  0  0  0  0999 V2000
  184.0220  178.6560  142.7960 C   0  0  0  0  0  0  0  0  0  0  0  0
  187.0960  178.4130  139.0560 N   0  0  0  0  0  0  0  0  0  0  0  0
  188.1470  178.2870  139.9060 C   0  0  0  0  0  3  0  0  0  0  0  0
  184.9280  178.6250  145.1010 C   0  0  0  0  0  0  0  0  0  0  0  0
  185.9540  178.0400  146.0390 C   0  0  2  0  0  3  0  0  0  0  0  0
  188.0160  177.1510  147.6720 C   0  0  0  0  0  2  0  0  0  0  0  0
  185.8240  178.5380  139.5150 C   0  0  0  0  0  3  0  0  0  0  0  0
  184.2430  178.6590  141.3840 C   0  0  0  0  0  0  0  0  0  0  0  0
  185.5540  178.5410  140.8950 C   0  0  0  0  0  0  0  0  0  0  0  0
  186.3840  178.4230  143.1680 C   0  0  0  0  0  0  0  0  0  0  0  0
  187.2920  178.4120  148.1590 C   0  0  0  0  0  2  0  0  0  0  0  0
  186.3940  179.0580  147.0940 C   0  0  0  0  0  2  0  0  0  0  0  0
  187.9330  178.2850  141.2830 C   0  0  0  0  0  3  0  0  0  0  0  0
  186.6300  178.4130  141.7880 C   0  0  0  0  0  0  0  0  0  0  0  0
  187.5470  178.3160  144.1170 C   0  0  0  0  0  2  0  0  0  0  0  0
  182.8190  178.6970  143.3150 N   0  0  0  0  0  0  0  0  0  0  0  0
  183.9110  179.1730  145.6090 O   0  0  0  0  0  0  0  0  0  0  0  0
  188.4000  177.2730  146.2000 C   0  0  0  0  0  2  0  0  0  0  0  0
  185.1060  178.5750  143.6550 N   0  0  0  0  0  0  0  0  0  0  0  0
  187.1680  177.4450  145.3000 C   0  0  1  0  0  3  0  0  0  0  0  0
  181.5230  178.7460  142.6510 C   0  0  0  0  0  2  0  0  0  0  0  0
  180.0020  177.6610  144.0960 F   0  0  0  0  0  0  0  0  0  0  0  0
  180.4310  178.9070  143.6850 C   0  0  0  0  0  2  0  0  0  0  0  0
  183.1330  178.8380  140.3850 C   0  0  0  0  0  2  0  0  0  0  0  0
  183.4080  179.9900  139.5460 N   0  0  0  0  0  2  0  0  0  0  0  0
  182.3090  180.0920  138.6020 C   0  0  0  0  0  2  0  0  0  0  0  0
  181.8710  181.5390  138.4740 C   0  0  0  0  0  2  0  0  0  0  0  0
  180.5210  181.6160  137.7820 C   0  0  0  0  0  2  0  0  0  0  0  0
  180.5720  183.7520  136.4290 C   0  0  0  0  0  0  0  0  0  0  0  0
  180.6470  182.3290  136.5200 N   0  0  0  0  0  2  0  0  0  0  0  0
  180.7320  184.4140  135.1090 C   0  0  0  0  0  1  0  0  0  0  0  0
  180.3660  184.4520  137.4560 O   0  0  0  0  0  0  0  0  0  0  0  0
  1 16  2  0  0  0  0
  1 19  1  0  0  0  0
  2  7  2  0  0  0  0
  2  3  1  0  0  0  0
  3 13  2  0  0  0  0
  4 17  2  0  0  0  0
  4  5  1  0  0  0  0
  5 12  1  1  0  0  0
  6 11  1  0  0  0  0
  7  9  1  0  0  0  0
  8  1  1  0  0  0  0
  9  8  2  0  0  0  0
  9 14  1  0  0  0  0
 10 19  1  0  0  0  0
 10 15  1  0  0  0  0
 12 11  1  0  0  0  0
 13 14  1  0  0  0  0
 14 10  2  0  0  0  0
 18  6  1  0  0  0  0
 19  4  1  0  0  0  0
 20 15  1  6  0  0  0
 20  5  1  0  0  0  0
 20 18  1  0  0  0  0
 21 16  1  0  0  0  0
 21 23  1  0  0  0  0
 23 22  1  0  0  0  0
 24  8  1  0  0  0  0
 25 24  1  0  0  0  0
 26 25  1  0  0  0  0
 27 26  1  0  0  0  0
 28 27  1  0  0  0  0
 29 30  1  0  0  0  0
 29 32  2  0  0  0  0
 30 28  1  0  0  0  0
 31 29  1  0  0  0  0
M  END
>  <MODEL>
9

>  <REMARK>
 VINA RESULT:      -7.8      3.882      9.341
  Name = 
  8 active torsions:
  status: ('A' for Active; 'I' for Inactive)
    1  A    between atoms: C_2  and  C_12
    2  A    between atoms: C_2  and  C_24
    3  A    between atoms: C_8  and  C_23
    4  A    between atoms: C_8  and  N_28
    5  A    between atoms: C_9  and  C_14
    6  A    between atoms: C_9  and  N_21
    7  A    between atoms: N_10  and  C_24
    8  A    between atoms: C_12  and  N_21
                            x       y       z     vdW  Elec       q    Type
                         _______ _______ _______ _____ _____    ______ ____

>  <TORSDO>
F 8

$$$$
