=
 OpenBabel10262423403D

 34 38  0  0  1  0  0  0  0  0999 V2000
  186.7360  178.0270  137.7620 C   0  0  0  0  0  0  0  0  0  0  0  0
  187.8310  178.0760  139.9970 C   0  0  0  0  0  0  0  0  0  0  0  0
  188.9020  176.8820  138.0140 C   0  0  0  0  0  0  0  0  0  0  0  0
  191.1980  174.8990  137.4650 C   0  0  0  0  0  3  0  0  0  0  0  0
  186.9780  178.8460  140.5120 O   0  0  0  0  0  0  0  0  0  0  0  0
  190.1040  177.2310  140.0680 N   0  0  0  0  0  2  0  0  0  0  0  0
  187.7610  177.6670  138.5690 C   0  0  2  0  0  3  0  0  0  0  0  0
  191.2480  176.0360  138.1790 C   0  0  0  0  0  0  0  0  0  0  0  0
  188.8000  176.3030  136.6300 C   0  0  0  0  0  0  0  0  0  0  0  0
  186.7530  177.6640  136.3240 C   0  0  0  0  0  3  0  0  0  0  0  0
  188.9170  177.5270  140.8600 C   0  0  0  0  0  2  0  0  0  0  0  0
  189.9800  174.1940  137.0180 C   0  0  0  0  0  3  0  0  0  0  0  0
  188.8330  174.7930  136.6750 C   0  0  0  0  0  0  0  0  0  0  0  0
  190.0330  176.7110  138.7330 C   0  0  0  0  0  0  0  0  0  0  0  0
  187.7000  176.8940  135.7930 C   0  0  0  0  0  3  0  0  0  0  0  0
  185.5410  172.9710  137.1790 C   0  0  0  0  0  0  0  0  0  0  0  0
  185.4080  172.2990  135.9610 C   0  0  0  0  0  3  0  0  0  0  0  0
  187.6370  173.9480  136.4210 C   0  0  0  0  0  0  0  0  0  0  0  0
  186.3870  172.4420  134.9740 C   0  0  0  0  0  3  0  0  0  0  0  0
  186.6530  173.7860  137.4080 C   0  0  0  0  0  3  0  0  0  0  0  0
  187.4980  173.2590  135.2050 C   0  0  0  0  0  3  0  0  0  0  0  0
  184.5970  172.8290  138.1380 F   0  0  0  0  0  0  0  0  0  0  0  0
  184.3370  178.2410  138.3340 C   0  0  0  0  0  1  0  0  0  0  0  0
  185.6580  178.7590  138.2730 O   0  0  0  0  0  0  0  0  0  0  0  0
  192.5470  176.5390  138.5000 N   0  0  0  0  0  2  0  0  0  0  0  0
  193.9150  176.3640  136.6180 C   0  0  0  0  0  3  0  0  0  0  0  0
  193.7030  176.0780  137.8600 N   0  0  0  0  0  0  0  0  0  0  0  0
  195.5260  178.2540  135.4970 O   0  0  0  0  0  1  0  0  0  0  0  0
  195.1480  175.8710  135.9310 C   0  0  1  0  0  3  0  0  0  0  0  0
  195.9380  176.9640  135.1530 C   0  0  2  0  0  3  0  0  0  0  0  0
  197.7050  175.5150  135.1330 C   0  0  0  0  0  2  0  0  0  0  0  0
  196.9900  174.5600  136.1080 C   0  0  0  0  0  2  0  0  0  0  0  0
  195.9920  175.2260  136.8530 O   0  0  0  0  0  0  0  0  0  0  0  0
  197.3270  176.8490  135.3840 O   0  0  0  0  0  0  0  0  0  0  0  0
  1 24  1  0  0  0  0
  2  5  2  0  0  0  0
  2 11  1  0  0  0  0
  3  7  1  0  0  0  0
  3 14  2  0  0  0  0
  4  8  2  0  0  0  0
  6 11  1  0  0  0  0
  7  1  1  6  0  0  0
  7  2  1  0  0  0  0
  8 25  1  0  0  0  0
  8 14  1  0  0  0  0
  9 13  1  0  0  0  0
  9  3  1  0  0  0  0
 10  1  2  0  0  0  0
 12  4  1  0  0  0  0
 13 12  2  0  0  0  0
 14  6  1  0  0  0  0
 15 10  1  0  0  0  0
 15  9  2  0  0  0  0
 16 20  1  0  0  0  0
 16 22  1  0  0  0  0
 17 16  2  0  0  0  0
 18 13  1  0  0  0  0
 18 20  2  0  0  0  0
 19 21  2  0  0  0  0
 19 17  1  0  0  0  0
 21 18  1  0  0  0  0
 24 23  1  0  0  0  0
 26 27  2  0  0  0  0
 27 25  1  0  0  0  0
 29 26  1  1  0  0  0
 29 33  1  0  0  0  0
 30 34  1  0  0  0  0
 30 28  1  1  0  0  0
 30 29  1  0  0  0  0
 31 34  1  0  0  0  0
 31 32  1  0  0  0  0
 32 33  1  0  0  0  0
M  END
>  <MODEL>
1

>  <REMARK>
 VINA RESULT:      -7.5      0.000      0.000
  Name = 
  5 active torsions:
  status: ('A' for Active; 'I' for Inactive)
    1  A    between atoms: C_1  and  O_19
    2  A    between atoms: C_3  and  C_13
    3  A    between atoms: C_12  and  C_28
    4  A    between atoms: N_17  and  N_29
    5  A    between atoms: C_18  and  N_29
                            x       y       z     vdW  Elec       q    Type
                         _______ _______ _______ _____ _____    ______ ____

>  <TORSDO>
F 5

$$$$
=
 OpenBabel10262423403D

 34 38  0  0  1  0  0  0  0  0999 V2000
  191.0860  174.0590  135.9240 C   0  0  0  0  0  0  0  0  0  0  0  0
  193.1860  175.3690  136.1860 C   0  0  0  0  0  0  0  0  0  0  0  0
  191.1790  175.7500  137.7120 C   0  0  0  0  0  0  0  0  0  0  0  0
  190.2040  177.8080  139.7910 C   0  0  0  0  0  3  0  0  0  0  0  0
  193.8210  174.7220  135.3110 O   0  0  0  0  0  0  0  0  0  0  0  0
  193.3150  176.7550  138.1730 N   0  0  0  0  0  2  0  0  0  0  0  0
  191.7880  175.0270  136.5580 C   0  0  2  0  0  3  0  0  0  0  0  0
  191.4010  177.2010  139.7350 C   0  0  0  0  0  0  0  0  0  0  0  0
  189.7200  175.5610  138.0180 C   0  0  0  0  0  0  0  0  0  0  0  0
  189.7250  173.6980  136.3860 C   0  0  0  0  0  3  0  0  0  0  0  0
  193.8480  176.5400  136.8330 C   0  0  0  0  0  2  0  0  0  0  0  0
  189.1860  177.8450  138.7210 C   0  0  0  0  0  3  0  0  0  0  0  0
  188.9620  176.8580  137.8450 C   0  0  0  0  0  0  0  0  0  0  0  0
  191.9340  176.5490  138.4990 C   0  0  0  0  0  0  0  0  0  0  0  0
  189.0990  174.3650  137.3540 C   0  0  0  0  0  3  0  0  0  0  0  0
  185.7700  177.2910  135.8370 C   0  0  0  0  0  0  0  0  0  0  0  0
  186.2780  177.5200  134.5560 C   0  0  0  0  0  3  0  0  0  0  0  0
  188.0330  177.1080  136.7130 C   0  0  0  0  0  0  0  0  0  0  0  0
  187.6600  177.5380  134.3460 C   0  0  0  0  0  3  0  0  0  0  0  0
  186.6440  177.0810  136.9080 C   0  0  0  0  0  3  0  0  0  0  0  0
  188.5330  177.3290  135.4180 C   0  0  0  0  0  3  0  0  0  0  0  0
  184.4320  177.2690  136.0410 F   0  0  0  0  0  0  0  0  0  0  0  0
  191.8880  171.9780  134.8490 C   0  0  0  0  0  1  0  0  0  0  0  0
  191.6460  173.3780  134.8370 O   0  0  0  0  0  0  0  0  0  0  0  0
  192.2270  177.2970  140.8990 N   0  0  0  0  0  2  0  0  0  0  0  0
  191.7180  178.0760  143.0370 C   0  0  0  0  0  3  0  0  0  0  0  0
  191.7210  177.1030  142.1880 N   0  0  0  0  0  0  0  0  0  0  0  0
  189.0060  178.0620  143.2990 O   0  0  0  0  0  1  0  0  0  0  0  0
  191.1790  177.8720  144.4170 C   0  0  1  0  0  3  0  0  0  0  0  0
  189.6380  178.0520  144.5450 C   0  0  2  0  0  3  0  0  0  0  0  0
  189.7900  176.9660  146.5490 C   0  0  0  0  0  2  0  0  0  0  0  0
  191.2600  176.5880  146.2840 C   0  0  0  0  0  2  0  0  0  0  0  0
  191.5620  176.6100  144.9050 O   0  0  0  0  0  0  0  0  0  0  0  0
  189.0710  177.0310  145.3390 O   0  0  0  0  0  0  0  0  0  0  0  0
  1 10  2  0  0  0  0
  2  7  1  0  0  0  0
  2 11  1  0  0  0  0
  3  9  1  0  0  0  0
  3 14  2  0  0  0  0
  5  2  2  0  0  0  0
  6 14  1  0  0  0  0
  7  1  1  1  0  0  0
  7  3  1  0  0  0  0
  8  4  2  0  0  0  0
  8 25  1  0  0  0  0
 10 15  1  0  0  0  0
 11  6  1  0  0  0  0
 12  4  1  0  0  0  0
 13  9  1  0  0  0  0
 13 12  2  0  0  0  0
 14  8  1  0  0  0  0
 15  9  2  0  0  0  0
 16 22  1  0  0  0  0
 16 20  1  0  0  0  0
 17 16  2  0  0  0  0
 18 20  2  0  0  0  0
 18 13  1  0  0  0  0
 19 17  1  0  0  0  0
 19 21  2  0  0  0  0
 21 18  1  0  0  0  0
 24 23  1  0  0  0  0
 24  1  1  0  0  0  0
 25 27  1  0  0  0  0
 27 26  2  0  0  0  0
 29 26  1  6  0  0  0
 29 30  1  0  0  0  0
 29 33  1  0  0  0  0
 30 28  1  6  0  0  0
 30 34  1  0  0  0  0
 32 31  1  0  0  0  0
 33 32  1  0  0  0  0
 34 31  1  0  0  0  0
M  END
>  <MODEL>
2

>  <REMARK>
 VINA RESULT:      -7.1      3.040      7.012
  Name = 
  5 active torsions:
  status: ('A' for Active; 'I' for Inactive)
    1  A    between atoms: C_1  and  O_19
    2  A    between atoms: C_3  and  C_13
    3  A    between atoms: C_12  and  C_28
    4  A    between atoms: N_17  and  N_29
    5  A    between atoms: C_18  and  N_29
                            x       y       z     vdW  Elec       q    Type
                         _______ _______ _______ _____ _____    ______ ____

>  <TORSDO>
F 5

$$$$
=
 OpenBabel10262423403D

 34 38  0  0  1  0  0  0  0  0999 V2000
  185.6170  178.4400  144.2960 C   0  0  0  0  0  0  0  0  0  0  0  0
  187.5070  176.8440  144.0170 C   0  0  0  0  0  0  0  0  0  0  0  0
  186.6730  178.2740  142.0770 C   0  0  0  0  0  0  0  0  0  0  0  0
  186.9970  178.4460  139.0150 C   0  0  0  0  0  3  0  0  0  0  0  0
  187.5570  176.5300  145.2360 O   0  0  0  0  0  0  0  0  0  0  0  0
  188.7050  176.9960  141.9120 N   0  0  0  0  0  2  0  0  0  0  0  0
  186.5480  177.8580  143.5050 C   0  0  0  0  0  0  0  0  0  0  0  0
  187.9670  178.3650  139.9410 C   0  0  0  0  0  0  0  0  0  0  0  0
  185.6260  179.1650  141.4700 C   0  0  1  0  0  3  0  0  0  0  0  0
  184.7380  179.5060  143.7580 C   0  0  0  0  0  3  0  0  0  0  0  0
  188.4110  176.1440  143.0580 C   0  0  0  0  0  2  0  0  0  0  0  0
  185.5570  178.1890  139.2260 C   0  0  0  0  0  3  0  0  0  0  0  0
  184.8920  178.4510  140.3580 C   0  0  0  0  0  0  0  0  0  0  0  0
  187.7330  177.8800  141.3360 C   0  0  0  0  0  0  0  0  0  0  0  0
  184.7470  179.8570  142.4730 C   0  0  0  0  0  3  0  0  0  0  0  0
  181.7640  176.3350  139.9830 C   0  0  0  0  0  0  0  0  0  0  0  0
  180.8260  177.1010  140.6810 C   0  0  0  0  0  3  0  0  0  0  0  0
  183.4920  177.9720  140.4870 C   0  0  0  0  0  0  0  0  0  0  0  0
  181.2130  178.3040  141.2770 C   0  0  0  0  0  3  0  0  0  0  0  0
  183.0870  176.7720  139.8830 C   0  0  0  0  0  3  0  0  0  0  0  0
  182.5380  178.7390  141.1770 C   0  0  0  0  0  3  0  0  0  0  0  0
  181.3890  175.1720  139.4000 F   0  0  0  0  0  0  0  0  0  0  0  0
  185.6280  178.9650  146.7150 C   0  0  0  0  0  1  0  0  0  0  0  0
  185.4880  178.0540  145.6350 O   0  0  0  0  0  0  0  0  0  0  0  0
  189.2970  178.6600  139.5060 N   0  0  0  0  0  2  0  0  0  0  0  0
  190.7770  176.9380  138.9750 C   0  0  0  0  0  3  0  0  0  0  0  0
  189.9700  177.8630  138.5740 N   0  0  0  0  0  0  0  0  0  0  0  0
  193.4990  176.9470  139.1060 O   0  0  0  0  0  1  0  0  0  0  0  0
  191.4990  176.0850  137.9810 C   0  0  1  0  0  3  0  0  0  0  0  0
  193.0450  176.2620  137.9750 C   0  0  2  0  0  3  0  0  0  0  0  0
  193.1560  174.2940  136.8200 C   0  0  0  0  0  2  0  0  0  0  0  0
  191.6570  174.0220  137.0530 C   0  0  0  0  0  2  0  0  0  0  0  0
  191.1660  174.7320  138.1700 O   0  0  0  0  0  0  0  0  0  0  0  0
  193.7000  175.0130  137.9020 O   0  0  0  0  0  0  0  0  0  0  0  0
  1 24  1  0  0  0  0
  2  5  2  0  0  0  0
  3  7  1  0  0  0  0
  4 12  1  0  0  0  0
  4  8  2  0  0  0  0
  6 11  1  0  0  0  0
  7  2  1  0  0  0  0
  7  1  2  0  0  0  0
  8 14  1  0  0  0  0
  9  3  1  0  0  0  0
  9 15  1  1  0  0  0
 10  1  1  0  0  0  0
 11  2  1  0  0  0  0
 12 13  2  0  0  0  0
 13 18  1  0  0  0  0
 13  9  1  0  0  0  0
 14  6  1  0  0  0  0
 14  3  2  0  0  0  0
 15 10  2  0  0  0  0
 16 17  1  0  0  0  0
 17 19  2  0  0  0  0
 18 21  2  0  0  0  0
 20 16  2  0  0  0  0
 20 18  1  0  0  0  0
 21 19  1  0  0  0  0
 22 16  1  0  0  0  0
 24 23  1  0  0  0  0
 25  8  1  0  0  0  0
 27 26  2  0  0  0  0
 27 25  1  0  0  0  0
 29 33  1  0  0  0  0
 29 26  1  1  0  0  0
 30 29  1  0  0  0  0
 30 28  1  1  0  0  0
 31 32  1  0  0  0  0
 31 34  1  0  0  0  0
 32 33  1  0  0  0  0
 34 30  1  0  0  0  0
M  END
>  <MODEL>
3

>  <REMARK>
 VINA RESULT:      -7.0      3.663      5.904
  Name = 
  5 active torsions:
  status: ('A' for Active; 'I' for Inactive)
    1  A    between atoms: C_1  and  O_19
    2  A    between atoms: C_3  and  C_13
    3  A    between atoms: C_12  and  C_28
    4  A    between atoms: N_17  and  N_29
    5  A    between atoms: C_18  and  N_29
                            x       y       z     vdW  Elec       q    Type
                         _______ _______ _______ _____ _____    ______ ____

>  <TORSDO>
F 5

$$$$
=
 OpenBabel10262423403D

 34 38  0  0  1  0  0  0  0  0999 V2000
  191.5380  174.7330  136.6920 C   0  0  0  0  0  0  0  0  0  0  0  0
  193.2600  176.2200  137.7010 C   0  0  0  0  0  0  0  0  0  0  0  0
  190.8790  176.1340  138.6070 C   0  0  0  0  0  0  0  0  0  0  0  0
  189.0680  177.7290  140.5280 C   0  0  0  0  0  3  0  0  0  0  0  0
  194.2010  175.7900  136.9830 O   0  0  0  0  0  0  0  0  0  0  0  0
  192.6270  177.2950  139.7820 N   0  0  0  0  0  2  0  0  0  0  0  0
  191.8840  175.6680  137.6080 C   0  0  2  0  0  3  0  0  0  0  0  0
  190.3130  177.2780  140.7560 C   0  0  0  0  0  0  0  0  0  0  0  0
  189.4370  175.7360  138.4510 C   0  0  0  0  0  0  0  0  0  0  0  0
  190.1740  174.1530  136.6920 C   0  0  0  0  0  3  0  0  0  0  0  0
  193.5330  177.3470  138.6410 C   0  0  0  0  0  2  0  0  0  0  0  0
  188.3890  177.8110  139.2190 C   0  0  0  0  0  3  0  0  0  0  0  0
  188.5680  176.9480  138.2100 C   0  0  0  0  0  0  0  0  0  0  0  0
  191.2570  176.8860  139.6650 C   0  0  0  0  0  0  0  0  0  0  0  0
  189.2120  174.5910  137.5030 C   0  0  0  0  0  3  0  0  0  0  0  0
  186.0000  177.4270  135.4560 C   0  0  0  0  0  0  0  0  0  0  0  0
  186.8140  177.7880  134.3790 C   0  0  0  0  0  3  0  0  0  0  0  0
  187.9580  177.2600  136.8920 C   0  0  0  0  0  0  0  0  0  0  0  0
  188.1980  177.8790  134.5500 C   0  0  0  0  0  3  0  0  0  0  0  0
  186.5710  177.1600  136.7030 C   0  0  0  0  0  3  0  0  0  0  0  0
  188.7670  177.6130  135.7990 C   0  0  0  0  0  3  0  0  0  0  0  0
  184.6600  177.3330  135.2910 F   0  0  0  0  0  0  0  0  0  0  0  0
  192.1460  174.0980  134.3780 C   0  0  0  0  0  1  0  0  0  0  0  0
  192.4720  174.2930  135.7460 O   0  0  0  0  0  0  0  0  0  0  0  0
  190.7630  177.2900  142.1130 N   0  0  0  0  0  2  0  0  0  0  0  0
  190.3180  177.0210  144.3870 C   0  0  0  0  0  3  0  0  0  0  0  0
  189.8750  177.2380  143.1930 N   0  0  0  0  0  0  0  0  0  0  0  0
  191.4230  177.0970  146.8760 O   0  0  0  0  0  1  0  0  0  0  0  0
  189.3710  176.9620  145.5430 C   0  0  1  0  0  3  0  0  0  0  0  0
  190.0540  176.8260  146.9350 C   0  0  2  0  0  3  0  0  0  0  0  0
  188.0640  177.4720  147.8510 C   0  0  0  0  0  2  0  0  0  0  0  0
  187.4920  177.8330  146.4660 C   0  0  0  0  0  2  0  0  0  0  0  0
  188.5180  178.0800  145.5280 O   0  0  0  0  0  0  0  0  0  0  0  0
  189.4560  177.6860  147.8810 O   0  0  0  0  0  0  0  0  0  0  0  0
  1 10  2  0  0  0  0
  2 11  1  0  0  0  0
  3 14  2  0  0  0  0
  4  8  2  0  0  0  0
  5  2  2  0  0  0  0
  7  1  1  1  0  0  0
  7  2  1  0  0  0  0
  7  3  1  0  0  0  0
  8 25  1  0  0  0  0
  9  3  1  0  0  0  0
 10 15  1  0  0  0  0
 11  6  1  0  0  0  0
 12  4  1  0  0  0  0
 13  9  1  0  0  0  0
 13 12  2  0  0  0  0
 14  6  1  0  0  0  0
 14  8  1  0  0  0  0
 15  9  2  0  0  0  0
 16 20  1  0  0  0  0
 17 19  1  0  0  0  0
 17 16  2  0  0  0  0
 18 13  1  0  0  0  0
 19 21  2  0  0  0  0
 20 18  2  0  0  0  0
 21 18  1  0  0  0  0
 22 16  1  0  0  0  0
 23 24  1  0  0  0  0
 24  1  1  0  0  0  0
 25 27  1  0  0  0  0
 27 26  2  0  0  0  0
 29 26  1  6  0  0  0
 29 30  1  0  0  0  0
 30 28  1  6  0  0  0
 30 34  1  0  0  0  0
 31 34  1  0  0  0  0
 32 31  1  0  0  0  0
 33 29  1  0  0  0  0
 33 32  1  0  0  0  0
M  END
>  <MODEL>
4

>  <REMARK>
 VINA RESULT:      -6.9      3.491      7.753
  Name = 
  5 active torsions:
  status: ('A' for Active; 'I' for Inactive)
    1  A    between atoms: C_1  and  O_19
    2  A    between atoms: C_3  and  C_13
    3  A    between atoms: C_12  and  C_28
    4  A    between atoms: N_17  and  N_29
    5  A    between atoms: C_18  and  N_29
                            x       y       z     vdW  Elec       q    Type
                         _______ _______ _______ _____ _____    ______ ____

>  <TORSDO>
F 5

$$$$
=
 OpenBabel10262423403D

 34 38  0  0  1  0  0  0  0  0999 V2000
  184.3210  176.9090  136.3120 C   0  0  0  0  0  0  0  0  0  0  0  0
  186.4860  178.0540  135.8690 C   0  0  0  0  0  0  0  0  0  0  0  0
  185.5960  177.7560  138.2400 C   0  0  0  0  0  0  0  0  0  0  0  0
  186.1750  178.8010  141.0840 C   0  0  0  0  0  3  0  0  0  0  0  0
  186.4750  177.8200  134.6320 O   0  0  0  0  0  0  0  0  0  0  0  0
  187.8320  178.5430  137.8280 N   0  0  0  0  0  2  0  0  0  0  0  0
  185.4130  177.5620  136.7720 C   0  0  0  0  0  0  0  0  0  0  0  0
  187.0510  178.2920  140.2010 C   0  0  0  0  0  0  0  0  0  0  0  0
  184.4680  177.4300  139.1790 C   0  0  1  0  0  3  0  0  0  0  0  0
  183.3190  176.3650  137.2590 C   0  0  0  0  0  3  0  0  0  0  0  0
  187.5890  178.8870  136.4330 C   0  0  0  0  0  2  0  0  0  0  0  0
  184.7920  179.2360  140.7990 C   0  0  0  0  0  3  0  0  0  0  0  0
  183.9850  178.6720  139.8910 C   0  0  0  0  0  0  0  0  0  0  0  0
  186.7760  178.1940  138.7340 C   0  0  0  0  0  0  0  0  0  0  0  0
  183.3860  176.5810  138.5720 C   0  0  0  0  0  3  0  0  0  0  0  0
  181.3480  180.8140  138.1990 C   0  0  0  0  0  0  0  0  0  0  0  0
  180.2530  180.6250  139.0460 C   0  0  0  0  0  3  0  0  0  0  0  0
  182.6890  179.3300  139.5850 C   0  0  0  0  0  0  0  0  0  0  0  0
  180.3710  179.7970  140.1650 C   0  0  0  0  0  3  0  0  0  0  0  0
  182.5600  180.1750  138.4710 C   0  0  0  0  0  3  0  0  0  0  0  0
  181.5840  179.1560  140.4350 C   0  0  0  0  0  3  0  0  0  0  0  0
  181.2370  181.6200  137.1170 F   0  0  0  0  0  0  0  0  0  0  0  0
  182.8520  176.5810  134.3460 C   0  0  0  0  0  1  0  0  0  0  0  0
  184.1360  176.7260  134.9360 O   0  0  0  0  0  0  0  0  0  0  0  0
  188.3410  177.9370  140.7060 N   0  0  0  0  0  2  0  0  0  0  0  0
  189.3620  176.8320  142.4880 C   0  0  0  0  0  3  0  0  0  0  0  0
  188.5870  177.7780  142.0740 N   0  0  0  0  0  0  0  0  0  0  0  0
  191.9610  177.0000  143.2880 O   0  0  0  0  0  1  0  0  0  0  0  0
  189.6260  176.6580  143.9500 C   0  0  1  0  0  3  0  0  0  0  0  0
  191.1330  176.5810  144.3330 C   0  0  2  0  0  3  0  0  0  0  0  0
  190.4930  176.9980  146.4860 C   0  0  0  0  0  2  0  0  0  0  0  0
  189.0500  177.3110  146.0440 C   0  0  0  0  0  2  0  0  0  0  0  0
  188.9910  177.6780  144.6810 O   0  0  0  0  0  0  0  0  0  0  0  0
  191.4070  177.3610  145.4770 O   0  0  0  0  0  0  0  0  0  0  0  0
  1  7  2  0  0  0  0
  1 10  1  0  0  0  0
  2 11  1  0  0  0  0
  2  7  1  0  0  0  0
  3 14  2  0  0  0  0
  3  9  1  0  0  0  0
  5  2  2  0  0  0  0
  6 14  1  0  0  0  0
  7  3  1  0  0  0  0
  8 25  1  0  0  0  0
  8  4  2  0  0  0  0
  9 15  1  6  0  0  0
  9 13  1  0  0  0  0
 10 15  2  0  0  0  0
 11  6  1  0  0  0  0
 12  4  1  0  0  0  0
 13 12  2  0  0  0  0
 14  8  1  0  0  0  0
 16 20  2  0  0  0  0
 16 17  1  0  0  0  0
 17 19  2  0  0  0  0
 18 13  1  0  0  0  0
 18 21  2  0  0  0  0
 19 21  1  0  0  0  0
 20 18  1  0  0  0  0
 22 16  1  0  0  0  0
 23 24  1  0  0  0  0
 24  1  1  0  0  0  0
 25 27  1  0  0  0  0
 27 26  2  0  0  0  0
 29 26  1  6  0  0  0
 29 30  1  0  0  0  0
 29 33  1  0  0  0  0
 30 28  1  6  0  0  0
 30 34  1  0  0  0  0
 32 31  1  0  0  0  0
 33 32  1  0  0  0  0
 34 31  1  0  0  0  0
M  END
>  <MODEL>
5

>  <REMARK>
 VINA RESULT:      -6.9      5.664      7.777
  Name = 
  5 active torsions:
  status: ('A' for Active; 'I' for Inactive)
    1  A    between atoms: C_1  and  O_19
    2  A    between atoms: C_3  and  C_13
    3  A    between atoms: C_12  and  C_28
    4  A    between atoms: N_17  and  N_29
    5  A    between atoms: C_18  and  N_29
                            x       y       z     vdW  Elec       q    Type
                         _______ _______ _______ _____ _____    ______ ____

>  <TORSDO>
F 5

$$$$
=
 OpenBabel10262423403D

 34 38  0  0  1  0  0  0  0  0999 V2000
  191.6530  175.5050  138.1880 C   0  0  0  0  0  0  0  0  0  0  0  0
  189.6130  174.3720  137.3220 C   0  0  0  0  0  0  0  0  0  0  0  0
  189.4800  176.6120  138.5320 C   0  0  0  0  0  0  0  0  0  0  0  0
  187.3440  178.4480  139.7860 C   0  0  0  0  0  3  0  0  0  0  0  0
  190.2450  173.4400  136.7580 O   0  0  0  0  0  0  0  0  0  0  0  0
  187.5750  175.6850  137.3940 N   0  0  0  0  0  2  0  0  0  0  0  0
  190.3090  175.4770  138.0320 C   0  0  0  0  0  0  0  0  0  0  0  0
  187.3360  177.8950  138.5620 C   0  0  0  0  0  0  0  0  0  0  0  0
  190.1110  177.6660  139.4000 C   0  0  1  0  0  3  0  0  0  0  0  0
  192.3080  176.6700  138.8310 C   0  0  0  0  0  3  0  0  0  0  0  0
  188.1210  174.3370  137.3110 C   0  0  0  0  0  2  0  0  0  0  0  0
  188.2310  178.0840  140.9100 C   0  0  0  0  0  3  0  0  0  0  0  0
  189.4950  177.6640  140.7790 C   0  0  0  0  0  0  0  0  0  0  0  0
  188.1780  176.7170  138.1880 C   0  0  0  0  0  0  0  0  0  0  0  0
  191.6140  177.6700  139.3710 C   0  0  0  0  0  3  0  0  0  0  0  0
  191.6040  177.5600  143.9340 C   0  0  0  0  0  0  0  0  0  0  0  0
  191.5990  176.1930  144.2250 C   0  0  0  0  0  3  0  0  0  0  0  0
  190.2050  177.1600  141.9840 C   0  0  0  0  0  0  0  0  0  0  0  0
  190.9060  175.3060  143.3970 C   0  0  0  0  0  3  0  0  0  0  0  0
  190.9150  178.0390  142.8170 C   0  0  0  0  0  3  0  0  0  0  0  0
  190.2160  175.7870  142.2800 C   0  0  0  0  0  3  0  0  0  0  0  0
  192.2790  178.4200  144.7320 F   0  0  0  0  0  0  0  0  0  0  0  0
  193.8590  174.4960  137.6930 C   0  0  0  0  0  1  0  0  0  0  0  0
  192.4400  174.4430  137.7280 O   0  0  0  0  0  0  0  0  0  0  0  0
  186.3840  178.4120  137.6280 N   0  0  0  0  0  2  0  0  0  0  0  0
  184.1420  178.0820  138.1810 C   0  0  0  0  0  3  0  0  0  0  0  0
  185.1340  178.8950  138.0300 N   0  0  0  0  0  0  0  0  0  0  0  0
  183.3330  177.4320  140.7000 O   0  0  0  0  0  1  0  0  0  0  0  0
  182.8040  178.5950  138.6080 C   0  0  1  0  0  3  0  0  0  0  0  0
  182.3080  178.0500  139.9790 C   0  0  2  0  0  3  0  0  0  0  0  0
  180.7950  179.7620  139.9870 C   0  0  0  0  0  2  0  0  0  0  0  0
  181.4630  180.4170  138.7630 C   0  0  0  0  0  2  0  0  0  0  0  0
  182.8050  180.0020  138.6170 O   0  0  0  0  0  0  0  0  0  0  0  0
  181.7520  179.0830  140.7660 O   0  0  0  0  0  0  0  0  0  0  0  0
  1 10  1  0  0  0  0
  2  7  1  0  0  0  0
  3  9  1  0  0  0  0
  4 12  1  0  0  0  0
  5  2  2  0  0  0  0
  6 14  1  0  0  0  0
  7  1  2  0  0  0  0
  7  3  1  0  0  0  0
  8  4  2  0  0  0  0
  9 15  1  1  0  0  0
  9 13  1  0  0  0  0
 10 15  2  0  0  0  0
 11  2  1  0  0  0  0
 11  6  1  0  0  0  0
 13 12  2  0  0  0  0
 13 18  1  0  0  0  0
 14  3  2  0  0  0  0
 14  8  1  0  0  0  0
 16 17  1  0  0  0  0
 16 22  1  0  0  0  0
 18 21  2  0  0  0  0
 18 20  1  0  0  0  0
 19 17  2  0  0  0  0
 20 16  2  0  0  0  0
 21 19  1  0  0  0  0
 23 24  1  0  0  0  0
 24  1  1  0  0  0  0
 25 27  1  0  0  0  0
 25  8  1  0  0  0  0
 27 26  2  0  0  0  0
 29 26  1  1  0  0  0
 29 33  1  0  0  0  0
 29 30  1  0  0  0  0
 30 28  1  1  0  0  0
 30 34  1  0  0  0  0
 31 34  1  0  0  0  0
 32 31  1  0  0  0  0
 33 32  1  0  0  0  0
M  END
>  <MODEL>
6

>  <REMARK>
 VINA RESULT:      -6.9      3.615      9.429
  Name = 
  5 active torsions:
  status: ('A' for Active; 'I' for Inactive)
    1  A    between atoms: C_1  and  O_19
    2  A    between atoms: C_3  and  C_13
    3  A    between atoms: C_12  and  C_28
    4  A    between atoms: N_17  and  N_29
    5  A    between atoms: C_18  and  N_29
                            x       y       z     vdW  Elec       q    Type
                         _______ _______ _______ _____ _____    ______ ____

>  <TORSDO>
F 5

$$$$
=
 OpenBabel10262423403D

 34 38  0  0  1  0  0  0  0  0999 V2000
  183.0620  177.2880  135.9580 C   0  0  0  0  0  0  0  0  0  0  0  0
  183.1740  178.2720  138.2420 C   0  0  0  0  0  0  0  0  0  0  0  0
  185.2470  177.3300  137.0940 C   0  0  0  0  0  0  0  0  0  0  0  0
  188.1410  176.5460  137.8110 C   0  0  0  0  0  3  0  0  0  0  0  0
  181.9740  178.6540  138.2480 O   0  0  0  0  0  0  0  0  0  0  0  0
  185.4060  178.5880  139.1380 N   0  0  0  0  0  2  0  0  0  0  0  0
  183.7800  177.6030  137.0610 C   0  0  2  0  0  3  0  0  0  0  0  0
  187.5080  177.6970  138.0930 C   0  0  0  0  0  0  0  0  0  0  0  0
  185.8730  176.5080  136.0020 C   0  0  0  0  0  0  0  0  0  0  0  0
  183.7290  176.6970  134.7740 C   0  0  0  0  0  3  0  0  0  0  0  0
  183.9940  178.4610  139.4750 C   0  0  0  0  0  2  0  0  0  0  0  0
  187.5180  175.2900  137.3450 C   0  0  0  0  0  3  0  0  0  0  0  0
  186.4380  175.2210  136.5560 C   0  0  0  0  0  0  0  0  0  0  0  0
  186.0200  177.8400  138.0790 C   0  0  0  0  0  0  0  0  0  0  0  0
  185.0160  176.3540  134.7770 C   0  0  0  0  0  3  0  0  0  0  0  0
  184.1570  172.2050  136.8870 C   0  0  0  0  0  0  0  0  0  0  0  0
  184.6800  171.3540  135.9100 C   0  0  0  0  0  3  0  0  0  0  0  0
  185.8150  173.8930  136.3190 C   0  0  0  0  0  0  0  0  0  0  0  0
  185.7720  171.7640  135.1400 C   0  0  0  0  0  3  0  0  0  0  0  0
  184.7260  173.4650  137.0930 C   0  0  0  0  0  3  0  0  0  0  0  0
  186.3390  173.0250  135.3470 C   0  0  0  0  0  3  0  0  0  0  0  0
  183.1020  171.8090  137.6370 F   0  0  0  0  0  0  0  0  0  0  0  0
  180.9570  177.6390  134.7040 C   0  0  0  0  0  1  0  0  0  0  0  0
  181.6840  177.5350  135.9190 O   0  0  0  0  0  0  0  0  0  0  0  0
  188.3210  178.7890  138.5300 N   0  0  0  0  0  2  0  0  0  0  0  0
  188.6010  178.0950  140.7390 C   0  0  0  0  0  3  0  0  0  0  0  0
  189.0600  178.7380  139.7170 N   0  0  0  0  0  0  0  0  0  0  0  0
  187.2660  177.2700  142.9670 O   0  0  0  0  0  1  0  0  0  0  0  0
  189.3880  178.0400  142.0100 C   0  0  1  0  0  3  0  0  0  0  0  0
  188.5430  177.7400  143.2830 C   0  0  2  0  0  3  0  0  0  0  0  0
  190.5090  177.2340  144.3320 C   0  0  0  0  0  2  0  0  0  0  0  0
  191.2860  177.2990  143.0040 C   0  0  0  0  0  2  0  0  0  0  0  0
  190.4350  177.1100  141.8920 O   0  0  0  0  0  0  0  0  0  0  0  0
  189.1890  176.7950  144.1100 O   0  0  0  0  0  0  0  0  0  0  0  0
  2  5  2  0  0  0  0
  2 11  1  0  0  0  0
  3 14  2  0  0  0  0
  4  8  2  0  0  0  0
  6 11  1  0  0  0  0
  7  1  1  6  0  0  0
  7  3  1  0  0  0  0
  7  2  1  0  0  0  0
  8 25  1  0  0  0  0
  9 13  1  0  0  0  0
  9  3  1  0  0  0  0
 10 15  1  0  0  0  0
 10  1  2  0  0  0  0
 12  4  1  0  0  0  0
 13 12  2  0  0  0  0
 14  8  1  0  0  0  0
 14  6  1  0  0  0  0
 15  9  2  0  0  0  0
 16 20  1  0  0  0  0
 16 22  1  0  0  0  0
 17 16  2  0  0  0  0
 18 13  1  0  0  0  0
 18 20  2  0  0  0  0
 19 21  2  0  0  0  0
 19 17  1  0  0  0  0
 21 18  1  0  0  0  0
 23 24  1  0  0  0  0
 24  1  1  0  0  0  0
 25 27  1  0  0  0  0
 27 26  2  0  0  0  0
 29 26  1  6  0  0  0
 29 30  1  0  0  0  0
 30 28  1  6  0  0  0
 30 34  1  0  0  0  0
 32 31  1  0  0  0  0
 33 29  1  0  0  0  0
 33 32  1  0  0  0  0
 34 31  1  0  0  0  0
M  END
>  <MODEL>
7

>  <REMARK>
 VINA RESULT:      -6.7      4.523      5.854
  Name = 
  5 active torsions:
  status: ('A' for Active; 'I' for Inactive)
    1  A    between atoms: C_1  and  O_19
    2  A    between atoms: C_3  and  C_13
    3  A    between atoms: C_12  and  C_28
    4  A    between atoms: N_17  and  N_29
    5  A    between atoms: C_18  and  N_29
                            x       y       z     vdW  Elec       q    Type
                         _______ _______ _______ _____ _____    ______ ____

>  <TORSDO>
F 5

$$$$
=
 OpenBabel10262423403D

 34 38  0  0  1  0  0  0  0  0999 V2000
  186.9500  177.3600  145.6920 C   0  0  0  0  0  0  0  0  0  0  0  0
  185.3740  179.2800  145.5390 C   0  0  0  0  0  0  0  0  0  0  0  0
  186.1960  178.0610  143.4560 C   0  0  0  0  0  0  0  0  0  0  0  0
  186.2070  178.4450  140.3960 C   0  0  0  0  0  3  0  0  0  0  0  0
  185.2320  179.3970  146.7840 O   0  0  0  0  0  0  0  0  0  0  0  0
  184.4190  179.6780  143.3440 N   0  0  0  0  0  2  0  0  0  0  0  0
  186.2180  178.2130  144.9400 C   0  0  0  0  0  0  0  0  0  0  0  0
  185.1600  178.5400  141.2320 C   0  0  0  0  0  0  0  0  0  0  0  0
  187.1570  177.1140  142.7930 C   0  0  1  0  0  3  0  0  0  0  0  0
  187.7110  176.2610  145.0520 C   0  0  0  0  0  3  0  0  0  0  0  0
  184.7060  180.2710  144.6440 C   0  0  0  0  0  2  0  0  0  0  0  0
  187.6350  178.4140  140.7740 C   0  0  0  0  0  3  0  0  0  0  0  0
  188.1160  177.8610  141.8950 C   0  0  0  0  0  0  0  0  0  0  0  0
  185.3030  178.7450  142.7060 C   0  0  0  0  0  0  0  0  0  0  0  0
  187.7970  176.1280  143.7300 C   0  0  0  0  0  3  0  0  0  0  0  0
  191.9050  177.6860  141.7550 C   0  0  0  0  0  0  0  0  0  0  0  0
  192.2580  178.4000  142.9030 C   0  0  0  0  0  3  0  0  0  0  0  0
  189.5490  178.0660  142.2300 C   0  0  0  0  0  0  0  0  0  0  0  0
  191.2620  178.9430  143.7200 C   0  0  0  0  0  3  0  0  0  0  0  0
  190.5580  177.5150  141.4250 C   0  0  0  0  0  3  0  0  0  0  0  0
  189.9150  178.7730  143.3870 C   0  0  0  0  0  3  0  0  0  0  0  0
  192.8680  177.1540  140.9650 F   0  0  0  0  0  0  0  0  0  0  0  0
  188.1800  177.3930  147.8410 C   0  0  0  0  0  1  0  0  0  0  0  0
  186.9810  177.4970  147.0850 O   0  0  0  0  0  0  0  0  0  0  0  0
  183.8600  178.5520  140.6370 N   0  0  0  0  0  2  0  0  0  0  0  0
  182.2780  179.5840  139.2690 C   0  0  0  0  0  3  0  0  0  0  0  0
  183.5120  179.4540  139.6260 N   0  0  0  0  0  0  0  0  0  0  0  0
  180.6190  178.6470  137.3210 O   0  0  0  0  0  1  0  0  0  0  0  0
  181.9030  180.5460  138.1870 C   0  0  1  0  0  3  0  0  0  0  0  0
  181.1060  179.9180  137.0070 C   0  0  2  0  0  3  0  0  0  0  0  0
  180.5200  182.0450  136.4160 C   0  0  0  0  0  2  0  0  0  0  0  0
  181.1060  182.6170  137.7210 C   0  0  0  0  0  2  0  0  0  0  0  0
  181.1920  181.6320  138.7290 O   0  0  0  0  0  0  0  0  0  0  0  0
  180.0250  180.7430  136.6260 O   0  0  0  0  0  0  0  0  0  0  0  0
  1 24  1  0  0  0  0
  2  5  2  0  0  0  0
  3  7  1  0  0  0  0
  4 12  1  0  0  0  0
  4  8  2  0  0  0  0
  6 11  1  0  0  0  0
  7  2  1  0  0  0  0
  7  1  2  0  0  0  0
  8 14  1  0  0  0  0
  9  3  1  0  0  0  0
  9 15  1  1  0  0  0
 10  1  1  0  0  0  0
 11  2  1  0  0  0  0
 12 13  2  0  0  0  0
 13 18  1  0  0  0  0
 13  9  1  0  0  0  0
 14  6  1  0  0  0  0
 14  3  2  0  0  0  0
 15 10  2  0  0  0  0
 16 17  1  0  0  0  0
 17 19  2  0  0  0  0
 18 21  2  0  0  0  0
 20 16  2  0  0  0  0
 20 18  1  0  0  0  0
 21 19  1  0  0  0  0
 22 16  1  0  0  0  0
 24 23  1  0  0  0  0
 25  8  1  0  0  0  0
 26 27  2  0  0  0  0
 27 25  1  0  0  0  0
 29 33  1  0  0  0  0
 29 26  1  1  0  0  0
 30 28  1  1  0  0  0
 30 29  1  0  0  0  0
 31 34  1  0  0  0  0
 31 32  1  0  0  0  0
 32 33  1  0  0  0  0
 34 30  1  0  0  0  0
M  END
>  <MODEL>
8

>  <REMARK>
 VINA RESULT:      -6.7      7.334     10.589
  Name = 
  5 active torsions:
  status: ('A' for Active; 'I' for Inactive)
    1  A    between atoms: C_1  and  O_19
    2  A    between atoms: C_3  and  C_13
    3  A    between atoms: C_12  and  C_28
    4  A    between atoms: N_17  and  N_29
    5  A    between atoms: C_18  and  N_29
                            x       y       z     vdW  Elec       q    Type
                         _______ _______ _______ _____ _____    ______ ____

>  <TORSDO>
F 5

$$$$
=
 OpenBabel10262423403D

 34 38  0  0  1  0  0  0  0  0999 V2000
  186.8900  177.2960  145.6940 C   0  0  0  0  0  0  0  0  0  0  0  0
  185.3720  179.2680  145.6540 C   0  0  0  0  0  0  0  0  0  0  0  0
  186.1610  178.1490  143.5020 C   0  0  0  0  0  0  0  0  0  0  0  0
  186.1870  178.7120  140.4700 C   0  0  0  0  0  3  0  0  0  0  0  0
  185.2320  179.3150  146.9040 O   0  0  0  0  0  0  0  0  0  0  0  0
  184.4320  179.8220  143.4860 N   0  0  0  0  0  2  0  0  0  0  0  0
  186.1850  178.2130  144.9930 C   0  0  2  0  0  3  0  0  0  0  0  0
  185.1420  178.7880  141.3110 C   0  0  0  0  0  0  0  0  0  0  0  0
  187.0940  177.2140  142.7850 C   0  0  0  0  0  0  0  0  0  0  0  0
  187.6190  176.2140  144.9900 C   0  0  0  0  0  3  0  0  0  0  0  0
  184.7350  180.3280  144.8190 C   0  0  0  0  0  2  0  0  0  0  0  0
  187.6120  178.6160  140.8460 C   0  0  0  0  0  3  0  0  0  0  0  0
  188.0750  177.9840  141.9320 C   0  0  0  0  0  0  0  0  0  0  0  0
  185.2890  178.9020  142.7950 C   0  0  0  0  0  0  0  0  0  0  0  0
  187.7030  176.1560  143.6620 C   0  0  0  0  0  3  0  0  0  0  0  0
  191.8560  177.6710  141.8010 C   0  0  0  0  0  0  0  0  0  0  0  0
  192.2300  178.3420  142.9690 C   0  0  0  0  0  3  0  0  0  0  0  0
  189.5130  178.1260  142.2780 C   0  0  0  0  0  0  0  0  0  0  0  0
  191.2510  178.8990  143.7970 C   0  0  0  0  0  3  0  0  0  0  0  0
  190.5050  177.5600  141.4620 C   0  0  0  0  0  3  0  0  0  0  0  0
  189.9000  178.7880  143.4550 C   0  0  0  0  0  3  0  0  0  0  0  0
  192.8020  177.1260  141.0010 F   0  0  0  0  0  0  0  0  0  0  0  0
  188.1300  177.5030  147.8270 C   0  0  0  0  0  1  0  0  0  0  0  0
  186.9240  177.3500  147.0920 O   0  0  0  0  0  0  0  0  0  0  0  0
  183.8430  178.8740  140.7180 N   0  0  0  0  0  2  0  0  0  0  0  0
  182.7770  176.8450  140.2840 C   0  0  0  0  0  3  0  0  0  0  0  0
  183.3640  177.9030  139.8320 N   0  0  0  0  0  0  0  0  0  0  0  0
  180.0980  176.3510  140.3450 O   0  0  0  0  0  1  0  0  0  0  0  0
  182.2650  175.8050  139.3390 C   0  0  1  0  0  3  0  0  0  0  0  0
  180.7680  175.4300  139.5360 C   0  0  2  0  0  3  0  0  0  0  0  0
  180.8450  174.4860  137.4570 C   0  0  0  0  0  2  0  0  0  0  0  0
  182.2420  175.0810  137.1910 C   0  0  0  0  0  2  0  0  0  0  0  0
  182.4950  176.2030  138.0100 O   0  0  0  0  0  0  0  0  0  0  0  0
  180.0990  175.3370  138.2960 O   0  0  0  0  0  0  0  0  0  0  0  0
  1 24  1  0  0  0  0
  2  5  2  0  0  0  0
  4 12  1  0  0  0  0
  4  8  2  0  0  0  0
  6 11  1  0  0  0  0
  7  3  1  6  0  0  0
  7  2  1  0  0  0  0
  7  1  1  0  0  0  0
  8 14  1  0  0  0  0
  9  3  1  0  0  0  0
  9 15  2  0  0  0  0
 10  1  2  0  0  0  0
 11  2  1  0  0  0  0
 12 13  2  0  0  0  0
 13 18  1  0  0  0  0
 13  9  1  0  0  0  0
 14  6  1  0  0  0  0
 14  3  2  0  0  0  0
 15 10  1  0  0  0  0
 16 17  1  0  0  0  0
 17 19  2  0  0  0  0
 18 21  2  0  0  0  0
 20 16  2  0  0  0  0
 20 18  1  0  0  0  0
 21 19  1  0  0  0  0
 22 16  1  0  0  0  0
 24 23  1  0  0  0  0
 25  8  1  0  0  0  0
 27 26  2  0  0  0  0
 27 25  1  0  0  0  0
 29 30  1  0  0  0  0
 29 26  1  1  0  0  0
 30 28  1  1  0  0  0
 31 34  1  0  0  0  0
 32 31  1  0  0  0  0
 32 33  1  0  0  0  0
 33 29  1  0  0  0  0
 34 30  1  0  0  0  0
M  END
>  <MODEL>
9

>  <REMARK>
 VINA RESULT:      -6.7      6.949     10.301
  Name = 
  5 active torsions:
  status: ('A' for Active; 'I' for Inactive)
    1  A    between atoms: C_1  and  O_19
    2  A    between atoms: C_3  and  C_13
    3  A    between atoms: C_12  and  C_28
    4  A    between atoms: N_17  and  N_29
    5  A    between atoms: C_18  and  N_29
                            x       y       z     vdW  Elec       q    Type
                         _______ _______ _______ _____ _____    ______ ____

>  <TORSDO>
F 5

$$$$
