=
 OpenBabel10272401073D

 27 30  0  0  1  0  0  0  0  0999 V2000
  188.6700  177.9370  141.3350 N   0  0  0  0  0  0  0  0  0  0  0  0
  189.4150  177.3070  142.4330 C   0  0  1  0  0  3  0  0  0  0  0  0
  191.8470  176.4260  145.8130 C   0  0  0  0  0  3  0  0  0  0  0  0
  192.0770  176.0790  148.1590 F   0  0  0  0  0  0  0  0  0  0  0  0
  190.9150  177.5610  142.3210 C   0  0  0  0  0  2  0  0  0  0  0  0
  189.2180  177.2850  146.2260 C   0  0  0  0  0  3  0  0  0  0  0  0
  190.0040  176.8930  147.3120 C   0  0  0  0  0  3  0  0  0  0  0  0
  189.7340  177.2410  144.9270 C   0  0  0  0  0  0  0  0  0  0  0  0
  191.3180  176.4630  147.1070 C   0  0  0  0  0  0  0  0  0  0  0  0
  191.0710  176.8270  144.7210 C   0  0  0  0  0  0  0  0  0  0  0  0
  188.8780  177.7380  143.7980 C   0  0  0  0  0  2  0  0  0  0  0  0
  191.6520  176.7000  143.3420 C   0  0  0  0  0  2  0  0  0  0  0  0
  189.7510  177.4200  137.2470 C   0  0  0  0  0  3  0  0  0  0  0  0
  189.0420  177.7510  139.9510 C   0  0  0  0  0  0  0  0  0  0  0  0
  189.6000  176.5420  139.4970 C   0  0  0  0  0  3  0  0  0  0  0  0
  189.9520  176.3780  138.1550 C   0  0  0  0  0  3  0  0  0  0  0  0
  189.1970  178.6260  137.6820 C   0  0  0  0  0  3  0  0  0  0  0  0
  188.8460  178.7900  139.0250 C   0  0  0  0  0  3  0  0  0  0  0  0
  187.6660  178.8810  141.6330 N   0  0  0  0  0  2  0  0  0  0  0  0
  184.6620  178.5700  143.6300 C   0  0  0  0  0  3  0  0  0  0  0  0
  183.1500  178.6510  141.6430 C   0  0  0  0  0  0  0  0  0  0  0  0
  181.8060  178.4700  141.3420 O   0  0  0  0  0  1  0  0  0  0  0  0
  186.2650  178.5970  141.7500 C   0  0  0  0  0  0  0  0  0  0  0  0
  183.5060  178.8970  143.0550 C   0  0  0  0  0  3  0  0  0  0  0  0
  184.0240  178.6640  140.6280 C   0  0  0  0  0  3  0  0  0  0  0  0
  185.4840  178.8770  140.7060 C   0  0  0  0  0  3  0  0  0  0  0  0
  185.7380  177.8230  142.9170 C   0  0  0  0  0  2  0  0  0  0  0  0
  1 19  1  0  0  0  0
  2  1  1  6  0  0  0
  2 11  1  0  0  0  0
  3  9  1  0  0  0  0
  5  2  1  0  0  0  0
  5 12  1  0  0  0  0
  6  7  1  0  0  0  0
  8  6  2  0  0  0  0
  9  7  2  0  0  0  0
  9  4  1  0  0  0  0
 10  8  1  0  0  0  0
 10  3  2  0  0  0  0
 11  8  1  0  0  0  0
 12 10  1  0  0  0  0
 13 17  2  0  0  0  0
 13 16  1  0  0  0  0
 14  1  1  0  0  0  0
 15 14  1  0  0  0  0
 16 15  2  0  0  0  0
 17 18  1  0  0  0  0
 18 14  2  0  0  0  0
 19 23  1  0  0  0  0
 21 24  1  0  0  0  0
 22 21  1  0  0  0  0
 23 27  1  0  0  0  0
 24 20  2  0  0  0  0
 25 26  1  0  0  0  0
 25 21  2  0  0  0  0
 26 23  2  0  0  0  0
 27 20  1  0  0  0  0
M  END
>  <MODEL>
1

>  <REMARK>
 VINA RESULT:      -9.4      0.000      0.000
  Name = 
  4 active torsions:
  status: ('A' for Active; 'I' for Inactive)
    1  A    between atoms: N_1  and  N_15
    2  A    between atoms: N_1  and  C_18
    3  A    between atoms: C_2  and  N_15
    4  A    between atoms: C_9  and  N_15
                            x       y       z     vdW  Elec       q    Type
                         _______ _______ _______ _____ _____    ______ ____

>  <TORSDO>
F 4

$$$$
=
 OpenBabel10272401073D

 27 30  0  0  1  0  0  0  0  0999 V2000
  189.1580  177.5390  140.5390 N   0  0  0  0  0  0  0  0  0  0  0  0
  188.1430  178.1500  141.4080 C   0  0  1  0  0  3  0  0  0  0  0  0
  184.6960  179.0800  143.7230 C   0  0  0  0  0  3  0  0  0  0  0  0
  183.5290  179.0420  145.8000 F   0  0  0  0  0  0  0  0  0  0  0  0
  186.8290  178.3820  140.6710 C   0  0  0  0  0  2  0  0  0  0  0  0
  186.6530  177.4140  144.8230 C   0  0  0  0  0  3  0  0  0  0  0  0
  185.5610  177.8150  145.5970 C   0  0  0  0  0  3  0  0  0  0  0  0
  186.7800  177.8480  143.5000 C   0  0  0  0  0  0  0  0  0  0  0  0
  184.5830  178.6490  145.0480 C   0  0  0  0  0  0  0  0  0  0  0  0
  185.7780  178.6730  142.9380 C   0  0  0  0  0  0  0  0  0  0  0  0
  187.9310  177.3350  142.6830 C   0  0  0  0  0  2  0  0  0  0  0  0
  185.9000  179.2210  141.5430 C   0  0  0  0  0  2  0  0  0  0  0  0
  188.9500  177.7680  136.2910 C   0  0  0  0  0  3  0  0  0  0  0  0
  189.0860  177.6290  139.0980 C   0  0  0  0  0  0  0  0  0  0  0  0
  189.1540  178.8680  138.4360 C   0  0  0  0  0  3  0  0  0  0  0  0
  189.0860  178.9370  137.0420 C   0  0  0  0  0  3  0  0  0  0  0  0
  188.8830  176.5300  136.9330 C   0  0  0  0  0  3  0  0  0  0  0  0
  188.9500  176.4620  138.3270 C   0  0  0  0  0  3  0  0  0  0  0  0
  190.1400  176.7010  141.1050 N   0  0  0  0  0  2  0  0  0  0  0  0
  190.8880  178.7840  143.9700 C   0  0  0  0  0  3  0  0  0  0  0  0
  191.5610  176.8470  145.3960 C   0  0  0  0  0  0  0  0  0  0  0  0
  192.1430  176.6100  146.6340 O   0  0  0  0  0  1  0  0  0  0  0  0
  190.7630  176.8950  142.3820 C   0  0  0  0  0  0  0  0  0  0  0  0
  190.9870  178.1860  145.1560 C   0  0  0  0  0  3  0  0  0  0  0  0
  191.4920  175.8260  144.5300 C   0  0  0  0  0  3  0  0  0  0  0  0
  190.8870  175.8350  143.1820 C   0  0  0  0  0  3  0  0  0  0  0  0
  191.4340  178.1910  142.7150 C   0  0  0  0  0  2  0  0  0  0  0  0
  1 19  1  0  0  0  0
  2  1  1  6  0  0  0
  2 11  1  0  0  0  0
  3  9  1  0  0  0  0
  5  2  1  0  0  0  0
  5 12  1  0  0  0  0
  6  7  1  0  0  0  0
  8  6  2  0  0  0  0
  9  7  2  0  0  0  0
  9  4  1  0  0  0  0
 10  8  1  0  0  0  0
 10  3  2  0  0  0  0
 11  8  1  0  0  0  0
 12 10  1  0  0  0  0
 13 17  2  0  0  0  0
 13 16  1  0  0  0  0
 14  1  1  0  0  0  0
 15 14  1  0  0  0  0
 16 15  2  0  0  0  0
 17 18  1  0  0  0  0
 18 14  2  0  0  0  0
 19 23  1  0  0  0  0
 20 24  2  0  0  0  0
 21 22  1  0  0  0  0
 23 27  1  0  0  0  0
 23 26  2  0  0  0  0
 24 21  1  0  0  0  0
 25 21  2  0  0  0  0
 26 25  1  0  0  0  0
 27 20  1  0  0  0  0
M  END
>  <MODEL>
2

>  <REMARK>
 VINA RESULT:      -9.1      3.209      5.765
  Name = 
  4 active torsions:
  status: ('A' for Active; 'I' for Inactive)
    1  A    between atoms: N_1  and  N_15
    2  A    between atoms: N_1  and  C_18
    3  A    between atoms: C_2  and  N_15
    4  A    between atoms: C_9  and  N_15
                            x       y       z     vdW  Elec       q    Type
                         _______ _______ _______ _____ _____    ______ ____

>  <TORSDO>
F 4

$$$$
=
 OpenBabel10272401073D

 27 30  0  0  1  0  0  0  0  0999 V2000
  188.9930  177.6960  144.3840 N   0  0  0  0  0  0  0  0  0  0  0  0
  187.5370  177.6960  144.5840 C   0  0  1  0  0  3  0  0  0  0  0  0
  183.4250  178.6840  145.0540 C   0  0  0  0  0  3  0  0  0  0  0  0
  181.2580  179.0110  144.1180 F   0  0  0  0  0  0  0  0  0  0  0  0
  187.1320  178.5040  145.8120 C   0  0  0  0  0  2  0  0  0  0  0  0
  184.4770  178.4680  142.4720 C   0  0  0  0  0  3  0  0  0  0  0  0
  183.1100  178.6920  142.6530 C   0  0  0  0  0  3  0  0  0  0  0  0
  185.3250  178.3410  143.5760 C   0  0  0  0  0  0  0  0  0  0  0  0
  182.5830  178.7990  143.9430 C   0  0  0  0  0  0  0  0  0  0  0  0
  184.7960  178.4710  144.8810 C   0  0  0  0  0  0  0  0  0  0  0  0
  186.7980  178.1720  143.3340 C   0  0  0  0  0  2  0  0  0  0  0  0
  185.6510  178.2780  146.1010 C   0  0  0  0  0  2  0  0  0  0  0  0
  191.6900  176.1100  147.2740 C   0  0  0  0  0  3  0  0  0  0  0  0
  189.9020  177.1640  145.3740 C   0  0  0  0  0  0  0  0  0  0  0  0
  189.6650  177.3260  146.7500 C   0  0  0  0  0  3  0  0  0  0  0  0
  190.5530  176.8030  147.6940 C   0  0  0  0  0  3  0  0  0  0  0  0
  191.9390  175.9390  145.9110 C   0  0  0  0  0  3  0  0  0  0  0  0
  191.0500  176.4640  144.9670 C   0  0  0  0  0  3  0  0  0  0  0  0
  189.5390  178.3810  143.2790 N   0  0  0  0  0  2  0  0  0  0  0  0
  189.0680  177.3080  139.8530 C   0  0  0  0  0  3  0  0  0  0  0  0
  191.5190  177.0700  139.4290 C   0  0  0  0  0  0  0  0  0  0  0  0
  192.3690  176.5790  138.4480 O   0  0  0  0  0  1  0  0  0  0  0  0
  190.0330  177.7650  142.0810 C   0  0  0  0  0  0  0  0  0  0  0  0
  190.1230  177.3610  139.0410 C   0  0  0  0  0  3  0  0  0  0  0  0
  192.0360  177.3180  140.6400 C   0  0  0  0  0  3  0  0  0  0  0  0
  191.3350  177.8740  141.8170 C   0  0  0  0  0  3  0  0  0  0  0  0
  189.1580  176.8590  141.2720 C   0  0  0  0  0  2  0  0  0  0  0  0
  1 14  1  0  0  0  0
  2  1  1  6  0  0  0
  2  5  1  0  0  0  0
  5 12  1  0  0  0  0
  6  7  2  0  0  0  0
  6  8  1  0  0  0  0
  7  9  1  0  0  0  0
  8 10  2  0  0  0  0
  9  4  1  0  0  0  0
  9  3  2  0  0  0  0
 10  3  1  0  0  0  0
 10 12  1  0  0  0  0
 11  8  1  0  0  0  0
 11  2  1  0  0  0  0
 13 16  1  0  0  0  0
 14 15  1  0  0  0  0
 15 16  2  0  0  0  0
 17 13  2  0  0  0  0
 18 14  2  0  0  0  0
 18 17  1  0  0  0  0
 19  1  1  0  0  0  0
 20 27  1  0  0  0  0
 21 25  2  0  0  0  0
 22 21  1  0  0  0  0
 23 19  1  0  0  0  0
 24 21  1  0  0  0  0
 24 20  2  0  0  0  0
 25 26  1  0  0  0  0
 26 23  2  0  0  0  0
 27 23  1  0  0  0  0
M  END
>  <MODEL>
3

>  <REMARK>
 VINA RESULT:      -9.0      3.442      7.274
  Name = 
  4 active torsions:
  status: ('A' for Active; 'I' for Inactive)
    1  A    between atoms: N_1  and  N_15
    2  A    between atoms: N_1  and  C_18
    3  A    between atoms: C_2  and  N_15
    4  A    between atoms: C_9  and  N_15
                            x       y       z     vdW  Elec       q    Type
                         _______ _______ _______ _____ _____    ______ ____

>  <TORSDO>
F 4

$$$$
=
 OpenBabel10272401073D

 27 30  0  0  1  0  0  0  0  0999 V2000
  188.0870  177.9630  142.2470 N   0  0  0  0  0  0  0  0  0  0  0  0
  186.7510  177.8880  142.8520 C   0  0  1  0  0  3  0  0  0  0  0  0
  182.9330  178.6690  144.5620 C   0  0  0  0  0  3  0  0  0  0  0  0
  180.5840  178.9850  144.3160 F   0  0  0  0  0  0  0  0  0  0  0  0
  186.7040  178.5770  144.2120 C   0  0  0  0  0  2  0  0  0  0  0  0
  183.2010  178.7070  141.7780 C   0  0  0  0  0  3  0  0  0  0  0  0
  181.9410  178.8610  142.3610 C   0  0  0  0  0  3  0  0  0  0  0  0
  184.3330  178.5250  142.5790 C   0  0  0  0  0  0  0  0  0  0  0  0
  181.8060  178.8410  143.7520 C   0  0  0  0  0  0  0  0  0  0  0  0
  184.1990  178.5270  143.9870 C   0  0  0  0  0  0  0  0  0  0  0  0
  185.6760  178.4350  141.9130 C   0  0  0  0  0  2  0  0  0  0  0  0
  185.3720  178.2690  144.8900 C   0  0  0  0  0  2  0  0  0  0  0  0
  191.5490  176.4980  144.2500 C   0  0  0  0  0  3  0  0  0  0  0  0
  189.2660  177.4780  142.9290 C   0  0  0  0  0  0  0  0  0  0  0  0
  190.0930  178.3410  143.6700 C   0  0  0  0  0  3  0  0  0  0  0  0
  191.2270  177.8540  144.3250 C   0  0  0  0  0  3  0  0  0  0  0  0
  190.7380  175.6280  143.5190 C   0  0  0  0  0  3  0  0  0  0  0  0
  189.6040  176.1150  142.8630 C   0  0  0  0  0  3  0  0  0  0  0  0
  188.2620  178.6750  141.0420 N   0  0  0  0  0  2  0  0  0  0  0  0
  190.3830  176.4420  139.1400 C   0  0  0  0  0  3  0  0  0  0  0  0
  188.9070  176.5090  137.1250 C   0  0  0  0  0  0  0  0  0  0  0  0
  188.9200  176.0850  135.8030 O   0  0  0  0  0  1  0  0  0  0  0  0
  188.6780  178.1060  139.7930 C   0  0  0  0  0  0  0  0  0  0  0  0
  189.8590  175.8700  138.0570 C   0  0  0  0  0  3  0  0  0  0  0  0
  187.9860  177.4130  137.4850 C   0  0  0  0  0  3  0  0  0  0  0  0
  187.7620  177.9760  138.8330 C   0  0  0  0  0  3  0  0  0  0  0  0
  190.1270  177.8640  139.5100 C   0  0  0  0  0  2  0  0  0  0  0  0
  1 14  1  0  0  0  0
  2  1  1  6  0  0  0
  2  5  1  0  0  0  0
  5 12  1  0  0  0  0
  6  7  2  0  0  0  0
  6  8  1  0  0  0  0
  7  9  1  0  0  0  0
  8 10  2  0  0  0  0
  9  4  1  0  0  0  0
  9  3  2  0  0  0  0
 10  3  1  0  0  0  0
 10 12  1  0  0  0  0
 11  8  1  0  0  0  0
 11  2  1  0  0  0  0
 13 16  1  0  0  0  0
 14 15  1  0  0  0  0
 15 16  2  0  0  0  0
 17 13  2  0  0  0  0
 18 14  2  0  0  0  0
 18 17  1  0  0  0  0
 19  1  1  0  0  0  0
 20 27  1  0  0  0  0
 21 25  2  0  0  0  0
 21 24  1  0  0  0  0
 22 21  1  0  0  0  0
 23 19  1  0  0  0  0
 24 20  2  0  0  0  0
 25 26  1  0  0  0  0
 26 23  2  0  0  0  0
 27 23  1  0  0  0  0
M  END
>  <MODEL>
4

>  <REMARK>
 VINA RESULT:      -8.9      3.311      6.735
  Name = 
  4 active torsions:
  status: ('A' for Active; 'I' for Inactive)
    1  A    between atoms: N_1  and  N_15
    2  A    between atoms: N_1  and  C_18
    3  A    between atoms: C_2  and  N_15
    4  A    between atoms: C_9  and  N_15
                            x       y       z     vdW  Elec       q    Type
                         _______ _______ _______ _____ _____    ______ ____

>  <TORSDO>
F 4

$$$$
=
 OpenBabel10272401073D

 27 30  0  0  1  0  0  0  0  0999 V2000
  189.1760  177.5550  141.4430 N   0  0  0  0  0  0  0  0  0  0  0  0
  189.6000  176.9040  140.1970 C   0  0  1  0  0  3  0  0  0  0  0  0
  190.9600  175.9590  136.2760 C   0  0  0  0  0  3  0  0  0  0  0  0
  192.7330  175.4370  134.7740 F   0  0  0  0  0  0  0  0  0  0  0  0
  188.7160  177.2990  139.0190 C   0  0  0  0  0  2  0  0  0  0  0  0
  192.8450  176.5420  138.2570 C   0  0  0  0  0  3  0  0  0  0  0  0
  193.2670  176.1310  136.9900 C   0  0  0  0  0  3  0  0  0  0  0  0
  191.4820  176.6550  138.5470 C   0  0  0  0  0  0  0  0  0  0  0  0
  192.3250  175.8390  136.0000 C   0  0  0  0  0  0  0  0  0  0  0  0
  190.5290  176.3810  137.5380 C   0  0  0  0  0  0  0  0  0  0  0  0
  191.0760  177.1670  139.8980 C   0  0  0  0  0  2  0  0  0  0  0  0
  189.0530  176.4240  137.8160 C   0  0  0  0  0  2  0  0  0  0  0  0
  191.5570  177.4720  144.9740 C   0  0  0  0  0  3  0  0  0  0  0  0
  189.9830  177.5150  142.6420 C   0  0  0  0  0  0  0  0  0  0  0  0
  190.4160  176.2960  143.1940 C   0  0  0  0  0  3  0  0  0  0  0  0
  191.1970  176.2740  144.3520 C   0  0  0  0  0  3  0  0  0  0  0  0
  191.1360  178.6900  144.4380 C   0  0  0  0  0  3  0  0  0  0  0  0
  190.3530  178.7100  143.2800 C   0  0  0  0  0  3  0  0  0  0  0  0
  187.8760  178.0940  141.5340 N   0  0  0  0  0  2  0  0  0  0  0  0
  187.3600  177.3830  145.0450 C   0  0  0  0  0  3  0  0  0  0  0  0
  185.1710  178.5830  145.1240 C   0  0  0  0  0  0  0  0  0  0  0  0
  184.1080  178.7660  145.9990 O   0  0  0  0  0  1  0  0  0  0  0  0
  187.0180  178.0070  142.6800 C   0  0  0  0  0  0  0  0  0  0  0  0
  186.4490  178.1070  145.6920 C   0  0  0  0  0  3  0  0  0  0  0  0
  184.9900  178.9180  143.8400 C   0  0  0  0  0  3  0  0  0  0  0  0
  185.9830  178.8450  142.7470 C   0  0  0  0  0  3  0  0  0  0  0  0
  187.1600  176.8820  143.6550 C   0  0  0  0  0  2  0  0  0  0  0  0
  1 19  1  0  0  0  0
  1 14  1  0  0  0  0
  2  1  1  1  0  0  0
  3 10  1  0  0  0  0
  4  9  1  0  0  0  0
  5  2  1  0  0  0  0
  6  8  1  0  0  0  0
  7  6  2  0  0  0  0
  8 11  1  0  0  0  0
  9  3  2  0  0  0  0
  9  7  1  0  0  0  0
 10 12  1  0  0  0  0
 10  8  2  0  0  0  0
 11  2  1  0  0  0  0
 12  5  1  0  0  0  0
 14 15  2  0  0  0  0
 14 18  1  0  0  0  0
 15 16  1  0  0  0  0
 16 13  2  0  0  0  0
 17 13  1  0  0  0  0
 18 17  2  0  0  0  0
 19 23  1  0  0  0  0
 20 24  2  0  0  0  0
 21 24  1  0  0  0  0
 21 22  1  0  0  0  0
 23 26  2  0  0  0  0
 23 27  1  0  0  0  0
 25 21  2  0  0  0  0
 26 25  1  0  0  0  0
 27 20  1  0  0  0  0
M  END
>  <MODEL>
5

>  <REMARK>
 VINA RESULT:      -8.9      3.237      6.249
  Name = 
  4 active torsions:
  status: ('A' for Active; 'I' for Inactive)
    1  A    between atoms: N_1  and  N_15
    2  A    between atoms: N_1  and  C_18
    3  A    between atoms: C_2  and  N_15
    4  A    between atoms: C_9  and  N_15
                            x       y       z     vdW  Elec       q    Type
                         _______ _______ _______ _____ _____    ______ ____

>  <TORSDO>
F 4

$$$$
=
 OpenBabel10272401073D

 27 30  0  0  1  0  0  0  0  0999 V2000
  189.8480  177.3520  140.1440 N   0  0  0  0  0  0  0  0  0  0  0  0
  189.7300  177.0610  141.5790 C   0  0  1  0  0  3  0  0  0  0  0  0
  189.3880  177.2170  145.8180 C   0  0  0  0  0  3  0  0  0  0  0  0
  188.0400  177.2560  147.7820 F   0  0  0  0  0  0  0  0  0  0  0  0
  190.9060  177.6250  142.3710 C   0  0  0  0  0  2  0  0  0  0  0  0
  187.0830  177.5170  144.2630 C   0  0  0  0  0  3  0  0  0  0  0  0
  186.9850  177.4640  145.6560 C   0  0  0  0  0  3  0  0  0  0  0  0
  188.3290  177.4120  143.6380 C   0  0  0  0  0  0  0  0  0  0  0  0
  188.1360  177.3130  146.4340 C   0  0  0  0  0  0  0  0  0  0  0  0
  189.4960  177.2810  144.4260 C   0  0  0  0  0  0  0  0  0  0  0  0
  188.3950  177.5460  142.1440 C   0  0  0  0  0  2  0  0  0  0  0  0
  190.8510  177.0980  143.8020 C   0  0  0  0  0  2  0  0  0  0  0  0
  192.7420  175.4290  137.6800 C   0  0  0  0  0  3  0  0  0  0  0  0
  190.8380  176.7090  139.3100 C   0  0  0  0  0  0  0  0  0  0  0  0
  192.1790  177.1330  139.3030 C   0  0  0  0  0  3  0  0  0  0  0  0
  193.1250  176.4980  138.4940 C   0  0  0  0  0  3  0  0  0  0  0  0
  191.4150  174.9960  137.6770 C   0  0  0  0  0  3  0  0  0  0  0  0
  190.4700  175.6320  138.4860 C   0  0  0  0  0  3  0  0  0  0  0  0
  189.0930  178.4050  139.5870 N   0  0  0  0  0  2  0  0  0  0  0  0
  189.0690  177.9370  135.9980 C   0  0  0  0  0  3  0  0  0  0  0  0
  186.5970  177.5900  135.9060 C   0  0  0  0  0  0  0  0  0  0  0  0
  185.5910  177.4700  134.9560 O   0  0  0  0  0  1  0  0  0  0  0  0
  188.3930  178.3550  138.3370 C   0  0  0  0  0  0  0  0  0  0  0  0
  187.9880  177.3760  135.4580 C   0  0  0  0  0  3  0  0  0  0  0  0
  186.2360  177.8200  137.1750 C   0  0  0  0  0  3  0  0  0  0  0  0
  187.1240  177.9450  138.3500 C   0  0  0  0  0  3  0  0  0  0  0  0
  188.9980  178.9390  137.0990 C   0  0  0  0  0  2  0  0  0  0  0  0
  2  1  1  6  0  0  0
  2 11  1  0  0  0  0
  2  5  1  0  0  0  0
  3  9  1  0  0  0  0
  5 12  1  0  0  0  0
  6  7  1  0  0  0  0
  7  9  2  0  0  0  0
  8  6  2  0  0  0  0
  8 10  1  0  0  0  0
  9  4  1  0  0  0  0
 10  3  2  0  0  0  0
 11  8  1  0  0  0  0
 12 10  1  0  0  0  0
 13 16  1  0  0  0  0
 14  1  1  0  0  0  0
 15 14  1  0  0  0  0
 16 15  2  0  0  0  0
 17 13  2  0  0  0  0
 17 18  1  0  0  0  0
 18 14  2  0  0  0  0
 19  1  1  0  0  0  0
 20 27  1  0  0  0  0
 21 25  2  0  0  0  0
 22 21  1  0  0  0  0
 23 26  2  0  0  0  0
 23 19  1  0  0  0  0
 24 21  1  0  0  0  0
 24 20  2  0  0  0  0
 25 26  1  0  0  0  0
 27 23  1  0  0  0  0
M  END
>  <MODEL>
6

>  <REMARK>
 VINA RESULT:      -8.8      2.668      4.270
  Name = 
  4 active torsions:
  status: ('A' for Active; 'I' for Inactive)
    1  A    between atoms: N_1  and  N_15
    2  A    between atoms: N_1  and  C_18
    3  A    between atoms: C_2  and  N_15
    4  A    between atoms: C_9  and  N_15
                            x       y       z     vdW  Elec       q    Type
                         _______ _______ _______ _____ _____    ______ ____

>  <TORSDO>
F 4

$$$$
=
 OpenBabel10272401073D

 27 30  0  0  1  0  0  0  0  0999 V2000
  190.5010  177.5280  143.4550 N   0  0  0  0  0  0  0  0  0  0  0  0
  189.1190  178.0040  143.5990 C   0  0  1  0  0  3  0  0  0  0  0  0
  184.9190  178.4110  144.1540 C   0  0  0  0  0  3  0  0  0  0  0  0
  183.0500  178.7840  145.5840 F   0  0  0  0  0  0  0  0  0  0  0  0
  188.1960  177.3960  142.5470 C   0  0  0  0  0  2  0  0  0  0  0  0
  186.5680  178.2200  146.4040 C   0  0  0  0  0  3  0  0  0  0  0  0
  185.1990  178.4550  146.5590 C   0  0  0  0  0  3  0  0  0  0  0  0
  187.1240  178.0890  145.1280 C   0  0  0  0  0  0  0  0  0  0  0  0
  184.3750  178.5510  145.4340 C   0  0  0  0  0  0  0  0  0  0  0  0
  186.2860  178.1640  143.9910 C   0  0  0  0  0  0  0  0  0  0  0  0
  188.5860  177.7670  145.0120 C   0  0  0  0  0  2  0  0  0  0  0  0
  186.8410  178.0960  142.5970 C   0  0  0  0  0  2  0  0  0  0  0  0
  192.3580  175.0410  146.3730 C   0  0  0  0  0  3  0  0  0  0  0  0
  191.1310  176.6930  144.4540 C   0  0  0  0  0  0  0  0  0  0  0  0
  191.2470  177.1100  145.7920 C   0  0  0  0  0  3  0  0  0  0  0  0
  191.8560  176.2900  146.7450 C   0  0  0  0  0  3  0  0  0  0  0  0
  192.2500  174.6120  145.0480 C   0  0  0  0  0  3  0  0  0  0  0  0
  191.6410  175.4340  144.0950 C   0  0  0  0  0  3  0  0  0  0  0  0
  191.2990  178.0270  142.4050 N   0  0  0  0  0  2  0  0  0  0  0  0
  190.0350  176.8840  139.2110 C   0  0  0  0  0  3  0  0  0  0  0  0
  192.3160  176.6400  138.2230 C   0  0  0  0  0  0  0  0  0  0  0  0
  192.9120  176.1290  137.0770 O   0  0  0  0  0  1  0  0  0  0  0  0
  191.4980  177.3870  141.1370 C   0  0  0  0  0  0  0  0  0  0  0  0
  190.8670  176.9210  138.1710 C   0  0  0  0  0  3  0  0  0  0  0  0
  193.1050  176.9120  139.2710 C   0  0  0  0  0  3  0  0  0  0  0  0
  192.7000  177.4920  140.5690 C   0  0  0  0  0  3  0  0  0  0  0  0
  190.4620  176.4640  140.5770 C   0  0  0  0  0  2  0  0  0  0  0  0
  1 14  1  0  0  0  0
  2  1  1  1  0  0  0
  2 11  1  0  0  0  0
  3  9  1  0  0  0  0
  5 12  1  0  0  0  0
  5  2  1  0  0  0  0
  6  7  1  0  0  0  0
  8  6  2  0  0  0  0
  9  4  1  0  0  0  0
  9  7  2  0  0  0  0
 10  3  2  0  0  0  0
 10  8  1  0  0  0  0
 11  8  1  0  0  0  0
 12 10  1  0  0  0  0
 13 16  1  0  0  0  0
 14 15  1  0  0  0  0
 15 16  2  0  0  0  0
 17 13  2  0  0  0  0
 18 14  2  0  0  0  0
 18 17  1  0  0  0  0
 19  1  1  0  0  0  0
 20 27  1  0  0  0  0
 21 25  2  0  0  0  0
 22 21  1  0  0  0  0
 23 19  1  0  0  0  0
 24 21  1  0  0  0  0
 24 20  2  0  0  0  0
 25 26  1  0  0  0  0
 26 23  2  0  0  0  0
 27 23  1  0  0  0  0
M  END
>  <MODEL>
7

>  <REMARK>
 VINA RESULT:      -8.7      3.490      6.879
  Name = 
  4 active torsions:
  status: ('A' for Active; 'I' for Inactive)
    1  A    between atoms: N_1  and  N_15
    2  A    between atoms: N_1  and  C_18
    3  A    between atoms: C_2  and  N_15
    4  A    between atoms: C_9  and  N_15
                            x       y       z     vdW  Elec       q    Type
                         _______ _______ _______ _____ _____    ______ ____

>  <TORSDO>
F 4

$$$$
=
 OpenBabel10272401073D

 27 30  0  0  1  0  0  0  0  0999 V2000
  187.9850  177.6050  144.4120 N   0  0  0  0  0  0  0  0  0  0  0  0
  189.0800  177.7790  143.4490 C   0  0  1  0  0  3  0  0  0  0  0  0
  192.3070  177.2860  140.7180 C   0  0  0  0  0  3  0  0  0  0  0  0
  193.1030  176.9930  138.4920 F   0  0  0  0  0  0  0  0  0  0  0  0
  190.4050  177.2580  143.9950 C   0  0  0  0  0  2  0  0  0  0  0  0
  189.6910  176.9130  139.8020 C   0  0  0  0  0  3  0  0  0  0  0  0
  190.7610  176.8560  138.9050 C   0  0  0  0  0  3  0  0  0  0  0  0
  189.9180  177.1650  141.1590 C   0  0  0  0  0  0  0  0  0  0  0  0
  192.0680  177.0430  139.3620 C   0  0  0  0  0  0  0  0  0  0  0  0
  191.2430  177.3330  141.6250 C   0  0  0  0  0  0  0  0  0  0  0  0
  188.7470  177.1480  142.0980 C   0  0  0  0  0  2  0  0  0  0  0  0
  191.5370  177.6720  143.0590 C   0  0  0  0  0  2  0  0  0  0  0  0
  188.6090  178.0180  148.6060 C   0  0  0  0  0  3  0  0  0  0  0  0
  188.1870  177.7520  145.8370 C   0  0  0  0  0  0  0  0  0  0  0  0
  187.2040  178.3290  146.6610 C   0  0  0  0  0  3  0  0  0  0  0  0
  187.4140  178.4620  148.0360 C   0  0  0  0  0  3  0  0  0  0  0  0
  189.5940  177.4420  147.8010 C   0  0  0  0  0  3  0  0  0  0  0  0
  189.3830  177.3110  146.4260 C   0  0  0  0  0  3  0  0  0  0  0  0
  186.7400  177.1190  143.9640 N   0  0  0  0  0  2  0  0  0  0  0  0
  184.3550  178.3290  141.5230 C   0  0  0  0  0  3  0  0  0  0  0  0
  182.7670  179.1620  143.2620 C   0  0  0  0  0  0  0  0  0  0  0  0
  181.6040  179.9160  143.3430 O   0  0  0  0  0  1  0  0  0  0  0  0
  185.6090  177.9280  143.6140 C   0  0  0  0  0  0  0  0  0  0  0  0
  183.1190  178.5890  141.9470 C   0  0  0  0  0  3  0  0  0  0  0  0
  183.4520  178.9430  144.3930 C   0  0  0  0  0  3  0  0  0  0  0  0
  184.6860  178.1460  144.5520 C   0  0  0  0  0  3  0  0  0  0  0  0
  185.5720  178.6690  142.3150 C   0  0  0  0  0  2  0  0  0  0  0  0
  1 14  1  0  0  0  0
  2  5  1  0  0  0  0
  2  1  1  1  0  0  0
  3 10  1  0  0  0  0
  4  9  1  0  0  0  0
  6  8  1  0  0  0  0
  7  9  1  0  0  0  0
  7  6  2  0  0  0  0
  8 10  2  0  0  0  0
  8 11  1  0  0  0  0
  9  3  2  0  0  0  0
 10 12  1  0  0  0  0
 11  2  1  0  0  0  0
 12  5  1  0  0  0  0
 14 18  2  0  0  0  0
 14 15  1  0  0  0  0
 15 16  2  0  0  0  0
 16 13  1  0  0  0  0
 17 13  2  0  0  0  0
 18 17  1  0  0  0  0
 19  1  1  0  0  0  0
 20 24  2  0  0  0  0
 20 27  1  0  0  0  0
 21 22  1  0  0  0  0
 21 25  2  0  0  0  0
 23 19  1  0  0  0  0
 23 26  2  0  0  0  0
 24 21  1  0  0  0  0
 25 26  1  0  0  0  0
 27 23  1  0  0  0  0
M  END
>  <MODEL>
8

>  <REMARK>
 VINA RESULT:      -8.6      2.469      5.759
  Name = 
  4 active torsions:
  status: ('A' for Active; 'I' for Inactive)
    1  A    between atoms: N_1  and  N_15
    2  A    between atoms: N_1  and  C_18
    3  A    between atoms: C_2  and  N_15
    4  A    between atoms: C_9  and  N_15
                            x       y       z     vdW  Elec       q    Type
                         _______ _______ _______ _____ _____    ______ ____

>  <TORSDO>
F 4

$$$$
=
 OpenBabel10272401073D

 27 30  0  0  1  0  0  0  0  0999 V2000
  184.3090  179.0100  141.0570 N   0  0  0  0  0  0  0  0  0  0  0  0
  184.7040  179.1100  142.4690 C   0  0  1  0  0  3  0  0  0  0  0  0
  185.5700  178.4370  146.5800 C   0  0  0  0  0  3  0  0  0  0  0  0
  187.1070  177.8250  148.2950 F   0  0  0  0  0  0  0  0  0  0  0  0
  183.5370  178.8210  143.4070 C   0  0  0  0  0  2  0  0  0  0  0  0
  187.4480  177.6630  144.6590 C   0  0  0  0  0  3  0  0  0  0  0  0
  187.7500  177.5460  146.0180 C   0  0  0  0  0  3  0  0  0  0  0  0
  186.2130  178.1750  144.2500 C   0  0  0  0  0  0  0  0  0  0  0  0
  186.8120  177.9330  146.9790 C   0  0  0  0  0  0  0  0  0  0  0  0
  185.2560  178.5470  145.2230 C   0  0  0  0  0  0  0  0  0  0  0  0
  185.9050  178.2170  142.7810 C   0  0  0  0  0  2  0  0  0  0  0  0
  183.9410  179.1640  144.8380 C   0  0  0  0  0  2  0  0  0  0  0  0
  180.8110  176.9050  139.8420 C   0  0  0  0  0  3  0  0  0  0  0  0
  183.1280  178.2860  140.6420 C   0  0  0  0  0  0  0  0  0  0  0  0
  183.1780  176.9130  140.3380 C   0  0  0  0  0  3  0  0  0  0  0  0
  182.0280  176.2280  139.9400 C   0  0  0  0  0  3  0  0  0  0  0  0
  180.7440  178.2680  140.1410 C   0  0  0  0  0  3  0  0  0  0  0  0
  181.8960  178.9520  140.5370 C   0  0  0  0  0  3  0  0  0  0  0  0
  185.1830  179.4850  140.0590 N   0  0  0  0  0  2  0  0  0  0  0  0
  186.7330  178.4120  136.9670 C   0  0  0  0  0  3  0  0  0  0  0  0
  188.7360  177.4660  138.1210 C   0  0  0  0  0  0  0  0  0  0  0  0
  189.8560  176.7030  137.8190 O   0  0  0  0  0  1  0  0  0  0  0  0
  186.1470  178.6930  139.3510 C   0  0  0  0  0  0  0  0  0  0  0  0
  188.0320  178.1210  137.0000 C   0  0  0  0  0  3  0  0  0  0  0  0
  188.4130  177.6200  139.4120 C   0  0  0  0  0  3  0  0  0  0  0  0
  187.2960  178.4130  139.9670 C   0  0  0  0  0  3  0  0  0  0  0  0
  185.7890  178.0320  138.0570 C   0  0  0  0  0  2  0  0  0  0  0  0
  2  1  1  6  0  0  0
  2 11  1  0  0  0  0
  2  5  1  0  0  0  0
  3  9  1  0  0  0  0
  5 12  1  0  0  0  0
  6  7  1  0  0  0  0
  7  9  2  0  0  0  0
  8  6  2  0  0  0  0
  8 10  1  0  0  0  0
  9  4  1  0  0  0  0
 10  3  2  0  0  0  0
 11  8  1  0  0  0  0
 12 10  1  0  0  0  0
 13 16  2  0  0  0  0
 13 17  1  0  0  0  0
 14  1  1  0  0  0  0
 15 14  2  0  0  0  0
 16 15  1  0  0  0  0
 17 18  2  0  0  0  0
 18 14  1  0  0  0  0
 19  1  1  0  0  0  0
 20 24  2  0  0  0  0
 20 27  1  0  0  0  0
 21 25  2  0  0  0  0
 22 21  1  0  0  0  0
 23 26  2  0  0  0  0
 23 19  1  0  0  0  0
 24 21  1  0  0  0  0
 25 26  1  0  0  0  0
 27 23  1  0  0  0  0
M  END
>  <MODEL>
9

>  <REMARK>
 VINA RESULT:      -8.5      3.102      6.067
  Name = 
  4 active torsions:
  status: ('A' for Active; 'I' for Inactive)
    1  A    between atoms: N_1  and  N_15
    2  A    between atoms: N_1  and  C_18
    3  A    between atoms: C_2  and  N_15
    4  A    between atoms: C_9  and  N_15
                            x       y       z     vdW  Elec       q    Type
                         _______ _______ _______ _____ _____    ______ ____

>  <TORSDO>
F 4

$$$$
