=
 OpenBabel10272400493D

 25 28  0  0  0  0  0  0  0  0999 V2000
  187.4460  177.7730  145.5100 C   0  0  0  0  0  0  0  0  0  0  0  0
  188.7010  177.2720  145.1330 C   0  0  0  0  0  0  0  0  0  0  0  0
  188.1540  177.8200  147.8290 C   0  0  0  0  0  3  0  0  0  0  0  0
  186.3410  178.0650  144.6930 C   0  0  0  0  0  0  0  0  0  0  0  0
  183.9600  178.7550  143.4080 C   0  0  0  0  0  3  0  0  0  0  0  0
  189.3690  177.3330  147.4530 N   0  0  0  0  0  0  0  0  0  0  0  0
  185.2530  178.5500  145.4160 C   0  0  0  0  0  0  0  0  0  0  0  0
  184.0540  178.9020  144.8000 C   0  0  0  0  0  3  0  0  0  0  0  0
  190.9270  176.5560  145.7840 C   0  0  0  0  0  0  0  0  0  0  0  0
  191.9860  176.3060  146.8030 C   0  0  0  0  0  1  0  0  0  0  0  0
  189.0020  176.9950  143.8350 N   0  0  0  0  0  0  0  0  0  0  0  0
  185.0490  178.2650  142.6650 C   0  0  0  0  0  3  0  0  0  0  0  0
  187.1900  178.0400  146.8510 C   0  0  0  0  0  0  0  0  0  0  0  0
  185.6240  178.6310  147.0590 S   0  0  0  0  0  0  0  0  0  0  0  0
  191.2000  176.2830  144.4430 C   0  0  0  0  0  3  0  0  0  0  0  0
  186.2490  177.9170  143.3060 C   0  0  0  0  0  3  0  0  0  0  0  0
  190.2190  176.5090  143.4670 C   0  0  0  0  0  0  0  0  0  0  0  0
  189.6680  177.0550  146.1460 C   0  0  0  0  0  0  0  0  0  0  0  0
  190.4610  176.2460  142.1150 O   0  0  0  0  0  0  0  0  0  0  0  0
  190.7160  177.2740  141.1680 C   0  0  0  0  0  2  0  0  0  0  0  0
  189.7370  177.1540  140.0200 C   0  0  0  0  0  2  0  0  0  0  0  0
  188.6480  178.1980  140.1750 C   0  0  0  0  0  2  0  0  0  0  0  0
  188.2600  178.7040  138.8690 N   0  0  0  0  0  0  0  0  0  0  0  0
  189.3380  178.3710  137.9570 C   0  0  0  0  0  1  0  0  0  0  0  0
  187.1050  177.9340  138.4410 C   0  0  0  0  0  1  0  0  0  0  0  0
  1 13  1  0  0  0  0
  2  1  2  0  0  0  0
  2 18  1  0  0  0  0
  4  7  1  0  0  0  0
  4  1  1  0  0  0  0
  5  8  1  0  0  0  0
  6  3  1  0  0  0  0
  7 14  1  0  0  0  0
  8  7  2  0  0  0  0
  9 18  1  0  0  0  0
  9 10  1  0  0  0  0
 11  2  1  0  0  0  0
 12 16  1  0  0  0  0
 12  5  2  0  0  0  0
 13 14  1  0  0  0  0
 13  3  2  0  0  0  0
 15  9  2  0  0  0  0
 16  4  2  0  0  0  0
 17 11  2  0  0  0  0
 17 15  1  0  0  0  0
 18  6  2  0  0  0  0
 19 17  1  0  0  0  0
 20 19  1  0  0  0  0
 21 22  1  0  0  0  0
 21 20  1  0  0  0  0
 23 22  1  0  0  0  0
 24 23  1  0  0  0  0
 25 23  1  0  0  0  0
M  END
>  <MODEL>
1

>  <REMARK>
 VINA RESULT:      -9.3      0.000      0.000
  Name = 
  5 active torsions:
  status: ('A' for Active; 'I' for Inactive)
    1  A    between atoms: N_2  and  C_25
    2  A    between atoms: O_6  and  C_15
    3  A    between atoms: O_6  and  C_23
    4  A    between atoms: C_15  and  C_21
    5  A    between atoms: C_21  and  C_25
                            x       y       z     vdW  Elec       q    Type
                         _______ _______ _______ _____ _____    ______ ____

>  <TORSDO>
F 5

$$$$
=
 OpenBabel10272400493D

 25 28  0  0  0  0  0  0  0  0999 V2000
  187.5710  177.8600  145.7940 C   0  0  0  0  0  0  0  0  0  0  0  0
  186.7700  178.1440  144.6780 C   0  0  0  0  0  0  0  0  0  0  0  0
  185.7180  178.3820  147.2680 C   0  0  0  0  0  3  0  0  0  0  0  0
  188.9130  177.4450  145.8220 C   0  0  0  0  0  0  0  0  0  0  0  0
  191.5410  176.6200  146.2770 C   0  0  0  0  0  3  0  0  0  0  0  0
  184.9470  178.6560  146.1780 N   0  0  0  0  0  0  0  0  0  0  0  0
  189.3890  177.2550  147.1180 C   0  0  0  0  0  0  0  0  0  0  0  0
  190.6940  176.8440  147.3730 C   0  0  0  0  0  3  0  0  0  0  0  0
  184.6170  178.8380  143.7960 C   0  0  0  0  0  0  0  0  0  0  0  0
  183.2000  179.2690  143.9650 C   0  0  0  0  0  1  0  0  0  0  0  0
  187.2460  178.0400  143.4080 N   0  0  0  0  0  0  0  0  0  0  0  0
  191.0760  176.8080  144.9630 C   0  0  0  0  0  3  0  0  0  0  0  0
  187.0350  177.9820  147.0710 C   0  0  0  0  0  0  0  0  0  0  0  0
  188.1800  177.5890  148.2450 S   0  0  0  0  0  0  0  0  0  0  0  0
  185.1400  178.7200  142.5080 C   0  0  0  0  0  3  0  0  0  0  0  0
  189.7550  177.2220  144.7280 C   0  0  0  0  0  3  0  0  0  0  0  0
  186.4710  178.3160  142.3240 C   0  0  0  0  0  0  0  0  0  0  0  0
  185.4300  178.5510  144.9020 C   0  0  0  0  0  0  0  0  0  0  0  0
  187.0230  178.1880  141.0460 O   0  0  0  0  0  0  0  0  0  0  0  0
  188.4250  178.2010  140.8120 C   0  0  0  0  0  2  0  0  0  0  0  0
  188.6900  178.0220  139.3330 C   0  0  0  0  0  2  0  0  0  0  0  0
  187.3780  178.0850  138.5740 C   0  0  0  0  0  2  0  0  0  0  0  0
  187.5570  178.8330  137.3420 N   0  0  0  0  0  0  0  0  0  0  0  0
  188.9860  179.0200  137.1720 C   0  0  0  0  0  1  0  0  0  0  0  0
  187.1220  177.9710  136.2560 C   0  0  0  0  0  1  0  0  0  0  0  0
  1  4  1  0  0  0  0
  1 13  2  0  0  0  0
  2 18  2  0  0  0  0
  2  1  1  0  0  0  0
  4  7  1  0  0  0  0
  5  8  1  0  0  0  0
  6  3  2  0  0  0  0
  7  8  2  0  0  0  0
  7 14  1  0  0  0  0
  9 10  1  0  0  0  0
  9 18  1  0  0  0  0
 11  2  1  0  0  0  0
 12  5  2  0  0  0  0
 13  3  1  0  0  0  0
 13 14  1  0  0  0  0
 15  9  2  0  0  0  0
 16 12  1  0  0  0  0
 16  4  2  0  0  0  0
 17 15  1  0  0  0  0
 17 11  2  0  0  0  0
 18  6  1  0  0  0  0
 19 17  1  0  0  0  0
 20 19  1  0  0  0  0
 21 20  1  0  0  0  0
 22 21  1  0  0  0  0
 23 22  1  0  0  0  0
 24 23  1  0  0  0  0
 25 23  1  0  0  0  0
M  END
>  <MODEL>
2

>  <REMARK>
 VINA RESULT:      -9.0      1.743      4.602
  Name = 
  5 active torsions:
  status: ('A' for Active; 'I' for Inactive)
    1  A    between atoms: N_2  and  C_25
    2  A    between atoms: O_6  and  C_15
    3  A    between atoms: O_6  and  C_23
    4  A    between atoms: C_15  and  C_21
    5  A    between atoms: C_21  and  C_25
                            x       y       z     vdW  Elec       q    Type
                         _______ _______ _______ _____ _____    ______ ____

>  <TORSDO>
F 5

$$$$
=
 OpenBabel10272400493D

 25 28  0  0  0  0  0  0  0  0999 V2000
  187.4570  177.7630  145.5300 C   0  0  0  0  0  0  0  0  0  0  0  0
  188.7580  177.3190  145.2470 C   0  0  0  0  0  0  0  0  0  0  0  0
  187.9640  177.7570  147.9020 C   0  0  0  0  0  3  0  0  0  0  0  0
  186.4150  178.0420  144.6320 C   0  0  0  0  0  0  0  0  0  0  0  0
  184.1260  178.6920  143.1700 C   0  0  0  0  0  3  0  0  0  0  0  0
  189.2250  177.3260  147.6170 N   0  0  0  0  0  0  0  0  0  0  0  0
  185.2520  178.4660  145.2730 C   0  0  0  0  0  0  0  0  0  0  0  0
  184.0980  178.7960  144.5680 C   0  0  0  0  0  3  0  0  0  0  0  0
  190.9460  176.6590  146.0650 C   0  0  0  0  0  0  0  0  0  0  0  0
  191.9240  176.4130  147.1630 C   0  0  0  0  0  1  0  0  0  0  0  0
  189.1770  177.0950  143.9720 N   0  0  0  0  0  0  0  0  0  0  0  0
  185.2920  178.2660  142.5080 C   0  0  0  0  0  3  0  0  0  0  0  0
  187.0800  177.9750  146.8520 C   0  0  0  0  0  0  0  0  0  0  0  0
  185.4800  178.5040  146.9430 S   0  0  0  0  0  0  0  0  0  0  0  0
  191.3410  176.4400  144.7440 C   0  0  0  0  0  3  0  0  0  0  0  0
  186.4460  177.9380  143.2380 C   0  0  0  0  0  3  0  0  0  0  0  0
  190.4380  176.6640  143.6950 C   0  0  0  0  0  0  0  0  0  0  0  0
  189.6430  177.1020  146.3330 C   0  0  0  0  0  0  0  0  0  0  0  0
  190.8030  176.4550  142.3620 O   0  0  0  0  0  0  0  0  0  0  0  0
  189.9550  176.7910  141.2720 C   0  0  0  0  0  2  0  0  0  0  0  0
  190.8000  177.1510  140.0690 C   0  0  0  0  0  2  0  0  0  0  0  0
  190.1760  176.5610  138.8190 C   0  0  0  0  0  2  0  0  0  0  0  0
  190.8870  175.3550  138.4350 N   0  0  0  0  0  0  0  0  0  0  0  0
  190.1900  174.8100  137.2850 C   0  0  0  0  0  1  0  0  0  0  0  0
  192.1990  175.7660  137.9640 C   0  0  0  0  0  1  0  0  0  0  0  0
  1 13  1  0  0  0  0
  2  1  2  0  0  0  0
  2 18  1  0  0  0  0
  4  7  1  0  0  0  0
  4  1  1  0  0  0  0
  5  8  1  0  0  0  0
  6  3  1  0  0  0  0
  7 14  1  0  0  0  0
  8  7  2  0  0  0  0
  9 18  1  0  0  0  0
  9 10  1  0  0  0  0
 11  2  1  0  0  0  0
 12  5  2  0  0  0  0
 12 16  1  0  0  0  0
 13 14  1  0  0  0  0
 13  3  2  0  0  0  0
 15  9  2  0  0  0  0
 16  4  2  0  0  0  0
 17 11  2  0  0  0  0
 17 15  1  0  0  0  0
 18  6  2  0  0  0  0
 19 17  1  0  0  0  0
 20 19  1  0  0  0  0
 21 20  1  0  0  0  0
 22 21  1  0  0  0  0
 23 22  1  0  0  0  0
 24 23  1  0  0  0  0
 25 23  1  0  0  0  0
M  END
>  <MODEL>
3

>  <REMARK>
 VINA RESULT:      -9.0      1.399      1.711
  Name = 
  5 active torsions:
  status: ('A' for Active; 'I' for Inactive)
    1  A    between atoms: N_2  and  C_25
    2  A    between atoms: O_6  and  C_15
    3  A    between atoms: O_6  and  C_23
    4  A    between atoms: C_15  and  C_21
    5  A    between atoms: C_21  and  C_25
                            x       y       z     vdW  Elec       q    Type
                         _______ _______ _______ _____ _____    ______ ____

>  <TORSDO>
F 5

$$$$
=
 OpenBabel10272400493D

 25 28  0  0  0  0  0  0  0  0999 V2000
  187.4030  177.8750  145.7680 C   0  0  0  0  0  0  0  0  0  0  0  0
  186.5480  178.1490  144.6900 C   0  0  0  0  0  0  0  0  0  0  0  0
  185.6130  178.3790  147.3250 C   0  0  0  0  0  3  0  0  0  0  0  0
  188.7490  177.4750  145.7360 C   0  0  0  0  0  0  0  0  0  0  0  0
  191.4040  176.6790  146.0720 C   0  0  0  0  0  3  0  0  0  0  0  0
  184.7900  178.6440  146.2720 N   0  0  0  0  0  0  0  0  0  0  0  0
  189.2850  177.2920  147.0090 C   0  0  0  0  0  0  0  0  0  0  0  0
  190.6050  176.8950  147.2050 C   0  0  0  0  0  3  0  0  0  0  0  0
  184.3500  178.8180  143.9070 C   0  0  0  0  0  0  0  0  0  0  0  0
  182.9380  179.2340  144.1400 C   0  0  0  0  0  1  0  0  0  0  0  0
  186.9670  178.0480  143.3990 N   0  0  0  0  0  0  0  0  0  0  0  0
  190.8770  176.8600  144.7800 C   0  0  0  0  0  3  0  0  0  0  0  0
  186.9230  177.9940  147.0690 C   0  0  0  0  0  0  0  0  0  0  0  0
  188.1260  177.6150  148.1900 S   0  0  0  0  0  0  0  0  0  0  0  0
  184.8150  178.7040  142.5960 C   0  0  0  0  0  3  0  0  0  0  0  0
  189.5420  177.2600  144.6050 C   0  0  0  0  0  3  0  0  0  0  0  0
  186.1400  178.3140  142.3520 C   0  0  0  0  0  0  0  0  0  0  0  0
  185.2160  178.5410  144.9740 C   0  0  0  0  0  0  0  0  0  0  0  0
  186.6350  178.1900  141.0510 O   0  0  0  0  0  0  0  0  0  0  0  0
  187.9930  178.4480  140.7190 C   0  0  0  0  0  2  0  0  0  0  0  0
  188.2410  178.0610  139.2770 C   0  0  0  0  0  2  0  0  0  0  0  0
  189.7340  178.0300  139.0120 C   0  0  0  0  0  2  0  0  0  0  0  0
  190.3240  176.8670  139.6510 N   0  0  0  0  0  0  0  0  0  0  0  0
  190.8320  176.0210  138.5880 C   0  0  0  0  0  1  0  0  0  0  0  0
  191.4820  177.3330  140.3960 C   0  0  0  0  0  1  0  0  0  0  0  0
  1 13  2  0  0  0  0
  2 18  2  0  0  0  0
  2  1  1  0  0  0  0
  4  1  1  0  0  0  0
  4  7  1  0  0  0  0
  5  8  1  0  0  0  0
  6  3  2  0  0  0  0
  7  8  2  0  0  0  0
  7 14  1  0  0  0  0
  9 10  1  0  0  0  0
  9 18  1  0  0  0  0
 11  2  1  0  0  0  0
 12  5  2  0  0  0  0
 13  3  1  0  0  0  0
 13 14  1  0  0  0  0
 15  9  2  0  0  0  0
 16 12  1  0  0  0  0
 16  4  2  0  0  0  0
 17 15  1  0  0  0  0
 17 11  2  0  0  0  0
 18  6  1  0  0  0  0
 19 17  1  0  0  0  0
 20 19  1  0  0  0  0
 21 20  1  0  0  0  0
 22 21  1  0  0  0  0
 22 23  1  0  0  0  0
 23 25  1  0  0  0  0
 24 23  1  0  0  0  0
M  END
>  <MODEL>
4

>  <REMARK>
 VINA RESULT:      -9.0      1.864      4.775
  Name = 
  5 active torsions:
  status: ('A' for Active; 'I' for Inactive)
    1  A    between atoms: N_2  and  C_25
    2  A    between atoms: O_6  and  C_15
    3  A    between atoms: O_6  and  C_23
    4  A    between atoms: C_15  and  C_21
    5  A    between atoms: C_21  and  C_25
                            x       y       z     vdW  Elec       q    Type
                         _______ _______ _______ _____ _____    ______ ____

>  <TORSDO>
F 5

$$$$
=
 OpenBabel10272400493D

 25 28  0  0  0  0  0  0  0  0999 V2000
  186.2070  178.4260  142.6690 C   0  0  0  0  0  0  0  0  0  0  0  0
  187.3340  178.1750  141.8730 C   0  0  0  0  0  0  0  0  0  0  0  0
  184.9350  179.0220  140.6910 C   0  0  0  0  0  3  0  0  0  0  0  0
  186.0790  178.3130  144.0630 C   0  0  0  0  0  0  0  0  0  0  0  0
  185.4460  178.2070  146.7810 C   0  0  0  0  0  3  0  0  0  0  0  0
  186.0360  178.7760  139.9270 N   0  0  0  0  0  0  0  0  0  0  0  0
  184.8030  178.6460  144.5140 C   0  0  0  0  0  0  0  0  0  0  0  0
  184.4610  178.6010  145.8630 C   0  0  0  0  0  3  0  0  0  0  0  0
  188.3400  178.1140  139.6650 C   0  0  0  0  0  0  0  0  0  0  0  0
  188.2850  178.2920  138.1860 C   0  0  0  0  0  1  0  0  0  0  0  0
  188.5150  177.7630  142.4110 N   0  0  0  0  0  0  0  0  0  0  0  0
  186.7380  177.8680  146.3410 C   0  0  0  0  0  3  0  0  0  0  0  0
  185.0250  178.8450  142.0670 C   0  0  0  0  0  0  0  0  0  0  0  0
  183.8150  179.0820  143.2190 S   0  0  0  0  0  0  0  0  0  0  0  0
  189.5340  177.6920  140.2520 C   0  0  0  0  0  3  0  0  0  0  0  0
  187.0620  177.9190  144.9760 C   0  0  0  0  0  3  0  0  0  0  0  0
  189.6100  177.5190  141.6420 C   0  0  0  0  0  0  0  0  0  0  0  0
  187.2210  178.3620  140.4730 C   0  0  0  0  0  0  0  0  0  0  0  0
  190.7910  177.0970  142.2600 O   0  0  0  0  0  0  0  0  0  0  0  0
  190.7980  176.2980  143.4350 C   0  0  0  0  0  2  0  0  0  0  0  0
  191.3410  177.1090  144.5920 C   0  0  0  0  0  2  0  0  0  0  0  0
  191.9000  176.1730  145.6460 C   0  0  0  0  0  2  0  0  0  0  0  0
  191.7960  176.7880  146.9580 N   0  0  0  0  0  0  0  0  0  0  0  0
  190.3800  176.9140  147.2470 C   0  0  0  0  0  1  0  0  0  0  0  0
  192.3310  175.8360  147.9170 C   0  0  0  0  0  1  0  0  0  0  0  0
  1  4  1  0  0  0  0
  2 11  1  0  0  0  0
  2  1  1  0  0  0  0
  3 13  1  0  0  0  0
  4  7  2  0  0  0  0
  4 16  1  0  0  0  0
  6 18  1  0  0  0  0
  6  3  2  0  0  0  0
  7  8  1  0  0  0  0
  8  5  2  0  0  0  0
  9 15  2  0  0  0  0
  9 18  1  0  0  0  0
 10  9  1  0  0  0  0
 12  5  1  0  0  0  0
 13  1  2  0  0  0  0
 13 14  1  0  0  0  0
 14  7  1  0  0  0  0
 15 17  1  0  0  0  0
 16 12  2  0  0  0  0
 17 19  1  0  0  0  0
 17 11  2  0  0  0  0
 18  2  2  0  0  0  0
 19 20  1  0  0  0  0
 20 21  1  0  0  0  0
 21 22  1  0  0  0  0
 22 23  1  0  0  0  0
 23 24  1  0  0  0  0
 23 25  1  0  0  0  0
M  END
>  <MODEL>
5

>  <REMARK>
 VINA RESULT:      -8.9      1.545      5.710
  Name = 
  5 active torsions:
  status: ('A' for Active; 'I' for Inactive)
    1  A    between atoms: N_2  and  C_25
    2  A    between atoms: O_6  and  C_15
    3  A    between atoms: O_6  and  C_23
    4  A    between atoms: C_15  and  C_21
    5  A    between atoms: C_21  and  C_25
                            x       y       z     vdW  Elec       q    Type
                         _______ _______ _______ _____ _____    ______ ____

>  <TORSDO>
F 5

$$$$
=
 OpenBabel10272400493D

 25 28  0  0  0  0  0  0  0  0999 V2000
  189.4870  177.3880  144.4740 C   0  0  0  0  0  0  0  0  0  0  0  0
  189.2000  177.5550  143.1110 C   0  0  0  0  0  0  0  0  0  0  0  0
  191.7310  176.6540  143.9190 C   0  0  0  0  0  3  0  0  0  0  0  0
  188.6480  177.6150  145.5770 C   0  0  0  0  0  0  0  0  0  0  0  0
  187.2920  177.9510  147.9950 C   0  0  0  0  0  3  0  0  0  0  0  0
  191.4430  176.8200  142.5980 N   0  0  0  0  0  0  0  0  0  0  0  0
  189.2730  177.3400  146.7930 C   0  0  0  0  0  0  0  0  0  0  0  0
  188.6200  177.4990  148.0120 C   0  0  0  0  0  3  0  0  0  0  0  0
  189.9460  177.4210  140.8050 C   0  0  0  0  0  0  0  0  0  0  0  0
  190.9750  177.1250  139.7670 C   0  0  0  0  0  1  0  0  0  0  0  0
  187.9840  177.9900  142.6820 N   0  0  0  0  0  0  0  0  0  0  0  0
  186.6470  178.2320  146.7760 C   0  0  0  0  0  3  0  0  0  0  0  0
  190.7470  176.9400  144.8580 C   0  0  0  0  0  0  0  0  0  0  0  0
  190.8550  176.8170  146.5370 S   0  0  0  0  0  0  0  0  0  0  0  0
  188.6870  177.8690  140.4020 C   0  0  0  0  0  3  0  0  0  0  0  0
  187.3250  178.0650  145.5580 C   0  0  0  0  0  3  0  0  0  0  0  0
  187.7040  178.1530  141.3610 C   0  0  0  0  0  0  0  0  0  0  0  0
  190.2180  177.2570  142.1710 C   0  0  0  0  0  0  0  0  0  0  0  0
  186.4330  178.6040  140.9900 O   0  0  0  0  0  0  0  0  0  0  0  0
  185.5930  179.3380  141.8690 C   0  0  0  0  0  2  0  0  0  0  0  0
  184.7890  178.3760  142.7170 C   0  0  0  0  0  2  0  0  0  0  0  0
  183.3100  178.5940  142.4630 C   0  0  0  0  0  2  0  0  0  0  0  0
  182.7220  179.3280  143.5700 N   0  0  0  0  0  0  0  0  0  0  0  0
  181.3440  178.8860  143.6770 C   0  0  0  0  0  1  0  0  0  0  0  0
  183.3930  178.8820  144.7790 C   0  0  0  0  0  1  0  0  0  0  0  0
  1 13  2  0  0  0  0
  1  4  1  0  0  0  0
  2  1  1  0  0  0  0
  3 13  1  0  0  0  0
  4  7  1  0  0  0  0
  5  8  1  0  0  0  0
  6  3  2  0  0  0  0
  7  8  2  0  0  0  0
  9 18  1  0  0  0  0
 10  9  1  0  0  0  0
 11  2  1  0  0  0  0
 12  5  2  0  0  0  0
 13 14  1  0  0  0  0
 14  7  1  0  0  0  0
 15  9  2  0  0  0  0
 15 17  1  0  0  0  0
 16  4  2  0  0  0  0
 16 12  1  0  0  0  0
 17 11  2  0  0  0  0
 18  6  1  0  0  0  0
 18  2  2  0  0  0  0
 19 17  1  0  0  0  0
 19 20  1  0  0  0  0
 20 21  1  0  0  0  0
 22 21  1  0  0  0  0
 22 23  1  0  0  0  0
 23 24  1  0  0  0  0
 23 25  1  0  0  0  0
M  END
>  <MODEL>
6

>  <REMARK>
 VINA RESULT:      -8.6      2.316      5.275
  Name = 
  5 active torsions:
  status: ('A' for Active; 'I' for Inactive)
    1  A    between atoms: N_2  and  C_25
    2  A    between atoms: O_6  and  C_15
    3  A    between atoms: O_6  and  C_23
    4  A    between atoms: C_15  and  C_21
    5  A    between atoms: C_21  and  C_25
                            x       y       z     vdW  Elec       q    Type
                         _______ _______ _______ _____ _____    ______ ____

>  <TORSDO>
F 5

$$$$
=
 OpenBabel10272400493D

 25 28  0  0  0  0  0  0  0  0999 V2000
  187.2330  177.9140  145.3560 C   0  0  0  0  0  0  0  0  0  0  0  0
  186.2600  178.2240  144.3950 C   0  0  0  0  0  0  0  0  0  0  0  0
  185.5950  178.2120  147.1200 C   0  0  0  0  0  3  0  0  0  0  0  0
  188.5840  177.5850  145.1570 C   0  0  0  0  0  0  0  0  0  0  0  0
  191.2910  176.9000  145.1610 C   0  0  0  0  0  3  0  0  0  0  0  0
  184.6580  178.5120  146.1790 N   0  0  0  0  0  0  0  0  0  0  0  0
  189.2580  177.3360  146.3520 C   0  0  0  0  0  0  0  0  0  0  0  0
  190.6060  176.9920  146.3820 C   0  0  0  0  0  3  0  0  0  0  0  0
  183.9660  178.8380  143.8920 C   0  0  0  0  0  0  0  0  0  0  0  0
  182.5690  179.1650  144.2980 C   0  0  0  0  0  1  0  0  0  0  0  0
  186.5460  178.2400  143.0640 N   0  0  0  0  0  0  0  0  0  0  0  0
  190.6250  177.1490  143.9470 C   0  0  0  0  0  3  0  0  0  0  0  0
  186.8870  177.9130  146.7040 C   0  0  0  0  0  0  0  0  0  0  0  0
  188.2150  177.5130  147.6650 S   0  0  0  0  0  0  0  0  0  0  0  0
  184.2960  178.8440  142.5360 C   0  0  0  0  0  3  0  0  0  0  0  0
  189.2640  177.4940  143.9390 C   0  0  0  0  0  3  0  0  0  0  0  0
  185.6040  178.5400  142.1300 C   0  0  0  0  0  0  0  0  0  0  0  0
  184.9490  178.5270  144.8420 C   0  0  0  0  0  0  0  0  0  0  0  0
  185.9660  178.5380  140.7800 O   0  0  0  0  0  0  0  0  0  0  0  0
  185.0250  178.7350  139.7330 C   0  0  0  0  0  2  0  0  0  0  0  0
  185.5240  178.0600  138.4730 C   0  0  0  0  0  2  0  0  0  0  0  0
  187.0410  178.0400  138.4790 C   0  0  0  0  0  2  0  0  0  0  0  0
  187.5500  178.8500  137.3860 N   0  0  0  0  0  0  0  0  0  0  0  0
  188.9970  178.7730  137.4510 C   0  0  0  0  0  1  0  0  0  0  0  0
  187.1560  178.1920  136.1520 C   0  0  0  0  0  1  0  0  0  0  0  0
  1 13  2  0  0  0  0
  2 18  2  0  0  0  0
  2  1  1  0  0  0  0
  4  1  1  0  0  0  0
  4  7  1  0  0  0  0
  5  8  1  0  0  0  0
  6  3  2  0  0  0  0
  7  8  2  0  0  0  0
  7 14  1  0  0  0  0
  9 10  1  0  0  0  0
  9 18  1  0  0  0  0
 11  2  1  0  0  0  0
 12  5  2  0  0  0  0
 13  3  1  0  0  0  0
 13 14  1  0  0  0  0
 15  9  2  0  0  0  0
 16 12  1  0  0  0  0
 16  4  2  0  0  0  0
 17 15  1  0  0  0  0
 17 11  2  0  0  0  0
 18  6  1  0  0  0  0
 19 17  1  0  0  0  0
 20 19  1  0  0  0  0
 21 22  1  0  0  0  0
 21 20  1  0  0  0  0
 23 24  1  0  0  0  0
 23 22  1  0  0  0  0
 25 23  1  0  0  0  0
M  END
>  <MODEL>
7

>  <REMARK>
 VINA RESULT:      -8.5      2.071      4.914
  Name = 
  5 active torsions:
  status: ('A' for Active; 'I' for Inactive)
    1  A    between atoms: N_2  and  C_25
    2  A    between atoms: O_6  and  C_15
    3  A    between atoms: O_6  and  C_23
    4  A    between atoms: C_15  and  C_21
    5  A    between atoms: C_21  and  C_25
                            x       y       z     vdW  Elec       q    Type
                         _______ _______ _______ _____ _____    ______ ____

>  <TORSDO>
F 5

$$$$
=
 OpenBabel10272400493D

 25 28  0  0  0  0  0  0  0  0999 V2000
  187.3620  178.0940  141.7980 C   0  0  0  0  0  0  0  0  0  0  0  0
  186.8100  178.0980  143.0870 C   0  0  0  0  0  0  0  0  0  0  0  0
  185.2680  178.9170  140.8910 C   0  0  0  0  0  3  0  0  0  0  0  0
  188.6570  177.7190  141.4040 C   0  0  0  0  0  0  0  0  0  0  0  0
  191.1120  177.0640  140.2470 C   0  0  0  0  0  3  0  0  0  0  0  0
  184.7410  178.9160  142.1470 N   0  0  0  0  0  0  0  0  0  0  0  0
  188.8570  177.8440  140.0300 C   0  0  0  0  0  0  0  0  0  0  0  0
  190.0710  177.5250  139.4280 C   0  0  0  0  0  3  0  0  0  0  0  0
  184.9010  178.5320  144.5230 C   0  0  0  0  0  0  0  0  0  0  0  0
  183.4930  178.9690  144.7480 C   0  0  0  0  0  1  0  0  0  0  0  0
  187.5270  177.7080  144.1760 N   0  0  0  0  0  0  0  0  0  0  0  0
  190.9260  176.9320  141.6350 C   0  0  0  0  0  3  0  0  0  0  0  0
  186.5840  178.5030  140.7190 C   0  0  0  0  0  0  0  0  0  0  0  0
  187.4580  178.4130  139.2790 S   0  0  0  0  0  0  0  0  0  0  0  0
  185.6670  178.1260  145.6160 C   0  0  0  0  0  3  0  0  0  0  0  0
  189.6930  177.2610  142.2220 C   0  0  0  0  0  3  0  0  0  0  0  0
  186.9940  177.7110  145.4280 C   0  0  0  0  0  0  0  0  0  0  0  0
  185.4660  178.5230  143.2400 C   0  0  0  0  0  0  0  0  0  0  0  0
  187.7870  177.2980  146.5020 O   0  0  0  0  0  0  0  0  0  0  0  0
  188.0720  178.1370  147.6130 C   0  0  0  0  0  2  0  0  0  0  0  0
  189.4740  177.8570  148.1090 C   0  0  0  0  0  2  0  0  0  0  0  0
  190.0580  176.6890  147.3370 C   0  0  0  0  0  2  0  0  0  0  0  0
  191.4400  176.9710  146.9880 N   0  0  0  0  0  0  0  0  0  0  0  0
  192.2070  175.7930  147.3470 C   0  0  0  0  0  1  0  0  0  0  0  0
  191.4990  177.0750  145.5400 C   0  0  0  0  0  1  0  0  0  0  0  0
  1  2  2  0  0  0  0
  2 18  1  0  0  0  0
  2 11  1  0  0  0  0
  3  6  1  0  0  0  0
  4  1  1  0  0  0  0
  4 16  1  0  0  0  0
  5 12  1  0  0  0  0
  6 18  2  0  0  0  0
  7  4  2  0  0  0  0
  8  7  1  0  0  0  0
  8  5  2  0  0  0  0
  9 10  1  0  0  0  0
  9 15  2  0  0  0  0
 11 17  2  0  0  0  0
 12 16  2  0  0  0  0
 13  3  2  0  0  0  0
 13  1  1  0  0  0  0
 14  7  1  0  0  0  0
 14 13  1  0  0  0  0
 17 15  1  0  0  0  0
 17 19  1  0  0  0  0
 18  9  1  0  0  0  0
 19 20  1  0  0  0  0
 20 21  1  0  0  0  0
 22 21  1  0  0  0  0
 23 22  1  0  0  0  0
 23 24  1  0  0  0  0
 25 23  1  0  0  0  0
M  END
>  <MODEL>
8

>  <REMARK>
 VINA RESULT:      -8.3      2.443      6.732
  Name = 
  5 active torsions:
  status: ('A' for Active; 'I' for Inactive)
    1  A    between atoms: N_2  and  C_25
    2  A    between atoms: O_6  and  C_15
    3  A    between atoms: O_6  and  C_23
    4  A    between atoms: C_15  and  C_21
    5  A    between atoms: C_21  and  C_25
                            x       y       z     vdW  Elec       q    Type
                         _______ _______ _______ _____ _____    ______ ____

>  <TORSDO>
F 5

$$$$
=
 OpenBabel10272400493D

 25 28  0  0  0  0  0  0  0  0999 V2000
  189.5550  177.4420  144.1930 C   0  0  0  0  0  0  0  0  0  0  0  0
  189.0820  177.6890  142.8960 C   0  0  0  0  0  0  0  0  0  0  0  0
  191.7130  176.8000  143.2910 C   0  0  0  0  0  3  0  0  0  0  0  0
  188.8720  177.5790  145.4120 C   0  0  0  0  0  0  0  0  0  0  0  0
  187.8550  177.7280  148.0090 C   0  0  0  0  0  3  0  0  0  0  0  0
  191.2440  177.0420  142.0350 N   0  0  0  0  0  0  0  0  0  0  0  0
  189.6620  177.2430  146.5110 C   0  0  0  0  0  0  0  0  0  0  0  0
  189.1800  177.3080  147.8150 C   0  0  0  0  0  3  0  0  0  0  0  0
  189.5070  177.7190  140.5060 C   0  0  0  0  0  0  0  0  0  0  0  0
  190.3880  177.5150  139.3210 C   0  0  0  0  0  1  0  0  0  0  0  0
  187.8120  178.1210  142.6650 N   0  0  0  0  0  0  0  0  0  0  0  0
  187.0460  178.0710  146.9100 C   0  0  0  0  0  3  0  0  0  0  0  0
  190.8630  177.0020  144.3720 C   0  0  0  0  0  0  0  0  0  0  0  0
  191.2020  176.7750  146.0090 S   0  0  0  0  0  0  0  0  0  0  0  0
  188.1980  178.1620  140.3080 C   0  0  0  0  0  3  0  0  0  0  0  0
  187.5520  177.9980  145.6030 C   0  0  0  0  0  3  0  0  0  0  0  0
  187.3510  178.3610  141.4080 C   0  0  0  0  0  0  0  0  0  0  0  0
  189.9660  177.4760  141.8080 C   0  0  0  0  0  0  0  0  0  0  0  0
  186.0350  178.8040  141.2440 O   0  0  0  0  0  0  0  0  0  0  0  0
  185.2390  179.2640  142.3270 C   0  0  0  0  0  2  0  0  0  0  0  0
  183.9620  178.4540  142.3930 C   0  0  0  0  0  2  0  0  0  0  0  0
  183.5810  177.9980  140.9980 C   0  0  0  0  0  2  0  0  0  0  0  0
  182.6050  178.9110  140.4300 N   0  0  0  0  0  0  0  0  0  0  0  0
  182.8040  178.8910  138.9930 C   0  0  0  0  0  1  0  0  0  0  0  0
  181.2930  178.3360  140.6730 C   0  0  0  0  0  1  0  0  0  0  0  0
  1 13  2  0  0  0  0
  1  4  1  0  0  0  0
  2  1  1  0  0  0  0
  3 13  1  0  0  0  0
  4 16  2  0  0  0  0
  4  7  1  0  0  0  0
  6  3  2  0  0  0  0
  7  8  2  0  0  0  0
  8  5  1  0  0  0  0
  9 18  1  0  0  0  0
 10  9  1  0  0  0  0
 11  2  1  0  0  0  0
 12  5  2  0  0  0  0
 13 14  1  0  0  0  0
 14  7  1  0  0  0  0
 15  9  2  0  0  0  0
 15 17  1  0  0  0  0
 16 12  1  0  0  0  0
 17 11  2  0  0  0  0
 18  6  1  0  0  0  0
 18  2  2  0  0  0  0
 19 17  1  0  0  0  0
 19 20  1  0  0  0  0
 20 21  1  0  0  0  0
 22 21  1  0  0  0  0
 23 25  1  0  0  0  0
 23 22  1  0  0  0  0
 24 23  1  0  0  0  0
M  END
>  <MODEL>
9

>  <REMARK>
 VINA RESULT:      -8.3      2.573      5.199
  Name = 
  5 active torsions:
  status: ('A' for Active; 'I' for Inactive)
    1  A    between atoms: N_2  and  C_25
    2  A    between atoms: O_6  and  C_15
    3  A    between atoms: O_6  and  C_23
    4  A    between atoms: C_15  and  C_21
    5  A    between atoms: C_21  and  C_25
                            x       y       z     vdW  Elec       q    Type
                         _______ _______ _______ _____ _____    ______ ____

>  <TORSDO>
F 5

$$$$
