=
 OpenBabel10272401503D

 28 31  0  0  1  0  0  0  0  0999 V2000
  187.4080  178.6180  140.5600 C   0  0  1  0  0  3  0  0  0  0  0  0
  189.7610  177.5230  138.0400 C   0  0  0  0  0  2  0  0  0  0  0  0
  187.9120  178.5280  139.1740 N   0  0  0  0  0  0  0  0  0  0  0  0
  188.6190  176.5430  138.0040 C   0  0  0  0  0  2  0  0  0  0  0  0
  189.3710  178.5060  139.1150 C   0  0  0  0  0  2  0  0  0  0  0  0
  187.4250  177.3160  138.5220 C   0  0  0  0  0  2  0  0  0  0  0  0
  185.2740  179.5390  139.7770 O   0  0  0  0  0  1  0  0  0  0  0  0
  185.8840  178.7670  140.7660 C   0  0  2  0  0  3  0  0  0  0  0  0
  185.5410  179.3010  142.1490 C   0  0  0  0  0  2  0  0  0  0  0  0
  184.4620  178.4490  142.8070 C   0  0  2  0  0  3  0  0  0  0  0  0
  181.4790  178.9260  142.8780 C   0  0  0  0  0  2  0  0  0  0  0  0
  183.4930  177.8950  141.7480 C   0  0  0  0  0  2  0  0  0  0  0  0
  184.5480  179.1340  145.2070 C   0  0  0  0  0  1  0  0  0  0  0  0
  183.7650  179.2520  143.9160 C   0  0  2  0  0  3  0  0  0  0  0  0
  182.3350  178.7680  144.1430 C   0  0  0  0  0  2  0  0  0  0  0  0
  182.2790  178.8040  141.5740 C   0  0  0  0  0  2  0  0  0  0  0  0
  187.9900  177.5300  141.4510 C   0  0  0  0  0  2  0  0  0  0  0  0
  189.0710  178.1080  142.3540 C   0  0  0  0  0  2  0  0  0  0  0  0
  187.6300  177.3490  144.2040 C   0  0  0  0  0  3  0  0  0  0  0  0
  189.9580  177.8100  144.8230 C   0  0  2  0  0  0  0  0  0  0  0  0
  188.2690  177.7050  146.5790 C   0  0  0  0  0  0  0  0  0  0  0  0
  188.8550  177.7100  143.7890 C   0  0  0  0  0  0  0  0  0  0  0  0
  191.3090  176.1470  143.4460 C   0  0  0  0  0  1  0  0  0  0  0  0
  189.5430  178.0930  146.1530 O   0  0  0  0  0  0  0  0  0  0  0  0
  191.2770  178.4300  144.4300 C   0  0  0  0  0  2  0  0  0  0  0  0
  187.9040  177.9370  147.7600 O   0  0  0  0  0  0  0  0  0  0  0  0
  187.3520  176.9740  145.6400 C   0  0  0  0  0  2  0  0  0  0  0  0
  191.2030  176.9360  144.7400 C   0  0  1  0  0  3  0  0  0  0  0  0
  1  8  1  0  0  0  0
  1 17  1  1  0  0  0
  2  5  1  0  0  0  0
  3  1  1  0  0  0  0
  4  2  1  0  0  0  0
  4  6  1  0  0  0  0
  5  3  1  0  0  0  0
  6  3  1  0  0  0  0
  8  7  1  6  0  0  0
  8  9  1  0  0  0  0
 10  9  1  6  0  0  0
 10 14  1  0  0  0  0
 11 15  1  0  0  0  0
 12 10  1  0  0  0  0
 14 15  1  0  0  0  0
 14 13  1  1  0  0  0
 16 12  1  0  0  0  0
 16 11  1  0  0  0  0
 17 18  1  0  0  0  0
 18 22  1  0  0  0  0
 19 27  1  0  0  0  0
 20 25  1  6  0  0  0
 20 24  1  0  0  0  0
 21 26  2  0  0  0  0
 22 19  2  0  0  0  0
 22 20  1  0  0  0  0
 24 21  1  0  0  0  0
 25 28  1  0  0  0  0
 27 21  1  0  0  0  0
 28 23  1  6  0  0  0
 28 20  1  0  0  0  0
M  END
>  <MODEL>
1

>  <REMARK>
 VINA RESULT:      -8.2      0.000      0.000
  Name = 
  7 active torsions:
  status: ('A' for Active; 'I' for Inactive)
    1  A    between atoms: C_2  and  C_3
    2  A    between atoms: C_2  and  C_26
    3  A    between atoms: C_10  and  C_13
    4  A    between atoms: C_10  and  C_17
    5  A    between atoms: N_16  and  C_27
    6  A    between atoms: C_17  and  C_27
    7  A    between atoms: C_26  and  C_27
                            x       y       z     vdW  Elec       q    Type
                         _______ _______ _______ _____ _____    ______ ____

>  <TORSDO>
F 7

$$$$
=
 OpenBabel10272401503D

 28 31  0  0  1  0  0  0  0  0999 V2000
  188.7010  177.5590  141.1610 C   0  0  1  0  0  3  0  0  0  0  0  0
  191.4500  176.6080  139.0090 C   0  0  0  0  0  2  0  0  0  0  0  0
  189.5910  177.7430  139.9970 N   0  0  0  0  0  0  0  0  0  0  0  0
  190.2000  176.0920  138.3490 C   0  0  0  0  0  2  0  0  0  0  0  0
  190.9540  177.2870  140.2610 C   0  0  0  0  0  2  0  0  0  0  0  0
  189.0940  177.0010  138.8410 C   0  0  0  0  0  2  0  0  0  0  0  0
  189.1580  175.7900  142.7980 O   0  0  0  0  0  1  0  0  0  0  0  0
  189.3440  177.1410  142.5030 C   0  0  2  0  0  3  0  0  0  0  0  0
  188.8750  178.0110  143.6600 C   0  0  0  0  0  2  0  0  0  0  0  0
  188.5530  177.1590  144.8820 C   0  0  2  0  0  3  0  0  0  0  0  0
  187.3730  178.0350  147.5220 C   0  0  0  0  0  2  0  0  0  0  0  0
  187.0420  177.1740  145.1680 C   0  0  0  0  0  2  0  0  0  0  0  0
  190.7560  176.9260  146.0350 C   0  0  0  0  0  1  0  0  0  0  0  0
  189.4070  177.6140  146.0760 C   0  0  2  0  0  3  0  0  0  0  0  0
  188.7200  177.3080  147.4040 C   0  0  0  0  0  2  0  0  0  0  0  0
  186.6750  178.2610  146.1740 C   0  0  0  0  0  2  0  0  0  0  0  0
  187.7450  178.7290  141.3390 C   0  0  0  0  0  2  0  0  0  0  0  0
  186.3950  178.4090  140.7110 C   0  0  0  0  0  2  0  0  0  0  0  0
  185.5240  179.4370  142.7750 C   0  0  0  0  0  3  0  0  0  0  0  0
  183.8260  178.4310  141.3180 C   0  0  2  0  0  0  0  0  0  0  0  0
  183.2640  178.8830  143.6480 C   0  0  0  0  0  0  0  0  0  0  0  0
  185.2630  178.8110  141.6160 C   0  0  0  0  0  0  0  0  0  0  0  0
  183.9900  179.7670  139.1560 C   0  0  0  0  0  1  0  0  0  0  0  0
  182.9890  178.2190  142.4490 O   0  0  0  0  0  0  0  0  0  0  0  0
  183.5340  177.5300  140.1430 C   0  0  0  0  0  2  0  0  0  0  0  0
  182.5170  178.7140  144.6450 O   0  0  0  0  0  0  0  0  0  0  0  0
  184.4270  179.8310  143.7340 C   0  0  0  0  0  2  0  0  0  0  0  0
  183.0920  178.9920  140.1070 C   0  0  1  0  0  3  0  0  0  0  0  0
  1 17  1  1  0  0  0
  1  8  1  0  0  0  0
  2  5  1  0  0  0  0
  3  5  1  0  0  0  0
  3  1  1  0  0  0  0
  4  6  1  0  0  0  0
  4  2  1  0  0  0  0
  6  3  1  0  0  0  0
  8  7  1  1  0  0  0
  8  9  1  0  0  0  0
 10  9  1  6  0  0  0
 10 12  1  0  0  0  0
 10 14  1  0  0  0  0
 12 16  1  0  0  0  0
 14 13  1  1  0  0  0
 14 15  1  0  0  0  0
 15 11  1  0  0  0  0
 16 11  1  0  0  0  0
 18 17  1  0  0  0  0
 18 22  1  0  0  0  0
 19 27  1  0  0  0  0
 20 25  1  6  0  0  0
 20 22  1  0  0  0  0
 20 24  1  0  0  0  0
 21 27  1  0  0  0  0
 21 26  2  0  0  0  0
 22 19  2  0  0  0  0
 24 21  1  0  0  0  0
 28 23  1  6  0  0  0
 28 25  1  0  0  0  0
 28 20  1  0  0  0  0
M  END
>  <MODEL>
2

>  <REMARK>
 VINA RESULT:      -8.2      1.974      5.589
  Name = 
  7 active torsions:
  status: ('A' for Active; 'I' for Inactive)
    1  A    between atoms: C_2  and  C_3
    2  A    between atoms: C_2  and  C_26
    3  A    between atoms: C_10  and  C_13
    4  A    between atoms: C_10  and  C_17
    5  A    between atoms: N_16  and  C_27
    6  A    between atoms: C_17  and  C_27
    7  A    between atoms: C_26  and  C_27
                            x       y       z     vdW  Elec       q    Type
                         _______ _______ _______ _____ _____    ______ ____

>  <TORSDO>
F 7

$$$$
=
 OpenBabel10272401503D

 28 31  0  0  1  0  0  0  0  0999 V2000
  186.5810  178.0100  142.9240 C   0  0  1  0  0  3  0  0  0  0  0  0
  183.1880  178.7250  143.9550 C   0  0  0  0  0  2  0  0  0  0  0  0
  185.4850  178.9170  143.3200 N   0  0  0  0  0  0  0  0  0  0  0  0
  184.0120  178.6900  145.2140 C   0  0  0  0  0  2  0  0  0  0  0  0
  184.1810  178.4500  142.8550 C   0  0  0  0  0  2  0  0  0  0  0  0
  185.4160  179.0460  144.7730 C   0  0  0  0  0  2  0  0  0  0  0  0
  187.0070  179.5210  141.0400 O   0  0  0  0  0  1  0  0  0  0  0  0
  187.5310  178.4720  141.7970 C   0  0  2  0  0  3  0  0  0  0  0  0
  187.9540  177.3210  140.8950 C   0  0  0  0  0  2  0  0  0  0  0  0
  188.6320  177.8440  139.6340 C   0  0  2  0  0  3  0  0  0  0  0  0
  189.0020  176.4400  136.9840 C   0  0  0  0  0  2  0  0  0  0  0  0
  187.6210  177.9410  138.4780 C   0  0  0  0  0  2  0  0  0  0  0  0
  191.0630  177.4790  140.0760 C   0  0  0  0  0  1  0  0  0  0  0  0
  189.8590  176.9800  139.3040 C   0  0  2  0  0  3  0  0  0  0  0  0
  190.1700  176.9980  137.8090 C   0  0  0  0  0  2  0  0  0  0  0  0
  187.6280  176.6760  137.6240 C   0  0  0  0  0  2  0  0  0  0  0  0
  187.3530  177.4890  144.1280 C   0  0  0  0  0  2  0  0  0  0  0  0
  188.7560  178.0810  144.1520 C   0  0  0  0  0  2  0  0  0  0  0  0
  189.1360  177.1610  146.4070 C   0  0  0  0  0  3  0  0  0  0  0  0
  191.0720  177.0590  144.9050 C   0  0  2  0  0  0  0  0  0  0  0  0
  191.4290  176.8290  147.3070 C   0  0  0  0  0  0  0  0  0  0  0  0
  189.6200  177.3960  145.1770 C   0  0  0  0  0  0  0  0  0  0  0  0
  190.2980  175.5660  142.9930 C   0  0  0  0  0  1  0  0  0  0  0  0
  191.9410  177.0850  146.0310 O   0  0  0  0  0  0  0  0  0  0  0  0
  191.7020  177.5220  143.6130 C   0  0  0  0  0  2  0  0  0  0  0  0
  192.1960  176.8330  148.3030 O   0  0  0  0  0  0  0  0  0  0  0  0
  189.9720  176.5080  147.4820 C   0  0  0  0  0  2  0  0  0  0  0  0
  191.4630  176.0310  143.8510 C   0  0  1  0  0  3  0  0  0  0  0  0
  1  3  1  0  0  0  0
  1 17  1  1  0  0  0
  2  4  1  0  0  0  0
  3  6  1  0  0  0  0
  5  3  1  0  0  0  0
  5  2  1  0  0  0  0
  6  4  1  0  0  0  0
  8  7  1  6  0  0  0
  8  1  1  0  0  0  0
  9  8  1  0  0  0  0
 10  9  1  1  0  0  0
 11 16  1  0  0  0  0
 11 15  1  0  0  0  0
 12 10  1  0  0  0  0
 14 10  1  0  0  0  0
 14 13  1  1  0  0  0
 15 14  1  0  0  0  0
 16 12  1  0  0  0  0
 17 18  1  0  0  0  0
 18 22  1  0  0  0  0
 19 27  1  0  0  0  0
 20 25  1  6  0  0  0
 20 22  1  0  0  0  0
 20 24  1  0  0  0  0
 21 27  1  0  0  0  0
 21 26  2  0  0  0  0
 22 19  2  0  0  0  0
 24 21  1  0  0  0  0
 25 28  1  0  0  0  0
 28 23  1  6  0  0  0
 28 20  1  0  0  0  0
M  END
>  <MODEL>
3

>  <REMARK>
 VINA RESULT:      -7.7      1.786      5.384
  Name = 
  7 active torsions:
  status: ('A' for Active; 'I' for Inactive)
    1  A    between atoms: C_2  and  C_3
    2  A    between atoms: C_2  and  C_26
    3  A    between atoms: C_10  and  C_13
    4  A    between atoms: C_10  and  C_17
    5  A    between atoms: N_16  and  C_27
    6  A    between atoms: C_17  and  C_27
    7  A    between atoms: C_26  and  C_27
                            x       y       z     vdW  Elec       q    Type
                         _______ _______ _______ _____ _____    ______ ____

>  <TORSDO>
F 7

$$$$
=
 OpenBabel10272401503D

 28 31  0  0  1  0  0  0  0  0999 V2000
  185.8850  178.8620  142.3470 C   0  0  1  0  0  3  0  0  0  0  0  0
  184.1020  178.2950  139.2500 C   0  0  0  0  0  2  0  0  0  0  0  0
  184.8710  179.1970  141.3260 N   0  0  0  0  0  0  0  0  0  0  0  0
  183.2430  177.7170  140.3430 C   0  0  0  0  0  2  0  0  0  0  0  0
  185.3040  178.8450  139.9760 C   0  0  0  0  0  2  0  0  0  0  0  0
  183.6180  178.4940  141.5870 C   0  0  0  0  0  2  0  0  0  0  0  0
  185.1050  179.5490  144.5680 O   0  0  0  0  0  1  0  0  0  0  0  0
  185.3880  178.4540  143.7510 C   0  0  2  0  0  3  0  0  0  0  0  0
  186.3510  177.5020  144.4470 C   0  0  0  0  0  2  0  0  0  0  0  0
  187.1740  178.2380  145.4980 C   0  0  2  0  0  3  0  0  0  0  0  0
  189.1620  177.0940  147.4640 C   0  0  0  0  0  2  0  0  0  0  0  0
  188.6770  178.1040  145.1970 C   0  0  0  0  0  2  0  0  0  0  0  0
  185.5810  178.5280  147.3990 C   0  0  0  0  0  1  0  0  0  0  0  0
  186.7840  177.7520  146.9020 C   0  0  2  0  0  3  0  0  0  0  0  0
  187.9370  177.9140  147.8900 C   0  0  0  0  0  2  0  0  0  0  0  0
  189.2910  176.9240  145.9440 C   0  0  0  0  0  2  0  0  0  0  0  0
  186.9270  177.8880  141.8170 C   0  0  0  0  0  2  0  0  0  0  0  0
  188.3110  178.5240  141.8520 C   0  0  0  0  0  2  0  0  0  0  0  0
  189.0480  178.4010  139.5030 C   0  0  0  0  0  3  0  0  0  0  0  0
  190.1780  176.8480  141.0300 C   0  0  2  0  0  0  0  0  0  0  0  0
  190.2790  176.4250  138.6300 C   0  0  0  0  0  0  0  0  0  0  0  0
  189.1940  177.9700  140.7670 C   0  0  0  0  0  0  0  0  0  0  0  0
  191.3610  178.3660  142.6970 C   0  0  0  0  0  1  0  0  0  0  0  0
  190.4230  175.9650  139.9410 O   0  0  0  0  0  0  0  0  0  0  0  0
  190.1950  176.1910  142.3890 C   0  0  0  0  0  2  0  0  0  0  0  0
  190.5120  175.6540  137.6640 O   0  0  0  0  0  0  0  0  0  0  0  0
  189.8850  177.8520  138.3720 C   0  0  0  0  0  2  0  0  0  0  0  0
  191.3810  177.0470  141.9430 C   0  0  1  0  0  3  0  0  0  0  0  0
  1 17  1  6  0  0  0
  1  8  1  0  0  0  0
  2  5  1  0  0  0  0
  2  4  1  0  0  0  0
  3  6  1  0  0  0  0
  3  1  1  0  0  0  0
  4  6  1  0  0  0  0
  5  3  1  0  0  0  0
  8  9  1  0  0  0  0
  8  7  1  1  0  0  0
 10  9  1  6  0  0  0
 10 14  1  0  0  0  0
 11 15  1  0  0  0  0
 12 10  1  0  0  0  0
 12 16  1  0  0  0  0
 14 13  1  1  0  0  0
 14 15  1  0  0  0  0
 16 11  1  0  0  0  0
 17 18  1  0  0  0  0
 19 22  2  0  0  0  0
 20 28  1  0  0  0  0
 20 25  1  1  0  0  0
 21 24  1  0  0  0  0
 22 20  1  0  0  0  0
 22 18  1  0  0  0  0
 24 20  1  0  0  0  0
 26 21  2  0  0  0  0
 27 21  1  0  0  0  0
 27 19  1  0  0  0  0
 28 25  1  0  0  0  0
 28 23  1  1  0  0  0
M  END
>  <MODEL>
4

>  <REMARK>
 VINA RESULT:      -7.6      2.479      5.405
  Name = 
  7 active torsions:
  status: ('A' for Active; 'I' for Inactive)
    1  A    between atoms: C_2  and  C_3
    2  A    between atoms: C_2  and  C_26
    3  A    between atoms: C_10  and  C_13
    4  A    between atoms: C_10  and  C_17
    5  A    between atoms: N_16  and  C_27
    6  A    between atoms: C_17  and  C_27
    7  A    between atoms: C_26  and  C_27
                            x       y       z     vdW  Elec       q    Type
                         _______ _______ _______ _____ _____    ______ ____

>  <TORSDO>
F 7

$$$$
=
 OpenBabel10272401503D

 28 31  0  0  1  0  0  0  0  0999 V2000
  186.6460  177.7830  145.5610 C   0  0  1  0  0  3  0  0  0  0  0  0
  189.4200  177.3690  147.8460 C   0  0  0  0  0  2  0  0  0  0  0  0
  187.2670  177.2960  146.8100 N   0  0  0  0  0  0  0  0  0  0  0  0
  188.6350  178.5520  148.3460 C   0  0  0  0  0  2  0  0  0  0  0  0
  188.6640  176.9140  146.6230 C   0  0  0  0  0  2  0  0  0  0  0  0
  187.2250  178.3250  147.8460 C   0  0  0  0  0  2  0  0  0  0  0  0
  184.4120  178.4130  146.3510 O   0  0  0  0  0  1  0  0  0  0  0  0
  185.5460  178.8620  145.6740 C   0  0  2  0  0  3  0  0  0  0  0  0
  185.1660  179.4380  144.3170 C   0  0  0  0  0  2  0  0  0  0  0  0
  184.2530  178.4810  143.5590 C   0  0  2  0  0  3  0  0  0  0  0  0
  183.1010  178.7900  140.7830 C   0  0  0  0  0  2  0  0  0  0  0  0
  184.9510  177.9580  142.2930 C   0  0  0  0  0  2  0  0  0  0  0  0
  181.9820  178.9860  144.4710 C   0  0  0  0  0  1  0  0  0  0  0  0
  182.9030  179.1590  143.2790 C   0  0  2  0  0  3  0  0  0  0  0  0
  182.2350  178.5820  142.0330 C   0  0  0  0  0  2  0  0  0  0  0  0
  184.6070  178.8100  141.0740 C   0  0  0  0  0  2  0  0  0  0  0  0
  187.6870  178.1520  144.5130 C   0  0  0  0  0  2  0  0  0  0  0  0
  188.0930  176.9210  143.7140 C   0  0  0  0  0  2  0  0  0  0  0  0
  188.1630  178.0320  141.5150 C   0  0  0  0  0  3  0  0  0  0  0  0
  190.1940  176.7960  142.1200 C   0  0  2  0  0  0  0  0  0  0  0  0
  189.8190  177.3770  139.7810 C   0  0  0  0  0  0  0  0  0  0  0  0
  188.8030  177.3030  142.4440 C   0  0  0  0  0  0  0  0  0  0  0  0
  191.0400  177.9740  144.2130 C   0  0  0  0  0  1  0  0  0  0  0  0
  190.4830  176.6070  140.7400 O   0  0  0  0  0  0  0  0  0  0  0  0
  190.8400  175.7900  143.0420 C   0  0  0  0  0  2  0  0  0  0  0  0
  190.0850  177.2270  138.5610 O   0  0  0  0  0  0  0  0  0  0  0  0
  188.8190  178.4130  140.2100 C   0  0  0  0  0  2  0  0  0  0  0  0
  191.4020  177.2080  142.9510 C   0  0  1  0  0  3  0  0  0  0  0  0
  1 17  1  6  0  0  0
  1  8  1  0  0  0  0
  1  3  1  0  0  0  0
  2  4  1  0  0  0  0
  3  6  1  0  0  0  0
  5  3  1  0  0  0  0
  5  2  1  0  0  0  0
  6  4  1  0  0  0  0
  8  7  1  6  0  0  0
  9  8  1  0  0  0  0
 10  9  1  6  0  0  0
 11 16  1  0  0  0  0
 11 15  1  0  0  0  0
 12 10  1  0  0  0  0
 14 10  1  0  0  0  0
 14 13  1  1  0  0  0
 15 14  1  0  0  0  0
 16 12  1  0  0  0  0
 18 17  1  0  0  0  0
 19 22  2  0  0  0  0
 20 22  1  0  0  0  0
 20 28  1  0  0  0  0
 20 25  1  1  0  0  0
 21 27  1  0  0  0  0
 21 24  1  0  0  0  0
 22 18  1  0  0  0  0
 24 20  1  0  0  0  0
 26 21  2  0  0  0  0
 27 19  1  0  0  0  0
 28 25  1  0  0  0  0
 28 23  1  1  0  0  0
M  END
>  <MODEL>
5

>  <REMARK>
 VINA RESULT:      -7.6      2.455      5.337
  Name = 
  7 active torsions:
  status: ('A' for Active; 'I' for Inactive)
    1  A    between atoms: C_2  and  C_3
    2  A    between atoms: C_2  and  C_26
    3  A    between atoms: C_10  and  C_13
    4  A    between atoms: C_10  and  C_17
    5  A    between atoms: N_16  and  C_27
    6  A    between atoms: C_17  and  C_27
    7  A    between atoms: C_26  and  C_27
                            x       y       z     vdW  Elec       q    Type
                         _______ _______ _______ _____ _____    ______ ____

>  <TORSDO>
F 7

$$$$
=
 OpenBabel10272401503D

 28 31  0  0  1  0  0  0  0  0999 V2000
  189.8460  176.5920  142.5250 C   0  0  1  0  0  3  0  0  0  0  0  0
  191.9060  178.8400  144.4720 C   0  0  0  0  0  2  0  0  0  0  0  0
  191.1340  177.0570  143.0790 N   0  0  0  0  0  0  0  0  0  0  0  0
  191.6070  177.6640  145.3630 C   0  0  0  0  0  2  0  0  0  0  0  0
  191.2020  178.5130  143.1790 C   0  0  0  0  0  2  0  0  0  0  0  0
  191.3510  176.5110  144.4150 C   0  0  0  0  0  2  0  0  0  0  0  0
  187.8520  175.4230  143.3450 O   0  0  0  0  0  1  0  0  0  0  0  0
  188.6170  176.5840  143.4610 C   0  0  2  0  0  3  0  0  0  0  0  0
  187.7460  177.8180  143.2770 C   0  0  0  0  0  2  0  0  0  0  0  0
  186.3730  177.6100  143.9040 C   0  0  2  0  0  3  0  0  0  0  0  0
  184.2100  179.6590  144.4090 C   0  0  0  0  0  2  0  0  0  0  0  0
  185.2620  177.9330  142.8890 C   0  0  0  0  0  2  0  0  0  0  0  0
  186.8360  177.6110  146.3580 C   0  0  0  0  0  1  0  0  0  0  0  0
  186.2650  178.4150  145.2080 C   0  0  2  0  0  3  0  0  0  0  0  0
  184.8170  178.7870  145.5170 C   0  0  0  0  0  2  0  0  0  0  0  0
  184.7940  179.3800  143.0180 C   0  0  0  0  0  2  0  0  0  0  0  0
  189.5270  177.2510  141.1900 C   0  0  0  0  0  2  0  0  0  0  0  0
  190.4210  176.6850  140.0950 C   0  0  0  0  0  2  0  0  0  0  0  0
  189.3580  178.3790  138.6540 C   0  0  0  0  0  3  0  0  0  0  0  0
  190.2900  176.4440  137.4690 C   0  0  2  0  0  0  0  0  0  0  0  0
  188.6560  177.8520  136.3280 C   0  0  0  0  0  0  0  0  0  0  0  0
  190.0360  177.2230  138.7430 C   0  0  0  0  0  0  0  0  0  0  0  0
  192.7810  176.5380  137.9840 C   0  0  0  0  0  1  0  0  0  0  0  0
  189.3500  176.6420  136.4190 O   0  0  0  0  0  0  0  0  0  0  0  0
  190.8410  175.0420  137.5640 C   0  0  0  0  0  2  0  0  0  0  0  0
  187.8380  178.0380  135.3920 O   0  0  0  0  0  0  0  0  0  0  0  0
  188.9190  178.9460  137.3250 C   0  0  0  0  0  2  0  0  0  0  0  0
  191.7040  176.1600  136.9810 C   0  0  1  0  0  3  0  0  0  0  0  0
  1 17  1  6  0  0  0
  1  3  1  0  0  0  0
  1  8  1  0  0  0  0
  2  4  1  0  0  0  0
  3  5  1  0  0  0  0
  3  6  1  0  0  0  0
  5  2  1  0  0  0  0
  6  4  1  0  0  0  0
  8  7  1  6  0  0  0
  9  8  1  0  0  0  0
 10  9  1  6  0  0  0
 10 14  1  0  0  0  0
 11 15  1  0  0  0  0
 12 16  1  0  0  0  0
 12 10  1  0  0  0  0
 14 15  1  0  0  0  0
 14 13  1  1  0  0  0
 16 11  1  0  0  0  0
 18 17  1  0  0  0  0
 19 22  2  0  0  0  0
 20 25  1  1  0  0  0
 20 22  1  0  0  0  0
 21 24  1  0  0  0  0
 21 27  1  0  0  0  0
 22 18  1  0  0  0  0
 24 20  1  0  0  0  0
 26 21  2  0  0  0  0
 27 19  1  0  0  0  0
 28 20  1  0  0  0  0
 28 25  1  0  0  0  0
 28 23  1  1  0  0  0
M  END
>  <MODEL>
6

>  <REMARK>
 VINA RESULT:      -7.4      2.466      6.139
  Name = 
  7 active torsions:
  status: ('A' for Active; 'I' for Inactive)
    1  A    between atoms: C_2  and  C_3
    2  A    between atoms: C_2  and  C_26
    3  A    between atoms: C_10  and  C_13
    4  A    between atoms: C_10  and  C_17
    5  A    between atoms: N_16  and  C_27
    6  A    between atoms: C_17  and  C_27
    7  A    between atoms: C_26  and  C_27
                            x       y       z     vdW  Elec       q    Type
                         _______ _______ _______ _____ _____    ______ ____

>  <TORSDO>
F 7

$$$$
=
 OpenBabel10272401503D

 28 31  0  0  1  0  0  0  0  0999 V2000
  186.1700  178.6570  143.3520 C   0  0  1  0  0  3  0  0  0  0  0  0
  182.6830  178.5150  142.3990 C   0  0  0  0  0  2  0  0  0  0  0  0
  184.8880  179.2640  142.9370 N   0  0  0  0  0  0  0  0  0  0  0  0
  182.7050  178.8440  143.8680 C   0  0  0  0  0  2  0  0  0  0  0  0
  184.1390  178.4080  142.0220 C   0  0  0  0  0  2  0  0  0  0  0  0
  184.0380  179.5240  144.0960 C   0  0  0  0  0  2  0  0  0  0  0  0
  186.2830  179.0620  145.7680 O   0  0  0  0  0  1  0  0  0  0  0  0
  186.2660  178.0770  144.7800 C   0  0  2  0  0  3  0  0  0  0  0  0
  187.4540  177.1390  144.9410 C   0  0  0  0  0  2  0  0  0  0  0  0
  188.5460  177.7880  145.7830 C   0  0  2  0  0  3  0  0  0  0  0  0
  191.2850  176.7080  146.4590 C   0  0  0  0  0  2  0  0  0  0  0  0
  189.7960  178.0610  144.9280 C   0  0  0  0  0  2  0  0  0  0  0  0
  187.8570  177.2890  148.1310 C   0  0  0  0  0  1  0  0  0  0  0  0
  188.8290  176.9300  147.0250 C   0  0  2  0  0  3  0  0  0  0  0  0
  190.2590  177.1200  147.5230 C   0  0  0  0  0  2  0  0  0  0  0  0
  190.7950  176.9110  145.0190 C   0  0  0  0  0  2  0  0  0  0  0  0
  186.7010  177.6790  142.3140 C   0  0  0  0  0  2  0  0  0  0  0  0
  187.3640  178.4320  141.1690 C   0  0  0  0  0  2  0  0  0  0  0  0
  189.3760  177.1180  141.7190 C   0  0  0  0  0  3  0  0  0  0  0  0
  189.3250  178.0370  139.4450 C   0  0  2  0  0  0  0  0  0  0  0  0
  191.4580  177.3050  140.3750 C   0  0  0  0  0  0  0  0  0  0  0  0
  188.6850  177.8120  140.8000 C   0  0  0  0  0  0  0  0  0  0  0  0
  187.2930  176.9380  138.3740 C   0  0  0  0  0  1  0  0  0  0  0  0
  190.7480  178.0380  139.4200 O   0  0  0  0  0  0  0  0  0  0  0  0
  188.6780  179.0000  138.4790 C   0  0  0  0  0  2  0  0  0  0  0  0
  192.7150  177.2880  140.3450 O   0  0  0  0  0  0  0  0  0  0  0  0
  190.7210  176.5050  141.4100 C   0  0  0  0  0  2  0  0  0  0  0  0
  188.6880  177.5040  138.1690 C   0  0  1  0  0  3  0  0  0  0  0  0
  1 17  1  6  0  0  0
  1  8  1  0  0  0  0
  2  4  1  0  0  0  0
  3  1  1  0  0  0  0
  3  6  1  0  0  0  0
  4  6  1  0  0  0  0
  5  2  1  0  0  0  0
  5  3  1  0  0  0  0
  8  9  1  0  0  0  0
  8  7  1  1  0  0  0
 10  9  1  6  0  0  0
 10 14  1  0  0  0  0
 11 15  1  0  0  0  0
 12 16  1  0  0  0  0
 12 10  1  0  0  0  0
 14 15  1  0  0  0  0
 14 13  1  1  0  0  0
 16 11  1  0  0  0  0
 18 17  1  0  0  0  0
 20 25  1  6  0  0  0
 20 22  1  0  0  0  0
 21 27  1  0  0  0  0
 22 18  1  0  0  0  0
 22 19  2  0  0  0  0
 24 20  1  0  0  0  0
 24 21  1  0  0  0  0
 26 21  2  0  0  0  0
 27 19  1  0  0  0  0
 28 23  1  1  0  0  0
 28 25  1  0  0  0  0
 28 20  1  0  0  0  0
M  END
>  <MODEL>
7

>  <REMARK>
 VINA RESULT:      -7.2      2.307      6.387
  Name = 
  7 active torsions:
  status: ('A' for Active; 'I' for Inactive)
    1  A    between atoms: C_2  and  C_3
    2  A    between atoms: C_2  and  C_26
    3  A    between atoms: C_10  and  C_13
    4  A    between atoms: C_10  and  C_17
    5  A    between atoms: N_16  and  C_27
    6  A    between atoms: C_17  and  C_27
    7  A    between atoms: C_26  and  C_27
                            x       y       z     vdW  Elec       q    Type
                         _______ _______ _______ _____ _____    ______ ____

>  <TORSDO>
F 7

$$$$
=
 OpenBabel10272401503D

 28 31  0  0  1  0  0  0  0  0999 V2000
  189.0510  177.1100  142.2360 C   0  0  1  0  0  3  0  0  0  0  0  0
  191.6390  176.7820  144.7430 C   0  0  0  0  0  2  0  0  0  0  0  0
  189.5640  177.1690  143.6200 N   0  0  0  0  0  0  0  0  0  0  0  0
  191.5820  178.2430  144.3850 C   0  0  0  0  0  2  0  0  0  0  0  0
  190.5750  176.1480  143.8820 C   0  0  0  0  0  2  0  0  0  0  0  0
  190.1670  178.4700  143.8950 C   0  0  0  0  0  2  0  0  0  0  0  0
  187.5720  178.9440  141.5560 O   0  0  0  0  0  1  0  0  0  0  0  0
  187.6140  177.6150  141.9770 C   0  0  2  0  0  3  0  0  0  0  0  0
  186.7060  177.4060  143.1800 C   0  0  0  0  0  2  0  0  0  0  0  0
  185.7770  178.5990  143.3700 C   0  0  2  0  0  3  0  0  0  0  0  0
  183.4200  178.8620  145.2420 C   0  0  0  0  0  2  0  0  0  0  0  0
  185.8930  179.1510  144.8020 C   0  0  0  0  0  2  0  0  0  0  0  0
  184.1530  178.3900  141.4840 C   0  0  0  0  0  1  0  0  0  0  0  0
  184.3430  178.2130  142.9770 C   0  0  2  0  0  3  0  0  0  0  0  0
  183.3110  179.0550  143.7230 C   0  0  0  0  0  2  0  0  0  0  0  0
  184.8400  178.5380  145.7220 C   0  0  0  0  0  2  0  0  0  0  0  0
  190.0390  177.6940  141.2360 C   0  0  0  0  0  2  0  0  0  0  0  0
  190.3890  176.6590  140.1750 C   0  0  0  0  0  2  0  0  0  0  0  0
  189.3750  178.2970  138.6360 C   0  0  0  0  0  3  0  0  0  0  0  0
  190.5060  176.4120  137.5480 C   0  0  2  0  0  0  0  0  0  0  0  0
  188.9130  177.7350  136.2600 C   0  0  0  0  0  0  0  0  0  0  0  0
  190.1000  177.1770  138.7920 C   0  0  0  0  0  0  0  0  0  0  0  0
  192.9330  176.6320  138.2850 C   0  0  0  0  0  1  0  0  0  0  0  0
  189.6550  176.5620  136.4180 O   0  0  0  0  0  0  0  0  0  0  0  0
  191.1160  175.0390  137.6990 C   0  0  0  0  0  2  0  0  0  0  0  0
  188.1740  177.8800  135.2530 O   0  0  0  0  0  0  0  0  0  0  0  0
  189.0290  178.8410  137.2710 C   0  0  0  0  0  2  0  0  0  0  0  0
  191.9710  176.2000  137.1910 C   0  0  1  0  0  3  0  0  0  0  0  0
  1 17  1  6  0  0  0
  1  3  1  0  0  0  0
  3  5  1  0  0  0  0
  3  6  1  0  0  0  0
  4  2  1  0  0  0  0
  5  2  1  0  0  0  0
  6  4  1  0  0  0  0
  8  7  1  1  0  0  0
  8  1  1  0  0  0  0
  8  9  1  0  0  0  0
 10  9  1  1  0  0  0
 10 12  1  0  0  0  0
 11 16  1  0  0  0  0
 12 16  1  0  0  0  0
 14 13  1  6  0  0  0
 14 10  1  0  0  0  0
 14 15  1  0  0  0  0
 15 11  1  0  0  0  0
 18 17  1  0  0  0  0
 19 22  2  0  0  0  0
 20 25  1  1  0  0  0
 20 22  1  0  0  0  0
 21 24  1  0  0  0  0
 21 27  1  0  0  0  0
 22 18  1  0  0  0  0
 24 20  1  0  0  0  0
 26 21  2  0  0  0  0
 27 19  1  0  0  0  0
 28 20  1  0  0  0  0
 28 25  1  0  0  0  0
 28 23  1  1  0  0  0
M  END
>  <MODEL>
8

>  <REMARK>
 VINA RESULT:      -7.2      2.400      5.984
  Name = 
  7 active torsions:
  status: ('A' for Active; 'I' for Inactive)
    1  A    between atoms: C_2  and  C_3
    2  A    between atoms: C_2  and  C_26
    3  A    between atoms: C_10  and  C_13
    4  A    between atoms: C_10  and  C_17
    5  A    between atoms: N_16  and  C_27
    6  A    between atoms: C_17  and  C_27
    7  A    between atoms: C_26  and  C_27
                            x       y       z     vdW  Elec       q    Type
                         _______ _______ _______ _____ _____    ______ ____

>  <TORSDO>
F 7

$$$$
=
 OpenBabel10272401503D

 28 31  0  0  1  0  0  0  0  0999 V2000
  187.0800  178.3240  140.6240 C   0  0  1  0  0  3  0  0  0  0  0  0
  183.6530  178.4220  141.7790 C   0  0  0  0  0  2  0  0  0  0  0  0
  185.7860  178.9950  140.8650 N   0  0  0  0  0  0  0  0  0  0  0  0
  184.4900  178.9820  142.8970 C   0  0  0  0  0  2  0  0  0  0  0  0
  184.6520  178.0910  140.6990 C   0  0  0  0  0  2  0  0  0  0  0  0
  185.7260  179.5350  142.2200 C   0  0  0  0  0  2  0  0  0  0  0  0
  186.7490  178.7590  138.2330 O   0  0  0  0  0  1  0  0  0  0  0  0
  187.6870  178.4140  139.2060 C   0  0  2  0  0  3  0  0  0  0  0  0
  188.4190  177.1380  138.8140 C   0  0  0  0  0  2  0  0  0  0  0  0
  189.7770  177.4600  138.2010 C   0  0  2  0  0  3  0  0  0  0  0  0
  191.6220  175.6300  136.6590 C   0  0  0  0  0  2  0  0  0  0  0  0
  189.7290  177.3070  136.6710 C   0  0  0  0  0  2  0  0  0  0  0  0
  191.3520  177.2890  140.1320 C   0  0  0  0  0  1  0  0  0  0  0  0
  190.8670  176.6080  138.8680 C   0  0  2  0  0  3  0  0  0  0  0  0
  192.0490  176.3760  137.9300 C   0  0  0  0  0  2  0  0  0  0  0  0
  190.1740  175.9130  136.2370 C   0  0  0  0  0  2  0  0  0  0  0  0
  188.1070  178.6620  141.6950 C   0  0  0  0  0  2  0  0  0  0  0  0
  188.7170  177.3870  142.2630 C   0  0  0  0  0  2  0  0  0  0  0  0
  187.3610  176.9700  144.2780 C   0  0  0  0  0  3  0  0  0  0  0  0
  189.6490  177.7430  144.7080 C   0  0  2  0  0  0  0  0  0  0  0  0
  187.9900  177.9190  146.4880 C   0  0  0  0  0  0  0  0  0  0  0  0
  188.5480  177.3190  143.7560 C   0  0  0  0  0  0  0  0  0  0  0  0
  191.1200  175.9170  143.7160 C   0  0  0  0  0  1  0  0  0  0  0  0
  189.2230  178.2960  145.9480 O   0  0  0  0  0  0  0  0  0  0  0  0
  190.9080  178.3570  144.1450 C   0  0  0  0  0  2  0  0  0  0  0  0
  187.6180  178.3900  147.5920 O   0  0  0  0  0  0  0  0  0  0  0  0
  187.1290  176.9190  145.7690 C   0  0  0  0  0  2  0  0  0  0  0  0
  190.9610  176.9750  144.7950 C   0  0  1  0  0  3  0  0  0  0  0  0
  1  3  1  0  0  0  0
  1 17  1  1  0  0  0
  2  4  1  0  0  0  0
  3  6  1  0  0  0  0
  5  3  1  0  0  0  0
  5  2  1  0  0  0  0
  6  4  1  0  0  0  0
  8  7  1  6  0  0  0
  8  1  1  0  0  0  0
  9  8  1  0  0  0  0
 10  9  1  1  0  0  0
 10 14  1  0  0  0  0
 11 15  1  0  0  0  0
 12 10  1  0  0  0  0
 14 13  1  1  0  0  0
 15 14  1  0  0  0  0
 16 11  1  0  0  0  0
 16 12  1  0  0  0  0
 17 18  1  0  0  0  0
 18 22  1  0  0  0  0
 19 27  1  0  0  0  0
 20 25  1  6  0  0  0
 20 28  1  0  0  0  0
 20 24  1  0  0  0  0
 21 26  2  0  0  0  0
 22 19  2  0  0  0  0
 22 20  1  0  0  0  0
 24 21  1  0  0  0  0
 25 28  1  0  0  0  0
 27 21  1  0  0  0  0
 28 23  1  6  0  0  0
M  END
>  <MODEL>
9

>  <REMARK>
 VINA RESULT:      -7.1      1.399      5.530
  Name = 
  7 active torsions:
  status: ('A' for Active; 'I' for Inactive)
    1  A    between atoms: C_2  and  C_3
    2  A    between atoms: C_2  and  C_26
    3  A    between atoms: C_10  and  C_13
    4  A    between atoms: C_10  and  C_17
    5  A    between atoms: N_16  and  C_27
    6  A    between atoms: C_17  and  C_27
    7  A    between atoms: C_26  and  C_27
                            x       y       z     vdW  Elec       q    Type
                         _______ _______ _______ _____ _____    ______ ____

>  <TORSDO>
F 7

$$$$
