=
 OpenBabel10272413433D

 30 33  0  0  1  0  0  0  0  0999 V2000
  181.7490  178.1140  137.6980 C   0  0  0  0  0  2  0  0  0  0  0  0
  182.0930  176.6410  137.8710 C   0  0  1  0  0  0  0  0  0  0  0  0
  182.5750  173.0340  137.1160 C   0  0  0  0  0  2  0  0  0  0  0  0
  184.0290  175.0300  137.9080 C   0  0  0  0  0  2  0  0  0  0  0  0
  179.9820  175.7250  136.6300 C   0  0  0  0  0  2  0  0  0  0  0  0
  183.3240  176.1100  137.0900 C   0  0  2  0  0  3  0  0  0  0  0  0
  180.6520  174.9940  135.4740 C   0  0  0  0  0  2  0  0  0  0  0  0
  182.1250  173.0740  135.7330 N   0  0  0  0  0  2  0  0  0  0  0  0
  182.2610  177.6250  139.0500 C   0  0  2  0  0  0  0  0  0  0  0  0
  180.6400  175.0020  138.7670 O   0  0  0  0  0  0  0  0  0  0  0  0
  180.8690  175.7620  137.8380 C   0  0  0  0  0  0  0  0  0  0  0  0
  180.7350  173.5000  135.7470 C   0  0  0  0  0  2  0  0  0  0  0  0
  184.9020  173.1510  136.7930 O   0  0  0  0  0  0  0  0  0  0  0  0
  183.9060  173.6990  137.2360 C   0  0  0  0  0  0  0  0  0  0  0  0
  179.9820  179.1470  141.6060 C   0  0  1  0  0  3  0  0  0  0  0  0
  180.3190  178.8050  140.1680 C   0  0  1  0  0  3  0  0  0  0  0  0
  181.3450  178.5900  141.2490 C   0  0  2  0  0  3  0  0  0  0  0  0
  180.0780  180.5260  141.7880 O   0  0  0  0  0  1  0  0  0  0  0  0
  181.1780  177.5490  140.1520 C   0  0  2  0  0  3  0  0  0  0  0  0
  184.0860  177.3500  135.1520 O   0  0  0  0  0  1  0  0  0  0  0  0
  184.3050  177.1580  136.5180 C   0  0  2  0  0  3  0  0  0  0  0  0
  185.7770  176.7990  136.7570 C   0  0  0  0  0  2  0  0  0  0  0  0
  187.5560  177.6380  138.2970 C   0  0  0  0  0  1  0  0  0  0  0  0
  187.4700  178.4220  135.9640 C   0  0  0  0  0  1  0  0  0  0  0  0
  186.6320  178.0000  137.1500 C   0  0  0  0  0  3  0  0  0  0  0  0
  183.7030  178.0610  139.3760 C   0  0  2  0  0  3  0  0  0  0  0  0
  184.0150  177.7750  140.7090 O   0  0  0  0  0  0  0  0  0  0  0  0
  185.1010  178.5970  141.0160 C   0  0  0  0  0  1  0  0  0  0  0  0
  183.9080  179.4930  139.1020 C   0  0  0  0  0  0  0  0  0  0  0  0
  184.0710  180.6180  138.8870 N   0  0  0  0  0  0  0  0  0  0  0  0
  1  9  1  0  0  0  0
  2  1  1  6  0  0  0
  2  9  1  0  0  0  0
  3 14  1  0  0  0  0
  5 11  1  0  0  0  0
  6 21  1  1  0  0  0
  6  2  1  0  0  0  0
  6  4  1  0  0  0  0
  7 12  1  0  0  0  0
  7  5  1  0  0  0  0
  8 12  1  0  0  0  0
  8  3  1  0  0  0  0
  9 26  1  1  0  0  0
  9 19  1  0  0  0  0
 11  2  1  0  0  0  0
 11 10  2  0  0  0  0
 13 14  2  0  0  0  0
 14  4  1  0  0  0  0
 15 18  1  0  0  0  0
 16 17  1  0  0  0  0
 16 15  1  0  0  0  0
 17 15  1  0  0  0  0
 19 16  1  0  0  0  0
 19 17  1  0  0  0  0
 20 21  1  0  0  0  0
 21 22  1  0  0  0  0
 22 25  1  0  0  0  0
 24 25  1  0  0  0  0
 25 23  1  0  0  0  0
 26 27  1  0  0  0  0
 27 28  1  0  0  0  0
 29 26  1  0  0  0  0
 30 29  3  0  0  0  0
M  END
>  <MODEL>
1

>  <REMARK>
 VINA RESULT:      -4.4      0.000      0.000
  Name = 
  7 active torsions:
  status: ('A' for Active; 'I' for Inactive)
    1  A    between atoms: O_2  and  C_14
    2  A    between atoms: C_6  and  C_12
    3  A    between atoms: C_6  and  C_21
    4  A    between atoms: C_12  and  C_13
    5  A    between atoms: C_14  and  C_20
    6  A    between atoms: C_14  and  C_22
    7  A    between atoms: C_22  and  C_29
                            x       y       z     vdW  Elec       q    Type
                         _______ _______ _______ _____ _____    ______ ____

>  <TORSDO>
F 7

$$$$
=
 OpenBabel10272413433D

 30 33  0  0  1  0  0  0  0  0999 V2000
  183.4680  175.0040  135.2840 C   0  0  0  0  0  2  0  0  0  0  0  0
  184.2370  175.7050  136.3960 C   0  0  1  0  0  0  0  0  0  0  0  0
  186.4910  178.0840  138.1480 C   0  0  0  0  0  2  0  0  0  0  0  0
  183.9880  177.4130  138.2320 C   0  0  0  0  0  2  0  0  0  0  0  0
  186.4940  175.8820  135.0910 C   0  0  0  0  0  2  0  0  0  0  0  0
  183.8130  177.1590  136.7360 C   0  0  2  0  0  3  0  0  0  0  0  0
  186.6450  177.3960  135.0280 C   0  0  0  0  0  2  0  0  0  0  0  0
  186.9180  178.8310  136.9760 N   0  0  0  0  0  2  0  0  0  0  0  0
  183.3130  174.5100  136.7200 C   0  0  2  0  0  0  0  0  0  0  0  0
  186.3230  174.9980  137.2620 O   0  0  0  0  0  0  0  0  0  0  0  0
  185.7210  175.4610  136.3050 C   0  0  0  0  0  0  0  0  0  0  0  0
  187.6040  177.8950  136.0990 C   0  0  0  0  0  2  0  0  0  0  0  0
  184.7930  179.5060  138.9410 O   0  0  0  0  0  0  0  0  0  0  0  0
  185.0710  178.4160  138.4710 C   0  0  0  0  0  0  0  0  0  0  0  0
  183.8000  170.8210  136.2760 C   0  0  1  0  0  3  0  0  0  0  0  0
  183.9840  172.2480  135.8000 C   0  0  1  0  0  3  0  0  0  0  0  0
  183.0960  171.9620  136.9820 C   0  0  2  0  0  3  0  0  0  0  0  0
  182.8980  170.1670  135.4390 O   0  0  0  0  0  1  0  0  0  0  0  0
  184.0240  173.1680  137.0130 C   0  0  2  0  0  3  0  0  0  0  0  0
  182.5970  178.4140  135.0560 O   0  0  0  0  0  1  0  0  0  0  0  0
  182.4420  177.6380  136.2080 C   0  0  2  0  0  3  0  0  0  0  0  0
  181.6350  178.4220  137.2500 C   0  0  0  0  0  2  0  0  0  0  0  0
  179.9820  180.0650  136.3520 C   0  0  0  0  0  1  0  0  0  0  0  0
  181.6050  180.7590  138.0700 C   0  0  0  0  0  1  0  0  0  0  0  0
  181.3990  179.8770  136.8570 C   0  0  0  0  0  3  0  0  0  0  0  0
  181.9550  174.8510  137.3640 C   0  0  2  0  0  3  0  0  0  0  0  0
  181.9700  174.5580  138.7320 O   0  0  0  0  0  0  0  0  0  0  0  0
  181.0250  175.4140  139.3010 C   0  0  0  0  0  1  0  0  0  0  0  0
  180.8510  174.1360  136.7040 C   0  0  0  0  0  0  0  0  0  0  0  0
  179.9820  173.5730  136.1860 N   0  0  0  0  0  0  0  0  0  0  0  0
  1  9  1  0  0  0  0
  2  1  1  6  0  0  0
  2  9  1  0  0  0  0
  2  6  1  0  0  0  0
  3 14  1  0  0  0  0
  4 14  1  0  0  0  0
  5 11  1  0  0  0  0
  6 21  1  1  0  0  0
  6  4  1  0  0  0  0
  7  5  1  0  0  0  0
  7 12  1  0  0  0  0
  8  3  1  0  0  0  0
  9 19  1  0  0  0  0
  9 26  1  1  0  0  0
 11  2  1  0  0  0  0
 11 10  2  0  0  0  0
 12  8  1  0  0  0  0
 14 13  2  0  0  0  0
 15 17  1  0  0  0  0
 16 15  1  0  0  0  0
 16 17  1  0  0  0  0
 16 19  1  0  0  0  0
 17 19  1  0  0  0  0
 18 15  1  0  0  0  0
 20 21  1  0  0  0  0
 21 22  1  0  0  0  0
 23 25  1  0  0  0  0
 25 22  1  0  0  0  0
 25 24  1  0  0  0  0
 26 27  1  0  0  0  0
 27 28  1  0  0  0  0
 29 26  1  0  0  0  0
 30 29  3  0  0  0  0
M  END
>  <MODEL>
2

>  <REMARK>
 VINA RESULT:      -4.2      2.268      6.407
  Name = 
  7 active torsions:
  status: ('A' for Active; 'I' for Inactive)
    1  A    between atoms: O_2  and  C_14
    2  A    between atoms: C_6  and  C_12
    3  A    between atoms: C_6  and  C_21
    4  A    between atoms: C_12  and  C_13
    5  A    between atoms: C_14  and  C_20
    6  A    between atoms: C_14  and  C_22
    7  A    between atoms: C_22  and  C_29
                            x       y       z     vdW  Elec       q    Type
                         _______ _______ _______ _____ _____    ______ ____

>  <TORSDO>
F 7

$$$$
=
 OpenBabel10272413433D

 30 33  0  0  1  0  0  0  0  0999 V2000
  186.0820  177.5970  136.3190 C   0  0  0  0  0  2  0  0  0  0  0  0
  186.0290  176.1360  136.7420 C   0  0  1  0  0  0  0  0  0  0  0  0
  185.7150  172.4360  136.5650 C   0  0  0  0  0  2  0  0  0  0  0  0
  187.4880  174.1680  137.3300 C   0  0  0  0  0  2  0  0  0  0  0  0
  183.9530  175.5100  135.2820 C   0  0  0  0  0  2  0  0  0  0  0  0
  187.1890  175.2230  136.2660 C   0  0  2  0  0  3  0  0  0  0  0  0
  184.5790  174.4640  134.3670 C   0  0  0  0  0  2  0  0  0  0  0  0
  185.4870  172.3390  135.1320 N   0  0  0  0  0  2  0  0  0  0  0  0
  186.2660  177.2430  137.7920 C   0  0  2  0  0  0  0  0  0  0  0  0
  184.1090  175.0320  137.5770 O   0  0  0  0  0  0  0  0  0  0  0  0
  184.6440  175.5540  136.6110 C   0  0  0  0  0  0  0  0  0  0  0  0
  184.2550  173.0570  134.8450 C   0  0  0  0  0  2  0  0  0  0  0  0
  188.0220  171.9820  136.6430 O   0  0  0  0  0  0  0  0  0  0  0  0
  187.1390  172.8030  136.8280 C   0  0  0  0  0  0  0  0  0  0  0  0
  183.7420  179.6180  139.2180 C   0  0  1  0  0  3  0  0  0  0  0  0
  184.2410  178.7350  138.0920 C   0  0  1  0  0  3  0  0  0  0  0  0
  185.1190  178.9910  139.2890 C   0  0  2  0  0  3  0  0  0  0  0  0
  183.8600  180.9560  138.8450 O   0  0  0  0  0  1  0  0  0  0  0  0
  185.0540  177.5940  138.6880 C   0  0  2  0  0  3  0  0  0  0  0  0
  188.4800  175.9440  134.3460 O   0  0  0  0  0  1  0  0  0  0  0  0
  188.4670  175.9170  135.7430 C   0  0  2  0  0  3  0  0  0  0  0  0
  189.7590  175.2680  136.2560 C   0  0  0  0  0  2  0  0  0  0  0  0
  191.6450  176.0880  137.6730 C   0  0  0  0  0  1  0  0  0  0  0  0
  191.9010  175.9620  135.2270 C   0  0  0  0  0  1  0  0  0  0  0  0
  190.9260  176.2460  136.3480 C   0  0  0  0  0  3  0  0  0  0  0  0
  187.7100  177.4000  138.3060 C   0  0  2  0  0  3  0  0  0  0  0  0
  187.7350  177.4400  139.7040 O   0  0  0  0  0  0  0  0  0  0  0  0
  189.0850  177.3530  140.0500 C   0  0  0  0  0  1  0  0  0  0  0  0
  188.3520  178.6030  137.7520 C   0  0  0  0  0  0  0  0  0  0  0  0
  188.8570  179.5490  137.3170 N   0  0  0  0  0  0  0  0  0  0  0  0
  1  9  1  0  0  0  0
  2  1  1  6  0  0  0
  2  9  1  0  0  0  0
  3 14  1  0  0  0  0
  5 11  1  0  0  0  0
  6 21  1  1  0  0  0
  6  2  1  0  0  0  0
  6  4  1  0  0  0  0
  7 12  1  0  0  0  0
  7  5  1  0  0  0  0
  8  3  1  0  0  0  0
  9 26  1  1  0  0  0
  9 19  1  0  0  0  0
 11  2  1  0  0  0  0
 11 10  2  0  0  0  0
 12  8  1  0  0  0  0
 13 14  2  0  0  0  0
 14  4  1  0  0  0  0
 15 17  1  0  0  0  0
 16 19  1  0  0  0  0
 16 15  1  0  0  0  0
 16 17  1  0  0  0  0
 18 15  1  0  0  0  0
 19 17  1  0  0  0  0
 20 21  1  0  0  0  0
 21 22  1  0  0  0  0
 22 25  1  0  0  0  0
 24 25  1  0  0  0  0
 25 23  1  0  0  0  0
 26 27  1  0  0  0  0
 27 28  1  0  0  0  0
 29 26  1  0  0  0  0
 30 29  3  0  0  0  0
M  END
>  <MODEL>
3

>  <REMARK>
 VINA RESULT:      -4.0      3.003      4.217
  Name = 
  7 active torsions:
  status: ('A' for Active; 'I' for Inactive)
    1  A    between atoms: O_2  and  C_14
    2  A    between atoms: C_6  and  C_12
    3  A    between atoms: C_6  and  C_21
    4  A    between atoms: C_12  and  C_13
    5  A    between atoms: C_14  and  C_20
    6  A    between atoms: C_14  and  C_22
    7  A    between atoms: C_22  and  C_29
                            x       y       z     vdW  Elec       q    Type
                         _______ _______ _______ _____ _____    ______ ____

>  <TORSDO>
F 7

$$$$
=
 OpenBabel10272413433D

 30 33  0  0  1  0  0  0  0  0999 V2000
  191.3530  173.8910  137.3460 C   0  0  0  0  0  2  0  0  0  0  0  0
  190.4760  174.5530  136.2920 C   0  0  1  0  0  0  0  0  0  0  0  0
  187.4740  175.8870  134.5520 C   0  0  0  0  0  2  0  0  0  0  0  0
  189.7370  176.8020  135.4290 C   0  0  0  0  0  2  0  0  0  0  0  0
  188.5600  172.7780  136.3830 C   0  0  0  0  0  2  0  0  0  0  0  0
  189.8300  175.9140  136.6680 C   0  0  2  0  0  3  0  0  0  0  0  0
  187.4060  173.6580  136.8460 C   0  0  0  0  0  2  0  0  0  0  0  0
  186.4960  175.5160  135.5620 N   0  0  0  0  0  2  0  0  0  0  0  0
  192.0000  174.4290  136.0730 C   0  0  2  0  0  0  0  0  0  0  0  0
  189.5870  173.4680  134.3860 O   0  0  0  0  0  0  0  0  0  0  0  0
  189.5680  173.5670  135.6030 C   0  0  0  0  0  0  0  0  0  0  0  0
  186.5260  174.0660  135.6740 C   0  0  0  0  0  2  0  0  0  0  0  0
  187.8250  178.1400  135.1330 O   0  0  0  0  0  0  0  0  0  0  0  0
  188.3080  177.0230  135.0480 C   0  0  0  0  0  0  0  0  0  0  0  0
  194.1200  171.5150  135.0430 C   0  0  1  0  0  3  0  0  0  0  0  0
  192.9460  172.0950  135.8060 C   0  0  1  0  0  3  0  0  0  0  0  0
  193.9370  173.0160  135.1450 C   0  0  2  0  0  3  0  0  0  0  0  0
  195.1010  171.1060  135.9440 O   0  0  0  0  0  1  0  0  0  0  0  0
  192.4500  173.3350  135.0750 C   0  0  2  0  0  3  0  0  0  0  0  0
  190.4880  175.8090  138.9980 O   0  0  0  0  0  1  0  0  0  0  0  0
  190.4100  176.6580  137.8910 C   0  0  2  0  0  3  0  0  0  0  0  0
  189.6150  177.9160  138.2630 C   0  0  0  0  0  2  0  0  0  0  0  0
  188.5480  178.4130  140.4660 C   0  0  0  0  0  1  0  0  0  0  0  0
  187.1510  178.0390  138.4730 C   0  0  0  0  0  1  0  0  0  0  0  0
  188.4270  177.6280  139.1750 C   0  0  0  0  0  3  0  0  0  0  0  0
  192.8270  175.7130  136.2760 C   0  0  2  0  0  3  0  0  0  0  0  0
  193.4490  176.0930  135.0820 O   0  0  0  0  0  0  0  0  0  0  0  0
  194.5610  176.8440  135.4710 C   0  0  0  0  0  1  0  0  0  0  0  0
  193.8290  175.5460  137.3400 C   0  0  0  0  0  0  0  0  0  0  0  0
  194.6180  175.4130  138.1770 N   0  0  0  0  0  0  0  0  0  0  0  0
  2  6  1  0  0  0  0
  2  1  1  1  0  0  0
  3 14  1  0  0  0  0
  3  8  1  0  0  0  0
  4  6  1  0  0  0  0
  5  7  1  0  0  0  0
  6 21  1  1  0  0  0
  8 12  1  0  0  0  0
  9 26  1  1  0  0  0
  9  2  1  0  0  0  0
  9  1  1  0  0  0  0
 10 11  2  0  0  0  0
 11  2  1  0  0  0  0
 11  5  1  0  0  0  0
 12  7  1  0  0  0  0
 14 13  2  0  0  0  0
 14  4  1  0  0  0  0
 15 17  1  0  0  0  0
 15 16  1  0  0  0  0
 15 18  1  0  0  0  0
 17 16  1  0  0  0  0
 19 17  1  0  0  0  0
 19 16  1  0  0  0  0
 19  9  1  0  0  0  0
 21 22  1  0  0  0  0
 21 20  1  0  0  0  0
 22 25  1  0  0  0  0
 24 25  1  0  0  0  0
 25 23  1  0  0  0  0
 26 29  1  0  0  0  0
 27 28  1  0  0  0  0
 27 26  1  0  0  0  0
 29 30  3  0  0  0  0
M  END
>  <MODEL>
4

>  <REMARK>
 VINA RESULT:      -3.9      5.963      9.800
  Name = 
  7 active torsions:
  status: ('A' for Active; 'I' for Inactive)
    1  A    between atoms: O_2  and  C_14
    2  A    between atoms: C_6  and  C_12
    3  A    between atoms: C_6  and  C_21
    4  A    between atoms: C_12  and  C_13
    5  A    between atoms: C_14  and  C_20
    6  A    between atoms: C_14  and  C_22
    7  A    between atoms: C_22  and  C_29
                            x       y       z     vdW  Elec       q    Type
                         _______ _______ _______ _____ _____    ______ ____

>  <TORSDO>
F 7

$$$$
=
 OpenBabel10272413433D

 30 33  0  0  1  0  0  0  0  0999 V2000
  183.9840  177.5100  136.1820 C   0  0  0  0  0  2  0  0  0  0  0  0
  183.3810  177.1580  137.5350 C   0  0  1  0  0  0  0  0  0  0  0  0
  181.0080  177.0100  140.3920 C   0  0  0  0  0  2  0  0  0  0  0  0
  182.1400  175.3410  138.7610 C   0  0  0  0  0  2  0  0  0  0  0  0
  182.5360  179.5690  138.0870 C   0  0  0  0  0  2  0  0  0  0  0  0
  182.1260  176.2450  137.5300 C   0  0  2  0  0  3  0  0  0  0  0  0
  181.0370  179.3110  138.1700 C   0  0  0  0  0  2  0  0  0  0  0  0
  179.9820  177.8690  139.8240 N   0  0  0  0  0  2  0  0  0  0  0  0
  184.7670  176.6090  137.1320 C   0  0  2  0  0  0  0  0  0  0  0  0
  183.8400  178.2890  139.5630 O   0  0  0  0  0  0  0  0  0  0  0  0
  183.3210  178.3480  138.4590 C   0  0  0  0  0  0  0  0  0  0  0  0
  180.5850  179.1760  139.6160 C   0  0  0  0  0  2  0  0  0  0  0  0
  180.1110  174.9000  139.8670 O   0  0  0  0  0  0  0  0  0  0  0  0
  181.0180  175.6950  139.6840 C   0  0  0  0  0  0  0  0  0  0  0  0
  188.2210  178.0630  137.0930 C   0  0  1  0  0  3  0  0  0  0  0  0
  186.7360  178.1690  136.8100 C   0  0  1  0  0  3  0  0  0  0  0  0
  187.3250  176.8490  137.2330 C   0  0  2  0  0  3  0  0  0  0  0  0
  188.9180  177.9890  135.8890 O   0  0  0  0  0  1  0  0  0  0  0  0
  185.9840  177.2920  137.8010 C   0  0  2  0  0  3  0  0  0  0  0  0
  180.8340  176.1270  135.4830 O   0  0  0  0  0  1  0  0  0  0  0  0
  181.8190  175.4720  136.2280 C   0  0  2  0  0  3  0  0  0  0  0  0
  181.3940  174.0190  136.4750 C   0  0  0  0  0  2  0  0  0  0  0  0
  182.5630  172.7510  134.6680 C   0  0  0  0  0  1  0  0  0  0  0  0
  180.3580  172.0060  135.4740 C   0  0  0  0  0  1  0  0  0  0  0  0
  181.2180  173.2180  135.1890 C   0  0  0  0  0  3  0  0  0  0  0  0
  184.8180  175.1290  136.7040 C   0  0  2  0  0  3  0  0  0  0  0  0
  185.4950  174.3630  137.6590 O   0  0  0  0  0  0  0  0  0  0  0  0
  184.8750  173.1120  137.6320 C   0  0  0  0  0  1  0  0  0  0  0  0
  185.4510  174.9710  135.3850 C   0  0  0  0  0  0  0  0  0  0  0  0
  185.9470  174.8470  134.3470 N   0  0  0  0  0  0  0  0  0  0  0  0
  1  9  1  0  0  0  0
  2  1  1  6  0  0  0
  2 11  1  0  0  0  0
  4 14  1  0  0  0  0
  5  7  1  0  0  0  0
  5 11  1  0  0  0  0
  6 21  1  6  0  0  0
  6  2  1  0  0  0  0
  6  4  1  0  0  0  0
  7 12  1  0  0  0  0
  8  3  1  0  0  0  0
  9 26  1  6  0  0  0
  9  2  1  0  0  0  0
  9 19  1  0  0  0  0
 11 10  2  0  0  0  0
 12  8  1  0  0  0  0
 14 13  2  0  0  0  0
 14  3  1  0  0  0  0
 15 17  1  0  0  0  0
 16 15  1  0  0  0  0
 16 17  1  0  0  0  0
 16 19  1  0  0  0  0
 17 19  1  0  0  0  0
 18 15  1  0  0  0  0
 20 21  1  0  0  0  0
 21 22  1  0  0  0  0
 23 25  1  0  0  0  0
 25 24  1  0  0  0  0
 25 22  1  0  0  0  0
 26 27  1  0  0  0  0
 28 27  1  0  0  0  0
 29 26  1  0  0  0  0
 30 29  3  0  0  0  0
M  END
>  <MODEL>
5

>  <REMARK>
 VINA RESULT:      -3.8      2.109      5.957
  Name = 
  7 active torsions:
  status: ('A' for Active; 'I' for Inactive)
    1  A    between atoms: O_2  and  C_14
    2  A    between atoms: C_6  and  C_12
    3  A    between atoms: C_6  and  C_21
    4  A    between atoms: C_12  and  C_13
    5  A    between atoms: C_14  and  C_20
    6  A    between atoms: C_14  and  C_22
    7  A    between atoms: C_22  and  C_29
                            x       y       z     vdW  Elec       q    Type
                         _______ _______ _______ _____ _____    ______ ____

>  <TORSDO>
F 7

$$$$
=
 OpenBabel10272413433D

 30 33  0  0  1  0  0  0  0  0999 V2000
  188.3330  174.1660  134.5360 C   0  0  0  0  0  2  0  0  0  0  0  0
  188.9980  174.4690  135.8730 C   0  0  1  0  0  0  0  0  0  0  0  0
  191.2680  175.9590  138.4100 C   0  0  0  0  0  2  0  0  0  0  0  0
  188.7130  175.8000  137.9930 C   0  0  0  0  0  2  0  0  0  0  0  0
  191.4490  174.4400  134.9670 C   0  0  0  0  0  2  0  0  0  0  0  0
  188.7680  175.8830  136.4680 C   0  0  2  0  0  3  0  0  0  0  0  0
  191.8580  175.8770  135.2670 C   0  0  0  0  0  2  0  0  0  0  0  0
  192.0150  176.8190  137.5060 N   0  0  0  0  0  2  0  0  0  0  0  0
  187.8450  173.4430  135.7880 C   0  0  2  0  0  0  0  0  0  0  0  0
  190.7490  173.2030  136.8370 O   0  0  0  0  0  0  0  0  0  0  0  0
  190.4140  173.9550  135.9360 C   0  0  0  0  0  0  0  0  0  0  0  0
  192.6800  175.9540  136.5450 C   0  0  0  0  0  2  0  0  0  0  0  0
  189.7160  177.5100  139.2590 O   0  0  0  0  0  0  0  0  0  0  0  0
  189.8880  176.4990  138.5990 C   0  0  0  0  0  0  0  0  0  0  0  0
  187.3760  169.8000  135.0440 C   0  0  1  0  0  3  0  0  0  0  0  0
  187.8110  171.1920  134.6290 C   0  0  1  0  0  3  0  0  0  0  0  0
  187.0830  170.9920  135.9320 C   0  0  2  0  0  3  0  0  0  0  0  0
  186.2230  169.4470  134.3460 O   0  0  0  0  0  1  0  0  0  0  0  0
  188.2600  171.9550  135.8670 C   0  0  2  0  0  3  0  0  0  0  0  0
  188.0680  177.5250  134.8300 O   0  0  0  0  0  1  0  0  0  0  0  0
  187.6120  176.7210  135.8770 C   0  0  2  0  0  3  0  0  0  0  0  0
  186.9020  177.5910  136.9220 C   0  0  0  0  0  2  0  0  0  0  0  0
  184.8010  178.1030  138.1720 C   0  0  0  0  0  1  0  0  0  0  0  0
  184.6900  177.2780  135.8530 C   0  0  0  0  0  1  0  0  0  0  0  0
  185.4510  177.1820  137.1580 C   0  0  0  0  0  3  0  0  0  0  0  0
  186.4700  173.9170  136.2980 C   0  0  2  0  0  3  0  0  0  0  0  0
  186.1230  173.2470  137.4750 O   0  0  0  0  0  0  0  0  0  0  0  0
  184.7940  173.5980  137.7200 C   0  0  0  0  0  1  0  0  0  0  0  0
  185.4240  173.7290  135.2800 C   0  0  0  0  0  0  0  0  0  0  0  0
  184.6030  173.5810  134.4780 N   0  0  0  0  0  0  0  0  0  0  0  0
  1  9  1  0  0  0  0
  2  1  1  6  0  0  0
  2 11  1  0  0  0  0
  2  6  1  0  0  0  0
  3 14  1  0  0  0  0
  4 14  1  0  0  0  0
  5  7  1  0  0  0  0
  5 11  1  0  0  0  0
  6 21  1  6  0  0  0
  6  4  1  0  0  0  0
  7 12  1  0  0  0  0
  8  3  1  0  0  0  0
  9 19  1  0  0  0  0
  9  2  1  0  0  0  0
  9 26  1  1  0  0  0
 11 10  2  0  0  0  0
 12  8  1  0  0  0  0
 14 13  2  0  0  0  0
 15 17  1  0  0  0  0
 16 15  1  0  0  0  0
 16 19  1  0  0  0  0
 16 17  1  0  0  0  0
 18 15  1  0  0  0  0
 19 17  1  0  0  0  0
 20 21  1  0  0  0  0
 21 22  1  0  0  0  0
 22 25  1  0  0  0  0
 24 25  1  0  0  0  0
 25 23  1  0  0  0  0
 26 27  1  0  0  0  0
 27 28  1  0  0  0  0
 29 26  1  0  0  0  0
 30 29  3  0  0  0  0
M  END
>  <MODEL>
6

>  <REMARK>
 VINA RESULT:      -3.7      4.190      8.541
  Name = 
  7 active torsions:
  status: ('A' for Active; 'I' for Inactive)
    1  A    between atoms: O_2  and  C_14
    2  A    between atoms: C_6  and  C_12
    3  A    between atoms: C_6  and  C_21
    4  A    between atoms: C_12  and  C_13
    5  A    between atoms: C_14  and  C_20
    6  A    between atoms: C_14  and  C_22
    7  A    between atoms: C_22  and  C_29
                            x       y       z     vdW  Elec       q    Type
                         _______ _______ _______ _____ _____    ______ ____

>  <TORSDO>
F 7

$$$$
=
 OpenBabel10272413433D

 30 33  0  0  1  0  0  0  0  0999 V2000
  183.7880  176.1900  138.0900 C   0  0  0  0  0  2  0  0  0  0  0  0
  184.7390  176.0900  136.9050 C   0  0  1  0  0  0  0  0  0  0  0  0
  187.8610  175.6810  134.9300 C   0  0  0  0  0  2  0  0  0  0  0  0
  185.5570  174.5070  135.1230 C   0  0  0  0  0  2  0  0  0  0  0  0
  186.6250  177.5680  137.9490 C   0  0  0  0  0  2  0  0  0  0  0  0
  185.3740  174.7020  136.6270 C   0  0  2  0  0  3  0  0  0  0  0  0
  187.7560  176.5490  138.0080 C   0  0  0  0  0  2  0  0  0  0  0  0
  188.7680  175.5070  136.0540 N   0  0  0  0  0  2  0  0  0  0  0  0
  183.2310  176.3360  136.6770 C   0  0  2  0  0  0  0  0  0  0  0  0
  185.7370  177.9320  135.8040 O   0  0  0  0  0  0  0  0  0  0  0  0
  185.6780  177.2660  136.8260 C   0  0  0  0  0  0  0  0  0  0  0  0
  188.7150  176.7300  136.8400 C   0  0  0  0  0  2  0  0  0  0  0  0
  187.4990  173.4320  134.3460 O   0  0  0  0  0  0  0  0  0  0  0  0
  187.0100  174.4640  134.7730 C   0  0  0  0  0  0  0  0  0  0  0  0
  181.0930  179.4000  136.9650 C   0  0  1  0  0  3  0  0  0  0  0  0
  182.2090  178.5110  137.4750 C   0  0  1  0  0  3  0  0  0  0  0  0
  181.3340  178.0390  136.3440 C   0  0  2  0  0  3  0  0  0  0  0  0
  180.0070  179.3270  137.8360 O   0  0  0  0  0  1  0  0  0  0  0  0
  182.8330  177.7810  136.2940 C   0  0  2  0  0  3  0  0  0  0  0  0
  185.5990  172.9040  138.2370 O   0  0  0  0  0  1  0  0  0  0  0  0
  184.7250  173.4770  137.3100 C   0  0  2  0  0  3  0  0  0  0  0  0
  184.2580  172.4080  136.3140 C   0  0  0  0  0  2  0  0  0  0  0  0
  181.9880  171.5780  136.9440 C   0  0  0  0  0  1  0  0  0  0  0  0
  183.7240  169.9930  136.2110 C   0  0  0  0  0  1  0  0  0  0  0  0
  183.4730  171.2770  136.9710 C   0  0  0  0  0  3  0  0  0  0  0  0
  182.4070  175.1270  136.1920 C   0  0  2  0  0  3  0  0  0  0  0  0
  182.0490  175.2800  134.8490 O   0  0  0  0  0  0  0  0  0  0  0  0
  181.0530  174.3280  134.6230 C   0  0  0  0  0  1  0  0  0  0  0  0
  181.2050  174.9280  137.0180 C   0  0  0  0  0  0  0  0  0  0  0  0
  180.2590  174.7740  137.6680 N   0  0  0  0  0  0  0  0  0  0  0  0
  2  1  1  1  0  0  0
  3  8  1  0  0  0  0
  4  6  1  0  0  0  0
  5  7  1  0  0  0  0
  6  2  1  0  0  0  0
  6 21  1  6  0  0  0
  8 12  1  0  0  0  0
  9 26  1  6  0  0  0
  9  2  1  0  0  0  0
  9  1  1  0  0  0  0
 10 11  2  0  0  0  0
 11  2  1  0  0  0  0
 11  5  1  0  0  0  0
 12  7  1  0  0  0  0
 13 14  2  0  0  0  0
 14  3  1  0  0  0  0
 14  4  1  0  0  0  0
 15 16  1  0  0  0  0
 15 18  1  0  0  0  0
 17 15  1  0  0  0  0
 17 16  1  0  0  0  0
 19 17  1  0  0  0  0
 19  9  1  0  0  0  0
 19 16  1  0  0  0  0
 21 20  1  0  0  0  0
 22 25  1  0  0  0  0
 22 21  1  0  0  0  0
 23 25  1  0  0  0  0
 24 25  1  0  0  0  0
 26 29  1  0  0  0  0
 27 26  1  0  0  0  0
 28 27  1  0  0  0  0
 29 30  3  0  0  0  0
M  END
>  <MODEL>
7

>  <REMARK>
 VINA RESULT:      -3.6      2.809      5.795
  Name = 
  7 active torsions:
  status: ('A' for Active; 'I' for Inactive)
    1  A    between atoms: O_2  and  C_14
    2  A    between atoms: C_6  and  C_12
    3  A    between atoms: C_6  and  C_21
    4  A    between atoms: C_12  and  C_13
    5  A    between atoms: C_14  and  C_20
    6  A    between atoms: C_14  and  C_22
    7  A    between atoms: C_22  and  C_29
                            x       y       z     vdW  Elec       q    Type
                         _______ _______ _______ _____ _____    ______ ____

>  <TORSDO>
F 7

$$$$
=
 OpenBabel10272413433D

 30 33  0  0  1  0  0  0  0  0999 V2000
  184.3440  177.4590  136.3630 C   0  0  0  0  0  2  0  0  0  0  0  0
  185.2710  177.3410  137.5650 C   0  0  1  0  0  0  0  0  0  0  0  0
  188.0410  178.0250  139.9470 C   0  0  0  0  0  2  0  0  0  0  0  0
  185.4520  177.8980  140.0150 C   0  0  0  0  0  2  0  0  0  0  0  0
  187.4880  177.7150  136.2330 C   0  0  0  0  0  2  0  0  0  0  0  0
  185.2000  178.4740  138.6230 C   0  0  2  0  0  3  0  0  0  0  0  0
  187.9840  178.9920  136.8980 C   0  0  0  0  0  2  0  0  0  0  0  0
  188.6110  179.1640  139.2440 N   0  0  0  0  0  2  0  0  0  0  0  0
  184.1010  176.3490  137.3810 C   0  0  2  0  0  0  0  0  0  0  0  0
  187.1510  175.9080  137.6970 O   0  0  0  0  0  0  0  0  0  0  0  0
  186.6580  176.8960  137.1750 C   0  0  0  0  0  0  0  0  0  0  0  0
  189.0480  178.6870  137.9420 C   0  0  0  0  0  2  0  0  0  0  0  0
  186.7300  179.1470  141.5450 O   0  0  0  0  0  0  0  0  0  0  0  0
  186.7410  178.4140  140.5710 C   0  0  0  0  0  0  0  0  0  0  0  0
  183.6280  173.3170  135.2300 C   0  0  1  0  0  3  0  0  0  0  0  0
  184.1090  174.7400  135.4250 C   0  0  1  0  0  3  0  0  0  0  0  0
  183.2940  174.0720  136.5000 C   0  0  2  0  0  3  0  0  0  0  0  0
  182.5170  173.3140  134.3870 O   0  0  0  0  0  1  0  0  0  0  0  0
  184.4880  174.9350  136.8860 C   0  0  2  0  0  3  0  0  0  0  0  0
  184.3630  180.7470  138.5720 O   0  0  0  0  0  1  0  0  0  0  0  0
  183.9690  179.4070  138.5790 C   0  0  2  0  0  3  0  0  0  0  0  0
  182.9880  179.1650  139.7330 C   0  0  0  0  0  2  0  0  0  0  0  0
  181.2530  180.0200  138.1520 C   0  0  0  0  0  1  0  0  0  0  0  0
  180.6130  179.3000  140.4190 C   0  0  0  0  0  1  0  0  0  0  0  0
  181.6970  179.9670  139.6010 C   0  0  0  0  0  3  0  0  0  0  0  0
  182.8690  176.5710  138.2790 C   0  0  2  0  0  3  0  0  0  0  0  0
  182.7840  175.5740  139.2570 O   0  0  0  0  0  0  0  0  0  0  0  0
  181.5610  175.7880  139.8950 C   0  0  0  0  0  1  0  0  0  0  0  0
  181.6270  176.6140  137.4900 C   0  0  0  0  0  0  0  0  0  0  0  0
  180.6520  176.6470  136.8680 N   0  0  0  0  0  0  0  0  0  0  0  0
  1  9  1  0  0  0  0
  2  1  1  6  0  0  0
  2  6  1  0  0  0  0
  3 14  1  0  0  0  0
  4 14  1  0  0  0  0
  5  7  1  0  0  0  0
  5 11  1  0  0  0  0
  6 21  1  1  0  0  0
  6  4  1  0  0  0  0
  7 12  1  0  0  0  0
  8  3  1  0  0  0  0
  9  2  1  0  0  0  0
  9 26  1  1  0  0  0
 11  2  1  0  0  0  0
 11 10  2  0  0  0  0
 12  8  1  0  0  0  0
 14 13  2  0  0  0  0
 15 16  1  0  0  0  0
 15 17  1  0  0  0  0
 16 17  1  0  0  0  0
 16 19  1  0  0  0  0
 17 19  1  0  0  0  0
 18 15  1  0  0  0  0
 19  9  1  0  0  0  0
 20 21  1  0  0  0  0
 21 22  1  0  0  0  0
 23 25  1  0  0  0  0
 25 22  1  0  0  0  0
 25 24  1  0  0  0  0
 26 27  1  0  0  0  0
 27 28  1  0  0  0  0
 29 26  1  0  0  0  0
 30 29  3  0  0  0  0
M  END
>  <MODEL>
8

>  <REMARK>
 VINA RESULT:      -3.6      2.295      6.422
  Name = 
  7 active torsions:
  status: ('A' for Active; 'I' for Inactive)
    1  A    between atoms: O_2  and  C_14
    2  A    between atoms: C_6  and  C_12
    3  A    between atoms: C_6  and  C_21
    4  A    between atoms: C_12  and  C_13
    5  A    between atoms: C_14  and  C_20
    6  A    between atoms: C_14  and  C_22
    7  A    between atoms: C_22  and  C_29
                            x       y       z     vdW  Elec       q    Type
                         _______ _______ _______ _____ _____    ______ ____

>  <TORSDO>
F 7

$$$$
=
 OpenBabel10272413433D

 30 33  0  0  1  0  0  0  0  0999 V2000
  183.7510  176.6600  139.0130 C   0  0  0  0  0  2  0  0  0  0  0  0
  184.6220  177.2950  137.9380 C   0  0  1  0  0  0  0  0  0  0  0  0
  187.6250  178.3290  136.0060 C   0  0  0  0  0  2  0  0  0  0  0  0
  185.4640  176.9580  135.5870 C   0  0  0  0  0  2  0  0  0  0  0  0
  186.4250  178.2400  139.5770 C   0  0  0  0  0  2  0  0  0  0  0  0
  185.3670  176.3310  136.9760 C   0  0  2  0  0  3  0  0  0  0  0  0
  187.6510  177.4780  139.0900 C   0  0  0  0  0  2  0  0  0  0  0  0
  188.6200  177.7120  136.8690 N   0  0  0  0  0  2  0  0  0  0  0  0
  183.0850  177.4420  137.8840 C   0  0  2  0  0  0  0  0  0  0  0  0
  185.3590  179.5440  137.9380 O   0  0  0  0  0  0  0  0  0  0  0  0
  185.4360  178.4470  138.4690 C   0  0  0  0  0  0  0  0  0  0  0  0
  188.5040  178.3430  138.1740 C   0  0  0  0  0  2  0  0  0  0  0  0
  187.4420  176.6710  134.3470 O   0  0  0  0  0  0  0  0  0  0  0  0
  186.8860  177.2730  135.2500 C   0  0  0  0  0  0  0  0  0  0  0  0
  180.8870  179.6620  139.9540 C   0  0  1  0  0  3  0  0  0  0  0  0
  182.1410  178.8300  139.7810 C   0  0  1  0  0  3  0  0  0  0  0  0
  181.0630  178.7850  138.7310 C   0  0  2  0  0  3  0  0  0  0  0  0
  180.0330  179.0310  140.8570 O   0  0  0  0  0  1  0  0  0  0  0  0
  182.5250  178.8210  138.3080 C   0  0  2  0  0  3  0  0  0  0  0  0
  185.7880  174.0280  137.6020 O   0  0  0  0  0  1  0  0  0  0  0  0
  184.8880  174.8630  136.9340 C   0  0  2  0  0  3  0  0  0  0  0  0
  184.6640  174.3430  135.5090 C   0  0  0  0  0  2  0  0  0  0  0  0
  182.7030  173.2960  134.3710 C   0  0  0  0  0  1  0  0  0  0  0  0
  184.5800  171.8960  135.1340 C   0  0  0  0  0  1  0  0  0  0  0  0
  183.7510  173.1220  135.4520 C   0  0  0  0  0  3  0  0  0  0  0  0
  182.3500  176.5650  136.8520 C   0  0  2  0  0  3  0  0  0  0  0  0
  181.6520  177.3590  135.9370 O   0  0  0  0  0  0  0  0  0  0  0  0
  182.0270  176.8840  134.6780 C   0  0  0  0  0  1  0  0  0  0  0  0
  181.4320  175.6190  137.5070 C   0  0  0  0  0  0  0  0  0  0  0  0
  180.7110  174.8750  138.0230 N   0  0  0  0  0  0  0  0  0  0  0  0
  2 11  1  0  0  0  0
  2  1  1  1  0  0  0
  3  8  1  0  0  0  0
  4  6  1  0  0  0  0
  6 21  1  6  0  0  0
  6  2  1  0  0  0  0
  7  5  1  0  0  0  0
  8 12  1  0  0  0  0
  9 26  1  6  0  0  0
  9  2  1  0  0  0  0
  9 19  1  0  0  0  0
  9  1  1  0  0  0  0
 10 11  2  0  0  0  0
 11  5  1  0  0  0  0
 12  7  1  0  0  0  0
 13 14  2  0  0  0  0
 14  4  1  0  0  0  0
 14  3  1  0  0  0  0
 15 18  1  0  0  0  0
 16 15  1  0  0  0  0
 17 16  1  0  0  0  0
 17 15  1  0  0  0  0
 19 17  1  0  0  0  0
 19 16  1  0  0  0  0
 21 20  1  0  0  0  0
 22 21  1  0  0  0  0
 23 25  1  0  0  0  0
 24 25  1  0  0  0  0
 25 22  1  0  0  0  0
 26 29  1  0  0  0  0
 27 26  1  0  0  0  0
 28 27  1  0  0  0  0
 29 30  3  0  0  0  0
M  END
>  <MODEL>
9

>  <REMARK>
 VINA RESULT:      -3.2      2.134      5.328
  Name = 
  7 active torsions:
  status: ('A' for Active; 'I' for Inactive)
    1  A    between atoms: O_2  and  C_14
    2  A    between atoms: C_6  and  C_12
    3  A    between atoms: C_6  and  C_21
    4  A    between atoms: C_12  and  C_13
    5  A    between atoms: C_14  and  C_20
    6  A    between atoms: C_14  and  C_22
    7  A    between atoms: C_22  and  C_29
                            x       y       z     vdW  Elec       q    Type
                         _______ _______ _______ _____ _____    ______ ____

>  <TORSDO>
F 7

$$$$
