=
 OpenBabel10272401123D

 27 31  0  0  1  0  0  0  0  0999 V2000
  186.6840  177.6580  142.7810 C   0  0  0  0  0  2  0  0  0  0  0  0
  188.0100  177.8480  144.9350 C   0  0  1  0  0  3  0  0  0  0  0  0
  189.2590  176.1990  143.4350 C   0  0  0  0  0  2  0  0  0  0  0  0
  187.5110  178.0680  147.1930 C   0  0  1  0  0  3  0  0  0  0  0  0
  188.2190  178.6190  146.0930 O   0  0  0  0  0  0  0  0  0  0  0  0
  183.6570  179.5170  143.9400 C   0  0  0  0  0  2  0  0  0  0  0  0
  185.9280  179.1640  144.6340 N   0  0  1  0  0  0  0  0  0  0  0  0
  190.1070  177.4910  140.0860 C   0  0  0  0  0  3  0  0  0  0  0  0
  185.1030  178.1010  145.2190 C   0  0  2  0  0  3  0  0  0  0  0  0
  188.9720  178.3880  139.8380 C   0  0  0  0  0  0  0  0  0  0  0  0
  187.0900  178.5850  143.9390 C   0  0  2  0  0  3  0  0  0  0  0  0
  186.1830  178.7820  147.4920 C   0  0  2  0  0  3  0  0  0  0  0  0
  187.8040  177.5540  141.8060 C   0  0  0  0  0  0  0  0  0  0  0  0
  189.3700  177.4310  144.3490 C   0  0  1  0  0  3  0  0  0  0  0  0
  190.0680  176.6230  141.0970 C   0  0  0  0  0  3  0  0  0  0  0  0
  187.3860  176.6710  147.1690 O   0  0  0  0  0  1  0  0  0  0  0  0
  188.9780  179.1560  138.8420 O   0  0  0  0  0  0  0  0  0  0  0  0
  183.7390  178.1490  144.5620 C   0  0  0  0  0  2  0  0  0  0  0  0
  187.8530  178.4160  140.7870 C   0  0  0  0  0  3  0  0  0  0  0  0
  184.9470  178.2800  146.7310 C   0  0  0  0  0  2  0  0  0  0  0  0
  188.8520  176.4710  141.9800 C   0  0  1  0  0  3  0  0  0  0  0  0
  185.0940  179.9040  143.6880 C   0  0  0  0  0  2  0  0  0  0  0  0
  191.1000  179.1640  144.7990 C   0  0  0  0  0  2  0  0  0  0  0  0
  191.6440  178.2360  143.7350 C   0  0  0  0  0  2  0  0  0  0  0  0
  190.1690  178.5890  143.7490 C   0  0  0  0  0  3  0  0  0  0  0  0
  185.9240  180.7620  148.5520 O   0  0  0  0  0  1  0  0  0  0  0  0
  186.3140  180.2270  147.3700 N   0  0  0  0  0  2  0  0  0  0  0  0
  2  5  1  1  0  0  0
  3 14  1  0  0  0  0
  4 16  1  6  0  0  0
  4 12  1  0  0  0  0
  5  4  1  0  0  0  0
  6 18  1  0  0  0  0
  7 22  1  6  0  0  0
  7  9  1  0  0  0  0
  8 15  2  0  0  0  0
  9 18  1  6  0  0  0
  9 20  1  0  0  0  0
 10  8  1  0  0  0  0
 10 19  1  0  0  0  0
 11  1  1  6  0  0  0
 11  7  1  0  0  0  0
 11  2  1  0  0  0  0
 12 27  1  6  0  0  0
 13 21  1  0  0  0  0
 13  1  1  0  0  0  0
 14 25  1  6  0  0  0
 14  2  1  0  0  0  0
 17 10  2  0  0  0  0
 19 13  2  0  0  0  0
 20 12  1  0  0  0  0
 21 15  1  6  0  0  0
 21  3  1  0  0  0  0
 22  6  1  0  0  0  0
 24 25  1  0  0  0  0
 24 23  1  0  0  0  0
 25 23  1  0  0  0  0
 27 26  1  0  0  0  0
M  END
>  <MODEL>
1

>  <REMARK>
 VINA RESULT:      -6.3      0.000      0.000
  Name = 
  2 active torsions:
  status: ('A' for Active; 'I' for Inactive)
    1  A    between atoms: C_14  and  C_19
    2  A    between atoms: N_16  and  C_17
                            x       y       z     vdW  Elec       q    Type
                         _______ _______ _______ _____ _____    ______ ____

>  <TORSDO>
F 2

$$$$
=
 OpenBabel10272401123D

 27 31  0  0  1  0  0  0  0  0999 V2000
  183.3210  177.3680  137.2930 C   0  0  0  0  0  2  0  0  0  0  0  0
  185.4780  178.2760  138.2700 C   0  0  1  0  0  3  0  0  0  0  0  0
  183.6200  179.8960  138.9370 C   0  0  0  0  0  2  0  0  0  0  0  0
  187.6980  178.4000  137.5970 C   0  0  1  0  0  3  0  0  0  0  0  0
  186.8060  177.9630  138.6120 O   0  0  0  0  0  0  0  0  0  0  0  0
  184.8640  174.7230  135.1510 C   0  0  0  0  0  2  0  0  0  0  0  0
  185.4930  176.1650  136.9640 N   0  0  1  0  0  0  0  0  0  0  0  0
  180.7690  178.3450  140.6900 C   0  0  0  0  0  3  0  0  0  0  0  0
  185.7460  176.8770  135.7070 C   0  0  2  0  0  3  0  0  0  0  0  0
  180.7450  177.0190  140.0620 C   0  0  0  0  0  0  0  0  0  0  0  0
  184.6970  177.0050  137.8760 C   0  0  2  0  0  3  0  0  0  0  0  0
  188.1450  177.2780  136.6450 C   0  0  2  0  0  3  0  0  0  0  0  0
  182.3830  177.7090  138.3970 C   0  0  0  0  0  0  0  0  0  0  0  0
  184.8350  179.0830  139.4110 C   0  0  1  0  0  3  0  0  0  0  0  0
  181.5050  179.3240  140.1630 C   0  0  0  0  0  3  0  0  0  0  0  0
  187.2930  179.5600  136.9210 O   0  0  0  0  0  1  0  0  0  0  0  0
  179.9940  176.1170  140.5160 O   0  0  0  0  0  0  0  0  0  0  0  0
  185.0930  176.0980  134.5850 C   0  0  0  0  0  2  0  0  0  0  0  0
  181.6370  176.7380  138.9310 C   0  0  0  0  0  3  0  0  0  0  0  0
  187.2460  177.0090  135.4300 C   0  0  0  0  0  2  0  0  0  0  0  0
  182.2830  179.1440  138.8810 C   0  0  1  0  0  3  0  0  0  0  0  0
  184.7620  174.9410  136.6420 C   0  0  0  0  0  2  0  0  0  0  0  0
  185.8090  178.3640  141.5870 C   0  0  0  0  0  2  0  0  0  0  0  0
  184.5850  179.2020  141.8840 C   0  0  0  0  0  2  0  0  0  0  0  0
  184.5930  178.2730  140.6850 C   0  0  0  0  0  3  0  0  0  0  0  0
  188.7160  175.1000  136.4410 O   0  0  0  0  0  1  0  0  0  0  0  0
  188.4230  176.0450  137.3670 N   0  0  0  0  0  2  0  0  0  0  0  0
  1 13  1  0  0  0  0
  2  5  1  1  0  0  0
  2 14  1  0  0  0  0
  3 14  1  0  0  0  0
  4 16  1  6  0  0  0
  4  5  1  0  0  0  0
  6 22  1  0  0  0  0
  7 22  1  6  0  0  0
  7 11  1  0  0  0  0
  9 18  1  6  0  0  0
  9  7  1  0  0  0  0
 10 17  2  0  0  0  0
 10  8  1  0  0  0  0
 11  1  1  6  0  0  0
 11  2  1  0  0  0  0
 12 27  1  1  0  0  0
 12  4  1  0  0  0  0
 13 21  1  0  0  0  0
 13 19  2  0  0  0  0
 14 25  1  1  0  0  0
 15  8  2  0  0  0  0
 18  6  1  0  0  0  0
 19 10  1  0  0  0  0
 20  9  1  0  0  0  0
 20 12  1  0  0  0  0
 21  3  1  1  0  0  0
 21 15  1  0  0  0  0
 23 24  1  0  0  0  0
 25 23  1  0  0  0  0
 25 24  1  0  0  0  0
 26 27  1  0  0  0  0
M  END
>  <MODEL>
2

>  <REMARK>
 VINA RESULT:      -5.4      5.419      8.894
  Name = 
  2 active torsions:
  status: ('A' for Active; 'I' for Inactive)
    1  A    between atoms: C_14  and  C_19
    2  A    between atoms: N_16  and  C_17
                            x       y       z     vdW  Elec       q    Type
                         _______ _______ _______ _____ _____    ______ ____

>  <TORSDO>
F 2

$$$$
=
 OpenBabel10272401123D

 27 31  0  0  1  0  0  0  0  0999 V2000
  188.1940  177.3030  141.3640 C   0  0  0  0  0  2  0  0  0  0  0  0
  185.7950  178.0400  141.7280 C   0  0  1  0  0  3  0  0  0  0  0  0
  186.4340  176.5760  143.7210 C   0  0  0  0  0  2  0  0  0  0  0  0
  183.9300  178.3890  140.3870 C   0  0  1  0  0  3  0  0  0  0  0  0
  184.8060  178.9640  141.3450 O   0  0  0  0  0  0  0  0  0  0  0  0
  188.5190  178.5130  137.8430 C   0  0  0  0  0  2  0  0  0  0  0  0
  187.0360  178.7860  139.7110 N   0  0  1  0  0  0  0  0  0  0  0  0
  189.4710  177.6470  145.5190 C   0  0  0  0  0  3  0  0  0  0  0  0
  186.5780  177.6310  138.9310 C   0  0  2  0  0  3  0  0  0  0  0  0
  190.2580  178.2170  144.4190 C   0  0  0  0  0  0  0  0  0  0  0  0
  187.1670  178.4230  141.1330 C   0  0  2  0  0  3  0  0  0  0  0  0
  184.2470  178.7980  138.9390 C   0  0  2  0  0  3  0  0  0  0  0  0
  188.6890  177.3570  142.7670 C   0  0  0  0  0  0  0  0  0  0  0  0
  185.7900  177.8930  143.2590 C   0  0  1  0  0  3  0  0  0  0  0  0
  188.3890  176.9130  145.2590 C   0  0  0  0  0  3  0  0  0  0  0  0
  183.7290  177.0080  140.5320 O   0  0  0  0  0  1  0  0  0  0  0  0
  191.3200  178.8480  144.6610 O   0  0  0  0  0  0  0  0  0  0  0  0
  187.6580  177.2820  137.9290 C   0  0  0  0  0  2  0  0  0  0  0  0
  189.7750  178.0860  143.0400 C   0  0  0  0  0  3  0  0  0  0  0  0
  185.2740  177.9360  138.1900 C   0  0  0  0  0  2  0  0  0  0  0  0
  187.9630  176.5780  143.8490 C   0  0  1  0  0  3  0  0  0  0  0  0
  188.3330  179.1970  139.1760 C   0  0  0  0  0  2  0  0  0  0  0  0
  185.1200  180.0490  144.3090 C   0  0  0  0  0  2  0  0  0  0  0  0
  185.6900  179.1640  145.3970 C   0  0  0  0  0  2  0  0  0  0  0  0
  186.2890  179.1320  144.0030 C   0  0  0  0  0  3  0  0  0  0  0  0
  183.4250  180.9020  138.8460 O   0  0  0  0  0  1  0  0  0  0  0  0
  184.5890  180.2100  138.8460 N   0  0  0  0  0  2  0  0  0  0  0  0
  1 13  1  0  0  0  0
  2  5  1  1  0  0  0
  2 14  1  0  0  0  0
  4 16  1  6  0  0  0
  4  5  1  0  0  0  0
  6 18  1  0  0  0  0
  6 22  1  0  0  0  0
  7 22  1  6  0  0  0
  7 11  1  0  0  0  0
  9 18  1  6  0  0  0
  9  7  1  0  0  0  0
 10 17  2  0  0  0  0
 10  8  1  0  0  0  0
 11  1  1  6  0  0  0
 11  2  1  0  0  0  0
 12 27  1  1  0  0  0
 12  4  1  0  0  0  0
 13 19  2  0  0  0  0
 13 21  1  0  0  0  0
 14  3  1  0  0  0  0
 14 25  1  1  0  0  0
 15  8  2  0  0  0  0
 19 10  1  0  0  0  0
 20  9  1  0  0  0  0
 20 12  1  0  0  0  0
 21  3  1  1  0  0  0
 21 15  1  0  0  0  0
 23 24  1  0  0  0  0
 25 23  1  0  0  0  0
 25 24  1  0  0  0  0
 27 26  1  0  0  0  0
M  END
>  <MODEL>
3

>  <REMARK>
 VINA RESULT:      -5.2      3.013      5.983
  Name = 
  2 active torsions:
  status: ('A' for Active; 'I' for Inactive)
    1  A    between atoms: C_14  and  C_19
    2  A    between atoms: N_16  and  C_17
                            x       y       z     vdW  Elec       q    Type
                         _______ _______ _______ _____ _____    ______ ____

>  <TORSDO>
F 2

$$$$
=
 OpenBabel10272401123D

 27 31  0  0  1  0  0  0  0  0999 V2000
  185.5010  178.6210  138.3650 C   0  0  0  0  0  2  0  0  0  0  0  0
  184.6740  177.0170  136.5820 C   0  0  1  0  0  3  0  0  0  0  0  0
  186.8830  177.9890  135.7430 C   0  0  0  0  0  2  0  0  0  0  0  0
  182.6130  176.4280  135.6880 C   0  0  1  0  0  3  0  0  0  0  0  0
  183.7960  175.9530  136.3120 O   0  0  0  0  0  0  0  0  0  0  0  0
  182.3930  178.6450  140.4390 C   0  0  0  0  0  2  0  0  0  0  0  0
  183.3610  177.3550  138.6610 N   0  0  1  0  0  0  0  0  0  0  0  0
  189.7270  177.5940  138.0580 C   0  0  0  0  0  3  0  0  0  0  0  0
  182.5830  178.4440  138.0620 C   0  0  2  0  0  3  0  0  0  0  0  0
  189.0430  177.6700  139.3540 C   0  0  0  0  0  0  0  0  0  0  0  0
  184.7200  177.3240  138.0940 C   0  0  2  0  0  3  0  0  0  0  0  0
  181.4260  176.5810  136.6530 C   0  0  2  0  0  3  0  0  0  0  0  0
  186.9630  178.3510  138.2860 C   0  0  0  0  0  0  0  0  0  0  0  0
  186.0480  176.7160  135.9580 C   0  0  1  0  0  3  0  0  0  0  0  0
  189.0880  177.9420  136.9410 C   0  0  0  0  0  3  0  0  0  0  0  0
  182.7950  177.5500  134.8650 O   0  0  0  0  0  1  0  0  0  0  0  0
  189.6670  177.4120  140.4160 O   0  0  0  0  0  0  0  0  0  0  0  0
  182.2120  179.4170  139.1610 C   0  0  0  0  0  2  0  0  0  0  0  0
  187.6150  178.0050  139.4000 C   0  0  0  0  0  3  0  0  0  0  0  0
  181.3100  177.9220  137.3920 C   0  0  0  0  0  2  0  0  0  0  0  0
  187.6800  178.4880  136.9560 C   0  0  1  0  0  3  0  0  0  0  0  0
  183.4220  177.5930  140.1020 C   0  0  0  0  0  2  0  0  0  0  0  0
  186.3100  174.2450  136.1070 C   0  0  0  0  0  2  0  0  0  0  0  0
  187.6190  174.8170  135.6110 C   0  0  0  0  0  2  0  0  0  0  0  0
  186.8030  175.5760  136.6410 C   0  0  0  0  0  3  0  0  0  0  0  0
  180.3270  175.7280  138.4350 O   0  0  0  0  0  1  0  0  0  0  0  0
  181.3500  175.4670  137.5860 N   0  0  0  0  0  2  0  0  0  0  0  0
  2  5  1  1  0  0  0
  2 11  1  0  0  0  0
  3 14  1  0  0  0  0
  4 16  1  1  0  0  0
  4  5  1  0  0  0  0
  4 12  1  0  0  0  0
  7 22  1  1  0  0  0
  8 10  1  0  0  0  0
  9 20  1  1  0  0  0
  9  7  1  0  0  0  0
  9 18  1  0  0  0  0
 10 19  1  0  0  0  0
 10 17  2  0  0  0  0
 11  1  1  6  0  0  0
 11  7  1  0  0  0  0
 12 20  1  0  0  0  0
 12 27  1  1  0  0  0
 13  1  1  0  0  0  0
 13 19  2  0  0  0  0
 14  2  1  0  0  0  0
 14 25  1  1  0  0  0
 15 21  1  0  0  0  0
 15  8  2  0  0  0  0
 18  6  1  0  0  0  0
 21  3  1  6  0  0  0
 21 13  1  0  0  0  0
 22  6  1  0  0  0  0
 23 25  1  0  0  0  0
 24 23  1  0  0  0  0
 24 25  1  0  0  0  0
 27 26  1  0  0  0  0
M  END
>  <MODEL>
4

>  <REMARK>
 VINA RESULT:      -5.0      5.505      8.242
  Name = 
  2 active torsions:
  status: ('A' for Active; 'I' for Inactive)
    1  A    between atoms: C_14  and  C_19
    2  A    between atoms: N_16  and  C_17
                            x       y       z     vdW  Elec       q    Type
                         _______ _______ _______ _____ _____    ______ ____

>  <TORSDO>
F 2

$$$$
=
 OpenBabel10272401123D

 27 31  0  0  1  0  0  0  0  0999 V2000
  188.8280  178.4610  141.6350 C   0  0  0  0  0  2  0  0  0  0  0  0
  190.9970  177.1890  141.3080 C   0  0  1  0  0  3  0  0  0  0  0  0
  191.2240  178.4990  143.4890 C   0  0  0  0  0  2  0  0  0  0  0  0
  192.3460  176.6180  139.5050 C   0  0  1  0  0  3  0  0  0  0  0  0
  191.6160  176.1300  140.6200 O   0  0  0  0  0  0  0  0  0  0  0  0
  187.3880  177.7930  138.2520 C   0  0  0  0  0  2  0  0  0  0  0  0
  189.1670  176.9810  139.6440 N   0  0  1  0  0  0  0  0  0  0  0  0
  188.5430  177.8890  145.9470 C   0  0  0  0  0  3  0  0  0  0  0  0
  189.6860  178.0980  138.8470 C   0  0  2  0  0  3  0  0  0  0  0  0
  187.4020  177.6400  145.0580 C   0  0  0  0  0  0  0  0  0  0  0  0
  189.4720  177.1840  141.0700 C   0  0  2  0  0  3  0  0  0  0  0  0
  191.6030  176.4670  138.1670 C   0  0  2  0  0  3  0  0  0  0  0  0
  188.6870  178.3410  143.1120 C   0  0  0  0  0  0  0  0  0  0  0  0
  191.4050  177.1420  142.7900 C   0  0  1  0  0  3  0  0  0  0  0  0
  189.6740  178.4000  145.4610 C   0  0  0  0  0  3  0  0  0  0  0  0
  192.9000  177.8950  139.6810 O   0  0  0  0  0  1  0  0  0  0  0  0
  186.3110  177.2260  145.5290 O   0  0  0  0  0  0  0  0  0  0  0  0
  188.5120  178.7910  138.1880 C   0  0  0  0  0  2  0  0  0  0  0  0
  187.5570  177.8330  143.6120 C   0  0  0  0  0  3  0  0  0  0  0  0
  190.6620  177.6140  137.7720 C   0  0  0  0  0  2  0  0  0  0  0  0
  189.8150  178.8080  144.0130 C   0  0  1  0  0  3  0  0  0  0  0  0
  187.7200  176.9250  139.4420 C   0  0  0  0  0  2  0  0  0  0  0  0
  191.9030  174.9240  143.8070 C   0  0  0  0  0  2  0  0  0  0  0  0
  191.4780  175.8570  144.9200 C   0  0  0  0  0  2  0  0  0  0  0  0
  190.8190  175.9560  143.5570 C   0  0  0  0  0  3  0  0  0  0  0  0
  191.8580  174.2600  137.7520 O   0  0  0  0  0  1  0  0  0  0  0  0
  190.9230  175.1840  138.0760 N   0  0  0  0  0  2  0  0  0  0  0  0
  1 13  1  0  0  0  0
  2  5  1  6  0  0  0
  2 14  1  0  0  0  0
  4 16  1  1  0  0  0
  4  5  1  0  0  0  0
  6 22  1  0  0  0  0
  7 22  1  1  0  0  0
  7 11  1  0  0  0  0
  9 20  1  6  0  0  0
  9  7  1  0  0  0  0
 10 17  2  0  0  0  0
 10  8  1  0  0  0  0
 11  2  1  0  0  0  0
 11  1  1  6  0  0  0
 12 27  1  1  0  0  0
 12  4  1  0  0  0  0
 13 19  2  0  0  0  0
 13 21  1  0  0  0  0
 14  3  1  0  0  0  0
 14 25  1  1  0  0  0
 15  8  2  0  0  0  0
 18  6  1  0  0  0  0
 18  9  1  0  0  0  0
 19 10  1  0  0  0  0
 20 12  1  0  0  0  0
 21  3  1  6  0  0  0
 21 15  1  0  0  0  0
 23 24  1  0  0  0  0
 25 23  1  0  0  0  0
 25 24  1  0  0  0  0
 26 27  1  0  0  0  0
M  END
>  <MODEL>
5

>  <REMARK>
 VINA RESULT:      -5.0      3.123      6.921
  Name = 
  2 active torsions:
  status: ('A' for Active; 'I' for Inactive)
    1  A    between atoms: C_14  and  C_19
    2  A    between atoms: N_16  and  C_17
                            x       y       z     vdW  Elec       q    Type
                         _______ _______ _______ _____ _____    ______ ____

>  <TORSDO>
F 2

$$$$
=
 OpenBabel10272401123D

 27 31  0  0  1  0  0  0  0  0999 V2000
  185.4050  178.1140  138.7050 C   0  0  0  0  0  2  0  0  0  0  0  0
  184.8920  176.0760  137.2850 C   0  0  1  0  0  3  0  0  0  0  0  0
  183.0600  176.2280  139.0580 C   0  0  0  0  0  2  0  0  0  0  0  0
  186.1300  174.4110  136.2390 C   0  0  1  0  0  3  0  0  0  0  0  0
  185.1570  175.4300  136.0640 O   0  0  0  0  0  0  0  0  0  0  0  0
  188.8150  178.7850  137.3320 C   0  0  0  0  0  2  0  0  0  0  0  0
  186.8780  177.4780  136.7820 N   0  0  1  0  0  0  0  0  0  0  0  0
  181.2850  179.4590  139.1780 C   0  0  0  0  0  3  0  0  0  0  0  0
  187.7400  176.6710  137.6530 C   0  0  2  0  0  3  0  0  0  0  0  0
  182.3580  180.3800  138.7840 C   0  0  0  0  0  0  0  0  0  0  0  0
  185.5000  177.4950  137.3010 C   0  0  2  0  0  3  0  0  0  0  0  0
  187.5460  174.8330  135.8150 C   0  0  2  0  0  3  0  0  0  0  0  0
  184.0210  178.6080  138.9430 C   0  0  0  0  0  0  0  0  0  0  0  0
  183.3810  176.0340  137.5670 C   0  0  1  0  0  3  0  0  0  0  0  0
  181.5690  178.1980  139.5040 C   0  0  0  0  0  3  0  0  0  0  0  0
  186.1000  173.7820  137.4920 O   0  0  0  0  0  1  0  0  0  0  0  0
  182.0990  181.5880  138.5480 O   0  0  0  0  0  0  0  0  0  0  0  0
  188.8070  177.5780  138.2290 C   0  0  0  0  0  2  0  0  0  0  0  0
  183.7250  179.8710  138.6240 C   0  0  0  0  0  3  0  0  0  0  0  0
  188.4040  175.5280  136.8820 C   0  0  0  0  0  2  0  0  0  0  0  0
  182.9870  177.6790  139.5510 C   0  0  1  0  0  3  0  0  0  0  0  0
  187.4210  178.8350  136.7530 C   0  0  0  0  0  2  0  0  0  0  0  0
  182.2850  176.1550  135.3350 C   0  0  0  0  0  2  0  0  0  0  0  0
  181.2010  176.2520  136.3860 C   0  0  0  0  0  2  0  0  0  0  0  0
  182.5480  176.9050  136.6260 C   0  0  0  0  0  3  0  0  0  0  0  0
  188.7980  176.0100  134.3460 O   0  0  0  0  0  1  0  0  0  0  0  0
  187.5270  175.6060  134.5820 N   0  0  0  0  0  2  0  0  0  0  0  0
  1 13  1  0  0  0  0
  2  5  1  6  0  0  0
  2 11  1  0  0  0  0
  2 14  1  0  0  0  0
  4 16  1  1  0  0  0
  5  4  1  0  0  0  0
  6 18  1  0  0  0  0
  7 22  1  1  0  0  0
  7 11  1  0  0  0  0
  7  9  1  0  0  0  0
  8 15  2  0  0  0  0
  9 20  1  6  0  0  0
  9 18  1  0  0  0  0
 10  8  1  0  0  0  0
 11  1  1  1  0  0  0
 12 27  1  6  0  0  0
 12  4  1  0  0  0  0
 12 20  1  0  0  0  0
 13 21  1  0  0  0  0
 14 25  1  6  0  0  0
 14  3  1  0  0  0  0
 15 21  1  0  0  0  0
 17 10  2  0  0  0  0
 19 10  1  0  0  0  0
 19 13  2  0  0  0  0
 21  3  1  6  0  0  0
 22  6  1  0  0  0  0
 23 24  1  0  0  0  0
 23 25  1  0  0  0  0
 24 25  1  0  0  0  0
 26 27  1  0  0  0  0
M  END
>  <MODEL>
6

>  <REMARK>
 VINA RESULT:      -5.0      6.654      9.539
  Name = 
  2 active torsions:
  status: ('A' for Active; 'I' for Inactive)
    1  A    between atoms: C_14  and  C_19
    2  A    between atoms: N_16  and  C_17
                            x       y       z     vdW  Elec       q    Type
                         _______ _______ _______ _____ _____    ______ ____

>  <TORSDO>
F 2

$$$$
=
 OpenBabel10272401123D

 27 31  0  0  1  0  0  0  0  0999 V2000
  185.0120  178.1980  138.0610 C   0  0  0  0  0  2  0  0  0  0  0  0
  184.7750  176.2910  136.4060 C   0  0  1  0  0  3  0  0  0  0  0  0
  186.8280  177.6380  135.7000 C   0  0  0  0  0  2  0  0  0  0  0  0
  183.0150  175.1830  135.3700 C   0  0  1  0  0  3  0  0  0  0  0  0
  184.1780  175.0400  136.1720 O   0  0  0  0  0  0  0  0  0  0  0  0
  181.7200  177.7380  139.7670 C   0  0  0  0  0  2  0  0  0  0  0  0
  183.1580  176.5290  138.2740 N   0  0  1  0  0  0  0  0  0  0  0  0
  189.3620  178.0960  138.3410 C   0  0  0  0  0  3  0  0  0  0  0  0
  182.2590  177.3600  137.4660 C   0  0  2  0  0  3  0  0  0  0  0  0
  188.5120  178.1430  139.5370 C   0  0  0  0  0  0  0  0  0  0  0  0
  184.5570  176.7430  137.8660 C   0  0  2  0  0  3  0  0  0  0  0  0
  181.7050  175.1630  136.1750 C   0  0  2  0  0  3  0  0  0  0  0  0
  186.4960  178.2480  138.1750 C   0  0  0  0  0  0  0  0  0  0  0  0
  186.2510  176.2400  135.9750 C   0  0  1  0  0  3  0  0  0  0  0  0
  188.8180  178.1880  137.1280 C   0  0  0  0  0  3  0  0  0  0  0  0
  183.0700  176.2350  134.4430 O   0  0  0  0  0  1  0  0  0  0  0  0
  189.0300  178.1290  140.6830 O   0  0  0  0  0  0  0  0  0  0  0  0
  181.5540  178.3270  138.3930 C   0  0  0  0  0  2  0  0  0  0  0  0
  187.0520  178.1600  139.3860 C   0  0  0  0  0  3  0  0  0  0  0  0
  181.2200  176.5110  136.7310 C   0  0  0  0  0  2  0  0  0  0  0  0
  187.3390  178.4120  136.9230 C   0  0  1  0  0  3  0  0  0  0  0  0
  182.9790  176.9100  139.6740 C   0  0  0  0  0  2  0  0  0  0  0  0
  186.9910  173.9100  136.4510 C   0  0  0  0  0  2  0  0  0  0  0  0
  188.2090  174.7040  136.0320 C   0  0  0  0  0  2  0  0  0  0  0  0
  187.1280  175.3620  136.8690 C   0  0  0  0  0  3  0  0  0  0  0  0
  180.5860  174.2720  137.9250 O   0  0  0  0  0  1  0  0  0  0  0  0
  181.7370  174.1530  137.2220 N   0  0  0  0  0  2  0  0  0  0  0  0
  1 13  1  0  0  0  0
  2  5  1  1  0  0  0
  2 11  1  0  0  0  0
  3 14  1  0  0  0  0
  4 16  1  1  0  0  0
  4  5  1  0  0  0  0
  4 12  1  0  0  0  0
  7 22  1  1  0  0  0
  8 10  1  0  0  0  0
  9 20  1  1  0  0  0
  9  7  1  0  0  0  0
  9 18  1  0  0  0  0
 10 17  2  0  0  0  0
 11  1  1  6  0  0  0
 11  7  1  0  0  0  0
 12 20  1  0  0  0  0
 12 27  1  1  0  0  0
 13 19  2  0  0  0  0
 14  2  1  0  0  0  0
 14 25  1  1  0  0  0
 15  8  2  0  0  0  0
 18  6  1  0  0  0  0
 19 10  1  0  0  0  0
 21  3  1  6  0  0  0
 21 15  1  0  0  0  0
 21 13  1  0  0  0  0
 22  6  1  0  0  0  0
 23 25  1  0  0  0  0
 24 23  1  0  0  0  0
 24 25  1  0  0  0  0
 27 26  1  0  0  0  0
M  END
>  <MODEL>
7

>  <REMARK>
 VINA RESULT:      -4.9      5.853      8.541
  Name = 
  2 active torsions:
  status: ('A' for Active; 'I' for Inactive)
    1  A    between atoms: C_14  and  C_19
    2  A    between atoms: N_16  and  C_17
                            x       y       z     vdW  Elec       q    Type
                         _______ _______ _______ _____ _____    ______ ____

>  <TORSDO>
F 2

$$$$
=
 OpenBabel10272401123D

 27 31  0  0  1  0  0  0  0  0999 V2000
  187.4740  175.3150  135.3770 C   0  0  0  0  0  2  0  0  0  0  0  0
  187.2490  177.2350  137.0190 C   0  0  1  0  0  3  0  0  0  0  0  0
  185.5800  177.6680  135.1340 C   0  0  0  0  0  2  0  0  0  0  0  0
  188.6940  178.4800  138.3460 C   0  0  1  0  0  3  0  0  0  0  0  0
  187.5290  177.6680  138.3270 O   0  0  0  0  0  0  0  0  0  0  0  0
  190.5580  173.8070  136.8530 C   0  0  0  0  0  2  0  0  0  0  0  0
  188.8740  175.4090  137.4520 N   0  0  1  0  0  0  0  0  0  0  0  0
  183.2250  174.9030  134.4860 C   0  0  0  0  0  3  0  0  0  0  0  0
  189.9470  176.1190  136.7470 C   0  0  2  0  0  3  0  0  0  0  0  0
  184.0610  173.7440  134.8190 C   0  0  0  0  0  0  0  0  0  0  0  0
  187.5670  175.7340  136.8540 C   0  0  2  0  0  3  0  0  0  0  0  0
  189.9590  177.7320  138.7950 C   0  0  2  0  0  3  0  0  0  0  0  0
  186.0450  175.1450  134.9940 C   0  0  0  0  0  0  0  0  0  0  0  0
  185.8040  177.6180  136.6540 C   0  0  1  0  0  3  0  0  0  0  0  0
  183.7770  176.1090  134.3460 C   0  0  0  0  0  3  0  0  0  0  0  0
  188.8940  179.2430  137.1860 O   0  0  0  0  0  1  0  0  0  0  0  0
  183.5530  172.5940  134.8800 O   0  0  0  0  0  0  0  0  0  0  0  0
  190.8620  175.0870  136.1220 C   0  0  0  0  0  2  0  0  0  0  0  0
  185.4820  173.9400  135.1270 C   0  0  0  0  0  3  0  0  0  0  0  0
  190.7530  177.0050  137.6990 C   0  0  0  0  0  2  0  0  0  0  0  0
  185.2680  176.3300  134.4520 C   0  0  1  0  0  3  0  0  0  0  0  0
  189.1370  173.9760  137.3360 C   0  0  0  0  0  2  0  0  0  0  0  0
  184.3030  177.6190  138.6410 C   0  0  0  0  0  2  0  0  0  0  0  0
  183.4310  177.5960  137.4040 C   0  0  0  0  0  2  0  0  0  0  0  0
  184.7410  176.8310  137.4220 C   0  0  0  0  0  3  0  0  0  0  0  0
  190.8200  176.1430  140.1530 O   0  0  0  0  0  1  0  0  0  0  0  0
  189.6850  176.8410  139.9130 N   0  0  0  0  0  2  0  0  0  0  0  0
  2  5  1  1  0  0  0
  3 14  1  0  0  0  0
  4 16  1  6  0  0  0
  4 12  1  0  0  0  0
  5  4  1  0  0  0  0
  6 22  1  0  0  0  0
  7 22  1  6  0  0  0
  8 10  1  0  0  0  0
  9 18  1  1  0  0  0
  9  7  1  0  0  0  0
  9 20  1  0  0  0  0
 10 17  2  0  0  0  0
 10 19  1  0  0  0  0
 11  1  1  6  0  0  0
 11  2  1  0  0  0  0
 11  7  1  0  0  0  0
 12 27  1  1  0  0  0
 13 19  2  0  0  0  0
 13  1  1  0  0  0  0
 14  2  1  0  0  0  0
 14 25  1  1  0  0  0
 15  8  2  0  0  0  0
 18  6  1  0  0  0  0
 20 12  1  0  0  0  0
 21 15  1  1  0  0  0
 21 13  1  0  0  0  0
 21  3  1  0  0  0  0
 24 25  1  0  0  0  0
 24 23  1  0  0  0  0
 25 23  1  0  0  0  0
 27 26  1  0  0  0  0
M  END
>  <MODEL>
8

>  <REMARK>
 VINA RESULT:      -4.7      6.109      9.227
  Name = 
  2 active torsions:
  status: ('A' for Active; 'I' for Inactive)
    1  A    between atoms: C_14  and  C_19
    2  A    between atoms: N_16  and  C_17
                            x       y       z     vdW  Elec       q    Type
                         _______ _______ _______ _____ _____    ______ ____

>  <TORSDO>
F 2

$$$$
=
 OpenBabel10272401123D

 27 31  0  0  1  0  0  0  0  0999 V2000
  185.0020  177.7320  137.1600 C   0  0  0  0  0  2  0  0  0  0  0  0
  183.7080  175.5660  136.8970 C   0  0  1  0  0  3  0  0  0  0  0  0
  185.5790  175.5310  135.1580 C   0  0  0  0  0  2  0  0  0  0  0  0
  181.4790  174.9220  137.0270 C   0  0  1  0  0  3  0  0  0  0  0  0
  182.7940  174.6910  137.5110 O   0  0  0  0  0  0  0  0  0  0  0  0
  182.6160  179.4110  139.4950 C   0  0  0  0  0  2  0  0  0  0  0  0
  183.0420  177.2130  138.6310 N   0  0  1  0  0  0  0  0  0  0  0  0
  188.9690  176.0390  136.5210 C   0  0  0  0  0  3  0  0  0  0  0  0
  182.1200  177.8920  137.7140 C   0  0  2  0  0  3  0  0  0  0  0  0
  188.6830  176.9350  137.6480 C   0  0  0  0  0  0  0  0  0  0  0  0
  184.1820  176.6520  137.8860 C   0  0  2  0  0  3  0  0  0  0  0  0
  180.6170  175.7770  137.9700 C   0  0  2  0  0  3  0  0  0  0  0  0
  186.3810  177.2310  136.9110 C   0  0  0  0  0  0  0  0  0  0  0  0
  184.8470  174.7510  136.2610 C   0  0  1  0  0  3  0  0  0  0  0  0
  188.0350  175.8030  135.5990 C   0  0  0  0  0  3  0  0  0  0  0  0
  181.4130  175.3470  135.6920 O   0  0  0  0  0  1  0  0  0  0  0  0
  189.5860  177.2150  138.4780 O   0  0  0  0  0  0  0  0  0  0  0  0
  182.0730  179.3570  138.0930 C   0  0  0  0  0  2  0  0  0  0  0  0
  187.3260  177.4640  137.8260 C   0  0  0  0  0  3  0  0  0  0  0  0
  180.7110  177.3000  137.7960 C   0  0  0  0  0  2  0  0  0  0  0  0
  186.6870  176.4840  135.6250 C   0  0  1  0  0  3  0  0  0  0  0  0
  183.5120  178.2000  139.6010 C   0  0  0  0  0  2  0  0  0  0  0  0
  185.1410  172.7910  137.7690 C   0  0  0  0  0  2  0  0  0  0  0  0
  186.2430  172.7450  136.7330 C   0  0  0  0  0  2  0  0  0  0  0  0
  185.7720  174.0800  137.2770 C   0  0  0  0  0  3  0  0  0  0  0  0
  180.0840  176.2580  140.1140 O   0  0  0  0  0  1  0  0  0  0  0  0
  180.8170  175.4020  139.3620 N   0  0  0  0  0  2  0  0  0  0  0  0
  2  5  1  1  0  0  0
  2 11  1  0  0  0  0
  3 14  1  0  0  0  0
  4 16  1  6  0  0  0
  4  5  1  0  0  0  0
  4 12  1  0  0  0  0
  6 22  1  0  0  0  0
  7 22  1  1  0  0  0
  8 10  1  0  0  0  0
  9 20  1  1  0  0  0
  9 18  1  0  0  0  0
  9  7  1  0  0  0  0
 10 19  1  0  0  0  0
 10 17  2  0  0  0  0
 11  1  1  6  0  0  0
 11  7  1  0  0  0  0
 12 27  1  1  0  0  0
 13  1  1  0  0  0  0
 13 19  2  0  0  0  0
 14  2  1  0  0  0  0
 14 25  1  1  0  0  0
 15 21  1  0  0  0  0
 15  8  2  0  0  0  0
 18  6  1  0  0  0  0
 20 12  1  0  0  0  0
 21  3  1  1  0  0  0
 21 13  1  0  0  0  0
 24 25  1  0  0  0  0
 24 23  1  0  0  0  0
 25 23  1  0  0  0  0
 27 26  1  0  0  0  0
M  END
>  <MODEL>
9

>  <REMARK>
 VINA RESULT:      -4.7      6.444      8.429
  Name = 
  2 active torsions:
  status: ('A' for Active; 'I' for Inactive)
    1  A    between atoms: C_14  and  C_19
    2  A    between atoms: N_16  and  C_17
                            x       y       z     vdW  Elec       q    Type
                         _______ _______ _______ _____ _____    ______ ____

>  <TORSDO>
F 2

$$$$
