=
 OpenBabel10272415203D

 34 38  0  0  1  0  0  0  0  0999 V2000
  186.5710  178.2030  139.3050 C   0  0  2  0  0  3  0  0  0  0  0  0
  190.0510  177.4390  138.6490 C   0  0  0  0  0  3  0  0  0  0  0  0
  188.6020  178.6810  136.7680 S   0  0  0  0  0  0  0  0  0  0  0  0
  185.1070  177.2010  137.3080 N   0  0  0  0  0  0  0  0  0  0  0  0
  183.8390  176.6490  137.7480 C   0  0  0  0  0  1  0  0  0  0  0  0
  186.9790  177.9740  136.8070 C   0  0  0  0  0  0  0  0  0  0  0  0
  186.1670  177.8320  137.9440 C   0  0  0  0  0  0  0  0  0  0  0  0
  185.9080  177.1740  135.8690 S   0  0  0  0  0  0  0  0  0  0  0  0
  190.5870  176.8590  139.8880 C   0  0  0  0  0  2  0  0  0  0  0  0
  190.2980  177.1610  141.1590 C   0  0  0  0  0  0  0  0  0  0  0  0
  189.3590  178.2180  141.5830 C   0  0  0  0  0  3  0  0  0  0  0  0
  188.9190  178.1160  138.4680 C   0  0  0  0  0  0  0  0  0  0  0  0
  188.3230  178.7090  140.9110 C   0  0  0  0  0  3  0  0  0  0  0  0
  187.9000  178.3180  139.5600 C   0  0  0  0  0  0  0  0  0  0  0  0
  191.0400  176.4470  142.2170 C   0  0  0  0  0  0  0  0  0  0  0  0
  190.5070  175.3050  142.8070 O   0  0  0  0  0  1  0  0  0  0  0  0
  192.1650  176.8650  142.5990 O   0  0  0  0  0  0  0  0  0  0  0  0
  184.3950  179.1130  140.2470 C   0  0  0  0  0  0  0  0  0  0  0  0
  185.6050  178.3580  140.3550 N   0  0  0  0  0  2  0  0  0  0  0  0
  184.2260  179.9310  139.3040 O   0  0  0  0  0  0  0  0  0  0  0  0
  183.3210  178.9290  141.2630 C   0  0  0  0  0  2  0  0  0  0  0  0
  183.7960  179.0920  145.0200 C   0  0  0  0  0  3  0  0  0  0  0  0
  185.2030  178.2240  142.7540 C   0  0  0  0  0  3  0  0  0  0  0  0
  186.9390  177.8890  146.5700 C   0  0  0  0  0  0  0  0  0  0  0  0
  185.6550  178.4330  146.4270 C   0  0  0  0  0  3  0  0  0  0  0  0
  185.0740  178.5470  145.1610 C   0  0  0  0  0  0  0  0  0  0  0  0
  187.0620  177.5680  144.1620 C   0  0  0  0  0  3  0  0  0  0  0  0
  185.7820  178.1090  144.0200 C   0  0  0  0  0  0  0  0  0  0  0  0
  187.6370  177.4570  145.4310 C   0  0  0  0  0  3  0  0  0  0  0  0
  183.9210  178.7680  142.6180 C   0  0  0  0  0  0  0  0  0  0  0  0
  183.2210  179.2050  143.7500 C   0  0  0  0  0  3  0  0  0  0  0  0
  187.5440  177.7730  147.9060 C   0  0  0  0  0  0  0  0  0  0  0  0
  187.4870  178.7340  148.7190 O   0  0  0  0  0  1  0  0  0  0  0  0
  188.1850  176.5990  148.2850 O   0  0  0  0  0  0  0  0  0  0  0  0
  1 14  1  0  0  0  0
  1 19  1  1  0  0  0
  2  9  1  0  0  0  0
  3  6  1  0  0  0  0
  3 12  1  0  0  0  0
  4  5  1  0  0  0  0
  4  7  1  0  0  0  0
  6  7  2  0  0  0  0
  7  1  1  0  0  0  0
  8  6  1  0  0  0  0
  8  4  1  0  0  0  0
  9 10  1  0  0  0  0
 10 11  2  0  0  0  0
 10 15  1  0  0  0  0
 12  2  2  0  0  0  0
 12 14  1  0  0  0  0
 13 11  1  0  0  0  0
 14 13  2  0  0  0  0
 15 17  2  0  0  0  0
 15 16  1  0  0  0  0
 18 19  1  0  0  0  0
 18 21  1  0  0  0  0
 20 18  2  0  0  0  0
 21 30  1  0  0  0  0
 22 26  1  0  0  0  0
 23 28  1  0  0  0  0
 24 32  1  0  0  0  0
 25 24  1  0  0  0  0
 26 25  2  0  0  0  0
 27 29  1  0  0  0  0
 28 27  2  0  0  0  0
 28 26  1  0  0  0  0
 29 24  2  0  0  0  0
 30 23  2  0  0  0  0
 30 31  1  0  0  0  0
 31 22  2  0  0  0  0
 32 34  2  0  0  0  0
 32 33  1  0  0  0  0
M  END
>  <MODEL>
1

>  <REMARK>
 VINA RESULT:     -10.4      0.000      0.000
  Name = 
  5 active torsions:
  status: ('A' for Active; 'I' for Inactive)
    1  A    between atoms: C_1  and  N_9
    2  A    between atoms: C_3  and  C_25
    3  A    between atoms: C_7  and  C_11
    4  A    between atoms: C_8  and  C_18
    5  A    between atoms: C_18  and  C_30
                            x       y       z     vdW  Elec       q    Type
                         _______ _______ _______ _____ _____    ______ ____

>  <TORSDO>
F 5

$$$$
=
 OpenBabel10272415203D

 34 38  0  0  1  0  0  0  0  0999 V2000
  185.6390  177.6490  138.1450 C   0  0  2  0  0  3  0  0  0  0  0  0
  188.9810  177.3410  136.7830 C   0  0  0  0  0  3  0  0  0  0  0  0
  186.9870  178.1630  135.1950 S   0  0  0  0  0  0  0  0  0  0  0  0
  183.9740  176.2490  136.5950 N   0  0  0  0  0  0  0  0  0  0  0  0
  182.9350  175.5650  137.3400 C   0  0  0  0  0  1  0  0  0  0  0  0
  185.5470  177.2340  135.6400 C   0  0  0  0  0  0  0  0  0  0  0  0
  185.0260  177.0890  136.9360 C   0  0  0  0  0  0  0  0  0  0  0  0
  184.4500  176.1960  135.0180 S   0  0  0  0  0  0  0  0  0  0  0  0
  189.8530  176.9720  137.9080 C   0  0  0  0  0  2  0  0  0  0  0  0
  189.7910  177.3530  139.1890 C   0  0  0  0  0  0  0  0  0  0  0  0
  188.8010  178.2980  139.7410 C   0  0  0  0  0  3  0  0  0  0  0  0
  187.7410  177.8230  136.8150 C   0  0  0  0  0  0  0  0  0  0  0  0
  187.5800  178.5630  139.2850 C   0  0  0  0  0  3  0  0  0  0  0  0
  186.9550  177.9820  138.0900 C   0  0  0  0  0  0  0  0  0  0  0  0
  190.8450  176.8640  140.0990 C   0  0  0  0  0  0  0  0  0  0  0  0
  190.5180  176.0870  141.2060 O   0  0  0  0  0  1  0  0  0  0  0  0
  192.0530  177.1480  139.8850 O   0  0  0  0  0  0  0  0  0  0  0  0
  184.1830  178.9300  139.7860 C   0  0  0  0  0  0  0  0  0  0  0  0
  184.9020  177.7650  139.3720 N   0  0  0  0  0  2  0  0  0  0  0  0
  184.3790  180.0420  139.2280 O   0  0  0  0  0  0  0  0  0  0  0  0
  183.1910  178.8250  140.8930 C   0  0  0  0  0  2  0  0  0  0  0  0
  183.9100  178.8410  144.6130 C   0  0  0  0  0  3  0  0  0  0  0  0
  185.2180  178.1960  142.2170 C   0  0  0  0  0  3  0  0  0  0  0  0
  187.2330  177.8100  145.8880 C   0  0  0  0  0  0  0  0  0  0  0  0
  185.9060  178.2590  145.8590 C   0  0  0  0  0  3  0  0  0  0  0  0
  185.2320  178.3900  144.6420 C   0  0  0  0  0  0  0  0  0  0  0  0
  187.2140  177.6180  143.4630 C   0  0  0  0  0  3  0  0  0  0  0  0
  185.8900  178.0650  143.4350 C   0  0  0  0  0  0  0  0  0  0  0  0
  187.8810  177.4900  144.6850 C   0  0  0  0  0  3  0  0  0  0  0  0
  183.8930  178.6450  142.1940 C   0  0  0  0  0  0  0  0  0  0  0  0
  183.2420  178.9710  143.3910 C   0  0  0  0  0  3  0  0  0  0  0  0
  187.9360  177.6760  147.1730 C   0  0  0  0  0  0  0  0  0  0  0  0
  187.5120  178.2720  148.1990 O   0  0  0  0  0  1  0  0  0  0  0  0
  189.0770  176.8870  147.2690 O   0  0  0  0  0  0  0  0  0  0  0  0
  1 19  1  1  0  0  0
  2 12  2  0  0  0  0
  2  9  1  0  0  0  0
  3  6  1  0  0  0  0
  3 12  1  0  0  0  0
  4  7  1  0  0  0  0
  4  5  1  0  0  0  0
  6  7  2  0  0  0  0
  7  1  1  0  0  0  0
  8  6  1  0  0  0  0
  8  4  1  0  0  0  0
  9 10  1  0  0  0  0
 10 11  2  0  0  0  0
 10 15  1  0  0  0  0
 12 14  1  0  0  0  0
 13 11  1  0  0  0  0
 14  1  1  0  0  0  0
 14 13  2  0  0  0  0
 15 16  1  0  0  0  0
 17 15  2  0  0  0  0
 18 21  1  0  0  0  0
 19 18  1  0  0  0  0
 20 18  2  0  0  0  0
 21 30  1  0  0  0  0
 22 26  1  0  0  0  0
 23 28  1  0  0  0  0
 24 32  1  0  0  0  0
 25 24  1  0  0  0  0
 26 25  2  0  0  0  0
 27 29  1  0  0  0  0
 28 27  2  0  0  0  0
 28 26  1  0  0  0  0
 29 24  2  0  0  0  0
 30 23  2  0  0  0  0
 30 31  1  0  0  0  0
 31 22  2  0  0  0  0
 32 34  2  0  0  0  0
 32 33  1  0  0  0  0
M  END
>  <MODEL>
2

>  <REMARK>
 VINA RESULT:     -10.1      1.168      1.489
  Name = 
  5 active torsions:
  status: ('A' for Active; 'I' for Inactive)
    1  A    between atoms: C_1  and  N_9
    2  A    between atoms: C_3  and  C_25
    3  A    between atoms: C_7  and  C_11
    4  A    between atoms: C_8  and  C_18
    5  A    between atoms: C_18  and  C_30
                            x       y       z     vdW  Elec       q    Type
                         _______ _______ _______ _____ _____    ______ ____

>  <TORSDO>
F 5

$$$$
=
 OpenBabel10272415203D

 34 38  0  0  1  0  0  0  0  0999 V2000
  183.4540  178.7780  141.5390 C   0  0  2  0  0  3  0  0  0  0  0  0
  184.8350  178.8900  138.1930 C   0  0  0  0  0  3  0  0  0  0  0  0
  182.6620  180.3480  138.7650 S   0  0  0  0  0  0  0  0  0  0  0  0
  180.8610  178.1640  141.3510 N   0  0  0  0  0  0  0  0  0  0  0  0
  180.4020  177.2860  142.4100 C   0  0  0  0  0  1  0  0  0  0  0  0
  181.6530  179.3780  139.8500 C   0  0  0  0  0  0  0  0  0  0  0  0
  182.0760  178.7600  141.0380 C   0  0  0  0  0  0  0  0  0  0  0  0
  180.1660  178.7110  139.9610 S   0  0  0  0  0  0  0  0  0  0  0  0
  186.0590  178.0760  138.2230 C   0  0  0  0  0  3  0  0  0  0  0  0
  186.9540  177.9290  139.2070 C   0  0  0  0  0  0  0  0  0  0  0  0
  186.9010  178.6230  140.5080 C   0  0  0  0  0  3  0  0  0  0  0  0
  184.1310  179.3720  139.2140 C   0  0  1  0  0  3  0  0  0  0  0  0
  185.8300  179.0940  141.1400 C   0  0  0  0  0  3  0  0  0  0  0  0
  184.4450  179.0520  140.6520 C   0  0  0  0  0  0  0  0  0  0  0  0
  188.1320  177.0820  138.9370 C   0  0  0  0  0  0  0  0  0  0  0  0
  189.1880  177.0300  139.8420 O   0  0  0  0  0  1  0  0  0  0  0  0
  188.1970  176.3960  137.8830 O   0  0  0  0  0  0  0  0  0  0  0  0
  183.7170  179.3490  144.0000 C   0  0  0  0  0  0  0  0  0  0  0  0
  183.7590  178.4360  142.9000 N   0  0  0  0  0  2  0  0  0  0  0  0
  183.6800  180.5930  143.8070 O   0  0  0  0  0  0  0  0  0  0  0  0
  183.7200  178.8190  145.3930 C   0  0  0  0  0  2  0  0  0  0  0  0
  186.7930  178.1250  147.4990 C   0  0  0  0  0  3  0  0  0  0  0  0
  186.0210  178.0340  144.8040 C   0  0  0  0  0  3  0  0  0  0  0  0
  189.9500  177.0160  145.9070 C   0  0  0  0  0  0  0  0  0  0  0  0
  189.0220  177.4000  146.8850 C   0  0  0  0  0  3  0  0  0  0  0  0
  187.7150  177.7390  146.5240 C   0  0  0  0  0  0  0  0  0  0  0  0
  188.2510  177.3120  144.1910 C   0  0  0  0  0  3  0  0  0  0  0  0
  187.3260  177.6930  145.1660 C   0  0  0  0  0  0  0  0  0  0  0  0
  189.5560  176.9740  144.5600 C   0  0  0  0  0  3  0  0  0  0  0  0
  185.0990  178.4160  145.7860 C   0  0  0  0  0  0  0  0  0  0  0  0
  185.4870  178.4650  147.1300 C   0  0  0  0  0  3  0  0  0  0  0  0
  191.3240  176.6610  146.2950 C   0  0  0  0  0  0  0  0  0  0  0  0
  192.0300  175.9330  145.5470 O   0  0  0  0  0  0  0  0  0  0  0  0
  191.8570  177.1280  147.4910 O   0  0  0  0  0  1  0  0  0  0  0  0
  1 19  1  6  0  0  0
  2  9  2  0  0  0  0
  3 12  1  0  0  0  0
  3  6  1  0  0  0  0
  4  5  1  0  0  0  0
  6  8  1  0  0  0  0
  6  7  2  0  0  0  0
  7  4  1  0  0  0  0
  7  1  1  0  0  0  0
  8  4  1  0  0  0  0
  9 10  1  0  0  0  0
 10 11  2  0  0  0  0
 11 13  1  0  0  0  0
 12  2  1  6  0  0  0
 12 14  1  0  0  0  0
 14 13  2  0  0  0  0
 14  1  1  0  0  0  0
 15 10  1  0  0  0  0
 15 16  1  0  0  0  0
 17 15  2  0  0  0  0
 18 21  1  0  0  0  0
 19 18  1  0  0  0  0
 20 18  2  0  0  0  0
 21 30  1  0  0  0  0
 23 28  2  0  0  0  0
 23 30  1  0  0  0  0
 24 32  1  0  0  0  0
 24 25  2  0  0  0  0
 26 25  1  0  0  0  0
 26 22  2  0  0  0  0
 27 29  2  0  0  0  0
 27 28  1  0  0  0  0
 28 26  1  0  0  0  0
 29 24  1  0  0  0  0
 30 31  2  0  0  0  0
 31 22  1  0  0  0  0
 32 34  1  0  0  0  0
 33 32  2  0  0  0  0
M  END
>  <MODEL>
3

>  <REMARK>
 VINA RESULT:      -9.9      2.807      4.421
  Name = 
  5 active torsions:
  status: ('A' for Active; 'I' for Inactive)
    1  A    between atoms: C_1  and  N_9
    2  A    between atoms: C_3  and  C_25
    3  A    between atoms: C_7  and  C_11
    4  A    between atoms: C_8  and  C_18
    5  A    between atoms: C_18  and  C_30
                            x       y       z     vdW  Elec       q    Type
                         _______ _______ _______ _____ _____    ______ ____

>  <TORSDO>
F 5

$$$$
=
 OpenBabel10272415203D

 34 38  0  0  1  0  0  0  0  0999 V2000
  185.7280  178.7970  140.5630 C   0  0  2  0  0  3  0  0  0  0  0  0
  188.4400  177.1920  138.7760 C   0  0  0  0  0  3  0  0  0  0  0  0
  186.5100  178.4330  137.3930 S   0  0  0  0  0  0  0  0  0  0  0  0
  183.4220  177.8620  139.5920 N   0  0  0  0  0  0  0  0  0  0  0  0
  182.4050  177.6760  140.6100 C   0  0  0  0  0  1  0  0  0  0  0  0
  184.9820  178.1180  138.2310 C   0  0  0  0  0  0  0  0  0  0  0  0
  184.7290  178.3280  139.5960 C   0  0  0  0  0  0  0  0  0  0  0  0
  183.5110  177.4460  138.0010 S   0  0  0  0  0  0  0  0  0  0  0  0
  189.3720  176.6970  139.7990 C   0  0  0  0  0  2  0  0  0  0  0  0
  189.7040  177.2380  140.9760 C   0  0  0  0  0  0  0  0  0  0  0  0
  189.1980  178.5280  141.4850 C   0  0  0  0  0  3  0  0  0  0  0  0
  187.4480  178.0690  138.9100 C   0  0  0  0  0  0  0  0  0  0  0  0
  188.0520  179.1320  141.1850 C   0  0  0  0  0  3  0  0  0  0  0  0
  187.0390  178.6510  140.2380 C   0  0  0  0  0  0  0  0  0  0  0  0
  190.7230  176.5420  141.7860 C   0  0  0  0  0  0  0  0  0  0  0  0
  191.9700  177.1190  142.0020 O   0  0  0  0  0  0  0  0  0  0  0  0
  190.4750  175.4140  142.2890 O   0  0  0  0  0  1  0  0  0  0  0  0
  185.0020  178.5160  142.9800 C   0  0  0  0  0  0  0  0  0  0  0  0
  185.3410  179.3150  141.8440 N   0  0  0  0  0  2  0  0  0  0  0  0
  184.7480  177.2880  142.8540 O   0  0  0  0  0  0  0  0  0  0  0  0
  184.9490  179.1440  144.3300 C   0  0  0  0  0  2  0  0  0  0  0  0
  186.9740  178.1410  147.3720 C   0  0  0  0  0  3  0  0  0  0  0  0
  187.2730  178.2550  144.5850 C   0  0  0  0  0  3  0  0  0  0  0  0
  190.4580  176.9360  146.9940 C   0  0  0  0  0  0  0  0  0  0  0  0
  189.2440  177.3180  147.5810 C   0  0  0  0  0  3  0  0  0  0  0  0
  188.1830  177.7570  146.7850 C   0  0  0  0  0  0  0  0  0  0  0  0
  189.5430  177.4350  144.7960 C   0  0  0  0  0  3  0  0  0  0  0  0
  188.3330  177.8140  145.3820 C   0  0  0  0  0  0  0  0  0  0  0  0
  190.6000  176.9970  145.5990 C   0  0  0  0  0  3  0  0  0  0  0  0
  186.0630  178.6350  145.1780 C   0  0  0  0  0  0  0  0  0  0  0  0
  185.9170  178.5820  146.5690 C   0  0  0  0  0  3  0  0  0  0  0  0
  191.5710  176.4750  147.8380 C   0  0  0  0  0  0  0  0  0  0  0  0
  192.1990  177.2890  148.5680 O   0  0  0  0  0  1  0  0  0  0  0  0
  191.9410  175.1350  147.8410 O   0  0  0  0  0  0  0  0  0  0  0  0
  1 19  1  1  0  0  0
  2 12  2  0  0  0  0
  2  9  1  0  0  0  0
  3  6  1  0  0  0  0
  3 12  1  0  0  0  0
  4  7  1  0  0  0  0
  4  5  1  0  0  0  0
  6  7  2  0  0  0  0
  7  1  1  0  0  0  0
  8  6  1  0  0  0  0
  8  4  1  0  0  0  0
  9 10  1  0  0  0  0
 10 11  2  0  0  0  0
 10 15  1  0  0  0  0
 12 14  1  0  0  0  0
 13 11  1  0  0  0  0
 14  1  1  0  0  0  0
 14 13  2  0  0  0  0
 15 16  2  0  0  0  0
 15 17  1  0  0  0  0
 18 21  1  0  0  0  0
 19 18  1  0  0  0  0
 20 18  2  0  0  0  0
 21 30  1  0  0  0  0
 23 30  2  0  0  0  0
 23 28  1  0  0  0  0
 24 25  1  0  0  0  0
 24 32  1  0  0  0  0
 26 22  1  0  0  0  0
 26 25  2  0  0  0  0
 27 28  2  0  0  0  0
 27 29  1  0  0  0  0
 28 26  1  0  0  0  0
 29 24  2  0  0  0  0
 30 31  1  0  0  0  0
 31 22  2  0  0  0  0
 32 34  2  0  0  0  0
 32 33  1  0  0  0  0
M  END
>  <MODEL>
4

>  <REMARK>
 VINA RESULT:      -9.8      2.034      2.909
  Name = 
  5 active torsions:
  status: ('A' for Active; 'I' for Inactive)
    1  A    between atoms: C_1  and  N_9
    2  A    between atoms: C_3  and  C_25
    3  A    between atoms: C_7  and  C_11
    4  A    between atoms: C_8  and  C_18
    5  A    between atoms: C_18  and  C_30
                            x       y       z     vdW  Elec       q    Type
                         _______ _______ _______ _____ _____    ______ ____

>  <TORSDO>
F 5

$$$$
=
 OpenBabel10272415203D

 34 38  0  0  1  0  0  0  0  0999 V2000
  185.0060  177.4390  137.8690 C   0  0  2  0  0  3  0  0  0  0  0  0
  187.7440  176.5630  135.6660 C   0  0  0  0  0  3  0  0  0  0  0  0
  185.5190  177.6350  134.6310 S   0  0  0  0  0  0  0  0  0  0  0  0
  182.7890  176.2680  136.9490 N   0  0  0  0  0  0  0  0  0  0  0  0
  181.9180  175.7810  138.0030 C   0  0  0  0  0  1  0  0  0  0  0  0
  184.1480  176.9600  135.5260 C   0  0  0  0  0  0  0  0  0  0  0  0
  184.0020  176.9420  136.9220 C   0  0  0  0  0  0  0  0  0  0  0  0
  182.7840  176.0880  135.3120 S   0  0  0  0  0  0  0  0  0  0  0  0
  188.8390  176.0990  136.5320 C   0  0  0  0  0  2  0  0  0  0  0  0
  189.1970  176.5280  137.7470 C   0  0  0  0  0  0  0  0  0  0  0  0
  188.5500  177.6350  138.4770 C   0  0  0  0  0  3  0  0  0  0  0  0
  186.6460  177.2360  136.0020 C   0  0  0  0  0  0  0  0  0  0  0  0
  187.3000  178.0730  138.3560 C   0  0  0  0  0  3  0  0  0  0  0  0
  186.2850  177.5590  137.4280 C   0  0  0  0  0  0  0  0  0  0  0  0
  190.3860  175.9100  138.3660 C   0  0  0  0  0  0  0  0  0  0  0  0
  190.7700  174.6170  138.0240 O   0  0  0  0  0  0  0  0  0  0  0  0
  191.0670  176.5460  139.2130 O   0  0  0  0  0  1  0  0  0  0  0  0
  184.3170  178.9970  139.7530 C   0  0  0  0  0  0  0  0  0  0  0  0
  184.6720  177.7110  139.2390 N   0  0  0  0  0  2  0  0  0  0  0  0
  184.5450  180.0440  139.0900 O   0  0  0  0  0  0  0  0  0  0  0  0
  183.6690  179.0990  141.0910 C   0  0  0  0  0  2  0  0  0  0  0  0
  186.8130  177.8840  142.8240 C   0  0  0  0  0  3  0  0  0  0  0  0
  184.2910  178.9030  143.5070 C   0  0  0  0  0  3  0  0  0  0  0  0
  187.0130  177.8160  146.5230 C   0  0  0  0  0  0  0  0  0  0  0  0
  187.3640  177.6720  145.1740 C   0  0  0  0  0  3  0  0  0  0  0  0
  186.4630  178.0320  144.1680 C   0  0  0  0  0  0  0  0  0  0  0  0
  184.8410  178.6880  145.8560 C   0  0  0  0  0  3  0  0  0  0  0  0
  185.1930  178.5450  144.5120 C   0  0  0  0  0  0  0  0  0  0  0  0
  185.7480  178.3260  146.8570 C   0  0  0  0  0  3  0  0  0  0  0  0
  184.6480  178.7570  142.1610 C   0  0  0  0  0  0  0  0  0  0  0  0
  185.9060  178.2440  141.8220 C   0  0  0  0  0  3  0  0  0  0  0  0
  187.9660  177.4360  147.5770 C   0  0  0  0  0  0  0  0  0  0  0  0
  187.7510  177.7520  148.7770 O   0  0  0  0  0  1  0  0  0  0  0  0
  189.1140  176.7200  147.2580 O   0  0  0  0  0  0  0  0  0  0  0  0
  1 19  1  1  0  0  0
  2 12  2  0  0  0  0
  2  9  1  0  0  0  0
  3  6  1  0  0  0  0
  3 12  1  0  0  0  0
  4  5  1  0  0  0  0
  6  7  2  0  0  0  0
  7  4  1  0  0  0  0
  7  1  1  0  0  0  0
  8  6  1  0  0  0  0
  8  4  1  0  0  0  0
  9 10  1  0  0  0  0
 10 15  1  0  0  0  0
 10 11  2  0  0  0  0
 12 14  1  0  0  0  0
 13 11  1  0  0  0  0
 14  1  1  0  0  0  0
 14 13  2  0  0  0  0
 15 17  1  0  0  0  0
 16 15  2  0  0  0  0
 18 21  1  0  0  0  0
 19 18  1  0  0  0  0
 20 18  2  0  0  0  0
 21 30  1  0  0  0  0
 22 26  1  0  0  0  0
 23 28  1  0  0  0  0
 24 29  1  0  0  0  0
 24 32  1  0  0  0  0
 25 24  2  0  0  0  0
 26 28  2  0  0  0  0
 26 25  1  0  0  0  0
 27 29  2  0  0  0  0
 28 27  1  0  0  0  0
 30 23  2  0  0  0  0
 31 30  1  0  0  0  0
 31 22  2  0  0  0  0
 32 33  1  0  0  0  0
 34 32  2  0  0  0  0
M  END
>  <MODEL>
5

>  <REMARK>
 VINA RESULT:      -9.6      1.824      2.731
  Name = 
  5 active torsions:
  status: ('A' for Active; 'I' for Inactive)
    1  A    between atoms: C_1  and  N_9
    2  A    between atoms: C_3  and  C_25
    3  A    between atoms: C_7  and  C_11
    4  A    between atoms: C_8  and  C_18
    5  A    between atoms: C_18  and  C_30
                            x       y       z     vdW  Elec       q    Type
                         _______ _______ _______ _____ _____    ______ ____

>  <TORSDO>
F 5

$$$$
=
 OpenBabel10272415203D

 34 38  0  0  1  0  0  0  0  0999 V2000
  183.8710  177.0700  137.5310 C   0  0  2  0  0  3  0  0  0  0  0  0
  186.8930  175.4680  136.3400 C   0  0  0  0  0  3  0  0  0  0  0  0
  184.6970  175.4320  134.8060 S   0  0  0  0  0  0  0  0  0  0  0  0
  181.8800  175.2950  137.4020 N   0  0  0  0  0  0  0  0  0  0  0  0
  180.9540  175.3910  138.5150 C   0  0  0  0  0  1  0  0  0  0  0  0
  183.3100  175.2170  135.8850 C   0  0  0  0  0  0  0  0  0  0  0  0
  183.0210  175.9880  137.0230 C   0  0  0  0  0  0  0  0  0  0  0  0
  182.0620  174.2050  136.1800 S   0  0  0  0  0  0  0  0  0  0  0  0
  187.9300  175.7410  137.3460 C   0  0  0  0  0  2  0  0  0  0  0  0
  188.1190  176.8360  138.0910 C   0  0  0  0  0  0  0  0  0  0  0  0
  187.2990  178.0610  138.0160 C   0  0  0  0  0  3  0  0  0  0  0  0
  185.7090  176.0540  136.1860 C   0  0  0  0  0  0  0  0  0  0  0  0
  186.0330  178.1740  137.6240 C   0  0  0  0  0  3  0  0  0  0  0  0
  185.1720  177.0870  137.1420 C   0  0  0  0  0  0  0  0  0  0  0  0
  189.2890  176.8570  138.9900 C   0  0  0  0  0  0  0  0  0  0  0  0
  190.2490  175.8520  138.9240 O   0  0  0  0  0  0  0  0  0  0  0  0
  189.4320  177.7850  139.8300 O   0  0  0  0  0  1  0  0  0  0  0  0
  183.1910  177.7910  139.8690 C   0  0  0  0  0  0  0  0  0  0  0  0
  183.3720  178.0330  138.4720 N   0  0  0  0  0  2  0  0  0  0  0  0
  183.1950  176.6170  140.3280 O   0  0  0  0  0  0  0  0  0  0  0  0
  182.9950  178.9420  140.7950 C   0  0  0  0  0  2  0  0  0  0  0  0
  183.7740  178.7290  144.4970 C   0  0  0  0  0  3  0  0  0  0  0  0
  185.0710  178.3170  142.0440 C   0  0  0  0  0  3  0  0  0  0  0  0
  187.1610  177.7670  145.6520 C   0  0  0  0  0  0  0  0  0  0  0  0
  185.8140  178.1550  145.6720 C   0  0  0  0  0  3  0  0  0  0  0  0
  185.1150  178.3390  144.4760 C   0  0  0  0  0  0  0  0  0  0  0  0
  187.1110  177.7460  143.2200 C   0  0  0  0  0  3  0  0  0  0  0  0
  185.7680  178.1310  143.2410 C   0  0  0  0  0  0  0  0  0  0  0  0
  187.8030  177.5640  144.4210 C   0  0  0  0  0  3  0  0  0  0  0  0
  183.7260  178.7040  142.0710 C   0  0  0  0  0  0  0  0  0  0  0  0
  183.0810  178.9140  143.2960 C   0  0  0  0  0  3  0  0  0  0  0  0
  187.8910  177.5760  146.9150 C   0  0  0  0  0  0  0  0  0  0  0  0
  187.4210  178.0190  147.9970 O   0  0  0  0  0  1  0  0  0  0  0  0
  189.1060  176.9020  146.9270 O   0  0  0  0  0  0  0  0  0  0  0  0
  1 19  1  1  0  0  0
  2  9  1  0  0  0  0
  3  6  1  0  0  0  0
  3 12  1  0  0  0  0
  4  5  1  0  0  0  0
  6  8  1  0  0  0  0
  6  7  2  0  0  0  0
  7  4  1  0  0  0  0
  7  1  1  0  0  0  0
  8  4  1  0  0  0  0
  9 10  1  0  0  0  0
 10 15  1  0  0  0  0
 11 10  2  0  0  0  0
 12  2  2  0  0  0  0
 12 14  1  0  0  0  0
 13 11  1  0  0  0  0
 14  1  1  0  0  0  0
 14 13  2  0  0  0  0
 15 17  1  0  0  0  0
 16 15  2  0  0  0  0
 18 20  2  0  0  0  0
 18 21  1  0  0  0  0
 19 18  1  0  0  0  0
 21 30  1  0  0  0  0
 23 30  2  0  0  0  0
 23 28  1  0  0  0  0
 24 25  1  0  0  0  0
 24 32  1  0  0  0  0
 26 22  1  0  0  0  0
 26 25  2  0  0  0  0
 27 28  2  0  0  0  0
 27 29  1  0  0  0  0
 28 26  1  0  0  0  0
 29 24  2  0  0  0  0
 30 31  1  0  0  0  0
 31 22  2  0  0  0  0
 32 34  2  0  0  0  0
 32 33  1  0  0  0  0
M  END
>  <MODEL>
6

>  <REMARK>
 VINA RESULT:      -9.3      2.128      3.085
  Name = 
  5 active torsions:
  status: ('A' for Active; 'I' for Inactive)
    1  A    between atoms: C_1  and  N_9
    2  A    between atoms: C_3  and  C_25
    3  A    between atoms: C_7  and  C_11
    4  A    between atoms: C_8  and  C_18
    5  A    between atoms: C_18  and  C_30
                            x       y       z     vdW  Elec       q    Type
                         _______ _______ _______ _____ _____    ______ ____

>  <TORSDO>
F 5

$$$$
=
 OpenBabel10272415203D

 34 38  0  0  1  0  0  0  0  0999 V2000
  187.4640  177.6560  136.9630 C   0  0  2  0  0  3  0  0  0  0  0  0
  190.6050  176.1320  137.9280 C   0  0  0  0  0  3  0  0  0  0  0  0
  190.0370  176.4330  135.3280 S   0  0  0  0  0  0  0  0  0  0  0  0
  186.2270  176.0090  135.2620 N   0  0  0  0  0  0  0  0  0  0  0  0
  184.7890  175.9690  135.4470 C   0  0  0  0  0  1  0  0  0  0  0  0
  188.3070  176.1110  135.1310 C   0  0  0  0  0  0  0  0  0  0  0  0
  187.2670  176.7040  135.8650 C   0  0  0  0  0  0  0  0  0  0  0  0
  187.2700  175.1190  134.3490 S   0  0  0  0  0  0  0  0  0  0  0  0
  190.6640  176.1990  139.3960 C   0  0  0  0  0  2  0  0  0  0  0  0
  190.2150  177.1540  140.2190 C   0  0  0  0  0  0  0  0  0  0  0  0
  189.5720  178.4090  139.7840 C   0  0  0  0  0  3  0  0  0  0  0  0
  189.7970  176.7860  137.0970 C   0  0  0  0  0  0  0  0  0  0  0  0
  188.9010  178.6370  138.6590 C   0  0  0  0  0  3  0  0  0  0  0  0
  188.6790  177.6770  137.5700 C   0  0  0  0  0  0  0  0  0  0  0  0
  190.4630  176.9830  141.6630 C   0  0  0  0  0  0  0  0  0  0  0  0
  190.0670  175.8190  142.3150 O   0  0  0  0  0  0  0  0  0  0  0  0
  191.0330  177.8900  142.3240 O   0  0  0  0  0  1  0  0  0  0  0  0
  185.2560  178.0000  138.1690 C   0  0  0  0  0  0  0  0  0  0  0  0
  186.3890  178.4780  137.4410 N   0  0  0  0  0  2  0  0  0  0  0  0
  184.9810  176.7710  138.2030 O   0  0  0  0  0  0  0  0  0  0  0  0
  184.3890  178.9690  138.8980 C   0  0  0  0  0  2  0  0  0  0  0  0
  183.5940  178.8130  142.6000 C   0  0  0  0  0  3  0  0  0  0  0  0
  185.8140  178.5340  140.9080 C   0  0  0  0  0  3  0  0  0  0  0  0
  186.2780  178.1650  145.0720 C   0  0  0  0  0  0  0  0  0  0  0  0
  185.0140  178.4260  144.5250 C   0  0  0  0  0  3  0  0  0  0  0  0
  184.8540  178.5500  143.1430 C   0  0  0  0  0  0  0  0  0  0  0  0
  187.2330  178.1490  142.8330 C   0  0  0  0  0  3  0  0  0  0  0  0
  185.9720  178.4080  142.2900 C   0  0  0  0  0  0  0  0  0  0  0  0
  187.3840  178.0270  144.2180 C   0  0  0  0  0  3  0  0  0  0  0  0
  184.5490  178.7940  140.3690 C   0  0  0  0  0  0  0  0  0  0  0  0
  183.4420  178.9380  141.2150 C   0  0  0  0  0  3  0  0  0  0  0  0
  186.4390  178.0370  146.5280 C   0  0  0  0  0  0  0  0  0  0  0  0
  187.4500  177.4610  147.0110 O   0  0  0  0  0  0  0  0  0  0  0  0
  185.4750  178.5520  147.3880 O   0  0  0  0  0  1  0  0  0  0  0  0
  1 19  1  1  0  0  0
  1 14  1  0  0  0  0
  2  9  1  0  0  0  0
  3 12  1  0  0  0  0
  4  5  1  0  0  0  0
  4  7  1  0  0  0  0
  6  3  1  0  0  0  0
  6  7  2  0  0  0  0
  7  1  1  0  0  0  0
  8  6  1  0  0  0  0
  8  4  1  0  0  0  0
  9 10  1  0  0  0  0
 10 15  1  0  0  0  0
 11 10  2  0  0  0  0
 12 14  1  0  0  0  0
 12  2  2  0  0  0  0
 13 11  1  0  0  0  0
 14 13  2  0  0  0  0
 15 16  2  0  0  0  0
 15 17  1  0  0  0  0
 18 20  2  0  0  0  0
 18 21  1  0  0  0  0
 19 18  1  0  0  0  0
 21 30  1  0  0  0  0
 22 26  1  0  0  0  0
 23 28  1  0  0  0  0
 24 32  1  0  0  0  0
 25 24  1  0  0  0  0
 26 25  2  0  0  0  0
 27 29  1  0  0  0  0
 28 27  2  0  0  0  0
 28 26  1  0  0  0  0
 29 24  2  0  0  0  0
 30 23  2  0  0  0  0
 30 31  1  0  0  0  0
 31 22  2  0  0  0  0
 32 33  2  0  0  0  0
 32 34  1  0  0  0  0
M  END
>  <MODEL>
7

>  <REMARK>
 VINA RESULT:      -9.1      1.635      2.251
  Name = 
  5 active torsions:
  status: ('A' for Active; 'I' for Inactive)
    1  A    between atoms: C_1  and  N_9
    2  A    between atoms: C_3  and  C_25
    3  A    between atoms: C_7  and  C_11
    4  A    between atoms: C_8  and  C_18
    5  A    between atoms: C_18  and  C_30
                            x       y       z     vdW  Elec       q    Type
                         _______ _______ _______ _____ _____    ______ ____

>  <TORSDO>
F 5

$$$$
=
 OpenBabel10272415203D

 34 38  0  0  1  0  0  0  0  0999 V2000
  189.4740  176.9290  139.2340 C   0  0  2  0  0  3  0  0  0  0  0  0
  191.4990  176.9700  142.2370 C   0  0  0  0  0  3  0  0  0  0  0  0
  192.6670  177.3760  139.8610 S   0  0  0  0  0  0  0  0  0  0  0  0
  190.5580  175.1900  137.5210 N   0  0  0  0  0  0  0  0  0  0  0  0
  189.5730  174.4340  136.7720 C   0  0  0  0  0  1  0  0  0  0  0  0
  191.8760  176.2980  138.6990 C   0  0  0  0  0  0  0  0  0  0  0  0
  190.4930  176.1910  138.4810 C   0  0  0  0  0  0  0  0  0  0  0  0
  192.1950  175.0720  137.6690 S   0  0  0  0  0  0  0  0  0  0  0  0
  190.5680  176.8200  143.3650 C   0  0  0  0  0  2  0  0  0  0  0  0
  189.3250  177.2940  143.5070 C   0  0  0  0  0  0  0  0  0  0  0  0
  188.6250  178.1370  142.5190 C   0  0  0  0  0  3  0  0  0  0  0  0
  191.2280  177.2790  140.9710 C   0  0  0  0  0  0  0  0  0  0  0  0
  188.8230  178.1920  141.2050 C   0  0  0  0  0  3  0  0  0  0  0  0
  189.8250  177.4340  140.4450 C   0  0  0  0  0  0  0  0  0  0  0  0
  188.6360  177.0320  144.7860 C   0  0  0  0  0  0  0  0  0  0  0  0
  189.3610  176.9130  145.9680 O   0  0  0  0  0  1  0  0  0  0  0  0
  187.3830  176.9120  144.8220 O   0  0  0  0  0  0  0  0  0  0  0  0
  187.6540  178.0800  137.8880 C   0  0  0  0  0  0  0  0  0  0  0  0
  188.1260  177.0440  138.7530 N   0  0  0  0  0  2  0  0  0  0  0  0
  188.3260  179.1310  137.7110 O   0  0  0  0  0  0  0  0  0  0  0  0
  186.3480  177.9150  137.1890 C   0  0  0  0  0  2  0  0  0  0  0  0
  182.8460  178.2940  138.5860 C   0  0  0  0  0  3  0  0  0  0  0  0
  185.4960  178.3340  139.5040 C   0  0  0  0  0  3  0  0  0  0  0  0
  182.3250  178.9760  142.1910 C   0  0  0  0  0  0  0  0  0  0  0  0
  182.0600  178.7400  140.8350 C   0  0  0  0  0  3  0  0  0  0  0  0
  183.1100  178.5260  139.9380 C   0  0  0  0  0  0  0  0  0  0  0  0
  184.7100  178.7820  141.7520 C   0  0  0  0  0  3  0  0  0  0  0  0
  184.4450  178.5450  140.4000 C   0  0  0  0  0  0  0  0  0  0  0  0
  183.6540  178.9950  142.6430 C   0  0  0  0  0  3  0  0  0  0  0  0
  185.2250  178.0980  138.1510 C   0  0  0  0  0  0  0  0  0  0  0  0
  183.9010  178.0840  137.6940 C   0  0  0  0  0  3  0  0  0  0  0  0
  181.2140  179.2000  143.1290 C   0  0  0  0  0  0  0  0  0  0  0  0
  181.0240  178.4130  144.0950 O   0  0  0  0  0  1  0  0  0  0  0  0
  180.3630  180.2870  142.9610 O   0  0  0  0  0  0  0  0  0  0  0  0
  1 19  1  1  0  0  0
  1 14  1  0  0  0  0
  2  9  1  0  0  0  0
  3 12  1  0  0  0  0
  4  8  1  0  0  0  0
  4  7  1  0  0  0  0
  5  4  1  0  0  0  0
  6  3  1  0  0  0  0
  7  6  2  0  0  0  0
  7  1  1  0  0  0  0
  8  6  1  0  0  0  0
  9 10  1  0  0  0  0
 10 15  1  0  0  0  0
 11 10  2  0  0  0  0
 12  2  2  0  0  0  0
 13 11  1  0  0  0  0
 14 12  1  0  0  0  0
 14 13  2  0  0  0  0
 15 17  2  0  0  0  0
 15 16  1  0  0  0  0
 18 19  1  0  0  0  0
 20 18  2  0  0  0  0
 21 18  1  0  0  0  0
 21 30  1  0  0  0  0
 22 26  1  0  0  0  0
 23 28  1  0  0  0  0
 24 29  1  0  0  0  0
 24 32  1  0  0  0  0
 25 24  2  0  0  0  0
 26 28  2  0  0  0  0
 26 25  1  0  0  0  0
 27 29  2  0  0  0  0
 28 27  1  0  0  0  0
 30 23  2  0  0  0  0
 31 30  1  0  0  0  0
 31 22  2  0  0  0  0
 32 33  1  0  0  0  0
 34 32  2  0  0  0  0
M  END
>  <MODEL>
8

>  <REMARK>
 VINA RESULT:      -8.9      2.744      5.169
  Name = 
  5 active torsions:
  status: ('A' for Active; 'I' for Inactive)
    1  A    between atoms: C_1  and  N_9
    2  A    between atoms: C_3  and  C_25
    3  A    between atoms: C_7  and  C_11
    4  A    between atoms: C_8  and  C_18
    5  A    between atoms: C_18  and  C_30
                            x       y       z     vdW  Elec       q    Type
                         _______ _______ _______ _____ _____    ______ ____

>  <TORSDO>
F 5

$$$$
=
 OpenBabel10272415203D

 34 38  0  0  1  0  0  0  0  0999 V2000
  184.3100  178.8670  141.2830 C   0  0  2  0  0  3  0  0  0  0  0  0
  181.8370  176.8700  139.5460 C   0  0  0  0  0  3  0  0  0  0  0  0
  181.0310  178.8920  141.1060 S   0  0  0  0  0  0  0  0  0  0  0  0
  183.6790  178.9040  143.8780 N   0  0  0  0  0  0  0  0  0  0  0  0
  184.8370  178.8540  144.7500 C   0  0  0  0  0  1  0  0  0  0  0  0
  182.0930  178.9160  142.5230 C   0  0  0  0  0  0  0  0  0  0  0  0
  183.4970  178.9290  142.5020 C   0  0  0  0  0  0  0  0  0  0  0  0
  182.0580  178.7950  144.1510 S   0  0  0  0  0  0  0  0  0  0  0  0
  182.5860  175.9210  138.7090 C   0  0  0  0  0  3  0  0  0  0  0  0
  183.7410  176.0950  138.0570 C   0  0  0  0  0  0  0  0  0  0  0  0
  184.5080  177.3550  138.0210 C   0  0  0  0  0  3  0  0  0  0  0  0
  182.2760  177.9700  140.1530 C   0  0  1  0  0  3  0  0  0  0  0  0
  184.5180  178.3330  138.9220 C   0  0  0  0  0  3  0  0  0  0  0  0
  183.7250  178.3840  140.1570 C   0  0  0  0  0  0  0  0  0  0  0  0
  184.2390  174.9730  137.2370 C   0  0  0  0  0  0  0  0  0  0  0  0
  184.3120  175.0880  135.8530 O   0  0  0  0  0  0  0  0  0  0  0  0
  184.6010  173.8970  137.7820 O   0  0  0  0  0  1  0  0  0  0  0  0
  186.7590  178.3730  141.7390 C   0  0  0  0  0  0  0  0  0  0  0  0
  185.7010  179.2250  141.2940 N   0  0  0  0  0  2  0  0  0  0  0  0
  186.5160  177.3420  142.4210 O   0  0  0  0  0  0  0  0  0  0  0  0
  188.1690  178.7120  141.3940 C   0  0  0  0  0  2  0  0  0  0  0  0
  191.1780  177.1140  143.0520 C   0  0  0  0  0  3  0  0  0  0  0  0
  188.7060  178.2170  143.7870 C   0  0  0  0  0  3  0  0  0  0  0  0
  191.2650  176.6360  146.7260 C   0  0  0  0  0  0  0  0  0  0  0  0
  191.6460  176.6140  145.3770 C   0  0  0  0  0  3  0  0  0  0  0  0
  190.7990  177.1380  144.3960 C   0  0  0  0  0  0  0  0  0  0  0  0
  189.1730  177.7150  146.1100 C   0  0  0  0  0  3  0  0  0  0  0  0
  189.5540  177.6940  144.7660 C   0  0  0  0  0  0  0  0  0  0  0  0
  190.0260  177.1880  147.0850 C   0  0  0  0  0  3  0  0  0  0  0  0
  189.0920  178.1930  142.4420 C   0  0  0  0  0  0  0  0  0  0  0  0
  190.3250  177.6380  142.0760 C   0  0  0  0  0  3  0  0  0  0  0  0
  192.1610  176.0820  147.7520 C   0  0  0  0  0  0  0  0  0  0  0  0
  192.4030  174.8460  147.7890 O   0  0  0  0  0  0  0  0  0  0  0  0
  192.7530  176.9180  148.6920 O   0  0  0  0  0  1  0  0  0  0  0  0
  1 19  1  1  0  0  0
  1  7  1  0  0  0  0
  3  6  1  0  0  0  0
  4  8  1  0  0  0  0
  4  5  1  0  0  0  0
  6  8  1  0  0  0  0
  7  6  2  0  0  0  0
  7  4  1  0  0  0  0
  9  2  2  0  0  0  0
 10  9  1  0  0  0  0
 11 10  2  0  0  0  0
 11 13  1  0  0  0  0
 12  2  1  1  0  0  0
 12 14  1  0  0  0  0
 12  3  1  0  0  0  0
 13 14  2  0  0  0  0
 14  1  1  0  0  0  0
 15 17  1  0  0  0  0
 15 10  1  0  0  0  0
 16 15  2  0  0  0  0
 18 20  2  0  0  0  0
 19 18  1  0  0  0  0
 21 18  1  0  0  0  0
 21 30  1  0  0  0  0
 22 26  1  0  0  0  0
 23 28  1  0  0  0  0
 24 29  1  0  0  0  0
 24 32  1  0  0  0  0
 25 24  2  0  0  0  0
 26 28  2  0  0  0  0
 26 25  1  0  0  0  0
 27 29  2  0  0  0  0
 28 27  1  0  0  0  0
 30 23  2  0  0  0  0
 31 30  1  0  0  0  0
 31 22  2  0  0  0  0
 32 33  2  0  0  0  0
 32 34  1  0  0  0  0
M  END
>  <MODEL>
9

>  <REMARK>
 VINA RESULT:      -8.9      3.431      6.292
  Name = 
  5 active torsions:
  status: ('A' for Active; 'I' for Inactive)
    1  A    between atoms: C_1  and  N_9
    2  A    between atoms: C_3  and  C_25
    3  A    between atoms: C_7  and  C_11
    4  A    between atoms: C_8  and  C_18
    5  A    between atoms: C_18  and  C_30
                            x       y       z     vdW  Elec       q    Type
                         _______ _______ _______ _____ _____    ______ ____

>  <TORSDO>
F 5

$$$$
