=
 OpenBabel10272414433D

 43 47  0  0  1  0  0  0  0  0999 V2000
  190.3830  177.0370  139.5730 C   0  0  1  0  0  3  0  0  0  0  0  0
  190.9840  173.1330  136.0420 C   0  0  1  0  0  3  0  0  0  0  0  0
  192.0920  174.5900  137.7000 C   0  0  1  0  0  3  0  0  0  0  0  0
  189.7650  174.0780  135.9520 C   0  0  0  0  0  2  0  0  0  0  0  0
  191.1310  172.4550  134.8350 O   0  0  0  0  0  1  0  0  0  0  0  0
  190.9210  175.4930  137.6540 C   0  0  0  0  0  0  0  0  0  0  0  0
  192.2780  173.8880  136.3630 C   0  0  0  0  0  2  0  0  0  0  0  0
  189.8590  175.2840  136.8590 C   0  0  0  0  0  3  0  0  0  0  0  0
  191.2320  176.7860  138.3130 C   0  0  2  0  0  3  0  0  0  0  0  0
  192.6480  176.7260  138.6730 N   0  0  0  0  0  2  0  0  0  0  0  0
  193.2210  175.5500  138.0070 C   0  0  0  0  0  2  0  0  0  0  0  0
  191.1440  176.8540  140.9040 C   0  0  1  0  0  3  0  0  0  0  0  0
  191.3080  178.0970  141.5200 O   0  0  0  0  0  1  0  0  0  0  0  0
  190.3990  175.9750  141.7950 N   0  0  0  0  0  2  0  0  0  0  0  0
  190.1350  176.8960  145.4170 C   0  0  0  0  0  0  0  0  0  0  0  0
  188.7750  177.2280  145.5060 C   0  0  0  0  0  0  0  0  0  0  0  0
  188.2280  177.5770  146.6930 F   0  0  0  0  0  0  0  0  0  0  0  0
  188.5170  176.7640  143.1370 C   0  0  0  0  0  3  0  0  0  0  0  0
  190.6750  176.4900  144.1930 C   0  0  0  0  0  3  0  0  0  0  0  0
  189.8670  176.4100  143.0480 C   0  0  0  0  0  0  0  0  0  0  0  0
  191.1650  176.9580  146.8330 Cl  0  0  0  0  0  0  0  0  0  0  0  0
  187.9720  177.1690  144.3620 C   0  0  0  0  0  3  0  0  0  0  0  0
  189.5420  178.1720  139.4370 O   0  0  0  0  0  0  0  0  0  0  0  0
  188.1730  177.8520  139.5670 C   0  0  1  0  0  3  0  0  0  0  0  0
  187.5470  178.7380  140.4530 O   0  0  0  0  0  1  0  0  0  0  0  0
  187.4520  177.8830  138.2070 C   0  0  2  0  0  3  0  0  0  0  0  0
  188.3150  178.6390  137.2090 C   0  0  0  0  0  1  0  0  0  0  0  0
  186.0970  178.5280  138.2900 C   0  0  0  0  0  3  0  0  0  0  0  0
  184.9520  177.8630  138.1120 C   0  0  0  0  0  3  0  0  0  0  0  0
  183.6480  178.6120  138.1140 C   0  0  0  0  0  2  0  0  0  0  0  0
  182.4810  177.6190  138.2030 C   0  0  1  0  0  3  0  0  0  0  0  0
  181.9040  176.4140  140.2530 O   0  0  0  0  0  0  0  0  0  0  0  0
  182.9180  176.2060  137.8160 C   0  0  0  0  0  2  0  0  0  0  0  0
  181.8230  175.1850  138.1420 C   0  0  0  0  0  2  0  0  0  0  0  0
  181.6970  177.6130  139.5470 C   0  0  1  0  0  3  0  0  0  0  0  0
  181.2040  175.4250  139.5350 C   0  0  0  0  0  2  0  0  0  0  0  0
  181.9320  178.8320  140.4450 C   0  0  0  0  0  2  0  0  0  0  0  0
  182.6430  178.4870  141.7590 C   0  0  1  0  0  3  0  0  0  0  0  0
  184.1380  178.7300  144.1950 C   0  0  0  0  0  3  0  0  0  0  0  0
  184.8300  178.6790  143.0450 C   0  0  0  0  0  3  0  0  0  0  0  0
  182.6260  178.7170  144.2300 C   0  0  0  0  0  2  0  0  0  0  0  0
  184.1630  178.7130  141.6880 C   0  0  0  0  0  2  0  0  0  0  0  0
  182.0330  179.2560  142.9280 C   0  0  0  0  0  2  0  0  0  0  0  0
  1 23  1  6  0  0  0
  1 12  1  0  0  0  0
  2  5  1  6  0  0  0
  2  7  1  0  0  0  0
  3  7  1  6  0  0  0
  3 11  1  0  0  0  0
  4  2  1  0  0  0  0
  4  8  1  0  0  0  0
  6  3  1  0  0  0  0
  6  9  1  0  0  0  0
  8  6  2  0  0  0  0
  9 10  1  0  0  0  0
  9  1  1  1  0  0  0
 11 10  1  0  0  0  0
 12 13  1  1  0  0  0
 12 14  1  0  0  0  0
 14 20  1  0  0  0  0
 15 16  1  0  0  0  0
 15 21  1  0  0  0  0
 16 17  1  0  0  0  0
 18 22  1  0  0  0  0
 19 15  2  0  0  0  0
 20 18  2  0  0  0  0
 20 19  1  0  0  0  0
 22 16  2  0  0  0  0
 23 24  1  0  0  0  0
 24 25  1  1  0  0  0
 26 27  1  6  0  0  0
 26 28  1  0  0  0  0
 26 24  1  0  0  0  0
 29 30  1  0  0  0  0
 29 28  2  0  0  0  0
 31 30  1  1  0  0  0
 31 35  1  0  0  0  0
 33 34  1  0  0  0  0
 33 31  1  0  0  0  0
 34 36  1  0  0  0  0
 35 32  1  0  0  0  0
 35 37  1  1  0  0  0
 36 32  1  0  0  0  0
 38 37  1  6  0  0  0
 38 43  1  0  0  0  0
 39 41  1  0  0  0  0
 40 39  2  0  0  0  0
 42 38  1  0  0  0  0
 42 40  1  0  0  0  0
 43 41  1  0  0  0  0
M  END
>  <MODEL>
1

>  <REMARK>
 VINA RESULT:      -8.0      0.000      0.000
  Name = 
  12 active torsions:
  status: ('A' for Active; 'I' for Inactive)
    1  A    between atoms: N_1  and  C_34
    2  A    between atoms: N_1  and  C_35
    3  A    between atoms: C_2  and  C_6
    4  A    between atoms: C_2  and  C_13
    5  A    between atoms: C_3  and  C_4
    6  A    between atoms: C_3  and  C_12
    7  A    between atoms: C_8  and  O_27
    8  A    between atoms: C_8  and  C_30
    9  A    between atoms: C_8  and  C_34
   10  A    between atoms: C_11  and  C_14
   11  A    between atoms: C_13  and  O_27
   12  A    between atoms: C_14  and  C_41
                            x       y       z     vdW  Elec       q    Type
                         _______ _______ _______ _____ _____    ______ ____

>  <TORSDO>
F 12

$$$$
=
 OpenBabel10272414433D

 43 47  0  0  1  0  0  0  0  0999 V2000
  184.8080  177.3750  137.8010 C   0  0  1  0  0  3  0  0  0  0  0  0
  183.6280  178.6280  142.8110 C   0  0  1  0  0  3  0  0  0  0  0  0
  182.7490  177.9840  140.5950 C   0  0  1  0  0  3  0  0  0  0  0  0
  184.9850  179.0520  142.2070 C   0  0  0  0  0  2  0  0  0  0  0  0
  183.3890  179.3680  143.9670 O   0  0  0  0  0  1  0  0  0  0  0  0
  184.0520  178.3540  139.9980 C   0  0  0  0  0  0  0  0  0  0  0  0
  182.4690  178.8290  141.8290 C   0  0  0  0  0  2  0  0  0  0  0  0
  185.0760  178.8500  140.7100 C   0  0  0  0  0  3  0  0  0  0  0  0
  183.9460  178.4290  138.5200 C   0  0  2  0  0  3  0  0  0  0  0  0
  182.5340  178.2140  138.2040 N   0  0  0  0  0  2  0  0  0  0  0  0
  181.7870  178.2800  139.4660 C   0  0  0  0  0  2  0  0  0  0  0  0
  184.0060  176.3600  136.9590 C   0  0  1  0  0  3  0  0  0  0  0  0
  184.3820  176.4690  135.6180 O   0  0  0  0  0  1  0  0  0  0  0  0
  184.2700  175.0030  137.4170 N   0  0  0  0  0  2  0  0  0  0  0  0
  182.9380  171.5770  136.6930 C   0  0  0  0  0  0  0  0  0  0  0  0
  181.5570  171.8200  136.7200 C   0  0  0  0  0  0  0  0  0  0  0  0
  180.6780  170.8290  136.4460 F   0  0  0  0  0  0  0  0  0  0  0  0
  181.9870  174.1510  137.2430 C   0  0  0  0  0  3  0  0  0  0  0  0
  183.8350  172.6220  136.9300 C   0  0  0  0  0  3  0  0  0  0  0  0
  183.3660  173.9190  137.1950 C   0  0  0  0  0  0  0  0  0  0  0  0
  183.5580  169.9770  136.3380 Cl  0  0  0  0  0  0  0  0  0  0  0  0
  181.0860  173.1070  137.0040 C   0  0  0  0  0  3  0  0  0  0  0  0
  185.9790  177.9380  137.2290 O   0  0  0  0  0  0  0  0  0  0  0  0
  187.1610  177.3290  137.7050 C   0  0  1  0  0  3  0  0  0  0  0  0
  187.5370  176.2730  136.8660 O   0  0  0  0  0  1  0  0  0  0  0  0
  188.3160  178.3410  137.8140 C   0  0  2  0  0  3  0  0  0  0  0  0
  189.5070  177.8150  137.0280 C   0  0  0  0  0  1  0  0  0  0  0  0
  188.7250  178.5940  139.2370 C   0  0  0  0  0  3  0  0  0  0  0  0
  188.2540  177.8970  140.2750 C   0  0  0  0  0  3  0  0  0  0  0  0
  188.6440  178.2880  141.6740 C   0  0  0  0  0  2  0  0  0  0  0  0
  189.6270  177.2570  142.2430 C   0  0  1  0  0  3  0  0  0  0  0  0
  190.1750  177.1040  144.6230 O   0  0  0  0  0  0  0  0  0  0  0  0
  191.0630  177.7820  142.2230 C   0  0  0  0  0  2  0  0  0  0  0  0
  191.9960  176.8570  143.0120 C   0  0  0  0  0  2  0  0  0  0  0  0
  189.2660  176.6750  143.6400 C   0  0  1  0  0  3  0  0  0  0  0  0
  191.3750  176.4180  144.3550 C   0  0  0  0  0  2  0  0  0  0  0  0
  187.8180  176.9040  144.0870 C   0  0  0  0  0  2  0  0  0  0  0  0
  187.7060  177.7480  145.3630 C   0  0  1  0  0  3  0  0  0  0  0  0
  186.9830  178.6220  147.9980 C   0  0  0  0  0  3  0  0  0  0  0  0
  186.0820  178.7970  147.0170 C   0  0  0  0  0  3  0  0  0  0  0  0
  188.3140  177.9440  147.7610 C   0  0  0  0  0  2  0  0  0  0  0  0
  186.2700  178.2380  145.6240 C   0  0  0  0  0  2  0  0  0  0  0  0
  188.2490  176.9880  146.5700 C   0  0  0  0  0  2  0  0  0  0  0  0
  1 23  1  6  0  0  0
  2  5  1  1  0  0  0
  3 11  1  6  0  0  0
  3  7  1  0  0  0  0
  4  2  1  0  0  0  0
  6  3  1  0  0  0  0
  6  8  2  0  0  0  0
  7  2  1  0  0  0  0
  8  4  1  0  0  0  0
  9  1  1  6  0  0  0
  9  6  1  0  0  0  0
 10  9  1  0  0  0  0
 10 11  1  0  0  0  0
 12 13  1  6  0  0  0
 12 14  1  0  0  0  0
 12  1  1  0  0  0  0
 15 16  2  0  0  0  0
 15 19  1  0  0  0  0
 16 22  1  0  0  0  0
 17 16  1  0  0  0  0
 19 20  2  0  0  0  0
 20 18  1  0  0  0  0
 20 14  1  0  0  0  0
 21 15  1  0  0  0  0
 22 18  2  0  0  0  0
 23 24  1  0  0  0  0
 24 25  1  6  0  0  0
 24 26  1  0  0  0  0
 26 27  1  6  0  0  0
 26 28  1  0  0  0  0
 28 29  2  0  0  0  0
 29 30  1  0  0  0  0
 31 30  1  1  0  0  0
 31 35  1  0  0  0  0
 33 31  1  0  0  0  0
 33 34  1  0  0  0  0
 34 36  1  0  0  0  0
 35 37  1  1  0  0  0
 35 32  1  0  0  0  0
 36 32  1  0  0  0  0
 38 37  1  6  0  0  0
 38 42  1  0  0  0  0
 38 43  1  0  0  0  0
 40 39  2  0  0  0  0
 41 39  1  0  0  0  0
 42 40  1  0  0  0  0
 43 41  1  0  0  0  0
M  END
>  <MODEL>
2

>  <REMARK>
 VINA RESULT:      -8.0      4.362      8.887
  Name = 
  12 active torsions:
  status: ('A' for Active; 'I' for Inactive)
    1  A    between atoms: N_1  and  C_34
    2  A    between atoms: N_1  and  C_35
    3  A    between atoms: C_2  and  C_6
    4  A    between atoms: C_2  and  C_13
    5  A    between atoms: C_3  and  C_4
    6  A    between atoms: C_3  and  C_12
    7  A    between atoms: C_8  and  O_27
    8  A    between atoms: C_8  and  C_30
    9  A    between atoms: C_8  and  C_34
   10  A    between atoms: C_11  and  C_14
   11  A    between atoms: C_13  and  O_27
   12  A    between atoms: C_14  and  C_41
                            x       y       z     vdW  Elec       q    Type
                         _______ _______ _______ _____ _____    ______ ____

>  <TORSDO>
F 12

$$$$
=
 OpenBabel10272414433D

 43 47  0  0  1  0  0  0  0  0999 V2000
  187.5100  178.4400  141.4520 C   0  0  1  0  0  3  0  0  0  0  0  0
  182.7260  178.3350  143.7260 C   0  0  1  0  0  3  0  0  0  0  0  0
  183.9900  178.3550  141.6050 C   0  0  1  0  0  3  0  0  0  0  0  0
  183.9490  178.8490  144.5190 C   0  0  0  0  0  2  0  0  0  0  0  0
  181.5590  178.7430  144.3660 O   0  0  0  0  0  1  0  0  0  0  0  0
  185.1840  178.8170  142.3480 C   0  0  0  0  0  0  0  0  0  0  0  0
  182.7180  178.8440  142.2810 C   0  0  0  0  0  2  0  0  0  0  0  0
  185.1830  179.0570  143.6690 C   0  0  0  0  0  3  0  0  0  0  0  0
  186.2300  179.2950  141.4110 C   0  0  2  0  0  3  0  0  0  0  0  0
  185.6350  179.2350  140.0760 N   0  0  0  0  0  2  0  0  0  0  0  0
  184.1980  178.9870  140.2460 C   0  0  0  0  0  2  0  0  0  0  0  0
  187.8160  177.8130  142.8290 C   0  0  1  0  0  3  0  0  0  0  0  0
  187.7270  176.4220  142.7370 O   0  0  0  0  0  1  0  0  0  0  0  0
  189.1580  178.1770  143.2630 N   0  0  0  0  0  2  0  0  0  0  0  0
  189.6880  177.4360  146.8970 C   0  0  0  0  0  0  0  0  0  0  0  0
  190.9290  176.7830  146.8540 C   0  0  0  0  0  0  0  0  0  0  0  0
  191.5340  176.3800  147.9950 F   0  0  0  0  0  0  0  0  0  0  0  0
  190.9630  177.0270  144.4390 C   0  0  0  0  0  3  0  0  0  0  0  0
  189.0980  177.8900  145.7140 C   0  0  0  0  0  3  0  0  0  0  0  0
  189.7370  177.6990  144.4790 C   0  0  0  0  0  0  0  0  0  0  0  0
  188.8760  177.7160  148.4240 Cl  0  0  0  0  0  0  0  0  0  0  0  0
  191.5580  176.5720  145.6230 C   0  0  0  0  0  3  0  0  0  0  0  0
  187.6450  177.6190  140.3020 O   0  0  0  0  0  0  0  0  0  0  0  0
  188.9090  177.7530  139.6860 C   0  0  1  0  0  3  0  0  0  0  0  0
  189.7840  176.7620  140.1470 O   0  0  0  0  0  1  0  0  0  0  0  0
  188.8030  177.6780  138.1520 C   0  0  2  0  0  3  0  0  0  0  0  0
  189.2050  179.0220  137.5640 C   0  0  0  0  0  1  0  0  0  0  0  0
  187.4190  177.3200  137.6880 C   0  0  0  0  0  3  0  0  0  0  0  0
  186.8050  177.9220  136.6650 C   0  0  0  0  0  3  0  0  0  0  0  0
  185.3820  177.5660  136.3370 C   0  0  0  0  0  2  0  0  0  0  0  0
  184.9320  176.3830  137.2030 C   0  0  1  0  0  3  0  0  0  0  0  0
  183.6580  174.4880  136.3230 O   0  0  0  0  0  0  0  0  0  0  0  0
  183.5740  176.6480  137.8520 C   0  0  0  0  0  2  0  0  0  0  0  0
  183.0210  175.3780  138.5090 C   0  0  0  0  0  2  0  0  0  0  0  0
  184.9590  174.9880  136.5130 C   0  0  1  0  0  3  0  0  0  0  0  0
  183.1950  174.1380  137.6060 C   0  0  0  0  0  2  0  0  0  0  0  0
  185.7750  174.9170  135.2180 C   0  0  0  0  0  2  0  0  0  0  0  0
  187.1210  174.2030  135.3900 C   0  0  1  0  0  3  0  0  0  0  0  0
  189.7520  173.5320  136.3140 C   0  0  0  0  0  3  0  0  0  0  0  0
  189.6450  174.5170  135.4070 C   0  0  0  0  0  3  0  0  0  0  0  0
  188.5430  172.8240  136.8830 C   0  0  0  0  0  2  0  0  0  0  0  0
  188.3130  175.0760  134.9590 C   0  0  0  0  0  2  0  0  0  0  0  0
  187.2980  173.7080  136.8230 C   0  0  0  0  0  2  0  0  0  0  0  0
  1 23  1  6  0  0  0
  1 12  1  0  0  0  0
  2  5  1  1  0  0  0
  2  4  1  0  0  0  0
  3 11  1  6  0  0  0
  3  7  1  0  0  0  0
  3  6  1  0  0  0  0
  6  8  2  0  0  0  0
  7  2  1  0  0  0  0
  8  4  1  0  0  0  0
  9  1  1  6  0  0  0
  9  6  1  0  0  0  0
 10 11  1  0  0  0  0
 10  9  1  0  0  0  0
 12 13  1  6  0  0  0
 12 14  1  0  0  0  0
 14 20  1  0  0  0  0
 15 21  1  0  0  0  0
 16 15  1  0  0  0  0
 16 17  1  0  0  0  0
 18 20  2  0  0  0  0
 18 22  1  0  0  0  0
 19 15  2  0  0  0  0
 20 19  1  0  0  0  0
 22 16  2  0  0  0  0
 24 25  1  1  0  0  0
 24 23  1  0  0  0  0
 26 27  1  6  0  0  0
 26 24  1  0  0  0  0
 28 26  1  0  0  0  0
 29 28  2  0  0  0  0
 30 29  1  0  0  0  0
 31 30  1  6  0  0  0
 31 33  1  0  0  0  0
 32 35  1  0  0  0  0
 32 36  1  0  0  0  0
 33 34  1  0  0  0  0
 35 37  1  6  0  0  0
 35 31  1  0  0  0  0
 36 34  1  0  0  0  0
 38 37  1  1  0  0  0
 38 43  1  0  0  0  0
 39 41  1  0  0  0  0
 40 39  2  0  0  0  0
 42 38  1  0  0  0  0
 42 40  1  0  0  0  0
 43 41  1  0  0  0  0
M  END
>  <MODEL>
3

>  <REMARK>
 VINA RESULT:      -8.0      2.440      6.770
  Name = 
  12 active torsions:
  status: ('A' for Active; 'I' for Inactive)
    1  A    between atoms: N_1  and  C_34
    2  A    between atoms: N_1  and  C_35
    3  A    between atoms: C_2  and  C_6
    4  A    between atoms: C_2  and  C_13
    5  A    between atoms: C_3  and  C_4
    6  A    between atoms: C_3  and  C_12
    7  A    between atoms: C_8  and  O_27
    8  A    between atoms: C_8  and  C_30
    9  A    between atoms: C_8  and  C_34
   10  A    between atoms: C_11  and  C_14
   11  A    between atoms: C_13  and  O_27
   12  A    between atoms: C_14  and  C_41
                            x       y       z     vdW  Elec       q    Type
                         _______ _______ _______ _____ _____    ______ ____

>  <TORSDO>
F 12

$$$$
=
 OpenBabel10272414433D

 43 47  0  0  1  0  0  0  0  0999 V2000
  189.1490  177.8440  141.6930 C   0  0  1  0  0  3  0  0  0  0  0  0
  188.0400  176.1470  136.7980 C   0  0  1  0  0  3  0  0  0  0  0  0
  189.7240  176.2520  138.6020 C   0  0  1  0  0  3  0  0  0  0  0  0
  187.2300  177.3080  137.4170 C   0  0  0  0  0  2  0  0  0  0  0  0
  187.8390  176.1280  135.4210 O   0  0  0  0  0  1  0  0  0  0  0  0
  188.9480  177.3440  139.2300 C   0  0  0  0  0  0  0  0  0  0  0  0
  189.5390  176.2670  137.0920 C   0  0  0  0  0  2  0  0  0  0  0  0
  187.8190  177.8450  138.7030 C   0  0  0  0  0  3  0  0  0  0  0  0
  189.7480  178.0150  140.2850 C   0  0  2  0  0  3  0  0  0  0  0  0
  191.0760  177.4050  140.2330 N   0  0  0  0  0  2  0  0  0  0  0  0
  191.1400  176.5940  139.0110 C   0  0  0  0  0  2  0  0  0  0  0  0
  190.1920  177.6150  142.8080 C   0  0  1  0  0  3  0  0  0  0  0  0
  190.4590  178.8260  143.4510 O   0  0  0  0  0  1  0  0  0  0  0  0
  189.6870  176.6590  143.7840 N   0  0  0  0  0  2  0  0  0  0  0  0
  187.9250  177.9050  146.8470 C   0  0  0  0  0  0  0  0  0  0  0  0
  188.9230  177.7240  147.8160 C   0  0  0  0  0  0  0  0  0  0  0  0
  188.7150  178.1090  149.0960 F   0  0  0  0  0  0  0  0  0  0  0  0
  190.3950  176.8080  146.1170 C   0  0  0  0  0  3  0  0  0  0  0  0
  188.1720  177.5480  145.5170 C   0  0  0  0  0  3  0  0  0  0  0  0
  189.4120  177.0080  145.1420 C   0  0  0  0  0  0  0  0  0  0  0  0
  186.3760  178.6020  147.2750 Cl  0  0  0  0  0  0  0  0  0  0  0  0
  190.1520  177.1670  147.4480 C   0  0  0  0  0  3  0  0  0  0  0  0
  188.0960  178.7620  141.9440 O   0  0  0  0  0  0  0  0  0  0  0  0
  186.8210  178.1600  141.8650 C   0  0  1  0  0  3  0  0  0  0  0  0
  186.5960  177.3480  142.9840 O   0  0  0  0  0  1  0  0  0  0  0  0
  185.7030  179.2120  141.7550 C   0  0  2  0  0  3  0  0  0  0  0  0
  185.1430  179.4830  143.1420 C   0  0  0  0  0  1  0  0  0  0  0  0
  184.5930  178.7760  140.8410 C   0  0  0  0  0  3  0  0  0  0  0  0
  184.4190  179.2630  139.6080 C   0  0  0  0  0  3  0  0  0  0  0  0
  183.2200  178.8410  138.8030 C   0  0  0  0  0  2  0  0  0  0  0  0
  182.3500  177.8890  139.6340 C   0  0  1  0  0  3  0  0  0  0  0  0
  180.7950  176.2850  138.6350 O   0  0  0  0  0  0  0  0  0  0  0  0
  181.0170  178.5350  140.0120 C   0  0  0  0  0  2  0  0  0  0  0  0
  180.0610  177.5040  140.6220 C   0  0  0  0  0  2  0  0  0  0  0  0
  182.1320  176.4710  139.0310 C   0  0  1  0  0  3  0  0  0  0  0  0
  180.0570  176.1800  139.8290 C   0  0  0  0  0  2  0  0  0  0  0  0
  183.1010  176.0830  137.9100 C   0  0  0  0  0  2  0  0  0  0  0  0
  183.4220  174.5830  137.8800 C   0  0  1  0  0  3  0  0  0  0  0  0
  184.1730  171.9740  136.9530 C   0  0  0  0  0  3  0  0  0  0  0  0
  182.9130  172.3780  136.7180 C   0  0  0  0  0  3  0  0  0  0  0  0
  185.1920  172.8630  137.6310 C   0  0  0  0  0  2  0  0  0  0  0  0
  182.4370  173.7840  137.0090 C   0  0  0  0  0  2  0  0  0  0  0  0
  184.8620  174.3420  137.4340 C   0  0  0  0  0  2  0  0  0  0  0  0
  1 23  1  1  0  0  0
  1 12  1  0  0  0  0
  2  5  1  6  0  0  0
  2  7  1  0  0  0  0
  2  4  1  0  0  0  0
  3  7  1  6  0  0  0
  3 11  1  0  0  0  0
  3  6  1  0  0  0  0
  4  8  1  0  0  0  0
  6  9  1  0  0  0  0
  8  6  2  0  0  0  0
  9  1  1  1  0  0  0
 10  9  1  0  0  0  0
 11 10  1  0  0  0  0
 12 13  1  1  0  0  0
 12 14  1  0  0  0  0
 14 20  1  0  0  0  0
 15 21  1  0  0  0  0
 15 16  1  0  0  0  0
 16 17  1  0  0  0  0
 18 22  1  0  0  0  0
 19 15  2  0  0  0  0
 20 19  1  0  0  0  0
 20 18  2  0  0  0  0
 22 16  2  0  0  0  0
 24 23  1  0  0  0  0
 24 25  1  1  0  0  0
 26 24  1  0  0  0  0
 26 27  1  1  0  0  0
 28 26  1  0  0  0  0
 29 28  2  0  0  0  0
 30 29  1  0  0  0  0
 31 30  1  6  0  0  0
 31 33  1  0  0  0  0
 32 35  1  0  0  0  0
 32 36  1  0  0  0  0
 33 34  1  0  0  0  0
 35 37  1  6  0  0  0
 35 31  1  0  0  0  0
 36 34  1  0  0  0  0
 38 37  1  6  0  0  0
 39 41  1  0  0  0  0
 40 39  2  0  0  0  0
 40 42  1  0  0  0  0
 42 38  1  0  0  0  0
 43 41  1  0  0  0  0
 43 38  1  0  0  0  0
M  END
>  <MODEL>
4

>  <REMARK>
 VINA RESULT:      -8.0      2.162      4.315
  Name = 
  12 active torsions:
  status: ('A' for Active; 'I' for Inactive)
    1  A    between atoms: N_1  and  C_34
    2  A    between atoms: N_1  and  C_35
    3  A    between atoms: C_2  and  C_6
    4  A    between atoms: C_2  and  C_13
    5  A    between atoms: C_3  and  C_4
    6  A    between atoms: C_3  and  C_12
    7  A    between atoms: C_8  and  O_27
    8  A    between atoms: C_8  and  C_30
    9  A    between atoms: C_8  and  C_34
   10  A    between atoms: C_11  and  C_14
   11  A    between atoms: C_13  and  O_27
   12  A    between atoms: C_14  and  C_41
                            x       y       z     vdW  Elec       q    Type
                         _______ _______ _______ _____ _____    ______ ____

>  <TORSDO>
F 12

$$$$
=
 OpenBabel10272414433D

 43 47  0  0  1  0  0  0  0  0999 V2000
  187.8680  178.4020  141.4350 C   0  0  1  0  0  3  0  0  0  0  0  0
  183.0220  178.4150  143.5760 C   0  0  1  0  0  3  0  0  0  0  0  0
  184.3560  178.1300  141.5170 C   0  0  1  0  0  3  0  0  0  0  0  0
  184.1860  179.1360  144.2910 C   0  0  0  0  0  2  0  0  0  0  0  0
  181.8120  178.8580  144.1040 O   0  0  0  0  0  1  0  0  0  0  0  0
  185.4950  178.7900  142.1920 C   0  0  0  0  0  0  0  0  0  0  0  0
  183.0360  178.6540  142.0630 C   0  0  0  0  0  2  0  0  0  0  0  0
  185.4350  179.2630  143.4470 C   0  0  0  0  0  3  0  0  0  0  0  0
  186.5450  179.1550  141.2090 C   0  0  2  0  0  3  0  0  0  0  0  0
  186.0000  178.8190  139.8940 N   0  0  0  0  0  2  0  0  0  0  0  0
  184.5750  178.5190  140.0720 C   0  0  0  0  0  2  0  0  0  0  0  0
  188.0620  177.8670  142.8710 C   0  0  1  0  0  3  0  0  0  0  0  0
  187.8610  176.4840  142.8830 O   0  0  0  0  0  1  0  0  0  0  0  0
  189.4100  178.1560  143.3400 N   0  0  0  0  0  2  0  0  0  0  0  0
  189.7370  177.4760  147.0100 C   0  0  0  0  0  0  0  0  0  0  0  0
  190.9570  176.7860  147.0420 C   0  0  0  0  0  0  0  0  0  0  0  0
  191.4920  176.3900  148.2200 F   0  0  0  0  0  0  0  0  0  0  0  0
  191.1190  176.9780  144.6280 C   0  0  0  0  0  3  0  0  0  0  0  0
  189.2200  177.9230  145.7900 C   0  0  0  0  0  3  0  0  0  0  0  0
  189.9130  177.6870  144.5930 C   0  0  0  0  0  0  0  0  0  0  0  0
  188.8590  177.8120  148.4890 Cl  0  0  0  0  0  0  0  0  0  0  0  0
  191.6400  176.5310  145.8480 C   0  0  0  0  0  3  0  0  0  0  0  0
  188.1870  177.5390  140.3550 O   0  0  0  0  0  0  0  0  0  0  0  0
  189.3970  177.8930  139.7170 C   0  0  1  0  0  3  0  0  0  0  0  0
  190.4620  177.1560  140.2500 O   0  0  0  0  0  1  0  0  0  0  0  0
  189.3220  177.6710  138.1950 C   0  0  2  0  0  3  0  0  0  0  0  0
  188.8700  178.9620  137.5310 C   0  0  0  0  0  1  0  0  0  0  0  0
  188.3840  176.5590  137.8220 C   0  0  0  0  0  3  0  0  0  0  0  0
  187.4710  176.6580  136.8510 C   0  0  0  0  0  3  0  0  0  0  0  0
  186.5080  175.5270  136.6160 C   0  0  0  0  0  2  0  0  0  0  0  0
  185.1420  175.8780  137.2210 C   0  0  1  0  0  3  0  0  0  0  0  0
  183.0770  174.7030  136.6310 O   0  0  0  0  0  0  0  0  0  0  0  0
  184.4350  176.9660  136.4130 C   0  0  0  0  0  2  0  0  0  0  0  0
  182.9820  177.1340  136.8720 C   0  0  0  0  0  2  0  0  0  0  0  0
  184.1910  174.6760  137.4900 C   0  0  1  0  0  3  0  0  0  0  0  0
  182.2810  175.7750  137.0780 C   0  0  0  0  0  2  0  0  0  0  0  0
  184.8630  173.2990  137.4820 C   0  0  0  0  0  2  0  0  0  0  0  0
  184.3170  172.3660  136.3930 C   0  0  1  0  0  3  0  0  0  0  0  0
  183.7030  170.0070  134.8810 C   0  0  0  0  0  3  0  0  0  0  0  0
  184.9280  170.5370  134.7340 C   0  0  0  0  0  3  0  0  0  0  0  0
  182.6850  170.5810  135.8410 C   0  0  0  0  0  2  0  0  0  0  0  0
  185.4340  171.6790  135.5880 C   0  0  0  0  0  2  0  0  0  0  0  0
  183.3600  171.3360  136.9860 C   0  0  0  0  0  2  0  0  0  0  0  0
  1 23  1  6  0  0  0
  1 12  1  0  0  0  0
  2  5  1  1  0  0  0
  2  4  1  0  0  0  0
  3 11  1  6  0  0  0
  3  7  1  0  0  0  0
  3  6  1  0  0  0  0
  6  8  2  0  0  0  0
  7  2  1  0  0  0  0
  8  4  1  0  0  0  0
  9  1  1  1  0  0  0
  9  6  1  0  0  0  0
 10 11  1  0  0  0  0
 10  9  1  0  0  0  0
 12 13  1  6  0  0  0
 12 14  1  0  0  0  0
 14 20  1  0  0  0  0
 15 16  1  0  0  0  0
 15 21  1  0  0  0  0
 16 17  1  0  0  0  0
 18 22  1  0  0  0  0
 19 15  2  0  0  0  0
 20 18  2  0  0  0  0
 20 19  1  0  0  0  0
 22 16  2  0  0  0  0
 24 25  1  1  0  0  0
 24 23  1  0  0  0  0
 26 27  1  6  0  0  0
 26 24  1  0  0  0  0
 28 26  1  0  0  0  0
 29 28  2  0  0  0  0
 30 29  1  0  0  0  0
 31 30  1  6  0  0  0
 31 35  1  0  0  0  0
 32 36  1  0  0  0  0
 32 35  1  0  0  0  0
 33 34  1  0  0  0  0
 33 31  1  0  0  0  0
 34 36  1  0  0  0  0
 35 37  1  6  0  0  0
 38 43  1  0  0  0  0
 38 37  1  1  0  0  0
 39 41  1  0  0  0  0
 40 39  2  0  0  0  0
 40 42  1  0  0  0  0
 41 43  1  0  0  0  0
 42 38  1  0  0  0  0
M  END
>  <MODEL>
5

>  <REMARK>
 VINA RESULT:      -7.9      2.892      6.844
  Name = 
  12 active torsions:
  status: ('A' for Active; 'I' for Inactive)
    1  A    between atoms: N_1  and  C_34
    2  A    between atoms: N_1  and  C_35
    3  A    between atoms: C_2  and  C_6
    4  A    between atoms: C_2  and  C_13
    5  A    between atoms: C_3  and  C_4
    6  A    between atoms: C_3  and  C_12
    7  A    between atoms: C_8  and  O_27
    8  A    between atoms: C_8  and  C_30
    9  A    between atoms: C_8  and  C_34
   10  A    between atoms: C_11  and  C_14
   11  A    between atoms: C_13  and  O_27
   12  A    between atoms: C_14  and  C_41
                            x       y       z     vdW  Elec       q    Type
                         _______ _______ _______ _____ _____    ______ ____

>  <TORSDO>
F 12

$$$$
=
 OpenBabel10272414433D

 43 47  0  0  1  0  0  0  0  0999 V2000
  185.1540  177.4880  137.1510 C   0  0  1  0  0  3  0  0  0  0  0  0
  187.6120  172.8530  136.4170 C   0  0  1  0  0  3  0  0  0  0  0  0
  187.1890  175.1160  135.5230 C   0  0  1  0  0  3  0  0  0  0  0  0
  186.3890  172.9400  137.3580 C   0  0  0  0  0  2  0  0  0  0  0  0
  187.8470  171.5200  136.0920 O   0  0  0  0  0  1  0  0  0  0  0  0
  186.0320  175.2350  136.4390 C   0  0  0  0  0  0  0  0  0  0  0  0
  187.4120  173.6630  135.1320 C   0  0  0  0  0  2  0  0  0  0  0  0
  185.6460  174.2550  137.2710 C   0  0  0  0  0  3  0  0  0  0  0  0
  185.1880  176.3970  136.0660 C   0  0  2  0  0  3  0  0  0  0  0  0
  185.7670  176.9380  134.8360 N   0  0  0  0  0  2  0  0  0  0  0  0
  186.7540  175.9670  134.3510 C   0  0  0  0  0  2  0  0  0  0  0  0
  183.7870  177.6530  137.8500 C   0  0  1  0  0  3  0  0  0  0  0  0
  183.5420  176.5420  138.6610 O   0  0  0  0  0  1  0  0  0  0  0  0
  183.7820  178.8530  138.6740 N   0  0  0  0  0  2  0  0  0  0  0  0
  182.2430  178.7960  142.0890 C   0  0  0  0  0  0  0  0  0  0  0  0
  183.3910  178.7960  142.8950 C   0  0  0  0  0  0  0  0  0  0  0  0
  183.2840  178.8330  144.2430 F   0  0  0  0  0  0  0  0  0  0  0  0
  184.7780  178.7970  140.9030 C   0  0  0  0  0  3  0  0  0  0  0  0
  182.3680  178.8070  140.6970 C   0  0  0  0  0  3  0  0  0  0  0  0
  183.6360  178.8190  140.0950 C   0  0  0  0  0  0  0  0  0  0  0  0
  180.6440  178.8090  142.8070 Cl  0  0  0  0  0  0  0  0  0  0  0  0
  184.6560  178.7880  142.2980 C   0  0  0  0  0  3  0  0  0  0  0  0
  186.3190  177.4760  137.9630 O   0  0  0  0  0  0  0  0  0  0  0  0
  187.4150  178.1180  137.3460 C   0  0  1  0  0  3  0  0  0  0  0  0
  187.0860  179.4400  137.0210 O   0  0  0  0  0  1  0  0  0  0  0  0
  188.6630  178.1020  138.2480 C   0  0  2  0  0  3  0  0  0  0  0  0
  189.7300  177.2370  137.5970 C   0  0  0  0  0  1  0  0  0  0  0  0
  188.3680  177.5840  139.6270 C   0  0  0  0  0  3  0  0  0  0  0  0
  188.3760  178.3510  140.7210 C   0  0  0  0  0  3  0  0  0  0  0  0
  188.1670  177.7250  142.0720 C   0  0  0  0  0  2  0  0  0  0  0  0
  189.5170  177.2770  142.6480 C   0  0  1  0  0  3  0  0  0  0  0  0
  190.2560  177.8340  144.9140 O   0  0  0  0  0  0  0  0  0  0  0  0
  190.6230  178.2820  142.3300 C   0  0  0  0  0  2  0  0  0  0  0  0
  191.9020  177.9570  143.1110 C   0  0  0  0  0  2  0  0  0  0  0  0
  189.5190  176.9030  144.1590 C   0  0  1  0  0  3  0  0  0  0  0  0
  191.6060  177.6060  144.5840 C   0  0  0  0  0  2  0  0  0  0  0  0
  188.1360  176.6630  144.7730 C   0  0  0  0  0  2  0  0  0  0  0  0
  187.7150  177.7580  145.7610 C   0  0  1  0  0  3  0  0  0  0  0  0
  186.3430  179.1600  147.8540 C   0  0  0  0  0  3  0  0  0  0  0  0
  185.7450  179.0980  146.6530 C   0  0  0  0  0  3  0  0  0  0  0  0
  187.6630  178.4790  148.1350 C   0  0  0  0  0  2  0  0  0  0  0  0
  186.2810  178.2590  145.5150 C   0  0  0  0  0  2  0  0  0  0  0  0
  187.8870  177.2880  147.2030 C   0  0  0  0  0  2  0  0  0  0  0  0
  1 12  1  0  0  0  0
  1 23  1  1  0  0  0
  2  5  1  6  0  0  0
  2  4  1  0  0  0  0
  3 11  1  6  0  0  0
  3  6  1  0  0  0  0
  6  8  2  0  0  0  0
  7  3  1  0  0  0  0
  7  2  1  0  0  0  0
  8  4  1  0  0  0  0
  9  6  1  0  0  0  0
  9  1  1  1  0  0  0
 10  9  1  0  0  0  0
 11 10  1  0  0  0  0
 12 13  1  1  0  0  0
 12 14  1  0  0  0  0
 14 20  1  0  0  0  0
 15 21  1  0  0  0  0
 15 16  1  0  0  0  0
 16 17  1  0  0  0  0
 18 22  1  0  0  0  0
 19 15  2  0  0  0  0
 20 19  1  0  0  0  0
 20 18  2  0  0  0  0
 22 16  2  0  0  0  0
 24 25  1  1  0  0  0
 24 23  1  0  0  0  0
 24 26  1  0  0  0  0
 26 27  1  6  0  0  0
 26 28  1  0  0  0  0
 28 29  2  0  0  0  0
 29 30  1  0  0  0  0
 31 30  1  1  0  0  0
 31 35  1  0  0  0  0
 33 31  1  0  0  0  0
 33 34  1  0  0  0  0
 34 36  1  0  0  0  0
 35 37  1  1  0  0  0
 35 32  1  0  0  0  0
 36 32  1  0  0  0  0
 38 37  1  6  0  0  0
 38 43  1  0  0  0  0
 39 41  1  0  0  0  0
 40 39  2  0  0  0  0
 42 38  1  0  0  0  0
 42 40  1  0  0  0  0
 43 41  1  0  0  0  0
M  END
>  <MODEL>
6

>  <REMARK>
 VINA RESULT:      -7.9      3.394      6.720
  Name = 
  12 active torsions:
  status: ('A' for Active; 'I' for Inactive)
    1  A    between atoms: N_1  and  C_34
    2  A    between atoms: N_1  and  C_35
    3  A    between atoms: C_2  and  C_6
    4  A    between atoms: C_2  and  C_13
    5  A    between atoms: C_3  and  C_4
    6  A    between atoms: C_3  and  C_12
    7  A    between atoms: C_8  and  O_27
    8  A    between atoms: C_8  and  C_30
    9  A    between atoms: C_8  and  C_34
   10  A    between atoms: C_11  and  C_14
   11  A    between atoms: C_13  and  O_27
   12  A    between atoms: C_14  and  C_41
                            x       y       z     vdW  Elec       q    Type
                         _______ _______ _______ _____ _____    ______ ____

>  <TORSDO>
F 12

$$$$
=
 OpenBabel10272414433D

 43 47  0  0  1  0  0  0  0  0999 V2000
  186.0260  178.9330  142.7010 C   0  0  1  0  0  3  0  0  0  0  0  0
  187.7850  178.2040  147.6450 C   0  0  1  0  0  3  0  0  0  0  0  0
  188.0950  177.6630  145.2550 C   0  0  1  0  0  3  0  0  0  0  0  0
  186.3360  178.6820  147.4010 C   0  0  0  0  0  2  0  0  0  0  0  0
  187.9010  177.7320  148.9490 O   0  0  0  0  0  1  0  0  0  0  0  0
  186.7210  178.1450  144.9920 C   0  0  0  0  0  0  0  0  0  0  0  0
  188.2040  177.1030  146.6650 C   0  0  0  0  0  2  0  0  0  0  0  0
  185.9030  178.6010  145.9540 C   0  0  0  0  0  3  0  0  0  0  0  0
  186.2740  177.7360  143.6370 C   0  0  2  0  0  3  0  0  0  0  0  0
  187.3410  176.8950  143.0970 N   0  0  0  0  0  2  0  0  0  0  0  0
  188.2640  176.5940  144.1980 C   0  0  0  0  0  2  0  0  0  0  0  0
  186.4730  178.7050  141.2400 C   0  0  1  0  0  3  0  0  0  0  0  0
  185.7350  179.5350  140.3930 O   0  0  0  0  0  1  0  0  0  0  0  0
  187.8890  179.0120  141.0920 N   0  0  0  0  0  2  0  0  0  0  0  0
  189.3900  177.8190  137.8730 C   0  0  0  0  0  0  0  0  0  0  0  0
  190.3920  176.9620  138.3510 C   0  0  0  0  0  0  0  0  0  0  0  0
  191.1630  176.2580  137.4910 F   0  0  0  0  0  0  0  0  0  0  0  0
  189.7510  177.4990  140.6300 C   0  0  0  0  0  3  0  0  0  0  0  0
  188.5680  178.5020  138.7740 C   0  0  0  0  0  3  0  0  0  0  0  0
  188.7360  178.3380  140.1580 C   0  0  0  0  0  0  0  0  0  0  0  0
  189.1360  178.0270  136.1510 Cl  0  0  0  0  0  0  0  0  0  0  0  0
  190.5740  176.8120  139.7300 C   0  0  0  0  0  3  0  0  0  0  0  0
  184.7610  179.5370  142.9230 O   0  0  0  0  0  0  0  0  0  0  0  0
  183.7100  178.5950  142.9640 C   0  0  1  0  0  3  0  0  0  0  0  0
  182.9270  178.7880  144.1090 O   0  0  0  0  0  1  0  0  0  0  0  0
  182.8230  178.6810  141.7080 C   0  0  2  0  0  3  0  0  0  0  0  0
  181.3780  178.8780  142.1390 C   0  0  0  0  0  1  0  0  0  0  0  0
  182.9270  177.4540  140.8470 C   0  0  0  0  0  3  0  0  0  0  0  0
  181.9860  177.0850  139.9730 C   0  0  0  0  0  3  0  0  0  0  0  0
  182.1310  175.7870  139.2260 C   0  0  0  0  0  2  0  0  0  0  0  0
  182.1340  176.0580  137.7160 C   0  0  1  0  0  3  0  0  0  0  0  0
  184.1260  176.7780  136.4900 O   0  0  0  0  0  0  0  0  0  0  0  0
  181.7500  177.5040  137.4060 C   0  0  0  0  0  2  0  0  0  0  0  0
  181.9930  177.8320  135.9280 C   0  0  0  0  0  2  0  0  0  0  0  0
  183.4290  175.6490  136.9570 C   0  0  1  0  0  3  0  0  0  0  0  0
  183.3510  177.2920  135.4320 C   0  0  0  0  0  2  0  0  0  0  0  0
  184.3600  174.7000  137.7190 C   0  0  0  0  0  2  0  0  0  0  0  0
  185.5800  174.2630  136.9000 C   0  0  1  0  0  3  0  0  0  0  0  0
  188.1840  173.2840  136.1990 C   0  0  0  0  0  3  0  0  0  0  0  0
  188.0880  174.5640  136.5970 C   0  0  0  0  0  3  0  0  0  0  0  0
  186.9900  172.3580  136.1640 C   0  0  0  0  0  2  0  0  0  0  0  0
  186.8090  175.1560  137.1460 C   0  0  0  0  0  2  0  0  0  0  0  0
  185.9140  172.7960  137.1580 C   0  0  0  0  0  2  0  0  0  0  0  0
  1 23  1  6  0  0  0
  2  5  1  1  0  0  0
  3 11  1  6  0  0  0
  3  7  1  0  0  0  0
  4  2  1  0  0  0  0
  6  3  1  0  0  0  0
  6  8  2  0  0  0  0
  7  2  1  0  0  0  0
  8  4  1  0  0  0  0
  9  1  1  6  0  0  0
  9  6  1  0  0  0  0
 10  9  1  0  0  0  0
 10 11  1  0  0  0  0
 12 13  1  6  0  0  0
 12  1  1  0  0  0  0
 14 12  1  0  0  0  0
 15 16  2  0  0  0  0
 15 19  1  0  0  0  0
 16 22  1  0  0  0  0
 17 16  1  0  0  0  0
 19 20  2  0  0  0  0
 20 18  1  0  0  0  0
 20 14  1  0  0  0  0
 21 15  1  0  0  0  0
 22 18  2  0  0  0  0
 23 24  1  0  0  0  0
 24 25  1  1  0  0  0
 26 27  1  1  0  0  0
 26 24  1  0  0  0  0
 28 26  1  0  0  0  0
 29 28  2  0  0  0  0
 30 29  1  0  0  0  0
 31 30  1  1  0  0  0
 32 35  1  0  0  0  0
 33 31  1  0  0  0  0
 34 33  1  0  0  0  0
 35 31  1  0  0  0  0
 35 37  1  1  0  0  0
 36 34  1  0  0  0  0
 36 32  1  0  0  0  0
 38 42  1  0  0  0  0
 38 43  1  0  0  0  0
 38 37  1  1  0  0  0
 39 40  2  0  0  0  0
 40 42  1  0  0  0  0
 41 39  1  0  0  0  0
 41 43  1  0  0  0  0
M  END
>  <MODEL>
7

>  <REMARK>
 VINA RESULT:      -7.8      3.476      7.635
  Name = 
  12 active torsions:
  status: ('A' for Active; 'I' for Inactive)
    1  A    between atoms: N_1  and  C_34
    2  A    between atoms: N_1  and  C_35
    3  A    between atoms: C_2  and  C_6
    4  A    between atoms: C_2  and  C_13
    5  A    between atoms: C_3  and  C_4
    6  A    between atoms: C_3  and  C_12
    7  A    between atoms: C_8  and  O_27
    8  A    between atoms: C_8  and  C_30
    9  A    between atoms: C_8  and  C_34
   10  A    between atoms: C_11  and  C_14
   11  A    between atoms: C_13  and  O_27
   12  A    between atoms: C_14  and  C_41
                            x       y       z     vdW  Elec       q    Type
                         _______ _______ _______ _____ _____    ______ ____

>  <TORSDO>
F 12

$$$$
=
 OpenBabel10272414433D

 43 47  0  0  1  0  0  0  0  0999 V2000
  187.7030  178.3790  141.4900 C   0  0  1  0  0  3  0  0  0  0  0  0
  182.9540  178.3540  143.8360 C   0  0  1  0  0  3  0  0  0  0  0  0
  184.1860  178.2940  141.6970 C   0  0  1  0  0  3  0  0  0  0  0  0
  184.1870  178.8990  144.5900 C   0  0  0  0  0  2  0  0  0  0  0  0
  181.7950  178.7830  144.4770 O   0  0  0  0  0  1  0  0  0  0  0  0
  185.3900  178.7860  142.4050 C   0  0  0  0  0  0  0  0  0  0  0  0
  182.9230  178.8070  142.3730 C   0  0  0  0  0  2  0  0  0  0  0  0
  185.4080  179.0760  143.7150 C   0  0  0  0  0  3  0  0  0  0  0  0
  186.4210  179.2300  141.4350 C   0  0  2  0  0  3  0  0  0  0  0  0
  185.8070  179.1170  140.1120 N   0  0  0  0  0  2  0  0  0  0  0  0
  184.3730  178.8740  140.3120 C   0  0  0  0  0  2  0  0  0  0  0  0
  187.9730  177.7170  142.8580 C   0  0  1  0  0  3  0  0  0  0  0  0
  187.8670  176.3300  142.7340 O   0  0  0  0  0  1  0  0  0  0  0  0
  189.3110  178.0520  143.3260 N   0  0  0  0  0  2  0  0  0  0  0  0
  189.6450  177.3790  146.9970 C   0  0  0  0  0  0  0  0  0  0  0  0
  190.9000  176.7540  147.0370 C   0  0  0  0  0  0  0  0  0  0  0  0
  191.4460  176.3830  148.2180 F   0  0  0  0  0  0  0  0  0  0  0  0
  191.0700  176.9620  144.6240 C   0  0  0  0  0  3  0  0  0  0  0  0
  189.1150  177.8020  145.7740 C   0  0  0  0  0  3  0  0  0  0  0  0
  189.8290  177.6060  144.5810 C   0  0  0  0  0  0  0  0  0  0  0  0
  188.7390  177.6640  148.4690 Cl  0  0  0  0  0  0  0  0  0  0  0  0
  191.6050  176.5390  145.8480 C   0  0  0  0  0  3  0  0  0  0  0  0
  187.8750  177.5890  140.3230 O   0  0  0  0  0  0  0  0  0  0  0  0
  188.9930  177.9890  139.5580 C   0  0  1  0  0  3  0  0  0  0  0  0
  190.1240  177.2490  139.9260 O   0  0  0  0  0  1  0  0  0  0  0  0
  188.7350  177.8260  138.0490 C   0  0  2  0  0  3  0  0  0  0  0  0
  188.9810  179.1590  137.3610 C   0  0  0  0  0  1  0  0  0  0  0  0
  187.3390  177.3570  137.7520 C   0  0  0  0  0  3  0  0  0  0  0  0
  186.9750  176.8160  136.5850 C   0  0  0  0  0  3  0  0  0  0  0  0
  185.5320  176.4680  136.3440 C   0  0  0  0  0  2  0  0  0  0  0  0
  185.3840  174.9490  136.1950 C   0  0  1  0  0  3  0  0  0  0  0  0
  183.9930  173.5880  137.6790 O   0  0  0  0  0  0  0  0  0  0  0  0
  186.4690  174.2020  136.9710 C   0  0  0  0  0  2  0  0  0  0  0  0
  186.1730  172.6990  137.0220 C   0  0  0  0  0  2  0  0  0  0  0  0
  183.9740  174.3700  136.5100 C   0  0  1  0  0  3  0  0  0  0  0  0
  184.6900  172.4130  137.3380 C   0  0  0  0  0  2  0  0  0  0  0  0
  182.8420  175.4010  136.5510 C   0  0  0  0  0  2  0  0  0  0  0  0
  182.1510  175.4870  137.9170 C   0  0  1  0  0  3  0  0  0  0  0  0
  180.2480  176.0920  139.9770 C   0  0  0  0  0  3  0  0  0  0  0  0
  181.0970  177.0670  139.6100 C   0  0  0  0  0  3  0  0  0  0  0  0
  180.2380  174.7360  139.3080 C   0  0  0  0  0  2  0  0  0  0  0  0
  182.0370  176.9320  138.4330 C   0  0  0  0  0  2  0  0  0  0  0  0
  180.7820  174.8130  137.8810 C   0  0  0  0  0  2  0  0  0  0  0  0
  1 23  1  6  0  0  0
  1 12  1  0  0  0  0
  2  5  1  1  0  0  0
  2  4  1  0  0  0  0
  3 11  1  6  0  0  0
  3  7  1  0  0  0  0
  3  6  1  0  0  0  0
  6  8  2  0  0  0  0
  7  2  1  0  0  0  0
  8  4  1  0  0  0  0
  9  1  1  6  0  0  0
  9  6  1  0  0  0  0
 10 11  1  0  0  0  0
 10  9  1  0  0  0  0
 12 13  1  6  0  0  0
 12 14  1  0  0  0  0
 14 20  1  0  0  0  0
 15 16  1  0  0  0  0
 15 21  1  0  0  0  0
 16 17  1  0  0  0  0
 18 22  1  0  0  0  0
 19 15  2  0  0  0  0
 20 18  2  0  0  0  0
 20 19  1  0  0  0  0
 22 16  2  0  0  0  0
 24 25  1  1  0  0  0
 24 23  1  0  0  0  0
 26 27  1  6  0  0  0
 26 24  1  0  0  0  0
 28 26  1  0  0  0  0
 29 28  2  0  0  0  0
 30 29  1  0  0  0  0
 31 30  1  1  0  0  0
 31 35  1  0  0  0  0
 31 33  1  0  0  0  0
 33 34  1  0  0  0  0
 34 36  1  0  0  0  0
 35 37  1  1  0  0  0
 35 32  1  0  0  0  0
 36 32  1  0  0  0  0
 38 37  1  6  0  0  0
 38 42  1  0  0  0  0
 40 39  2  0  0  0  0
 41 39  1  0  0  0  0
 42 40  1  0  0  0  0
 43 38  1  0  0  0  0
 43 41  1  0  0  0  0
M  END
>  <MODEL>
8

>  <REMARK>
 VINA RESULT:      -7.7      2.770      6.094
  Name = 
  12 active torsions:
  status: ('A' for Active; 'I' for Inactive)
    1  A    between atoms: N_1  and  C_34
    2  A    between atoms: N_1  and  C_35
    3  A    between atoms: C_2  and  C_6
    4  A    between atoms: C_2  and  C_13
    5  A    between atoms: C_3  and  C_4
    6  A    between atoms: C_3  and  C_12
    7  A    between atoms: C_8  and  O_27
    8  A    between atoms: C_8  and  C_30
    9  A    between atoms: C_8  and  C_34
   10  A    between atoms: C_11  and  C_14
   11  A    between atoms: C_13  and  O_27
   12  A    between atoms: C_14  and  C_41
                            x       y       z     vdW  Elec       q    Type
                         _______ _______ _______ _____ _____    ______ ____

>  <TORSDO>
F 12

$$$$
=
 OpenBabel10272414433D

 43 47  0  0  1  0  0  0  0  0999 V2000
  188.8820  178.1970  141.5850 C   0  0  1  0  0  3  0  0  0  0  0  0
  184.9530  179.1290  145.0150 C   0  0  1  0  0  3  0  0  0  0  0  0
  186.8850  177.7000  144.4460 C   0  0  1  0  0  3  0  0  0  0  0  0
  184.8670  179.6740  143.5720 C   0  0  0  0  0  2  0  0  0  0  0  0
  183.6890  179.1650  145.5970 O   0  0  0  0  0  1  0  0  0  0  0  0
  186.8420  178.2320  143.0660 C   0  0  0  0  0  0  0  0  0  0  0  0
  185.4940  177.6960  145.0600 C   0  0  0  0  0  2  0  0  0  0  0  0
  185.9270  179.1200  142.6460 C   0  0  0  0  0  3  0  0  0  0  0  0
  187.6900  177.4140  142.1640 C   0  0  2  0  0  3  0  0  0  0  0  0
  188.1750  176.2940  142.9700 N   0  0  0  0  0  2  0  0  0  0  0  0
  187.4220  176.3020  144.2300 C   0  0  0  0  0  2  0  0  0  0  0  0
  190.2480  177.4940  141.7460 C   0  0  1  0  0  3  0  0  0  0  0  0
  190.9990  177.6650  140.5810 O   0  0  0  0  0  1  0  0  0  0  0  0
  190.9790  178.0620  142.8710 N   0  0  0  0  0  2  0  0  0  0  0  0
  190.4270  177.2840  146.4940 C   0  0  0  0  0  0  0  0  0  0  0  0
  191.2670  176.1720  146.6550 C   0  0  0  0  0  0  0  0  0  0  0  0
  191.4130  175.5900  147.8680 F   0  0  0  0  0  0  0  0  0  0  0  0
  191.8740  176.3020  144.3090 C   0  0  0  0  0  3  0  0  0  0  0  0
  190.3240  177.9050  145.2460 C   0  0  0  0  0  3  0  0  0  0  0  0
  191.0560  177.4250  144.1480 C   0  0  0  0  0  0  0  0  0  0  0  0
  189.5210  177.9250  147.8500 Cl  0  0  0  0  0  0  0  0  0  0  0  0
  191.9810  175.6790  145.5580 C   0  0  0  0  0  3  0  0  0  0  0  0
  188.5810  178.7860  140.3300 O   0  0  0  0  0  0  0  0  0  0  0  0
  187.6380  178.0370  139.5910 C   0  0  1  0  0  3  0  0  0  0  0  0
  186.4740  178.7880  139.3860 O   0  0  0  0  0  1  0  0  0  0  0  0
  188.2100  177.5840  138.2360 C   0  0  2  0  0  3  0  0  0  0  0  0
  188.9780  178.7400  137.6140 C   0  0  0  0  0  1  0  0  0  0  0  0
  187.1400  177.1240  137.2870 C   0  0  0  0  0  3  0  0  0  0  0  0
  187.3880  176.3930  136.1950 C   0  0  0  0  0  3  0  0  0  0  0  0
  186.2650  176.0630  135.2500 C   0  0  0  0  0  2  0  0  0  0  0  0
  185.7090  174.6700  135.5740 C   0  0  1  0  0  3  0  0  0  0  0  0
  184.6150  174.1270  137.6950 O   0  0  0  0  0  0  0  0  0  0  0  0
  186.7750  173.7740  136.2040 C   0  0  0  0  0  2  0  0  0  0  0  0
  186.1550  172.4820  136.7480 C   0  0  0  0  0  2  0  0  0  0  0  0
  184.3930  174.6420  136.4040 C   0  0  1  0  0  3  0  0  0  0  0  0
  184.8450  172.7490  137.5190 C   0  0  0  0  0  2  0  0  0  0  0  0
  183.6300  175.9700  136.4620 C   0  0  0  0  0  2  0  0  0  0  0  0
  183.3060  176.4200  137.8910 C   0  0  1  0  0  3  0  0  0  0  0  0
  182.0810  177.7480  140.1190 C   0  0  0  0  0  3  0  0  0  0  0  0
  182.9860  178.4390  139.4050 C   0  0  0  0  0  3  0  0  0  0  0  0
  181.6660  176.3410  139.7520 C   0  0  0  0  0  2  0  0  0  0  0  0
  183.5840  177.9160  138.1180 C   0  0  0  0  0  2  0  0  0  0  0  0
  181.8670  176.0720  138.2610 C   0  0  0  0  0  2  0  0  0  0  0  0
  1 23  1  6  0  0  0
  1 12  1  0  0  0  0
  2  7  1  0  0  0  0
  2  5  1  6  0  0  0
  3 11  1  6  0  0  0
  3  7  1  0  0  0  0
  4  2  1  0  0  0  0
  6  3  1  0  0  0  0
  8  6  2  0  0  0  0
  8  4  1  0  0  0  0
  9  1  1  1  0  0  0
  9 10  1  0  0  0  0
  9  6  1  0  0  0  0
 10 11  1  0  0  0  0
 12 13  1  6  0  0  0
 12 14  1  0  0  0  0
 14 20  1  0  0  0  0
 15 16  1  0  0  0  0
 15 21  1  0  0  0  0
 16 17  1  0  0  0  0
 18 22  1  0  0  0  0
 19 15  2  0  0  0  0
 20 18  2  0  0  0  0
 20 19  1  0  0  0  0
 22 16  2  0  0  0  0
 24 25  1  6  0  0  0
 24 23  1  0  0  0  0
 26 27  1  6  0  0  0
 26 24  1  0  0  0  0
 28 26  1  0  0  0  0
 29 28  2  0  0  0  0
 30 29  1  0  0  0  0
 31 30  1  1  0  0  0
 31 33  1  0  0  0  0
 31 35  1  0  0  0  0
 33 34  1  0  0  0  0
 34 36  1  0  0  0  0
 35 37  1  1  0  0  0
 35 32  1  0  0  0  0
 36 32  1  0  0  0  0
 38 37  1  6  0  0  0
 38 42  1  0  0  0  0
 38 43  1  0  0  0  0
 40 39  2  0  0  0  0
 41 39  1  0  0  0  0
 42 40  1  0  0  0  0
 43 41  1  0  0  0  0
M  END
>  <MODEL>
9

>  <REMARK>
 VINA RESULT:      -7.7      2.725      5.688
  Name = 
  12 active torsions:
  status: ('A' for Active; 'I' for Inactive)
    1  A    between atoms: N_1  and  C_34
    2  A    between atoms: N_1  and  C_35
    3  A    between atoms: C_2  and  C_6
    4  A    between atoms: C_2  and  C_13
    5  A    between atoms: C_3  and  C_4
    6  A    between atoms: C_3  and  C_12
    7  A    between atoms: C_8  and  O_27
    8  A    between atoms: C_8  and  C_30
    9  A    between atoms: C_8  and  C_34
   10  A    between atoms: C_11  and  C_14
   11  A    between atoms: C_13  and  O_27
   12  A    between atoms: C_14  and  C_41
                            x       y       z     vdW  Elec       q    Type
                         _______ _______ _______ _____ _____    ______ ____

>  <TORSDO>
F 12

$$$$
