=
 OpenBabel10272415193D

 34 40  0  0  1  0  0  0  0  0999 V2000
  186.8720  178.2070  140.6120 C   0  0  0  0  0  0  0  0  0  0  0  0
  189.8320  176.6160  142.0440 C   0  0  0  0  0  2  0  0  0  0  0  0
  182.9960  175.9510  139.4570 C   0  0  0  0  0  3  0  0  0  0  0  0
  188.8450  177.5370  139.8760 C   0  0  0  0  0  0  0  0  0  0  0  0
  183.7460  177.6750  137.2000 C   0  0  0  0  0  2  0  0  0  0  0  0
  183.7510  173.3810  136.7970 C   0  0  0  0  0  0  0  0  0  0  0  0
  185.0540  178.9420  139.0870 C   0  0  2  0  0  0  0  0  0  0  0  0
  185.5090  178.8330  140.5640 C   0  0  0  0  0  2  0  0  0  0  0  0
  187.4040  178.5950  138.2460 C   0  0  0  0  0  0  0  0  0  0  0  0
  188.4060  178.4260  137.2740 C   0  0  0  0  0  3  0  0  0  0  0  0
  183.3690  173.9680  138.0110 C   0  0  0  0  0  3  0  0  0  0  0  0
  183.3880  175.3560  138.1650 C   0  0  0  0  0  0  0  0  0  0  0  0
  186.0920  179.2890  137.9870 C   0  0  0  0  0  2  0  0  0  0  0  0
  183.6990  179.6020  138.8970 C   0  0  0  0  0  2  0  0  0  0  0  0
  189.8630  177.3410  138.9410 C   0  0  0  0  0  3  0  0  0  0  0  0
  187.6830  178.1480  139.5230 C   0  0  0  0  0  0  0  0  0  0  0  0
  189.6290  177.7980  137.6220 C   0  0  0  0  0  3  0  0  0  0  0  0
  189.3750  176.0760  143.3930 C   0  0  0  0  0  2  0  0  0  0  0  0
  188.9890  177.2060  144.3000 C   0  0  0  0  0  0  0  0  0  0  0  0
  184.1620  175.5930  135.8750 C   0  0  0  0  0  3  0  0  0  0  0  0
  187.8460  177.8620  144.0920 C   0  0  0  0  0  3  0  0  0  0  0  0
  183.7920  176.1770  137.0890 C   0  0  0  0  0  0  0  0  0  0  0  0
  184.1470  174.2030  135.7310 C   0  0  0  0  0  3  0  0  0  0  0  0
  183.8510  178.1080  138.6650 C   0  0  1  0  0  0  0  0  0  0  0  0
  183.1840  177.2480  139.7010 C   0  0  0  0  0  3  0  0  0  0  0  0
  188.7260  177.2240  141.2220 C   0  0  0  0  0  0  0  0  0  0  0  0
  186.9020  177.4810  142.9940 C   0  0  0  0  0  2  0  0  0  0  0  0
  187.5090  177.6670  141.6760 N   0  0  0  0  0  0  0  0  0  0  0  0
  189.8990  177.6210  145.3830 C   0  0  0  0  0  0  0  0  0  0  0  0
  191.3070  177.6300  145.1720 N   0  0  0  0  0  1  0  0  0  0  0  0
  189.4420  177.9710  146.5050 O   0  0  0  0  0  0  0  0  0  0  0  0
  183.7340  171.9160  136.6400 C   0  0  0  0  0  0  0  0  0  0  0  0
  182.9000  171.2180  137.2770 O   0  0  0  0  0  0  0  0  0  0  0  0
  184.6590  171.2730  135.7680 N   0  0  0  0  0  1  0  0  0  0  0  0
  1 28  1  0  0  0  0
  2 18  1  0  0  0  0
  3 25  2  0  0  0  0
  4 26  2  0  0  0  0
  6 11  1  0  0  0  0
  7 13  1  6  0  0  0
  7  8  1  0  0  0  0
  8  1  1  0  0  0  0
  9 16  1  0  0  0  0
 10 17  1  0  0  0  0
 10  9  2  0  0  0  0
 11 12  2  0  0  0  0
 12  3  1  0  0  0  0
 13  9  1  0  0  0  0
 14  7  1  0  0  0  0
 15  4  1  0  0  0  0
 16  4  1  0  0  0  0
 16  1  2  0  0  0  0
 17 15  2  0  0  0  0
 18 19  1  0  0  0  0
 19 29  1  0  0  0  0
 20 22  2  0  0  0  0
 21 19  2  0  0  0  0
 22  5  1  0  0  0  0
 22 12  1  0  0  0  0
 23 20  1  0  0  0  0
 23  6  2  0  0  0  0
 24  5  1  6  0  0  0
 24 14  1  0  0  0  0
 24  7  1  0  0  0  0
 24 25  1  0  0  0  0
 26 28  1  0  0  0  0
 26  2  1  0  0  0  0
 27 21  1  0  0  0  0
 28 27  1  0  0  0  0
 29 31  2  0  0  0  0
 30 29  1  0  0  0  0
 32  6  1  0  0  0  0
 32 33  2  0  0  0  0
 34 32  1  0  0  0  0
M  END
>  <MODEL>
1

>  <REMARK>
 VINA RESULT:      -7.1      0.000      0.000
  Name = 
  2 active torsions:
  status: ('A' for Active; 'I' for Inactive)
    1  A    between atoms: C_3  and  C_25
    2  A    between atoms: C_7  and  C_11
                            x       y       z     vdW  Elec       q    Type
                         _______ _______ _______ _____ _____    ______ ____

>  <TORSDO>
F 2

$$$$
=
 OpenBabel10272415193D

 34 40  0  0  1  0  0  0  0  0999 V2000
  188.8090  177.7340  138.6350 C   0  0  0  0  0  0  0  0  0  0  0  0
  190.5850  176.2250  141.4480 C   0  0  0  0  0  2  0  0  0  0  0  0
  184.7710  176.1950  136.9690 C   0  0  0  0  0  3  0  0  0  0  0  0
  190.5280  176.3710  138.8990 C   0  0  0  0  0  0  0  0  0  0  0  0
  186.5920  176.5960  134.6990 C   0  0  0  0  0  2  0  0  0  0  0  0
  185.1640  172.6560  135.7160 C   0  0  0  0  0  0  0  0  0  0  0  0
  187.7840  178.1800  136.4170 C   0  0  2  0  0  0  0  0  0  0  0  0
  187.8100  178.5880  137.9110 C   0  0  0  0  0  2  0  0  0  0  0  0
  189.9830  176.9680  136.6180 C   0  0  0  0  0  0  0  0  0  0  0  0
  191.0580  176.1770  136.1720 C   0  0  0  0  0  3  0  0  0  0  0  0
  184.7430  173.7660  136.4620 C   0  0  0  0  0  3  0  0  0  0  0  0
  185.2170  175.0440  136.1610 C   0  0  0  0  0  0  0  0  0  0  0  0
  189.1050  177.7820  135.7050 C   0  0  0  0  0  2  0  0  0  0  0  0
  186.8370  179.0030  135.5600 C   0  0  0  0  0  2  0  0  0  0  0  0
  191.5980  175.5690  138.5000 C   0  0  0  0  0  3  0  0  0  0  0  0
  189.7770  177.0370  137.9830 C   0  0  0  0  0  0  0  0  0  0  0  0
  191.8590  175.4780  137.1110 C   0  0  0  0  0  3  0  0  0  0  0  0
  189.6630  176.4190  142.6450 C   0  0  0  0  0  2  0  0  0  0  0  0
  189.5020  177.8790  142.9450 C   0  0  0  0  0  0  0  0  0  0  0  0
  186.5390  174.1190  134.3460 C   0  0  0  0  0  3  0  0  0  0  0  0
  188.7500  178.6410  142.1490 C   0  0  0  0  0  3  0  0  0  0  0  0
  186.1280  175.2230  135.0960 C   0  0  0  0  0  0  0  0  0  0  0  0
  186.0650  172.8410  134.6580 C   0  0  0  0  0  3  0  0  0  0  0  0
  186.4970  177.5580  135.8860 C   0  0  1  0  0  0  0  0  0  0  0  0
  185.3450  177.3910  136.8360 C   0  0  0  0  0  3  0  0  0  0  0  0
  189.9930  176.6820  140.1400 C   0  0  0  0  0  0  0  0  0  0  0  0
  188.0190  178.0760  140.9720 C   0  0  0  0  0  2  0  0  0  0  0  0
  188.9430  177.5490  139.9680 N   0  0  0  0  0  0  0  0  0  0  0  0
  190.2190  178.4760  144.0880 C   0  0  0  0  0  0  0  0  0  0  0  0
  191.4910  179.0870  143.8960 N   0  0  0  0  0  1  0  0  0  0  0  0
  189.7150  178.4510  145.2430 O   0  0  0  0  0  0  0  0  0  0  0  0
  184.6640  171.3080  136.0400 C   0  0  0  0  0  0  0  0  0  0  0  0
  183.7620  171.1550  136.9070 O   0  0  0  0  0  0  0  0  0  0  0  0
  185.1940  170.1640  135.3770 N   0  0  0  0  0  1  0  0  0  0  0  0
  1 28  1  0  0  0  0
  2 18  1  0  0  0  0
  4 26  2  0  0  0  0
  5 22  1  0  0  0  0
  6 32  1  0  0  0  0
  6 11  1  0  0  0  0
  7 14  1  6  0  0  0
  7  8  1  0  0  0  0
  8  1  1  0  0  0  0
  9 16  1  0  0  0  0
 10  9  2  0  0  0  0
 10 17  1  0  0  0  0
 12 11  2  0  0  0  0
 12  3  1  0  0  0  0
 13  7  1  0  0  0  0
 13  9  1  0  0  0  0
 14 24  1  0  0  0  0
 15  4  1  0  0  0  0
 16  1  2  0  0  0  0
 16  4  1  0  0  0  0
 17 15  2  0  0  0  0
 18 19  1  0  0  0  0
 19 29  1  0  0  0  0
 20 23  1  0  0  0  0
 20 22  2  0  0  0  0
 21 19  2  0  0  0  0
 22 12  1  0  0  0  0
 23  6  2  0  0  0  0
 24  5  1  6  0  0  0
 24  7  1  0  0  0  0
 24 25  1  0  0  0  0
 25  3  2  0  0  0  0
 26  2  1  0  0  0  0
 27 21  1  0  0  0  0
 28 26  1  0  0  0  0
 28 27  1  0  0  0  0
 29 31  2  0  0  0  0
 30 29  1  0  0  0  0
 32 33  2  0  0  0  0
 34 32  1  0  0  0  0
M  END
>  <MODEL>
2

>  <REMARK>
 VINA RESULT:      -6.8      1.818      2.765
  Name = 
  2 active torsions:
  status: ('A' for Active; 'I' for Inactive)
    1  A    between atoms: C_3  and  C_25
    2  A    between atoms: C_7  and  C_11
                            x       y       z     vdW  Elec       q    Type
                         _______ _______ _______ _____ _____    ______ ____

>  <TORSDO>
F 2

$$$$
=
 OpenBabel10272415193D

 34 40  0  0  1  0  0  0  0  0999 V2000
  186.2840  175.5400  136.4210 C   0  0  0  0  0  0  0  0  0  0  0  0
  183.8490  172.9610  137.2960 C   0  0  0  0  0  2  0  0  0  0  0  0
  190.3110  176.1800  138.6160 C   0  0  0  0  0  3  0  0  0  0  0  0
  184.3780  175.4480  137.5360 C   0  0  0  0  0  0  0  0  0  0  0  0
  188.9940  178.7930  138.3610 C   0  0  0  0  0  2  0  0  0  0  0  0
  189.6770  177.0330  142.2380 C   0  0  0  0  0  0  0  0  0  0  0  0
  187.7380  177.5530  136.4220 C   0  0  2  0  0  0  0  0  0  0  0  0
  187.5010  176.1560  135.7960 C   0  0  0  0  0  2  0  0  0  0  0  0
  185.3960  177.6350  137.3460 C   0  0  0  0  0  0  0  0  0  0  0  0
  184.3220  178.1790  138.0730 C   0  0  0  0  0  3  0  0  0  0  0  0
  190.1040  176.3640  141.0830 C   0  0  0  0  0  3  0  0  0  0  0  0
  189.8650  176.9090  139.8190 C   0  0  0  0  0  0  0  0  0  0  0  0
  186.5240  178.4530  136.7760 C   0  0  0  0  0  2  0  0  0  0  0  0
  188.9240  178.3050  135.8410 C   0  0  0  0  0  2  0  0  0  0  0  0
  183.2990  175.9450  138.2680 C   0  0  0  0  0  3  0  0  0  0  0  0
  185.3620  176.2750  137.0980 C   0  0  0  0  0  0  0  0  0  0  0  0
  183.2800  177.3350  138.5340 C   0  0  0  0  0  3  0  0  0  0  0  0
  184.5600  171.6410  137.0280 C   0  0  0  0  0  2  0  0  0  0  0  0
  184.8590  171.5000  135.5650 C   0  0  0  0  0  0  0  0  0  0  0  0
  188.7770  178.8170  140.8550 C   0  0  0  0  0  3  0  0  0  0  0  0
  185.8360  172.2230  135.0150 C   0  0  0  0  0  3  0  0  0  0  0  0
  189.1920  178.1450  139.7020 C   0  0  0  0  0  0  0  0  0  0  0  0
  189.0120  178.2620  142.1160 C   0  0  0  0  0  3  0  0  0  0  0  0
  189.0030  177.7400  137.2500 C   0  0  1  0  0  0  0  0  0  0  0  0
  189.9350  176.5720  137.3980 C   0  0  0  0  0  3  0  0  0  0  0  0
  184.7200  174.1750  137.1040 C   0  0  0  0  0  0  0  0  0  0  0  0
  186.6830  173.1550  135.8240 C   0  0  0  0  0  2  0  0  0  0  0  0
  185.8900  174.2460  136.3910 N   0  0  0  0  0  0  0  0  0  0  0  0
  184.0360  170.6030  134.7320 C   0  0  0  0  0  0  0  0  0  0  0  0
  182.7200  170.9880  134.3490 N   0  0  0  0  0  1  0  0  0  0  0  0
  184.4890  169.4900  134.3510 O   0  0  0  0  0  0  0  0  0  0  0  0
  189.9260  176.4510  143.5690 C   0  0  0  0  0  0  0  0  0  0  0  0
  189.0540  176.5380  144.4750 O   0  0  0  0  0  0  0  0  0  0  0  0
  191.1550  175.7850  143.8470 N   0  0  0  0  0  1  0  0  0  0  0  0
  1 16  2  0  0  0  0
  3 12  1  0  0  0  0
  4 15  1  0  0  0  0
  5 22  1  0  0  0  0
  6 32  1  0  0  0  0
  7  8  1  6  0  0  0
  7 13  1  0  0  0  0
  7 24  1  0  0  0  0
  8  1  1  0  0  0  0
  9 10  2  0  0  0  0
 10 17  1  0  0  0  0
 11  6  2  0  0  0  0
 12 11  1  0  0  0  0
 13  9  1  0  0  0  0
 14  7  1  0  0  0  0
 15 17  2  0  0  0  0
 16  9  1  0  0  0  0
 16  4  1  0  0  0  0
 18  2  1  0  0  0  0
 19 18  1  0  0  0  0
 20 23  2  0  0  0  0
 21 19  2  0  0  0  0
 21 27  1  0  0  0  0
 22 12  2  0  0  0  0
 22 20  1  0  0  0  0
 23  6  1  0  0  0  0
 24 14  1  6  0  0  0
 24 25  1  0  0  0  0
 24  5  1  0  0  0  0
 25  3  2  0  0  0  0
 26  2  1  0  0  0  0
 26  4  2  0  0  0  0
 27 28  1  0  0  0  0
 28  1  1  0  0  0  0
 28 26  1  0  0  0  0
 29 19  1  0  0  0  0
 30 29  1  0  0  0  0
 31 29  2  0  0  0  0
 32 34  1  0  0  0  0
 32 33  2  0  0  0  0
M  END
>  <MODEL>
3

>  <REMARK>
 VINA RESULT:      -6.7      1.842      8.368
  Name = 
  2 active torsions:
  status: ('A' for Active; 'I' for Inactive)
    1  A    between atoms: C_3  and  C_25
    2  A    between atoms: C_7  and  C_11
                            x       y       z     vdW  Elec       q    Type
                         _______ _______ _______ _____ _____    ______ ____

>  <TORSDO>
F 2

$$$$
=
 OpenBabel10272415193D

 34 40  0  0  1  0  0  0  0  0999 V2000
  187.6470  178.1410  140.1990 C   0  0  0  0  0  0  0  0  0  0  0  0
  188.3140  176.7160  143.4960 C   0  0  0  0  0  2  0  0  0  0  0  0
  185.3890  175.9360  136.8100 C   0  0  0  0  0  3  0  0  0  0  0  0
  189.3670  177.2050  141.2210 C   0  0  0  0  0  0  0  0  0  0  0  0
  187.8420  177.0790  135.6680 C   0  0  0  0  0  2  0  0  0  0  0  0
  187.2660  172.8090  135.8390 C   0  0  0  0  0  0  0  0  0  0  0  0
  187.6460  178.6410  137.7660 C   0  0  2  0  0  0  0  0  0  0  0  0
  186.8850  178.8270  139.1020 C   0  0  0  0  0  2  0  0  0  0  0  0
  189.7610  177.9730  138.9610 C   0  0  0  0  0  0  0  0  0  0  0  0
  191.0930  177.5340  139.0610 C   0  0  0  0  0  3  0  0  0  0  0  0
  186.2660  173.6680  136.3150 C   0  0  0  0  0  3  0  0  0  0  0  0
  186.4500  175.0520  136.2910 C   0  0  0  0  0  0  0  0  0  0  0  0
  189.1970  178.6750  137.7540 C   0  0  0  0  0  2  0  0  0  0  0  0
  186.9960  179.3270  136.5760 C   0  0  0  0  0  2  0  0  0  0  0  0
  190.6790  176.7470  141.3600 C   0  0  0  0  0  3  0  0  0  0  0  0
  188.9550  177.7960  140.0700 C   0  0  0  0  0  0  0  0  0  0  0  0
  191.5480  176.9200  140.2560 C   0  0  0  0  0  3  0  0  0  0  0  0
  186.9410  176.5110  144.1210 C   0  0  0  0  0  2  0  0  0  0  0  0
  186.2640  177.8330  144.3320 C   0  0  0  0  0  0  0  0  0  0  0  0
  188.6430  174.7370  135.2970 C   0  0  0  0  0  3  0  0  0  0  0  0
  185.7700  178.4980  143.2860 C   0  0  0  0  0  3  0  0  0  0  0  0
  187.6510  175.5930  135.7810 C   0  0  0  0  0  0  0  0  0  0  0  0
  188.4550  173.3530  135.3310 C   0  0  0  0  0  3  0  0  0  0  0  0
  186.9630  177.8120  136.6850 C   0  0  1  0  0  0  0  0  0  0  0  0
  185.6040  177.2420  136.9790 C   0  0  0  0  0  3  0  0  0  0  0  0
  188.2700  177.1990  142.0700 C   0  0  0  0  0  0  0  0  0  0  0  0
  185.8330  177.9480  141.8950 C   0  0  0  0  0  2  0  0  0  0  0  0
  187.2150  177.8060  141.4360 N   0  0  0  0  0  0  0  0  0  0  0  0
  186.1960  178.4140  145.6850 C   0  0  0  0  0  0  0  0  0  0  0  0
  185.0240  179.1030  146.1110 N   0  0  0  0  0  1  0  0  0  0  0  0
  187.1710  178.3090  146.4770 O   0  0  0  0  0  0  0  0  0  0  0  0
  187.0710  171.3490  135.8720 C   0  0  0  0  0  0  0  0  0  0  0  0
  188.0330  170.5840  136.1480 O   0  0  0  0  0  0  0  0  0  0  0  0
  185.7920  170.7860  135.5910 N   0  0  0  0  0  1  0  0  0  0  0  0
  1 28  1  0  0  0  0
  2 18  1  0  0  0  0
  3 25  2  0  0  0  0
  4 15  1  0  0  0  0
  4 26  2  0  0  0  0
  5 22  1  0  0  0  0
  6 32  1  0  0  0  0
  6 11  1  0  0  0  0
  7 14  1  6  0  0  0
  7  8  1  0  0  0  0
  8  1  1  0  0  0  0
  9 10  2  0  0  0  0
  9 16  1  0  0  0  0
 10 17  1  0  0  0  0
 12 11  2  0  0  0  0
 12  3  1  0  0  0  0
 13  7  1  0  0  0  0
 13  9  1  0  0  0  0
 14 24  1  0  0  0  0
 16  1  2  0  0  0  0
 16  4  1  0  0  0  0
 17 15  2  0  0  0  0
 18 19  1  0  0  0  0
 19 29  1  0  0  0  0
 20 23  1  0  0  0  0
 20 22  2  0  0  0  0
 21 19  2  0  0  0  0
 22 12  1  0  0  0  0
 23  6  2  0  0  0  0
 24  5  1  6  0  0  0
 24 25  1  0  0  0  0
 24  7  1  0  0  0  0
 26  2  1  0  0  0  0
 27 21  1  0  0  0  0
 28 27  1  0  0  0  0
 28 26  1  0  0  0  0
 29 30  1  0  0  0  0
 29 31  2  0  0  0  0
 32 33  2  0  0  0  0
 34 32  1  0  0  0  0
M  END
>  <MODEL>
4

>  <REMARK>
 VINA RESULT:      -6.5      2.355      3.282
  Name = 
  2 active torsions:
  status: ('A' for Active; 'I' for Inactive)
    1  A    between atoms: C_3  and  C_25
    2  A    between atoms: C_7  and  C_11
                            x       y       z     vdW  Elec       q    Type
                         _______ _______ _______ _____ _____    ______ ____

>  <TORSDO>
F 2

$$$$
=
 OpenBabel10272415193D

 34 40  0  0  1  0  0  0  0  0999 V2000
  183.7080  179.0080  141.5970 C   0  0  0  0  0  0  0  0  0  0  0  0
  186.5610  177.6490  143.4300 C   0  0  0  0  0  2  0  0  0  0  0  0
  180.0940  176.4960  140.1570 C   0  0  0  0  0  3  0  0  0  0  0  0
  185.7800  178.4050  141.1190 C   0  0  0  0  0  0  0  0  0  0  0  0
  181.0100  178.1400  137.9010 C   0  0  0  0  0  2  0  0  0  0  0  0
  181.2580  173.8370  137.7440 C   0  0  0  0  0  0  0  0  0  0  0  0
  182.0400  179.5680  139.8440 C   0  0  2  0  0  0  0  0  0  0  0  0
  182.3310  179.5590  141.3660 C   0  0  0  0  0  2  0  0  0  0  0  0
  184.4820  179.3020  139.2850 C   0  0  0  0  0  0  0  0  0  0  0  0
  185.5930  179.1360  138.4390 C   0  0  0  0  0  3  0  0  0  0  0  0
  180.7170  174.4650  138.8740 C   0  0  0  0  0  3  0  0  0  0  0  0
  180.6550  175.8580  138.9510 C   0  0  0  0  0  0  0  0  0  0  0  0
  183.1770  179.9130  138.8460 C   0  0  0  0  0  2  0  0  0  0  0  0
  180.6850  180.1460  139.4710 C   0  0  0  0  0  2  0  0  0  0  0  0
  186.9030  178.2150  140.3130 C   0  0  0  0  0  3  0  0  0  0  0  0
  184.6380  178.9350  140.6080 C   0  0  0  0  0  0  0  0  0  0  0  0
  186.7980  178.5910  138.9530 C   0  0  0  0  0  3  0  0  0  0  0  0
  185.9820  177.1550  144.7500 C   0  0  0  0  0  2  0  0  0  0  0  0
  185.4450  178.3080  145.5440 C   0  0  0  0  0  0  0  0  0  0  0  0
  181.6670  176.0180  136.7490 C   0  0  0  0  0  3  0  0  0  0  0  0
  184.3030  178.8920  145.1770 C   0  0  0  0  0  3  0  0  0  0  0  0
  181.1380  176.6430  137.8810 C   0  0  0  0  0  0  0  0  0  0  0  0
  181.7330  174.6230  136.6830 C   0  0  0  0  0  3  0  0  0  0  0  0
  180.9310  178.6520  139.3420 C   0  0  1  0  0  0  0  0  0  0  0  0
  180.1930  177.8130  140.3460 C   0  0  0  0  0  3  0  0  0  0  0  0
  185.5260  178.1550  142.4600 C   0  0  0  0  0  0  0  0  0  0  0  0
  183.5070  178.4070  144.0060 C   0  0  0  0  0  2  0  0  0  0  0  0
  184.2470  178.5570  142.7530 N   0  0  0  0  0  0  0  0  0  0  0  0
  186.2090  178.8240  146.6950 C   0  0  0  0  0  0  0  0  0  0  0  0
  187.3910  178.1580  147.1290 N   0  0  0  0  0  1  0  0  0  0  0  0
  185.8250  179.8580  147.3060 O   0  0  0  0  0  0  0  0  0  0  0  0
  181.3270  172.3670  137.6700 C   0  0  0  0  0  0  0  0  0  0  0  0
  180.3710  171.6630  138.0940 O   0  0  0  0  0  0  0  0  0  0  0  0
  182.4720  171.7260  137.1170 N   0  0  0  0  0  1  0  0  0  0  0  0
  1 28  1  0  0  0  0
  2 18  1  0  0  0  0
  3 25  2  0  0  0  0
  4 26  2  0  0  0  0
  6 11  1  0  0  0  0
  7 13  1  6  0  0  0
  7  8  1  0  0  0  0
  8  1  1  0  0  0  0
  9 16  1  0  0  0  0
 10 17  1  0  0  0  0
 10  9  2  0  0  0  0
 11 12  2  0  0  0  0
 12  3  1  0  0  0  0
 13  9  1  0  0  0  0
 14  7  1  0  0  0  0
 15  4  1  0  0  0  0
 16  4  1  0  0  0  0
 16  1  2  0  0  0  0
 17 15  2  0  0  0  0
 18 19  1  0  0  0  0
 19 29  1  0  0  0  0
 20 22  2  0  0  0  0
 21 19  2  0  0  0  0
 22  5  1  0  0  0  0
 22 12  1  0  0  0  0
 23 20  1  0  0  0  0
 23  6  2  0  0  0  0
 24  5  1  6  0  0  0
 24 14  1  0  0  0  0
 24  7  1  0  0  0  0
 24 25  1  0  0  0  0
 26 28  1  0  0  0  0
 26  2  1  0  0  0  0
 27 21  1  0  0  0  0
 28 27  1  0  0  0  0
 29 30  1  0  0  0  0
 29 31  2  0  0  0  0
 32  6  1  0  0  0  0
 32 33  2  0  0  0  0
 34 32  1  0  0  0  0
M  END
>  <MODEL>
5

>  <REMARK>
 VINA RESULT:      -6.2      2.545      3.301
  Name = 
  2 active torsions:
  status: ('A' for Active; 'I' for Inactive)
    1  A    between atoms: C_3  and  C_25
    2  A    between atoms: C_7  and  C_11
                            x       y       z     vdW  Elec       q    Type
                         _______ _______ _______ _____ _____    ______ ____

>  <TORSDO>
F 2

$$$$
=
 OpenBabel10272415193D

 34 40  0  0  1  0  0  0  0  0999 V2000
  184.8620  176.2940  136.0350 C   0  0  0  0  0  0  0  0  0  0  0  0
  187.9540  174.9710  137.4600 C   0  0  0  0  0  2  0  0  0  0  0  0
  182.1790  179.4550  138.0980 C   0  0  0  0  0  3  0  0  0  0  0  0
  185.4800  174.4560  137.0940 C   0  0  0  0  0  0  0  0  0  0  0  0
  180.4520  177.2650  137.1780 C   0  0  0  0  0  2  0  0  0  0  0  0
  180.9000  178.1070  141.3830 C   0  0  0  0  0  0  0  0  0  0  0  0
  182.4820  176.8360  135.5740 C   0  0  2  0  0  0  0  0  0  0  0  0
  183.9530  177.2400  135.3060 C   0  0  0  0  0  2  0  0  0  0  0  0
  183.1660  174.5550  136.3950 C   0  0  0  0  0  0  0  0  0  0  0  0
  182.9640  173.2740  136.9410 C   0  0  0  0  0  3  0  0  0  0  0  0
  181.5690  178.8960  140.4380 C   0  0  0  0  0  3  0  0  0  0  0  0
  181.4550  178.6190  139.0740 C   0  0  0  0  0  0  0  0  0  0  0  0
  182.1020  175.3340  135.6670 C   0  0  0  0  0  2  0  0  0  0  0  0
  181.4570  177.6960  134.8540 C   0  0  0  0  0  2  0  0  0  0  0  0
  185.3210  173.1880  137.6560 C   0  0  0  0  0  3  0  0  0  0  0  0
  184.4390  175.0840  136.4880 C   0  0  0  0  0  0  0  0  0  0  0  0
  184.0380  172.5960  137.5710 C   0  0  0  0  0  3  0  0  0  0  0  0
  188.8930  176.1680  137.5420 C   0  0  0  0  0  2  0  0  0  0  0  0
  189.2120  176.6720  136.1660 C   0  0  0  0  0  0  0  0  0  0  0  0
  179.9830  176.7560  139.5830 C   0  0  0  0  0  3  0  0  0  0  0  0
  188.2910  177.3480  135.4780 C   0  0  0  0  0  3  0  0  0  0  0  0
  180.6580  177.5360  138.6410 C   0  0  0  0  0  0  0  0  0  0  0  0
  180.1070  177.0350  140.9470 C   0  0  0  0  0  3  0  0  0  0  0  0
  181.6220  177.8180  136.3600 C   0  0  1  0  0  0  0  0  0  0  0  0
  182.2480  179.1070  136.8120 C   0  0  0  0  0  3  0  0  0  0  0  0
  186.5640  175.3170  136.9960 C   0  0  0  0  0  0  0  0  0  0  0  0
  186.9440  177.6600  136.0520 C   0  0  0  0  0  2  0  0  0  0  0  0
  186.1770  176.4430  136.3150 N   0  0  0  0  0  0  0  0  0  0  0  0
  190.5220  176.3720  135.5600 C   0  0  0  0  0  0  0  0  0  0  0  0
  191.5560  175.7810  136.3430 N   0  0  0  0  0  1  0  0  0  0  0  0
  190.7420  176.6330  134.3460 O   0  0  0  0  0  0  0  0  0  0  0  0
  181.0280  178.4000  142.8220 C   0  0  0  0  0  0  0  0  0  0  0  0
  182.0600  178.9720  143.2660 O   0  0  0  0  0  0  0  0  0  0  0  0
  179.9870  178.0400  143.7260 N   0  0  0  0  0  1  0  0  0  0  0  0
  1 28  1  0  0  0  0
  1 16  2  0  0  0  0
  2 18  1  0  0  0  0
  3 12  1  0  0  0  0
  4 15  1  0  0  0  0
  5 22  1  0  0  0  0
  6 32  1  0  0  0  0
  7 14  1  6  0  0  0
  7 13  1  0  0  0  0
  7 24  1  0  0  0  0
  8  7  1  0  0  0  0
  8  1  1  0  0  0  0
  9 16  1  0  0  0  0
  9 10  2  0  0  0  0
 10 17  1  0  0  0  0
 11  6  2  0  0  0  0
 12 11  1  0  0  0  0
 13  9  1  0  0  0  0
 16  4  1  0  0  0  0
 17 15  2  0  0  0  0
 19 18  1  0  0  0  0
 20 23  2  0  0  0  0
 21 27  1  0  0  0  0
 21 19  2  0  0  0  0
 22 12  2  0  0  0  0
 22 20  1  0  0  0  0
 23  6  1  0  0  0  0
 24 14  1  6  0  0  0
 24 25  1  0  0  0  0
 24  5  1  0  0  0  0
 25  3  2  0  0  0  0
 26  4  2  0  0  0  0
 26  2  1  0  0  0  0
 27 28  1  0  0  0  0
 28 26  1  0  0  0  0
 29 19  1  0  0  0  0
 29 30  1  0  0  0  0
 31 29  2  0  0  0  0
 32 33  2  0  0  0  0
 32 34  1  0  0  0  0
M  END
>  <MODEL>
6

>  <REMARK>
 VINA RESULT:      -5.2      4.509      6.858
  Name = 
  2 active torsions:
  status: ('A' for Active; 'I' for Inactive)
    1  A    between atoms: C_3  and  C_25
    2  A    between atoms: C_7  and  C_11
                            x       y       z     vdW  Elec       q    Type
                         _______ _______ _______ _____ _____    ______ ____

>  <TORSDO>
F 2

$$$$
=
 OpenBabel10272415193D

 34 40  0  0  1  0  0  0  0  0999 V2000
  187.1830  175.2960  136.6180 C   0  0  0  0  0  0  0  0  0  0  0  0
  184.6980  172.6350  136.9150 C   0  0  0  0  0  2  0  0  0  0  0  0
  190.1290  176.5040  139.9810 C   0  0  0  0  0  3  0  0  0  0  0  0
  185.0100  175.1690  136.9960 C   0  0  0  0  0  0  0  0  0  0  0  0
  188.8910  178.9550  138.9390 C   0  0  0  0  0  2  0  0  0  0  0  0
  188.2080  177.6920  143.0050 C   0  0  0  0  0  0  0  0  0  0  0  0
  188.4620  177.4110  136.8630 C   0  0  2  0  0  0  0  0  0  0  0  0
  188.5190  175.9390  136.3840 C   0  0  0  0  0  2  0  0  0  0  0  0
  185.9430  177.3990  136.8880 C   0  0  0  0  0  0  0  0  0  0  0  0
  184.6600  177.9290  137.1130 C   0  0  0  0  0  3  0  0  0  0  0  0
  189.0450  176.9390  142.1710 C   0  0  0  0  0  3  0  0  0  0  0  0
  189.2550  177.3200  140.8440 C   0  0  0  0  0  0  0  0  0  0  0  0
  187.1690  178.2400  136.6470 C   0  0  0  0  0  2  0  0  0  0  0  0
  189.7480  178.1900  136.6420 C   0  0  0  0  0  2  0  0  0  0  0  0
  183.7220  175.6520  137.2300 C   0  0  0  0  0  3  0  0  0  0  0  0
  186.0530  176.0220  136.8250 C   0  0  0  0  0  0  0  0  0  0  0  0
  183.5550  177.0570  137.2870 C   0  0  0  0  0  3  0  0  0  0  0  0
  185.5080  171.3580  137.0900 C   0  0  0  0  0  2  0  0  0  0  0  0
  186.3160  171.0830  135.8570 C   0  0  0  0  0  0  0  0  0  0  0  0
  187.7950  179.2340  141.1710 C   0  0  0  0  0  3  0  0  0  0  0  0
  187.3970  171.8190  135.5940 C   0  0  0  0  0  3  0  0  0  0  0  0
  188.6210  178.4760  140.3370 C   0  0  0  0  0  0  0  0  0  0  0  0
  187.5840  178.8410  142.4960 C   0  0  0  0  0  3  0  0  0  0  0  0
  189.3390  177.7920  138.0500 C   0  0  1  0  0  0  0  0  0  0  0  0
  190.2000  176.7270  138.6680 C   0  0  0  0  0  3  0  0  0  0  0  0
  185.5330  173.8890  136.8830 C   0  0  0  0  0  0  0  0  0  0  0  0
  187.8610  172.9010  136.5190 C   0  0  0  0  0  2  0  0  0  0  0  0
  186.8770  173.9790  136.6220 N   0  0  0  0  0  0  0  0  0  0  0  0
  185.8820  170.0350  134.9140 C   0  0  0  0  0  0  0  0  0  0  0  0
  184.5700  170.0680  134.3600 N   0  0  0  0  0  1  0  0  0  0  0  0
  186.6640  169.1010  134.5900 O   0  0  0  0  0  0  0  0  0  0  0  0
  187.9850  177.2830  144.4030 C   0  0  0  0  0  0  0  0  0  0  0  0
  188.9640  177.0820  145.1710 O   0  0  0  0  0  0  0  0  0  0  0  0
  186.6620  177.1100  144.9020 N   0  0  0  0  0  1  0  0  0  0  0  0
  1 28  1  0  0  0  0
  1 16  2  0  0  0  0
  2 18  1  0  0  0  0
  3 12  1  0  0  0  0
  4 15  1  0  0  0  0
  5 22  1  0  0  0  0
  6 32  1  0  0  0  0
  7  8  1  6  0  0  0
  7 24  1  0  0  0  0
  8  1  1  0  0  0  0
  9 10  2  0  0  0  0
 10 17  1  0  0  0  0
 11  6  2  0  0  0  0
 12 11  1  0  0  0  0
 13  7  1  0  0  0  0
 13  9  1  0  0  0  0
 14  7  1  0  0  0  0
 15 17  2  0  0  0  0
 16  9  1  0  0  0  0
 16  4  1  0  0  0  0
 19 18  1  0  0  0  0
 20 23  2  0  0  0  0
 21 19  2  0  0  0  0
 21 27  1  0  0  0  0
 22 12  2  0  0  0  0
 22 20  1  0  0  0  0
 23  6  1  0  0  0  0
 24 14  1  6  0  0  0
 24 25  1  0  0  0  0
 24  5  1  0  0  0  0
 25  3  2  0  0  0  0
 26  2  1  0  0  0  0
 26  4  2  0  0  0  0
 27 28  1  0  0  0  0
 28 26  1  0  0  0  0
 29 19  1  0  0  0  0
 30 29  1  0  0  0  0
 31 29  2  0  0  0  0
 32 34  1  0  0  0  0
 32 33  2  0  0  0  0
M  END
>  <MODEL>
7

>  <REMARK>
 VINA RESULT:      -5.0      2.185      8.214
  Name = 
  2 active torsions:
  status: ('A' for Active; 'I' for Inactive)
    1  A    between atoms: C_3  and  C_25
    2  A    between atoms: C_7  and  C_11
                            x       y       z     vdW  Elec       q    Type
                         _______ _______ _______ _____ _____    ______ ____

>  <TORSDO>
F 2

$$$$
=
 OpenBabel10272415193D

 34 40  0  0  1  0  0  0  0  0999 V2000
  186.4200  175.5550  137.1660 C   0  0  0  0  0  0  0  0  0  0  0  0
  183.6660  173.1620  137.3440 C   0  0  0  0  0  2  0  0  0  0  0  0
  189.4370  176.3230  140.5960 C   0  0  0  0  0  3  0  0  0  0  0  0
  184.2410  175.6440  137.5220 C   0  0  0  0  0  0  0  0  0  0  0  0
  188.4760  178.9270  139.6360 C   0  0  0  0  0  2  0  0  0  0  0  0
  187.6150  177.5960  143.6470 C   0  0  0  0  0  0  0  0  0  0  0  0
  187.9110  177.5130  137.5010 C   0  0  2  0  0  0  0  0  0  0  0  0
  187.8190  176.0620  136.9670 C   0  0  0  0  0  2  0  0  0  0  0  0
  185.4050  177.7650  137.5050 C   0  0  0  0  0  0  0  0  0  0  0  0
  184.1820  178.4190  137.7400 C   0  0  0  0  0  3  0  0  0  0  0  0
  188.3780  176.7890  142.7920 C   0  0  0  0  0  3  0  0  0  0  0  0
  188.6430  177.1950  141.4810 C   0  0  0  0  0  0  0  0  0  0  0  0
  186.7150  178.4820  137.3050 C   0  0  0  0  0  2  0  0  0  0  0  0
  189.2740  178.1600  137.3190 C   0  0  0  0  0  2  0  0  0  0  0  0
  183.0080  176.2510  137.7640 C   0  0  0  0  0  3  0  0  0  0  0  0
  185.3700  176.3880  137.3920 C   0  0  0  0  0  0  0  0  0  0  0  0
  182.9890  177.6630  137.8720 C   0  0  0  0  0  3  0  0  0  0  0  0
  184.3350  171.8010  137.4770 C   0  0  0  0  0  2  0  0  0  0  0  0
  185.1240  171.4870  136.2420 C   0  0  0  0  0  0  0  0  0  0  0  0
  187.3880  179.2380  141.8680 C   0  0  0  0  0  3  0  0  0  0  0  0
  186.2790  172.1150  136.0150 C   0  0  0  0  0  3  0  0  0  0  0  0
  188.1400  178.4290  141.0130 C   0  0  0  0  0  0  0  0  0  0  0  0
  187.1220  178.8220  143.1760 C   0  0  0  0  0  3  0  0  0  0  0  0
  188.8090  177.7560  138.7080 C   0  0  1  0  0  0  0  0  0  0  0  0
  189.5460  176.5850  139.2930 C   0  0  0  0  0  3  0  0  0  0  0  0
  184.6280  174.3210  137.3650 C   0  0  0  0  0  0  0  0  0  0  0  0
  186.8440  173.1080  136.9830 C   0  0  0  0  0  2  0  0  0  0  0  0
  185.9770  174.2780  137.1190 N   0  0  0  0  0  0  0  0  0  0  0  0
  184.5940  170.5260  135.2570 C   0  0  0  0  0  0  0  0  0  0  0  0
  183.5720  170.9220  134.3470 N   0  0  0  0  0  1  0  0  0  0  0  0
  185.0370  169.3470  135.2100 O   0  0  0  0  0  0  0  0  0  0  0  0
  187.3340  177.1620  145.0260 C   0  0  0  0  0  0  0  0  0  0  0  0
  188.2180  177.2670  145.9190 O   0  0  0  0  0  0  0  0  0  0  0  0
  186.0620  176.6190  145.3670 N   0  0  0  0  0  1  0  0  0  0  0  0
  1 16  2  0  0  0  0
  2 26  1  0  0  0  0
  2 18  1  0  0  0  0
  3 12  1  0  0  0  0
  4 15  1  0  0  0  0
  5 22  1  0  0  0  0
  6 32  1  0  0  0  0
  7  8  1  6  0  0  0
  7 24  1  0  0  0  0
  8  1  1  0  0  0  0
  9 10  2  0  0  0  0
 10 17  1  0  0  0  0
 11  6  2  0  0  0  0
 12 11  1  0  0  0  0
 13  7  1  0  0  0  0
 13  9  1  0  0  0  0
 14  7  1  0  0  0  0
 15 17  2  0  0  0  0
 16  9  1  0  0  0  0
 16  4  1  0  0  0  0
 19 18  1  0  0  0  0
 20 23  2  0  0  0  0
 21 19  2  0  0  0  0
 21 27  1  0  0  0  0
 22 12  2  0  0  0  0
 22 20  1  0  0  0  0
 23  6  1  0  0  0  0
 24 14  1  6  0  0  0
 24 25  1  0  0  0  0
 24  5  1  0  0  0  0
 25  3  2  0  0  0  0
 26  4  2  0  0  0  0
 27 28  1  0  0  0  0
 28  1  1  0  0  0  0
 28 26  1  0  0  0  0
 29 19  1  0  0  0  0
 30 29  1  0  0  0  0
 31 29  2  0  0  0  0
 32 34  1  0  0  0  0
 32 33  2  0  0  0  0
M  END
>  <MODEL>
8

>  <REMARK>
 VINA RESULT:      -4.2      1.857      8.130
  Name = 
  2 active torsions:
  status: ('A' for Active; 'I' for Inactive)
    1  A    between atoms: C_3  and  C_25
    2  A    between atoms: C_7  and  C_11
                            x       y       z     vdW  Elec       q    Type
                         _______ _______ _______ _____ _____    ______ ____

>  <TORSDO>
F 2

$$$$
