=
 OpenBabel10272401073D

 27 31  0  0  1  0  0  0  0  0999 V2000
  187.3690  178.4390  142.0430 N   0  0  0  0  0  2  0  0  0  0  0  0
  187.7910  177.5650  144.2570 C   0  0  0  0  0  0  0  0  0  0  0  0
  189.3610  176.3220  142.8390 O   0  0  0  0  0  0  0  0  0  0  0  0
  190.4260  177.2300  147.4850 C   0  0  0  0  0  3  0  0  0  0  0  0
  192.4790  176.4320  148.3970 F   0  0  0  0  0  0  0  0  0  0  0  0
  187.5060  178.1320  145.5090 C   0  0  0  0  0  3  0  0  0  0  0  0
  191.1040  176.0730  145.0260 C   0  0  0  0  0  3  0  0  0  0  0  0
  190.4200  177.1490  139.4130 C   0  0  0  0  0  0  0  0  0  0  0  0
  191.9720  175.9630  146.1150 C   0  0  0  0  0  3  0  0  0  0  0  0
  191.3730  176.7050  138.5080 O   0  0  0  0  0  1  0  0  0  0  0  0
  189.8900  176.7590  145.1580 C   0  0  0  0  0  0  0  0  0  0  0  0
  186.8190  177.6350  143.1190 C   0  0  1  0  0  3  0  0  0  0  0  0
  191.6350  176.5400  147.3430 C   0  0  0  0  0  0  0  0  0  0  0  0
  189.5530  177.3430  146.4000 C   0  0  0  0  0  0  0  0  0  0  0  0
  188.4700  178.0250  141.2320 C   0  0  0  0  0  0  0  0  0  0  0  0
  189.0100  176.8940  144.0720 C   0  0  0  0  0  0  0  0  0  0  0  0
  190.2930  176.5260  140.6550 C   0  0  0  0  0  3  0  0  0  0  0  0
  188.3820  178.0140  146.5400 N   0  0  0  0  0  0  0  0  0  0  0  0
  189.5960  178.2240  139.0880 C   0  0  0  0  0  3  0  0  0  0  0  0
  188.6240  178.6530  139.9920 C   0  0  0  0  0  3  0  0  0  0  0  0
  189.3440  176.9620  141.5880 C   0  0  0  0  0  0  0  0  0  0  0  0
  182.8520  178.9520  144.1480 C   0  0  0  0  0  3  0  0  0  0  0  0
  185.4440  178.1110  143.4930 C   0  0  0  0  0  0  0  0  0  0  0  0
  184.4780  178.2620  142.4910 C   0  0  0  0  0  3  0  0  0  0  0  0
  183.1860  178.6840  142.8170 C   0  0  0  0  0  3  0  0  0  0  0  0
  183.8110  178.7990  145.1530 C   0  0  0  0  0  3  0  0  0  0  0  0
  185.1040  178.3770  144.8280 C   0  0  0  0  0  3  0  0  0  0  0  0
  1 12  1  0  0  0  0
  2  6  1  0  0  0  0
  3 16  1  0  0  0  0
  6 18  2  0  0  0  0
  7 11  2  0  0  0  0
  7  9  1  0  0  0  0
  8 17  1  0  0  0  0
  9 13  2  0  0  0  0
 10  8  1  0  0  0  0
 11 14  1  0  0  0  0
 12 23  1  1  0  0  0
 12  2  1  0  0  0  0
 13  4  1  0  0  0  0
 13  5  1  0  0  0  0
 14 18  1  0  0  0  0
 14  4  2  0  0  0  0
 15 21  1  0  0  0  0
 15  1  1  0  0  0  0
 16  2  2  0  0  0  0
 16 11  1  0  0  0  0
 17 21  2  0  0  0  0
 19  8  2  0  0  0  0
 19 20  1  0  0  0  0
 20 15  2  0  0  0  0
 21  3  1  0  0  0  0
 22 26  1  0  0  0  0
 23 27  1  0  0  0  0
 24 25  1  0  0  0  0
 24 23  2  0  0  0  0
 25 22  2  0  0  0  0
 27 26  2  0  0  0  0
M  END
>  <MODEL>
1

>  <REMARK>
 VINA RESULT:     -11.3      0.000      0.000
  Name = 
  1 active torsions:
  status: ('A' for Active; 'I' for Inactive)
    1  A    between atoms: C_9  and  C_15
                            x       y       z     vdW  Elec       q    Type
                         _______ _______ _______ _____ _____    ______ ____

>  <TORSDO>
F 1

$$$$
=
 OpenBabel10272401073D

 27 31  0  0  1  0  0  0  0  0999 V2000
  186.1070  178.6610  141.7260 N   0  0  0  0  0  2  0  0  0  0  0  0
  185.7590  178.2250  144.0780 C   0  0  0  0  0  0  0  0  0  0  0  0
  187.7490  176.8970  143.5340 O   0  0  0  0  0  0  0  0  0  0  0  0
  187.1270  178.6860  148.0010 C   0  0  0  0  0  3  0  0  0  0  0  0
  188.7580  178.2400  149.6820 F   0  0  0  0  0  0  0  0  0  0  0  0
  185.0470  178.9730  145.0290 C   0  0  0  0  0  3  0  0  0  0  0  0
  188.6370  177.1840  146.1820 C   0  0  0  0  0  3  0  0  0  0  0  0
  189.9050  177.2080  140.5680 C   0  0  0  0  0  0  0  0  0  0  0  0
  189.0790  177.3410  147.4990 C   0  0  0  0  0  3  0  0  0  0  0  0
  191.1220  176.6980  140.1370 O   0  0  0  0  0  1  0  0  0  0  0  0
  187.4360  177.7740  145.7660 C   0  0  0  0  0  0  0  0  0  0  0  0
  185.2380  178.0110  142.6890 C   0  0  1  0  0  3  0  0  0  0  0  0
  188.3260  178.0900  148.4070 C   0  0  0  0  0  0  0  0  0  0  0  0
  186.6800  178.5320  146.6870 C   0  0  0  0  0  0  0  0  0  0  0  0
  187.4290  178.2110  141.4260 C   0  0  0  0  0  0  0  0  0  0  0  0
  186.9820  177.6410  144.4440 C   0  0  0  0  0  0  0  0  0  0  0  0
  189.3720  176.8000  141.7920 C   0  0  0  0  0  3  0  0  0  0  0  0
  185.5170  179.1120  146.2950 N   0  0  0  0  0  0  0  0  0  0  0  0
  189.2200  178.1340  139.7850 C   0  0  0  0  0  3  0  0  0  0  0  0
  187.9870  178.6260  140.2120 C   0  0  0  0  0  3  0  0  0  0  0  0
  188.1500  177.3060  142.2510 C   0  0  0  0  0  0  0  0  0  0  0  0
  181.1320  179.1390  142.0540 C   0  0  0  0  0  3  0  0  0  0  0  0
  183.8070  178.4230  142.4830 C   0  0  0  0  0  0  0  0  0  0  0  0
  183.2800  178.4290  141.1870 C   0  0  0  0  0  3  0  0  0  0  0  0
  181.9460  178.7880  140.9720 C   0  0  0  0  0  3  0  0  0  0  0  0
  181.6530  179.1300  143.3510 C   0  0  0  0  0  3  0  0  0  0  0  0
  182.9860  178.7700  143.5670 C   0  0  0  0  0  3  0  0  0  0  0  0
  1 12  1  0  0  0  0
  2 16  2  0  0  0  0
  2  6  1  0  0  0  0
  3 16  1  0  0  0  0
  4 13  1  0  0  0  0
  6 18  2  0  0  0  0
  7  9  1  0  0  0  0
  8 17  1  0  0  0  0
  9 13  2  0  0  0  0
 10  8  1  0  0  0  0
 11  7  2  0  0  0  0
 11 14  1  0  0  0  0
 12 23  1  1  0  0  0
 12  2  1  0  0  0  0
 13  5  1  0  0  0  0
 14  4  2  0  0  0  0
 15  1  1  0  0  0  0
 15 21  1  0  0  0  0
 16 11  1  0  0  0  0
 17 21  2  0  0  0  0
 18 14  1  0  0  0  0
 19 20  1  0  0  0  0
 19  8  2  0  0  0  0
 20 15  2  0  0  0  0
 21  3  1  0  0  0  0
 22 26  1  0  0  0  0
 23 27  1  0  0  0  0
 24 23  2  0  0  0  0
 25 24  1  0  0  0  0
 25 22  2  0  0  0  0
 26 27  2  0  0  0  0
M  END
>  <MODEL>
2

>  <REMARK>
 VINA RESULT:     -11.0      1.774      2.455
  Name = 
  1 active torsions:
  status: ('A' for Active; 'I' for Inactive)
    1  A    between atoms: C_9  and  C_15
                            x       y       z     vdW  Elec       q    Type
                         _______ _______ _______ _____ _____    ______ ____

>  <TORSDO>
F 1

$$$$
=
 OpenBabel10272401073D

 27 31  0  0  1  0  0  0  0  0999 V2000
  189.7510  178.2260  141.5330 N   0  0  0  0  0  2  0  0  0  0  0  0
  187.3390  178.0740  141.5770 C   0  0  0  0  0  0  0  0  0  0  0  0
  188.0180  177.0620  143.7060 O   0  0  0  0  0  0  0  0  0  0  0  0
  183.7470  179.3290  143.3080 C   0  0  0  0  0  3  0  0  0  0  0  0
  182.2900  179.4290  145.1920 F   0  0  0  0  0  0  0  0  0  0  0  0
  186.3860  178.8100  140.8560 C   0  0  0  0  0  3  0  0  0  0  0  0
  185.5860  177.8800  144.8450 C   0  0  0  0  0  3  0  0  0  0  0  0
  191.2900  177.3280  145.3690 C   0  0  0  0  0  0  0  0  0  0  0  0
  184.3770  178.2990  145.4080 C   0  0  0  0  0  3  0  0  0  0  0  0
  191.8370  176.9900  146.5980 O   0  0  0  0  0  1  0  0  0  0  0  0
  185.8820  178.1780  143.5090 C   0  0  0  0  0  0  0  0  0  0  0  0
  188.5990  177.5750  140.9380 C   0  0  1  0  0  3  0  0  0  0  0  0
  183.4590  179.0230  144.6420 C   0  0  0  0  0  0  0  0  0  0  0  0
  184.9520  178.9110  142.7380 C   0  0  0  0  0  0  0  0  0  0  0  0
  190.1920  177.9820  142.8700 C   0  0  0  0  0  0  0  0  0  0  0  0
  187.0960  177.7780  142.9270 C   0  0  0  0  0  0  0  0  0  0  0  0
  189.9610  177.0110  145.0850 C   0  0  0  0  0  3  0  0  0  0  0  0
  185.2290  179.2110  141.4440 N   0  0  0  0  0  0  0  0  0  0  0  0
  192.0640  177.9950  144.4210 C   0  0  0  0  0  3  0  0  0  0  0  0
  191.5160  178.3130  143.1780 C   0  0  0  0  0  3  0  0  0  0  0  0
  189.3850  177.3500  143.8540 C   0  0  0  0  0  0  0  0  0  0  0  0
  188.7620  177.9300  136.6520 C   0  0  0  0  0  3  0  0  0  0  0  0
  188.6350  177.6880  139.4400 C   0  0  0  0  0  0  0  0  0  0  0  0
  189.0980  178.8730  138.8570 C   0  0  0  0  0  3  0  0  0  0  0  0
  189.1600  178.9950  137.4660 C   0  0  0  0  0  3  0  0  0  0  0  0
  188.3030  176.7430  137.2290 C   0  0  0  0  0  3  0  0  0  0  0  0
  188.2410  176.6200  138.6200 C   0  0  0  0  0  3  0  0  0  0  0  0
  1 15  1  0  0  0  0
  2 16  1  0  0  0  0
  3 21  1  0  0  0  0
  4 13  2  0  0  0  0
  6 18  1  0  0  0  0
  6  2  2  0  0  0  0
  7  9  2  0  0  0  0
  8 10  1  0  0  0  0
 11  7  1  0  0  0  0
 12 23  1  6  0  0  0
 12  1  1  0  0  0  0
 12  2  1  0  0  0  0
 13  5  1  0  0  0  0
 13  9  1  0  0  0  0
 14  4  1  0  0  0  0
 14 11  1  0  0  0  0
 15 20  2  0  0  0  0
 15 21  1  0  0  0  0
 16 11  2  0  0  0  0
 16  3  1  0  0  0  0
 17  8  1  0  0  0  0
 18 14  2  0  0  0  0
 19  8  2  0  0  0  0
 20 19  1  0  0  0  0
 21 17  2  0  0  0  0
 22 26  2  0  0  0  0
 22 25  1  0  0  0  0
 24 23  1  0  0  0  0
 25 24  2  0  0  0  0
 26 27  1  0  0  0  0
 27 23  2  0  0  0  0
M  END
>  <MODEL>
3

>  <REMARK>
 VINA RESULT:     -10.3      2.952      6.264
  Name = 
  1 active torsions:
  status: ('A' for Active; 'I' for Inactive)
    1  A    between atoms: C_9  and  C_15
                            x       y       z     vdW  Elec       q    Type
                         _______ _______ _______ _____ _____    ______ ____

>  <TORSDO>
F 1

$$$$
=
 OpenBabel10272401073D

 27 31  0  0  1  0  0  0  0  0999 V2000
  189.9110  176.7260  142.4950 N   0  0  0  0  0  2  0  0  0  0  0  0
  188.0380  177.7430  143.6350 C   0  0  0  0  0  0  0  0  0  0  0  0
  188.0020  178.7920  141.4170 O   0  0  0  0  0  0  0  0  0  0  0  0
  183.8920  178.1890  143.9230 C   0  0  0  0  0  3  0  0  0  0  0  0
  181.8300  178.9490  142.9990 F   0  0  0  0  0  0  0  0  0  0  0  0
  187.3200  177.2890  144.7520 C   0  0  0  0  0  3  0  0  0  0  0  0
  185.2230  179.1180  141.6410 C   0  0  0  0  0  3  0  0  0  0  0  0
  189.7280  177.6540  138.3730 C   0  0  0  0  0  0  0  0  0  0  0  0
  183.8380  179.2670  141.7540 C   0  0  0  0  0  3  0  0  0  0  0  0
  189.7320  177.9780  137.0240 O   0  0  0  0  0  1  0  0  0  0  0  0
  185.9530  178.5070  142.6690 C   0  0  0  0  0  0  0  0  0  0  0  0
  189.5310  177.6360  143.5590 C   0  0  1  0  0  3  0  0  0  0  0  0
  183.1720  178.8030  142.8930 C   0  0  0  0  0  0  0  0  0  0  0  0
  185.2770  178.0380  143.8170 C   0  0  0  0  0  0  0  0  0  0  0  0
  189.7440  177.0200  141.1070 C   0  0  0  0  0  0  0  0  0  0  0  0
  187.3430  178.3360  142.5690 C   0  0  0  0  0  0  0  0  0  0  0  0
  188.9310  178.3760  139.2630 C   0  0  0  0  0  3  0  0  0  0  0  0
  185.9720  177.4410  144.8180 N   0  0  0  0  0  0  0  0  0  0  0  0
  190.5120  176.6000  138.8400 C   0  0  0  0  0  3  0  0  0  0  0  0
  190.5210  176.2920  140.2000 C   0  0  0  0  0  3  0  0  0  0  0  0
  188.9040  178.0610  140.6270 C   0  0  0  0  0  0  0  0  0  0  0  0
  191.3930  176.5440  147.2830 C   0  0  0  0  0  3  0  0  0  0  0  0
  190.2020  177.2610  144.8500 C   0  0  0  0  0  0  0  0  0  0  0  0
  189.6140  177.6440  146.0600 C   0  0  0  0  0  3  0  0  0  0  0  0
  190.2090  177.2880  147.2750 C   0  0  0  0  0  3  0  0  0  0  0  0
  191.9820  176.1550  146.0770 C   0  0  0  0  0  3  0  0  0  0  0  0
  191.3880  176.5090  144.8620 C   0  0  0  0  0  3  0  0  0  0  0  0
  1 12  1  0  0  0  0
  2  6  1  0  0  0  0
  3 16  1  0  0  0  0
  6 18  2  0  0  0  0
  7  9  2  0  0  0  0
  7 11  1  0  0  0  0
  8 19  2  0  0  0  0
  8 17  1  0  0  0  0
  9 13  1  0  0  0  0
 10  8  1  0  0  0  0
 11 14  2  0  0  0  0
 12  2  1  0  0  0  0
 12 23  1  1  0  0  0
 13  5  1  0  0  0  0
 13  4  2  0  0  0  0
 14  4  1  0  0  0  0
 14 18  1  0  0  0  0
 15  1  1  0  0  0  0
 16 11  1  0  0  0  0
 16  2  2  0  0  0  0
 17 21  2  0  0  0  0
 19 20  1  0  0  0  0
 20 15  2  0  0  0  0
 21 15  1  0  0  0  0
 21  3  1  0  0  0  0
 23 27  2  0  0  0  0
 23 24  1  0  0  0  0
 24 25  2  0  0  0  0
 25 22  1  0  0  0  0
 26 22  2  0  0  0  0
 27 26  1  0  0  0  0
M  END
>  <MODEL>
4

>  <REMARK>
 VINA RESULT:     -10.0      2.716      5.849
  Name = 
  1 active torsions:
  status: ('A' for Active; 'I' for Inactive)
    1  A    between atoms: C_9  and  C_15
                            x       y       z     vdW  Elec       q    Type
                         _______ _______ _______ _____ _____    ______ ____

>  <TORSDO>
F 1

$$$$
=
 OpenBabel10272401073D

 27 31  0  0  1  0  0  0  0  0999 V2000
  188.4030  177.1660  143.0930 N   0  0  0  0  0  2  0  0  0  0  0  0
  186.2610  178.2820  143.1810 C   0  0  0  0  0  0  0  0  0  0  0  0
  187.1990  179.0040  141.0320 O   0  0  0  0  0  0  0  0  0  0  0  0
  182.3970  178.6490  141.6290 C   0  0  0  0  0  3  0  0  0  0  0  0
  180.9440  179.2120  139.8250 F   0  0  0  0  0  0  0  0  0  0  0  0
  185.1240  177.9720  143.9420 C   0  0  0  0  0  3  0  0  0  0  0  0
  184.5970  179.2810  140.0140 C   0  0  0  0  0  3  0  0  0  0  0  0
  190.0050  177.4930  139.1930 C   0  0  0  0  0  0  0  0  0  0  0  0
  183.2990  179.4060  139.5110 C   0  0  0  0  0  3  0  0  0  0  0  0
  190.5880  177.6220  137.9400 O   0  0  0  0  0  1  0  0  0  0  0  0
  184.8040  178.8430  141.3290 C   0  0  0  0  0  0  0  0  0  0  0  0
  187.6420  178.2070  143.7570 C   0  0  1  0  0  3  0  0  0  0  0  0
  182.2000  179.0900  140.3160 C   0  0  0  0  0  0  0  0  0  0  0  0
  183.6920  178.5230  142.1380 C   0  0  0  0  0  0  0  0  0  0  0  0
  188.8460  177.2550  141.7370 C   0  0  0  0  0  0  0  0  0  0  0  0
  186.1000  178.6980  141.8500 C   0  0  0  0  0  0  0  0  0  0  0  0
  188.9330  178.3120  139.5520 C   0  0  0  0  0  3  0  0  0  0  0  0
  183.8790  178.0940  143.4120 N   0  0  0  0  0  0  0  0  0  0  0  0
  190.4820  176.5390  140.0890 C   0  0  0  0  0  3  0  0  0  0  0  0
  189.9070  176.4270  141.3550 C   0  0  0  0  0  3  0  0  0  0  0  0
  188.3240  178.1940  140.8070 C   0  0  0  0  0  0  0  0  0  0  0  0
  187.8570  177.7390  148.0310 C   0  0  0  0  0  3  0  0  0  0  0  0
  187.6940  178.0380  145.2500 C   0  0  0  0  0  0  0  0  0  0  0  0
  188.7810  177.3690  145.8230 C   0  0  0  0  0  3  0  0  0  0  0  0
  188.8620  177.2170  147.2100 C   0  0  0  0  0  3  0  0  0  0  0  0
  186.7710  178.4130  147.4640 C   0  0  0  0  0  3  0  0  0  0  0  0
  186.6900  178.5650  146.0770 C   0  0  0  0  0  3  0  0  0  0  0  0
  1 12  1  0  0  0  0
  2 12  1  0  0  0  0
  2  6  1  0  0  0  0
  3 16  1  0  0  0  0
  4 14  1  0  0  0  0
  5 13  1  0  0  0  0
  7 11  1  0  0  0  0
  8 17  2  0  0  0  0
  8 19  1  0  0  0  0
  9  7  2  0  0  0  0
  9 13  1  0  0  0  0
 10  8  1  0  0  0  0
 11 16  1  0  0  0  0
 11 14  2  0  0  0  0
 12 23  1  1  0  0  0
 13  4  2  0  0  0  0
 14 18  1  0  0  0  0
 15  1  1  0  0  0  0
 16  2  2  0  0  0  0
 17 21  1  0  0  0  0
 18  6  2  0  0  0  0
 19 20  2  0  0  0  0
 20 15  1  0  0  0  0
 21  3  1  0  0  0  0
 21 15  2  0  0  0  0
 23 24  2  0  0  0  0
 23 27  1  0  0  0  0
 24 25  1  0  0  0  0
 25 22  2  0  0  0  0
 26 22  1  0  0  0  0
 27 26  2  0  0  0  0
M  END
>  <MODEL>
5

>  <REMARK>
 VINA RESULT:      -9.9      3.336      6.159
  Name = 
  1 active torsions:
  status: ('A' for Active; 'I' for Inactive)
    1  A    between atoms: C_9  and  C_15
                            x       y       z     vdW  Elec       q    Type
                         _______ _______ _______ _____ _____    ______ ____

>  <TORSDO>
F 1

$$$$
=
 OpenBabel10272401073D

 27 31  0  0  1  0  0  0  0  0999 V2000
  189.8790  176.8330  140.5000 N   0  0  0  0  0  2  0  0  0  0  0  0
  188.0720  177.9050  141.6940 C   0  0  0  0  0  0  0  0  0  0  0  0
  187.8540  178.7800  139.4120 O   0  0  0  0  0  0  0  0  0  0  0  0
  183.9480  178.3080  142.2530 C   0  0  0  0  0  3  0  0  0  0  0  0
  181.8100  178.9620  141.4280 F   0  0  0  0  0  0  0  0  0  0  0  0
  187.4450  177.5280  142.8920 C   0  0  0  0  0  3  0  0  0  0  0  0
  185.0910  179.0790  139.8150 C   0  0  0  0  0  3  0  0  0  0  0  0
  189.3790  177.4360  136.3450 C   0  0  0  0  0  0  0  0  0  0  0  0
  183.7150  179.2140  140.0180 C   0  0  0  0  0  3  0  0  0  0  0  0
  189.2780  177.6560  134.9780 O   0  0  0  0  0  1  0  0  0  0  0  0
  185.9060  178.5600  140.8290 C   0  0  0  0  0  0  0  0  0  0  0  0
  189.5570  177.8160  141.5170 C   0  0  1  0  0  3  0  0  0  0  0  0
  183.1440  178.8290  141.2350 C   0  0  0  0  0  0  0  0  0  0  0  0
  185.3250  178.1710  142.0560 C   0  0  0  0  0  0  0  0  0  0  0  0
  189.6060  177.0160  139.1100 C   0  0  0  0  0  0  0  0  0  0  0  0
  187.2890  178.4030  140.6410 C   0  0  0  0  0  0  0  0  0  0  0  0
  188.6330  178.2120  137.2330 C   0  0  0  0  0  3  0  0  0  0  0  0
  186.1030  177.6630  143.0460 N   0  0  0  0  0  0  0  0  0  0  0  0
  190.2160  176.4340  136.8310 C   0  0  0  0  0  3  0  0  0  0  0  0
  190.3300  176.2320  138.2060 C   0  0  0  0  0  3  0  0  0  0  0  0
  188.7110  178.0040  138.6150 C   0  0  0  0  0  0  0  0  0  0  0  0
  191.7200  177.0990  145.1690 C   0  0  0  0  0  3  0  0  0  0  0  0
  190.3280  177.5520  142.7800 C   0  0  0  0  0  0  0  0  0  0  0  0
  190.5700  178.6090  143.6640 C   0  0  0  0  0  3  0  0  0  0  0  0
  191.2670  178.3840  144.8560 C   0  0  0  0  0  3  0  0  0  0  0  0
  191.4760  176.0380  144.2920 C   0  0  0  0  0  3  0  0  0  0  0  0
  190.7790  176.2620  143.1010 C   0  0  0  0  0  3  0  0  0  0  0  0
  1 12  1  0  0  0  0
  2  6  1  0  0  0  0
  3 16  1  0  0  0  0
  6 18  2  0  0  0  0
  7  9  2  0  0  0  0
  7 11  1  0  0  0  0
  8 19  2  0  0  0  0
  8 17  1  0  0  0  0
  9 13  1  0  0  0  0
 10  8  1  0  0  0  0
 11 14  2  0  0  0  0
 12  2  1  0  0  0  0
 12 23  1  1  0  0  0
 13  5  1  0  0  0  0
 13  4  2  0  0  0  0
 14  4  1  0  0  0  0
 14 18  1  0  0  0  0
 15  1  1  0  0  0  0
 16 11  1  0  0  0  0
 16  2  2  0  0  0  0
 17 21  2  0  0  0  0
 19 20  1  0  0  0  0
 20 15  2  0  0  0  0
 21 15  1  0  0  0  0
 21  3  1  0  0  0  0
 23 27  2  0  0  0  0
 23 24  1  0  0  0  0
 24 25  2  0  0  0  0
 25 22  1  0  0  0  0
 26 22  2  0  0  0  0
 27 26  1  0  0  0  0
M  END
>  <MODEL>
6

>  <REMARK>
 VINA RESULT:      -9.8      3.326      6.422
  Name = 
  1 active torsions:
  status: ('A' for Active; 'I' for Inactive)
    1  A    between atoms: C_9  and  C_15
                            x       y       z     vdW  Elec       q    Type
                         _______ _______ _______ _____ _____    ______ ____

>  <TORSDO>
F 1

$$$$
=
 OpenBabel10272401073D

 27 31  0  0  1  0  0  0  0  0999 V2000
  187.6210  177.3550  142.1330 N   0  0  0  0  0  2  0  0  0  0  0  0
  189.8200  177.1640  143.1180 C   0  0  0  0  0  0  0  0  0  0  0  0
  188.5400  178.4050  144.8030 O   0  0  0  0  0  0  0  0  0  0  0  0
  192.2190  175.5320  146.1280 C   0  0  0  0  0  3  0  0  0  0  0  0
  192.7990  175.3540  148.4330 F   0  0  0  0  0  0  0  0  0  0  0  0
  190.8490  176.2530  142.8330 C   0  0  0  0  0  3  0  0  0  0  0  0
  190.1820  177.3290  146.8100 C   0  0  0  0  0  3  0  0  0  0  0  0
  184.8820  178.7210  145.0510 C   0  0  0  0  0  0  0  0  0  0  0  0
  190.9960  176.7810  147.8050 C   0  0  0  0  0  3  0  0  0  0  0  0
  183.9630  179.2160  145.9650 O   0  0  0  0  0  1  0  0  0  0  0  0
  190.3820  176.9860  145.4670 C   0  0  0  0  0  0  0  0  0  0  0  0
  189.0000  177.7940  142.0330 C   0  0  1  0  0  3  0  0  0  0  0  0
  192.0130  175.8830  147.4660 C   0  0  0  0  0  0  0  0  0  0  0  0
  191.4090  176.0770  145.1280 C   0  0  0  0  0  0  0  0  0  0  0  0
  186.7420  177.7490  143.1880 C   0  0  0  0  0  0  0  0  0  0  0  0
  189.5670  177.5140  144.4530 C   0  0  0  0  0  0  0  0  0  0  0  0
  186.2490  178.8260  145.3080 C   0  0  0  0  0  3  0  0  0  0  0  0
  191.6100  175.7320  143.8310 N   0  0  0  0  0  0  0  0  0  0  0  0
  184.4400  178.1080  143.8800 C   0  0  0  0  0  3  0  0  0  0  0  0
  185.3680  177.6310  142.9540 C   0  0  0  0  0  3  0  0  0  0  0  0
  187.1950  178.3260  144.4050 C   0  0  0  0  0  0  0  0  0  0  0  0
  190.4830  177.2510  138.0280 C   0  0  0  0  0  3  0  0  0  0  0  0
  189.5290  177.5840  140.6420 C   0  0  0  0  0  0  0  0  0  0  0  0
  188.6800  177.7980  139.5500 C   0  0  0  0  0  3  0  0  0  0  0  0
  189.1550  177.6300  138.2460 C   0  0  0  0  0  3  0  0  0  0  0  0
  191.3370  177.0420  139.1140 C   0  0  0  0  0  3  0  0  0  0  0  0
  190.8630  177.2100  140.4190 C   0  0  0  0  0  3  0  0  0  0  0  0
  1 15  1  0  0  0  0
  2 16  1  0  0  0  0
  4 13  2  0  0  0  0
  6  2  2  0  0  0  0
  6 18  1  0  0  0  0
  7  9  2  0  0  0  0
  8 17  1  0  0  0  0
  8 10  1  0  0  0  0
 11  7  1  0  0  0  0
 12 23  1  6  0  0  0
 12  1  1  0  0  0  0
 12  2  1  0  0  0  0
 13  9  1  0  0  0  0
 13  5  1  0  0  0  0
 14 11  1  0  0  0  0
 14  4  1  0  0  0  0
 15 21  1  0  0  0  0
 16  3  1  0  0  0  0
 16 11  2  0  0  0  0
 18 14  2  0  0  0  0
 19  8  2  0  0  0  0
 20 15  2  0  0  0  0
 20 19  1  0  0  0  0
 21  3  1  0  0  0  0
 21 17  2  0  0  0  0
 22 25  2  0  0  0  0
 22 26  1  0  0  0  0
 24 23  2  0  0  0  0
 25 24  1  0  0  0  0
 26 27  2  0  0  0  0
 27 23  1  0  0  0  0
M  END
>  <MODEL>
7

>  <REMARK>
 VINA RESULT:      -9.6      1.960      5.335
  Name = 
  1 active torsions:
  status: ('A' for Active; 'I' for Inactive)
    1  A    between atoms: C_9  and  C_15
                            x       y       z     vdW  Elec       q    Type
                         _______ _______ _______ _____ _____    ______ ____

>  <TORSDO>
F 1

$$$$
=
 OpenBabel10272401073D

 27 31  0  0  1  0  0  0  0  0999 V2000
  189.0670  178.0400  146.9540 N   0  0  0  0  0  2  0  0  0  0  0  0
  190.2470  177.1490  145.0420 C   0  0  0  0  0  0  0  0  0  0  0  0
  187.8850  176.9250  144.4170 O   0  0  0  0  0  0  0  0  0  0  0  0
  191.2820  177.5700  141.0130 C   0  0  0  0  0  3  0  0  0  0  0  0
  190.6460  177.6370  138.7170 F   0  0  0  0  0  0  0  0  0  0  0  0
  191.5740  177.3590  144.6350 C   0  0  0  0  0  3  0  0  0  0  0  0
  188.5990  177.1720  141.7130 C   0  0  0  0  0  3  0  0  0  0  0  0
  184.9910  178.5870  145.9680 C   0  0  0  0  0  0  0  0  0  0  0  0
  188.9610  177.3070  140.3700 C   0  0  0  0  0  3  0  0  0  0  0  0
  183.6370  178.7320  145.7000 O   0  0  0  0  0  1  0  0  0  0  0  0
  189.5760  177.2310  142.7160 C   0  0  0  0  0  0  0  0  0  0  0  0
  189.8850  176.9390  146.4810 C   0  0  1  0  0  3  0  0  0  0  0  0
  190.3000  177.5060  140.0200 C   0  0  0  0  0  0  0  0  0  0  0  0
  190.9270  177.4340  142.3580 C   0  0  0  0  0  0  0  0  0  0  0  0
  187.7220  178.2640  146.5270 C   0  0  0  0  0  0  0  0  0  0  0  0
  189.2320  177.1120  144.0720 C   0  0  0  0  0  0  0  0  0  0  0  0
  185.7890  177.8090  145.1280 C   0  0  0  0  0  3  0  0  0  0  0  0
  191.8820  177.4980  143.3200 N   0  0  0  0  0  0  0  0  0  0  0  0
  185.5570  179.2250  147.0700 C   0  0  0  0  0  3  0  0  0  0  0  0
  186.9130  179.0580  147.3470 C   0  0  0  0  0  3  0  0  0  0  0  0
  187.1590  177.6550  145.3730 C   0  0  0  0  0  0  0  0  0  0  0  0
  193.1950  176.3000  149.1580 C   0  0  0  0  0  3  0  0  0  0  0  0
  191.0540  176.7090  147.3970 C   0  0  0  0  0  0  0  0  0  0  0  0
  191.3380  177.6520  148.3900 C   0  0  0  0  0  3  0  0  0  0  0  0
  192.4070  177.4500  149.2680 C   0  0  0  0  0  3  0  0  0  0  0  0
  192.9130  175.3520  148.1700 C   0  0  0  0  0  3  0  0  0  0  0  0
  191.8440  175.5530  147.2930 C   0  0  0  0  0  3  0  0  0  0  0  0
  2 12  1  0  0  0  0
  3 21  1  0  0  0  0
  4 14  1  0  0  0  0
  5 13  1  0  0  0  0
  6  2  1  0  0  0  0
  7 11  1  0  0  0  0
  8 19  1  0  0  0  0
  9  7  2  0  0  0  0
 10  8  1  0  0  0  0
 11 16  1  0  0  0  0
 12  1  1  0  0  0  0
 12 23  1  1  0  0  0
 13  9  1  0  0  0  0
 13  4  2  0  0  0  0
 14 11  2  0  0  0  0
 14 18  1  0  0  0  0
 15  1  1  0  0  0  0
 15 20  1  0  0  0  0
 16  3  1  0  0  0  0
 16  2  2  0  0  0  0
 17 21  1  0  0  0  0
 17  8  2  0  0  0  0
 18  6  2  0  0  0  0
 19 20  2  0  0  0  0
 21 15  2  0  0  0  0
 22 25  1  0  0  0  0
 23 24  1  0  0  0  0
 24 25  2  0  0  0  0
 26 22  2  0  0  0  0
 27 23  2  0  0  0  0
 27 26  1  0  0  0  0
M  END
>  <MODEL>
8

>  <REMARK>
 VINA RESULT:      -9.6      2.916      7.112
  Name = 
  1 active torsions:
  status: ('A' for Active; 'I' for Inactive)
    1  A    between atoms: C_9  and  C_15
                            x       y       z     vdW  Elec       q    Type
                         _______ _______ _______ _____ _____    ______ ____

>  <TORSDO>
F 1

$$$$
=
 OpenBabel10272401073D

 27 31  0  0  1  0  0  0  0  0999 V2000
  190.0470  177.8430  142.9990 N   0  0  0  0  0  2  0  0  0  0  0  0
  188.2390  177.6950  141.4010 C   0  0  0  0  0  0  0  0  0  0  0  0
  187.1970  177.0160  143.5160 O   0  0  0  0  0  0  0  0  0  0  0  0
  184.5710  179.1880  140.0620 C   0  0  0  0  0  3  0  0  0  0  0  0
  182.2450  179.5670  140.4180 F   0  0  0  0  0  0  0  0  0  0  0  0
  188.1030  178.3120  140.1480 C   0  0  0  0  0  3  0  0  0  0  0  0
  184.7320  177.9900  142.5890 C   0  0  0  0  0  3  0  0  0  0  0  0
  188.4940  177.5350  146.9200 C   0  0  0  0  0  0  0  0  0  0  0  0
  183.5110  178.4870  142.1250 C   0  0  0  0  0  3  0  0  0  0  0  0
  188.0300  177.3870  148.2190 O   0  0  0  0  0  1  0  0  0  0  0  0
  185.8800  178.0850  141.7920 C   0  0  0  0  0  0  0  0  0  0  0  0
  189.5410  177.1080  141.8550 C   0  0  1  0  0  3  0  0  0  0  0  0
  183.4300  179.0860  140.8640 C   0  0  0  0  0  0  0  0  0  0  0  0
  185.7950  178.6920  140.5190 C   0  0  0  0  0  0  0  0  0  0  0  0
  189.4430  177.8040  144.2930 C   0  0  0  0  0  0  0  0  0  0  0  0
  187.1200  177.6040  142.2440 C   0  0  0  0  0  0  0  0  0  0  0  0
  187.6820  177.1760  145.8440 C   0  0  0  0  0  3  0  0  0  0  0  0
  186.9010  178.7940  139.7390 N   0  0  0  0  0  0  0  0  0  0  0  0
  189.7670  178.0530  146.6890 C   0  0  0  0  0  3  0  0  0  0  0  0
  190.2370  178.1810  145.3820 C   0  0  0  0  0  3  0  0  0  0  0  0
  188.1250  177.3250  144.5240 C   0  0  0  0  0  0  0  0  0  0  0  0
  192.5890  176.7670  138.8350 C   0  0  0  0  0  3  0  0  0  0  0  0
  190.5890  176.9950  140.7840 C   0  0  0  0  0  0  0  0  0  0  0  0
  191.8700  177.5010  141.0280 C   0  0  0  0  0  3  0  0  0  0  0  0
  192.8680  177.3900  140.0550 C   0  0  0  0  0  3  0  0  0  0  0  0
  191.3120  176.2560  138.5870 C   0  0  0  0  0  3  0  0  0  0  0  0
  190.3140  176.3660  139.5600 C   0  0  0  0  0  3  0  0  0  0  0  0
  1 15  1  0  0  0  0
  2 12  1  0  0  0  0
  2 16  1  0  0  0  0
  3 21  1  0  0  0  0
  4 14  1  0  0  0  0
  4 13  2  0  0  0  0
  5 13  1  0  0  0  0
  6  2  2  0  0  0  0
  8 10  1  0  0  0  0
  9  7  2  0  0  0  0
 11 16  2  0  0  0  0
 11  7  1  0  0  0  0
 12 23  1  6  0  0  0
 12  1  1  0  0  0  0
 13  9  1  0  0  0  0
 14 11  1  0  0  0  0
 15 21  2  0  0  0  0
 15 20  1  0  0  0  0
 16  3  1  0  0  0  0
 17  8  2  0  0  0  0
 18  6  1  0  0  0  0
 18 14  2  0  0  0  0
 19  8  1  0  0  0  0
 20 19  2  0  0  0  0
 21 17  1  0  0  0  0
 22 25  1  0  0  0  0
 23 24  1  0  0  0  0
 25 24  2  0  0  0  0
 26 22  2  0  0  0  0
 26 27  1  0  0  0  0
 27 23  2  0  0  0  0
M  END
>  <MODEL>
9

>  <REMARK>
 VINA RESULT:      -9.5      3.336      7.520
  Name = 
  1 active torsions:
  status: ('A' for Active; 'I' for Inactive)
    1  A    between atoms: C_9  and  C_15
                            x       y       z     vdW  Elec       q    Type
                         _______ _______ _______ _____ _____    ______ ____

>  <TORSDO>
F 1

$$$$
