=
 OpenBabel10272401523D

 28 32  0  0  1  0  0  0  0  0999 V2000
  184.5300  178.1830  142.3000 C   0  0  0  0  0  3  0  0  0  0  0  0
  189.1330  177.7340  146.4050 O   0  0  0  0  0  1  0  0  0  0  0  0
  184.4050  178.5890  144.6920 C   0  0  0  0  0  0  0  0  0  0  0  0
  186.5530  177.6390  143.7090 C   0  0  1  0  0  3  0  0  0  0  0  0
  182.4890  179.0360  143.2760 C   0  0  0  0  0  0  0  0  0  0  0  0
  185.1540  178.1950  143.5570 C   0  0  0  0  0  0  0  0  0  0  0  0
  186.2450  177.7360  146.1780 C   0  0  0  0  0  2  0  0  0  0  0  0
  183.0860  179.0250  144.5380 C   0  0  0  0  0  3  0  0  0  0  0  0
  189.4820  177.6260  144.0350 C   0  0  2  0  0  3  0  0  0  0  0  0
  187.4710  178.0620  142.5690 C   0  0  0  0  0  2  0  0  0  0  0  0
  185.0170  178.6340  146.0650 C   0  0  0  0  0  2  0  0  0  0  0  0
  188.5360  177.3250  145.2090 C   0  0  2  0  0  3  0  0  0  0  0  0
  180.8350  179.5790  143.0950 Cl  0  0  0  0  0  0  0  0  0  0  0  0
  183.2080  178.6090  142.1580 C   0  0  0  0  0  3  0  0  0  0  0  0
  187.2000  178.0510  145.0340 C   0  0  1  0  0  3  0  0  0  0  0  0
  188.8070  177.3250  142.6770 C   0  0  1  0  0  3  0  0  0  0  0  0
  189.6910  177.7430  141.5070 C   0  0  2  0  0  3  0  0  0  0  0  0
  189.2940  176.9670  140.2630 C   0  0  2  0  0  3  0  0  0  0  0  0
  190.5250  176.5650  141.0420 C   0  0  0  0  0  2  0  0  0  0  0  0
  189.7080  177.7600  139.0330 C   0  0  2  0  0  3  0  0  0  0  0  0
  188.4710  178.4180  138.4250 C   0  0  2  0  0  3  0  0  0  0  0  0
  189.9740  177.4340  136.4990 C   0  0  0  0  0  1  0  0  0  0  0  0
  189.1130  177.2250  137.7370 C   0  0  1  0  0  0  0  0  0  0  0  0
  188.8410  179.6150  137.8080 O   0  0  0  0  0  1  0  0  0  0  0  0
  188.3730  175.9730  137.8420 N   0  0  0  0  0  2  0  0  0  0  0  0
  187.1100  176.2100  137.4130 O   0  0  0  0  0  1  0  0  0  0  0  0
  191.8620  177.6430  144.2760 O   0  0  0  0  0  1  0  0  0  0  0  0
  190.7520  176.8020  144.2070 C   0  0  0  0  0  2  0  0  0  0  0  0
  1  6  1  0  0  0  0
  3 11  1  0  0  0  0
  4 10  1  6  0  0  0
  4 15  1  0  0  0  0
  5  8  2  0  0  0  0
  6  4  1  0  0  0  0
  6  3  2  0  0  0  0
  8  3  1  0  0  0  0
  9 28  1  1  0  0  0
  9 12  1  0  0  0  0
 11  7  1  0  0  0  0
 12  2  1  1  0  0  0
 13  5  1  0  0  0  0
 14  1  2  0  0  0  0
 14  5  1  0  0  0  0
 15 12  1  0  0  0  0
 15  7  1  1  0  0  0
 16 10  1  1  0  0  0
 16  9  1  0  0  0  0
 17 19  1  1  0  0  0
 17 16  1  0  0  0  0
 18 19  1  1  0  0  0
 18 17  1  0  0  0  0
 20 18  1  1  0  0  0
 21 24  1  6  0  0  0
 21 20  1  0  0  0  0
 23 22  1  6  0  0  0
 23 25  1  0  0  0  0
 23 21  1  0  0  0  0
 23 20  1  0  0  0  0
 26 25  1  0  0  0  0
 28 27  1  0  0  0  0
M  END
>  <MODEL>
1

>  <REMARK>
 VINA RESULT:      -9.8      0.000      0.000
  Name = 
  4 active torsions:
  status: ('A' for Active; 'I' for Inactive)
    1  A    between atoms: C_1  and  C_27
    2  A    between atoms: C_2  and  C_3
    3  A    between atoms: N_6  and  C_11
    4  A    between atoms: C_16  and  C_21
                            x       y       z     vdW  Elec       q    Type
                         _______ _______ _______ _____ _____    ______ ____

>  <TORSDO>
F 4

$$$$
=
 OpenBabel10272401523D

 28 32  0  0  1  0  0  0  0  0999 V2000
  189.2500  178.0900  141.3950 C   0  0  0  0  0  3  0  0  0  0  0  0
  187.7310  177.0280  147.2940 O   0  0  0  0  0  1  0  0  0  0  0  0
  190.6600  177.1210  143.1200 C   0  0  0  0  0  0  0  0  0  0  0  0
  188.3810  178.0550  143.7650 C   0  0  1  0  0  3  0  0  0  0  0  0
  191.4420  177.2400  140.8280 C   0  0  0  0  0  0  0  0  0  0  0  0
  189.4290  177.7020  142.7320 C   0  0  0  0  0  0  0  0  0  0  0  0
  190.0020  177.3840  145.5320 C   0  0  0  0  0  2  0  0  0  0  0  0
  191.6470  176.8760  142.1600 C   0  0  0  0  0  3  0  0  0  0  0  0
  186.1310  177.6810  145.6300 C   0  0  2  0  0  3  0  0  0  0  0  0
  186.9640  177.8320  143.2510 C   0  0  0  0  0  2  0  0  0  0  0  0
  190.9120  176.6740  144.5330 C   0  0  0  0  0  2  0  0  0  0  0  0
  187.5840  177.7790  146.1240 C   0  0  2  0  0  3  0  0  0  0  0  0
  192.6870  176.9340  139.6360 Cl  0  0  0  0  0  0  0  0  0  0  0  0
  190.2470  177.8520  140.4460 C   0  0  0  0  0  3  0  0  0  0  0  0
  188.5580  177.2630  145.0630 C   0  0  1  0  0  3  0  0  0  0  0  0
  185.9540  178.3770  144.2620 C   0  0  1  0  0  3  0  0  0  0  0  0
  184.5480  178.1700  143.7060 C   0  0  2  0  0  3  0  0  0  0  0  0
  184.3000  179.1470  142.5690 C   0  0  2  0  0  3  0  0  0  0  0  0
  183.7140  179.4150  143.9360 C   0  0  0  0  0  2  0  0  0  0  0  0
  183.2230  178.5780  141.6580 C   0  0  2  0  0  3  0  0  0  0  0  0
  183.8550  177.5550  140.7160 C   0  0  2  0  0  3  0  0  0  0  0  0
  182.1550  179.0490  139.3690 C   0  0  0  0  0  1  0  0  0  0  0  0
  183.4320  178.9160  140.1870 C   0  0  1  0  0  0  0  0  0  0  0  0
  182.9120  176.5750  140.3990 O   0  0  0  0  0  1  0  0  0  0  0  0
  184.5240  179.8360  139.8910 N   0  0  0  0  0  2  0  0  0  0  0  0
  184.1170  180.6350  138.8760 O   0  0  0  0  0  1  0  0  0  0  0  0
  185.6630  179.5790  147.0110 O   0  0  0  0  0  1  0  0  0  0  0  0
  185.2150  178.3000  146.6800 C   0  0  0  0  0  2  0  0  0  0  0  0
  1  6  1  0  0  0  0
  3 11  1  0  0  0  0
  4 10  1  6  0  0  0
  4 15  1  0  0  0  0
  5  8  2  0  0  0  0
  6  3  2  0  0  0  0
  6  4  1  0  0  0  0
  8  3  1  0  0  0  0
  9 12  1  0  0  0  0
  9 28  1  1  0  0  0
 11  7  1  0  0  0  0
 12  2  1  1  0  0  0
 13  5  1  0  0  0  0
 14  5  1  0  0  0  0
 14  1  2  0  0  0  0
 15  7  1  1  0  0  0
 15 12  1  0  0  0  0
 16 10  1  6  0  0  0
 16  9  1  0  0  0  0
 17 19  1  1  0  0  0
 17 16  1  0  0  0  0
 18 17  1  0  0  0  0
 18 19  1  1  0  0  0
 20 18  1  1  0  0  0
 21 24  1  6  0  0  0
 21 20  1  0  0  0  0
 23 22  1  6  0  0  0
 23 21  1  0  0  0  0
 23 20  1  0  0  0  0
 25 23  1  0  0  0  0
 26 25  1  0  0  0  0
 28 27  1  0  0  0  0
M  END
>  <MODEL>
2

>  <REMARK>
 VINA RESULT:      -9.3      3.401      6.235
  Name = 
  4 active torsions:
  status: ('A' for Active; 'I' for Inactive)
    1  A    between atoms: C_1  and  C_27
    2  A    between atoms: C_2  and  C_3
    3  A    between atoms: N_6  and  C_11
    4  A    between atoms: C_16  and  C_21
                            x       y       z     vdW  Elec       q    Type
                         _______ _______ _______ _____ _____    ______ ____

>  <TORSDO>
F 4

$$$$
=
 OpenBabel10272401523D

 28 32  0  0  1  0  0  0  0  0999 V2000
  190.6720  177.1180  145.0910 C   0  0  0  0  0  3  0  0  0  0  0  0
  184.6360  178.4250  145.3830 O   0  0  0  0  0  1  0  0  0  0  0  0
  189.2700  177.1300  147.0740 C   0  0  0  0  0  0  0  0  0  0  0  0
  188.3040  177.9650  144.8720 C   0  0  1  0  0  3  0  0  0  0  0  0
  191.5720  176.3810  147.2100 C   0  0  0  0  0  0  0  0  0  0  0  0
  189.4210  177.3450  145.6830 C   0  0  0  0  0  0  0  0  0  0  0  0
  187.0400  178.2880  146.9930 C   0  0  0  0  0  2  0  0  0  0  0  0
  190.3410  176.6300  147.8210 C   0  0  0  0  0  3  0  0  0  0  0  0
  185.8100  178.1300  143.3120 C   0  0  2  0  0  3  0  0  0  0  0  0
  188.2160  177.3800  143.4670 C   0  0  0  0  0  2  0  0  0  0  0  0
  187.9540  177.3440  147.7680 C   0  0  0  0  0  2  0  0  0  0  0  0
  185.8820  178.5990  144.7750 C   0  0  2  0  0  3  0  0  0  0  0  0
  192.9080  175.7600  148.1570 Cl  0  0  0  0  0  0  0  0  0  0  0  0
  191.7400  176.6300  145.8480 C   0  0  0  0  0  3  0  0  0  0  0  0
  186.9400  177.8110  145.5490 C   0  0  1  0  0  3  0  0  0  0  0  0
  187.2000  178.1690  142.6400 C   0  0  1  0  0  3  0  0  0  0  0  0
  187.1580  177.5820  141.2310 C   0  0  2  0  0  3  0  0  0  0  0  0
  188.2660  178.1920  140.3910 C   0  0  2  0  0  3  0  0  0  0  0  0
  186.8430  178.6740  140.2270 C   0  0  0  0  0  2  0  0  0  0  0  0
  188.6120  177.2350  139.2610 C   0  0  2  0  0  3  0  0  0  0  0  0
  190.1090  177.3250  138.9710 C   0  0  2  0  0  3  0  0  0  0  0  0
  188.7830  177.2220  136.6980 C   0  0  0  0  0  1  0  0  0  0  0  0
  189.1090  177.9350  138.0020 C   0  0  1  0  0  0  0  0  0  0  0  0
  190.5650  176.0880  138.5120 O   0  0  0  0  0  1  0  0  0  0  0  0
  189.0410  179.3920  138.0120 N   0  0  0  0  0  2  0  0  0  0  0  0
  188.1620  179.7640  137.0510 O   0  0  0  0  0  1  0  0  0  0  0  0
  183.7800  178.2370  142.0490 O   0  0  0  0  0  1  0  0  0  0  0  0
  184.8170  179.0140  142.5650 C   0  0  0  0  0  2  0  0  0  0  0  0
  1  6  2  0  0  0  0
  1 14  1  0  0  0  0
  3 11  1  0  0  0  0
  3  8  2  0  0  0  0
  4 10  1  6  0  0  0
  4 15  1  0  0  0  0
  4  6  1  0  0  0  0
  5  8  1  0  0  0  0
  5 13  1  0  0  0  0
  6  3  1  0  0  0  0
  7 11  1  0  0  0  0
  9 28  1  6  0  0  0
  9 12  1  0  0  0  0
 12  2  1  1  0  0  0
 12 15  1  0  0  0  0
 14  5  2  0  0  0  0
 15  7  1  1  0  0  0
 16  9  1  0  0  0  0
 16 10  1  1  0  0  0
 17 19  1  6  0  0  0
 17 16  1  0  0  0  0
 18 19  1  6  0  0  0
 18 17  1  0  0  0  0
 20 18  1  1  0  0  0
 21 24  1  6  0  0  0
 21 20  1  0  0  0  0
 23 22  1  6  0  0  0
 23 25  1  0  0  0  0
 23 21  1  0  0  0  0
 23 20  1  0  0  0  0
 26 25  1  0  0  0  0
 27 28  1  0  0  0  0
M  END
>  <MODEL>
3

>  <REMARK>
 VINA RESULT:      -9.3      3.422      5.387
  Name = 
  4 active torsions:
  status: ('A' for Active; 'I' for Inactive)
    1  A    between atoms: C_1  and  C_27
    2  A    between atoms: C_2  and  C_3
    3  A    between atoms: N_6  and  C_11
    4  A    between atoms: C_16  and  C_21
                            x       y       z     vdW  Elec       q    Type
                         _______ _______ _______ _____ _____    ______ ____

>  <TORSDO>
F 4

$$$$
=
 OpenBabel10272401523D

 28 32  0  0  1  0  0  0  0  0999 V2000
  189.8730  177.0590  144.8010 C   0  0  0  0  0  3  0  0  0  0  0  0
  184.3750  178.6730  147.1250 O   0  0  0  0  0  1  0  0  0  0  0  0
  189.2320  177.1180  147.1440 C   0  0  0  0  0  0  0  0  0  0  0  0
  187.6200  178.0310  145.3980 C   0  0  1  0  0  3  0  0  0  0  0  0
  191.4000  176.2490  146.4920 C   0  0  0  0  0  0  0  0  0  0  0  0
  188.9120  177.3430  145.7840 C   0  0  0  0  0  0  0  0  0  0  0  0
  187.1720  178.3910  147.8200 C   0  0  0  0  0  2  0  0  0  0  0  0
  190.4660  176.5530  147.4840 C   0  0  0  0  0  3  0  0  0  0  0  0
  184.7570  178.3460  144.7800 C   0  0  2  0  0  3  0  0  0  0  0  0
  187.0290  177.4700  144.1100 C   0  0  0  0  0  2  0  0  0  0  0  0
  188.2440  177.3910  148.2440 C   0  0  0  0  0  2  0  0  0  0  0  0
  185.3470  178.7910  146.1280 C   0  0  2  0  0  3  0  0  0  0  0  0
  192.9430  175.5480  146.9310 Cl  0  0  0  0  0  0  0  0  0  0  0  0
  191.1070  176.5070  145.1520 C   0  0  0  0  0  3  0  0  0  0  0  0
  186.5620  177.9390  146.5000 C   0  0  1  0  0  3  0  0  0  0  0  0
  185.8360  178.3210  143.6730 C   0  0  1  0  0  3  0  0  0  0  0  0
  185.2860  177.7560  142.3670 C   0  0  2  0  0  3  0  0  0  0  0  0
  185.5690  178.7260  141.2320 C   0  0  2  0  0  3  0  0  0  0  0  0
  184.1860  178.6560  141.8380 C   0  0  0  0  0  2  0  0  0  0  0  0
  185.5880  177.9570  139.9200 C   0  0  2  0  0  3  0  0  0  0  0  0
  186.6000  178.6050  138.9770 C   0  0  2  0  0  3  0  0  0  0  0  0
  184.4260  177.9780  137.6290 C   0  0  0  0  0  1  0  0  0  0  0  0
  185.1110  178.7770  138.7290 C   0  0  1  0  0  0  0  0  0  0  0  0
  187.1410  177.6270  138.1390 O   0  0  0  0  0  1  0  0  0  0  0  0
  184.5770  180.1000  139.0350 N   0  0  0  0  0  2  0  0  0  0  0  0
  183.2480  180.0720  138.7760 O   0  0  0  0  0  1  0  0  0  0  0  0
  182.3910  178.6470  144.5800 O   0  0  0  0  0  1  0  0  0  0  0  0
  183.6170  179.2890  144.4100 C   0  0  0  0  0  2  0  0  0  0  0  0
  1 14  2  0  0  0  0
  1  6  1  0  0  0  0
  3  8  1  0  0  0  0
  3 11  1  0  0  0  0
  4 10  1  6  0  0  0
  4  6  1  0  0  0  0
  4 15  1  0  0  0  0
  5 13  1  0  0  0  0
  5  8  2  0  0  0  0
  6  3  2  0  0  0  0
  7 11  1  0  0  0  0
  9 28  1  6  0  0  0
  9 12  1  0  0  0  0
 12 15  1  0  0  0  0
 12  2  1  1  0  0  0
 14  5  1  0  0  0  0
 15  7  1  1  0  0  0
 16 10  1  1  0  0  0
 16  9  1  0  0  0  0
 17 19  1  1  0  0  0
 17 16  1  0  0  0  0
 18 19  1  6  0  0  0
 18 17  1  0  0  0  0
 20 18  1  1  0  0  0
 21 24  1  6  0  0  0
 21 20  1  0  0  0  0
 23 22  1  6  0  0  0
 23 21  1  0  0  0  0
 23 25  1  0  0  0  0
 23 20  1  0  0  0  0
 26 25  1  0  0  0  0
 28 27  1  0  0  0  0
M  END
>  <MODEL>
4

>  <REMARK>
 VINA RESULT:      -8.8      3.788      5.932
  Name = 
  4 active torsions:
  status: ('A' for Active; 'I' for Inactive)
    1  A    between atoms: C_1  and  C_27
    2  A    between atoms: C_2  and  C_3
    3  A    between atoms: N_6  and  C_11
    4  A    between atoms: C_16  and  C_21
                            x       y       z     vdW  Elec       q    Type
                         _______ _______ _______ _____ _____    ______ ____

>  <TORSDO>
F 4

$$$$
=
 OpenBabel10272401523D

 28 32  0  0  1  0  0  0  0  0999 V2000
  187.6360  178.0350  143.6420 C   0  0  0  0  0  3  0  0  0  0  0  0
  181.5180  178.9210  143.4940 O   0  0  0  0  0  1  0  0  0  0  0  0
  186.1110  178.0470  145.5330 C   0  0  0  0  0  0  0  0  0  0  0  0
  185.2340  178.6980  143.2330 C   0  0  1  0  0  3  0  0  0  0  0  0
  188.4450  177.4720  145.8500 C   0  0  0  0  0  0  0  0  0  0  0  0
  186.3360  178.2020  144.1440 C   0  0  0  0  0  0  0  0  0  0  0  0
  183.8170  179.0380  145.2520 C   0  0  0  0  0  2  0  0  0  0  0  0
  187.1630  177.6630  146.3700 C   0  0  0  0  0  3  0  0  0  0  0  0
  182.8400  178.6060  141.5180 C   0  0  2  0  0  3  0  0  0  0  0  0
  185.2770  178.0380  141.8600 C   0  0  0  0  0  2  0  0  0  0  0  0
  184.7410  178.2010  146.1330 C   0  0  0  0  0  2  0  0  0  0  0  0
  182.7860  179.1520  142.9550 C   0  0  2  0  0  3  0  0  0  0  0  0
  189.7560  176.9970  146.9080 Cl  0  0  0  0  0  0  0  0  0  0  0  0
  188.6830  177.6630  144.4880 C   0  0  0  0  0  3  0  0  0  0  0  0
  183.8430  178.4820  143.8340 C   0  0  1  0  0  3  0  0  0  0  0  0
  184.2650  178.7100  140.9300 C   0  0  1  0  0  3  0  0  0  0  0  0
  184.3540  178.0510  139.5560 C   0  0  2  0  0  3  0  0  0  0  0  0
  185.5620  178.5890  138.8090 C   0  0  2  0  0  3  0  0  0  0  0  0
  184.1780  179.0950  138.4710 C   0  0  0  0  0  2  0  0  0  0  0  0
  185.9960  177.5650  137.7710 C   0  0  2  0  0  3  0  0  0  0  0  0
  187.4570  177.1940  138.0180 C   0  0  2  0  0  3  0  0  0  0  0  0
  187.0530  177.4860  135.4310 C   0  0  0  0  0  1  0  0  0  0  0  0
  187.0850  178.0730  136.8350 C   0  0  1  0  0  0  0  0  0  0  0  0
  187.6710  175.8730  137.6160 O   0  0  0  0  0  1  0  0  0  0  0  0
  187.4390  179.4810  136.9710 N   0  0  0  0  0  2  0  0  0  0  0  0
  188.7350  179.5390  137.3620 O   0  0  0  0  0  1  0  0  0  0  0  0
  180.8500  178.5160  140.1920 O   0  0  0  0  0  1  0  0  0  0  0  0
  181.8400  179.3770  140.6640 C   0  0  0  0  0  2  0  0  0  0  0  0
  1  6  2  0  0  0  0
  1 14  1  0  0  0  0
  3 11  1  0  0  0  0
  3  8  2  0  0  0  0
  4 10  1  6  0  0  0
  4 15  1  0  0  0  0
  4  6  1  0  0  0  0
  5  8  1  0  0  0  0
  5 13  1  0  0  0  0
  6  3  1  0  0  0  0
  7 11  1  0  0  0  0
  9 28  1  6  0  0  0
  9 12  1  0  0  0  0
 12  2  1  1  0  0  0
 12 15  1  0  0  0  0
 14  5  2  0  0  0  0
 15  7  1  1  0  0  0
 16  9  1  0  0  0  0
 16 10  1  1  0  0  0
 17 19  1  6  0  0  0
 17 16  1  0  0  0  0
 18 19  1  6  0  0  0
 18 17  1  0  0  0  0
 20 21  1  0  0  0  0
 20 18  1  1  0  0  0
 21 24  1  6  0  0  0
 23 22  1  6  0  0  0
 23 25  1  0  0  0  0
 23 20  1  0  0  0  0
 23 21  1  0  0  0  0
 25 26  1  0  0  0  0
 27 28  1  0  0  0  0
M  END
>  <MODEL>
5

>  <REMARK>
 VINA RESULT:      -8.8      3.359      5.526
  Name = 
  4 active torsions:
  status: ('A' for Active; 'I' for Inactive)
    1  A    between atoms: C_1  and  C_27
    2  A    between atoms: C_2  and  C_3
    3  A    between atoms: N_6  and  C_11
    4  A    between atoms: C_16  and  C_21
                            x       y       z     vdW  Elec       q    Type
                         _______ _______ _______ _____ _____    ______ ____

>  <TORSDO>
F 4

$$$$
=
 OpenBabel10272401523D

 28 32  0  0  1  0  0  0  0  0999 V2000
  190.4730  177.6400  144.0620 C   0  0  0  0  0  3  0  0  0  0  0  0
  184.5480  178.0380  142.3390 O   0  0  0  0  0  1  0  0  0  0  0  0
  188.5150  177.3230  145.4640 C   0  0  0  0  0  0  0  0  0  0  0  0
  188.2050  178.1480  143.0760 C   0  0  1  0  0  3  0  0  0  0  0  0
  190.7320  176.9080  146.3520 C   0  0  0  0  0  0  0  0  0  0  0  0
  189.0770  177.6460  144.2060 C   0  0  0  0  0  0  0  0  0  0  0  0
  186.2810  178.1490  144.6570 C   0  0  0  0  0  2  0  0  0  0  0  0
  189.3470  176.9370  146.5200 C   0  0  0  0  0  3  0  0  0  0  0  0
  186.3670  178.0490  140.7750 C   0  0  2  0  0  3  0  0  0  0  0  0
  188.6760  177.6470  141.7160 C   0  0  0  0  0  2  0  0  0  0  0  0
  187.0270  177.2990  145.6820 C   0  0  0  0  0  2  0  0  0  0  0  0
  185.8810  178.4300  142.1840 C   0  0  2  0  0  3  0  0  0  0  0  0
  191.7640  176.4280  147.6820 Cl  0  0  0  0  0  0  0  0  0  0  0  0
  191.2960  177.2650  145.1260 C   0  0  0  0  0  3  0  0  0  0  0  0
  186.7370  177.7550  143.2570 C   0  0  1  0  0  3  0  0  0  0  0  0
  187.8770  178.3320  140.6060 C   0  0  1  0  0  3  0  0  0  0  0  0
  188.3920  177.8360  139.2570 C   0  0  2  0  0  3  0  0  0  0  0  0
  189.8950  178.0380  139.1790 C   0  0  2  0  0  3  0  0  0  0  0  0
  188.9660  178.9950  138.4670 C   0  0  0  0  0  2  0  0  0  0  0  0
  190.4740  177.0510  138.1770 C   0  0  2  0  0  3  0  0  0  0  0  0
  190.7160  175.7150  138.8760 C   0  0  2  0  0  3  0  0  0  0  0  0
  192.7600  176.2650  137.3090 C   0  0  0  0  0  1  0  0  0  0  0  0
  191.8910  176.6070  138.5120 C   0  0  1  0  0  0  0  0  0  0  0  0
  190.5650  174.6780  137.9530 O   0  0  0  0  0  1  0  0  0  0  0  0
  192.5270  177.2880  139.6340 N   0  0  0  0  0  2  0  0  0  0  0  0
  193.8570  177.0400  139.5590 O   0  0  0  0  0  1  0  0  0  0  0  0
  184.8940  177.9420  138.8920 O   0  0  0  0  0  1  0  0  0  0  0  0
  185.5480  178.8260  139.7500 C   0  0  0  0  0  2  0  0  0  0  0  0
  1  6  2  0  0  0  0
  1 14  1  0  0  0  0
  3 11  1  0  0  0  0
  3  8  2  0  0  0  0
  4 10  1  6  0  0  0
  4 15  1  0  0  0  0
  4  6  1  0  0  0  0
  5  8  1  0  0  0  0
  5 13  1  0  0  0  0
  6  3  1  0  0  0  0
  7 11  1  0  0  0  0
  9 28  1  6  0  0  0
  9 12  1  0  0  0  0
 12  2  1  6  0  0  0
 12 15  1  0  0  0  0
 14  5  2  0  0  0  0
 15  7  1  1  0  0  0
 16  9  1  0  0  0  0
 16 10  1  1  0  0  0
 17 19  1  6  0  0  0
 17 16  1  0  0  0  0
 18 19  1  6  0  0  0
 18 17  1  0  0  0  0
 20 23  1  0  0  0  0
 20 21  1  0  0  0  0
 20 18  1  1  0  0  0
 21 24  1  6  0  0  0
 23 22  1  6  0  0  0
 23 21  1  0  0  0  0
 23 25  1  0  0  0  0
 26 25  1  0  0  0  0
 27 28  1  0  0  0  0
M  END
>  <MODEL>
6

>  <REMARK>
 VINA RESULT:      -8.6      3.431      5.397
  Name = 
  4 active torsions:
  status: ('A' for Active; 'I' for Inactive)
    1  A    between atoms: C_1  and  C_27
    2  A    between atoms: C_2  and  C_3
    3  A    between atoms: N_6  and  C_11
    4  A    between atoms: C_16  and  C_21
                            x       y       z     vdW  Elec       q    Type
                         _______ _______ _______ _____ _____    ______ ____

>  <TORSDO>
F 4

$$$$
=
 OpenBabel10272401523D

 28 32  0  0  1  0  0  0  0  0999 V2000
  187.3320  177.4710  143.9670 C   0  0  0  0  0  3  0  0  0  0  0  0
  192.3310  177.3410  140.3300 O   0  0  0  0  0  1  0  0  0  0  0  0
  189.6570  177.5030  144.6700 C   0  0  0  0  0  0  0  0  0  0  0  0
  189.1130  177.1330  142.2110 C   0  0  1  0  0  3  0  0  0  0  0  0
  187.8830  177.7680  146.3020 C   0  0  0  0  0  0  0  0  0  0  0  0
  188.6940  177.4250  143.6350 C   0  0  0  0  0  0  0  0  0  0  0  0
  191.4420  176.8190  143.0360 C   0  0  0  0  0  2  0  0  0  0  0  0
  189.2430  177.6940  145.9920 C   0  0  0  0  0  3  0  0  0  0  0  0
  190.1070  177.6390  139.4830 C   0  0  2  0  0  3  0  0  0  0  0  0
  188.2630  177.8820  141.1920 C   0  0  0  0  0  2  0  0  0  0  0  0
  191.1320  177.4700  144.3810 C   0  0  0  0  0  2  0  0  0  0  0  0
  190.9960  176.9990  140.5620 C   0  0  2  0  0  3  0  0  0  0  0  0
  187.3770  178.0020  147.9610 Cl  0  0  0  0  0  0  0  0  0  0  0  0
  186.9280  177.6500  145.2910 C   0  0  0  0  0  3  0  0  0  0  0  0
  190.5850  177.4700  141.9580 C   0  0  1  0  0  3  0  0  0  0  0  0
  188.6080  177.4080  139.7790 C   0  0  1  0  0  3  0  0  0  0  0  0
  187.7190  178.1510  138.7850 C   0  0  2  0  0  3  0  0  0  0  0  0
  186.3600  177.4760  138.7120 C   0  0  2  0  0  3  0  0  0  0  0  0
  187.3790  177.2440  137.6190 C   0  0  0  0  0  2  0  0  0  0  0  0
  185.3310  178.4910  138.2390 C   0  0  2  0  0  3  0  0  0  0  0  0
  184.5160  178.9710  139.4390 C   0  0  2  0  0  3  0  0  0  0  0  0
  182.9060  178.5630  137.3950 C   0  0  0  0  0  1  0  0  0  0  0  0
  183.8920  178.0280  138.4240 C   0  0  1  0  0  0  0  0  0  0  0  0
  184.1070  180.2880  139.2210 O   0  0  0  0  0  1  0  0  0  0  0  0
  183.7160  176.6530  138.8780 N   0  0  0  0  0  2  0  0  0  0  0  0
  182.9170  176.6850  139.9710 O   0  0  0  0  0  1  0  0  0  0  0  0
  190.4870  175.6650  138.1840 O   0  0  0  0  0  1  0  0  0  0  0  0
  190.4900  177.0590  138.1260 C   0  0  0  0  0  2  0  0  0  0  0  0
  1 14  1  0  0  0  0
  3  8  2  0  0  0  0
  4 10  1  6  0  0  0
  4  6  1  0  0  0  0
  5 13  1  0  0  0  0
  6  1  2  0  0  0  0
  6  3  1  0  0  0  0
  7 11  1  0  0  0  0
  8  5  1  0  0  0  0
  9 28  1  6  0  0  0
  9 16  1  0  0  0  0
  9 12  1  0  0  0  0
 11  3  1  0  0  0  0
 12  2  1  6  0  0  0
 12 15  1  0  0  0  0
 14  5  2  0  0  0  0
 15  4  1  0  0  0  0
 15  7  1  1  0  0  0
 16 10  1  1  0  0  0
 17 19  1  6  0  0  0
 17 16  1  0  0  0  0
 18 19  1  6  0  0  0
 18 17  1  0  0  0  0
 20 23  1  0  0  0  0
 20 18  1  1  0  0  0
 20 21  1  0  0  0  0
 21 24  1  6  0  0  0
 23 22  1  6  0  0  0
 23 25  1  0  0  0  0
 23 21  1  0  0  0  0
 25 26  1  0  0  0  0
 28 27  1  0  0  0  0
M  END
>  <MODEL>
7

>  <REMARK>
 VINA RESULT:      -8.4      3.132      5.210
  Name = 
  4 active torsions:
  status: ('A' for Active; 'I' for Inactive)
    1  A    between atoms: C_1  and  C_27
    2  A    between atoms: C_2  and  C_3
    3  A    between atoms: N_6  and  C_11
    4  A    between atoms: C_16  and  C_21
                            x       y       z     vdW  Elec       q    Type
                         _______ _______ _______ _____ _____    ______ ____

>  <TORSDO>
F 4

$$$$
=
 OpenBabel10272401523D

 28 32  0  0  1  0  0  0  0  0999 V2000
  186.5820  177.6640  145.2790 C   0  0  0  0  0  3  0  0  0  0  0  0
  189.7680  178.0160  139.9920 O   0  0  0  0  0  1  0  0  0  0  0  0
  188.9960  177.6120  145.0170 C   0  0  0  0  0  0  0  0  0  0  0  0
  187.5250  177.5600  142.9400 C   0  0  1  0  0  3  0  0  0  0  0  0
  188.0090  177.6610  147.2310 C   0  0  0  0  0  0  0  0  0  0  0  0
  187.7060  177.6650  144.4390 C   0  0  0  0  0  0  0  0  0  0  0  0
  189.9740  177.1490  142.7470 C   0  0  0  0  0  2  0  0  0  0  0  0
  189.1370  177.6320  146.4080 C   0  0  0  0  0  3  0  0  0  0  0  0
  187.4060  178.4140  140.1230 C   0  0  2  0  0  3  0  0  0  0  0  0
  186.3830  178.4310  142.4320 C   0  0  0  0  0  2  0  0  0  0  0  0
  190.2410  177.6220  144.1730 C   0  0  0  0  0  2  0  0  0  0  0  0
  188.6130  177.6430  140.6840 C   0  0  2  0  0  3  0  0  0  0  0  0
  188.1970  177.6790  148.9720 Cl  0  0  0  0  0  0  0  0  0  0  0  0
  186.7320  177.6710  146.6680 C   0  0  0  0  0  3  0  0  0  0  0  0
  188.7980  177.9310  142.1750 C   0  0  1  0  0  3  0  0  0  0  0  0
  186.1300  178.1430  140.9510 C   0  0  1  0  0  3  0  0  0  0  0  0
  184.9620  179.0040  140.4790 C   0  0  2  0  0  3  0  0  0  0  0  0
  183.6740  178.2020  140.5520 C   0  0  2  0  0  3  0  0  0  0  0  0
  184.3590  178.4110  139.2210 C   0  0  0  0  0  2  0  0  0  0  0  0
  182.5020  179.1630  140.6770 C   0  0  2  0  0  3  0  0  0  0  0  0
  181.6640  178.7720  141.8930 C   0  0  2  0  0  3  0  0  0  0  0  0
  180.0670  179.3820  139.8890 C   0  0  0  0  0  1  0  0  0  0  0  0
  181.1460  178.4940  140.4910 C   0  0  1  0  0  0  0  0  0  0  0  0
  181.0710  179.9160  142.4310 O   0  0  0  0  0  1  0  0  0  0  0  0
  181.1740  177.0940  140.0830 N   0  0  0  0  0  2  0  0  0  0  0  0
  180.0040  176.5330  140.4730 O   0  0  0  0  0  1  0  0  0  0  0  0
  187.7590  178.9790  137.8240 O   0  0  0  0  0  1  0  0  0  0  0  0
  187.2060  178.0130  138.6650 C   0  0  0  0  0  2  0  0  0  0  0  0
  1 14  1  0  0  0  0
  3  8  2  0  0  0  0
  4 10  1  6  0  0  0
  4  6  1  0  0  0  0
  5 13  1  0  0  0  0
  6  3  1  0  0  0  0
  6  1  2  0  0  0  0
  7 11  1  0  0  0  0
  8  5  1  0  0  0  0
  9 28  1  6  0  0  0
  9 12  1  0  0  0  0
  9 16  1  0  0  0  0
 11  3  1  0  0  0  0
 12  2  1  6  0  0  0
 12 15  1  0  0  0  0
 14  5  2  0  0  0  0
 15  7  1  1  0  0  0
 15  4  1  0  0  0  0
 16 10  1  1  0  0  0
 17 19  1  6  0  0  0
 17 18  1  0  0  0  0
 17 16  1  0  0  0  0
 18 19  1  6  0  0  0
 20 18  1  1  0  0  0
 20 21  1  0  0  0  0
 21 24  1  6  0  0  0
 23 22  1  6  0  0  0
 23 20  1  0  0  0  0
 23 21  1  0  0  0  0
 25 26  1  0  0  0  0
 25 23  1  0  0  0  0
 27 28  1  0  0  0  0
M  END
>  <MODEL>
8

>  <REMARK>
 VINA RESULT:      -8.3      3.607      6.361
  Name = 
  4 active torsions:
  status: ('A' for Active; 'I' for Inactive)
    1  A    between atoms: C_1  and  C_27
    2  A    between atoms: C_2  and  C_3
    3  A    between atoms: N_6  and  C_11
    4  A    between atoms: C_16  and  C_21
                            x       y       z     vdW  Elec       q    Type
                         _______ _______ _______ _____ _____    ______ ____

>  <TORSDO>
F 4

$$$$
=
 OpenBabel10272401523D

 28 32  0  0  1  0  0  0  0  0999 V2000
  183.6390  178.2480  139.7830 C   0  0  0  0  0  3  0  0  0  0  0  0
  183.3330  179.1350  145.8940 O   0  0  0  0  0  1  0  0  0  0  0  0
  181.7360  179.0670  141.0510 C   0  0  0  0  0  0  0  0  0  0  0  0
  183.7870  178.2270  142.3030 C   0  0  1  0  0  3  0  0  0  0  0  0
  181.6540  179.0050  138.6290 C   0  0  0  0  0  0  0  0  0  0  0  0
  183.0600  178.5680  141.0200 C   0  0  0  0  0  0  0  0  0  0  0  0
  181.6890  178.7370  143.5430 C   0  0  0  0  0  2  0  0  0  0  0  0
  181.0530  179.3010  139.8530 C   0  0  0  0  0  3  0  0  0  0  0  0
  185.3800  178.6380  144.7480 C   0  0  2  0  0  3  0  0  0  0  0  0
  185.2760  178.5440  142.2260 C   0  0  0  0  0  2  0  0  0  0  0  0
  181.0620  179.4400  142.3420 C   0  0  0  0  0  2  0  0  0  0  0  0
  183.8550  178.4430  144.7980 C   0  0  2  0  0  3  0  0  0  0  0  0
  180.7870  179.2970  137.1360 Cl  0  0  0  0  0  0  0  0  0  0  0  0
  182.9440  178.4730  138.5930 C   0  0  0  0  0  3  0  0  0  0  0  0
  183.1970  178.9520  143.5150 C   0  0  1  0  0  3  0  0  0  0  0  0
  185.9850  178.0110  143.4710 C   0  0  1  0  0  3  0  0  0  0  0  0
  187.4760  178.3140  143.3510 C   0  0  2  0  0  3  0  0  0  0  0  0
  188.1660  177.1890  142.5980 C   0  0  2  0  0  3  0  0  0  0  0  0
  188.2770  177.2700  144.1040 C   0  0  0  0  0  2  0  0  0  0  0  0
  189.4400  177.7290  141.9660 C   0  0  2  0  0  3  0  0  0  0  0  0
  189.7790  176.8900  140.7350 C   0  0  2  0  0  3  0  0  0  0  0  0
  191.9820  177.3800  142.0940 C   0  0  0  0  0  1  0  0  0  0  0  0
  190.6020  176.7440  142.0050 C   0  0  1  0  0  0  0  0  0  0  0  0
  190.4370  177.6910  139.7980 O   0  0  0  0  0  1  0  0  0  0  0  0
  190.3730  175.5160  142.7570 N   0  0  0  0  0  2  0  0  0  0  0  0
  191.3440  175.4290  143.6980 O   0  0  0  0  0  1  0  0  0  0  0  0
  186.3060  179.0240  146.9200 O   0  0  0  0  0  1  0  0  0  0  0  0
  185.9930  178.0230  146.0010 C   0  0  0  0  0  2  0  0  0  0  0  0
  1  6  1  0  0  0  0
  3 11  1  0  0  0  0
  4 10  1  6  0  0  0
  4 15  1  0  0  0  0
  5  8  2  0  0  0  0
  6  3  2  0  0  0  0
  6  4  1  0  0  0  0
  8  3  1  0  0  0  0
  9 12  1  0  0  0  0
  9 28  1  1  0  0  0
 11  7  1  0  0  0  0
 12  2  1  1  0  0  0
 13  5  1  0  0  0  0
 14  5  1  0  0  0  0
 14  1  2  0  0  0  0
 15  7  1  1  0  0  0
 15 12  1  0  0  0  0
 16 10  1  6  0  0  0
 16  9  1  0  0  0  0
 17 16  1  0  0  0  0
 17 19  1  1  0  0  0
 18 17  1  0  0  0  0
 18 19  1  1  0  0  0
 20 23  1  0  0  0  0
 20 18  1  1  0  0  0
 21 24  1  6  0  0  0
 21 20  1  0  0  0  0
 21 23  1  0  0  0  0
 23 22  1  6  0  0  0
 23 25  1  0  0  0  0
 25 26  1  0  0  0  0
 28 27  1  0  0  0  0
M  END
>  <MODEL>
9

>  <REMARK>
 VINA RESULT:      -8.1      2.606      4.565
  Name = 
  4 active torsions:
  status: ('A' for Active; 'I' for Inactive)
    1  A    between atoms: C_1  and  C_27
    2  A    between atoms: C_2  and  C_3
    3  A    between atoms: N_6  and  C_11
    4  A    between atoms: C_16  and  C_21
                            x       y       z     vdW  Elec       q    Type
                         _______ _______ _______ _____ _____    ______ ____

>  <TORSDO>
F 4

$$$$
