=
 OpenBabel10272400483D

 25 28  0  0  1  0  0  0  0  0999 V2000
  187.1810  177.8570  145.3110 C   0  0  0  0  0  0  0  0  0  0  0  0
  188.4390  177.4030  144.8800 C   0  0  0  0  0  0  0  0  0  0  0  0
  187.9310  177.8540  147.6340 C   0  0  0  0  0  3  0  0  0  0  0  0
  186.0480  178.1460  144.5320 C   0  0  0  0  0  0  0  0  0  0  0  0
  183.6170  178.8120  143.3270 C   0  0  0  0  0  3  0  0  0  0  0  0
  189.1880  177.4020  147.2120 C   0  0  0  0  0  3  0  0  0  0  0  0
  184.9650  178.5780  145.2950 C   0  0  0  0  0  0  0  0  0  0  0  0
  183.7420  178.9160  144.7200 C   0  0  0  0  0  3  0  0  0  0  0  0
  190.7110  176.7190  145.4110 C   0  0  0  0  0  0  0  0  0  0  0  0
  191.8280  176.4550  146.3650 C   0  0  0  0  0  1  0  0  0  0  0  0
  188.6970  177.1820  143.5630 N   0  0  0  0  0  0  0  0  0  0  0  0
  184.7010  178.3780  142.5430 C   0  0  0  0  0  3  0  0  0  0  0  0
  186.9510  178.0740  146.6710 C   0  0  0  0  0  0  0  0  0  0  0  0
  185.3740  178.6130  146.9290 S   0  0  0  0  0  0  0  0  0  0  0  0
  190.9330  176.5050  144.0490 C   0  0  0  0  0  3  0  0  0  0  0  0
  185.9250  178.0410  143.1420 C   0  0  0  0  0  3  0  0  0  0  0  0
  189.9110  176.7420  143.1290 C   0  0  0  0  0  0  0  0  0  0  0  0
  189.4540  177.1730  145.8460 C   0  0  0  0  0  0  0  0  0  0  0  0
  190.1560  176.5190  141.7380 N   0  0  0  0  0  0  0  0  0  0  0  0
  189.5900  177.2280  140.8120 C   0  0  0  0  0  3  0  0  0  0  0  0
  189.8650  176.9760  139.3630 C   0  0  2  0  0  3  0  0  0  0  0  0
  191.3480  176.7500  139.1160 C   0  0  0  0  0  1  0  0  0  0  0  0
  189.3300  178.0740  138.4930 C   0  0  0  0  0  0  0  0  0  0  0  0
  188.8300  179.0750  138.9850 O   0  0  0  0  0  0  0  0  0  0  0  0
  189.4070  177.9400  137.0120 C   0  0  0  0  0  1  0  0  0  0  0  0
  1 13  1  0  0  0  0
  2  1  2  0  0  0  0
  2 18  1  0  0  0  0
  4  7  1  0  0  0  0
  4  1  1  0  0  0  0
  5  8  1  0  0  0  0
  6  3  1  0  0  0  0
  7 14  1  0  0  0  0
  8  7  2  0  0  0  0
  9 18  1  0  0  0  0
  9 10  1  0  0  0  0
 11  2  1  0  0  0  0
 12 16  1  0  0  0  0
 12  5  2  0  0  0  0
 13 14  1  0  0  0  0
 13  3  2  0  0  0  0
 15  9  2  0  0  0  0
 16  4  2  0  0  0  0
 17 11  2  0  0  0  0
 17 15  1  0  0  0  0
 18  6  2  0  0  0  0
 19 17  1  0  0  0  0
 20 19  2  0  0  0  0
 21 22  1  1  0  0  0
 21 20  1  0  0  0  0
 23 24  2  0  0  0  0
 23 21  1  0  0  0  0
 25 23  1  0  0  0  0
M  END
>  <MODEL>
1

>  <REMARK>
 VINA RESULT:     -10.8      0.000      0.000
  Name = 
  3 active torsions:
  status: ('A' for Active; 'I' for Inactive)
    1  A    between atoms: C_2  and  C_21
    2  A    between atoms: N_6  and  C_23
    3  A    between atoms: C_15  and  C_21
                            x       y       z     vdW  Elec       q    Type
                         _______ _______ _______ _____ _____    ______ ____

>  <TORSDO>
F 3

$$$$
=
 OpenBabel10272400483D

 25 28  0  0  1  0  0  0  0  0999 V2000
  187.5940  177.8130  145.5970 C   0  0  0  0  0  0  0  0  0  0  0  0
  186.7750  178.1370  144.5020 C   0  0  0  0  0  0  0  0  0  0  0  0
  185.7500  178.2120  147.1460 C   0  0  0  0  0  3  0  0  0  0  0  0
  188.9460  177.4280  145.5880 C   0  0  0  0  0  0  0  0  0  0  0  0
  191.5990  176.6410  145.9650 C   0  0  0  0  0  3  0  0  0  0  0  0
  184.9260  178.5340  146.0590 C   0  0  0  0  0  3  0  0  0  0  0  0
  189.4450  177.1810  146.8650 C   0  0  0  0  0  0  0  0  0  0  0  0
  190.7630  176.7890  147.0820 C   0  0  0  0  0  3  0  0  0  0  0  0
  184.6080  178.8240  143.6420 C   0  0  0  0  0  0  0  0  0  0  0  0
  183.1780  179.2160  143.8110 C   0  0  0  0  0  1  0  0  0  0  0  0
  187.2530  178.1040  143.2290 N   0  0  0  0  0  0  0  0  0  0  0  0
  191.1100  176.8870  144.6690 C   0  0  0  0  0  3  0  0  0  0  0  0
  187.0710  177.8560  146.8910 C   0  0  0  0  0  0  0  0  0  0  0  0
  188.2460  177.4290  148.0230 S   0  0  0  0  0  0  0  0  0  0  0  0
  185.1380  178.7790  142.3510 C   0  0  0  0  0  3  0  0  0  0  0  0
  189.7780  177.2830  144.4730 C   0  0  0  0  0  3  0  0  0  0  0  0
  186.4720  178.4140  142.1570 C   0  0  0  0  0  0  0  0  0  0  0  0
  185.4230  178.5010  144.7400 C   0  0  0  0  0  0  0  0  0  0  0  0
  186.9990  178.3720  140.8290 N   0  0  0  0  0  0  0  0  0  0  0  0
  188.2730  178.3890  140.5880 C   0  0  0  0  0  3  0  0  0  0  0  0
  188.8000  178.3410  139.1890 C   0  0  2  0  0  3  0  0  0  0  0  0
  187.7270  177.8870  138.2120 C   0  0  0  0  0  1  0  0  0  0  0  0
  190.0280  177.4870  139.0830 C   0  0  0  0  0  0  0  0  0  0  0  0
  190.5070  177.2110  137.9930 O   0  0  0  0  0  0  0  0  0  0  0  0
  190.6680  176.9660  140.3220 C   0  0  0  0  0  1  0  0  0  0  0  0
  1 13  2  0  0  0  0
  2 18  2  0  0  0  0
  2  1  1  0  0  0  0
  4  1  1  0  0  0  0
  4  7  1  0  0  0  0
  5  8  1  0  0  0  0
  6  3  2  0  0  0  0
  7  8  2  0  0  0  0
  7 14  1  0  0  0  0
  9 10  1  0  0  0  0
  9 18  1  0  0  0  0
 11  2  1  0  0  0  0
 12  5  2  0  0  0  0
 13  3  1  0  0  0  0
 13 14  1  0  0  0  0
 15  9  2  0  0  0  0
 16 12  1  0  0  0  0
 16  4  2  0  0  0  0
 17 15  1  0  0  0  0
 17 11  2  0  0  0  0
 18  6  1  0  0  0  0
 19 17  1  0  0  0  0
 20 19  2  0  0  0  0
 21 22  1  6  0  0  0
 21 20  1  0  0  0  0
 23 21  1  0  0  0  0
 23 25  1  0  0  0  0
 24 23  2  0  0  0  0
M  END
>  <MODEL>
2

>  <REMARK>
 VINA RESULT:     -10.5      1.478      4.672
  Name = 
  3 active torsions:
  status: ('A' for Active; 'I' for Inactive)
    1  A    between atoms: C_2  and  C_21
    2  A    between atoms: N_6  and  C_23
    3  A    between atoms: C_15  and  C_21
                            x       y       z     vdW  Elec       q    Type
                         _______ _______ _______ _____ _____    ______ ____

>  <TORSDO>
F 3

$$$$
=
 OpenBabel10272400483D

 25 28  0  0  1  0  0  0  0  0999 V2000
  186.8460  177.9390  144.8850 C   0  0  0  0  0  0  0  0  0  0  0  0
  188.0490  177.5820  144.2530 C   0  0  0  0  0  0  0  0  0  0  0  0
  187.8710  177.6630  147.0830 C   0  0  0  0  0  3  0  0  0  0  0  0
  185.6230  178.2890  144.2890 C   0  0  0  0  0  0  0  0  0  0  0  0
  183.0540  179.0280  143.4760 C   0  0  0  0  0  3  0  0  0  0  0  0
  189.0750  177.3080  146.4610 C   0  0  0  0  0  3  0  0  0  0  0  0
  184.6330  178.5870  145.2240 C   0  0  0  0  0  0  0  0  0  0  0  0
  183.3450  178.9570  144.8460 C   0  0  0  0  0  3  0  0  0  0  0  0
  190.3790  176.9070  144.4190 C   0  0  0  0  0  0  0  0  0  0  0  0
  191.6070  176.5590  145.1930 C   0  0  0  0  0  1  0  0  0  0  0  0
  188.1500  177.5400  142.8970 N   0  0  0  0  0  0  0  0  0  0  0  0
  184.0430  178.7310  142.5200 C   0  0  0  0  0  3  0  0  0  0  0  0
  186.7780  177.9730  146.2790 C   0  0  0  0  0  0  0  0  0  0  0  0
  185.2360  178.4260  146.7890 S   0  0  0  0  0  0  0  0  0  0  0  0
  190.4390  176.8760  143.0250 C   0  0  0  0  0  3  0  0  0  0  0  0
  185.3350  178.3590  142.9220 C   0  0  0  0  0  3  0  0  0  0  0  0
  189.3090  177.1970  142.2700 C   0  0  0  0  0  0  0  0  0  0  0  0
  189.1770  177.2630  145.0550 C   0  0  0  0  0  0  0  0  0  0  0  0
  189.3880  177.1600  140.8430 N   0  0  0  0  0  0  0  0  0  0  0  0
  190.5100  177.0050  140.2140 C   0  0  0  0  0  3  0  0  0  0  0  0
  190.5650  176.9670  138.7200 C   0  0  2  0  0  3  0  0  0  0  0  0
  189.1720  176.8670  138.1210 C   0  0  0  0  0  1  0  0  0  0  0  0
  191.4520  175.8650  138.2210 C   0  0  0  0  0  0  0  0  0  0  0  0
  191.0260  174.7260  138.0960 O   0  0  0  0  0  0  0  0  0  0  0  0
  192.8700  176.1630  137.8770 C   0  0  0  0  0  1  0  0  0  0  0  0
  1 13  1  0  0  0  0
  2  1  2  0  0  0  0
  2 18  1  0  0  0  0
  4  1  1  0  0  0  0
  4  7  1  0  0  0  0
  5  8  1  0  0  0  0
  6  3  1  0  0  0  0
  7 14  1  0  0  0  0
  8  7  2  0  0  0  0
  9 18  1  0  0  0  0
  9 10  1  0  0  0  0
 11  2  1  0  0  0  0
 12 16  1  0  0  0  0
 12  5  2  0  0  0  0
 13 14  1  0  0  0  0
 13  3  2  0  0  0  0
 15  9  2  0  0  0  0
 16  4  2  0  0  0  0
 17 11  2  0  0  0  0
 17 15  1  0  0  0  0
 18  6  2  0  0  0  0
 19 17  1  0  0  0  0
 20 19  2  0  0  0  0
 21 22  1  6  0  0  0
 21 20  1  0  0  0  0
 23 21  1  0  0  0  0
 24 23  2  0  0  0  0
 25 23  1  0  0  0  0
M  END
>  <MODEL>
3

>  <REMARK>
 VINA RESULT:     -10.2      1.331      1.679
  Name = 
  3 active torsions:
  status: ('A' for Active; 'I' for Inactive)
    1  A    between atoms: C_2  and  C_21
    2  A    between atoms: N_6  and  C_23
    3  A    between atoms: C_15  and  C_21
                            x       y       z     vdW  Elec       q    Type
                         _______ _______ _______ _____ _____    ______ ____

>  <TORSDO>
F 3

$$$$
=
 OpenBabel10272400483D

 25 28  0  0  1  0  0  0  0  0999 V2000
  189.4370  177.4780  143.9200 C   0  0  0  0  0  0  0  0  0  0  0  0
  188.4240  177.7000  144.8690 C   0  0  0  0  0  0  0  0  0  0  0  0
  191.0460  176.9950  145.6910 C   0  0  0  0  0  3  0  0  0  0  0  0
  189.3480  177.5560  142.5200 C   0  0  0  0  0  0  0  0  0  0  0  0
  189.5570  177.6140  139.7350 C   0  0  0  0  0  3  0  0  0  0  0  0
  190.0420  177.2130  146.6430 C   0  0  0  0  0  3  0  0  0  0  0  0
  190.5560  177.2720  141.8860 C   0  0  0  0  0  0  0  0  0  0  0  0
  190.6880  177.2940  140.5000 C   0  0  0  0  0  3  0  0  0  0  0  0
  187.7180  177.7870  147.1940 C   0  0  0  0  0  0  0  0  0  0  0  0
  187.9660  177.6630  148.6600 C   0  0  0  0  0  1  0  0  0  0  0  0
  187.1620  178.0370  144.4900 N   0  0  0  0  0  0  0  0  0  0  0  0
  188.3300  177.9030  140.3600 C   0  0  0  0  0  3  0  0  0  0  0  0
  190.7210  177.1320  144.3450 C   0  0  0  0  0  0  0  0  0  0  0  0
  191.7480  176.9220  143.0240 S   0  0  0  0  0  0  0  0  0  0  0  0
  186.4370  178.1320  146.7610 C   0  0  0  0  0  3  0  0  0  0  0  0
  188.2180  177.8760  141.7590 C   0  0  0  0  0  3  0  0  0  0  0  0
  186.1700  178.2550  145.3970 C   0  0  0  0  0  0  0  0  0  0  0  0
  188.7340  177.5640  146.2480 C   0  0  0  0  0  0  0  0  0  0  0  0
  184.8520  178.6090  144.9700 N   0  0  0  0  0  0  0  0  0  0  0  0
  184.5560  178.8050  143.7240 C   0  0  0  0  0  3  0  0  0  0  0  0
  183.1680  179.1720  143.3040 C   0  0  2  0  0  3  0  0  0  0  0  0
  182.1440  178.7190  144.3310 C   0  0  0  0  0  1  0  0  0  0  0  0
  182.8390  178.6440  141.9390 C   0  0  0  0  0  0  0  0  0  0  0  0
  181.6920  178.6650  141.5190 O   0  0  0  0  0  0  0  0  0  0  0  0
  183.9260  178.0850  141.0880 C   0  0  0  0  0  1  0  0  0  0  0  0
  1 13  1  0  0  0  0
  1  2  2  0  0  0  0
  2 18  1  0  0  0  0
  3  6  1  0  0  0  0
  4  1  1  0  0  0  0
  5 12  2  0  0  0  0
  5  8  1  0  0  0  0
  7  4  1  0  0  0  0
  7 14  1  0  0  0  0
  8  7  2  0  0  0  0
  9 10  1  0  0  0  0
 11  2  1  0  0  0  0
 11 17  2  0  0  0  0
 12 16  1  0  0  0  0
 13  3  2  0  0  0  0
 14 13  1  0  0  0  0
 15  9  2  0  0  0  0
 16  4  2  0  0  0  0
 17 15  1  0  0  0  0
 18  6  2  0  0  0  0
 18  9  1  0  0  0  0
 19 17  1  0  0  0  0
 20 19  2  0  0  0  0
 21 20  1  0  0  0  0
 21 22  1  1  0  0  0
 23 21  1  0  0  0  0
 24 23  2  0  0  0  0
 25 23  1  0  0  0  0
M  END
>  <MODEL>
4

>  <REMARK>
 VINA RESULT:      -9.8      2.600      5.711
  Name = 
  3 active torsions:
  status: ('A' for Active; 'I' for Inactive)
    1  A    between atoms: C_2  and  C_21
    2  A    between atoms: N_6  and  C_23
    3  A    between atoms: C_15  and  C_21
                            x       y       z     vdW  Elec       q    Type
                         _______ _______ _______ _____ _____    ______ ____

>  <TORSDO>
F 3

$$$$
=
 OpenBabel10272400483D

 25 28  0  0  1  0  0  0  0  0999 V2000
  187.3480  177.9070  145.2270 C   0  0  0  0  0  0  0  0  0  0  0  0
  186.4590  178.2300  144.1880 C   0  0  0  0  0  0  0  0  0  0  0  0
  185.5700  178.1550  146.8800 C   0  0  0  0  0  3  0  0  0  0  0  0
  188.7140  177.5920  145.1350 C   0  0  0  0  0  0  0  0  0  0  0  0
  191.4190  176.9260  145.3470 C   0  0  0  0  0  3  0  0  0  0  0  0
  184.6760  178.4750  145.8500 C   0  0  0  0  0  3  0  0  0  0  0  0
  189.2910  177.3230  146.3750 C   0  0  0  0  0  0  0  0  0  0  0  0
  190.6360  176.9900  146.5090 C   0  0  0  0  0  3  0  0  0  0  0  0
  184.2190  178.8380  143.4640 C   0  0  0  0  0  0  0  0  0  0  0  0
  182.7820  179.1510  143.7200 C   0  0  0  0  0  1  0  0  0  0  0  0
  186.8710  178.2690  142.8920 N   0  0  0  0  0  0  0  0  0  0  0  0
  190.8520  177.1940  144.0880 C   0  0  0  0  0  3  0  0  0  0  0  0
  186.8910  177.8760  146.5450 C   0  0  0  0  0  0  0  0  0  0  0  0
  188.1420  177.4670  147.5990 S   0  0  0  0  0  0  0  0  0  0  0  0
  184.6830  178.8680  142.1480 C   0  0  0  0  0  3  0  0  0  0  0  0
  189.4940  177.5300  143.9750 C   0  0  0  0  0  3  0  0  0  0  0  0
  186.0210  178.5790  141.8730 C   0  0  0  0  0  0  0  0  0  0  0  0
  185.1050  178.5170  144.5070 C   0  0  0  0  0  0  0  0  0  0  0  0
  186.4810  178.6130  140.5200 N   0  0  0  0  0  0  0  0  0  0  0  0
  185.6880  178.4140  139.5140 C   0  0  0  0  0  3  0  0  0  0  0  0
  186.1940  178.4570  138.1060 C   0  0  2  0  0  3  0  0  0  0  0  0
  185.4470  177.4710  137.2230 C   0  0  0  0  0  1  0  0  0  0  0  0
  187.6750  178.2350  138.0370 C   0  0  0  0  0  0  0  0  0  0  0  0
  188.4370  179.1600  137.7980 O   0  0  0  0  0  0  0  0  0  0  0  0
  188.2230  176.8690  138.2600 C   0  0  0  0  0  1  0  0  0  0  0  0
  1 13  2  0  0  0  0
  2 18  2  0  0  0  0
  2  1  1  0  0  0  0
  4  1  1  0  0  0  0
  4  7  1  0  0  0  0
  5  8  1  0  0  0  0
  6  3  2  0  0  0  0
  7  8  2  0  0  0  0
  7 14  1  0  0  0  0
  9 10  1  0  0  0  0
  9 18  1  0  0  0  0
 11  2  1  0  0  0  0
 12  5  2  0  0  0  0
 13  3  1  0  0  0  0
 13 14  1  0  0  0  0
 15  9  2  0  0  0  0
 16 12  1  0  0  0  0
 16  4  2  0  0  0  0
 17 15  1  0  0  0  0
 17 11  2  0  0  0  0
 18  6  1  0  0  0  0
 19 17  1  0  0  0  0
 20 19  2  0  0  0  0
 21 22  1  6  0  0  0
 21 20  1  0  0  0  0
 23 21  1  0  0  0  0
 23 25  1  0  0  0  0
 24 23  2  0  0  0  0
M  END
>  <MODEL>
5

>  <REMARK>
 VINA RESULT:      -9.7      1.849      4.885
  Name = 
  3 active torsions:
  status: ('A' for Active; 'I' for Inactive)
    1  A    between atoms: C_2  and  C_21
    2  A    between atoms: N_6  and  C_23
    3  A    between atoms: C_15  and  C_21
                            x       y       z     vdW  Elec       q    Type
                         _______ _______ _______ _____ _____    ______ ____

>  <TORSDO>
F 3

$$$$
=
 OpenBabel10272400483D

 25 28  0  0  1  0  0  0  0  0999 V2000
  187.3090  178.1370  141.4250 C   0  0  0  0  0  0  0  0  0  0  0  0
  186.7120  178.2000  142.6970 C   0  0  0  0  0  0  0  0  0  0  0  0
  185.1980  178.7460  140.3610 C   0  0  0  0  0  3  0  0  0  0  0  0
  188.6400  177.8220  141.1050 C   0  0  0  0  0  0  0  0  0  0  0  0
  191.1780  177.2490  140.0890 C   0  0  0  0  0  3  0  0  0  0  0  0
  184.5970  178.8120  141.6240 C   0  0  0  0  0  3  0  0  0  0  0  0
  188.8870  177.8550  139.7340 C   0  0  0  0  0  0  0  0  0  0  0  0
  190.1420  177.5730  139.2010 C   0  0  0  0  0  3  0  0  0  0  0  0
  184.7450  178.6040  144.0670 C   0  0  0  0  0  0  0  0  0  0  0  0
  183.3070  178.9570  144.2500 C   0  0  0  0  0  1  0  0  0  0  0  0
  187.4260  177.9410  143.8250 N   0  0  0  0  0  0  0  0  0  0  0  0
  190.9450  177.2120  141.4760 C   0  0  0  0  0  3  0  0  0  0  0  0
  186.5470  178.4100  140.2880 C   0  0  0  0  0  0  0  0  0  0  0  0
  187.4860  178.2680  138.8950 S   0  0  0  0  0  0  0  0  0  0  0  0
  185.5140  178.3300  145.2000 C   0  0  0  0  0  3  0  0  0  0  0  0
  189.6720  177.4990  141.9930 C   0  0  0  0  0  3  0  0  0  0  0  0
  186.8630  177.9980  145.0640 C   0  0  0  0  0  0  0  0  0  0  0  0
  185.3380  178.5420  142.7940 C   0  0  0  0  0  0  0  0  0  0  0  0
  187.6360  177.7210  146.2340 N   0  0  0  0  0  0  0  0  0  0  0  0
  188.8500  177.2710  146.1730 C   0  0  0  0  0  3  0  0  0  0  0  0
  189.6400  176.9920  147.4130 C   0  0  2  0  0  3  0  0  0  0  0  0
  189.3890  178.0510  148.4740 C   0  0  0  0  0  1  0  0  0  0  0  0
  191.1040  176.8490  147.1220 C   0  0  0  0  0  0  0  0  0  0  0  0
  191.9290  176.9040  148.0220 O   0  0  0  0  0  0  0  0  0  0  0  0
  191.5560  176.6410  145.7190 C   0  0  0  0  0  1  0  0  0  0  0  0
  1  2  2  0  0  0  0
  2 18  1  0  0  0  0
  2 11  1  0  0  0  0
  3  6  1  0  0  0  0
  4  1  1  0  0  0  0
  4 16  1  0  0  0  0
  5 12  1  0  0  0  0
  6 18  2  0  0  0  0
  7  4  2  0  0  0  0
  8  7  1  0  0  0  0
  8  5  2  0  0  0  0
  9 10  1  0  0  0  0
  9 15  2  0  0  0  0
 11 17  2  0  0  0  0
 12 16  2  0  0  0  0
 13  3  2  0  0  0  0
 13  1  1  0  0  0  0
 14  7  1  0  0  0  0
 14 13  1  0  0  0  0
 17 15  1  0  0  0  0
 17 19  1  0  0  0  0
 18  9  1  0  0  0  0
 20 19  2  0  0  0  0
 20 21  1  0  0  0  0
 21 22  1  1  0  0  0
 23 21  1  0  0  0  0
 23 24  2  0  0  0  0
 25 23  1  0  0  0  0
M  END
>  <MODEL>
6

>  <REMARK>
 VINA RESULT:      -9.7      2.916      6.902
  Name = 
  3 active torsions:
  status: ('A' for Active; 'I' for Inactive)
    1  A    between atoms: C_2  and  C_21
    2  A    between atoms: N_6  and  C_23
    3  A    between atoms: C_15  and  C_21
                            x       y       z     vdW  Elec       q    Type
                         _______ _______ _______ _____ _____    ______ ____

>  <TORSDO>
F 3

$$$$
=
 OpenBabel10272400483D

 25 28  0  0  1  0  0  0  0  0999 V2000
  186.0250  178.3170  144.5010 C   0  0  0  0  0  0  0  0  0  0  0  0
  186.0020  178.4520  143.1020 C   0  0  0  0  0  0  0  0  0  0  0  0
  183.6240  178.7380  144.6220 C   0  0  0  0  0  3  0  0  0  0  0  0
  187.1260  178.0400  145.3290 C   0  0  0  0  0  0  0  0  0  0  0  0
  189.0570  177.5100  147.2770 C   0  0  0  0  0  3  0  0  0  0  0  0
  183.5920  178.8730  143.2280 C   0  0  0  0  0  3  0  0  0  0  0  0
  186.7840  177.9750  146.6780 C   0  0  0  0  0  0  0  0  0  0  0  0
  187.7260  177.7130  147.6690 C   0  0  0  0  0  3  0  0  0  0  0  0
  184.7490  178.8690  141.0610 C   0  0  0  0  0  0  0  0  0  0  0  0
  183.4910  179.1640  140.3150 C   0  0  0  0  0  1  0  0  0  0  0  0
  187.1350  178.3180  142.3610 N   0  0  0  0  0  0  0  0  0  0  0  0
  189.4190  177.5720  145.9190 C   0  0  0  0  0  3  0  0  0  0  0  0
  184.8440  178.4610  145.2310 C   0  0  0  0  0  0  0  0  0  0  0  0
  185.1340  178.2540  146.8790 S   0  0  0  0  0  0  0  0  0  0  0  0
  185.9340  178.7240  140.3380 C   0  0  0  0  0  3  0  0  0  0  0  0
  188.4540  177.8380  144.9360 C   0  0  0  0  0  3  0  0  0  0  0  0
  187.1290  178.4460  141.0050 C   0  0  0  0  0  0  0  0  0  0  0  0
  184.7680  178.7340  142.4600 C   0  0  0  0  0  0  0  0  0  0  0  0
  188.3340  178.2990  140.2500 N   0  0  0  0  0  0  0  0  0  0  0  0
  189.2420  177.4270  140.5560 C   0  0  0  0  0  3  0  0  0  0  0  0
  190.4940  177.2920  139.7470 C   0  0  2  0  0  3  0  0  0  0  0  0
  190.4450  176.0590  138.8600 C   0  0  0  0  0  1  0  0  0  0  0  0
  191.7200  177.2910  140.6110 C   0  0  0  0  0  0  0  0  0  0  0  0
  192.8360  177.2900  140.1140 O   0  0  0  0  0  0  0  0  0  0  0  0
  191.5730  177.2890  142.0930 C   0  0  0  0  0  1  0  0  0  0  0  0
  1 13  2  0  0  0  0
  1  4  1  0  0  0  0
  2  1  1  0  0  0  0
  3 13  1  0  0  0  0
  4  7  1  0  0  0  0
  5  8  1  0  0  0  0
  6  3  2  0  0  0  0
  7 14  1  0  0  0  0
  7  8  2  0  0  0  0
  9 18  1  0  0  0  0
 10  9  1  0  0  0  0
 11  2  1  0  0  0  0
 12  5  2  0  0  0  0
 13 14  1  0  0  0  0
 15 17  1  0  0  0  0
 15  9  2  0  0  0  0
 16  4  2  0  0  0  0
 16 12  1  0  0  0  0
 17 11  2  0  0  0  0
 18  2  2  0  0  0  0
 18  6  1  0  0  0  0
 19 20  2  0  0  0  0
 19 17  1  0  0  0  0
 21 22  1  1  0  0  0
 21 20  1  0  0  0  0
 21 23  1  0  0  0  0
 23 25  1  0  0  0  0
 24 23  2  0  0  0  0
M  END
>  <MODEL>
7

>  <REMARK>
 VINA RESULT:      -9.6      1.652      4.762
  Name = 
  3 active torsions:
  status: ('A' for Active; 'I' for Inactive)
    1  A    between atoms: C_2  and  C_21
    2  A    between atoms: N_6  and  C_23
    3  A    between atoms: C_15  and  C_21
                            x       y       z     vdW  Elec       q    Type
                         _______ _______ _______ _____ _____    ______ ____

>  <TORSDO>
F 3

$$$$
=
 OpenBabel10272400483D

 25 28  0  0  1  0  0  0  0  0999 V2000
  185.5270  178.2760  144.1980 C   0  0  0  0  0  0  0  0  0  0  0  0
  186.8880  177.9280  144.2000 C   0  0  0  0  0  0  0  0  0  0  0  0
  185.5240  178.4410  146.6330 C   0  0  0  0  0  3  0  0  0  0  0  0
  184.6690  178.4210  143.0940 C   0  0  0  0  0  0  0  0  0  0  0  0
  182.6820  178.7980  141.1670 C   0  0  0  0  0  3  0  0  0  0  0  0
  186.8810  178.0960  146.6440 C   0  0  0  0  0  3  0  0  0  0  0  0
  183.3730  178.7770  143.4620 C   0  0  0  0  0  0  0  0  0  0  0  0
  182.3630  178.9710  142.5230 C   0  0  0  0  0  3  0  0  0  0  0  0
  188.9340  177.4900  145.4390 C   0  0  0  0  0  0  0  0  0  0  0  0
  189.7200  177.3760  146.7020 C   0  0  0  0  0  1  0  0  0  0  0  0
  187.5560  177.6800  143.0410 N   0  0  0  0  0  0  0  0  0  0  0  0
  183.9860  178.4390  140.7800 C   0  0  0  0  0  3  0  0  0  0  0  0
  184.8730  178.5250  145.4060 C   0  0  0  0  0  0  0  0  0  0  0  0
  183.2560  178.9190  145.1370 S   0  0  0  0  0  0  0  0  0  0  0  0
  189.5810  177.2430  144.2270 C   0  0  0  0  0  3  0  0  0  0  0  0
  184.9880  178.2480  141.7430 C   0  0  0  0  0  3  0  0  0  0  0  0
  188.8750  177.3420  143.0260 C   0  0  0  0  0  0  0  0  0  0  0  0
  187.5720  177.8380  145.4410 C   0  0  0  0  0  0  0  0  0  0  0  0
  189.5530  177.0860  141.7940 N   0  0  0  0  0  0  0  0  0  0  0  0
  189.0130  177.3330  140.6410 C   0  0  0  0  0  3  0  0  0  0  0  0
  189.7440  177.0580  139.3650 C   0  0  2  0  0  3  0  0  0  0  0  0
  191.2460  177.0040  139.5930 C   0  0  0  0  0  1  0  0  0  0  0  0
  189.3920  178.0490  138.2960 C   0  0  0  0  0  0  0  0  0  0  0  0
  189.0290  179.1790  138.5830 O   0  0  0  0  0  0  0  0  0  0  0  0
  189.4830  177.6460  136.8650 C   0  0  0  0  0  1  0  0  0  0  0  0
  1  2  2  0  0  0  0
  1 13  1  0  0  0  0
  2 18  1  0  0  0  0
  3  6  1  0  0  0  0
  4  7  1  0  0  0  0
  4  1  1  0  0  0  0
  5  8  1  0  0  0  0
  7 14  1  0  0  0  0
  8  7  2  0  0  0  0
  9 18  1  0  0  0  0
  9 10  1  0  0  0  0
 11  2  1  0  0  0  0
 12  5  2  0  0  0  0
 12 16  1  0  0  0  0
 13  3  2  0  0  0  0
 14 13  1  0  0  0  0
 15  9  2  0  0  0  0
 16  4  2  0  0  0  0
 17 11  2  0  0  0  0
 17 15  1  0  0  0  0
 18  6  2  0  0  0  0
 19 17  1  0  0  0  0
 20 19  2  0  0  0  0
 21 22  1  1  0  0  0
 21 20  1  0  0  0  0
 23 24  2  0  0  0  0
 23 21  1  0  0  0  0
 25 23  1  0  0  0  0
M  END
>  <MODEL>
8

>  <REMARK>
 VINA RESULT:      -9.5      1.124      1.833
  Name = 
  3 active torsions:
  status: ('A' for Active; 'I' for Inactive)
    1  A    between atoms: C_2  and  C_21
    2  A    between atoms: N_6  and  C_23
    3  A    between atoms: C_15  and  C_21
                            x       y       z     vdW  Elec       q    Type
                         _______ _______ _______ _____ _____    ______ ____

>  <TORSDO>
F 3

$$$$
=
 OpenBabel10272400483D

 25 28  0  0  1  0  0  0  0  0999 V2000
  188.6230  177.6630  143.4990 C   0  0  0  0  0  0  0  0  0  0  0  0
  187.3000  177.9300  143.8900 C   0  0  0  0  0  0  0  0  0  0  0  0
  189.3140  177.4590  145.8310 C   0  0  0  0  0  3  0  0  0  0  0  0
  189.1450  177.5860  142.1970 C   0  0  0  0  0  0  0  0  0  0  0  0
  190.5320  177.3560  139.7830 C   0  0  0  0  0  3  0  0  0  0  0  0
  187.9970  177.7240  146.2290 C   0  0  0  0  0  3  0  0  0  0  0  0
  190.5090  177.3000  142.1780 C   0  0  0  0  0  0  0  0  0  0  0  0
  191.2250  177.1810  140.9900 C   0  0  0  0  0  3  0  0  0  0  0  0
  185.6620  178.2280  145.6620 C   0  0  0  0  0  0  0  0  0  0  0  0
  185.2550  178.2760  147.0970 C   0  0  0  0  0  1  0  0  0  0  0  0
  186.3240  178.1580  142.9700 N   0  0  0  0  0  0  0  0  0  0  0  0
  189.1560  177.6440  139.7840 C   0  0  0  0  0  3  0  0  0  0  0  0
  189.6000  177.4330  144.4690 C   0  0  0  0  0  0  0  0  0  0  0  0
  191.0960  177.1380  143.7500 S   0  0  0  0  0  0  0  0  0  0  0  0
  184.6910  178.4560  144.6850 C   0  0  0  0  0  3  0  0  0  0  0  0
  188.4530  177.7610  140.9930 C   0  0  0  0  0  3  0  0  0  0  0  0
  185.0370  178.4180  143.3330 C   0  0  0  0  0  0  0  0  0  0  0  0
  186.9860  177.9600  145.2740 C   0  0  0  0  0  0  0  0  0  0  0  0
  184.0300  178.6530  142.3460 N   0  0  0  0  0  0  0  0  0  0  0  0
  184.0620  178.0960  141.1760 C   0  0  0  0  0  3  0  0  0  0  0  0
  182.9950  178.3570  140.1620 C   0  0  2  0  0  3  0  0  0  0  0  0
  182.7020  177.1130  139.3390 C   0  0  0  0  0  1  0  0  0  0  0  0
  183.3330  179.5230  139.2820 C   0  0  0  0  0  0  0  0  0  0  0  0
  184.4760  179.9520  139.2210 O   0  0  0  0  0  0  0  0  0  0  0  0
  182.2600  180.1680  138.4750 C   0  0  0  0  0  1  0  0  0  0  0  0
  1  2  2  0  0  0  0
  1 13  1  0  0  0  0
  2 18  1  0  0  0  0
  3  6  1  0  0  0  0
  4  1  1  0  0  0  0
  5 12  2  0  0  0  0
  5  8  1  0  0  0  0
  7  4  1  0  0  0  0
  7 14  1  0  0  0  0
  8  7  2  0  0  0  0
  9 10  1  0  0  0  0
 11 17  2  0  0  0  0
 11  2  1  0  0  0  0
 12 16  1  0  0  0  0
 13  3  2  0  0  0  0
 14 13  1  0  0  0  0
 15  9  2  0  0  0  0
 16  4  2  0  0  0  0
 17 15  1  0  0  0  0
 18  9  1  0  0  0  0
 18  6  2  0  0  0  0
 19 17  1  0  0  0  0
 20 19  2  0  0  0  0
 21 22  1  6  0  0  0
 21 20  1  0  0  0  0
 23 21  1  0  0  0  0
 24 23  2  0  0  0  0
 25 23  1  0  0  0  0
M  END
>  <MODEL>
9

>  <REMARK>
 VINA RESULT:      -9.3      2.725      5.582
  Name = 
  3 active torsions:
  status: ('A' for Active; 'I' for Inactive)
    1  A    between atoms: C_2  and  C_21
    2  A    between atoms: N_6  and  C_23
    3  A    between atoms: C_15  and  C_21
                            x       y       z     vdW  Elec       q    Type
                         _______ _______ _______ _____ _____    ______ ____

>  <TORSDO>
F 3

$$$$
