=
 OpenBabel10272413213D

 32 37  0  0  0  0  0  0  0  0999 V2000
  183.1310  178.7900  145.2200 C   0  0  0  0  0  3  0  0  0  0  0  0
  187.5960  177.8460  143.0260 C   0  0  0  0  0  0  0  0  0  0  0  0
  190.5400  176.9130  146.8210 C   0  0  0  0  0  3  0  0  0  0  0  0
  191.6070  176.7080  145.9480 C   0  0  0  0  0  3  0  0  0  0  0  0
  188.5180  177.7610  140.7080 C   0  0  0  0  0  0  0  0  0  0  0  0
  189.6280  177.5410  139.9010 C   0  0  0  0  0  0  0  0  0  0  0  0
  185.2500  178.3850  143.4400 C   0  0  0  0  0  0  0  0  0  0  0  0
  186.7210  177.9210  145.3070 C   0  0  0  0  0  3  0  0  0  0  0  0
  191.7120  177.0690  139.4060 N   0  0  0  0  0  0  0  0  0  0  0  0
  184.3960  178.4560  145.7130 C   0  0  0  0  0  3  0  0  0  0  0  0
  189.2830  177.2450  146.3160 C   0  0  0  0  0  3  0  0  0  0  0  0
  187.8000  177.7130  144.4260 C   0  0  0  0  0  0  0  0  0  0  0  0
  189.0710  177.3780  144.9300 C   0  0  0  0  0  0  0  0  0  0  0  0
  189.9670  177.2970  142.6530 C   0  0  0  0  0  0  0  0  0  0  0  0
  191.0800  177.2890  138.2600 N   0  0  0  0  0  0  0  0  0  0  0  0
  182.9190  178.9220  143.8380 C   0  0  0  0  0  0  0  0  0  0  0  0
  185.4570  178.2530  144.8270 C   0  0  0  0  0  0  0  0  0  0  0  0
  189.7810  177.5850  138.5260 C   0  0  0  0  0  3  0  0  0  0  0  0
  183.9840  178.7190  142.9530 C   0  0  0  0  0  3  0  0  0  0  0  0
  191.4160  176.8350  144.5730 C   0  0  0  0  0  3  0  0  0  0  0  0
  190.1550  177.1700  144.0440 C   0  0  0  0  0  0  0  0  0  0  0  0
  191.0580  177.0870  141.7770 C   0  0  0  0  0  3  0  0  0  0  0  0
  186.3110  178.1830  142.5600 C   0  0  0  0  0  3  0  0  0  0  0  0
  187.3360  178.0790  140.1210 F   0  0  0  0  0  0  0  0  0  0  0  0
  193.1200  176.7240  139.5080 C   0  0  0  0  0  1  0  0  0  0  0  0
  188.6740  177.6390  142.1250 C   0  0  0  0  0  0  0  0  0  0  0  0
  190.8420  177.2190  140.4130 C   0  0  0  0  0  0  0  0  0  0  0  0
  181.6340  179.2630  143.3150 N   0  0  0  0  0  2  0  0  0  0  0  0
  181.0990  178.6830  142.0920 C   0  0  0  0  0  2  0  0  0  0  0  0
  180.6480  179.7690  141.1820 C   0  0  0  0  0  0  0  0  0  0  0  0
  180.9270  179.6960  139.8230 O   0  0  0  0  0  0  0  0  0  0  0  0
  179.9830  180.7350  141.6350 O   0  0  0  0  0  1  0  0  0  0  0  0
  1 10  1  0  0  0  0
  2 12  1  0  0  0  0
  4  3  2  0  0  0  0
  5 26  1  0  0  0  0
  6 27  1  0  0  0  0
  6  5  2  0  0  0  0
  7 17  1  0  0  0  0
  9 25  1  0  0  0  0
  9 27  1  0  0  0  0
 11  3  1  0  0  0  0
 12 13  1  0  0  0  0
 12  8  2  0  0  0  0
 13 11  2  0  0  0  0
 14 21  1  0  0  0  0
 15 18  2  0  0  0  0
 15  9  1  0  0  0  0
 16  1  2  0  0  0  0
 17  8  1  0  0  0  0
 17 10  2  0  0  0  0
 18  6  1  0  0  0  0
 19  7  2  0  0  0  0
 19 16  1  0  0  0  0
 20  4  1  0  0  0  0
 21 20  2  0  0  0  0
 21 13  1  0  0  0  0
 22 14  1  0  0  0  0
 23  2  2  0  0  0  0
 23  7  1  0  0  0  0
 24  5  1  0  0  0  0
 26 14  2  0  0  0  0
 26  2  1  0  0  0  0
 27 22  2  0  0  0  0
 28 16  1  0  0  0  0
 29 28  1  0  0  0  0
 30 32  1  0  0  0  0
 30 29  1  0  0  0  0
 31 30  2  0  0  0  0
M  END
>  <MODEL>
1

>  <REMARK>
 VINA RESULT:     -11.7      0.000      0.000
  Name = 
  3 active torsions:
  status: ('A' for Active; 'I' for Inactive)
    1  A    between atoms: C_1  and  C_10
    2  A    between atoms: C_10  and  N_24
    3  A    between atoms: C_19  and  N_24
                            x       y       z     vdW  Elec       q    Type
                         _______ _______ _______ _____ _____    ______ ____

>  <TORSDO>
F 3

$$$$
=
 OpenBabel10272413213D

 32 37  0  0  0  0  0  0  0  0999 V2000
  188.5870  177.7250  137.2500 C   0  0  0  0  0  3  0  0  0  0  0  0
  188.0390  177.7800  142.2830 C   0  0  0  0  0  0  0  0  0  0  0  0
  183.3580  179.0670  142.8910 C   0  0  0  0  0  3  0  0  0  0  0  0
  183.5130  178.9970  144.2740 C   0  0  0  0  0  3  0  0  0  0  0  0
  189.4620  177.3460  144.2870 C   0  0  0  0  0  0  0  0  0  0  0  0
  189.5410  177.2970  145.6740 C   0  0  0  0  0  0  0  0  0  0  0  0
  188.9350  177.5740  140.0200 C   0  0  0  0  0  0  0  0  0  0  0  0
  186.6210  178.2100  140.3390 C   0  0  0  0  0  3  0  0  0  0  0  0
  188.8490  177.4500  147.7500 N   0  0  0  0  0  0  0  0  0  0  0  0
  187.5140  178.0060  138.0990 C   0  0  0  0  0  3  0  0  0  0  0  0
  184.4370  178.7830  142.0540 C   0  0  0  0  0  3  0  0  0  0  0  0
  186.7770  178.1400  141.7370 C   0  0  0  0  0  0  0  0  0  0  0  0
  185.6910  178.4250  142.5860 C   0  0  0  0  0  0  0  0  0  0  0  0
  187.0940  177.9980  144.5470 C   0  0  0  0  0  0  0  0  0  0  0  0
  190.1270  177.0940  147.7910 N   0  0  0  0  0  0  0  0  0  0  0  0
  189.8380  177.3670  137.7790 C   0  0  0  0  0  0  0  0  0  0  0  0
  187.6840  177.9320  139.4840 C   0  0  0  0  0  0  0  0  0  0  0  0
  190.5930  176.9890  146.5190 C   0  0  0  0  0  3  0  0  0  0  0  0
  190.0050  177.2940  139.1670 C   0  0  0  0  0  3  0  0  0  0  0  0
  184.7480  178.6440  144.8190 C   0  0  0  0  0  3  0  0  0  0  0  0
  185.8490  178.3550  143.9910 C   0  0  0  0  0  0  0  0  0  0  0  0
  187.2410  177.9310  145.9520 C   0  0  0  0  0  3  0  0  0  0  0  0
  189.1010  177.5020  141.4020 C   0  0  0  0  0  3  0  0  0  0  0  0
  190.5700  177.0520  143.5590 F   0  0  0  0  0  0  0  0  0  0  0  0
  188.0210  177.6560  148.9260 C   0  0  0  0  0  1  0  0  0  0  0  0
  188.2120  177.7040  143.6910 C   0  0  0  0  0  0  0  0  0  0  0  0
  188.4780  177.5770  146.4690 C   0  0  0  0  0  0  0  0  0  0  0  0
  190.9470  177.0760  136.9270 N   0  0  0  0  0  2  0  0  0  0  0  0
  191.8690  175.9780  137.1780 C   0  0  0  0  0  2  0  0  0  0  0  0
  193.2060  176.5220  137.5360 C   0  0  0  0  0  0  0  0  0  0  0  0
  193.5080  176.8020  138.8630 O   0  0  0  0  0  1  0  0  0  0  0  0
  194.0760  176.6950  136.6440 O   0  0  0  0  0  0  0  0  0  0  0  0
  1 16  2  0  0  0  0
  1 10  1  0  0  0  0
  2 26  1  0  0  0  0
  3  4  1  0  0  0  0
  4 20  2  0  0  0  0
  5  6  1  0  0  0  0
  6 27  2  0  0  0  0
  6 18  1  0  0  0  0
  7 23  1  0  0  0  0
  8 12  2  0  0  0  0
  9 15  1  0  0  0  0
  9 25  1  0  0  0  0
 10 17  2  0  0  0  0
 11 13  1  0  0  0  0
 11  3  2  0  0  0  0
 12  2  1  0  0  0  0
 12 13  1  0  0  0  0
 13 21  2  0  0  0  0
 14 22  2  0  0  0  0
 16 19  1  0  0  0  0
 17  7  1  0  0  0  0
 17  8  1  0  0  0  0
 18 15  2  0  0  0  0
 19  7  2  0  0  0  0
 21 14  1  0  0  0  0
 21 20  1  0  0  0  0
 22 27  1  0  0  0  0
 23  2  2  0  0  0  0
 24  5  1  0  0  0  0
 26  5  2  0  0  0  0
 26 14  1  0  0  0  0
 27  9  1  0  0  0  0
 28 29  1  0  0  0  0
 28 16  1  0  0  0  0
 29 30  1  0  0  0  0
 30 31  1  0  0  0  0
 32 30  2  0  0  0  0
M  END
>  <MODEL>
2

>  <REMARK>
 VINA RESULT:     -11.0      4.253      8.023
  Name = 
  3 active torsions:
  status: ('A' for Active; 'I' for Inactive)
    1  A    between atoms: C_1  and  C_10
    2  A    between atoms: C_10  and  N_24
    3  A    between atoms: C_19  and  N_24
                            x       y       z     vdW  Elec       q    Type
                         _______ _______ _______ _____ _____    ______ ____

>  <TORSDO>
F 3

$$$$
=
 OpenBabel10272413213D

 32 37  0  0  0  0  0  0  0  0999 V2000
  190.3210  176.7470  147.8290 C   0  0  0  0  0  3  0  0  0  0  0  0
  188.6220  177.5880  143.1330 C   0  0  0  0  0  0  0  0  0  0  0  0
  183.9020  178.6750  143.8220 C   0  0  0  0  0  3  0  0  0  0  0  0
  183.7350  178.8410  142.4490 C   0  0  0  0  0  3  0  0  0  0  0  0
  189.5520  177.5730  140.8180 C   0  0  0  0  0  0  0  0  0  0  0  0
  189.3090  177.7560  139.4610 C   0  0  0  0  0  0  0  0  0  0  0  0
  190.0220  177.0720  145.0670 C   0  0  0  0  0  0  0  0  0  0  0  0
  187.6840  177.6120  145.3900 C   0  0  0  0  0  3  0  0  0  0  0  0
  188.1530  178.2020  137.6510 N   0  0  0  0  0  0  0  0  0  0  0  0
  189.0750  177.0990  147.3030 C   0  0  0  0  0  3  0  0  0  0  0  0
  185.1510  178.3250  144.3340 C   0  0  0  0  0  3  0  0  0  0  0  0
  187.5150  177.7800  144.0020 C   0  0  0  0  0  0  0  0  0  0  0  0
  186.2550  178.1330  143.4810 C   0  0  0  0  0  0  0  0  0  0  0  0
  187.1760  178.1160  141.2120 C   0  0  0  0  0  0  0  0  0  0  0  0
  189.3940  177.9350  137.2640 N   0  0  0  0  0  0  0  0  0  0  0  0
  191.4230  176.5570  146.9780 C   0  0  0  0  0  0  0  0  0  0  0  0
  188.9210  177.2620  145.9240 C   0  0  0  0  0  0  0  0  0  0  0  0
  190.1430  177.6530  138.3610 C   0  0  0  0  0  3  0  0  0  0  0  0
  191.2660  176.7210  145.5970 C   0  0  0  0  0  3  0  0  0  0  0  0
  184.8170  178.6560  141.5890 C   0  0  0  0  0  3  0  0  0  0  0  0
  186.0850  178.3020  142.0860 C   0  0  0  0  0  0  0  0  0  0  0  0
  186.9940  178.2870  139.8190 C   0  0  0  0  0  3  0  0  0  0  0  0
  189.8650  177.2350  143.6930 C   0  0  0  0  0  3  0  0  0  0  0  0
  190.8040  177.2320  141.2160 F   0  0  0  0  0  0  0  0  0  0  0  0
  187.0720  178.5480  136.7440 C   0  0  0  0  0  1  0  0  0  0  0  0
  188.4670  177.7540  141.7310 C   0  0  0  0  0  0  0  0  0  0  0  0
  188.0860  178.0970  138.9850 C   0  0  0  0  0  0  0  0  0  0  0  0
  192.7050  176.1980  147.4960 N   0  0  0  0  0  2  0  0  0  0  0  0
  192.9290  175.8710  148.8960 C   0  0  0  0  0  2  0  0  0  0  0  0
  193.5540  177.0310  149.5850 C   0  0  0  0  0  0  0  0  0  0  0  0
  192.8530  178.2230  149.7130 O   0  0  0  0  0  0  0  0  0  0  0  0
  194.7050  176.9230  150.0820 O   0  0  0  0  0  1  0  0  0  0  0  0
  2 23  2  0  0  0  0
  2 12  1  0  0  0  0
  3 11  1  0  0  0  0
  4  3  2  0  0  0  0
  5 24  1  0  0  0  0
  5 26  1  0  0  0  0
  6  5  2  0  0  0  0
  7 19  2  0  0  0  0
  7 17  1  0  0  0  0
  8 17  1  0  0  0  0
  9 27  1  0  0  0  0
 10  1  1  0  0  0  0
 12  8  2  0  0  0  0
 13 12  1  0  0  0  0
 13 11  2  0  0  0  0
 14 26  2  0  0  0  0
 14 21  1  0  0  0  0
 15  9  1  0  0  0  0
 15 18  2  0  0  0  0
 16 28  1  0  0  0  0
 16  1  2  0  0  0  0
 17 10  2  0  0  0  0
 18  6  1  0  0  0  0
 19 16  1  0  0  0  0
 20 21  2  0  0  0  0
 20  4  1  0  0  0  0
 21 13  1  0  0  0  0
 22 14  1  0  0  0  0
 23  7  1  0  0  0  0
 25  9  1  0  0  0  0
 26  2  1  0  0  0  0
 27  6  1  0  0  0  0
 27 22  2  0  0  0  0
 28 29  1  0  0  0  0
 29 30  1  0  0  0  0
 30 31  2  0  0  0  0
 30 32  1  0  0  0  0
M  END
>  <MODEL>
3

>  <REMARK>
 VINA RESULT:     -10.9      4.667      7.510
  Name = 
  3 active torsions:
  status: ('A' for Active; 'I' for Inactive)
    1  A    between atoms: C_1  and  C_10
    2  A    between atoms: C_10  and  N_24
    3  A    between atoms: C_19  and  N_24
                            x       y       z     vdW  Elec       q    Type
                         _______ _______ _______ _____ _____    ______ ____

>  <TORSDO>
F 3

$$$$
=
 OpenBabel10272413213D

 32 37  0  0  0  0  0  0  0  0999 V2000
  191.9560  177.1530  141.3910 C   0  0  0  0  0  3  0  0  0  0  0  0
  187.0980  178.0430  142.5110 C   0  0  0  0  0  0  0  0  0  0  0  0
  187.0650  178.1060  147.4030 C   0  0  0  0  0  3  0  0  0  0  0  0
  185.6930  178.3550  147.3950 C   0  0  0  0  0  3  0  0  0  0  0  0
  184.9680  178.4140  141.2650 C   0  0  0  0  0  0  0  0  0  0  0  0
  183.6020  178.6620  141.3360 C   0  0  0  0  0  0  0  0  0  0  0  0
  189.2040  177.6500  141.3380 C   0  0  0  0  0  0  0  0  0  0  0  0
  189.1690  177.6850  143.7590 C   0  0  0  0  0  3  0  0  0  0  0  0
  181.6550  179.0250  142.2780 N   0  0  0  0  0  0  0  0  0  0  0  0
  191.2530  177.2940  142.5920 C   0  0  0  0  0  3  0  0  0  0  0  0
  187.7540  177.9680  146.1980 C   0  0  0  0  0  3  0  0  0  0  0  0
  187.7840  177.9350  143.7510 C   0  0  0  0  0  0  0  0  0  0  0  0
  187.0840  178.0750  144.9640 C   0  0  0  0  0  0  0  0  0  0  0  0
  184.9980  178.4380  143.7340 C   0  0  0  0  0  0  0  0  0  0  0  0
  181.4620  179.0450  140.9650 N   0  0  0  0  0  0  0  0  0  0  0  0
  191.2880  177.2590  140.1610 C   0  0  0  0  0  0  0  0  0  0  0  0
  189.8790  177.5420  142.5690 C   0  0  0  0  0  0  0  0  0  0  0  0
  182.6500  178.8230  140.3440 C   0  0  0  0  0  3  0  0  0  0  0  0
  189.9110  177.5080  140.1410 C   0  0  0  0  0  3  0  0  0  0  0  0
  185.0130  178.4640  146.1830 C   0  0  0  0  0  3  0  0  0  0  0  0
  185.6910  178.3270  144.9560 C   0  0  0  0  0  0  0  0  0  0  0  0
  183.6060  178.6890  143.7380 C   0  0  0  0  0  3  0  0  0  0  0  0
  187.8330  177.8970  141.3190 C   0  0  0  0  0  3  0  0  0  0  0  0
  185.5480  178.2960  140.0430 F   0  0  0  0  0  0  0  0  0  0  0  0
  180.6040  179.2270  143.2600 C   0  0  0  0  0  1  0  0  0  0  0  0
  185.7010  178.2960  142.4870 C   0  0  0  0  0  0  0  0  0  0  0  0
  182.9520  178.7940  142.5190 C   0  0  0  0  0  0  0  0  0  0  0  0
  191.9880  177.1180  138.9230 N   0  0  0  0  0  2  0  0  0  0  0  0
  191.3970  176.5010  137.7460 C   0  0  0  0  0  2  0  0  0  0  0  0
  191.6900  175.0430  137.7470 C   0  0  0  0  0  0  0  0  0  0  0  0
  193.0060  174.5990  137.7760 O   0  0  0  0  0  1  0  0  0  0  0  0
  190.7460  174.2110  137.7580 O   0  0  0  0  0  0  0  0  0  0  0  0
  1 10  1  0  0  0  0
  2 12  1  0  0  0  0
  4  3  1  0  0  0  0
  5  6  2  0  0  0  0
  5 26  1  0  0  0  0
  6 27  1  0  0  0  0
  7 17  1  0  0  0  0
  9 27  1  0  0  0  0
  9 25  1  0  0  0  0
 11  3  2  0  0  0  0
 12  8  2  0  0  0  0
 12 13  1  0  0  0  0
 13 11  1  0  0  0  0
 14 22  1  0  0  0  0
 14 21  1  0  0  0  0
 15  9  1  0  0  0  0
 16  1  2  0  0  0  0
 17 10  2  0  0  0  0
 17  8  1  0  0  0  0
 18 15  2  0  0  0  0
 18  6  1  0  0  0  0
 19 16  1  0  0  0  0
 19  7  2  0  0  0  0
 20  4  2  0  0  0  0
 21 13  2  0  0  0  0
 21 20  1  0  0  0  0
 23  7  1  0  0  0  0
 23  2  2  0  0  0  0
 24  5  1  0  0  0  0
 26  2  1  0  0  0  0
 26 14  2  0  0  0  0
 27 22  2  0  0  0  0
 28 16  1  0  0  0  0
 29 30  1  0  0  0  0
 29 28  1  0  0  0  0
 30 32  2  0  0  0  0
 30 31  1  0  0  0  0
M  END
>  <MODEL>
4

>  <REMARK>
 VINA RESULT:     -10.8      3.371      7.729
  Name = 
  3 active torsions:
  status: ('A' for Active; 'I' for Inactive)
    1  A    between atoms: C_1  and  C_10
    2  A    between atoms: C_10  and  N_24
    3  A    between atoms: C_19  and  N_24
                            x       y       z     vdW  Elec       q    Type
                         _______ _______ _______ _____ _____    ______ ____

>  <TORSDO>
F 3

$$$$
=
 OpenBabel10272413213D

 32 37  0  0  0  0  0  0  0  0999 V2000
  187.8450  177.5110  147.6040 C   0  0  0  0  0  3  0  0  0  0  0  0
  187.2150  177.9930  142.6020 C   0  0  0  0  0  0  0  0  0  0  0  0
  182.4200  178.8520  142.1500 C   0  0  0  0  0  3  0  0  0  0  0  0
  182.5590  178.9320  140.7660 C   0  0  0  0  0  3  0  0  0  0  0  0
  188.6430  177.9000  140.5580 C   0  0  0  0  0  0  0  0  0  0  0  0
  188.7040  177.9930  139.1720 C   0  0  0  0  0  0  0  0  0  0  0  0
  188.1630  177.6640  144.8300 C   0  0  0  0  0  0  0  0  0  0  0  0
  185.7910  178.0910  144.5870 C   0  0  0  0  0  3  0  0  0  0  0  0
  187.9680  178.2720  137.1250 N   0  0  0  0  0  0  0  0  0  0  0  0
  186.7350  177.7630  146.7910 C   0  0  0  0  0  3  0  0  0  0  0  0
  183.5350  178.6010  142.9490 C   0  0  0  0  0  3  0  0  0  0  0  0
  185.9320  178.1710  143.1880 C   0  0  0  0  0  0  0  0  0  0  0  0
  184.8100  178.4240  142.3780 C   0  0  0  0  0  0  0  0  0  0  0  0
  186.2180  178.3310  140.3760 C   0  0  0  0  0  0  0  0  0  0  0  0
  189.2740  178.0540  137.0420 N   0  0  0  0  0  0  0  0  0  0  0  0
  189.1160  177.3350  147.0340 C   0  0  0  0  0  0  0  0  0  0  0  0
  186.8900  177.8400  145.4050 C   0  0  0  0  0  0  0  0  0  0  0  0
  189.7690  177.8750  138.2950 C   0  0  0  0  0  3  0  0  0  0  0  0
  189.2690  177.4120  145.6450 C   0  0  0  0  0  3  0  0  0  0  0  0
  183.8140  178.7590  140.1820 C   0  0  0  0  0  3  0  0  0  0  0  0
  184.9520  178.5040  140.9720 C   0  0  0  0  0  0  0  0  0  0  0  0
  186.3480  178.4130  138.9700 C   0  0  0  0  0  3  0  0  0  0  0  0
  188.3130  177.7410  143.4470 C   0  0  0  0  0  3  0  0  0  0  0  0
  189.7850  177.6520  141.2470 F   0  0  0  0  0  0  0  0  0  0  0  0
  187.1060  178.5070  135.9790 C   0  0  0  0  0  1  0  0  0  0  0  0
  187.3730  178.0710  141.1930 C   0  0  0  0  0  0  0  0  0  0  0  0
  187.6060  178.2380  138.4140 C   0  0  0  0  0  0  0  0  0  0  0  0
  190.2630  177.0770  147.8470 N   0  0  0  0  0  2  0  0  0  0  0  0
  191.6240  177.1340  147.3360 C   0  0  0  0  0  2  0  0  0  0  0  0
  192.2560  175.7930  147.4510 C   0  0  0  0  0  0  0  0  0  0  0  0
  192.3570  174.9760  146.3320 O   0  0  0  0  0  0  0  0  0  0  0  0
  192.7310  175.4130  148.5510 O   0  0  0  0  0  1  0  0  0  0  0  0
  2 12  2  0  0  0  0
  2 23  1  0  0  0  0
  3 11  1  0  0  0  0
  4  3  2  0  0  0  0
  5 26  1  0  0  0  0
  5 24  1  0  0  0  0
  6  5  2  0  0  0  0
  7 17  1  0  0  0  0
  7 19  1  0  0  0  0
  8 17  2  0  0  0  0
  9 27  1  0  0  0  0
 10  1  2  0  0  0  0
 12  8  1  0  0  0  0
 13 11  2  0  0  0  0
 13 12  1  0  0  0  0
 14 21  1  0  0  0  0
 14 26  2  0  0  0  0
 15  9  1  0  0  0  0
 15 18  2  0  0  0  0
 16  1  1  0  0  0  0
 16 28  1  0  0  0  0
 17 10  1  0  0  0  0
 18  6  1  0  0  0  0
 19 16  2  0  0  0  0
 20  4  1  0  0  0  0
 20 21  2  0  0  0  0
 21 13  1  0  0  0  0
 22 14  1  0  0  0  0
 23  7  2  0  0  0  0
 25  9  1  0  0  0  0
 26  2  1  0  0  0  0
 27 22  2  0  0  0  0
 27  6  1  0  0  0  0
 29 30  1  0  0  0  0
 29 28  1  0  0  0  0
 30 32  1  0  0  0  0
 31 30  2  0  0  0  0
M  END
>  <MODEL>
5

>  <REMARK>
 VINA RESULT:     -10.5      4.318      7.000
  Name = 
  3 active torsions:
  status: ('A' for Active; 'I' for Inactive)
    1  A    between atoms: C_1  and  C_10
    2  A    between atoms: C_10  and  N_24
    3  A    between atoms: C_19  and  N_24
                            x       y       z     vdW  Elec       q    Type
                         _______ _______ _______ _____ _____    ______ ____

>  <TORSDO>
F 3

$$$$
=
 OpenBabel10272413213D

 32 37  0  0  0  0  0  0  0  0999 V2000
  180.4810  179.3190  142.2410 C   0  0  0  0  0  3  0  0  0  0  0  0
  185.4320  178.3800  142.7390 C   0  0  0  0  0  0  0  0  0  0  0  0
  186.0710  178.2550  147.5870 C   0  0  0  0  0  3  0  0  0  0  0  0
  187.4290  177.9970  147.4070 C   0  0  0  0  0  3  0  0  0  0  0  0
  187.3870  178.0100  141.2330 C   0  0  0  0  0  0  0  0  0  0  0  0
  188.7500  177.7510  141.1320 C   0  0  0  0  0  0  0  0  0  0  0  0
  183.2000  178.8030  141.8400 C   0  0  0  0  0  0  0  0  0  0  0  0
  183.5340  178.7370  144.2380 C   0  0  0  0  0  3  0  0  0  0  0  0
  190.7960  177.3630  141.8200 N   0  0  0  0  0  0  0  0  0  0  0  0
  181.3260  179.1570  143.3430 C   0  0  0  0  0  3  0  0  0  0  0  0
  185.2390  178.4130  146.4790 C   0  0  0  0  0  3  0  0  0  0  0  0
  184.9060  178.4770  144.0550 C   0  0  0  0  0  0  0  0  0  0  0  0
  185.7500  178.3170  145.1710 C   0  0  0  0  0  0  0  0  0  0  0  0
  187.6640  177.9550  143.6860 C   0  0  0  0  0  0  0  0  0  0  0  0
  190.8240  177.3580  140.4940 N   0  0  0  0  0  0  0  0  0  0  0  0
  180.9900  179.2230  140.9360 C   0  0  0  0  0  0  0  0  0  0  0  0
  182.6850  178.8990  143.1470 C   0  0  0  0  0  0  0  0  0  0  0  0
  189.5700  177.5960  140.0280 C   0  0  0  0  0  3  0  0  0  0  0  0
  182.3520  178.9650  140.7420 C   0  0  0  0  0  3  0  0  0  0  0  0
  187.9530  177.8980  146.1180 C   0  0  0  0  0  3  0  0  0  0  0  0
  187.1290  178.0560  144.9870 C   0  0  0  0  0  0  0  0  0  0  0  0
  189.0440  177.6940  143.5150 C   0  0  0  0  0  3  0  0  0  0  0  0
  184.5560  178.5460  141.6490 C   0  0  0  0  0  3  0  0  0  0  0  0
  186.6620  178.1470  140.0940 F   0  0  0  0  0  0  0  0  0  0  0  0
  191.9590  177.1410  142.6620 C   0  0  0  0  0  1  0  0  0  0  0  0
  186.8140  178.1170  142.5390 C   0  0  0  0  0  0  0  0  0  0  0  0
  189.5410  177.6000  142.2230 C   0  0  0  0  0  0  0  0  0  0  0  0
  180.1430  179.3840  139.7960 N   0  0  0  0  0  2  0  0  0  0  0  0
  180.2480  178.5510  138.6080 C   0  0  0  0  0  2  0  0  0  0  0  0
  180.8970  179.3220  137.5140 C   0  0  0  0  0  0  0  0  0  0  0  0
  181.1930  178.7000  136.3080 O   0  0  0  0  0  0  0  0  0  0  0  0
  181.1450  180.5460  137.6680 O   0  0  0  0  0  1  0  0  0  0  0  0
  1 10  1  0  0  0  0
  2 12  1  0  0  0  0
  4  3  1  0  0  0  0
  5 26  1  0  0  0  0
  6  5  2  0  0  0  0
  6 27  1  0  0  0  0
  7 17  1  0  0  0  0
  9 27  1  0  0  0  0
  9 25  1  0  0  0  0
 11  3  2  0  0  0  0
 12  8  2  0  0  0  0
 12 13  1  0  0  0  0
 13 11  1  0  0  0  0
 14 21  1  0  0  0  0
 15  9  1  0  0  0  0
 16  1  2  0  0  0  0
 17 10  2  0  0  0  0
 17  8  1  0  0  0  0
 18 15  2  0  0  0  0
 18  6  1  0  0  0  0
 19 16  1  0  0  0  0
 19  7  2  0  0  0  0
 20  4  2  0  0  0  0
 21 13  2  0  0  0  0
 21 20  1  0  0  0  0
 22 14  1  0  0  0  0
 23  7  1  0  0  0  0
 23  2  2  0  0  0  0
 24  5  1  0  0  0  0
 26  2  1  0  0  0  0
 26 14  2  0  0  0  0
 27 22  2  0  0  0  0
 28 16  1  0  0  0  0
 29 28  1  0  0  0  0
 30 32  1  0  0  0  0
 30 29  1  0  0  0  0
 31 30  2  0  0  0  0
M  END
>  <MODEL>
6

>  <REMARK>
 VINA RESULT:     -10.3      1.779      3.183
  Name = 
  3 active torsions:
  status: ('A' for Active; 'I' for Inactive)
    1  A    between atoms: C_1  and  C_10
    2  A    between atoms: C_10  and  N_24
    3  A    between atoms: C_19  and  N_24
                            x       y       z     vdW  Elec       q    Type
                         _______ _______ _______ _____ _____    ______ ____

>  <TORSDO>
F 3

$$$$
=
 OpenBabel10272413213D

 32 37  0  0  0  0  0  0  0  0999 V2000
  191.0430  176.9150  137.7400 C   0  0  0  0  0  3  0  0  0  0  0  0
  188.5730  177.5300  142.1180 C   0  0  0  0  0  0  0  0  0  0  0  0
  191.9160  176.3120  145.4760 C   0  0  0  0  0  3  0  0  0  0  0  0
  190.9960  176.5670  146.4920 C   0  0  0  0  0  3  0  0  0  0  0  0
  186.2950  178.2340  142.8540 C   0  0  0  0  0  0  0  0  0  0  0  0
  185.4330  178.4690  143.9190 C   0  0  0  0  0  0  0  0  0  0  0  0
  189.1710  177.4360  139.7510 C   0  0  0  0  0  0  0  0  0  0  0  0
  190.8130  176.8370  141.4270 C   0  0  0  0  0  3  0  0  0  0  0  0
  184.7810  178.5910  146.0100 N   0  0  0  0  0  0  0  0  0  0  0  0
  191.4000  176.7450  139.0810 C   0  0  0  0  0  3  0  0  0  0  0  0
  191.5470  176.4870  144.1430 C   0  0  0  0  0  3  0  0  0  0  0  0
  189.8830  177.0940  142.4530 C   0  0  0  0  0  0  0  0  0  0  0  0
  190.2510  176.9190  143.8010 C   0  0  0  0  0  0  0  0  0  0  0  0
  188.0130  177.6120  144.5140 C   0  0  0  0  0  0  0  0  0  0  0  0
  183.7500  178.9550  145.2590 N   0  0  0  0  0  0  0  0  0  0  0  0
  189.7500  177.3470  137.3990 C   0  0  0  0  0  0  0  0  0  0  0  0
  190.4670  177.0040  140.0880 C   0  0  0  0  0  0  0  0  0  0  0  0
  184.1150  178.8920  143.9520 C   0  0  0  0  0  3  0  0  0  0  0  0
  188.8180  177.6050  138.4100 C   0  0  0  0  0  3  0  0  0  0  0  0
  189.7070  176.9960  146.1720 C   0  0  0  0  0  3  0  0  0  0  0  0
  189.3160  177.1780  144.8320 C   0  0  0  0  0  0  0  0  0  0  0  0
  187.0870  177.8670  145.5530 C   0  0  0  0  0  3  0  0  0  0  0  0
  188.2430  177.6930  140.7590 C   0  0  0  0  0  3  0  0  0  0  0  0
  185.8400  178.4340  141.5900 F   0  0  0  0  0  0  0  0  0  0  0  0
  184.7560  178.5400  147.4620 C   0  0  0  0  0  1  0  0  0  0  0  0
  187.6240  177.7940  143.1420 C   0  0  0  0  0  0  0  0  0  0  0  0
  185.8130  178.2920  145.2090 C   0  0  0  0  0  0  0  0  0  0  0  0
  189.3660  177.5270  136.0340 N   0  0  0  0  0  2  0  0  0  0  0  0
  188.4570  176.6260  135.3430 C   0  0  0  0  0  2  0  0  0  0  0  0
  187.0980  177.2280  135.2970 C   0  0  0  0  0  0  0  0  0  0  0  0
  186.8000  178.1960  134.3470 O   0  0  0  0  0  0  0  0  0  0  0  0
  186.2080  176.8350  136.0940 O   0  0  0  0  0  1  0  0  0  0  0  0
  1 10  1  0  0  0  0
  2 12  1  0  0  0  0
  2 26  1  0  0  0  0
  3  4  1  0  0  0  0
  5 26  2  0  0  0  0
  5  6  1  0  0  0  0
  6 18  1  0  0  0  0
  6 27  2  0  0  0  0
  7 17  1  0  0  0  0
  7 23  1  0  0  0  0
  8 12  2  0  0  0  0
  9 25  1  0  0  0  0
 10 17  2  0  0  0  0
 11  3  2  0  0  0  0
 12 13  1  0  0  0  0
 13 11  1  0  0  0  0
 13 21  2  0  0  0  0
 14 21  1  0  0  0  0
 14 22  2  0  0  0  0
 15  9  1  0  0  0  0
 16  1  2  0  0  0  0
 16 19  1  0  0  0  0
 17  8  1  0  0  0  0
 18 15  2  0  0  0  0
 19  7  2  0  0  0  0
 20  4  2  0  0  0  0
 21 20  1  0  0  0  0
 23  2  2  0  0  0  0
 24  5  1  0  0  0  0
 26 14  1  0  0  0  0
 27 22  1  0  0  0  0
 27  9  1  0  0  0  0
 28 16  1  0  0  0  0
 29 28  1  0  0  0  0
 30 29  1  0  0  0  0
 30 32  1  0  0  0  0
 31 30  2  0  0  0  0
M  END
>  <MODEL>
7

>  <REMARK>
 VINA RESULT:     -10.1      2.626      6.847
  Name = 
  3 active torsions:
  status: ('A' for Active; 'I' for Inactive)
    1  A    between atoms: C_1  and  C_10
    2  A    between atoms: C_10  and  N_24
    3  A    between atoms: C_19  and  N_24
                            x       y       z     vdW  Elec       q    Type
                         _______ _______ _______ _____ _____    ______ ____

>  <TORSDO>
F 3

$$$$
=
 OpenBabel10272413213D

 32 37  0  0  0  0  0  0  0  0999 V2000
  184.8570  178.5990  146.7200 C   0  0  0  0  0  3  0  0  0  0  0  0
  185.7350  178.4120  141.7370 C   0  0  0  0  0  0  0  0  0  0  0  0
  181.2800  178.9540  139.7880 C   0  0  0  0  0  3  0  0  0  0  0  0
  181.8240  178.8650  138.5080 C   0  0  0  0  0  3  0  0  0  0  0  0
  187.7070  178.1370  140.2330 C   0  0  0  0  0  0  0  0  0  0  0  0
  188.1770  178.0580  138.9260 C   0  0  0  0  0  0  0  0  0  0  0  0
  185.9830  178.4170  144.1670 C   0  0  0  0  0  0  0  0  0  0  0  0
  183.7850  178.6850  143.1860 C   0  0  0  0  0  3  0  0  0  0  0  0
  188.0790  178.0370  136.7350 N   0  0  0  0  0  0  0  0  0  0  0  0
  184.0350  178.6880  145.5920 C   0  0  0  0  0  3  0  0  0  0  0  0
  182.1110  178.8640  140.9050 C   0  0  0  0  0  3  0  0  0  0  0  0
  184.3350  178.5950  141.8920 C   0  0  0  0  0  0  0  0  0  0  0  0
  183.5000  178.6840  140.7610 C   0  0  0  0  0  0  0  0  0  0  0  0
  185.4410  178.4140  139.2920 C   0  0  0  0  0  0  0  0  0  0  0  0
  189.3530  177.8800  137.0690 N   0  0  0  0  0  0  0  0  0  0  0  0
  186.2420  178.4200  146.5780 C   0  0  0  0  0  0  0  0  0  0  0  0
  184.5940  178.5980  144.3150 C   0  0  0  0  0  0  0  0  0  0  0  0
  189.4550  177.8870  138.4240 C   0  0  0  0  0  3  0  0  0  0  0  0
  186.7990  178.3290  145.2970 C   0  0  0  0  0  3  0  0  0  0  0  0
  183.1980  178.6870  138.3460 C   0  0  0  0  0  3  0  0  0  0  0  0
  184.0530  178.5940  139.4610 C   0  0  0  0  0  0  0  0  0  0  0  0
  185.9820  178.3250  137.9880 C   0  0  0  0  0  3  0  0  0  0  0  0
  186.5360  178.3270  142.8920 C   0  0  0  0  0  3  0  0  0  0  0  0
  188.5970  178.0390  141.2530 F   0  0  0  0  0  0  0  0  0  0  0  0
  187.5930  178.0800  135.3660 C   0  0  0  0  0  1  0  0  0  0  0  0
  186.3040  178.3200  140.4380 C   0  0  0  0  0  0  0  0  0  0  0  0
  187.3510  178.1480  137.8540 C   0  0  0  0  0  0  0  0  0  0  0  0
  187.0980  178.3270  147.7180 N   0  0  0  0  0  2  0  0  0  0  0  0
  187.9950  177.2040  147.9440 C   0  0  0  0  0  2  0  0  0  0  0  0
  189.4050  177.6540  147.7980 C   0  0  0  0  0  0  0  0  0  0  0  0
  190.1450  177.2670  146.6880 O   0  0  0  0  0  0  0  0  0  0  0  0
  189.9160  178.4130  148.6610 O   0  0  0  0  0  1  0  0  0  0  0  0
  2 12  2  0  0  0  0
  2 23  1  0  0  0  0
  3 11  1  0  0  0  0
  4  3  2  0  0  0  0
  5 26  1  0  0  0  0
  5 24  1  0  0  0  0
  6  5  2  0  0  0  0
  7 17  1  0  0  0  0
  7 19  1  0  0  0  0
  8 17  2  0  0  0  0
  9 15  1  0  0  0  0
  9 27  1  0  0  0  0
 10  1  2  0  0  0  0
 12  8  1  0  0  0  0
 13 11  2  0  0  0  0
 13 12  1  0  0  0  0
 14 21  1  0  0  0  0
 14 26  2  0  0  0  0
 15 18  2  0  0  0  0
 16  1  1  0  0  0  0
 16 28  1  0  0  0  0
 17 10  1  0  0  0  0
 18  6  1  0  0  0  0
 19 16  2  0  0  0  0
 20  4  1  0  0  0  0
 20 21  2  0  0  0  0
 21 13  1  0  0  0  0
 22 14  1  0  0  0  0
 23  7  2  0  0  0  0
 25  9  1  0  0  0  0
 26  2  1  0  0  0  0
 27 22  2  0  0  0  0
 27  6  1  0  0  0  0
 28 29  1  0  0  0  0
 30 29  1  0  0  0  0
 30 32  1  0  0  0  0
 31 30  2  0  0  0  0
M  END
>  <MODEL>
8

>  <REMARK>
 VINA RESULT:      -9.7      3.872      6.647
  Name = 
  3 active torsions:
  status: ('A' for Active; 'I' for Inactive)
    1  A    between atoms: C_1  and  C_10
    2  A    between atoms: C_10  and  N_24
    3  A    between atoms: C_19  and  N_24
                            x       y       z     vdW  Elec       q    Type
                         _______ _______ _______ _____ _____    ______ ____

>  <TORSDO>
F 3

$$$$
=
 OpenBabel10272413213D

 32 37  0  0  0  0  0  0  0  0999 V2000
  190.9860  177.2970  144.6870 C   0  0  0  0  0  3  0  0  0  0  0  0
  186.4660  178.1620  142.5760 C   0  0  0  0  0  0  0  0  0  0  0  0
  187.4470  178.1690  137.7820 C   0  0  0  0  0  3  0  0  0  0  0  0
  186.1030  178.4130  137.5030 C   0  0  0  0  0  3  0  0  0  0  0  0
  184.1240  178.5410  143.3490 C   0  0  0  0  0  0  0  0  0  0  0  0
  182.8020  178.7840  142.9930 C   0  0  0  0  0  0  0  0  0  0  0  0
  188.2830  177.7860  144.1640 C   0  0  0  0  0  0  0  0  0  0  0  0
  188.7510  177.7930  141.7880 C   0  0  0  0  0  3  0  0  0  0  0  0
  181.0920  179.1320  141.6640 N   0  0  0  0  0  0  0  0  0  0  0  0
  190.5470  177.4220  143.3660 C   0  0  0  0  0  3  0  0  0  0  0  0
  187.8710  178.0460  139.1050 C   0  0  0  0  0  3  0  0  0  0  0  0
  187.3930  178.0400  141.5060 C   0  0  0  0  0  0  0  0  0  0  0  0
  186.9600  178.1650  140.1720 C   0  0  0  0  0  0  0  0  0  0  0  0
  184.6640  178.5360  140.9390 C   0  0  0  0  0  0  0  0  0  0  0  0
  180.6310  179.1660  142.9080 N   0  0  0  0  0  0  0  0  0  0  0  0
  190.0780  177.4150  145.7520 C   0  0  0  0  0  0  0  0  0  0  0  0
  189.1980  177.6660  143.1010 C   0  0  0  0  0  0  0  0  0  0  0  0
  181.6650  178.9540  143.7640 C   0  0  0  0  0  3  0  0  0  0  0  0
  188.7260  177.6610  145.4830 C   0  0  0  0  0  3  0  0  0  0  0  0
  185.1860  178.5340  138.5470 C   0  0  0  0  0  3  0  0  0  0  0  0
  185.5950  178.4130  139.8880 C   0  0  0  0  0  0  0  0  0  0  0  0
  183.3030  178.7850  140.6440 C   0  0  0  0  0  3  0  0  0  0  0  0
  186.9380  178.0310  143.8950 C   0  0  0  0  0  3  0  0  0  0  0  0
  184.4370  178.4370  144.6660 F   0  0  0  0  0  0  0  0  0  0  0  0
  180.2670  179.3190  140.4830 C   0  0  0  0  0  1  0  0  0  0  0  0
  185.0940  178.4110  142.3060 C   0  0  0  0  0  0  0  0  0  0  0  0
  182.4110  178.9000  141.7000 C   0  0  0  0  0  0  0  0  0  0  0  0
  190.5060  177.2900  147.1090 N   0  0  0  0  0  2  0  0  0  0  0  0
  190.8060  176.0080  147.7290 C   0  0  0  0  0  2  0  0  0  0  0  0
  192.2680  175.7460  147.6510 C   0  0  0  0  0  0  0  0  0  0  0  0
  193.1160  176.2510  148.6280 O   0  0  0  0  0  1  0  0  0  0  0  0
  192.7320  175.0380  146.7200 O   0  0  0  0  0  0  0  0  0  0  0  0
  1 16  1  0  0  0  0
  2 23  1  0  0  0  0
  3 11  1  0  0  0  0
  4  3  2  0  0  0  0
  4 20  1  0  0  0  0
  5 24  1  0  0  0  0
  6  5  1  0  0  0  0
  6 18  1  0  0  0  0
  7 19  1  0  0  0  0
  8 17  2  0  0  0  0
  9 27  1  0  0  0  0
  9 15  1  0  0  0  0
 10  1  2  0  0  0  0
 11 13  2  0  0  0  0
 12  8  1  0  0  0  0
 12  2  2  0  0  0  0
 13 12  1  0  0  0  0
 14 26  1  0  0  0  0
 15 18  2  0  0  0  0
 16 28  1  0  0  0  0
 17 10  1  0  0  0  0
 17  7  1  0  0  0  0
 19 16  2  0  0  0  0
 20 21  2  0  0  0  0
 21 13  1  0  0  0  0
 21 14  1  0  0  0  0
 22 14  2  0  0  0  0
 22 27  1  0  0  0  0
 23  7  2  0  0  0  0
 25  9  1  0  0  0  0
 26  2  1  0  0  0  0
 26  5  2  0  0  0  0
 27  6  2  0  0  0  0
 28 29  1  0  0  0  0
 30 29  1  0  0  0  0
 30 31  1  0  0  0  0
 32 30  2  0  0  0  0
M  END
>  <MODEL>
9

>  <REMARK>
 VINA RESULT:      -9.6      4.574      8.580
  Name = 
  3 active torsions:
  status: ('A' for Active; 'I' for Inactive)
    1  A    between atoms: C_1  and  C_10
    2  A    between atoms: C_10  and  N_24
    3  A    between atoms: C_19  and  N_24
                            x       y       z     vdW  Elec       q    Type
                         _______ _______ _______ _____ _____    ______ ____

>  <TORSDO>
F 3

$$$$
