=
 OpenBabel10272401563D

 28 32  0  0  1  0  0  0  0  0999 V2000
  190.1920  177.6040  142.2380 N   0  0  0  0  0  0  0  0  0  0  0  0
  184.6980  178.0080  142.4020 C   0  0  0  0  0  2  0  0  0  0  0  0
  189.3700  178.1380  146.4770 C   0  0  0  0  0  1  0  0  0  0  0  0
  184.4940  178.6580  144.8180 C   0  0  0  0  0  0  0  0  0  0  0  0
  186.6880  177.7640  143.9270 C   0  0  1  0  0  3  0  0  0  0  0  0
  182.5760  178.9090  143.3230 C   0  0  0  0  0  0  0  0  0  0  0  0
  185.4230  178.5880  143.6230 C   0  0  1  0  0  3  0  0  0  0  0  0
  186.2460  177.7400  146.2740 C   0  0  0  0  0  2  0  0  0  0  0  0
  183.1820  178.8560  144.6620 C   0  0  0  0  0  3  0  0  0  0  0  0
  189.1780  176.7690  144.3630 C   0  0  2  0  0  3  0  0  0  0  0  0
  187.7160  178.0010  142.7960 C   0  0  0  0  0  2  0  0  0  0  0  0
  185.0650  178.6930  146.1950 C   0  0  0  0  0  2  0  0  0  0  0  0
  191.0310  175.5990  143.4100 C   0  0  0  0  0  2  0  0  0  0  0  0
  188.4470  177.2940  145.6080 C   0  0  2  0  0  3  0  0  0  0  0  0
  190.5400  176.3000  144.6080 N   0  0  0  0  0  2  0  0  0  0  0  0
  181.3350  179.0830  143.2040 O   0  0  0  0  0  0  0  0  0  0  0  0
  183.4360  178.8100  142.1000 C   0  0  0  0  0  2  0  0  0  0  0  0
  187.2450  178.0890  145.2660 N   0  0  1  0  0  0  0  0  0  0  0  0
  190.4770  176.1770  142.0910 C   0  0  0  0  0  2  0  0  0  0  0  0
  189.1630  177.8420  143.2830 C   0  0  2  0  0  3  0  0  0  0  0  0
  189.8090  178.1310  140.9300 C   0  0  0  0  0  2  0  0  0  0  0  0
  189.8560  177.0290  139.8840 C   0  0  1  0  0  3  0  0  0  0  0  0
  189.2790  176.7680  137.5390 C   0  0  0  0  0  0  0  0  0  0  0  0
  188.7230  177.1840  138.8880 C   0  0  0  0  0  2  0  0  0  0  0  0
  191.1260  177.1380  139.0730 C   0  0  0  0  0  2  0  0  0  0  0  0
  190.7770  176.5820  137.7100 C   0  0  0  0  0  2  0  0  0  0  0  0
  188.6460  175.4650  137.0950 C   0  0  0  0  0  1  0  0  0  0  0  0
  189.0030  177.8480  136.5130 C   0  0  0  0  0  1  0  0  0  0  0  0
  1 20  1  0  0  0  0
  4 12  1  0  0  0  0
  5 11  1  6  0  0  0
  5 18  1  0  0  0  0
  6  9  1  0  0  0  0
  7  2  1  6  0  0  0
  7  5  1  0  0  0  0
  7  4  1  0  0  0  0
  9  4  2  0  0  0  0
 10 15  1  1  0  0  0
 10 14  1  0  0  0  0
 12  8  1  0  0  0  0
 13 15  1  0  0  0  0
 14  3  1  6  0  0  0
 16  6  2  0  0  0  0
 17  2  1  0  0  0  0
 17  6  1  0  0  0  0
 18 14  1  0  0  0  0
 18  8  1  1  0  0  0
 19  1  1  0  0  0  0
 19 13  1  0  0  0  0
 20 11  1  6  0  0  0
 20 10  1  0  0  0  0
 21  1  1  0  0  0  0
 22 21  1  1  0  0  0
 23 26  1  0  0  0  0
 23 24  1  0  0  0  0
 24 22  1  0  0  0  0
 25 22  1  0  0  0  0
 26 25  1  0  0  0  0
 27 23  1  0  0  0  0
 28 23  1  0  0  0  0
M  END
>  <MODEL>
1

>  <REMARK>
 VINA RESULT:      -9.4      0.000      0.000
  Name = 
  2 active torsions:
  status: ('A' for Active; 'I' for Inactive)
    1  A    between atoms: N_1  and  C_2
    2  A    between atoms: C_2  and  C_3
                            x       y       z     vdW  Elec       q    Type
                         _______ _______ _______ _____ _____    ______ ____

>  <TORSDO>
F 2

$$$$
=
 OpenBabel10272401563D

 28 32  0  0  1  0  0  0  0  0999 V2000
  191.0940  177.8780  144.0960 N   0  0  0  0  0  0  0  0  0  0  0  0
  185.6750  178.1400  143.1270 C   0  0  0  0  0  2  0  0  0  0  0  0
  189.3880  178.0800  148.0930 C   0  0  0  0  0  1  0  0  0  0  0  0
  184.9480  178.6050  145.4840 C   0  0  0  0  0  0  0  0  0  0  0  0
  187.3120  177.8310  145.0170 C   0  0  1  0  0  3  0  0  0  0  0  0
  183.3740  178.9210  143.6390 C   0  0  0  0  0  0  0  0  0  0  0  0
  186.1080  178.6450  144.5090 C   0  0  1  0  0  3  0  0  0  0  0  0
  186.3920  177.6240  147.2110 C   0  0  0  0  0  2  0  0  0  0  0  0
  183.6900  178.7840  145.0700 C   0  0  0  0  0  3  0  0  0  0  0  0
  189.6930  176.8650  145.9000 C   0  0  2  0  0  3  0  0  0  0  0  0
  188.5420  178.1750  144.1460 C   0  0  0  0  0  2  0  0  0  0  0  0
  185.2180  178.5520  146.9500 C   0  0  0  0  0  2  0  0  0  0  0  0
  191.7470  175.8120  145.2810 C   0  0  0  0  0  2  0  0  0  0  0  0
  188.6990  177.2800  146.9950 C   0  0  2  0  0  3  0  0  0  0  0  0
  190.9910  176.4120  146.3930 N   0  0  0  0  0  2  0  0  0  0  0  0
  182.1800  179.0730  143.2740 O   0  0  0  0  0  0  0  0  0  0  0  0
  184.4730  178.9320  142.6210 C   0  0  0  0  0  2  0  0  0  0  0  0
  187.5650  178.0690  146.4620 N   0  0  1  0  0  0  0  0  0  0  0  0
  191.4580  176.4720  143.9170 C   0  0  0  0  0  2  0  0  0  0  0  0
  189.8620  178.0150  144.9150 C   0  0  2  0  0  3  0  0  0  0  0  0
  190.9720  178.4900  142.7750 C   0  0  0  0  0  2  0  0  0  0  0  0
  190.9980  177.4220  141.6940 C   0  0  1  0  0  3  0  0  0  0  0  0
  190.2140  177.1740  139.4080 C   0  0  0  0  0  0  0  0  0  0  0  0
  189.7650  177.5110  140.8180 C   0  0  0  0  0  2  0  0  0  0  0  0
  192.1700  177.6500  140.7680 C   0  0  0  0  0  2  0  0  0  0  0  0
  191.7310  177.1020  139.4280 C   0  0  0  0  0  2  0  0  0  0  0  0
  189.6410  175.8360  138.9860 C   0  0  0  0  0  1  0  0  0  0  0  0
  189.7570  178.2540  138.4490 C   0  0  0  0  0  1  0  0  0  0  0  0
  1 20  1  0  0  0  0
  4 12  1  0  0  0  0
  5 11  1  6  0  0  0
  5 18  1  0  0  0  0
  6  9  1  0  0  0  0
  7  2  1  6  0  0  0
  7  5  1  0  0  0  0
  7  4  1  0  0  0  0
  9  4  2  0  0  0  0
 10 15  1  1  0  0  0
 10 14  1  0  0  0  0
 12  8  1  0  0  0  0
 13 15  1  0  0  0  0
 14  3  1  1  0  0  0
 16  6  2  0  0  0  0
 17  2  1  0  0  0  0
 17  6  1  0  0  0  0
 18 14  1  0  0  0  0
 18  8  1  1  0  0  0
 19  1  1  0  0  0  0
 19 13  1  0  0  0  0
 20 11  1  6  0  0  0
 20 10  1  0  0  0  0
 21  1  1  0  0  0  0
 22 21  1  1  0  0  0
 23 26  1  0  0  0  0
 23 24  1  0  0  0  0
 24 22  1  0  0  0  0
 25 22  1  0  0  0  0
 26 25  1  0  0  0  0
 27 23  1  0  0  0  0
 28 23  1  0  0  0  0
M  END
>  <MODEL>
2

>  <REMARK>
 VINA RESULT:      -9.3      1.325      1.659
  Name = 
  2 active torsions:
  status: ('A' for Active; 'I' for Inactive)
    1  A    between atoms: N_1  and  C_2
    2  A    between atoms: C_2  and  C_3
                            x       y       z     vdW  Elec       q    Type
                         _______ _______ _______ _____ _____    ______ ____

>  <TORSDO>
F 2

$$$$
=
 OpenBabel10272401563D

 28 32  0  0  1  0  0  0  0  0999 V2000
  187.4160  178.4540  139.4770 N   0  0  0  0  0  0  0  0  0  0  0  0
  187.3000  177.2250  144.8480 C   0  0  0  0  0  2  0  0  0  0  0  0
  191.6000  177.6950  140.4030 C   0  0  0  0  0  1  0  0  0  0  0  0
  189.7820  177.1880  145.2240 C   0  0  0  0  0  0  0  0  0  0  0  0
  188.8580  177.1980  142.8680 C   0  0  1  0  0  3  0  0  0  0  0  0
  188.2600  177.2350  147.1380 C   0  0  0  0  0  0  0  0  0  0  0  0
  188.6680  177.6750  144.3190 C   0  0  1  0  0  3  0  0  0  0  0  0
  191.1010  176.4850  143.2750 C   0  0  0  0  0  2  0  0  0  0  0  0
  189.5890  177.0360  146.5380 C   0  0  0  0  0  3  0  0  0  0  0  0
  189.2180  176.8790  140.1940 C   0  0  2  0  0  3  0  0  0  0  0  0
  187.8840  177.9830  141.9590 C   0  0  0  0  0  2  0  0  0  0  0  0
  191.1650  177.0510  144.6840 C   0  0  0  0  0  2  0  0  0  0  0  0
  188.1470  176.5500  138.0830 C   0  0  0  0  0  2  0  0  0  0  0  0
  190.4980  176.8580  141.0420 C   0  0  2  0  0  3  0  0  0  0  0  0
  189.4380  176.7730  138.7540 N   0  0  0  0  0  2  0  0  0  0  0  0
  188.1020  177.0710  148.3750 O   0  0  0  0  0  0  0  0  0  0  0  0
  187.1080  177.6820  146.2910 C   0  0  0  0  0  2  0  0  0  0  0  0
  190.2700  177.3350  142.4250 N   0  0  1  0  0  0  0  0  0  0  0  0
  186.9630  177.2460  138.7870 C   0  0  0  0  0  2  0  0  0  0  0  0
  188.4170  178.1300  140.5270 C   0  0  2  0  0  3  0  0  0  0  0  0
  186.2430  179.1480  140.0010 C   0  0  0  0  0  2  0  0  0  0  0  0
  184.9710  178.5220  139.4540 C   0  0  1  0  0  3  0  0  0  0  0  0
  182.7030  178.1180  140.2260 C   0  0  0  0  0  0  0  0  0  0  0  0
  184.1640  177.8820  140.5660 C   0  0  0  0  0  2  0  0  0  0  0  0
  184.0780  179.5910  138.8690 C   0  0  0  0  0  2  0  0  0  0  0  0
  182.6680  179.0710  139.0450 C   0  0  0  0  0  2  0  0  0  0  0  0
  182.0390  176.8080  139.8520 C   0  0  0  0  0  1  0  0  0  0  0  0
  181.9910  178.7330  141.4130 C   0  0  0  0  0  1  0  0  0  0  0  0
  1 21  1  0  0  0  0
  1 20  1  0  0  0  0
  2 17  1  0  0  0  0
  4  9  2  0  0  0  0
  5 11  1  6  0  0  0
  5  7  1  0  0  0  0
  6 16  2  0  0  0  0
  7  2  1  1  0  0  0
  7  4  1  0  0  0  0
  8 12  1  0  0  0  0
  9  6  1  0  0  0  0
 10 15  1  6  0  0  0
 10 20  1  0  0  0  0
 10 14  1  0  0  0  0
 12  4  1  0  0  0  0
 13 15  1  0  0  0  0
 13 19  1  0  0  0  0
 14  3  1  6  0  0  0
 14 18  1  0  0  0  0
 17  6  1  0  0  0  0
 18  5  1  0  0  0  0
 18  8  1  1  0  0  0
 19  1  1  0  0  0  0
 20 11  1  1  0  0  0
 22 21  1  1  0  0  0
 22 24  1  0  0  0  0
 23 24  1  0  0  0  0
 23 28  1  0  0  0  0
 25 26  1  0  0  0  0
 25 22  1  0  0  0  0
 26 23  1  0  0  0  0
 27 23  1  0  0  0  0
M  END
>  <MODEL>
3

>  <REMARK>
 VINA RESULT:      -8.3      2.626      5.805
  Name = 
  2 active torsions:
  status: ('A' for Active; 'I' for Inactive)
    1  A    between atoms: N_1  and  C_2
    2  A    between atoms: C_2  and  C_3
                            x       y       z     vdW  Elec       q    Type
                         _______ _______ _______ _____ _____    ______ ____

>  <TORSDO>
F 2

$$$$
=
 OpenBabel10272401563D

 28 32  0  0  1  0  0  0  0  0999 V2000
  188.8090  177.7160  138.3880 N   0  0  0  0  0  0  0  0  0  0  0  0
  186.1120  177.5840  143.1930 C   0  0  0  0  0  2  0  0  0  0  0  0
  192.0240  177.5790  141.3180 C   0  0  0  0  0  1  0  0  0  0  0  0
  188.1060  177.8710  144.6900 C   0  0  0  0  0  0  0  0  0  0  0  0
  188.4290  177.3160  142.2420 C   0  0  1  0  0  3  0  0  0  0  0  0
  185.8520  178.1490  145.5960 C   0  0  0  0  0  0  0  0  0  0  0  0
  187.5700  178.0530  143.2840 C   0  0  1  0  0  3  0  0  0  0  0  0
  190.1930  176.9250  143.8050 C   0  0  0  0  0  2  0  0  0  0  0  0
  187.3030  177.9670  145.7540 C   0  0  0  0  0  3  0  0  0  0  0  0
  190.0290  176.5040  140.2010 C   0  0  2  0  0  3  0  0  0  0  0  0
  188.0210  177.8020  140.8320 C   0  0  0  0  0  2  0  0  0  0  0  0
  189.5770  177.7670  144.9100 C   0  0  0  0  0  2  0  0  0  0  0  0
  190.1020  175.6540  137.9690 C   0  0  0  0  0  2  0  0  0  0  0  0
  190.7430  176.7820  141.5320 C   0  0  2  0  0  3  0  0  0  0  0  0
  190.9140  176.1350  139.0990 N   0  0  0  0  0  2  0  0  0  0  0  0
  185.1160  178.2210  146.6140 O   0  0  0  0  0  0  0  0  0  0  0  0
  185.2540  178.3000  144.2310 C   0  0  0  0  0  2  0  0  0  0  0  0
  189.8820  177.5020  142.4980 N   0  0  1  0  0  0  0  0  0  0  0  0
  188.7320  176.3560  137.8560 C   0  0  0  0  0  2  0  0  0  0  0  0
  189.1780  177.7110  139.8280 C   0  0  2  0  0  3  0  0  0  0  0  0
  187.5350  178.3810  138.1280 C   0  0  0  0  0  2  0  0  0  0  0  0
  186.4950  177.3700  137.6750 C   0  0  1  0  0  3  0  0  0  0  0  0
  184.0730  177.2400  137.5320 C   0  0  0  0  0  0  0  0  0  0  0  0
  185.2220  177.5060  138.4870 C   0  0  0  0  0  2  0  0  0  0  0  0
  186.0940  177.6450  136.2450 C   0  0  0  0  0  2  0  0  0  0  0  0
  184.6630  177.1670  136.1340 C   0  0  0  0  0  2  0  0  0  0  0  0
  183.4020  175.9270  137.8780 C   0  0  0  0  0  1  0  0  0  0  0  0
  183.0650  178.3690  137.6130 C   0  0  0  0  0  1  0  0  0  0  0  0
  1 20  1  0  0  0  0
  2 17  1  0  0  0  0
  4 12  1  0  0  0  0
  4  9  2  0  0  0  0
  5 11  1  6  0  0  0
  5 18  1  0  0  0  0
  5  7  1  0  0  0  0
  6  9  1  0  0  0  0
  6 16  2  0  0  0  0
  7  2  1  1  0  0  0
  7  4  1  0  0  0  0
  8 12  1  0  0  0  0
 10 15  1  6  0  0  0
 10 14  1  0  0  0  0
 13 15  1  0  0  0  0
 14  3  1  6  0  0  0
 14 18  1  0  0  0  0
 17  6  1  0  0  0  0
 18  8  1  1  0  0  0
 19 13  1  0  0  0  0
 19  1  1  0  0  0  0
 20 10  1  0  0  0  0
 20 11  1  1  0  0  0
 21  1  1  0  0  0  0
 22 21  1  1  0  0  0
 22 24  1  0  0  0  0
 23 28  1  0  0  0  0
 23 27  1  0  0  0  0
 23 24  1  0  0  0  0
 25 22  1  0  0  0  0
 26 25  1  0  0  0  0
 26 23  1  0  0  0  0
M  END
>  <MODEL>
4

>  <REMARK>
 VINA RESULT:      -8.2      2.661      4.452
  Name = 
  2 active torsions:
  status: ('A' for Active; 'I' for Inactive)
    1  A    between atoms: N_1  and  C_2
    2  A    between atoms: C_2  and  C_3
                            x       y       z     vdW  Elec       q    Type
                         _______ _______ _______ _____ _____    ______ ____

>  <TORSDO>
F 2

$$$$
=
 OpenBabel10272401563D

 28 32  0  0  1  0  0  0  0  0999 V2000
  182.4460  177.6670  139.4970 N   0  0  0  0  0  0  0  0  0  0  0  0
  186.8740  178.0130  142.7600 C   0  0  0  0  0  2  0  0  0  0  0  0
  180.7350  178.6390  143.3780 C   0  0  0  0  0  1  0  0  0  0  0  0
  185.6510  178.2110  144.9430 C   0  0  0  0  0  0  0  0  0  0  0  0
  184.4010  178.4920  142.7600 C   0  0  1  0  0  3  0  0  0  0  0  0
  188.0470  177.7260  144.9290 C   0  0  0  0  0  0  0  0  0  0  0  0
  185.5480  177.7760  143.4950 C   0  0  1  0  0  3  0  0  0  0  0  0
  183.4690  179.3300  144.7940 C   0  0  0  0  0  2  0  0  0  0  0  0
  186.8080  178.1350  145.6070 C   0  0  0  0  0  3  0  0  0  0  0  0
  182.1780  179.2630  141.4000 C   0  0  2  0  0  3  0  0  0  0  0  0
  184.1550  177.7780  141.4110 C   0  0  0  0  0  2  0  0  0  0  0  0
  184.4130  178.5550  145.6990 C   0  0  0  0  0  2  0  0  0  0  0  0
  181.2680  179.8250  139.2640 C   0  0  0  0  0  2  0  0  0  0  0  0
  182.0510  179.2630  142.9310 C   0  0  2  0  0  3  0  0  0  0  0  0
  180.9530  179.6140  140.6860 N   0  0  0  0  0  2  0  0  0  0  0  0
  189.1270  177.6770  145.5730 O   0  0  0  0  0  0  0  0  0  0  0  0
  188.0200  177.3180  143.4880 C   0  0  0  0  0  2  0  0  0  0  0  0
  183.1700  178.5540  143.5930 N   0  0  1  0  0  0  0  0  0  0  0  0
  182.4090  178.9230  138.7480 C   0  0  0  0  0  2  0  0  0  0  0  0
  182.7000  177.9070  140.9410 C   0  0  2  0  0  3  0  0  0  0  0  0
  183.4430  176.7960  138.8790 C   0  0  0  0  0  2  0  0  0  0  0  0
  184.2130  177.5520  137.8080 C   0  0  1  0  0  3  0  0  0  0  0  0
  186.4290  177.4830  136.8170 C   0  0  0  0  0  0  0  0  0  0  0  0
  185.6910  177.5970  138.1380 C   0  0  0  0  0  2  0  0  0  0  0  0
  184.1140  176.8230  136.4890 C   0  0  0  0  0  2  0  0  0  0  0  0
  185.3950  177.1550  135.7540 C   0  0  0  0  0  2  0  0  0  0  0  0
  187.1100  178.7950  136.4860 C   0  0  0  0  0  1  0  0  0  0  0  0
  187.4600  176.3760  136.8980 C   0  0  0  0  0  1  0  0  0  0  0  0
  1 20  1  0  0  0  0
  2 17  1  0  0  0  0
  4  9  2  0  0  0  0
  4 12  1  0  0  0  0
  5 11  1  6  0  0  0
  5  7  1  0  0  0  0
  5 18  1  0  0  0  0
  6 16  2  0  0  0  0
  6  9  1  0  0  0  0
  7  2  1  6  0  0  0
  7  4  1  0  0  0  0
  8 12  1  0  0  0  0
 10 15  1  6  0  0  0
 10 14  1  0  0  0  0
 13 15  1  0  0  0  0
 14  3  1  6  0  0  0
 14 18  1  0  0  0  0
 17  6  1  0  0  0  0
 18  8  1  1  0  0  0
 19 13  1  0  0  0  0
 19  1  1  0  0  0  0
 20 10  1  0  0  0  0
 20 11  1  6  0  0  0
 21  1  1  0  0  0  0
 22 24  1  0  0  0  0
 22 21  1  1  0  0  0
 23 28  1  0  0  0  0
 23 24  1  0  0  0  0
 25 22  1  0  0  0  0
 26 25  1  0  0  0  0
 26 23  1  0  0  0  0
 27 23  1  0  0  0  0
M  END
>  <MODEL>
5

>  <REMARK>
 VINA RESULT:      -8.0      3.517      6.155
  Name = 
  2 active torsions:
  status: ('A' for Active; 'I' for Inactive)
    1  A    between atoms: N_1  and  C_2
    2  A    between atoms: C_2  and  C_3
                            x       y       z     vdW  Elec       q    Type
                         _______ _______ _______ _____ _____    ______ ____

>  <TORSDO>
F 2

$$$$
=
 OpenBabel10272401563D

 28 32  0  0  1  0  0  0  0  0999 V2000
  185.4170  178.8890  138.7380 N   0  0  0  0  0  0  0  0  0  0  0  0
  187.3160  177.2910  143.6590 C   0  0  0  0  0  2  0  0  0  0  0  0
  189.6840  178.4020  138.0360 C   0  0  0  0  0  1  0  0  0  0  0  0
  189.7640  177.4250  143.1190 C   0  0  0  0  0  0  0  0  0  0  0  0
  188.0490  177.5230  141.2600 C   0  0  1  0  0  3  0  0  0  0  0  0
  189.0390  177.2210  145.4450 C   0  0  0  0  0  0  0  0  0  0  0  0
  188.3750  177.8840  142.7210 C   0  0  1  0  0  3  0  0  0  0  0  0
  190.3190  176.9630  140.7720 C   0  0  0  0  0  2  0  0  0  0  0  0
  190.0680  177.1690  144.3950 C   0  0  0  0  0  3  0  0  0  0  0  0
  187.4310  177.4160  138.6160 C   0  0  2  0  0  3  0  0  0  0  0  0
  186.7750  178.2890  140.8350 C   0  0  0  0  0  2  0  0  0  0  0  0
  190.8620  177.4360  142.1100 C   0  0  0  0  0  2  0  0  0  0  0  0
  185.6860  177.1490  137.0060 C   0  0  0  0  0  2  0  0  0  0  0  0
  188.9310  177.4390  138.9460 C   0  0  2  0  0  3  0  0  0  0  0  0
  187.1200  177.4270  137.1890 N   0  0  0  0  0  2  0  0  0  0  0  0
  189.3470  176.9610  146.6370 O   0  0  0  0  0  0  0  0  0  0  0  0
  187.6380  177.6330  145.1110 C   0  0  0  0  0  2  0  0  0  0  0  0
  189.1970  177.8020  140.3570 N   0  0  1  0  0  0  0  0  0  0  0  0
  184.8040  177.6990  138.1470 C   0  0  0  0  0  2  0  0  0  0  0  0
  186.7450  178.5750  139.3270 C   0  0  2  0  0  3  0  0  0  0  0  0
  184.4810  179.4510  139.7080 C   0  0  0  0  0  2  0  0  0  0  0  0
  183.1040  178.8330  139.5330 C   0  0  1  0  0  3  0  0  0  0  0  0
  181.0890  178.5530  140.8590 C   0  0  0  0  0  0  0  0  0  0  0  0
  182.5840  178.2920  140.8500 C   0  0  0  0  0  2  0  0  0  0  0  0
  182.1120  179.8890  139.1080 C   0  0  0  0  0  2  0  0  0  0  0  0
  180.7790  179.4290  139.6580 C   0  0  0  0  0  2  0  0  0  0  0  0
  180.3320  177.2440  140.7510 C   0  0  0  0  0  1  0  0  0  0  0  0
  180.6980  179.2660  142.1380 C   0  0  0  0  0  1  0  0  0  0  0  0
  1 20  1  0  0  0  0
  1 21  1  0  0  0  0
  2 17  1  0  0  0  0
  4  9  2  0  0  0  0
  5 11  1  6  0  0  0
  5  7  1  0  0  0  0
  6 16  2  0  0  0  0
  7  4  1  0  0  0  0
  7  2  1  1  0  0  0
  8 12  1  0  0  0  0
  9  6  1  0  0  0  0
 10 15  1  6  0  0  0
 10 14  1  0  0  0  0
 10 20  1  0  0  0  0
 12  4  1  0  0  0  0
 13 15  1  0  0  0  0
 13 19  1  0  0  0  0
 14  3  1  6  0  0  0
 14 18  1  0  0  0  0
 17  6  1  0  0  0  0
 18  8  1  1  0  0  0
 18  5  1  0  0  0  0
 19  1  1  0  0  0  0
 20 11  1  1  0  0  0
 22 21  1  1  0  0  0
 22 24  1  0  0  0  0
 23 28  1  0  0  0  0
 24 23  1  0  0  0  0
 25 22  1  0  0  0  0
 25 26  1  0  0  0  0
 26 23  1  0  0  0  0
 27 23  1  0  0  0  0
M  END
>  <MODEL>
6

>  <REMARK>
 VINA RESULT:      -7.9      3.149      7.059
  Name = 
  2 active torsions:
  status: ('A' for Active; 'I' for Inactive)
    1  A    between atoms: N_1  and  C_2
    2  A    between atoms: C_2  and  C_3
                            x       y       z     vdW  Elec       q    Type
                         _______ _______ _______ _____ _____    ______ ____

>  <TORSDO>
F 2

$$$$
=
 OpenBabel10272401563D

 28 32  0  0  1  0  0  0  0  0999 V2000
  189.3530  178.1810  139.2290 N   0  0  0  0  0  0  0  0  0  0  0  0
  184.6130  178.0680  142.0380 C   0  0  0  0  0  2  0  0  0  0  0  0
  190.6660  178.2400  143.3770 C   0  0  0  0  0  1  0  0  0  0  0  0
  185.5810  178.4680  144.3200 C   0  0  0  0  0  0  0  0  0  0  0  0
  187.1000  177.8640  142.3870 C   0  0  1  0  0  3  0  0  0  0  0  0
  183.1710  178.6830  143.9640 C   0  0  0  0  0  0  0  0  0  0  0  0
  185.8180  178.5940  142.8280 C   0  0  1  0  0  3  0  0  0  0  0  0
  187.8490  177.5810  144.6380 C   0  0  0  0  0  2  0  0  0  0  0  0
  184.3510  178.5600  144.8340 C   0  0  0  0  0  3  0  0  0  0  0  0
  189.5230  177.0620  141.4560 C   0  0  2  0  0  3  0  0  0  0  0  0
  187.4440  178.2980  140.9440 C   0  0  0  0  0  2  0  0  0  0  0  0
  186.7450  178.4260  145.2510 C   0  0  0  0  0  2  0  0  0  0  0  0
  190.7230  176.1590  139.5980 C   0  0  0  0  0  2  0  0  0  0  0  0
  189.4670  177.4000  142.9530 C   0  0  2  0  0  3  0  0  0  0  0  0
  190.8490  176.6990  140.9620 N   0  0  0  0  0  2  0  0  0  0  0  0
  182.0230  178.7530  144.4730 O   0  0  0  0  0  0  0  0  0  0  0  0
  183.3360  178.7770  142.4780 C   0  0  0  0  0  2  0  0  0  0  0  0
  188.2240  178.1110  143.3280 N   0  0  1  0  0  0  0  0  0  0  0  0
  189.5810  176.8050  138.7860 C   0  0  0  0  0  2  0  0  0  0  0  0
  188.9500  178.2260  140.6580 C   0  0  2  0  0  3  0  0  0  0  0  0
  188.3680  178.7900  138.3390 C   0  0  0  0  0  2  0  0  0  0  0  0
  187.9330  177.7970  137.2740 C   0  0  1  0  0  3  0  0  0  0  0  0
  185.8500  176.8570  136.4520 C   0  0  0  0  0  0  0  0  0  0  0  0
  186.6820  177.0580  137.7050 C   0  0  0  0  0  2  0  0  0  0  0  0
  187.5550  178.5280  136.0070 C   0  0  0  0  0  2  0  0  0  0  0  0
  186.5070  177.6610  135.3440 C   0  0  0  0  0  2  0  0  0  0  0  0
  185.8220  175.3890  136.0770 C   0  0  0  0  0  1  0  0  0  0  0  0
  184.4380  177.3530  136.6870 C   0  0  0  0  0  1  0  0  0  0  0  0
  1 20  1  0  0  0  0
  2 17  1  0  0  0  0
  4  9  2  0  0  0  0
  4 12  1  0  0  0  0
  5 11  1  6  0  0  0
  5  7  1  0  0  0  0
  5 18  1  0  0  0  0
  6 16  2  0  0  0  0
  6  9  1  0  0  0  0
  7  2  1  6  0  0  0
  7  4  1  0  0  0  0
  8 12  1  0  0  0  0
 10 15  1  6  0  0  0
 10 14  1  0  0  0  0
 13 15  1  0  0  0  0
 14 18  1  0  0  0  0
 14  3  1  6  0  0  0
 17  6  1  0  0  0  0
 18  8  1  1  0  0  0
 19  1  1  0  0  0  0
 19 13  1  0  0  0  0
 20 11  1  6  0  0  0
 20 10  1  0  0  0  0
 21  1  1  0  0  0  0
 22 24  1  0  0  0  0
 22 21  1  1  0  0  0
 23 28  1  0  0  0  0
 23 24  1  0  0  0  0
 25 22  1  0  0  0  0
 26 25  1  0  0  0  0
 26 23  1  0  0  0  0
 27 23  1  0  0  0  0
M  END
>  <MODEL>
7

>  <REMARK>
 VINA RESULT:      -7.9      1.869      2.871
  Name = 
  2 active torsions:
  status: ('A' for Active; 'I' for Inactive)
    1  A    between atoms: N_1  and  C_2
    2  A    between atoms: C_2  and  C_3
                            x       y       z     vdW  Elec       q    Type
                         _______ _______ _______ _____ _____    ______ ____

>  <TORSDO>
F 2

$$$$
=
 OpenBabel10272401563D

 28 32  0  0  1  0  0  0  0  0999 V2000
  189.5280  176.8450  139.3090 N   0  0  0  0  0  0  0  0  0  0  0  0
  191.4020  177.1320  144.4830 C   0  0  0  0  0  2  0  0  0  0  0  0
  185.9470  177.7660  141.6020 C   0  0  0  0  0  1  0  0  0  0  0  0
  189.1730  177.3020  145.6250 C   0  0  0  0  0  0  0  0  0  0  0  0
  189.3410  177.6180  143.1190 C   0  0  1  0  0  3  0  0  0  0  0  0
  191.1780  176.8100  146.9350 C   0  0  0  0  0  0  0  0  0  0  0  0
  189.8930  176.8880  144.3570 C   0  0  1  0  0  3  0  0  0  0  0  0
  187.4330  178.4280  144.3070 C   0  0  0  0  0  2  0  0  0  0  0  0
  189.7680  177.2130  146.8180 C   0  0  0  0  0  3  0  0  0  0  0  0
  188.2410  178.4140  140.7650 C   0  0  2  0  0  3  0  0  0  0  0  0
  189.8890  176.9240  141.8510 C   0  0  0  0  0  2  0  0  0  0  0  0
  187.7210  177.6370  145.5720 C   0  0  0  0  0  2  0  0  0  0  0  0
  188.6650  179.0100  138.4910 C   0  0  0  0  0  2  0  0  0  0  0  0
  187.2870  178.3920  141.9690 C   0  0  2  0  0  3  0  0  0  0  0  0
  187.6150  178.7790  139.4970 N   0  0  0  0  0  2  0  0  0  0  0  0
  191.7190  176.7480  148.0690 O   0  0  0  0  0  0  0  0  0  0  0  0
  191.9570  176.4230  145.7150 C   0  0  0  0  0  2  0  0  0  0  0  0
  187.8550  177.6700  143.1300 N   0  0  1  0  0  0  0  0  0  0  0  0
  189.9060  178.1130  138.6830 C   0  0  0  0  0  2  0  0  0  0  0  0
  188.9380  177.0640  140.6540 C   0  0  2  0  0  3  0  0  0  0  0  0
  190.7060  175.9810  139.3360 C   0  0  0  0  0  2  0  0  0  0  0  0
  191.4060  176.0000  137.9870 C   0  0  1  0  0  3  0  0  0  0  0  0
  193.5720  175.3640  137.0890 C   0  0  0  0  0  0  0  0  0  0  0  0
  192.8980  176.2060  138.1580 C   0  0  0  0  0  2  0  0  0  0  0  0
  191.2570  174.6600  137.3070 C   0  0  0  0  0  2  0  0  0  0  0  0
  192.4930  174.5110  136.4460 C   0  0  0  0  0  2  0  0  0  0  0  0
  194.2090  176.2610  136.0470 C   0  0  0  0  0  1  0  0  0  0  0  0
  194.6270  174.4800  137.7200 C   0  0  0  0  0  1  0  0  0  0  0  0
  1 21  1  0  0  0  0
  1 20  1  0  0  0  0
  2 17  1  0  0  0  0
  4  9  2  0  0  0  0
  5 11  1  6  0  0  0
  5 18  1  0  0  0  0
  5  7  1  0  0  0  0
  6 16  2  0  0  0  0
  7  2  1  1  0  0  0
  7  4  1  0  0  0  0
  8 12  1  0  0  0  0
  9  6  1  0  0  0  0
 10 15  1  6  0  0  0
 10 14  1  0  0  0  0
 12  4  1  0  0  0  0
 13 19  1  0  0  0  0
 13 15  1  0  0  0  0
 14  3  1  6  0  0  0
 14 18  1  0  0  0  0
 17  6  1  0  0  0  0
 18  8  1  1  0  0  0
 19  1  1  0  0  0  0
 20 10  1  0  0  0  0
 20 11  1  1  0  0  0
 22 24  1  0  0  0  0
 22 21  1  1  0  0  0
 23 28  1  0  0  0  0
 23 24  1  0  0  0  0
 25 22  1  0  0  0  0
 26 23  1  0  0  0  0
 26 25  1  0  0  0  0
 27 23  1  0  0  0  0
M  END
>  <MODEL>
8

>  <REMARK>
 VINA RESULT:      -7.8      3.075      5.461
  Name = 
  2 active torsions:
  status: ('A' for Active; 'I' for Inactive)
    1  A    between atoms: N_1  and  C_2
    2  A    between atoms: C_2  and  C_3
                            x       y       z     vdW  Elec       q    Type
                         _______ _______ _______ _____ _____    ______ ____

>  <TORSDO>
F 2

$$$$
=
 OpenBabel10272401563D

 28 32  0  0  1  0  0  0  0  0999 V2000
  182.2770  177.7190  139.7130 N   0  0  0  0  0  0  0  0  0  0  0  0
  186.9440  178.0380  142.6280 C   0  0  0  0  0  2  0  0  0  0  0  0
  180.8610  178.4640  143.7600 C   0  0  0  0  0  1  0  0  0  0  0  0
  185.8960  178.1010  144.9080 C   0  0  0  0  0  0  0  0  0  0  0  0
  184.4680  178.4480  142.8480 C   0  0  1  0  0  3  0  0  0  0  0  0
  188.2950  177.6840  144.6800 C   0  0  0  0  0  0  0  0  0  0  0  0
  185.6880  177.7310  143.4530 C   0  0  1  0  0  3  0  0  0  0  0  0
  183.6830  179.1640  144.9870 C   0  0  0  0  0  2  0  0  0  0  0  0
  187.1050  178.0270  145.4740 C   0  0  0  0  0  3  0  0  0  0  0  0
  182.1250  179.2180  141.7070 C   0  0  2  0  0  3  0  0  0  0  0  0
  184.1320  177.7890  141.4890 C   0  0  0  0  0  2  0  0  0  0  0  0
  184.7150  178.3750  145.7760 C   0  0  0  0  0  2  0  0  0  0  0  0
  181.0320  179.8520  139.6790 C   0  0  0  0  0  2  0  0  0  0  0  0
  182.1220  179.1440  143.2410 C   0  0  2  0  0  3  0  0  0  0  0  0
  180.8380  179.5680  141.1100 N   0  0  0  0  0  2  0  0  0  0  0  0
  189.4230  177.6350  145.2340 O   0  0  0  0  0  0  0  0  0  0  0  0
  188.1610  177.3420  143.2280 C   0  0  0  0  0  2  0  0  0  0  0  0
  183.3070  178.4360  143.7770 N   0  0  1  0  0  0  0  0  0  0  0  0
  182.1500  179.0080  139.0320 C   0  0  0  0  0  2  0  0  0  0  0  0
  182.6400  177.9000  141.1430 C   0  0  2  0  0  3  0  0  0  0  0  0
  183.2420  176.9060  138.9770 C   0  0  0  0  0  2  0  0  0  0  0  0
  182.7230  175.4860  138.8180 C   0  0  1  0  0  3  0  0  0  0  0  0
  181.0890  174.3240  137.4480 C   0  0  0  0  0  0  0  0  0  0  0  0
  181.2650  175.4880  138.4060 C   0  0  0  0  0  2  0  0  0  0  0  0
  183.4600  174.7890  137.6990 C   0  0  0  0  0  2  0  0  0  0  0  0
  182.4750  173.7860  137.1380 C   0  0  0  0  0  2  0  0  0  0  0  0
  180.2480  173.2420  138.0940 C   0  0  0  0  0  1  0  0  0  0  0  0
  180.4200  174.8020  136.1750 C   0  0  0  0  0  1  0  0  0  0  0  0
  1 20  1  0  0  0  0
  2 17  1  0  0  0  0
  4  9  2  0  0  0  0
  4 12  1  0  0  0  0
  5 11  1  6  0  0  0
  5  7  1  0  0  0  0
  5 18  1  0  0  0  0
  6 16  2  0  0  0  0
  6  9  1  0  0  0  0
  7  2  1  6  0  0  0
  7  4  1  0  0  0  0
  8 12  1  0  0  0  0
 10 15  1  6  0  0  0
 10 14  1  0  0  0  0
 13 15  1  0  0  0  0
 14  3  1  6  0  0  0
 14 18  1  0  0  0  0
 17  6  1  0  0  0  0
 18  8  1  1  0  0  0
 19 13  1  0  0  0  0
 19  1  1  0  0  0  0
 20 11  1  6  0  0  0
 20 10  1  0  0  0  0
 21  1  1  0  0  0  0
 22 21  1  6  0  0  0
 23 27  1  0  0  0  0
 23 24  1  0  0  0  0
 24 22  1  0  0  0  0
 25 22  1  0  0  0  0
 26 23  1  0  0  0  0
 26 25  1  0  0  0  0
 28 23  1  0  0  0  0
M  END
>  <MODEL>
9

>  <REMARK>
 VINA RESULT:      -7.8      4.412      7.043
  Name = 
  2 active torsions:
  status: ('A' for Active; 'I' for Inactive)
    1  A    between atoms: N_1  and  C_2
    2  A    between atoms: C_2  and  C_3
                            x       y       z     vdW  Elec       q    Type
                         _______ _______ _______ _____ _____    ______ ____

>  <TORSDO>
F 2

$$$$
