=
 OpenBabel10272401563D

 28 32  0  0  1  0  0  0  0  0999 V2000
  190.7480  176.6020  144.2960 C   0  0  1  0  0  3  0  0  0  0  0  0
  185.6020  177.5290  143.5020 C   0  0  0  0  0  3  0  0  0  0  0  0
  188.9650  178.1610  148.5640 O   0  0  0  0  0  0  0  0  0  0  0  0
  185.2010  178.9850  145.3970 C   0  0  0  0  0  0  0  0  0  0  0  0
  187.1920  177.4050  145.4580 C   0  0  1  0  0  3  0  0  0  0  0  0
  183.7580  179.0950  143.4550 C   0  0  0  0  0  0  0  0  0  0  0  0
  185.9760  177.9890  144.7740 C   0  0  0  0  0  0  0  0  0  0  0  0
  186.4080  178.6260  147.5510 C   0  0  0  0  0  2  0  0  0  0  0  0
  184.1070  179.5450  144.7310 C   0  0  0  0  0  3  0  0  0  0  0  0
  189.8200  177.1750  146.5790 C   0  0  0  0  0  0  0  0  0  0  0  0
  188.4070  177.4930  144.5240 C   0  0  0  0  0  2  0  0  0  0  0  0
  185.5210  179.4180  146.7170 N   0  0  0  0  0  2  0  0  0  0  0  0
  191.9420  175.9930  146.3860 C   0  0  0  0  0  3  0  0  0  0  0  0
  188.7610  177.8240  147.3650 C   0  0  0  0  0  0  0  0  0  0  0  0
  190.9220  176.7040  147.1700 C   0  0  0  0  0  3  0  0  0  0  0  0
  182.6700  179.6520  142.7970 O   0  0  0  0  0  1  0  0  0  0  0  0
  184.4990  178.0810  142.8450 C   0  0  0  0  0  3  0  0  0  0  0  0
  187.4890  178.0660  146.7440 N   0  0  0  0  0  0  0  0  0  0  0  0
  191.8520  175.9120  145.0570 C   0  0  0  0  0  3  0  0  0  0  0  0
  189.6230  176.9870  145.1630 N   0  0  0  0  0  0  0  0  0  0  0  0
  191.2910  177.8020  143.5040 C   0  0  0  0  0  2  0  0  0  0  0  0
  191.1690  177.6390  142.0210 C   0  0  0  0  0  0  0  0  0  0  0  0
  190.9420  177.2840  139.2540 C   0  0  0  0  0  0  0  0  0  0  0  0
  189.9050  177.6040  141.4200 C   0  0  0  0  0  3  0  0  0  0  0  0
  192.3180  177.4990  141.2350 C   0  0  0  0  0  3  0  0  0  0  0  0
  192.2050  177.3220  139.8530 C   0  0  0  0  0  3  0  0  0  0  0  0
  190.8320  177.1110  137.9150 F   0  0  0  0  0  0  0  0  0  0  0  0
  189.7920  177.4260  140.0380 C   0  0  0  0  0  3  0  0  0  0  0  0
  1 21  1  1  0  0  0
  1 19  1  0  0  0  0
  1 20  1  0  0  0  0
  2  7  1  0  0  0  0
  4 12  1  0  0  0  0
  5 11  1  6  0  0  0
  5 18  1  0  0  0  0
  6  9  2  0  0  0  0
  7  4  2  0  0  0  0
  7  5  1  0  0  0  0
  9  4  1  0  0  0  0
 10 15  2  0  0  0  0
 10 14  1  0  0  0  0
 11 20  1  0  0  0  0
 12  8  1  0  0  0  0
 13 15  1  0  0  0  0
 14  3  2  0  0  0  0
 16  6  1  0  0  0  0
 17  6  1  0  0  0  0
 17  2  2  0  0  0  0
 18 14  1  0  0  0  0
 18  8  1  0  0  0  0
 19 13  2  0  0  0  0
 20 10  1  0  0  0  0
 22 21  1  0  0  0  0
 23 26  2  0  0  0  0
 23 28  1  0  0  0  0
 24 22  1  0  0  0  0
 25 22  2  0  0  0  0
 26 25  1  0  0  0  0
 27 23  1  0  0  0  0
 28 24  2  0  0  0  0
M  END
>  <MODEL>
1

>  <REMARK>
 VINA RESULT:     -10.1      0.000      0.000
  Name = 
  2 active torsions:
  status: ('A' for Active; 'I' for Inactive)
    1  A    between atoms: C_1  and  C_2
    2  A    between atoms: C_2  and  C_3
                            x       y       z     vdW  Elec       q    Type
                         _______ _______ _______ _____ _____    ______ ____

>  <TORSDO>
F 2

$$$$
=
 OpenBabel10272401563D

 28 32  0  0  1  0  0  0  0  0999 V2000
  189.4260  178.0070  142.7610 C   0  0  1  0  0  3  0  0  0  0  0  0
  185.9090  178.4850  138.8400 C   0  0  0  0  0  3  0  0  0  0  0  0
  191.5910  176.2390  138.7590 O   0  0  0  0  0  0  0  0  0  0  0  0
  186.8630  176.8760  137.3010 C   0  0  0  0  0  0  0  0  0  0  0  0
  188.3510  177.9000  139.0900 C   0  0  1  0  0  3  0  0  0  0  0  0
  184.5110  177.4370  137.1660 C   0  0  0  0  0  0  0  0  0  0  0  0
  187.0150  177.7460  138.3970 C   0  0  0  0  0  0  0  0  0  0  0  0
  189.3360  176.5750  137.1510 C   0  0  0  0  0  2  0  0  0  0  0  0
  185.6110  176.7120  136.7010 C   0  0  0  0  0  3  0  0  0  0  0  0
  190.6670  177.3050  140.6710 C   0  0  0  0  0  0  0  0  0  0  0  0
  188.1820  177.6790  140.5990 C   0  0  0  0  0  2  0  0  0  0  0  0
  187.9890  176.1670  136.7890 N   0  0  0  0  0  2  0  0  0  0  0  0
  191.9060  177.9590  142.6630 C   0  0  0  0  0  3  0  0  0  0  0  0
  190.5960  176.8090  139.2890 C   0  0  0  0  0  0  0  0  0  0  0  0
  191.8380  177.3940  141.3090 C   0  0  0  0  0  3  0  0  0  0  0  0
  183.2700  177.2730  136.5660 O   0  0  0  0  0  1  0  0  0  0  0  0
  184.6610  178.3300  138.2290 C   0  0  0  0  0  3  0  0  0  0  0  0
  189.3760  176.9840  138.5530 N   0  0  0  0  0  0  0  0  0  0  0  0
  190.7960  178.2770  143.3310 C   0  0  0  0  0  3  0  0  0  0  0  0
  189.4590  177.7650  141.3090 N   0  0  0  0  0  0  0  0  0  0  0  0
  188.7330  176.8600  143.5120 C   0  0  0  0  0  2  0  0  0  0  0  0
  187.7640  177.3310  144.5510 C   0  0  0  0  0  0  0  0  0  0  0  0
  185.9710  178.2580  146.4900 C   0  0  0  0  0  0  0  0  0  0  0  0
  186.4730  177.7270  144.1810 C   0  0  0  0  0  3  0  0  0  0  0  0
  188.1540  177.3970  145.8930 C   0  0  0  0  0  3  0  0  0  0  0  0
  187.2580  177.8610  146.8620 C   0  0  0  0  0  3  0  0  0  0  0  0
  185.1030  178.7080  147.4280 F   0  0  0  0  0  0  0  0  0  0  0  0
  185.5780  178.1900  145.1490 C   0  0  0  0  0  3  0  0  0  0  0  0
  1 19  1  0  0  0  0
  1 21  1  1  0  0  0
  3 14  2  0  0  0  0
  4  7  2  0  0  0  0
  5 11  1  1  0  0  0
  6 17  1  0  0  0  0
  7  2  1  0  0  0  0
  7  5  1  0  0  0  0
  8 18  1  0  0  0  0
  9  6  2  0  0  0  0
  9  4  1  0  0  0  0
 10 20  1  0  0  0  0
 10 15  2  0  0  0  0
 11 20  1  0  0  0  0
 12  8  1  0  0  0  0
 12  4  1  0  0  0  0
 13 19  2  0  0  0  0
 14 10  1  0  0  0  0
 15 13  1  0  0  0  0
 16  6  1  0  0  0  0
 17  2  2  0  0  0  0
 18  5  1  0  0  0  0
 18 14  1  0  0  0  0
 20  1  1  0  0  0  0
 21 22  1  0  0  0  0
 22 25  1  0  0  0  0
 23 26  1  0  0  0  0
 23 27  1  0  0  0  0
 24 22  2  0  0  0  0
 24 28  1  0  0  0  0
 25 26  2  0  0  0  0
 28 23  2  0  0  0  0
M  END
>  <MODEL>
2

>  <REMARK>
 VINA RESULT:      -9.4      4.490      7.045
  Name = 
  2 active torsions:
  status: ('A' for Active; 'I' for Inactive)
    1  A    between atoms: C_1  and  C_2
    2  A    between atoms: C_2  and  C_3
                            x       y       z     vdW  Elec       q    Type
                         _______ _______ _______ _____ _____    ______ ____

>  <TORSDO>
F 2

$$$$
=
 OpenBabel10272401563D

 28 32  0  0  1  0  0  0  0  0999 V2000
  189.1750  178.1210  143.0490 C   0  0  1  0  0  3  0  0  0  0  0  0
  185.7060  178.6730  139.0950 C   0  0  0  0  0  3  0  0  0  0  0  0
  191.2610  176.1280  139.1110 O   0  0  0  0  0  0  0  0  0  0  0  0
  186.5810  176.9720  137.6070 C   0  0  0  0  0  0  0  0  0  0  0  0
  188.1130  177.9660  139.3760 C   0  0  1  0  0  3  0  0  0  0  0  0
  184.2630  177.6530  137.4420 C   0  0  0  0  0  0  0  0  0  0  0  0
  186.7740  177.8630  138.6790 C   0  0  0  0  0  0  0  0  0  0  0  0
  189.0350  176.5370  137.4810 C   0  0  0  0  0  2  0  0  0  0  0  0
  185.3250  176.8580  137.0040 C   0  0  0  0  0  3  0  0  0  0  0  0
  190.3870  177.2950  140.9870 C   0  0  0  0  0  0  0  0  0  0  0  0
  187.9250  177.7970  140.8900 C   0  0  0  0  0  2  0  0  0  0  0  0
  187.6700  176.1910  137.1220 N   0  0  0  0  0  2  0  0  0  0  0  0
  191.6500  177.9380  142.9680 C   0  0  0  0  0  3  0  0  0  0  0  0
  190.2960  176.7640  139.6190 C   0  0  0  0  0  0  0  0  0  0  0  0
  191.5570  177.3400  141.6290 C   0  0  0  0  0  3  0  0  0  0  0  0
  183.0170  177.5390  136.8390 O   0  0  0  0  0  1  0  0  0  0  0  0
  184.4560  178.5670  138.4800 C   0  0  0  0  0  3  0  0  0  0  0  0
  189.0910  176.9830  138.8710 N   0  0  0  0  0  0  0  0  0  0  0  0
  190.5550  178.3340  143.6200 C   0  0  0  0  0  3  0  0  0  0  0  0
  189.2020  177.8360  141.6050 N   0  0  0  0  0  0  0  0  0  0  0  0
  188.4190  177.0330  143.8270 C   0  0  0  0  0  2  0  0  0  0  0  0
  188.2930  177.3290  145.2900 C   0  0  0  0  0  0  0  0  0  0  0  0
  188.0830  177.9250  148.0160 C   0  0  0  0  0  0  0  0  0  0  0  0
  187.1290  177.9220  145.7900 C   0  0  0  0  0  3  0  0  0  0  0  0
  189.3520  177.0320  146.1560 C   0  0  0  0  0  3  0  0  0  0  0  0
  189.2460  177.3310  147.5180 C   0  0  0  0  0  3  0  0  0  0  0  0
  187.9820  178.2150  149.3350 F   0  0  0  0  0  0  0  0  0  0  0  0
  187.0240  178.2200  147.1520 C   0  0  0  0  0  3  0  0  0  0  0  0
  1 19  1  0  0  0  0
  1 21  1  1  0  0  0
  3 14  2  0  0  0  0
  4  7  2  0  0  0  0
  5 11  1  1  0  0  0
  6 17  1  0  0  0  0
  7  2  1  0  0  0  0
  7  5  1  0  0  0  0
  8 18  1  0  0  0  0
  9  6  2  0  0  0  0
  9  4  1  0  0  0  0
 10 20  1  0  0  0  0
 10 15  2  0  0  0  0
 11 20  1  0  0  0  0
 12  8  1  0  0  0  0
 12  4  1  0  0  0  0
 13 19  2  0  0  0  0
 14 10  1  0  0  0  0
 15 13  1  0  0  0  0
 16  6  1  0  0  0  0
 17  2  2  0  0  0  0
 18  5  1  0  0  0  0
 18 14  1  0  0  0  0
 20  1  1  0  0  0  0
 21 22  1  0  0  0  0
 22 24  2  0  0  0  0
 22 25  1  0  0  0  0
 23 27  1  0  0  0  0
 24 28  1  0  0  0  0
 25 26  2  0  0  0  0
 26 23  1  0  0  0  0
 28 23  2  0  0  0  0
M  END
>  <MODEL>
3

>  <REMARK>
 VINA RESULT:      -9.3      4.425      6.915
  Name = 
  2 active torsions:
  status: ('A' for Active; 'I' for Inactive)
    1  A    between atoms: C_1  and  C_2
    2  A    between atoms: C_2  and  C_3
                            x       y       z     vdW  Elec       q    Type
                         _______ _______ _______ _____ _____    ______ ____

>  <TORSDO>
F 2

$$$$
=
 OpenBabel10272401563D

 28 32  0  0  1  0  0  0  0  0999 V2000
  189.9690  176.6030  142.7110 C   0  0  1  0  0  3  0  0  0  0  0  0
  184.7880  177.6420  142.9360 C   0  0  0  0  0  3  0  0  0  0  0  0
  189.0620  178.0470  147.2840 O   0  0  0  0  0  0  0  0  0  0  0  0
  184.7860  179.0400  144.9150 C   0  0  0  0  0  0  0  0  0  0  0  0
  186.7160  177.4260  144.5500 C   0  0  1  0  0  3  0  0  0  0  0  0
  183.0050  179.2390  143.2870 C   0  0  0  0  0  0  0  0  0  0  0  0
  185.4070  178.0530  144.1270 C   0  0  0  0  0  0  0  0  0  0  0  0
  186.3700  178.5890  146.7890 C   0  0  0  0  0  2  0  0  0  0  0  0
  183.5990  179.6410  144.4850 C   0  0  0  0  0  3  0  0  0  0  0  0
  189.5030  177.1140  145.1440 C   0  0  0  0  0  0  0  0  0  0  0  0
  187.7340  177.5250  143.4060 C   0  0  0  0  0  2  0  0  0  0  0  0
  185.3600  179.4230  146.1620 N   0  0  0  0  0  2  0  0  0  0  0  0
  191.5220  175.9040  144.5170 C   0  0  0  0  0  3  0  0  0  0  0  0
  188.6270  177.7540  146.1360 C   0  0  0  0  0  0  0  0  0  0  0  0
  190.6860  176.6050  145.5010 C   0  0  0  0  0  3  0  0  0  0  0  0
  181.8250  179.8360  142.8640 O   0  0  0  0  0  1  0  0  0  0  0  0
  183.5940  178.2340  142.5170 C   0  0  0  0  0  3  0  0  0  0  0  0
  187.2660  178.0380  145.7750 N   0  0  0  0  0  0  0  0  0  0  0  0
  191.1810  175.8690  143.2280 C   0  0  0  0  0  3  0  0  0  0  0  0
  189.0370  176.9780  143.7870 N   0  0  0  0  0  0  0  0  0  0  0  0
  190.3800  177.8190  141.8670 C   0  0  0  0  0  2  0  0  0  0  0  0
  189.9200  177.7370  140.4440 C   0  0  0  0  0  0  0  0  0  0  0  0
  189.0430  177.5370  137.7940 C   0  0  0  0  0  0  0  0  0  0  0  0
  188.6560  178.2200  140.0860 C   0  0  0  0  0  3  0  0  0  0  0  0
  190.7450  177.1570  139.4740 C   0  0  0  0  0  3  0  0  0  0  0  0
  190.3060  177.0570  138.1500 C   0  0  0  0  0  3  0  0  0  0  0  0
  188.6170  177.4390  136.5120 F   0  0  0  0  0  0  0  0  0  0  0  0
  188.2170  178.1200  138.7620 C   0  0  0  0  0  3  0  0  0  0  0  0
  1 21  1  1  0  0  0
  1 19  1  0  0  0  0
  1 20  1  0  0  0  0
  2  7  1  0  0  0  0
  4 12  1  0  0  0  0
  5 11  1  6  0  0  0
  5 18  1  0  0  0  0
  6  9  2  0  0  0  0
  7  5  1  0  0  0  0
  7  4  2  0  0  0  0
  9  4  1  0  0  0  0
 10 15  2  0  0  0  0
 10 14  1  0  0  0  0
 11 20  1  0  0  0  0
 12  8  1  0  0  0  0
 13 15  1  0  0  0  0
 14  3  2  0  0  0  0
 16  6  1  0  0  0  0
 17  2  2  0  0  0  0
 17  6  1  0  0  0  0
 18 14  1  0  0  0  0
 18  8  1  0  0  0  0
 19 13  2  0  0  0  0
 20 10  1  0  0  0  0
 22 21  1  0  0  0  0
 23 26  2  0  0  0  0
 23 28  1  0  0  0  0
 24 22  1  0  0  0  0
 25 22  2  0  0  0  0
 26 25  1  0  0  0  0
 27 23  1  0  0  0  0
 28 24  2  0  0  0  0
M  END
>  <MODEL>
4

>  <REMARK>
 VINA RESULT:      -9.0      1.250      1.597
  Name = 
  2 active torsions:
  status: ('A' for Active; 'I' for Inactive)
    1  A    between atoms: C_1  and  C_2
    2  A    between atoms: C_2  and  C_3
                            x       y       z     vdW  Elec       q    Type
                         _______ _______ _______ _____ _____    ______ ____

>  <TORSDO>
F 2

$$$$
=
 OpenBabel10272401563D

 28 32  0  0  1  0  0  0  0  0999 V2000
  186.7810  178.6540  146.3530 C   0  0  1  0  0  3  0  0  0  0  0  0
  188.9730  178.6260  141.5400 C   0  0  0  0  0  3  0  0  0  0  0  0
  190.9590  176.1630  146.7680 O   0  0  0  0  0  0  0  0  0  0  0  0
  190.4730  176.7460  141.8380 C   0  0  0  0  0  0  0  0  0  0  0  0
  189.6340  177.9890  143.8910 C   0  0  1  0  0  3  0  0  0  0  0  0
  189.7420  177.3750  139.6160 C   0  0  0  0  0  0  0  0  0  0  0  0
  189.6940  177.7780  142.3940 C   0  0  0  0  0  0  0  0  0  0  0  0
  191.5540  176.3230  144.0470 C   0  0  0  0  0  2  0  0  0  0  0  0
  190.4820  176.5380  140.4550 C   0  0  0  0  0  3  0  0  0  0  0  0
  189.0440  177.5660  146.6640 C   0  0  0  0  0  0  0  0  0  0  0  0
  188.1700  178.0260  144.3520 C   0  0  0  0  0  2  0  0  0  0  0  0
  191.2690  175.9170  142.6810 N   0  0  0  0  0  2  0  0  0  0  0  0
  187.8590  178.4870  148.5830 C   0  0  0  0  0  3  0  0  0  0  0  0
  190.1760  176.8530  146.0560 C   0  0  0  0  0  0  0  0  0  0  0  0
  188.9560  177.7100  147.9890 C   0  0  0  0  0  3  0  0  0  0  0  0
  189.7540  177.1670  138.2440 O   0  0  0  0  0  1  0  0  0  0  0  0
  188.9950  178.4240  140.1570 C   0  0  0  0  0  3  0  0  0  0  0  0
  190.3770  176.9550  144.6380 N   0  0  0  0  0  0  0  0  0  0  0  0
  186.8640  178.9570  147.8280 C   0  0  0  0  0  3  0  0  0  0  0  0
  188.0600  178.1750  145.8040 N   0  0  0  0  0  0  0  0  0  0  0  0
  185.6340  177.6750  146.0560 C   0  0  0  0  0  2  0  0  0  0  0  0
  184.7230  178.1430  144.9640 C   0  0  0  0  0  0  0  0  0  0  0  0
  183.0010  178.9700  142.9180 C   0  0  0  0  0  0  0  0  0  0  0  0
  183.4780  178.7000  145.2770 C   0  0  0  0  0  3  0  0  0  0  0  0
  185.1050  178.0020  143.6250 C   0  0  0  0  0  3  0  0  0  0  0  0
  184.2450  178.4150  142.6030 C   0  0  0  0  0  3  0  0  0  0  0  0
  182.1670  179.3690  141.9280 F   0  0  0  0  0  0  0  0  0  0  0  0
  182.6180  179.1130  144.2560 C   0  0  0  0  0  3  0  0  0  0  0  0
  1 21  1  1  0  0  0
  1 19  1  0  0  0  0
  2  7  1  0  0  0  0
  4  7  2  0  0  0  0
  4 12  1  0  0  0  0
  5 11  1  1  0  0  0
  5 18  1  0  0  0  0
  6 17  1  0  0  0  0
  6  9  2  0  0  0  0
  7  5  1  0  0  0  0
  8 18  1  0  0  0  0
  9  4  1  0  0  0  0
 10 15  2  0  0  0  0
 11 20  1  0  0  0  0
 12  8  1  0  0  0  0
 14 10  1  0  0  0  0
 14  3  2  0  0  0  0
 15 13  1  0  0  0  0
 16  6  1  0  0  0  0
 17  2  2  0  0  0  0
 18 14  1  0  0  0  0
 19 13  2  0  0  0  0
 20  1  1  0  0  0  0
 20 10  1  0  0  0  0
 22 24  1  0  0  0  0
 22 21  1  0  0  0  0
 23 28  1  0  0  0  0
 25 22  2  0  0  0  0
 26 23  2  0  0  0  0
 26 25  1  0  0  0  0
 27 23  1  0  0  0  0
 28 24  2  0  0  0  0
M  END
>  <MODEL>
5

>  <REMARK>
 VINA RESULT:      -8.9      2.855      6.213
  Name = 
  2 active torsions:
  status: ('A' for Active; 'I' for Inactive)
    1  A    between atoms: C_1  and  C_2
    2  A    between atoms: C_2  and  C_3
                            x       y       z     vdW  Elec       q    Type
                         _______ _______ _______ _____ _____    ______ ____

>  <TORSDO>
F 2

$$$$
=
 OpenBabel10272401563D

 28 32  0  0  1  0  0  0  0  0999 V2000
  184.8220  179.0810  142.8390 C   0  0  1  0  0  3  0  0  0  0  0  0
  188.8000  178.6660  139.3780 C   0  0  0  0  0  3  0  0  0  0  0  0
  188.4400  176.7920  145.1830 O   0  0  0  0  0  0  0  0  0  0  0  0
  190.0310  176.8790  140.4560 C   0  0  0  0  0  0  0  0  0  0  0  0
  188.4300  178.2830  141.8460 C   0  0  1  0  0  3  0  0  0  0  0  0
  190.2830  177.2630  138.0790 C   0  0  0  0  0  0  0  0  0  0  0  0
  189.0990  177.9310  140.5350 C   0  0  0  0  0  0  0  0  0  0  0  0
  190.1030  176.7090  142.9450 C   0  0  0  0  0  2  0  0  0  0  0  0
  190.6060  176.5380  139.2280 C   0  0  0  0  0  3  0  0  0  0  0  0
  186.7480  178.1090  144.1600 C   0  0  0  0  0  0  0  0  0  0  0  0
  186.9070  178.3120  141.6590 C   0  0  0  0  0  2  0  0  0  0  0  0
  190.4030  176.1630  141.6320 N   0  0  0  0  0  2  0  0  0  0  0  0
  184.8860  179.1690  145.3190 C   0  0  0  0  0  3  0  0  0  0  0  0
  188.0250  177.3810  144.1470 C   0  0  0  0  0  0  0  0  0  0  0  0
  186.1240  178.3780  145.3110 C   0  0  0  0  0  3  0  0  0  0  0  0
  190.8570  176.9240  136.8610 O   0  0  0  0  0  1  0  0  0  0  0  0
  189.3880  178.3330  138.1550 C   0  0  0  0  0  3  0  0  0  0  0  0
  188.7920  177.3530  142.9330 N   0  0  0  0  0  0  0  0  0  0  0  0
  184.2930  179.5280  144.1790 C   0  0  0  0  0  3  0  0  0  0  0  0
  186.2100  178.5970  142.9150 N   0  0  0  0  0  0  0  0  0  0  0  0
  183.8920  178.0380  142.2000 C   0  0  0  0  0  2  0  0  0  0  0  0
  183.1450  178.5590  141.0110 C   0  0  0  0  0  0  0  0  0  0  0  0
  181.7420  179.5750  138.8130 C   0  0  0  0  0  0  0  0  0  0  0  0
  183.8380  179.1630  139.9550 C   0  0  0  0  0  3  0  0  0  0  0  0
  181.7500  178.4620  140.9630 C   0  0  0  0  0  3  0  0  0  0  0  0
  181.0490  178.9700  139.8650 C   0  0  0  0  0  3  0  0  0  0  0  0
  181.0640  180.0680  137.7490 F   0  0  0  0  0  0  0  0  0  0  0  0
  183.1370  179.6710  138.8570 C   0  0  0  0  0  3  0  0  0  0  0  0
  1 21  1  1  0  0  0
  1 20  1  0  0  0  0
  1 19  1  0  0  0  0
  2  7  1  0  0  0  0
  4  7  2  0  0  0  0
  4 12  1  0  0  0  0
  5 11  1  6  0  0  0
  5 18  1  0  0  0  0
  6 17  1  0  0  0  0
  6  9  2  0  0  0  0
  7  5  1  0  0  0  0
  9  4  1  0  0  0  0
 10 15  2  0  0  0  0
 11 20  1  0  0  0  0
 12  8  1  0  0  0  0
 14 10  1  0  0  0  0
 14  3  2  0  0  0  0
 15 13  1  0  0  0  0
 16  6  1  0  0  0  0
 17  2  2  0  0  0  0
 18  8  1  0  0  0  0
 18 14  1  0  0  0  0
 19 13  2  0  0  0  0
 20 10  1  0  0  0  0
 22 21  1  0  0  0  0
 23 28  2  0  0  0  0
 23 26  1  0  0  0  0
 24 22  2  0  0  0  0
 25 22  1  0  0  0  0
 26 25  2  0  0  0  0
 27 23  1  0  0  0  0
 28 24  1  0  0  0  0
M  END
>  <MODEL>
6

>  <REMARK>
 VINA RESULT:      -8.9      3.691      7.261
  Name = 
  2 active torsions:
  status: ('A' for Active; 'I' for Inactive)
    1  A    between atoms: C_1  and  C_2
    2  A    between atoms: C_2  and  C_3
                            x       y       z     vdW  Elec       q    Type
                         _______ _______ _______ _____ _____    ______ ____

>  <TORSDO>
F 2

$$$$
=
 OpenBabel10272401563D

 28 32  0  0  1  0  0  0  0  0999 V2000
  190.1020  177.6560  142.0380 C   0  0  1  0  0  3  0  0  0  0  0  0
  185.2480  179.4710  143.0920 C   0  0  0  0  0  3  0  0  0  0  0  0
  187.5990  177.3740  137.8570 O   0  0  0  0  0  0  0  0  0  0  0  0
  184.0790  178.4900  141.2090 C   0  0  0  0  0  0  0  0  0  0  0  0
  186.5940  178.8280  141.0560 C   0  0  1  0  0  3  0  0  0  0  0  0
  182.8650  179.0710  143.2230 C   0  0  0  0  0  0  0  0  0  0  0  0
  185.2800  178.9270  141.7990 C   0  0  0  0  0  0  0  0  0  0  0  0
  185.2100  178.2520  138.9980 C   0  0  0  0  0  2  0  0  0  0  0  0
  182.8810  178.5480  141.9270 C   0  0  0  0  0  3  0  0  0  0  0  0
  188.9190  177.7160  139.8020 C   0  0  0  0  0  0  0  0  0  0  0  0
  187.6280  178.0990  141.9250 C   0  0  0  0  0  2  0  0  0  0  0  0
  184.0770  177.9990  139.8710 N   0  0  0  0  0  2  0  0  0  0  0  0
  191.3520  177.6360  139.8930 C   0  0  0  0  0  3  0  0  0  0  0  0
  187.6460  177.7280  139.0680 C   0  0  0  0  0  0  0  0  0  0  0  0
  190.0820  177.5750  139.1580 C   0  0  0  0  0  3  0  0  0  0  0  0
  181.6730  179.1280  143.9320 O   0  0  0  0  0  1  0  0  0  0  0  0
  184.0460  179.5410  143.8020 C   0  0  0  0  0  3  0  0  0  0  0  0
  186.4570  178.1510  139.7520 N   0  0  0  0  0  0  0  0  0  0  0  0
  191.3720  177.7080  141.2250 C   0  0  0  0  0  3  0  0  0  0  0  0
  188.9040  177.9310  141.2280 N   0  0  0  0  0  0  0  0  0  0  0  0
  189.9840  176.3220  142.7910 C   0  0  0  0  0  2  0  0  0  0  0  0
  190.3990  176.4120  144.2270 C   0  0  0  0  0  0  0  0  0  0  0  0
  191.1480  176.5390  146.9200 C   0  0  0  0  0  0  0  0  0  0  0  0
  191.6080  175.8450  144.6450 C   0  0  0  0  0  3  0  0  0  0  0  0
  189.5670  177.0440  145.1570 C   0  0  0  0  0  3  0  0  0  0  0  0
  189.9410  177.1070  146.5030 C   0  0  0  0  0  3  0  0  0  0  0  0
  191.5100  176.5990  148.2240 F   0  0  0  0  0  0  0  0  0  0  0  0
  191.9820  175.9080  145.9910 C   0  0  0  0  0  3  0  0  0  0  0  0
  1 21  1  6  0  0  0
  2 17  1  0  0  0  0
  3 14  2  0  0  0  0
  4  7  1  0  0  0  0
  4  9  2  0  0  0  0
  5  7  1  0  0  0  0
  5 11  1  1  0  0  0
  6 17  2  0  0  0  0
  6 16  1  0  0  0  0
  7  2  2  0  0  0  0
  8 18  1  0  0  0  0
  8 12  1  0  0  0  0
  9  6  1  0  0  0  0
 10 20  1  0  0  0  0
 12  4  1  0  0  0  0
 13 19  2  0  0  0  0
 14 18  1  0  0  0  0
 14 10  1  0  0  0  0
 15 10  2  0  0  0  0
 15 13  1  0  0  0  0
 18  5  1  0  0  0  0
 19  1  1  0  0  0  0
 20 11  1  0  0  0  0
 20  1  1  0  0  0  0
 21 22  1  0  0  0  0
 22 24  2  0  0  0  0
 22 25  1  0  0  0  0
 23 27  1  0  0  0  0
 24 28  1  0  0  0  0
 25 26  2  0  0  0  0
 26 23  1  0  0  0  0
 28 23  2  0  0  0  0
M  END
>  <MODEL>
7

>  <REMARK>
 VINA RESULT:      -8.8      3.436      5.829
  Name = 
  2 active torsions:
  status: ('A' for Active; 'I' for Inactive)
    1  A    between atoms: C_1  and  C_2
    2  A    between atoms: C_2  and  C_3
                            x       y       z     vdW  Elec       q    Type
                         _______ _______ _______ _____ _____    ______ ____

>  <TORSDO>
F 2

$$$$
=
 OpenBabel10272401563D

 28 32  0  0  1  0  0  0  0  0999 V2000
  188.4950  176.8160  138.3110 C   0  0  1  0  0  3  0  0  0  0  0  0
  187.7730  176.6300  143.5470 C   0  0  0  0  0  3  0  0  0  0  0  0
  192.8720  177.5990  140.3230 O   0  0  0  0  0  0  0  0  0  0  0  0
  189.7780  177.8070  144.2300 C   0  0  0  0  0  0  0  0  0  0  0  0
  189.7140  176.7120  141.9370 C   0  0  1  0  0  3  0  0  0  0  0  0
  187.8500  177.7430  145.6940 C   0  0  0  0  0  0  0  0  0  0  0  0
  189.0780  177.0610  143.2630 C   0  0  0  0  0  0  0  0  0  0  0  0
  191.8980  177.5590  142.9370 C   0  0  0  0  0  2  0  0  0  0  0  0
  189.1570  178.1590  145.4320 C   0  0  0  0  0  3  0  0  0  0  0  0
  190.8150  176.9880  139.3040 C   0  0  0  0  0  0  0  0  0  0  0  0
  188.7910  177.1410  140.7880 C   0  0  0  0  0  2  0  0  0  0  0  0
  191.1280  178.1960  143.9920 N   0  0  0  0  0  2  0  0  0  0  0  0
  190.5300  176.3280  136.9770 C   0  0  0  0  0  3  0  0  0  0  0  0
  191.6500  177.3200  140.4680 C   0  0  0  0  0  0  0  0  0  0  0  0
  191.3680  176.7300  138.1150 C   0  0  0  0  0  3  0  0  0  0  0  0
  187.2370  178.0930  146.8900 O   0  0  0  0  0  1  0  0  0  0  0  0
  187.1610  176.9710  144.7560 C   0  0  0  0  0  3  0  0  0  0  0  0
  191.0490  177.3200  141.7720 N   0  0  0  0  0  0  0  0  0  0  0  0
  189.1990  176.3320  137.0680 C   0  0  0  0  0  3  0  0  0  0  0  0
  189.3890  176.8720  139.4790 N   0  0  0  0  0  0  0  0  0  0  0  0
  187.8020  178.1650  138.0620 C   0  0  0  0  0  2  0  0  0  0  0  0
  186.3130  178.0550  137.9490 C   0  0  0  0  0  0  0  0  0  0  0  0
  183.5320  177.8050  137.7600 C   0  0  0  0  0  0  0  0  0  0  0  0
  185.4910  178.6090  138.9370 C   0  0  0  0  0  3  0  0  0  0  0  0
  185.7410  177.3790  136.8660 C   0  0  0  0  0  3  0  0  0  0  0  0
  184.3520  177.2540  136.7720 C   0  0  0  0  0  3  0  0  0  0  0  0
  182.1860  177.6830  137.6700 F   0  0  0  0  0  0  0  0  0  0  0  0
  184.1010  178.4840  138.8430 C   0  0  0  0  0  3  0  0  0  0  0  0
  1 21  1  6  0  0  0
  1 20  1  0  0  0  0
  2 17  1  0  0  0  0
  3 14  2  0  0  0  0
  4  9  2  0  0  0  0
  5 11  1  6  0  0  0
  5  7  1  0  0  0  0
  6 16  1  0  0  0  0
  7  2  2  0  0  0  0
  7  4  1  0  0  0  0
  8 12  1  0  0  0  0
  9  6  1  0  0  0  0
 10 20  1  0  0  0  0
 10 14  1  0  0  0  0
 12  4  1  0  0  0  0
 13 19  2  0  0  0  0
 13 15  1  0  0  0  0
 14 18  1  0  0  0  0
 15 10  2  0  0  0  0
 17  6  2  0  0  0  0
 18  5  1  0  0  0  0
 18  8  1  0  0  0  0
 19  1  1  0  0  0  0
 20 11  1  0  0  0  0
 22 21  1  0  0  0  0
 22 24  1  0  0  0  0
 23 28  1  0  0  0  0
 25 22  2  0  0  0  0
 26 25  1  0  0  0  0
 26 23  2  0  0  0  0
 27 23  1  0  0  0  0
 28 24  2  0  0  0  0
M  END
>  <MODEL>
8

>  <REMARK>
 VINA RESULT:      -8.6      3.781      6.629
  Name = 
  2 active torsions:
  status: ('A' for Active; 'I' for Inactive)
    1  A    between atoms: C_1  and  C_2
    2  A    between atoms: C_2  and  C_3
                            x       y       z     vdW  Elec       q    Type
                         _______ _______ _______ _____ _____    ______ ____

>  <TORSDO>
F 2

$$$$
=
 OpenBabel10272401563D

 28 32  0  0  1  0  0  0  0  0999 V2000
  189.6060  177.6190  141.4810 C   0  0  1  0  0  3  0  0  0  0  0  0
  184.8560  179.1680  139.7460 C   0  0  0  0  0  3  0  0  0  0  0  0
  189.3520  176.2630  136.7990 O   0  0  0  0  0  0  0  0  0  0  0  0
  184.6900  177.7210  137.8090 C   0  0  0  0  0  0  0  0  0  0  0  0
  186.9880  178.2450  138.7610 C   0  0  1  0  0  3  0  0  0  0  0  0
  182.6830  178.5910  138.8500 C   0  0  0  0  0  0  0  0  0  0  0  0
  185.4810  178.3760  138.7710 C   0  0  0  0  0  0  0  0  0  0  0  0
  186.7220  177.1380  136.4830 C   0  0  0  0  0  2  0  0  0  0  0  0
  183.2960  177.8170  137.8610 C   0  0  0  0  0  3  0  0  0  0  0  0
  189.6110  177.1130  139.0020 C   0  0  0  0  0  0  0  0  0  0  0  0
  187.4820  177.8050  140.1460 C   0  0  0  0  0  2  0  0  0  0  0  0
  185.3070  176.9680  136.7680 N   0  0  0  0  0  2  0  0  0  0  0  0
  191.7150  177.2730  140.2190 C   0  0  0  0  0  3  0  0  0  0  0  0
  188.8310  176.8600  137.7820 C   0  0  0  0  0  0  0  0  0  0  0  0
  190.9370  176.9480  139.0160 C   0  0  0  0  0  3  0  0  0  0  0  0
  181.2990  178.6850  138.8980 O   0  0  0  0  0  1  0  0  0  0  0  0
  183.4630  179.2740  139.7860 C   0  0  0  0  0  3  0  0  0  0  0  0
  187.4680  177.3060  137.7280 N   0  0  0  0  0  0  0  0  0  0  0  0
  191.1090  177.6170  141.3560 C   0  0  0  0  0  3  0  0  0  0  0  0
  188.9330  177.6130  140.1720 N   0  0  0  0  0  0  0  0  0  0  0  0
  189.1250  176.4620  142.3710 C   0  0  0  0  0  2  0  0  0  0  0  0
  188.5780  176.9150  143.6890 C   0  0  0  0  0  0  0  0  0  0  0  0
  187.5570  177.8100  146.1370 C   0  0  0  0  0  0  0  0  0  0  0  0
  187.1950  176.9670  143.8950 C   0  0  0  0  0  3  0  0  0  0  0  0
  189.4490  177.3090  144.7110 C   0  0  0  0  0  3  0  0  0  0  0  0
  188.9390  177.7560  145.9330 C   0  0  0  0  0  3  0  0  0  0  0  0
  187.0630  178.2440  147.3210 F   0  0  0  0  0  0  0  0  0  0  0  0
  186.6840  177.4140  145.1180 C   0  0  0  0  0  3  0  0  0  0  0  0
  1 21  1  1  0  0  0
  2 17  1  0  0  0  0
  3 14  2  0  0  0  0
  4  9  2  0  0  0  0
  4  7  1  0  0  0  0
  5  7  1  0  0  0  0
  5 11  1  1  0  0  0
  6 16  1  0  0  0  0
  6 17  2  0  0  0  0
  7  2  2  0  0  0  0
  8 12  1  0  0  0  0
  8 18  1  0  0  0  0
  9  6  1  0  0  0  0
 10 15  2  0  0  0  0
 10 20  1  0  0  0  0
 11 20  1  0  0  0  0
 12  4  1  0  0  0  0
 13 19  2  0  0  0  0
 14 10  1  0  0  0  0
 15 13  1  0  0  0  0
 18 14  1  0  0  0  0
 18  5  1  0  0  0  0
 19  1  1  0  0  0  0
 20  1  1  0  0  0  0
 21 22  1  0  0  0  0
 22 24  2  0  0  0  0
 22 25  1  0  0  0  0
 23 27  1  0  0  0  0
 24 28  1  0  0  0  0
 25 26  2  0  0  0  0
 26 23  1  0  0  0  0
 28 23  2  0  0  0  0
M  END
>  <MODEL>
9

>  <REMARK>
 VINA RESULT:      -8.5      4.460      6.929
  Name = 
  2 active torsions:
  status: ('A' for Active; 'I' for Inactive)
    1  A    between atoms: C_1  and  C_2
    2  A    between atoms: C_2  and  C_3
                            x       y       z     vdW  Elec       q    Type
                         _______ _______ _______ _____ _____    ______ ____

>  <TORSDO>
F 2

$$$$
