=
 OpenBabel10272400213D

 31 34  0  0  1  0  0  0  0  0999 V2000
  193.1250  175.5810  135.6800 C   0  0  0  0  0  0  0  0  0  0  0  0
  190.1290  177.0720  137.4770 C   0  0  2  0  0  3  0  0  0  0  0  0
  188.9870  176.0890  137.2870 C   0  0  0  0  0  0  0  0  0  0  0  0
  188.6440  174.1830  135.7460 C   0  0  0  0  0  3  0  0  0  0  0  0
  191.5030  176.4940  137.2370 C   0  0  0  0  0  0  0  0  0  0  0  0
  194.0000  175.3210  136.7370 C   0  0  0  0  0  3  0  0  0  0  0  0
  189.2590  174.6370  137.0260 C   0  0  0  0  0  2  0  0  0  0  0  0
  190.6080  176.9580  139.9530 C   0  0  2  0  0  3  0  0  0  0  0  0
  193.5000  175.2470  134.3490 N   0  0  0  0  0  1  0  0  0  0  0  0
  187.5610  177.9340  138.0330 C   0  0  0  0  0  2  0  0  0  0  0  0
  187.3280  174.1890  135.5390 C   0  0  0  0  0  3  0  0  0  0  0  0
  192.0900  176.6710  139.7090 C   0  0  0  0  0  2  0  0  0  0  0  0
  190.0110  177.8160  138.8270 C   0  0  2  0  0  3  0  0  0  0  0  0
  191.8820  176.1660  135.9290 C   0  0  0  0  0  3  0  0  0  0  0  0
  186.3300  174.7150  136.4890 C   0  0  0  0  0  3  0  0  0  0  0  0
  192.3870  176.2290  138.3050 C   0  0  0  0  0  0  0  0  0  0  0  0
  193.6340  175.6520  138.0430 C   0  0  0  0  0  3  0  0  0  0  0  0
  188.5570  178.2200  139.1620 C   0  0  0  0  0  2  0  0  0  0  0  0
  187.7370  176.5340  137.5260 C   0  0  0  0  0  0  0  0  0  0  0  0
  186.5130  175.7220  137.3500 C   0  0  0  0  0  3  0  0  0  0  0  0
  190.3500  178.9160  143.7800 C   0  0  0  0  0  1  0  0  0  0  0  0
  187.6050  176.5700  144.3370 O   0  0  0  0  0  0  0  0  0  0  0  0
  188.8120  176.0970  142.0500 O   0  0  0  0  0  0  0  0  0  0  0  0
  189.5240  177.1140  142.2740 C   0  0  0  0  0  0  0  0  0  0  0  0
  188.4990  177.4280  144.5640 C   0  0  0  0  0  0  0  0  0  0  0  0
  189.4430  177.8000  143.5380 N   0  0  0  0  0  0  0  0  0  0  0  0
  190.4300  177.5830  141.2640 N   0  0  0  0  0  2  0  0  0  0  0  0
  188.5650  178.0470  145.9270 C   0  0  0  0  0  2  0  0  0  0  0  0
  188.8970  177.0020  146.9820 C   0  0  0  0  0  3  0  0  0  0  0  0
  188.2950  177.4230  148.3070 C   0  0  0  0  0  1  0  0  0  0  0  0
  190.4000  176.8690  147.1410 C   0  0  0  0  0  1  0  0  0  0  0  0
  1 14  2  0  0  0  0
  1  6  1  0  0  0  0
  2  5  1  1  0  0  0
  2 13  1  0  0  0  0
  3  2  1  0  0  0  0
  3 19  2  0  0  0  0
  4  7  1  0  0  0  0
  5 16  2  0  0  0  0
  6 17  2  0  0  0  0
  7  3  1  0  0  0  0
  8 27  1  1  0  0  0
  9  1  1  0  0  0  0
 10 18  1  0  0  0  0
 11  4  2  0  0  0  0
 11 15  1  0  0  0  0
 12  8  1  0  0  0  0
 13 18  1  1  0  0  0
 13  8  1  0  0  0  0
 14  5  1  0  0  0  0
 15 20  2  0  0  0  0
 16 12  1  0  0  0  0
 17 16  1  0  0  0  0
 19 10  1  0  0  0  0
 20 19  1  0  0  0  0
 22 25  2  0  0  0  0
 23 24  2  0  0  0  0
 24 26  1  0  0  0  0
 25 28  1  0  0  0  0
 26 21  1  0  0  0  0
 26 25  1  0  0  0  0
 27 24  1  0  0  0  0
 28 29  1  0  0  0  0
 29 31  1  0  0  0  0
 29 30  1  0  0  0  0
M  END
>  <MODEL>
1

>  <REMARK>
 VINA RESULT:      -7.7      0.000      0.000
  Name = 
  3 active torsions:
  status: ('A' for Active; 'I' for Inactive)
    1  A    between atoms: C_1  and  C_24
    2  A    between atoms: C_15  and  N_23
    3  A    between atoms: C_19  and  C_24
                            x       y       z     vdW  Elec       q    Type
                         _______ _______ _______ _____ _____    ______ ____

>  <TORSDO>
F 3

$$$$
=
 OpenBabel10272400213D

 31 34  0  0  1  0  0  0  0  0999 V2000
  185.9970  178.9340  146.2650 C   0  0  0  0  0  0  0  0  0  0  0  0
  189.2330  178.2980  144.3800 C   0  0  2  0  0  3  0  0  0  0  0  0
  190.0000  177.2660  145.1880 C   0  0  0  0  0  0  0  0  0  0  0  0
  189.7700  176.4330  147.5080 C   0  0  0  0  0  3  0  0  0  0  0  0
  187.7580  178.3720  144.6920 C   0  0  0  0  0  0  0  0  0  0  0  0
  185.0400  178.4420  145.3750 C   0  0  0  0  0  3  0  0  0  0  0  0
  189.2810  176.3190  146.1040 C   0  0  0  0  0  2  0  0  0  0  0  0
  188.6350  177.0690  142.2570 C   0  0  2  0  0  3  0  0  0  0  0  0
  185.5930  179.4680  147.5190 N   0  0  0  0  0  1  0  0  0  0  0  0
  191.9150  177.9290  143.8150 C   0  0  0  0  0  2  0  0  0  0  0  0
  191.0240  176.1490  147.8570 C   0  0  0  0  0  3  0  0  0  0  0  0
  187.1530  177.4110  142.4120 C   0  0  0  0  0  2  0  0  0  0  0  0
  189.5280  178.1600  142.8690 C   0  0  2  0  0  3  0  0  0  0  0  0
  187.3510  178.9000  145.9240 C   0  0  0  0  0  3  0  0  0  0  0  0
  192.0960  175.7790  146.9150 C   0  0  0  0  0  3  0  0  0  0  0  0
  186.7900  177.8720  143.7940 C   0  0  0  0  0  0  0  0  0  0  0  0
  185.4360  177.9210  144.1410 C   0  0  0  0  0  3  0  0  0  0  0  0
  191.0180  177.8730  142.5740 C   0  0  0  0  0  2  0  0  0  0  0  0
  191.3140  177.1220  144.9280 C   0  0  0  0  0  0  0  0  0  0  0  0
  192.2140  176.1950  145.6480 C   0  0  0  0  0  3  0  0  0  0  0  0
  189.7760  176.2170  138.1940 C   0  0  0  0  0  1  0  0  0  0  0  0
  187.7040  179.1270  137.4320 O   0  0  0  0  0  0  0  0  0  0  0  0
  187.9210  178.7660  140.0270 O   0  0  0  0  0  0  0  0  0  0  0  0
  188.5720  177.7150  139.7750 C   0  0  0  0  0  0  0  0  0  0  0  0
  188.5360  178.1920  137.2920 C   0  0  0  0  0  0  0  0  0  0  0  0
  188.9490  177.3950  138.4220 N   0  0  0  0  0  0  0  0  0  0  0  0
  188.9490  176.8380  140.8470 N   0  0  0  0  0  2  0  0  0  0  0  0
  189.0930  177.9310  135.9250 C   0  0  0  0  0  2  0  0  0  0  0  0
  188.3050  176.8380  135.2170 C   0  0  0  0  0  3  0  0  0  0  0  0
  189.2460  176.0310  134.3460 C   0  0  0  0  0  1  0  0  0  0  0  0
  187.2220  177.4460  134.3460 C   0  0  0  0  0  1  0  0  0  0  0  0
  1  9  1  0  0  0  0
  2  5  1  6  0  0  0
  2  3  1  0  0  0  0
  3  7  1  0  0  0  0
  4 11  2  0  0  0  0
  5 14  2  0  0  0  0
  6  1  2  0  0  0  0
  7  4  1  0  0  0  0
  8 27  1  6  0  0  0
  8 12  1  0  0  0  0
  8 13  1  0  0  0  0
 10 19  1  0  0  0  0
 12 16  1  0  0  0  0
 13 18  1  1  0  0  0
 13  2  1  0  0  0  0
 14  1  1  0  0  0  0
 15 11  1  0  0  0  0
 16 17  2  0  0  0  0
 16  5  1  0  0  0  0
 17  6  1  0  0  0  0
 18 10  1  0  0  0  0
 19  3  2  0  0  0  0
 19 20  1  0  0  0  0
 20 15  2  0  0  0  0
 21 26  1  0  0  0  0
 24 23  2  0  0  0  0
 24 27  1  0  0  0  0
 25 22  2  0  0  0  0
 25 26  1  0  0  0  0
 26 24  1  0  0  0  0
 28 25  1  0  0  0  0
 29 28  1  0  0  0  0
 30 29  1  0  0  0  0
 31 29  1  0  0  0  0
M  END
>  <MODEL>
2

>  <REMARK>
 VINA RESULT:      -7.1      2.752      9.382
  Name = 
  3 active torsions:
  status: ('A' for Active; 'I' for Inactive)
    1  A    between atoms: C_1  and  C_24
    2  A    between atoms: C_15  and  N_23
    3  A    between atoms: C_19  and  C_24
                            x       y       z     vdW  Elec       q    Type
                         _______ _______ _______ _____ _____    ______ ____

>  <TORSDO>
F 3

$$$$
=
 OpenBabel10272400213D

 31 34  0  0  1  0  0  0  0  0999 V2000
  193.2780  175.8950  135.5540 C   0  0  0  0  0  0  0  0  0  0  0  0
  189.6760  176.2390  136.7090 C   0  0  2  0  0  3  0  0  0  0  0  0
  189.0380  174.8730  136.5260 C   0  0  0  0  0  0  0  0  0  0  0  0
  189.7120  172.8560  135.2590 C   0  0  0  0  0  3  0  0  0  0  0  0
  191.1850  176.2300  136.7370 C   0  0  0  0  0  0  0  0  0  0  0  0
  193.9860  176.0970  136.7410 C   0  0  0  0  0  3  0  0  0  0  0  0
  189.8770  173.6290  136.5230 C   0  0  0  0  0  2  0  0  0  0  0  0
  189.7190  176.5450  139.2150 C   0  0  2  0  0  3  0  0  0  0  0  0
  193.9780  175.6180  134.3480 N   0  0  0  0  0  1  0  0  0  0  0  0
  186.9170  176.0650  136.7980 C   0  0  0  0  0  2  0  0  0  0  0  0
  188.5490  172.3240  134.8880 C   0  0  0  0  0  3  0  0  0  0  0  0
  191.2180  176.8450  139.2080 C   0  0  0  0  0  2  0  0  0  0  0  0
  189.0520  176.9940  137.9060 C   0  0  2  0  0  3  0  0  0  0  0  0
  191.8830  175.9630  135.5520 C   0  0  0  0  0  3  0  0  0  0  0  0
  187.2760  172.4970  135.6120 C   0  0  0  0  0  3  0  0  0  0  0  0
  191.9010  176.4320  137.9360 C   0  0  0  0  0  0  0  0  0  0  0  0
  193.2990  176.3730  137.9250 C   0  0  0  0  0  3  0  0  0  0  0  0
  187.5180  176.8200  137.9880 C   0  0  0  0  0  2  0  0  0  0  0  0
  187.6920  174.8080  136.5340 C   0  0  0  0  0  0  0  0  0  0  0  0
  186.9130  173.5680  136.3280 C   0  0  0  0  0  3  0  0  0  0  0  0
  187.7860  178.5830  142.4790 C   0  0  0  0  0  1  0  0  0  0  0  0
  189.8150  176.3500  144.5390 O   0  0  0  0  0  0  0  0  0  0  0  0
  190.3960  176.0840  141.9880 O   0  0  0  0  0  0  0  0  0  0  0  0
  189.4680  176.9020  141.7440 C   0  0  0  0  0  0  0  0  0  0  0  0
  189.0650  177.3070  144.2070 C   0  0  0  0  0  0  0  0  0  0  0  0
  188.7900  177.5820  142.8170 N   0  0  0  0  0  0  0  0  0  0  0  0
  189.0920  177.1640  140.3830 N   0  0  0  0  0  2  0  0  0  0  0  0
  188.4730  178.1570  145.2900 C   0  0  0  0  0  2  0  0  0  0  0  0
  187.5650  177.3330  146.1910 C   0  0  0  0  0  3  0  0  0  0  0  0
  186.1250  177.7410  145.9550 C   0  0  0  0  0  1  0  0  0  0  0  0
  187.9130  177.5660  147.6490 C   0  0  0  0  0  1  0  0  0  0  0  0
  1  6  1  0  0  0  0
  2  3  1  1  0  0  0
  2  5  1  0  0  0  0
  2 13  1  0  0  0  0
  3 19  2  0  0  0  0
  4  7  1  0  0  0  0
  5 16  2  0  0  0  0
  6 17  2  0  0  0  0
  7  3  1  0  0  0  0
  8 27  1  1  0  0  0
  9  1  1  0  0  0  0
 10 18  1  0  0  0  0
 11  4  2  0  0  0  0
 11 15  1  0  0  0  0
 12  8  1  0  0  0  0
 13 18  1  1  0  0  0
 13  8  1  0  0  0  0
 14  1  2  0  0  0  0
 14  5  1  0  0  0  0
 15 20  2  0  0  0  0
 16 12  1  0  0  0  0
 17 16  1  0  0  0  0
 19 10  1  0  0  0  0
 20 19  1  0  0  0  0
 21 26  1  0  0  0  0
 24 23  2  0  0  0  0
 24 26  1  0  0  0  0
 25 22  2  0  0  0  0
 25 28  1  0  0  0  0
 26 25  1  0  0  0  0
 27 24  1  0  0  0  0
 28 29  1  0  0  0  0
 29 31  1  0  0  0  0
 30 29  1  0  0  0  0
M  END
>  <MODEL>
3

>  <REMARK>
 VINA RESULT:      -7.0      1.257      1.688
  Name = 
  3 active torsions:
  status: ('A' for Active; 'I' for Inactive)
    1  A    between atoms: C_1  and  C_24
    2  A    between atoms: C_15  and  N_23
    3  A    between atoms: C_19  and  C_24
                            x       y       z     vdW  Elec       q    Type
                         _______ _______ _______ _____ _____    ______ ____

>  <TORSDO>
F 3

$$$$
=
 OpenBabel10272400213D

 31 34  0  0  1  0  0  0  0  0999 V2000
  185.8660  178.7850  139.6450 C   0  0  0  0  0  0  0  0  0  0  0  0
  189.3950  178.1620  140.9050 C   0  0  2  0  0  3  0  0  0  0  0  0
  189.2510  177.4760  142.2520 C   0  0  0  0  0  0  0  0  0  0  0  0
  187.3480  177.2140  143.8140 C   0  0  0  0  0  3  0  0  0  0  0  0
  188.1630  178.1040  140.0350 C   0  0  0  0  0  0  0  0  0  0  0  0
  185.8090  177.9610  138.5190 C   0  0  0  0  0  3  0  0  0  0  0  0
  188.0160  176.6930  142.5870 C   0  0  0  0  0  2  0  0  0  0  0  0
  190.4120  176.3790  139.4350 C   0  0  2  0  0  3  0  0  0  0  0  0
  184.7290  179.5480  140.0260 N   0  0  0  0  0  1  0  0  0  0  0  0
  191.6140  178.0420  142.5520 C   0  0  0  0  0  2  0  0  0  0  0  0
  187.9330  177.2010  145.0110 C   0  0  0  0  0  3  0  0  0  0  0  0
  189.3110  176.5400  138.3860 C   0  0  0  0  0  2  0  0  0  0  0  0
  190.6770  177.7000  140.1740 C   0  0  2  0  0  3  0  0  0  0  0  0
  187.0390  178.8570  140.4000 C   0  0  0  0  0  3  0  0  0  0  0  0
  189.3180  176.7640  145.2650 C   0  0  0  0  0  3  0  0  0  0  0  0
  188.1040  177.2700  138.8980 C   0  0  0  0  0  0  0  0  0  0  0  0
  186.9280  177.2140  138.1430 C   0  0  0  0  0  3  0  0  0  0  0  0
  191.8890  177.5590  141.1240 C   0  0  0  0  0  2  0  0  0  0  0  0
  190.3300  177.4580  143.0600 C   0  0  0  0  0  0  0  0  0  0  0  0
  190.3490  176.8690  144.4180 C   0  0  0  0  0  3  0  0  0  0  0  0
  194.1130  175.0930  137.6500 C   0  0  0  0  0  1  0  0  0  0  0  0
  192.0230  172.4830  136.1770 O   0  0  0  0  0  0  0  0  0  0  0  0
  190.5750  174.2200  137.5190 O   0  0  0  0  0  0  0  0  0  0  0  0
  191.6530  174.7800  137.8580 C   0  0  0  0  0  0  0  0  0  0  0  0
  193.0130  173.2320  136.3930 C   0  0  0  0  0  0  0  0  0  0  0  0
  192.9080  174.3560  137.2920 N   0  0  0  0  0  0  0  0  0  0  0  0
  191.6260  175.8560  138.8080 N   0  0  0  0  0  2  0  0  0  0  0  0
  194.3010  172.9320  135.6870 C   0  0  0  0  0  2  0  0  0  0  0  0
  194.7910  171.5310  136.0230 C   0  0  0  0  0  3  0  0  0  0  0  0
  195.3390  171.5210  137.4350 C   0  0  0  0  0  1  0  0  0  0  0  0
  195.8870  171.1090  135.0630 C   0  0  0  0  0  1  0  0  0  0  0  0
  1  9  1  0  0  0  0
  1 14  1  0  0  0  0
  2  5  1  6  0  0  0
  2  3  1  0  0  0  0
  3  7  1  0  0  0  0
  3 19  2  0  0  0  0
  4 11  2  0  0  0  0
  5 14  2  0  0  0  0
  6  1  2  0  0  0  0
  7  4  1  0  0  0  0
  8 27  1  6  0  0  0
  8 13  1  0  0  0  0
 10 19  1  0  0  0  0
 11 15  1  0  0  0  0
 12 16  1  0  0  0  0
 12  8  1  0  0  0  0
 13  2  1  0  0  0  0
 13 18  1  1  0  0  0
 16  5  1  0  0  0  0
 17  6  1  0  0  0  0
 17 16  2  0  0  0  0
 18 10  1  0  0  0  0
 19 20  1  0  0  0  0
 20 15  2  0  0  0  0
 22 25  2  0  0  0  0
 23 24  2  0  0  0  0
 24 27  1  0  0  0  0
 25 26  1  0  0  0  0
 26 21  1  0  0  0  0
 26 24  1  0  0  0  0
 28 29  1  0  0  0  0
 28 25  1  0  0  0  0
 29 30  1  0  0  0  0
 31 29  1  0  0  0  0
M  END
>  <MODEL>
4

>  <REMARK>
 VINA RESULT:      -6.8      2.876      8.227
  Name = 
  3 active torsions:
  status: ('A' for Active; 'I' for Inactive)
    1  A    between atoms: C_1  and  C_24
    2  A    between atoms: C_15  and  N_23
    3  A    between atoms: C_19  and  C_24
                            x       y       z     vdW  Elec       q    Type
                         _______ _______ _______ _____ _____    ______ ____

>  <TORSDO>
F 3

$$$$
=
 OpenBabel10272400213D

 31 34  0  0  1  0  0  0  0  0999 V2000
  185.0960  179.2180  145.8660 C   0  0  0  0  0  0  0  0  0  0  0  0
  186.4240  178.8750  142.3240 C   0  0  2  0  0  3  0  0  0  0  0  0
  187.4570  177.7630  142.3620 C   0  0  0  0  0  0  0  0  0  0  0  0
  188.6570  176.6430  144.2150 C   0  0  0  0  0  3  0  0  0  0  0  0
  185.4670  178.8850  143.4900 C   0  0  0  0  0  0  0  0  0  0  0  0
  183.7650  178.8250  145.7170 C   0  0  0  0  0  3  0  0  0  0  0  0
  187.3990  176.6980  143.4170 C   0  0  0  0  0  2  0  0  0  0  0  0
  184.5630  177.9120  140.9150 C   0  0  2  0  0  3  0  0  0  0  0  0
  185.5900  179.5840  147.1480 N   0  0  0  0  0  1  0  0  0  0  0  0
  188.1520  178.6230  140.1780 C   0  0  0  0  0  2  0  0  0  0  0  0
  189.8370  176.3380  143.6760 C   0  0  0  0  0  3  0  0  0  0  0  0
  183.5210  178.2080  141.9940 C   0  0  0  0  0  2  0  0  0  0  0  0
  185.7120  178.9320  140.9520 C   0  0  2  0  0  3  0  0  0  0  0  0
  185.9440  179.2490  144.7560 C   0  0  0  0  0  3  0  0  0  0  0  0
  190.0700  176.1060  142.2390 C   0  0  0  0  0  3  0  0  0  0  0  0
  184.1210  178.4870  143.3410 C   0  0  0  0  0  0  0  0  0  0  0  0
  183.2780  178.4700  144.4570 C   0  0  0  0  0  3  0  0  0  0  0  0
  186.6780  178.7090  139.7670 C   0  0  0  0  0  2  0  0  0  0  0  0
  188.3170  177.6750  141.3280 C   0  0  0  0  0  0  0  0  0  0  0  0
  189.4060  176.6790  141.2270 C   0  0  0  0  0  3  0  0  0  0  0  0
  182.7210  178.0590  137.0260 C   0  0  0  0  0  1  0  0  0  0  0  0
  181.4230  174.7760  137.9670 O   0  0  0  0  0  0  0  0  0  0  0  0
  182.7350  175.8880  139.9560 O   0  0  0  0  0  0  0  0  0  0  0  0
  183.0180  176.8350  139.1730 C   0  0  0  0  0  0  0  0  0  0  0  0
  181.5770  175.8580  137.3390 C   0  0  0  0  0  0  0  0  0  0  0  0
  182.4320  176.8980  137.8590 N   0  0  0  0  0  0  0  0  0  0  0  0
  183.9220  177.8640  139.6010 N   0  0  0  0  0  2  0  0  0  0  0  0
  180.8460  176.0410  136.0440 C   0  0  0  0  0  2  0  0  0  0  0  0
  181.4270  175.1440  134.9600 C   0  0  0  0  0  3  0  0  0  0  0  0
  180.6570  173.8410  134.9260 C   0  0  0  0  0  1  0  0  0  0  0  0
  182.8880  174.8500  135.2440 C   0  0  0  0  0  1  0  0  0  0  0  0
  1  9  1  0  0  0  0
  2  3  1  6  0  0  0
  2  5  1  0  0  0  0
  3  7  1  0  0  0  0
  5 14  1  0  0  0  0
  6  1  1  0  0  0  0
  7  4  1  0  0  0  0
  8 27  1  6  0  0  0
  8 13  1  0  0  0  0
  8 12  1  0  0  0  0
 10 19  1  0  0  0  0
 11  4  2  0  0  0  0
 12 16  1  0  0  0  0
 13 18  1  6  0  0  0
 13  2  1  0  0  0  0
 14  1  2  0  0  0  0
 15 11  1  0  0  0  0
 16  5  2  0  0  0  0
 16 17  1  0  0  0  0
 17  6  2  0  0  0  0
 18 10  1  0  0  0  0
 19  3  2  0  0  0  0
 20 19  1  0  0  0  0
 20 15  2  0  0  0  0
 21 26  1  0  0  0  0
 24 27  1  0  0  0  0
 24 23  2  0  0  0  0
 25 26  1  0  0  0  0
 25 22  2  0  0  0  0
 26 24  1  0  0  0  0
 28 25  1  0  0  0  0
 29 31  1  0  0  0  0
 29 28  1  0  0  0  0
 30 29  1  0  0  0  0
M  END
>  <MODEL>
5

>  <REMARK>
 VINA RESULT:      -6.5      4.741      9.719
  Name = 
  3 active torsions:
  status: ('A' for Active; 'I' for Inactive)
    1  A    between atoms: C_1  and  C_24
    2  A    between atoms: C_15  and  N_23
    3  A    between atoms: C_19  and  C_24
                            x       y       z     vdW  Elec       q    Type
                         _______ _______ _______ _____ _____    ______ ____

>  <TORSDO>
F 3

$$$$
=
 OpenBabel10272400213D

 31 34  0  0  1  0  0  0  0  0999 V2000
  185.4180  178.5980  145.8560 C   0  0  0  0  0  0  0  0  0  0  0  0
  188.8450  178.6740  144.2200 C   0  0  2  0  0  3  0  0  0  0  0  0
  189.6830  177.6310  144.9380 C   0  0  0  0  0  0  0  0  0  0  0  0
  189.3940  176.4210  147.0780 C   0  0  0  0  0  3  0  0  0  0  0  0
  187.3540  178.5130  144.3950 C   0  0  0  0  0  0  0  0  0  0  0  0
  184.6080  178.1360  144.8160 C   0  0  0  0  0  3  0  0  0  0  0  0
  189.0330  176.4700  145.6320 C   0  0  0  0  0  2  0  0  0  0  0  0
  188.5850  177.7300  141.8920 C   0  0  2  0  0  3  0  0  0  0  0  0
  184.8500  178.8730  147.1300 N   0  0  0  0  0  1  0  0  0  0  0  0
  191.5880  178.7350  143.8670 C   0  0  0  0  0  2  0  0  0  0  0  0
  190.6440  176.2440  147.5010 C   0  0  0  0  0  3  0  0  0  0  0  0
  187.0620  177.8560  141.9520 C   0  0  0  0  0  2  0  0  0  0  0  0
  189.2700  178.8140  142.7390 C   0  0  2  0  0  3  0  0  0  0  0  0
  186.7860  178.7870  145.6460 C   0  0  0  0  0  3  0  0  0  0  0  0
  191.8260  176.1640  146.6230 C   0  0  0  0  0  3  0  0  0  0  0  0
  186.5350  178.0450  143.3450 C   0  0  0  0  0  0  0  0  0  0  0  0
  185.1650  177.8700  143.5630 C   0  0  0  0  0  3  0  0  0  0  0  0
  190.8040  178.7640  142.5510 C   0  0  0  0  0  2  0  0  0  0  0  0
  191.0200  177.6950  144.7870 C   0  0  0  0  0  0  0  0  0  0  0  0
  191.9820  176.7850  145.4480 C   0  0  0  0  0  3  0  0  0  0  0  0
  189.6630  177.9790  137.7310 C   0  0  0  0  0  1  0  0  0  0  0  0
  192.0440  175.3520  138.6110 O   0  0  0  0  0  0  0  0  0  0  0  0
  190.4820  175.9410  140.6420 O   0  0  0  0  0  0  0  0  0  0  0  0
  189.9790  176.8500  139.9270 C   0  0  0  0  0  0  0  0  0  0  0  0
  191.3380  176.1320  137.9180 C   0  0  0  0  0  0  0  0  0  0  0  0
  190.3380  176.9690  138.5360 N   0  0  0  0  0  0  0  0  0  0  0  0
  189.0340  177.7650  140.5000 N   0  0  0  0  0  2  0  0  0  0  0  0
  191.5550  176.1630  136.4360 C   0  0  0  0  0  2  0  0  0  0  0  0
  192.5970  175.1370  136.0170 C   0  0  0  0  0  3  0  0  0  0  0  0
  193.6260  175.8040  135.1280 C   0  0  0  0  0  1  0  0  0  0  0  0
  191.9440  174.0000  135.2540 C   0  0  0  0  0  1  0  0  0  0  0  0
  1  9  1  0  0  0  0
  2  5  1  6  0  0  0
  2  3  1  0  0  0  0
  3  7  1  0  0  0  0
  4 11  2  0  0  0  0
  5 14  2  0  0  0  0
  6  1  2  0  0  0  0
  7  4  1  0  0  0  0
  8 27  1  6  0  0  0
  8 12  1  0  0  0  0
  8 13  1  0  0  0  0
 10 19  1  0  0  0  0
 12 16  1  0  0  0  0
 13 18  1  1  0  0  0
 13  2  1  0  0  0  0
 14  1  1  0  0  0  0
 15 11  1  0  0  0  0
 16 17  2  0  0  0  0
 16  5  1  0  0  0  0
 17  6  1  0  0  0  0
 18 10  1  0  0  0  0
 19  3  2  0  0  0  0
 19 20  1  0  0  0  0
 20 15  2  0  0  0  0
 21 26  1  0  0  0  0
 24 27  1  0  0  0  0
 24 23  2  0  0  0  0
 25 26  1  0  0  0  0
 25 22  2  0  0  0  0
 26 24  1  0  0  0  0
 28 25  1  0  0  0  0
 29 28  1  0  0  0  0
 30 29  1  0  0  0  0
 31 29  1  0  0  0  0
M  END
>  <MODEL>
6

>  <REMARK>
 VINA RESULT:      -6.3      2.511      9.226
  Name = 
  3 active torsions:
  status: ('A' for Active; 'I' for Inactive)
    1  A    between atoms: C_1  and  C_24
    2  A    between atoms: C_15  and  N_23
    3  A    between atoms: C_19  and  C_24
                            x       y       z     vdW  Elec       q    Type
                         _______ _______ _______ _____ _____    ______ ____

>  <TORSDO>
F 3

$$$$
=
 OpenBabel10272400213D

 31 34  0  0  1  0  0  0  0  0999 V2000
  189.6350  177.2700  141.6720 C   0  0  0  0  0  0  0  0  0  0  0  0
  190.4120  175.9840  138.1830 C   0  0  2  0  0  3  0  0  0  0  0  0
  189.6210  176.8540  137.2220 C   0  0  0  0  0  0  0  0  0  0  0  0
  187.7340  178.4240  137.5370 C   0  0  0  0  0  3  0  0  0  0  0  0
  190.6050  176.5780  139.5570 C   0  0  0  0  0  0  0  0  0  0  0  0
  190.8740  177.7650  142.0830 C   0  0  0  0  0  3  0  0  0  0  0  0
  189.2120  178.2460  137.6070 C   0  0  0  0  0  2  0  0  0  0  0  0
  192.8150  176.5760  137.6840 C   0  0  2  0  0  3  0  0  0  0  0  0
  188.5080  177.3720  142.5320 N   0  0  0  0  0  1  0  0  0  0  0  0
  190.1070  175.1080  135.5770 C   0  0  0  0  0  2  0  0  0  0  0  0
  187.0490  178.3130  136.4000 C   0  0  0  0  0  3  0  0  0  0  0  0
  193.1000  176.8890  139.1530 C   0  0  0  0  0  2  0  0  0  0  0  0
  191.7320  175.4950  137.5420 C   0  0  2  0  0  3  0  0  0  0  0  0
  189.5010  176.6780  140.4140 C   0  0  0  0  0  3  0  0  0  0  0  0
  187.6320  177.9200  135.1030 C   0  0  0  0  0  3  0  0  0  0  0  0
  191.8570  177.0800  139.9730 C   0  0  0  0  0  0  0  0  0  0  0  0
  191.9830  177.6610  141.2390 C   0  0  0  0  0  3  0  0  0  0  0  0
  191.5610  175.0860  136.0610 C   0  0  0  0  0  2  0  0  0  0  0  0
  189.4490  176.3980  135.9660 C   0  0  0  0  0  0  0  0  0  0  0  0
  188.6730  177.0990  134.9200 C   0  0  0  0  0  3  0  0  0  0  0  0
  196.3700  175.6050  135.4560 C   0  0  0  0  0  1  0  0  0  0  0  0
  196.7870  173.0410  138.0250 O   0  0  0  0  0  0  0  0  0  0  0  0
  194.5060  174.3160  138.3130 O   0  0  0  0  0  0  0  0  0  0  0  0
  194.8580  175.0580  137.3570 C   0  0  0  0  0  0  0  0  0  0  0  0
  196.9460  173.6890  136.9560 C   0  0  0  0  0  0  0  0  0  0  0  0
  196.0540  174.7680  136.6070 N   0  0  0  0  0  0  0  0  0  0  0  0
  194.0540  176.1940  137.0050 N   0  0  0  0  0  2  0  0  0  0  0  0
  198.0800  173.3080  136.0530 C   0  0  0  0  0  2  0  0  0  0  0  0
  199.4050  173.8170  136.6000 C   0  0  0  0  0  3  0  0  0  0  0  0
  200.1740  174.5000  135.4880 C   0  0  0  0  0  1  0  0  0  0  0  0
  200.2320  172.6660  137.1400 C   0  0  0  0  0  1  0  0  0  0  0  0
  1  6  1  0  0  0  0
  1  9  1  0  0  0  0
  2  3  1  6  0  0  0
  2  5  1  0  0  0  0
  3  7  1  0  0  0  0
  4  7  1  0  0  0  0
  5 16  2  0  0  0  0
  5 14  1  0  0  0  0
  8 27  1  1  0  0  0
  8 12  1  0  0  0  0
 10 19  1  0  0  0  0
 10 18  1  0  0  0  0
 11  4  2  0  0  0  0
 12 16  1  0  0  0  0
 13 18  1  6  0  0  0
 13  8  1  0  0  0  0
 13  2  1  0  0  0  0
 14  1  2  0  0  0  0
 15 11  1  0  0  0  0
 16 17  1  0  0  0  0
 17  6  2  0  0  0  0
 19  3  2  0  0  0  0
 20 15  2  0  0  0  0
 20 19  1  0  0  0  0
 21 26  1  0  0  0  0
 24 23  2  0  0  0  0
 25 22  2  0  0  0  0
 26 25  1  0  0  0  0
 26 24  1  0  0  0  0
 27 24  1  0  0  0  0
 28 29  1  0  0  0  0
 28 25  1  0  0  0  0
 29 31  1  0  0  0  0
 30 29  1  0  0  0  0
M  END
>  <MODEL>
7

>  <REMARK>
 VINA RESULT:      -6.1      3.408      8.046
  Name = 
  3 active torsions:
  status: ('A' for Active; 'I' for Inactive)
    1  A    between atoms: C_1  and  C_24
    2  A    between atoms: C_15  and  N_23
    3  A    between atoms: C_19  and  C_24
                            x       y       z     vdW  Elec       q    Type
                         _______ _______ _______ _____ _____    ______ ____

>  <TORSDO>
F 3

$$$$
=
 OpenBabel10272400213D

 31 34  0  0  1  0  0  0  0  0999 V2000
  190.0710  175.8900  142.7260 C   0  0  0  0  0  0  0  0  0  0  0  0
  186.5830  177.2480  143.3680 C   0  0  2  0  0  3  0  0  0  0  0  0
  186.6770  178.0860  144.6310 C   0  0  0  0  0  0  0  0  0  0  0  0
  188.3860  178.2560  146.4150 C   0  0  0  0  0  3  0  0  0  0  0  0
  187.9040  176.9820  142.6890 C   0  0  0  0  0  0  0  0  0  0  0  0
  190.4160  176.5250  141.5320 C   0  0  0  0  0  3  0  0  0  0  0  0
  187.9820  178.6980  145.0490 C   0  0  0  0  0  2  0  0  0  0  0  0
  186.0950  178.9450  141.5630 C   0  0  2  0  0  3  0  0  0  0  0  0
  190.9960  175.0140  143.3580 N   0  0  0  0  0  1  0  0  0  0  0  0
  184.2330  177.9590  144.6430 C   0  0  0  0  0  2  0  0  0  0  0  0
  187.6680  178.5320  147.5020 C   0  0  0  0  0  3  0  0  0  0  0  0
  187.2720  178.4610  140.7150 C   0  0  0  0  0  2  0  0  0  0  0  0
  185.5060  177.8030  142.4060 C   0  0  2  0  0  3  0  0  0  0  0  0
  188.8190  176.1160  143.3020 C   0  0  0  0  0  3  0  0  0  0  0  0
  186.3630  179.2200  147.4950 C   0  0  0  0  0  3  0  0  0  0  0  0
  188.2540  177.6250  141.4820 C   0  0  0  0  0  0  0  0  0  0  0  0
  189.5060  177.3820  140.9080 C   0  0  0  0  0  3  0  0  0  0  0  0
  184.2300  178.2710  143.1430 C   0  0  0  0  0  2  0  0  0  0  0  0
  185.5280  178.3930  145.2630 C   0  0  0  0  0  0  0  0  0  0  0  0
  185.4440  179.1630  146.5230 C   0  0  0  0  0  3  0  0  0  0  0  0
  183.1190  180.9950  139.2220 C   0  0  0  0  0  1  0  0  0  0  0  0
  182.5890  177.6930  137.7520 O   0  0  0  0  0  0  0  0  0  0  0  0
  184.3160  177.5880  139.7320 O   0  0  0  0  0  0  0  0  0  0  0  0
  184.2210  178.8430  139.8130 C   0  0  0  0  0  0  0  0  0  0  0  0
  182.4060  178.9030  138.0540 C   0  0  0  0  0  0  0  0  0  0  0  0
  183.2480  179.5560  139.0260 N   0  0  0  0  0  0  0  0  0  0  0  0
  185.0840  179.5640  140.7060 N   0  0  0  0  0  2  0  0  0  0  0  0
  181.2880  179.6430  137.3850 C   0  0  0  0  0  2  0  0  0  0  0  0
  181.1100  179.1770  135.9480 C   0  0  0  0  0  3  0  0  0  0  0  0
  180.7350  180.3610  135.0820 C   0  0  0  0  0  1  0  0  0  0  0  0
  180.0120  178.1330  135.8630 C   0  0  0  0  0  1  0  0  0  0  0  0
  1 14  1  0  0  0  0
  1  9  1  0  0  0  0
  2  5  1  6  0  0  0
  2  3  1  0  0  0  0
  3  7  1  0  0  0  0
  3 19  2  0  0  0  0
  4 11  2  0  0  0  0
  5 14  2  0  0  0  0
  6  1  2  0  0  0  0
  7  4  1  0  0  0  0
  8 27  1  6  0  0  0
  8 13  1  0  0  0  0
 10 19  1  0  0  0  0
 12 16  1  0  0  0  0
 12  8  1  0  0  0  0
 13 18  1  1  0  0  0
 13  2  1  0  0  0  0
 15 11  1  0  0  0  0
 16  5  1  0  0  0  0
 17 16  2  0  0  0  0
 17  6  1  0  0  0  0
 18 10  1  0  0  0  0
 19 20  1  0  0  0  0
 20 15  2  0  0  0  0
 22 25  2  0  0  0  0
 23 24  2  0  0  0  0
 24 27  1  0  0  0  0
 25 26  1  0  0  0  0
 26 21  1  0  0  0  0
 26 24  1  0  0  0  0
 28 25  1  0  0  0  0
 29 28  1  0  0  0  0
 30 29  1  0  0  0  0
 31 29  1  0  0  0  0
M  END
>  <MODEL>
8

>  <REMARK>
 VINA RESULT:      -6.0      4.335      8.978
  Name = 
  3 active torsions:
  status: ('A' for Active; 'I' for Inactive)
    1  A    between atoms: C_1  and  C_24
    2  A    between atoms: C_15  and  N_23
    3  A    between atoms: C_19  and  C_24
                            x       y       z     vdW  Elec       q    Type
                         _______ _______ _______ _____ _____    ______ ____

>  <TORSDO>
F 3

$$$$
=
 OpenBabel10272400213D

 31 34  0  0  1  0  0  0  0  0999 V2000
  192.4550  177.1740  139.8690 C   0  0  0  0  0  0  0  0  0  0  0  0
  189.6580  177.6370  137.3410 C   0  0  2  0  0  3  0  0  0  0  0  0
  189.5010  176.3030  136.6300 C   0  0  0  0  0  0  0  0  0  0  0  0
  190.9390  174.2930  136.4860 C   0  0  0  0  0  3  0  0  0  0  0  0
  190.3860  177.5640  138.6610 C   0  0  0  0  0  0  0  0  0  0  0  0
  191.7780  177.3150  141.0820 C   0  0  0  0  0  3  0  0  0  0  0  0
  189.9230  175.0260  137.2950 C   0  0  0  0  0  2  0  0  0  0  0  0
  187.5060  177.8770  138.6390 C   0  0  2  0  0  3  0  0  0  0  0  0
  193.8500  176.8990  139.8620 N   0  0  0  0  0  1  0  0  0  0  0  0
  188.2080  177.5750  134.9860 C   0  0  0  0  0  2  0  0  0  0  0  0
  190.6820  173.8200  135.2680 C   0  0  0  0  0  3  0  0  0  0  0  0
  188.2590  178.1140  139.9480 C   0  0  0  0  0  2  0  0  0  0  0  0
  188.3090  178.3860  137.4320 C   0  0  2  0  0  3  0  0  0  0  0  0
  191.7620  177.2990  138.6630 C   0  0  0  0  0  3  0  0  0  0  0  0
  189.4200  174.0260  134.5340 C   0  0  0  0  0  3  0  0  0  0  0  0
  189.7020  177.7060  139.8870 C   0  0  0  0  0  0  0  0  0  0  0  0
  190.4080  177.5890  141.0900 C   0  0  0  0  0  3  0  0  0  0  0  0
  187.4740  178.2730  136.1350 C   0  0  0  0  0  2  0  0  0  0  0  0
  188.8240  176.2940  135.4650 C   0  0  0  0  0  0  0  0  0  0  0  0
  188.6160  175.0930  134.6280 C   0  0  0  0  0  3  0  0  0  0  0  0
  183.7130  179.8760  139.0310 C   0  0  0  0  0  1  0  0  0  0  0  0
  182.4130  176.8440  137.4610 O   0  0  0  0  0  0  0  0  0  0  0  0
  184.9860  176.6310  137.9590 O   0  0  0  0  0  0  0  0  0  0  0  0
  184.9560  177.8270  138.3590 C   0  0  0  0  0  0  0  0  0  0  0  0
  182.4460  177.9440  138.0740 C   0  0  0  0  0  0  0  0  0  0  0  0
  183.7030  178.5270  138.4800 N   0  0  0  0  0  0  0  0  0  0  0  0
  186.1800  178.4910  138.7070 N   0  0  0  0  0  2  0  0  0  0  0  0
  181.1490  178.6290  138.3790 C   0  0  0  0  0  2  0  0  0  0  0  0
  180.8020  178.5030  139.8550 C   0  0  0  0  0  3  0  0  0  0  0  0
  179.9970  177.2390  140.0720 C   0  0  0  0  0  1  0  0  0  0  0  0
  179.9830  179.6960  140.3100 C   0  0  0  0  0  1  0  0  0  0  0  0
  1  6  1  0  0  0  0
  2  3  1  1  0  0  0
  2 13  1  0  0  0  0
  2  5  1  0  0  0  0
  3  7  1  0  0  0  0
  4  7  1  0  0  0  0
  5 14  1  0  0  0  0
  5 16  2  0  0  0  0
  6 17  2  0  0  0  0
  8 27  1  1  0  0  0
  8 12  1  0  0  0  0
  9  1  1  0  0  0  0
 10 19  1  0  0  0  0
 10 18  1  0  0  0  0
 11  4  2  0  0  0  0
 13 18  1  6  0  0  0
 13  8  1  0  0  0  0
 14  1  2  0  0  0  0
 15 20  2  0  0  0  0
 15 11  1  0  0  0  0
 16 12  1  0  0  0  0
 16 17  1  0  0  0  0
 19  3  2  0  0  0  0
 20 19  1  0  0  0  0
 22 25  2  0  0  0  0
 23 24  2  0  0  0  0
 24 26  1  0  0  0  0
 24 27  1  0  0  0  0
 25 28  1  0  0  0  0
 25 26  1  0  0  0  0
 26 21  1  0  0  0  0
 28 29  1  0  0  0  0
 29 30  1  0  0  0  0
 29 31  1  0  0  0  0
M  END
>  <MODEL>
9

>  <REMARK>
 VINA RESULT:      -5.8      3.925      6.063
  Name = 
  3 active torsions:
  status: ('A' for Active; 'I' for Inactive)
    1  A    between atoms: C_1  and  C_24
    2  A    between atoms: C_15  and  N_23
    3  A    between atoms: C_19  and  C_24
                            x       y       z     vdW  Elec       q    Type
                         _______ _______ _______ _____ _____    ______ ____

>  <TORSDO>
F 3

$$$$
