=
 OpenBabel10272400583D

 27 31  0  0  1  0  0  0  0  0999 V2000
  187.4150  176.9930  143.1970 C   0  0  0  0  0  2  0  0  0  0  0  0
  188.2220  177.9440  141.0990 N   0  0  0  0  0  0  0  0  0  0  0  0
  190.4220  177.8060  142.3760 N   0  0  0  0  0  2  0  0  0  0  0  0
  190.2490  175.8250  137.5740 C   0  0  0  0  0  3  0  0  0  0  0  0
  192.5250  175.2870  137.8430 O   0  0  0  0  0  1  0  0  0  0  0  0
  187.8050  177.4950  139.8620 O   0  0  0  0  0  0  0  0  0  0  0  0
  191.3950  176.5080  139.7180 C   0  0  0  0  0  0  0  0  0  0  0  0
  192.0560  178.3190  144.9400 N   0  0  0  0  0  0  0  0  0  0  0  0
  192.4260  177.6230  139.7390 C   0  0  0  0  0  1  0  0  0  0  0  0
  191.5460  177.0410  145.3720 C   0  0  0  0  0  3  0  0  0  0  0  0
  190.0450  177.0530  140.0890 C   0  0  0  0  0  0  0  0  0  0  0  0
  187.3320  178.1650  142.2300 C   0  0  1  0  0  3  0  0  0  0  0  0
  191.3630  175.8660  138.3370 C   0  0  0  0  0  0  0  0  0  0  0  0
  188.9530  176.3880  138.0210 C   0  0  0  0  0  3  0  0  0  0  0  0
  187.8810  177.5000  144.5460 C   0  0  0  0  0  2  0  0  0  0  0  0
  189.6170  177.6280  141.2060 C   0  0  0  0  0  0  0  0  0  0  0  0
  191.3860  179.0960  144.1310 C   0  0  0  0  0  3  0  0  0  0  0  0
  188.9020  176.9550  139.2170 C   0  0  1  0  0  3  0  0  0  0  0  0
  190.2530  176.7420  145.2050 C   0  0  0  0  0  3  0  0  0  0  0  0
  189.3790  177.8100  144.6250 C   0  0  1  0  0  3  0  0  0  0  0  0
  190.0840  178.6340  143.5310 C   0  0  2  0  0  3  0  0  0  0  0  0
  183.2810  178.9980  141.0520 C   0  0  0  0  0  3  0  0  0  0  0  0
  185.9250  178.4470  141.7970 C   0  0  0  0  0  0  0  0  0  0  0  0
  184.8830  178.2600  142.7120 C   0  0  0  0  0  3  0  0  0  0  0  0
  183.5630  178.5330  142.3400 C   0  0  0  0  0  3  0  0  0  0  0  0
  184.3180  179.1930  140.1360 C   0  0  0  0  0  3  0  0  0  0  0  0
  185.6380  178.9200  140.5070 C   0  0  0  0  0  3  0  0  0  0  0  0
  1 15  1  0  0  0  0
  2 16  1  0  0  0  0
  2 12  1  0  0  0  0
  3 21  1  0  0  0  0
  4 14  2  0  0  0  0
  4 13  1  0  0  0  0
  5 13  1  0  0  0  0
  6  2  1  0  0  0  0
  7  9  1  0  0  0  0
  7 11  1  0  0  0  0
  8 10  1  0  0  0  0
 11 16  2  0  0  0  0
 12 23  1  6  0  0  0
 12  1  1  0  0  0  0
 13  7  2  0  0  0  0
 16  3  1  0  0  0  0
 17  8  2  0  0  0  0
 18 14  1  1  0  0  0
 18  6  1  0  0  0  0
 18 11  1  0  0  0  0
 19 10  2  0  0  0  0
 20 15  1  6  0  0  0
 20 19  1  0  0  0  0
 21 17  1  1  0  0  0
 21 20  1  0  0  0  0
 22 25  1  0  0  0  0
 23 24  1  0  0  0  0
 25 24  2  0  0  0  0
 26 27  1  0  0  0  0
 26 22  2  0  0  0  0
 27 23  2  0  0  0  0
M  END
>  <MODEL>
1

>  <REMARK>
 VINA RESULT:      -8.6      0.000      0.000
  Name = 
  1 active torsions:
  status: ('A' for Active; 'I' for Inactive)
    1  A    between atoms: C_9  and  C_15
                            x       y       z     vdW  Elec       q    Type
                         _______ _______ _______ _____ _____    ______ ____

>  <TORSDO>
F 1

$$$$
=
 OpenBabel10272400583D

 27 31  0  0  1  0  0  0  0  0999 V2000
  189.4020  176.5270  140.9730 C   0  0  0  0  0  2  0  0  0  0  0  0
  187.9770  178.3960  141.6330 N   0  0  0  0  0  0  0  0  0  0  0  0
  187.5340  178.3910  139.1250 N   0  0  0  0  0  2  0  0  0  0  0  0
  183.4460  178.4510  142.3330 C   0  0  0  0  0  3  0  0  0  0  0  0
  182.0890  178.5040  140.4100 O   0  0  0  0  0  1  0  0  0  0  0  0
  187.1640  178.3620  142.7480 O   0  0  0  0  0  0  0  0  0  0  0  0
  184.5740  178.5420  140.0760 C   0  0  1  0  0  3  0  0  0  0  0  0
  188.5900  178.3070  136.2280 N   0  0  0  0  0  0  0  0  0  0  0  0
  184.5340  179.8010  139.2270 C   0  0  0  0  0  1  0  0  0  0  0  0
  188.5650  176.8750  136.3930 C   0  0  0  0  0  3  0  0  0  0  0  0
  185.8440  178.5060  140.8760 C   0  0  0  0  0  0  0  0  0  0  0  0
  189.3490  177.9080  141.6090 C   0  0  1  0  0  3  0  0  0  0  0  0
  183.3530  178.5000  140.9870 C   0  0  0  0  0  0  0  0  0  0  0  0
  184.7460  178.4150  143.0440 C   0  0  0  0  0  3  0  0  0  0  0  0
  190.2910  176.5820  139.7470 C   0  0  0  0  0  2  0  0  0  0  0  0
  187.1130  178.4630  140.4910 C   0  0  0  0  0  0  0  0  0  0  0  0
  188.7890  179.1170  137.2340 C   0  0  0  0  0  3  0  0  0  0  0  0
  185.8530  178.4390  142.3160 C   0  0  0  0  0  0  0  0  0  0  0  0
  189.0390  176.3170  137.5120 C   0  0  0  0  0  3  0  0  0  0  0  0
  189.6460  177.2390  138.5240 C   0  0  1  0  0  3  0  0  0  0  0  0
  188.8980  178.5810  138.6380 C   0  0  2  0  0  3  0  0  0  0  0  0
  191.1700  177.9120  145.5040 C   0  0  0  0  0  3  0  0  0  0  0  0
  189.9840  177.9340  142.9660 C   0  0  0  0  0  0  0  0  0  0  0  0
  189.6330  176.9510  143.8990 C   0  0  0  0  0  3  0  0  0  0  0  0
  190.2230  176.9410  145.1660 C   0  0  0  0  0  3  0  0  0  0  0  0
  191.5290  178.8920  144.5760 C   0  0  0  0  0  3  0  0  0  0  0  0
  190.9390  178.9030  143.3080 C   0  0  0  0  0  3  0  0  0  0  0  0
  1 12  1  0  0  0  0
  2  6  1  0  0  0  0
  3 16  1  0  0  0  0
  4 14  1  0  0  0  0
  5 13  1  0  0  0  0
  7  9  1  1  0  0  0
  7 11  1  0  0  0  0
  7 13  1  0  0  0  0
  8 10  1  0  0  0  0
  8 17  2  0  0  0  0
 10 19  2  0  0  0  0
 11 18  1  0  0  0  0
 12  2  1  0  0  0  0
 12 23  1  1  0  0  0
 13  4  2  0  0  0  0
 15  1  1  0  0  0  0
 16 11  2  0  0  0  0
 16  2  1  0  0  0  0
 18  6  1  0  0  0  0
 18 14  2  0  0  0  0
 20 19  1  1  0  0  0
 20 21  1  0  0  0  0
 20 15  1  0  0  0  0
 21 17  1  6  0  0  0
 21  3  1  0  0  0  0
 23 27  2  0  0  0  0
 23 24  1  0  0  0  0
 24 25  2  0  0  0  0
 25 22  1  0  0  0  0
 26 22  2  0  0  0  0
 27 26  1  0  0  0  0
M  END
>  <MODEL>
2

>  <REMARK>
 VINA RESULT:      -8.5      2.256      6.699
  Name = 
  1 active torsions:
  status: ('A' for Active; 'I' for Inactive)
    1  A    between atoms: C_9  and  C_15
                            x       y       z     vdW  Elec       q    Type
                         _______ _______ _______ _____ _____    ______ ____

>  <TORSDO>
F 1

$$$$
=
 OpenBabel10272400583D

 27 31  0  0  1  0  0  0  0  0999 V2000
  186.8060  179.0620  142.1840 C   0  0  0  0  0  2  0  0  0  0  0  0
  186.2440  177.8240  144.2110 N   0  0  0  0  0  0  0  0  0  0  0  0
  188.6680  177.0960  143.9290 N   0  0  0  0  0  2  0  0  0  0  0  0
  187.1710  178.8780  148.5760 C   0  0  0  0  0  3  0  0  0  0  0  0
  189.3690  178.4640  149.3090 O   0  0  0  0  0  1  0  0  0  0  0  0
  185.5260  178.3760  145.2530 O   0  0  0  0  0  0  0  0  0  0  0  0
  188.8000  177.8390  146.9490 C   0  0  0  0  0  0  0  0  0  0  0  0
  190.9420  176.0240  142.1430 N   0  0  0  0  0  0  0  0  0  0  0  0
  189.2710  176.4050  147.1160 C   0  0  0  0  0  1  0  0  0  0  0  0
  191.1550  177.4080  141.7970 C   0  0  0  0  0  3  0  0  0  0  0  0
  187.6430  177.8880  145.9930 C   0  0  0  0  0  0  0  0  0  0  0  0
  185.9090  178.0020  142.8050 C   0  0  1  0  0  3  0  0  0  0  0  0
  188.4090  178.4110  148.3070 C   0  0  0  0  0  0  0  0  0  0  0  0
  186.0850  178.8910  147.5670 C   0  0  0  0  0  3  0  0  0  0  0  0
  187.5920  178.4390  141.0480 C   0  0  0  0  0  2  0  0  0  0  0  0
  187.5610  177.5560  144.7100 C   0  0  0  0  0  0  0  0  0  0  0  0
  189.7640  175.5640  142.4690 C   0  0  0  0  0  3  0  0  0  0  0  0
  186.3540  178.4180  146.3590 C   0  0  1  0  0  3  0  0  0  0  0  0
  190.1140  178.1970  141.5080 C   0  0  0  0  0  3  0  0  0  0  0  0
  188.7610  177.5570  141.4940 C   0  0  1  0  0  3  0  0  0  0  0  0
  188.5880  176.4970  142.5990 C   0  0  2  0  0  3  0  0  0  0  0  0
  181.7290  178.7960  142.1800 C   0  0  0  0  0  3  0  0  0  0  0  0
  184.4540  178.2980  142.6020 C   0  0  0  0  0  0  0  0  0  0  0  0
  183.8780  178.0500  141.3500 C   0  0  0  0  0  3  0  0  0  0  0  0
  182.5190  178.3010  141.1390 C   0  0  0  0  0  3  0  0  0  0  0  0
  182.2960  179.0400  143.4340 C   0  0  0  0  0  3  0  0  0  0  0  0
  183.6550  178.7900  143.6460 C   0  0  0  0  0  3  0  0  0  0  0  0
  1 12  1  0  0  0  0
  2 16  1  0  0  0  0
  2  6  1  0  0  0  0
  3 16  1  0  0  0  0
  6 18  1  0  0  0  0
  7  9  1  0  0  0  0
  7 13  2  0  0  0  0
  8 17  2  0  0  0  0
 10  8  1  0  0  0  0
 11 18  1  0  0  0  0
 11  7  1  0  0  0  0
 12 23  1  1  0  0  0
 12  2  1  0  0  0  0
 13  4  1  0  0  0  0
 13  5  1  0  0  0  0
 14  4  2  0  0  0  0
 15  1  1  0  0  0  0
 16 11  2  0  0  0  0
 18 14  1  6  0  0  0
 19 10  2  0  0  0  0
 20 15  1  1  0  0  0
 20 19  1  0  0  0  0
 20 21  1  0  0  0  0
 21 17  1  1  0  0  0
 21  3  1  0  0  0  0
 22 26  1  0  0  0  0
 23 27  1  0  0  0  0
 24 23  2  0  0  0  0
 25 24  1  0  0  0  0
 25 22  2  0  0  0  0
 26 27  2  0  0  0  0
M  END
>  <MODEL>
3

>  <REMARK>
 VINA RESULT:      -8.3      3.261      5.936
  Name = 
  1 active torsions:
  status: ('A' for Active; 'I' for Inactive)
    1  A    between atoms: C_9  and  C_15
                            x       y       z     vdW  Elec       q    Type
                         _______ _______ _______ _____ _____    ______ ____

>  <TORSDO>
F 1

$$$$
=
 OpenBabel10272400583D

 27 31  0  0  1  0  0  0  0  0999 V2000
  187.8870  176.5690  142.9620 C   0  0  0  0  0  2  0  0  0  0  0  0
  186.3020  178.4240  142.9140 N   0  0  0  0  0  0  0  0  0  0  0  0
  187.0230  178.4200  140.4720 N   0  0  0  0  0  2  0  0  0  0  0  0
  181.9330  178.4390  141.5230 C   0  0  0  0  0  3  0  0  0  0  0  0
  181.5740  178.4830  139.1970 O   0  0  0  0  0  1  0  0  0  0  0  0
  185.0770  178.3820  143.5500 O   0  0  0  0  0  0  0  0  0  0  0  0
  183.9470  178.5440  140.0030 C   0  0  1  0  0  3  0  0  0  0  0  0
  189.2590  178.3490  138.3480 N   0  0  0  0  0  0  0  0  0  0  0  0
  184.2790  179.8030  139.2220 C   0  0  0  0  0  1  0  0  0  0  0  0
  189.1750  176.9170  138.4880 C   0  0  0  0  0  3  0  0  0  0  0  0
  184.7280  178.5170  141.2860 C   0  0  0  0  0  0  0  0  0  0  0  0
  187.5450  177.9480  143.5050 C   0  0  1  0  0  3  0  0  0  0  0  0
  182.4490  178.4900  140.2760 C   0  0  0  0  0  0  0  0  0  0  0  0
  182.7810  178.4130  142.7380 C   0  0  0  0  0  3  0  0  0  0  0  0
  189.2290  176.6340  142.2610 C   0  0  0  0  0  2  0  0  0  0  0  0
  186.0360  178.4860  141.5060 C   0  0  0  0  0  0  0  0  0  0  0  0
  188.9820  179.1600  139.3350 C   0  0  0  0  0  3  0  0  0  0  0  0
  184.0950  178.4480  142.5790 C   0  0  0  0  0  0  0  0  0  0  0  0
  189.1060  176.3620  139.7030 C   0  0  0  0  0  3  0  0  0  0  0  0
  189.1900  177.2870  140.8770 C   0  0  1  0  0  3  0  0  0  0  0  0
  188.4590  178.6220  140.6420 C   0  0  2  0  0  3  0  0  0  0  0  0
  187.5060  178.0530  147.8030 C   0  0  0  0  0  3  0  0  0  0  0  0
  187.5080  177.9770  145.0030 C   0  0  0  0  0  0  0  0  0  0  0  0
  188.6580  177.6240  145.7170 C   0  0  0  0  0  3  0  0  0  0  0  0
  188.6570  177.6590  147.1150 C   0  0  0  0  0  3  0  0  0  0  0  0
  186.3560  178.4130  147.0960 C   0  0  0  0  0  3  0  0  0  0  0  0
  186.3570  178.3780  145.6980 C   0  0  0  0  0  3  0  0  0  0  0  0
  1 12  1  0  0  0  0
  2 12  1  0  0  0  0
  2  6  1  0  0  0  0
  3 21  1  0  0  0  0
  3 16  1  0  0  0  0
  4 14  1  0  0  0  0
  5 13  1  0  0  0  0
  7  9  1  1  0  0  0
  7 13  1  0  0  0  0
  7 11  1  0  0  0  0
  8 10  1  0  0  0  0
  8 17  2  0  0  0  0
 10 19  2  0  0  0  0
 11 16  2  0  0  0  0
 11 18  1  0  0  0  0
 12 23  1  1  0  0  0
 13  4  2  0  0  0  0
 15  1  1  0  0  0  0
 16  2  1  0  0  0  0
 18 14  2  0  0  0  0
 18  6  1  0  0  0  0
 20 19  1  6  0  0  0
 20 15  1  0  0  0  0
 21 17  1  6  0  0  0
 21 20  1  0  0  0  0
 23 27  2  0  0  0  0
 23 24  1  0  0  0  0
 24 25  2  0  0  0  0
 25 22  1  0  0  0  0
 26 22  2  0  0  0  0
 27 26  1  0  0  0  0
M  END
>  <MODEL>
4

>  <REMARK>
 VINA RESULT:      -8.2      3.003      6.288
  Name = 
  1 active torsions:
  status: ('A' for Active; 'I' for Inactive)
    1  A    between atoms: C_9  and  C_15
                            x       y       z     vdW  Elec       q    Type
                         _______ _______ _______ _____ _____    ______ ____

>  <TORSDO>
F 1

$$$$
=
 OpenBabel10272400583D

 27 31  0  0  1  0  0  0  0  0999 V2000
  186.9460  176.8180  143.4840 C   0  0  0  0  0  2  0  0  0  0  0  0
  186.7530  178.4480  141.6770 N   0  0  0  0  0  0  0  0  0  0  0  0
  189.2650  178.0300  141.6050 N   0  0  0  0  0  2  0  0  0  0  0  0
  186.6010  177.7230  137.1530 C   0  0  0  0  0  3  0  0  0  0  0  0
  188.6530  177.2630  136.0950 O   0  0  0  0  0  1  0  0  0  0  0  0
  185.7490  178.4050  140.7310 O   0  0  0  0  0  0  0  0  0  0  0  0
  188.6990  177.7330  138.5580 C   0  0  1  0  0  3  0  0  0  0  0  0
  191.9710  177.7720  143.0610 N   0  0  0  0  0  0  0  0  0  0  0  0
  189.7320  178.8390  138.4220 C   0  0  0  0  0  1  0  0  0  0  0  0
  191.5910  176.3960  143.2620 C   0  0  0  0  0  3  0  0  0  0  0  0
  187.7610  178.0460  139.6870 C   0  0  0  0  0  0  0  0  0  0  0  0
  186.5420  178.2340  143.1020 C   0  0  1  0  0  3  0  0  0  0  0  0
  187.9400  177.5780  137.2450 C   0  0  0  0  0  0  0  0  0  0  0  0
  185.7470  178.0310  138.3240 C   0  0  0  0  0  3  0  0  0  0  0  0
  188.0540  176.8820  144.5160 C   0  0  0  0  0  2  0  0  0  0  0  0
  187.9850  178.1980  140.9870 C   0  0  0  0  0  0  0  0  0  0  0  0
  191.0870  178.7300  142.9710 C   0  0  0  0  0  3  0  0  0  0  0  0
  186.3370  178.1720  139.5020 C   0  0  0  0  0  0  0  0  0  0  0  0
  190.3510  176.0910  143.6600 C   0  0  0  0  0  3  0  0  0  0  0  0
  189.4300  177.2370  143.9480 C   0  0  1  0  0  3  0  0  0  0  0  0
  189.6140  178.4130  142.9700 C   0  0  2  0  0  3  0  0  0  0  0  0
  182.4970  179.1170  144.2640 C   0  0  0  0  0  3  0  0  0  0  0  0
  185.1410  178.5580  143.5230 C   0  0  0  0  0  0  0  0  0  0  0  0
  184.1170  178.5080  142.5700 C   0  0  0  0  0  3  0  0  0  0  0  0
  182.7980  178.7880  142.9390 C   0  0  0  0  0  3  0  0  0  0  0  0
  183.5140  179.1630  145.2210 C   0  0  0  0  0  3  0  0  0  0  0  0
  184.8330  178.8830  144.8530 C   0  0  0  0  0  3  0  0  0  0  0  0
  1 15  1  0  0  0  0
  2 12  1  0  0  0  0
  3 21  1  0  0  0  0
  4 13  2  0  0  0  0
  4 14  1  0  0  0  0
  5 13  1  0  0  0  0
  6  2  1  0  0  0  0
  7  9  1  6  0  0  0
  7 11  1  0  0  0  0
  8 10  1  0  0  0  0
 10 19  2  0  0  0  0
 11 16  2  0  0  0  0
 12  1  1  0  0  0  0
 12 23  1  6  0  0  0
 13  7  1  0  0  0  0
 14 18  2  0  0  0  0
 16  3  1  0  0  0  0
 16  2  1  0  0  0  0
 17  8  2  0  0  0  0
 18 11  1  0  0  0  0
 18  6  1  0  0  0  0
 20 19  1  6  0  0  0
 20 15  1  0  0  0  0
 21 17  1  6  0  0  0
 21 20  1  0  0  0  0
 22 26  1  0  0  0  0
 23 27  1  0  0  0  0
 24 25  1  0  0  0  0
 24 23  2  0  0  0  0
 25 22  2  0  0  0  0
 27 26  2  0  0  0  0
M  END
>  <MODEL>
5

>  <REMARK>
 VINA RESULT:      -8.2      2.021      2.691
  Name = 
  1 active torsions:
  status: ('A' for Active; 'I' for Inactive)
    1  A    between atoms: C_9  and  C_15
                            x       y       z     vdW  Elec       q    Type
                         _______ _______ _______ _____ _____    ______ ____

>  <TORSDO>
F 1

$$$$
=
 OpenBabel10272400583D

 27 31  0  0  1  0  0  0  0  0999 V2000
  189.5380  178.4960  139.9600 C   0  0  0  0  0  2  0  0  0  0  0  0
  187.4170  177.5740  140.7410 N   0  0  0  0  0  0  0  0  0  0  0  0
  188.8640  177.0950  142.7810 N   0  0  0  0  0  2  0  0  0  0  0  0
  184.3020  179.4750  143.5170 C   0  0  0  0  0  3  0  0  0  0  0  0
  184.7990  179.4550  145.8180 O   0  0  0  0  0  1  0  0  0  0  0  0
  186.2070  178.2120  140.5550 O   0  0  0  0  0  0  0  0  0  0  0  0
  186.4420  178.3650  144.2700 C   0  0  0  0  0  0  0  0  0  0  0  0
  191.4750  176.0010  144.0050 N   0  0  0  0  0  0  0  0  0  0  0  0
  186.4210  177.0470  145.0250 C   0  0  0  0  0  1  0  0  0  0  0  0
  192.0010  177.3180  143.7470 C   0  0  0  0  0  3  0  0  0  0  0  0
  186.6490  178.1110  142.8040 C   0  0  0  0  0  0  0  0  0  0  0  0
  188.4470  177.4630  139.7180 C   0  0  1  0  0  3  0  0  0  0  0  0
  185.1380  179.1160  144.5140 C   0  0  0  0  0  0  0  0  0  0  0  0
  184.5870  179.1850  142.0920 C   0  0  0  0  0  3  0  0  0  0  0  0
  190.8560  177.7800  140.1700 C   0  0  0  0  0  2  0  0  0  0  0  0
  187.6620  177.5530  142.1530 C   0  0  0  0  0  0  0  0  0  0  0  0
  190.5390  175.4710  143.2630 C   0  0  0  0  0  3  0  0  0  0  0  0
  185.7090  178.5420  141.8010 C   0  0  1  0  0  3  0  0  0  0  0  0
  191.7700  177.9180  142.5740 C   0  0  0  0  0  3  0  0  0  0  0  0
  191.0140  177.1320  141.5480 C   0  0  1  0  0  3  0  0  0  0  0  0
  189.8940  176.2680  142.1590 C   0  0  2  0  0  3  0  0  0  0  0  0
  186.8770  177.7470  135.7250 C   0  0  0  0  0  3  0  0  0  0  0  0
  187.8810  177.5480  138.3320 C   0  0  0  0  0  0  0  0  0  0  0  0
  187.9990  178.7480  137.6230 C   0  0  0  0  0  3  0  0  0  0  0  0
  187.4960  178.8490  136.3220 C   0  0  0  0  0  3  0  0  0  0  0  0
  186.7620  176.5440  136.4260 C   0  0  0  0  0  3  0  0  0  0  0  0
  187.2640  176.4420  137.7260 C   0  0  0  0  0  3  0  0  0  0  0  0
  1 15  1  0  0  0  0
  2 16  1  0  0  0  0
  4 13  1  0  0  0  0
  6  2  1  0  0  0  0
  6 18  1  0  0  0  0
  7 13  2  0  0  0  0
  7  9  1  0  0  0  0
 10  8  1  0  0  0  0
 11  7  1  0  0  0  0
 12 23  1  6  0  0  0
 12  1  1  0  0  0  0
 12  2  1  0  0  0  0
 13  5  1  0  0  0  0
 14  4  2  0  0  0  0
 16  3  1  0  0  0  0
 16 11  2  0  0  0  0
 17  8  2  0  0  0  0
 18 14  1  6  0  0  0
 18 11  1  0  0  0  0
 19 10  2  0  0  0  0
 20 15  1  6  0  0  0
 20 21  1  0  0  0  0
 20 19  1  0  0  0  0
 21  3  1  0  0  0  0
 21 17  1  1  0  0  0
 22 25  2  0  0  0  0
 22 26  1  0  0  0  0
 24 23  2  0  0  0  0
 25 24  1  0  0  0  0
 26 27  2  0  0  0  0
 27 23  1  0  0  0  0
M  END
>  <MODEL>
6

>  <REMARK>
 VINA RESULT:      -7.3      2.281      5.508
  Name = 
  1 active torsions:
  status: ('A' for Active; 'I' for Inactive)
    1  A    between atoms: C_9  and  C_15
                            x       y       z     vdW  Elec       q    Type
                         _______ _______ _______ _____ _____    ______ ____

>  <TORSDO>
F 1

$$$$
=
 OpenBabel10272400583D

 27 31  0  0  1  0  0  0  0  0999 V2000
  189.9180  174.6180  137.3510 C   0  0  0  0  0  2  0  0  0  0  0  0
  190.5950  176.6010  138.6010 N   0  0  0  0  0  0  0  0  0  0  0  0
  188.0900  177.0310  138.4500 N   0  0  0  0  0  2  0  0  0  0  0  0
  190.3580  177.3770  143.1140 C   0  0  0  0  0  3  0  0  0  0  0  0
  188.2390  177.9470  143.9690 O   0  0  0  0  0  1  0  0  0  0  0  0
  191.4980  176.5590  139.6450 O   0  0  0  0  0  0  0  0  0  0  0  0
  188.4290  177.5810  141.4960 C   0  0  0  0  0  0  0  0  0  0  0  0
  185.5000  177.1670  136.7800 N   0  0  0  0  0  0  0  0  0  0  0  0
  187.8280  178.9330  141.1550 C   0  0  0  0  0  1  0  0  0  0  0  0
  185.3990  175.7550  137.0510 C   0  0  0  0  0  3  0  0  0  0  0  0
  189.4520  177.2020  140.4630 C   0  0  0  0  0  0  0  0  0  0  0  0
  190.7650  175.8810  137.3470 C   0  0  1  0  0  3  0  0  0  0  0  0
  189.0520  177.6330  142.8860 C   0  0  0  0  0  0  0  0  0  0  0  0
  191.3000  177.0070  142.0320 C   0  0  0  0  0  3  0  0  0  0  0  0
  188.9290  174.6840  136.2050 C   0  0  0  0  0  2  0  0  0  0  0  0
  189.3320  176.9850  139.1600 C   0  0  0  0  0  0  0  0  0  0  0  0
  186.6530  177.7780  136.7020 C   0  0  0  0  0  3  0  0  0  0  0  0
  190.8280  176.9320  140.7960 C   0  0  1  0  0  3  0  0  0  0  0  0
  186.4750  174.9690  136.9330 C   0  0  0  0  0  3  0  0  0  0  0  0
  187.7360  175.6120  136.4480 C   0  0  1  0  0  3  0  0  0  0  0  0
  187.9320  177.0380  136.9980 C   0  0  2  0  0  3  0  0  0  0  0  0
  194.8820  175.0060  136.4680 C   0  0  0  0  0  3  0  0  0  0  0  0
  192.2050  175.5990  137.0450 C   0  0  0  0  0  0  0  0  0  0  0  0
  192.7440  174.3590  137.4040 C   0  0  0  0  0  3  0  0  0  0  0  0
  194.0810  174.0630  137.1180 C   0  0  0  0  0  3  0  0  0  0  0  0
  194.3480  176.2440  136.1010 C   0  0  0  0  0  3  0  0  0  0  0  0
  193.0120  176.5410  136.3870 C   0  0  0  0  0  3  0  0  0  0  0  0
  2 16  1  0  0  0  0
  2  6  1  0  0  0  0
  3 16  1  0  0  0  0
  6 18  1  0  0  0  0
  7 13  2  0  0  0  0
  8 10  1  0  0  0  0
  9  7  1  0  0  0  0
 11 18  1  0  0  0  0
 11  7  1  0  0  0  0
 12 23  1  1  0  0  0
 12  1  1  0  0  0  0
 12  2  1  0  0  0  0
 13  4  1  0  0  0  0
 13  5  1  0  0  0  0
 14  4  2  0  0  0  0
 15  1  1  0  0  0  0
 16 11  2  0  0  0  0
 17  8  2  0  0  0  0
 18 14  1  1  0  0  0
 19 10  2  0  0  0  0
 20 15  1  1  0  0  0
 20 19  1  0  0  0  0
 20 21  1  0  0  0  0
 21 17  1  1  0  0  0
 21  3  1  0  0  0  0
 22 25  1  0  0  0  0
 23 24  1  0  0  0  0
 25 24  2  0  0  0  0
 26 27  1  0  0  0  0
 26 22  2  0  0  0  0
 27 23  2  0  0  0  0
M  END
>  <MODEL>
7

>  <REMARK>
 VINA RESULT:      -7.1      2.760      7.765
  Name = 
  1 active torsions:
  status: ('A' for Active; 'I' for Inactive)
    1  A    between atoms: C_9  and  C_15
                            x       y       z     vdW  Elec       q    Type
                         _______ _______ _______ _____ _____    ______ ____

>  <TORSDO>
F 1

$$$$
=
 OpenBabel10272400583D

 27 31  0  0  1  0  0  0  0  0999 V2000
  184.1840  179.5380  142.9710 C   0  0  0  0  0  2  0  0  0  0  0  0
  185.8190  178.0070  142.0010 N   0  0  0  0  0  0  0  0  0  0  0  0
  184.0500  177.9550  140.1690 N   0  0  0  0  0  2  0  0  0  0  0  0
  188.9820  178.8350  138.7870 C   0  0  0  0  0  3  0  0  0  0  0  0
  188.2160  178.9290  136.5630 O   0  0  0  0  0  1  0  0  0  0  0  0
  187.1770  178.2530  142.0120 O   0  0  0  0  0  0  0  0  0  0  0  0
  186.5320  178.4110  138.3460 C   0  0  1  0  0  3  0  0  0  0  0  0
  181.0990  177.6810  139.3150 N   0  0  0  0  0  0  0  0  0  0  0  0
  186.0640  177.1360  137.6650 C   0  0  0  0  0  1  0  0  0  0  0  0
  181.0250  179.0990  139.5620 C   0  0  0  0  0  3  0  0  0  0  0  0
  186.4450  178.2540  139.8370 C   0  0  0  0  0  0  0  0  0  0  0  0
  184.9400  178.2290  143.1410 C   0  0  1  0  0  3  0  0  0  0  0  0
  187.9580  178.7290  137.9130 C   0  0  0  0  0  0  0  0  0  0  0  0
  188.8060  178.6670  140.2490 C   0  0  0  0  0  3  0  0  0  0  0  0
  182.6970  179.2500  142.9530 C   0  0  0  0  0  2  0  0  0  0  0  0
  185.4020  178.0380  140.6290 C   0  0  0  0  0  0  0  0  0  0  0  0
  181.9210  176.9040  139.9710 C   0  0  0  0  0  3  0  0  0  0  0  0
  187.5900  178.3980  140.7010 C   0  0  0  0  0  0  0  0  0  0  0  0
  181.5710  179.6200  140.6660 C   0  0  0  0  0  3  0  0  0  0  0  0
  182.1810  178.6590  141.6390 C   0  0  1  0  0  3  0  0  0  0  0  0
  182.9070  177.4880  140.9500 C   0  0  2  0  0  3  0  0  0  0  0  0
  186.9880  178.0380  146.9170 C   0  0  0  0  0  3  0  0  0  0  0  0
  185.6750  178.1610  144.4450 C   0  0  0  0  0  0  0  0  0  0  0  0
  185.2010  178.9050  145.5320 C   0  0  0  0  0  3  0  0  0  0  0  0
  185.8570  178.8460  146.7640 C   0  0  0  0  0  3  0  0  0  0  0  0
  187.4630  177.2880  145.8380 C   0  0  0  0  0  3  0  0  0  0  0  0
  186.8070  177.3470  144.6040 C   0  0  0  0  0  3  0  0  0  0  0  0
  1 12  1  0  0  0  0
  2  6  1  0  0  0  0
  2 12  1  0  0  0  0
  3 16  1  0  0  0  0
  3 21  1  0  0  0  0
  4 14  1  0  0  0  0
  5 13  1  0  0  0  0
  7  9  1  6  0  0  0
  7 11  1  0  0  0  0
  8 10  1  0  0  0  0
  8 17  2  0  0  0  0
 10 19  2  0  0  0  0
 11 16  2  0  0  0  0
 11 18  1  0  0  0  0
 12 23  1  1  0  0  0
 13  7  1  0  0  0  0
 13  4  2  0  0  0  0
 14 18  2  0  0  0  0
 15  1  1  0  0  0  0
 16  2  1  0  0  0  0
 18  6  1  0  0  0  0
 20 19  1  6  0  0  0
 20 15  1  0  0  0  0
 21 17  1  6  0  0  0
 21 20  1  0  0  0  0
 23 27  2  0  0  0  0
 23 24  1  0  0  0  0
 24 25  2  0  0  0  0
 25 22  1  0  0  0  0
 26 22  2  0  0  0  0
 27 26  1  0  0  0  0
M  END
>  <MODEL>
8

>  <REMARK>
 VINA RESULT:      -7.1      3.129      6.372
  Name = 
  1 active torsions:
  status: ('A' for Active; 'I' for Inactive)
    1  A    between atoms: C_9  and  C_15
                            x       y       z     vdW  Elec       q    Type
                         _______ _______ _______ _____ _____    ______ ____

>  <TORSDO>
F 1

$$$$
=
 OpenBabel10272400583D

 27 31  0  0  1  0  0  0  0  0999 V2000
  184.8190  177.0370  138.3180 C   0  0  0  0  0  2  0  0  0  0  0  0
  186.0270  178.4850  139.8680 N   0  0  0  0  0  0  0  0  0  0  0  0
  183.6360  179.0140  140.5700 N   0  0  0  0  0  2  0  0  0  0  0  0
  187.0560  177.7570  144.2760 C   0  0  0  0  0  3  0  0  0  0  0  0
  185.3140  178.0780  145.8260 O   0  0  0  0  0  1  0  0  0  0  0  0
  187.1570  178.0790  140.5500 O   0  0  0  0  0  0  0  0  0  0  0  0
  184.8140  178.5320  143.4120 C   0  0  0  0  0  0  0  0  0  0  0  0
  180.7390  179.7610  139.8240 N   0  0  0  0  0  0  0  0  0  0  0  0
  184.3090  179.9380  143.6840 C   0  0  0  0  0  1  0  0  0  0  0  0
  180.5440  178.3410  139.6690 C   0  0  0  0  0  3  0  0  0  0  0  0
  185.4830  178.4800  142.0680 C   0  0  0  0  0  0  0  0  0  0  0  0
  185.7800  178.2080  138.4600 C   0  0  1  0  0  3  0  0  0  0  0  0
  185.7750  178.1100  144.5160 C   0  0  0  0  0  0  0  0  0  0  0  0
  187.6360  177.7310  142.9130 C   0  0  0  0  0  3  0  0  0  0  0  0
  183.5830  177.5010  137.5760 C   0  0  0  0  0  2  0  0  0  0  0  0
  185.0050  178.7030  140.8500 C   0  0  0  0  0  0  0  0  0  0  0  0
  181.8960  180.3300  139.6130 C   0  0  0  0  0  3  0  0  0  0  0  0
  186.8560  178.0770  141.9000 C   0  0  1  0  0  3  0  0  0  0  0  0
  181.4520  177.6050  139.0190 C   0  0  0  0  0  3  0  0  0  0  0  0
  182.6120  178.3340  138.4170 C   0  0  1  0  0  3  0  0  0  0  0  0
  183.1110  179.4970  139.2960 C   0  0  2  0  0  3  0  0  0  0  0  0
  189.3920  177.5570  136.2190 C   0  0  0  0  0  3  0  0  0  0  0  0
  187.0500  177.9980  137.6930 C   0  0  0  0  0  0  0  0  0  0  0  0
  187.3720  176.7090  137.2520 C   0  0  0  0  0  3  0  0  0  0  0  0
  188.5420  176.4880  136.5190 C   0  0  0  0  0  3  0  0  0  0  0  0
  189.0730  178.8470  136.6510 C   0  0  0  0  0  3  0  0  0  0  0  0
  187.9030  179.0690  137.3840 C   0  0  0  0  0  3  0  0  0  0  0  0
  1 12  1  0  0  0  0
  2  6  1  0  0  0  0
  2 16  1  0  0  0  0
  3 16  1  0  0  0  0
  4 13  1  0  0  0  0
  6 18  1  0  0  0  0
  7  9  1  0  0  0  0
  7 13  2  0  0  0  0
 10  8  1  0  0  0  0
 11  7  1  0  0  0  0
 12 23  1  6  0  0  0
 12  2  1  0  0  0  0
 13  5  1  0  0  0  0
 14  4  2  0  0  0  0
 15  1  1  0  0  0  0
 16 11  2  0  0  0  0
 17  8  2  0  0  0  0
 18 11  1  0  0  0  0
 18 14  1  6  0  0  0
 19 10  2  0  0  0  0
 20 15  1  1  0  0  0
 20 19  1  0  0  0  0
 20 21  1  0  0  0  0
 21 17  1  1  0  0  0
 21  3  1  0  0  0  0
 22 25  2  0  0  0  0
 22 26  1  0  0  0  0
 24 23  2  0  0  0  0
 25 24  1  0  0  0  0
 26 27  2  0  0  0  0
 27 23  1  0  0  0  0
M  END
>  <MODEL>
9

>  <REMARK>
 VINA RESULT:      -7.0      3.326      7.677
  Name = 
  1 active torsions:
  status: ('A' for Active; 'I' for Inactive)
    1  A    between atoms: C_9  and  C_15
                            x       y       z     vdW  Elec       q    Type
                         _______ _______ _______ _____ _____    ______ ____

>  <TORSDO>
F 1

$$$$
