=
 OpenBabel10262423543D

 34 39  0  0  1  0  0  0  0  0999 V2000
  188.2830  178.4060  139.3120 C   0  0  2  0  0  3  0  0  0  0  0  0
  186.5620  178.3170  137.4710 C   0  0  0  0  0  0  0  0  0  0  0  0
  185.8630  178.5870  140.0400 C   0  0  2  0  0  3  0  0  0  0  0  0
  183.5510  178.6570  141.0270 N   0  0  0  0  0  0  0  0  0  0  0  0
  189.0530  178.9100  137.0890 C   0  0  0  0  0  2  0  0  0  0  0  0
  187.6510  178.7450  136.5060 C   0  0  0  0  0  2  0  0  0  0  0  0
  183.8040  178.3570  138.6030 C   0  0  0  0  0  0  0  0  0  0  0  0
  186.8400  177.9890  138.9570 C   0  0  2  0  0  3  0  0  0  0  0  0
  184.1720  177.4830  137.4560 C   0  0  1  0  0  3  0  0  0  0  0  0
  182.2290  178.0460  140.9670 C   0  0  0  0  0  1  0  0  0  0  0  0
  189.2780  177.9820  138.2610 C   0  0  0  0  0  2  0  0  0  0  0  0
  186.3780  178.2320  141.4620 C   0  0  2  0  0  3  0  0  0  0  0  0
  188.7010  177.9340  140.6840 C   0  0  0  0  0  2  0  0  0  0  0  0
  185.4120  178.0370  136.8410 C   0  0  0  0  0  3  0  0  0  0  0  0
  184.0680  178.2620  142.3300 C   0  0  0  0  0  2  0  0  0  0  0  0
  185.4670  178.8090  142.5440 C   0  0  1  0  0  3  0  0  0  0  0  0
  183.1310  179.3590  138.4040 O   0  0  0  0  0  0  0  0  0  0  0  0
  184.3950  178.0820  139.9560 C   0  0  1  0  0  3  0  0  0  0  0  0
  187.8260  178.6550  141.6820 C   0  0  0  0  0  2  0  0  0  0  0  0
  184.3220  175.9990  137.8370 C   0  0  1  0  0  3  0  0  0  0  0  0
  181.0460  175.1030  136.7390 C   0  0  0  0  0  1  0  0  0  0  0  0
  183.0550  175.3780  138.0090 O   0  0  0  0  0  0  0  0  0  0  0  0
  182.5540  174.9640  136.7580 C   0  0  1  0  0  3  0  0  0  0  0  0
  184.0900  173.0080  137.3490 C   0  0  0  0  0  2  0  0  0  0  0  0
  185.4150  173.7590  137.1580 C   0  0  0  0  0  2  0  0  0  0  0  0
  185.2760  175.2580  136.8710 C   0  0  0  0  0  2  0  0  0  0  0  0
  182.9450  173.5100  136.4600 C   0  0  0  0  0  2  0  0  0  0  0  0
  185.9520  178.8710  146.3260 C   0  0  0  0  0  0  0  0  0  0  0  0
  186.8190  177.7880  146.5000 C   0  0  0  0  0  3  0  0  0  0  0  0
  185.9290  178.4670  143.9320 C   0  0  0  0  0  0  0  0  0  0  0  0
  187.2420  177.0460  145.3940 C   0  0  0  0  0  3  0  0  0  0  0  0
  185.5080  179.2110  145.0450 C   0  0  0  0  0  3  0  0  0  0  0  0
  186.7980  177.3860  144.1130 C   0  0  0  0  0  3  0  0  0  0  0  0
  185.5330  179.6090  147.4250 O   0  0  0  0  0  1  0  0  0  0  0  0
  1 11  1  6  0  0  0
  1 13  1  0  0  0  0
  2  8  1  0  0  0  0
  3 12  1  0  0  0  0
  4 15  1  0  0  0  0
  5 11  1  0  0  0  0
  6  5  1  0  0  0  0
  6  2  1  0  0  0  0
  7 18  1  0  0  0  0
  8  1  1  0  0  0  0
  8  3  1  0  0  0  0
  9 20  1  0  0  0  0
  9  7  1  0  0  0  0
 10  4  1  0  0  0  0
 12 19  1  0  0  0  0
 12 16  1  0  0  0  0
 13 19  1  0  0  0  0
 14  9  1  0  0  0  0
 14  2  2  0  0  0  0
 15 16  1  0  0  0  0
 16 30  1  0  0  0  0
 17  7  2  0  0  0  0
 18  3  1  0  0  0  0
 18  4  1  0  0  0  0
 20 22  1  0  0  0  0
 21 23  1  0  0  0  0
 23 22  1  0  0  0  0
 25 24  1  0  0  0  0
 26 25  1  0  0  0  0
 26 20  1  0  0  0  0
 27 23  1  0  0  0  0
 27 24  1  0  0  0  0
 28 29  1  0  0  0  0
 28 34  1  0  0  0  0
 30 33  2  0  0  0  0
 30 32  1  0  0  0  0
 31 29  2  0  0  0  0
 32 28  2  0  0  0  0
 33 31  1  0  0  0  0
M  END
>  <MODEL>
1

>  <REMARK>
 VINA RESULT:      -8.9      0.000      0.000
  Name = 
  2 active torsions:
  status: ('A' for Active; 'I' for Inactive)
    1  A    between atoms: C_3  and  C_17
    2  A    between atoms: C_12  and  C_28
                            x       y       z     vdW  Elec       q    Type
                         _______ _______ _______ _____ _____    ______ ____

>  <TORSDO>
F 2

$$$$
=
 OpenBabel10262423543D

 34 39  0  0  1  0  0  0  0  0999 V2000
  189.6360  177.4610  141.8070 C   0  0  2  0  0  3  0  0  0  0  0  0
  190.0710  177.3050  139.3290 C   0  0  0  0  0  0  0  0  0  0  0  0
  187.7700  178.2680  140.2960 C   0  0  2  0  0  3  0  0  0  0  0  0
  185.7300  179.0040  139.0220 N   0  0  0  0  0  0  0  0  0  0  0  0
  191.9360  177.3010  141.1230 C   0  0  0  0  0  2  0  0  0  0  0  0
  191.5540  177.2880  139.6450 C   0  0  0  0  0  2  0  0  0  0  0  0
  187.6610  178.1320  137.7810 C   0  0  0  0  0  0  0  0  0  0  0  0
  188.9790  177.2670  140.4240 C   0  0  2  0  0  3  0  0  0  0  0  0
  188.4980  176.9710  137.3730 C   0  0  1  0  0  3  0  0  0  0  0  0
  184.8550  178.6650  137.9060 C   0  0  0  0  0  1  0  0  0  0  0  0
  190.8830  176.6300  141.9740 C   0  0  0  0  0  2  0  0  0  0  0  0
  186.8530  178.1420  141.5440 C   0  0  2  0  0  3  0  0  0  0  0  0
  188.6690  177.2330  142.9440 C   0  0  0  0  0  2  0  0  0  0  0  0
  189.8320  177.1220  138.0220 C   0  0  0  0  0  3  0  0  0  0  0  0
  184.8940  178.8140  140.2000 C   0  0  0  0  0  2  0  0  0  0  0  0
  185.6730  179.1110  141.4680 C   0  0  1  0  0  3  0  0  0  0  0  0
  187.7310  179.1760  137.1480 O   0  0  0  0  0  0  0  0  0  0  0  0
  186.8630  178.0530  139.0510 C   0  0  1  0  0  3  0  0  0  0  0  0
  187.6170  178.3130  142.8510 C   0  0  0  0  0  2  0  0  0  0  0  0
  187.8510  175.6080  137.6790 C   0  0  1  0  0  3  0  0  0  0  0  0
  185.2200  176.0140  135.3020 C   0  0  0  0  0  1  0  0  0  0  0  0
  186.4850  175.5830  137.2860 O   0  0  0  0  0  0  0  0  0  0  0  0
  186.3910  175.2730  135.9140 C   0  0  1  0  0  3  0  0  0  0  0  0
  186.6010  172.9400  136.9350 C   0  0  0  0  0  2  0  0  0  0  0  0
  188.0760  173.0570  137.3430 C   0  0  0  0  0  2  0  0  0  0  0  0
  188.7010  174.4390  137.1290 C   0  0  0  0  0  2  0  0  0  0  0  0
  186.2190  173.7630  135.6990 C   0  0  0  0  0  2  0  0  0  0  0  0
  184.3710  178.9990  145.0500 C   0  0  0  0  0  0  0  0  0  0  0  0
  183.0060  178.7880  144.8300 C   0  0  0  0  0  3  0  0  0  0  0  0
  184.7560  179.0010  142.6530 C   0  0  0  0  0  0  0  0  0  0  0  0
  182.5160  178.6830  143.5250 C   0  0  0  0  0  3  0  0  0  0  0  0
  185.2450  179.1050  143.9640 C   0  0  0  0  0  3  0  0  0  0  0  0
  183.3900  178.7880  142.4390 C   0  0  0  0  0  3  0  0  0  0  0  0
  184.8570  179.1030  146.3460 O   0  0  0  0  0  1  0  0  0  0  0  0
  1 11  1  1  0  0  0
  1 13  1  0  0  0  0
  2  6  1  0  0  0  0
  2  8  1  0  0  0  0
  3  8  1  0  0  0  0
  3 12  1  0  0  0  0
  4 18  1  0  0  0  0
  4 15  1  0  0  0  0
  5 11  1  0  0  0  0
  6  5  1  0  0  0  0
  7 18  1  0  0  0  0
  8  1  1  0  0  0  0
  9 20  1  0  0  0  0
  9  7  1  0  0  0  0
  9 14  1  0  0  0  0
 10  4  1  0  0  0  0
 12 19  1  0  0  0  0
 14  2  2  0  0  0  0
 15 16  1  0  0  0  0
 16 12  1  0  0  0  0
 16 30  1  0  0  0  0
 17  7  2  0  0  0  0
 18  3  1  0  0  0  0
 19 13  1  0  0  0  0
 21 23  1  0  0  0  0
 22 20  1  0  0  0  0
 23 22  1  0  0  0  0
 24 25  1  0  0  0  0
 26 25  1  0  0  0  0
 26 20  1  0  0  0  0
 27 23  1  0  0  0  0
 27 24  1  0  0  0  0
 28 34  1  0  0  0  0
 29 28  1  0  0  0  0
 30 32  1  0  0  0  0
 31 29  2  0  0  0  0
 32 28  2  0  0  0  0
 33 30  2  0  0  0  0
 33 31  1  0  0  0  0
M  END
>  <MODEL>
2

>  <REMARK>
 VINA RESULT:      -8.8      2.146      3.463
  Name = 
  2 active torsions:
  status: ('A' for Active; 'I' for Inactive)
    1  A    between atoms: C_3  and  C_17
    2  A    between atoms: C_12  and  C_28
                            x       y       z     vdW  Elec       q    Type
                         _______ _______ _______ _____ _____    ______ ____

>  <TORSDO>
F 2

$$$$
=
 OpenBabel10262423543D

 34 39  0  0  1  0  0  0  0  0999 V2000
  187.9970  178.4640  139.3450 C   0  0  2  0  0  3  0  0  0  0  0  0
  186.4890  178.1230  137.3540 C   0  0  0  0  0  0  0  0  0  0  0  0
  185.5080  178.4980  139.8140 C   0  0  2  0  0  3  0  0  0  0  0  0
  183.1060  178.4470  140.5600 N   0  0  0  0  0  0  0  0  0  0  0  0
  188.9560  178.8860  137.1800 C   0  0  0  0  0  2  0  0  0  0  0  0
  187.6390  178.5750  136.4740 C   0  0  0  0  0  2  0  0  0  0  0  0
  183.6320  178.0160  138.2000 C   0  0  0  0  0  0  0  0  0  0  0  0
  186.6330  177.9130  138.8790 C   0  0  2  0  0  3  0  0  0  0  0  0
  184.1800  177.1030  137.1610 C   0  0  1  0  0  3  0  0  0  0  0  0
  181.8450  177.7300  140.4130 C   0  0  0  0  0  1  0  0  0  0  0  0
  189.1240  178.0550  138.4300 C   0  0  0  0  0  2  0  0  0  0  0  0
  185.8960  178.2750  141.3020 C   0  0  2  0  0  3  0  0  0  0  0  0
  188.3030  178.1140  140.7810 C   0  0  0  0  0  2  0  0  0  0  0  0
  185.4340  177.7140  136.6340 C   0  0  0  0  0  3  0  0  0  0  0  0
  183.5120  178.1770  141.9330 C   0  0  0  0  0  2  0  0  0  0  0  0
  184.8370  178.8460  142.2450 C   0  0  1  0  0  3  0  0  0  0  0  0
  182.9120  178.9460  137.8650 O   0  0  0  0  0  0  0  0  0  0  0  0
  184.0970  177.8750  139.6210 C   0  0  1  0  0  3  0  0  0  0  0  0
  187.2790  178.8250  141.6340 C   0  0  0  0  0  2  0  0  0  0  0  0
  184.3960  175.6630  137.6580 C   0  0  1  0  0  3  0  0  0  0  0  0
  181.2980  174.4570  136.3600 C   0  0  0  0  0  1  0  0  0  0  0  0
  183.1640  174.9620  137.7690 O   0  0  0  0  0  0  0  0  0  0  0  0
  182.8050  174.4310  136.5130 C   0  0  1  0  0  3  0  0  0  0  0  0
  184.4120  172.6370  137.3690 C   0  0  0  0  0  2  0  0  0  0  0  0
  185.6940  173.4700  137.2350 C   0  0  0  0  0  2  0  0  0  0  0  0
  185.4800  174.9320  136.8310 C   0  0  0  0  0  2  0  0  0  0  0  0
  183.3170  172.9930  136.3540 C   0  0  0  0  0  2  0  0  0  0  0  0
  186.6670  177.8230  145.4310 C   0  0  0  0  0  0  0  0  0  0  0  0
  185.7600  178.2480  146.4060 C   0  0  0  0  0  3  0  0  0  0  0  0
  185.1760  178.6290  143.6930 C   0  0  0  0  0  0  0  0  0  0  0  0
  184.5620  178.8600  146.0280 C   0  0  0  0  0  3  0  0  0  0  0  0
  186.3770  178.0130  144.0770 C   0  0  0  0  0  3  0  0  0  0  0  0
  184.2710  179.0490  144.6730 C   0  0  0  0  0  3  0  0  0  0  0  0
  187.8570  177.2140  145.8070 O   0  0  0  0  0  1  0  0  0  0  0  0
  1 11  1  6  0  0  0
  1 13  1  0  0  0  0
  2  8  1  0  0  0  0
  3 12  1  0  0  0  0
  4 15  1  0  0  0  0
  5 11  1  0  0  0  0
  6  5  1  0  0  0  0
  6  2  1  0  0  0  0
  7 18  1  0  0  0  0
  8  1  1  0  0  0  0
  8  3  1  0  0  0  0
  9 20  1  0  0  0  0
  9  7  1  0  0  0  0
 10  4  1  0  0  0  0
 12 19  1  0  0  0  0
 12 16  1  0  0  0  0
 13 19  1  0  0  0  0
 14  9  1  0  0  0  0
 14  2  2  0  0  0  0
 15 16  1  0  0  0  0
 16 30  1  0  0  0  0
 17  7  2  0  0  0  0
 18  3  1  0  0  0  0
 18  4  1  0  0  0  0
 20 22  1  0  0  0  0
 21 23  1  0  0  0  0
 23 22  1  0  0  0  0
 25 24  1  0  0  0  0
 26 25  1  0  0  0  0
 26 20  1  0  0  0  0
 27 23  1  0  0  0  0
 27 24  1  0  0  0  0
 28 34  1  0  0  0  0
 28 29  1  0  0  0  0
 30 32  1  0  0  0  0
 30 33  2  0  0  0  0
 31 29  2  0  0  0  0
 32 28  2  0  0  0  0
 33 31  1  0  0  0  0
M  END
>  <MODEL>
3

>  <REMARK>
 VINA RESULT:      -8.8      0.891      1.197
  Name = 
  2 active torsions:
  status: ('A' for Active; 'I' for Inactive)
    1  A    between atoms: C_3  and  C_17
    2  A    between atoms: C_12  and  C_28
                            x       y       z     vdW  Elec       q    Type
                         _______ _______ _______ _____ _____    ______ ____

>  <TORSDO>
F 2

$$$$
=
 OpenBabel10262423543D

 34 39  0  0  1  0  0  0  0  0999 V2000
  190.5500  176.5570  138.1000 C   0  0  2  0  0  3  0  0  0  0  0  0
  188.7200  176.9110  136.4020 C   0  0  0  0  0  0  0  0  0  0  0  0
  188.4800  177.7590  138.9280 C   0  0  2  0  0  3  0  0  0  0  0  0
  186.4970  178.8500  140.0250 N   0  0  0  0  0  0  0  0  0  0  0  0
  191.1870  176.4320  135.7830 C   0  0  0  0  0  2  0  0  0  0  0  0
  189.7690  176.7540  135.3180 C   0  0  0  0  0  2  0  0  0  0  0  0
  186.3330  178.1680  137.6710 C   0  0  0  0  0  0  0  0  0  0  0  0
  189.0260  176.6940  137.9030 C   0  0  2  0  0  3  0  0  0  0  0  0
  186.2070  177.0810  136.6630 C   0  0  1  0  0  3  0  0  0  0  0  0
  185.0440  178.8010  140.1430 C   0  0  0  0  0  1  0  0  0  0  0  0
  191.1820  175.6480  137.0750 C   0  0  0  0  0  2  0  0  0  0  0  0
  188.9860  177.4150  140.3570 C   0  0  2  0  0  3  0  0  0  0  0  0
  190.9170  176.1390  139.5030 C   0  0  0  0  0  2  0  0  0  0  0  0
  187.4840  177.0240  135.8940 C   0  0  0  0  0  3  0  0  0  0  0  0
  186.9750  178.4550  141.3430 C   0  0  0  0  0  2  0  0  0  0  0  0
  188.4920  178.4360  141.3820 C   0  0  1  0  0  3  0  0  0  0  0  0
  186.0680  179.3190  137.3520 O   0  0  0  0  0  0  0  0  0  0  0  0
  186.9310  177.8600  139.0140 C   0  0  1  0  0  3  0  0  0  0  0  0
  190.5010  177.2650  140.4200 C   0  0  0  0  0  2  0  0  0  0  0  0
  185.8310  175.7180  137.2710 C   0  0  1  0  0  3  0  0  0  0  0  0
  182.3630  176.0150  136.4810 C   0  0  0  0  0  1  0  0  0  0  0  0
  184.4490  175.6610  137.5980 O   0  0  0  0  0  0  0  0  0  0  0  0
  183.7040  175.3100  136.4540 C   0  0  1  0  0  3  0  0  0  0  0  0
  184.4500  173.0110  137.2830 C   0  0  0  0  0  2  0  0  0  0  0  0
  185.9320  173.1620  136.9140 C   0  0  0  0  0  2  0  0  0  0  0  0
  186.3340  174.5460  136.3960 C   0  0  0  0  0  2  0  0  0  0  0  0
  183.4900  173.7920  136.3780 C   0  0  0  0  0  2  0  0  0  0  0  0
  190.6620  178.0950  144.4990 C   0  0  0  0  0  0  0  0  0  0  0  0
  189.7550  177.5140  145.3920 C   0  0  0  0  0  3  0  0  0  0  0  0
  188.9500  178.1210  142.7780 C   0  0  0  0  0  0  0  0  0  0  0  0
  188.4500  177.2360  144.9790 C   0  0  0  0  0  3  0  0  0  0  0  0
  190.2610  178.3970  143.1950 C   0  0  0  0  0  3  0  0  0  0  0  0
  188.0480  177.5380  143.6750 C   0  0  0  0  0  3  0  0  0  0  0  0
  191.9590  178.3700  144.9090 O   0  0  0  0  0  1  0  0  0  0  0  0
  1 11  1  6  0  0  0
  1 13  1  0  0  0  0
  2  8  1  0  0  0  0
  3 18  1  0  0  0  0
  3 12  1  0  0  0  0
  4 10  1  0  0  0  0
  4 15  1  0  0  0  0
  5 11  1  0  0  0  0
  6  5  1  0  0  0  0
  6  2  1  0  0  0  0
  7 18  1  0  0  0  0
  8  1  1  0  0  0  0
  8  3  1  0  0  0  0
  9 20  1  0  0  0  0
  9  7  1  0  0  0  0
 12 19  1  0  0  0  0
 12 16  1  0  0  0  0
 13 19  1  0  0  0  0
 14  2  2  0  0  0  0
 14  9  1  0  0  0  0
 15 16  1  0  0  0  0
 16 30  1  0  0  0  0
 17  7  2  0  0  0  0
 18  4  1  0  0  0  0
 20 22  1  0  0  0  0
 23 21  1  0  0  0  0
 23 22  1  0  0  0  0
 25 24  1  0  0  0  0
 26 25  1  0  0  0  0
 26 20  1  0  0  0  0
 27 23  1  0  0  0  0
 27 24  1  0  0  0  0
 28 34  1  0  0  0  0
 28 29  1  0  0  0  0
 30 32  1  0  0  0  0
 30 33  2  0  0  0  0
 31 29  2  0  0  0  0
 32 28  2  0  0  0  0
 33 31  1  0  0  0  0
M  END
>  <MODEL>
4

>  <REMARK>
 VINA RESULT:      -8.4      2.250      3.012
  Name = 
  2 active torsions:
  status: ('A' for Active; 'I' for Inactive)
    1  A    between atoms: C_3  and  C_17
    2  A    between atoms: C_12  and  C_28
                            x       y       z     vdW  Elec       q    Type
                         _______ _______ _______ _____ _____    ______ ____

>  <TORSDO>
F 2

$$$$
=
 OpenBabel10262423543D

 34 39  0  0  1  0  0  0  0  0999 V2000
  191.4220  176.1150  137.5190 C   0  0  2  0  0  3  0  0  0  0  0  0
  189.8830  176.2900  135.5300 C   0  0  0  0  0  0  0  0  0  0  0  0
  189.2240  177.3120  137.9130 C   0  0  2  0  0  3  0  0  0  0  0  0
  187.0720  178.4220  138.5930 N   0  0  0  0  0  0  0  0  0  0  0  0
  192.4250  175.8410  135.3500 C   0  0  0  0  0  2  0  0  0  0  0  0
  191.0950  176.0860  134.6420 C   0  0  0  0  0  2  0  0  0  0  0  0
  187.3010  177.5660  136.3030 C   0  0  0  0  0  0  0  0  0  0  0  0
  189.9470  176.1930  137.0720 C   0  0  2  0  0  3  0  0  0  0  0  0
  187.3580  176.4040  135.3740 C   0  0  1  0  0  3  0  0  0  0  0  0
  185.6210  178.3380  138.4820 C   0  0  0  0  0  1  0  0  0  0  0  0
  192.2260  175.1530  136.6800 C   0  0  0  0  0  2  0  0  0  0  0  0
  189.5000  177.0890  139.4260 C   0  0  2  0  0  3  0  0  0  0  0  0
  191.5660  175.8120  138.9900 C   0  0  0  0  0  2  0  0  0  0  0  0
  188.7430  176.3290  134.8250 C   0  0  0  0  0  3  0  0  0  0  0  0
  187.3390  178.1380  139.9970 C   0  0  0  0  0  2  0  0  0  0  0  0
  188.8300  178.1660  140.2790 C   0  0  1  0  0  3  0  0  0  0  0  0
  187.0700  178.6810  135.8580 O   0  0  0  0  0  0  0  0  0  0  0  0
  187.6800  177.3740  137.7430 C   0  0  1  0  0  3  0  0  0  0  0  0
  190.9880  176.9890  139.7410 C   0  0  0  0  0  2  0  0  0  0  0  0
  186.9130  175.0790  136.0170 C   0  0  1  0  0  3  0  0  0  0  0  0
  183.4530  175.5710  135.2900 C   0  0  0  0  0  1  0  0  0  0  0  0
  185.5370  175.1120  136.3730 O   0  0  0  0  0  0  0  0  0  0  0  0
  184.7480  174.7860  135.2510 C   0  0  1  0  0  3  0  0  0  0  0  0
  185.3710  172.4610  136.1120 C   0  0  0  0  0  2  0  0  0  0  0  0
  186.8510  172.5150  135.7100 C   0  0  0  0  0  2  0  0  0  0  0  0
  187.3260  173.8620  135.1560 C   0  0  0  0  0  2  0  0  0  0  0  0
  184.4410  173.2820  135.2100 C   0  0  0  0  0  2  0  0  0  0  0  0
  188.3430  177.1760  143.9290 C   0  0  0  0  0  0  0  0  0  0  0  0
  189.5450  177.6200  144.4870 C   0  0  0  0  0  3  0  0  0  0  0  0
  189.0630  177.9680  141.7490 C   0  0  0  0  0  0  0  0  0  0  0  0
  190.5040  178.2380  143.6800 C   0  0  0  0  0  3  0  0  0  0  0  0
  188.1010  177.3490  142.5630 C   0  0  0  0  0  3  0  0  0  0  0  0
  190.2630  178.4120  142.3140 C   0  0  0  0  0  3  0  0  0  0  0  0
  187.3900  176.5630  144.7300 O   0  0  0  0  0  1  0  0  0  0  0  0
  1 11  1  6  0  0  0
  1 13  1  0  0  0  0
  2  8  1  0  0  0  0
  3 12  1  0  0  0  0
  4 15  1  0  0  0  0
  5 11  1  0  0  0  0
  6  5  1  0  0  0  0
  6  2  1  0  0  0  0
  7 18  1  0  0  0  0
  8  1  1  0  0  0  0
  8  3  1  0  0  0  0
  9 20  1  0  0  0  0
  9  7  1  0  0  0  0
 10  4  1  0  0  0  0
 12 19  1  0  0  0  0
 12 16  1  0  0  0  0
 13 19  1  0  0  0  0
 14  9  1  0  0  0  0
 14  2  2  0  0  0  0
 15 16  1  0  0  0  0
 16 30  1  0  0  0  0
 17  7  2  0  0  0  0
 18  3  1  0  0  0  0
 18  4  1  0  0  0  0
 20 22  1  0  0  0  0
 23 21  1  0  0  0  0
 23 22  1  0  0  0  0
 25 24  1  0  0  0  0
 26 25  1  0  0  0  0
 26 20  1  0  0  0  0
 27 23  1  0  0  0  0
 27 24  1  0  0  0  0
 28 29  1  0  0  0  0
 28 34  1  0  0  0  0
 30 33  2  0  0  0  0
 30 32  1  0  0  0  0
 31 29  2  0  0  0  0
 32 28  2  0  0  0  0
 33 31  1  0  0  0  0
M  END
>  <MODEL>
5

>  <REMARK>
 VINA RESULT:      -7.2      2.746      3.869
  Name = 
  2 active torsions:
  status: ('A' for Active; 'I' for Inactive)
    1  A    between atoms: C_3  and  C_17
    2  A    between atoms: C_12  and  C_28
                            x       y       z     vdW  Elec       q    Type
                         _______ _______ _______ _____ _____    ______ ____

>  <TORSDO>
F 2

$$$$
=
 OpenBabel10262423543D

 34 39  0  0  1  0  0  0  0  0999 V2000
  186.2320  178.1050  137.6890 C   0  0  2  0  0  3  0  0  0  0  0  0
  184.6860  177.2180  135.9050 C   0  0  0  0  0  0  0  0  0  0  0  0
  183.7950  177.8750  138.3410 C   0  0  2  0  0  3  0  0  0  0  0  0
  181.4730  177.6220  139.2730 N   0  0  0  0  0  0  0  0  0  0  0  0
  186.9980  178.2740  135.4140 C   0  0  0  0  0  2  0  0  0  0  0  0
  185.7060  177.6660  134.8750 C   0  0  0  0  0  2  0  0  0  0  0  0
  181.9280  176.8650  136.9810 C   0  0  0  0  0  0  0  0  0  0  0  0
  184.9430  177.2980  137.4290 C   0  0  2  0  0  3  0  0  0  0  0  0
  182.5490  175.8700  136.0650 C   0  0  1  0  0  3  0  0  0  0  0  0
  180.3270  176.7230  139.3450 C   0  0  0  0  0  1  0  0  0  0  0  0
  187.3570  177.7030  136.7670 C   0  0  0  0  0  2  0  0  0  0  0  0
  184.2930  177.9690  139.8100 C   0  0  2  0  0  3  0  0  0  0  0  0
  186.6650  178.0550  139.1340 C   0  0  0  0  0  2  0  0  0  0  0  0
  183.6670  176.5480  135.3480 C   0  0  0  0  0  3  0  0  0  0  0  0
  181.9880  177.6530  140.6350 C   0  0  0  0  0  2  0  0  0  0  0  0
  183.2140  178.5430  140.7280 C   0  0  1  0  0  3  0  0  0  0  0  0
  181.0600  177.6150  136.5570 O   0  0  0  0  0  0  0  0  0  0  0  0
  182.4850  177.0380  138.3650 C   0  0  1  0  0  3  0  0  0  0  0  0
  185.5940  178.7540  139.9380 C   0  0  0  0  0  2  0  0  0  0  0  0
  183.0060  174.5820  136.7730 C   0  0  1  0  0  3  0  0  0  0  0  0
  180.0940  172.7270  135.8690 C   0  0  0  0  0  1  0  0  0  0  0  0
  181.9030  173.7340  137.0670 O   0  0  0  0  0  0  0  0  0  0  0  0
  181.5900  172.9530  135.9360 C   0  0  1  0  0  3  0  0  0  0  0  0
  183.4870  171.5880  136.9710 C   0  0  0  0  0  2  0  0  0  0  0  0
  184.6170  172.5680  136.6300 C   0  0  0  0  0  2  0  0  0  0  0  0
  184.1620  173.8940  136.0110 C   0  0  0  0  0  2  0  0  0  0  0  0
  182.3170  171.6020  135.9790 C   0  0  0  0  0  2  0  0  0  0  0  0
  185.3520  178.3680  143.8800 C   0  0  0  0  0  0  0  0  0  0  0  0
  184.4400  178.8080  144.8440 C   0  0  0  0  0  3  0  0  0  0  0  0
  183.6590  178.6290  142.1600 C   0  0  0  0  0  0  0  0  0  0  0  0
  183.1400  179.1570  144.4690 C   0  0  0  0  0  3  0  0  0  0  0  0
  184.9630  178.2780  142.5410 C   0  0  0  0  0  3  0  0  0  0  0  0
  182.7500  179.0670  143.1300 C   0  0  0  0  0  3  0  0  0  0  0  0
  186.6440  178.0210  144.2540 O   0  0  0  0  0  1  0  0  0  0  0  0
  1 11  1  6  0  0  0
  1 13  1  0  0  0  0
  2  8  1  0  0  0  0
  3 18  1  0  0  0  0
  3 12  1  0  0  0  0
  4 10  1  0  0  0  0
  4 15  1  0  0  0  0
  5 11  1  0  0  0  0
  6  5  1  0  0  0  0
  6  2  1  0  0  0  0
  7 18  1  0  0  0  0
  8  1  1  0  0  0  0
  8  3  1  0  0  0  0
  9 20  1  0  0  0  0
  9  7  1  0  0  0  0
 12 19  1  0  0  0  0
 12 16  1  0  0  0  0
 13 19  1  0  0  0  0
 14  2  2  0  0  0  0
 14  9  1  0  0  0  0
 15 16  1  0  0  0  0
 16 30  1  0  0  0  0
 17  7  2  0  0  0  0
 18  4  1  0  0  0  0
 20 22  1  0  0  0  0
 21 23  1  0  0  0  0
 23 27  1  0  0  0  0
 23 22  1  0  0  0  0
 25 24  1  0  0  0  0
 26 25  1  0  0  0  0
 26 20  1  0  0  0  0
 27 24  1  0  0  0  0
 28 34  1  0  0  0  0
 28 29  1  0  0  0  0
 30 32  1  0  0  0  0
 30 33  2  0  0  0  0
 31 29  2  0  0  0  0
 32 28  2  0  0  0  0
 33 31  1  0  0  0  0
M  END
>  <MODEL>
6

>  <REMARK>
 VINA RESULT:      -6.9      1.834      2.808
  Name = 
  2 active torsions:
  status: ('A' for Active; 'I' for Inactive)
    1  A    between atoms: C_3  and  C_17
    2  A    between atoms: C_12  and  C_28
                            x       y       z     vdW  Elec       q    Type
                         _______ _______ _______ _____ _____    ______ ____

>  <TORSDO>
F 2

$$$$
