=
 OpenBabel10272415253D

 34 39  0  0  1  0  0  0  0  0999 V2000
  186.8170  177.8880  143.4730 N   0  0  0  0  0  0  0  0  0  0  0  0
  190.7760  177.6990  145.1120 C   0  0  0  0  0  2  0  0  0  0  0  0
  185.8800  177.7880  145.6540 N   0  0  0  0  0  2  0  0  0  0  0  0
  188.1290  177.4480  143.9580 C   0  0  2  0  0  3  0  0  0  0  0  0
  187.1710  177.7070  146.2590 C   0  0  0  0  0  0  0  0  0  0  0  0
  188.5930  177.7690  148.2180 C   0  0  0  0  0  3  0  0  0  0  0  0
  187.3140  177.7590  147.6490 C   0  0  0  0  0  3  0  0  0  0  0  0
  185.7610  177.9750  144.2350 C   0  0  0  0  0  0  0  0  0  0  0  0
  189.5830  177.6960  146.0080 C   0  0  0  0  0  0  0  0  0  0  0  0
  188.3030  177.6570  145.4420 C   0  0  0  0  0  0  0  0  0  0  0  0
  189.7280  177.7430  147.3990 C   0  0  0  0  0  3  0  0  0  0  0  0
  190.4640  178.5500  143.8820 C   0  0  0  0  0  2  0  0  0  0  0  0
  189.2780  177.9850  143.0630 C   0  0  1  0  0  3  0  0  0  0  0  0
  182.1340  179.0640  143.9390 C   0  0  0  0  0  3  0  0  0  0  0  0
  184.2760  178.3000  142.2540 C   0  0  0  0  0  3  0  0  0  0  0  0
  181.3680  179.0560  140.1480 C   0  0  0  0  0  0  0  0  0  0  0  0
  180.6280  179.3720  141.6400 S   0  0  0  0  0  0  0  0  0  0  0  0
  181.9920  179.0190  142.5570 C   0  0  0  0  0  0  0  0  0  0  0  0
  182.6870  178.6620  140.3670 C   0  0  0  0  0  0  0  0  0  0  0  0
  183.0340  178.6470  141.7200 C   0  0  0  0  0  0  0  0  0  0  0  0
  183.5650  178.3190  139.3450 O   0  0  0  0  0  1  0  0  0  0  0  0
  184.4560  178.3350  143.6500 C   0  0  0  0  0  0  0  0  0  0  0  0
  183.3800  178.7190  144.4840 C   0  0  0  0  0  3  0  0  0  0  0  0
  180.7040  179.1390  138.8130 C   0  0  1  0  0  3  0  0  0  0  0  0
  181.3300  180.2420  137.9830 C   0  0  0  0  0  1  0  0  0  0  0  0
  180.8210  177.9210  138.1430 O   0  0  0  0  0  1  0  0  0  0  0  0
  189.7360  176.9500  142.1210 N   0  0  2  0  0  0  0  0  0  0  0  0
  191.1690  177.1150  141.8930 C   0  0  0  0  0  2  0  0  0  0  0  0
  191.4620  176.6960  140.4690 C   0  0  1  0  0  3  0  0  0  0  0  0
  190.1310  176.7430  139.7610 C   0  0  0  0  0  2  0  0  0  0  0  0
  189.1380  177.1910  140.8110 C   0  0  0  0  0  2  0  0  0  0  0  0
  192.4360  177.6780  139.8430 C   0  0  0  0  0  2  0  0  0  0  0  0
  193.5660  177.0000  139.3840 O   0  0  0  0  0  0  0  0  0  0  0  0
  193.1920  176.5030  138.1360 C   0  0  0  0  0  1  0  0  0  0  0  0
  1  8  2  0  0  0  0
  2  9  1  0  0  0  0
  3  5  1  0  0  0  0
  4  1  1  6  0  0  0
  4 10  1  0  0  0  0
  5  7  1  0  0  0  0
  7  6  2  0  0  0  0
  8  3  1  0  0  0  0
  9 11  2  0  0  0  0
 10  9  1  0  0  0  0
 10  5  2  0  0  0  0
 11  6  1  0  0  0  0
 12  2  1  0  0  0  0
 13 12  1  1  0  0  0
 13  4  1  0  0  0  0
 14 23  1  0  0  0  0
 15 22  1  0  0  0  0
 16 19  2  0  0  0  0
 16 17  1  0  0  0  0
 17 18  1  0  0  0  0
 18 14  2  0  0  0  0
 19 20  1  0  0  0  0
 20 15  2  0  0  0  0
 20 18  1  0  0  0  0
 21 19  1  0  0  0  0
 22  8  1  0  0  0  0
 22 23  2  0  0  0  0
 24 25  1  6  0  0  0
 24 16  1  0  0  0  0
 26 24  1  0  0  0  0
 27 31  1  6  0  0  0
 27 13  1  0  0  0  0
 28 27  1  0  0  0  0
 29 32  1  6  0  0  0
 29 28  1  0  0  0  0
 30 29  1  0  0  0  0
 30 31  1  0  0  0  0
 33 32  1  0  0  0  0
 34 33  1  0  0  0  0
M  END
>  <MODEL>
1

>  <REMARK>
 VINA RESULT:     -10.2      0.000      0.000
  Name = 
  5 active torsions:
  status: ('A' for Active; 'I' for Inactive)
    1  A    between atoms: N_2  and  C_34
    2  A    between atoms: C_3  and  O_13
    3  A    between atoms: C_3  and  C_25
    4  A    between atoms: C_7  and  C_11
    5  A    between atoms: C_18  and  C_30
                            x       y       z     vdW  Elec       q    Type
                         _______ _______ _______ _____ _____    ______ ____

>  <TORSDO>
F 5

$$$$
=
 OpenBabel10272415253D

 34 39  0  0  1  0  0  0  0  0999 V2000
  184.9490  178.2450  142.6780 N   0  0  0  0  0  0  0  0  0  0  0  0
  181.6130  178.1280  139.9840 C   0  0  0  0  0  2  0  0  0  0  0  0
  183.5300  178.9470  144.4480 N   0  0  0  0  0  2  0  0  0  0  0  0
  183.9330  178.5580  141.6670 C   0  0  2  0  0  3  0  0  0  0  0  0
  182.3830  178.9420  143.5980 C   0  0  0  0  0  0  0  0  0  0  0  0
  179.9850  179.0610  143.2850 C   0  0  0  0  0  3  0  0  0  0  0  0
  181.1040  179.1590  144.1210 C   0  0  0  0  0  3  0  0  0  0  0  0
  184.7970  178.4910  143.9500 C   0  0  0  0  0  0  0  0  0  0  0  0
  181.4210  178.5110  141.4140 C   0  0  0  0  0  0  0  0  0  0  0  0
  182.5420  178.6370  142.2440 C   0  0  0  0  0  0  0  0  0  0  0  0
  180.1410  178.7310  141.9340 C   0  0  0  0  0  3  0  0  0  0  0  0
  182.7410  177.1010  139.8980 C   0  0  0  0  0  2  0  0  0  0  0  0
  184.0900  177.6670  140.4050 C   0  0  1  0  0  3  0  0  0  0  0  0
  186.7670  178.1800  147.1830 C   0  0  0  0  0  3  0  0  0  0  0  0
  187.1510  177.7920  144.4050 C   0  0  0  0  0  3  0  0  0  0  0  0
  190.2840  176.9650  146.1260 C   0  0  0  0  0  0  0  0  0  0  0  0
  189.3960  177.3860  147.5080 S   0  0  0  0  0  0  0  0  0  0  0  0
  187.9840  177.7460  146.6700 C   0  0  0  0  0  0  0  0  0  0  0  0
  189.4760  177.1180  145.0010 C   0  0  0  0  0  0  0  0  0  0  0  0
  188.1850  177.5510  145.3110 C   0  0  0  0  0  0  0  0  0  0  0  0
  189.9100  176.8640  143.7050 O   0  0  0  0  0  1  0  0  0  0  0  0
  185.9040  178.2330  144.8900 C   0  0  0  0  0  0  0  0  0  0  0  0
  185.7220  178.4230  146.2790 C   0  0  0  0  0  3  0  0  0  0  0  0
  191.7170  176.5460  146.1080 C   0  0  1  0  0  3  0  0  0  0  0  0
  192.0850  175.8790  147.4180 C   0  0  0  0  0  1  0  0  0  0  0  0
  191.9450  175.6640  145.0510 O   0  0  0  0  0  1  0  0  0  0  0  0
  184.7890  178.3950  139.3340 N   0  0  2  0  0  0  0  0  0  0  0  0
  184.5790  177.6980  138.0680 C   0  0  0  0  0  2  0  0  0  0  0  0
  185.8210  177.8840  137.2250 C   0  0  1  0  0  3  0  0  0  0  0  0
  186.9030  178.2860  138.1970 C   0  0  0  0  0  2  0  0  0  0  0  0
  186.2310  178.3070  139.5510 C   0  0  0  0  0  2  0  0  0  0  0  0
  186.1730  176.5730  136.5450 C   0  0  0  0  0  2  0  0  0  0  0  0
  187.3060  176.0180  137.1390 O   0  0  0  0  0  0  0  0  0  0  0  0
  187.1520  174.6430  136.9700 C   0  0  0  0  0  1  0  0  0  0  0  0
  1  8  2  0  0  0  0
  2  9  1  0  0  0  0
  4 10  1  1  0  0  0
  4  1  1  0  0  0  0
  5  7  1  0  0  0  0
  5  3  1  0  0  0  0
  6  7  2  0  0  0  0
  8  3  1  0  0  0  0
  8 22  1  0  0  0  0
  9 11  2  0  0  0  0
  9 10  1  0  0  0  0
 10  5  2  0  0  0  0
 11  6  1  0  0  0  0
 12  2  1  0  0  0  0
 13 12  1  6  0  0  0
 13  4  1  0  0  0  0
 15 22  2  0  0  0  0
 15 20  1  0  0  0  0
 16 17  1  0  0  0  0
 18 14  1  0  0  0  0
 18 17  1  0  0  0  0
 19 20  1  0  0  0  0
 19 16  2  0  0  0  0
 20 18  2  0  0  0  0
 21 19  1  0  0  0  0
 22 23  1  0  0  0  0
 23 14  2  0  0  0  0
 24 16  1  0  0  0  0
 24 25  1  1  0  0  0
 26 24  1  0  0  0  0
 27 28  1  6  0  0  0
 27 31  1  0  0  0  0
 27 13  1  0  0  0  0
 29 32  1  1  0  0  0
 29 28  1  0  0  0  0
 29 30  1  0  0  0  0
 30 31  1  0  0  0  0
 32 33  1  0  0  0  0
 34 33  1  0  0  0  0
M  END
>  <MODEL>
2

>  <REMARK>
 VINA RESULT:      -9.8      3.568      7.863
  Name = 
  5 active torsions:
  status: ('A' for Active; 'I' for Inactive)
    1  A    between atoms: N_2  and  C_34
    2  A    between atoms: C_3  and  O_13
    3  A    between atoms: C_3  and  C_25
    4  A    between atoms: C_7  and  C_11
    5  A    between atoms: C_18  and  C_30
                            x       y       z     vdW  Elec       q    Type
                         _______ _______ _______ _____ _____    ______ ____

>  <TORSDO>
F 5

$$$$
=
 OpenBabel10272415253D

 34 39  0  0  1  0  0  0  0  0999 V2000
  188.4930  177.6680  142.4950 N   0  0  0  0  0  0  0  0  0  0  0  0
  187.4000  177.6110  146.6430 C   0  0  0  0  0  2  0  0  0  0  0  0
  190.7790  177.3630  143.0660 N   0  0  0  0  0  2  0  0  0  0  0  0
  188.1420  178.0300  143.8720 C   0  0  2  0  0  3  0  0  0  0  0  0
  190.4810  177.3500  144.4620 C   0  0  0  0  0  0  0  0  0  0  0  0
  191.1390  176.9570  146.7590 C   0  0  0  0  0  3  0  0  0  0  0  0
  191.4720  177.0520  145.4030 C   0  0  0  0  0  3  0  0  0  0  0  0
  189.7150  177.4320  142.1030 C   0  0  0  0  0  0  0  0  0  0  0  0
  188.8230  177.4380  146.2310 C   0  0  0  0  0  0  0  0  0  0  0  0
  189.1640  177.5610  144.8780 C   0  0  0  0  0  0  0  0  0  0  0  0
  189.8140  177.1440  147.1740 C   0  0  0  0  0  3  0  0  0  0  0  0
  186.5010  176.9900  145.5750 C   0  0  0  0  0  2  0  0  0  0  0  0
  186.6660  177.6770  144.1970 C   0  0  1  0  0  3  0  0  0  0  0  0
  189.1990  176.8730  138.3820 C   0  0  0  0  0  3  0  0  0  0  0  0
  191.3220  176.9530  140.2530 C   0  0  0  0  0  3  0  0  0  0  0  0
  192.7340  176.2580  136.9380 C   0  0  0  0  0  0  0  0  0  0  0  0
  191.1120  176.3460  136.4550 S   0  0  0  0  0  0  0  0  0  0  0  0
  190.5180  176.6680  137.9940 C   0  0  0  0  0  0  0  0  0  0  0  0
  192.8120  176.4710  138.3140 C   0  0  0  0  0  0  0  0  0  0  0  0
  191.5670  176.7060  138.9010 C   0  0  0  0  0  0  0  0  0  0  0  0
  194.0070  176.4520  139.0250 O   0  0  0  0  0  1  0  0  0  0  0  0
  189.9970  177.1660  140.6800 C   0  0  0  0  0  0  0  0  0  0  0  0
  188.9430  177.1250  139.7380 C   0  0  0  0  0  3  0  0  0  0  0  0
  193.8910  175.9530  136.0460 C   0  0  1  0  0  3  0  0  0  0  0  0
  193.4030  175.5910  134.6580 C   0  0  0  0  0  1  0  0  0  0  0  0
  194.7430  177.0560  135.9720 O   0  0  0  0  0  1  0  0  0  0  0  0
  185.8080  178.8700  144.1000 N   0  0  2  0  0  0  0  0  0  0  0  0
  184.6370  178.6860  144.9520 C   0  0  0  0  0  2  0  0  0  0  0  0
  183.4720  179.3940  144.2980 C   0  0  1  0  0  3  0  0  0  0  0  0
  183.8780  179.5750  142.8560 C   0  0  0  0  0  2  0  0  0  0  0  0
  185.2540  178.9580  142.7510 C   0  0  0  0  0  2  0  0  0  0  0  0
  182.2300  178.5270  144.3990 C   0  0  0  0  0  2  0  0  0  0  0  0
  181.2980  178.9170  143.4380 O   0  0  0  0  0  0  0  0  0  0  0  0
  180.0650  178.5530  143.9790 C   0  0  0  0  0  1  0  0  0  0  0  0
  3  5  1  0  0  0  0
  4  1  1  6  0  0  0
  4 13  1  0  0  0  0
  4 10  1  0  0  0  0
  5 10  2  0  0  0  0
  5  7  1  0  0  0  0
  6 11  1  0  0  0  0
  7  6  2  0  0  0  0
  8  1  2  0  0  0  0
  8  3  1  0  0  0  0
  9  2  1  0  0  0  0
  9 11  2  0  0  0  0
 10  9  1  0  0  0  0
 12  2  1  0  0  0  0
 13 12  1  1  0  0  0
 14 23  1  0  0  0  0
 15 22  1  0  0  0  0
 16 19  2  0  0  0  0
 17 16  1  0  0  0  0
 17 18  1  0  0  0  0
 18 14  2  0  0  0  0
 18 20  1  0  0  0  0
 19 20  1  0  0  0  0
 19 21  1  0  0  0  0
 20 15  2  0  0  0  0
 22  8  1  0  0  0  0
 23 22  2  0  0  0  0
 24 25  1  6  0  0  0
 24 16  1  0  0  0  0
 26 24  1  0  0  0  0
 27 31  1  6  0  0  0
 27 13  1  0  0  0  0
 27 28  1  0  0  0  0
 29 32  1  6  0  0  0
 29 28  1  0  0  0  0
 30 29  1  0  0  0  0
 31 30  1  0  0  0  0
 33 34  1  0  0  0  0
 33 32  1  0  0  0  0
M  END
>  <MODEL>
3

>  <REMARK>
 VINA RESULT:      -9.7      3.042      8.409
  Name = 
  5 active torsions:
  status: ('A' for Active; 'I' for Inactive)
    1  A    between atoms: N_2  and  C_34
    2  A    between atoms: C_3  and  O_13
    3  A    between atoms: C_3  and  C_25
    4  A    between atoms: C_7  and  C_11
    5  A    between atoms: C_18  and  C_30
                            x       y       z     vdW  Elec       q    Type
                         _______ _______ _______ _____ _____    ______ ____

>  <TORSDO>
F 5

$$$$
=
 OpenBabel10272415253D

 34 39  0  0  1  0  0  0  0  0999 V2000
  187.3760  177.6560  143.0820 N   0  0  0  0  0  0  0  0  0  0  0  0
  191.6050  177.1290  143.5760 C   0  0  0  0  0  2  0  0  0  0  0  0
  187.0380  177.3390  145.4120 N   0  0  0  0  0  2  0  0  0  0  0  0
  188.7370  177.1140  143.1520 C   0  0  2  0  0  3  0  0  0  0  0  0
  188.4330  177.1410  145.6390 C   0  0  0  0  0  0  0  0  0  0  0  0
  190.3180  176.9200  147.1420 C   0  0  0  0  0  3  0  0  0  0  0  0
  188.9370  177.0250  146.9380 C   0  0  0  0  0  3  0  0  0  0  0  0
  186.5650  177.6940  144.1030 C   0  0  0  0  0  0  0  0  0  0  0  0
  190.6900  177.0670  144.7520 C   0  0  0  0  0  0  0  0  0  0  0  0
  189.3060  177.1420  144.5480 C   0  0  0  0  0  0  0  0  0  0  0  0
  191.1960  176.9470  146.0510 C   0  0  0  0  0  3  0  0  0  0  0  0
  191.0400  178.1280  142.5670 C   0  0  0  0  0  2  0  0  0  0  0  0
  189.6460  177.7070  142.0420 C   0  0  1  0  0  3  0  0  0  0  0  0
  183.1380  179.1410  144.8730 C   0  0  0  0  0  3  0  0  0  0  0  0
  184.5700  178.1090  142.6600 C   0  0  0  0  0  3  0  0  0  0  0  0
  181.2280  179.0950  141.5100 C   0  0  0  0  0  0  0  0  0  0  0  0
  181.0220  179.5310  143.1350 S   0  0  0  0  0  0  0  0  0  0  0  0
  182.5680  179.0690  143.6070 C   0  0  0  0  0  0  0  0  0  0  0  0
  182.5090  178.5740  141.3360 C   0  0  0  0  0  0  0  0  0  0  0  0
  183.2590  178.5650  142.5150 C   0  0  0  0  0  0  0  0  0  0  0  0
  182.9890  178.1110  140.1170 O   0  0  0  0  0  1  0  0  0  0  0  0
  185.1790  178.1680  143.9280 C   0  0  0  0  0  0  0  0  0  0  0  0
  184.4560  178.6860  145.0270 C   0  0  0  0  0  3  0  0  0  0  0  0
  180.1900  179.2050  140.4430 C   0  0  1  0  0  3  0  0  0  0  0  0
  180.5990  180.2420  139.4160 C   0  0  0  0  0  1  0  0  0  0  0  0
  180.0110  177.9700  139.8190 O   0  0  0  0  0  1  0  0  0  0  0  0
  189.7710  176.7720  140.9120 N   0  0  2  0  0  0  0  0  0  0  0  0
  191.1880  176.5330  140.6460 C   0  0  0  0  0  2  0  0  0  0  0  0
  191.3490  176.3120  139.1590 C   0  0  1  0  0  3  0  0  0  0  0  0
  190.1020  176.8890  138.5350 C   0  0  0  0  0  2  0  0  0  0  0  0
  189.2870  177.4170  139.6940 C   0  0  0  0  0  2  0  0  0  0  0  0
  192.5820  177.0490  138.6680 C   0  0  0  0  0  2  0  0  0  0  0  0
  192.9670  176.5560  137.4210 O   0  0  0  0  0  0  0  0  0  0  0  0
  193.6980  175.4040  137.7110 C   0  0  0  0  0  1  0  0  0  0  0  0
  1  8  2  0  0  0  0
  2  9  1  0  0  0  0
  3  5  1  0  0  0  0
  4  1  1  1  0  0  0
  4 10  1  0  0  0  0
  5  7  1  0  0  0  0
  7  6  2  0  0  0  0
  8  3  1  0  0  0  0
  9 11  2  0  0  0  0
 10  9  1  0  0  0  0
 10  5  2  0  0  0  0
 11  6  1  0  0  0  0
 12  2  1  0  0  0  0
 13 12  1  1  0  0  0
 13  4  1  0  0  0  0
 14 23  1  0  0  0  0
 15 22  1  0  0  0  0
 16 17  1  0  0  0  0
 17 18  1  0  0  0  0
 18 14  2  0  0  0  0
 19 16  2  0  0  0  0
 19 20  1  0  0  0  0
 20 15  2  0  0  0  0
 20 18  1  0  0  0  0
 21 19  1  0  0  0  0
 22  8  1  0  0  0  0
 22 23  2  0  0  0  0
 24 25  1  6  0  0  0
 24 16  1  0  0  0  0
 26 24  1  0  0  0  0
 27 31  1  6  0  0  0
 27 13  1  0  0  0  0
 28 27  1  0  0  0  0
 29 32  1  6  0  0  0
 29 28  1  0  0  0  0
 30 29  1  0  0  0  0
 30 31  1  0  0  0  0
 33 34  1  0  0  0  0
 33 32  1  0  0  0  0
M  END
>  <MODEL>
4

>  <REMARK>
 VINA RESULT:      -9.5      1.197      1.426
  Name = 
  5 active torsions:
  status: ('A' for Active; 'I' for Inactive)
    1  A    between atoms: N_2  and  C_34
    2  A    between atoms: C_3  and  O_13
    3  A    between atoms: C_3  and  C_25
    4  A    between atoms: C_7  and  C_11
    5  A    between atoms: C_18  and  C_30
                            x       y       z     vdW  Elec       q    Type
                         _______ _______ _______ _____ _____    ______ ____

>  <TORSDO>
F 5

$$$$
=
 OpenBabel10272415253D

 34 39  0  0  1  0  0  0  0  0999 V2000
  188.3650  177.6760  142.5400 N   0  0  0  0  0  0  0  0  0  0  0  0
  187.5250  177.5090  146.7430 C   0  0  0  0  0  2  0  0  0  0  0  0
  190.6810  177.3590  142.9620 N   0  0  0  0  0  2  0  0  0  0  0  0
  188.0990  178.0020  143.9440 C   0  0  2  0  0  3  0  0  0  0  0  0
  190.4680  177.3090  144.3730 C   0  0  0  0  0  0  0  0  0  0  0  0
  191.2640  176.8570  146.6150 C   0  0  0  0  0  3  0  0  0  0  0  0
  191.5140  176.9880  145.2440 C   0  0  0  0  0  3  0  0  0  0  0  0
  189.5610  177.4530  142.0680 C   0  0  0  0  0  0  0  0  0  0  0  0
  188.9210  177.3480  146.2410 C   0  0  0  0  0  0  0  0  0  0  0  0
  189.1790  177.5080  144.8740 C   0  0  0  0  0  0  0  0  0  0  0  0
  189.9670  177.0310  147.1140 C   0  0  0  0  0  3  0  0  0  0  0  0
  186.5630  176.9150  145.7150 C   0  0  0  0  0  2  0  0  0  0  0  0
  186.6440  177.6390  144.3490 C   0  0  1  0  0  3  0  0  0  0  0  0
  191.2210  176.6350  138.7510 C   0  0  0  0  0  3  0  0  0  0  0  0
  188.6720  177.3710  139.7370 C   0  0  0  0  0  3  0  0  0  0  0  0
  188.4260  176.9660  136.0980 C   0  0  0  0  0  0  0  0  0  0  0  0
  190.0750  176.5950  136.2350 S   0  0  0  0  0  0  0  0  0  0  0  0
  190.1300  176.7880  137.9040 C   0  0  0  0  0  0  0  0  0  0  0  0
  187.9170  177.2530  137.3630 C   0  0  0  0  0  0  0  0  0  0  0  0
  188.8760  177.1480  138.3740 C   0  0  0  0  0  0  0  0  0  0  0  0
  186.5930  177.6080  137.5940 O   0  0  0  0  0  1  0  0  0  0  0  0
  189.7550  177.2240  140.6240 C   0  0  0  0  0  0  0  0  0  0  0  0
  191.0250  176.8560  140.1230 C   0  0  0  0  0  3  0  0  0  0  0  0
  187.6510  177.0240  134.8240 C   0  0  1  0  0  3  0  0  0  0  0  0
  186.6480  175.8890  134.7670 C   0  0  0  0  0  1  0  0  0  0  0  0
  186.9870  178.2460  134.7210 O   0  0  0  0  0  1  0  0  0  0  0  0
  185.7830  178.8330  144.3350 N   0  0  2  0  0  0  0  0  0  0  0  0
  184.5810  178.5620  145.1190 C   0  0  0  0  0  2  0  0  0  0  0  0
  183.4370  179.3280  144.4930 C   0  0  1  0  0  3  0  0  0  0  0  0
  183.8970  179.6500  143.0920 C   0  0  0  0  0  2  0  0  0  0  0  0
  185.2810  179.0510  142.9810 C   0  0  0  0  0  2  0  0  0  0  0  0
  182.1980  178.4510  144.4600 C   0  0  0  0  0  2  0  0  0  0  0  0
  181.2990  178.9330  143.5090 O   0  0  0  0  0  0  0  0  0  0  0  0
  180.0440  178.5830  144.0070 C   0  0  0  0  0  1  0  0  0  0  0  0
  3  5  1  0  0  0  0
  4  1  1  6  0  0  0
  4 13  1  0  0  0  0
  4 10  1  0  0  0  0
  5 10  2  0  0  0  0
  5  7  1  0  0  0  0
  6 11  1  0  0  0  0
  7  6  2  0  0  0  0
  8  1  2  0  0  0  0
  8  3  1  0  0  0  0
  9  2  1  0  0  0  0
  9 11  2  0  0  0  0
 10  9  1  0  0  0  0
 12  2  1  0  0  0  0
 13 12  1  1  0  0  0
 14 23  1  0  0  0  0
 15 22  1  0  0  0  0
 16 17  1  0  0  0  0
 16 19  2  0  0  0  0
 17 18  1  0  0  0  0
 18 20  1  0  0  0  0
 18 14  2  0  0  0  0
 19 21  1  0  0  0  0
 19 20  1  0  0  0  0
 20 15  2  0  0  0  0
 22  8  1  0  0  0  0
 23 22  2  0  0  0  0
 24 25  1  1  0  0  0
 24 16  1  0  0  0  0
 26 24  1  0  0  0  0
 27 31  1  6  0  0  0
 27 13  1  0  0  0  0
 27 28  1  0  0  0  0
 29 32  1  6  0  0  0
 29 28  1  0  0  0  0
 30 29  1  0  0  0  0
 31 30  1  0  0  0  0
 33 34  1  0  0  0  0
 33 32  1  0  0  0  0
M  END
>  <MODEL>
5

>  <REMARK>
 VINA RESULT:      -9.2      3.211      7.138
  Name = 
  5 active torsions:
  status: ('A' for Active; 'I' for Inactive)
    1  A    between atoms: N_2  and  C_34
    2  A    between atoms: C_3  and  O_13
    3  A    between atoms: C_3  and  C_25
    4  A    between atoms: C_7  and  C_11
    5  A    between atoms: C_18  and  C_30
                            x       y       z     vdW  Elec       q    Type
                         _______ _______ _______ _____ _____    ______ ____

>  <TORSDO>
F 5

$$$$
=
 OpenBabel10272415253D

 34 39  0  0  1  0  0  0  0  0999 V2000
  191.0670  176.2390  139.6010 N   0  0  0  0  0  0  0  0  0  0  0  0
  190.6450  175.3150  135.4340 C   0  0  0  0  0  2  0  0  0  0  0  0
  189.5730  178.0720  139.3730 N   0  0  0  0  0  2  0  0  0  0  0  0
  191.2440  176.1340  138.1490 C   0  0  2  0  0  3  0  0  0  0  0  0
  189.4020  177.8250  137.9780 C   0  0  0  0  0  0  0  0  0  0  0  0
  188.2480  178.2250  135.8870 C   0  0  0  0  0  3  0  0  0  0  0  0
  188.4630  178.5440  137.2330 C   0  0  0  0  0  3  0  0  0  0  0  0
  190.3590  177.1740  140.1730 C   0  0  0  0  0  0  0  0  0  0  0  0
  189.8960  176.4550  136.0380 C   0  0  0  0  0  0  0  0  0  0  0  0
  190.1300  176.7950  137.3760 C   0  0  0  0  0  0  0  0  0  0  0  0
  188.9600  177.1770  135.2900 C   0  0  0  0  0  3  0  0  0  0  0  0
  190.7900  174.2130  136.4820 C   0  0  0  0  0  2  0  0  0  0  0  0
  191.5920  174.6830  137.7210 C   0  0  1  0  0  3  0  0  0  0  0  0
  191.4650  177.3710  143.8010 C   0  0  0  0  0  3  0  0  0  0  0  0
  189.0650  177.3450  142.3010 C   0  0  0  0  0  3  0  0  0  0  0  0
  188.1960  177.5980  145.8570 C   0  0  0  0  0  0  0  0  0  0  0  0
  189.8790  177.5550  146.0600 S   0  0  0  0  0  0  0  0  0  0  0  0
  190.2210  177.4470  144.4180 C   0  0  0  0  0  0  0  0  0  0  0  0
  187.8990  177.5160  144.4980 C   0  0  0  0  0  0  0  0  0  0  0  0
  189.0380  177.4360  143.6940 C   0  0  0  0  0  0  0  0  0  0  0  0
  186.6020  177.5140  143.9960 O   0  0  0  0  0  1  0  0  0  0  0  0
  190.3080  177.2670  141.6440 C   0  0  0  0  0  0  0  0  0  0  0  0
  191.5010  177.2820  142.4020 C   0  0  0  0  0  3  0  0  0  0  0  0
  187.1900  177.6640  146.9580 C   0  0  1  0  0  3  0  0  0  0  0  0
  187.8860  177.7090  148.3040 C   0  0  0  0  0  1  0  0  0  0  0  0
  186.3860  178.7940  146.8060 O   0  0  0  0  0  1  0  0  0  0  0  0
  193.0400  174.5370  137.4940 N   0  0  2  0  0  0  0  0  0  0  0  0
  193.6080  175.8460  137.1850 C   0  0  0  0  0  2  0  0  0  0  0  0
  194.7540  175.6380  136.2210 C   0  0  1  0  0  3  0  0  0  0  0  0
  194.5290  174.2680  135.6290 C   0  0  0  0  0  2  0  0  0  0  0  0
  193.2620  173.7580  136.2790 C   0  0  0  0  0  2  0  0  0  0  0  0
  194.7060  176.7020  135.1390 C   0  0  0  0  0  2  0  0  0  0  0  0
  195.1970  177.9090  135.6370 O   0  0  0  0  0  0  0  0  0  0  0  0
  196.1010  178.3440  134.6680 C   0  0  0  0  0  1  0  0  0  0  0  0
  1  8  2  0  0  0  0
  2  9  1  0  0  0  0
  2 12  1  0  0  0  0
  3  8  1  0  0  0  0
  4 10  1  6  0  0  0
  4  1  1  0  0  0  0
  5  3  1  0  0  0  0
  6  7  1  0  0  0  0
  7  5  2  0  0  0  0
  8 22  1  0  0  0  0
  9 10  2  0  0  0  0
 10  5  1  0  0  0  0
 11  6  2  0  0  0  0
 11  9  1  0  0  0  0
 13 12  1  6  0  0  0
 13  4  1  0  0  0  0
 14 18  1  0  0  0  0
 15 20  1  0  0  0  0
 16 17  1  0  0  0  0
 16 24  1  0  0  0  0
 18 17  1  0  0  0  0
 19 16  2  0  0  0  0
 20 18  2  0  0  0  0
 20 19  1  0  0  0  0
 21 19  1  0  0  0  0
 22 15  2  0  0  0  0
 22 23  1  0  0  0  0
 23 14  2  0  0  0  0
 24 25  1  1  0  0  0
 26 24  1  0  0  0  0
 27 31  1  6  0  0  0
 27 13  1  0  0  0  0
 28 27  1  0  0  0  0
 29 32  1  6  0  0  0
 29 28  1  0  0  0  0
 30 29  1  0  0  0  0
 30 31  1  0  0  0  0
 32 33  1  0  0  0  0
 34 33  1  0  0  0  0
M  END
>  <MODEL>
6

>  <REMARK>
 VINA RESULT:      -9.2      4.605      8.197
  Name = 
  5 active torsions:
  status: ('A' for Active; 'I' for Inactive)
    1  A    between atoms: N_2  and  C_34
    2  A    between atoms: C_3  and  O_13
    3  A    between atoms: C_3  and  C_25
    4  A    between atoms: C_7  and  C_11
    5  A    between atoms: C_18  and  C_30
                            x       y       z     vdW  Elec       q    Type
                         _______ _______ _______ _____ _____    ______ ____

>  <TORSDO>
F 5

$$$$
=
 OpenBabel10272415253D

 34 39  0  0  1  0  0  0  0  0999 V2000
  184.9220  178.3560  140.5150 N   0  0  0  0  0  0  0  0  0  0  0  0
  183.8270  177.5600  136.4440 C   0  0  0  0  0  2  0  0  0  0  0  0
  182.6540  178.7950  141.0680 N   0  0  0  0  0  2  0  0  0  0  0  0
  184.6470  178.4530  139.0780 C   0  0  2  0  0  3  0  0  0  0  0  0
  182.2290  178.5570  139.7260 C   0  0  0  0  0  0  0  0  0  0  0  0
  180.4710  178.2060  138.0980 C   0  0  0  0  0  3  0  0  0  0  0  0
  180.8690  178.5290  139.4010 C   0  0  0  0  0  3  0  0  0  0  0  0
  184.0270  178.5850  141.4350 C   0  0  0  0  0  0  0  0  0  0  0  0
  182.7890  177.9180  137.4540 C   0  0  0  0  0  0  0  0  0  0  0  0
  183.1860  178.2700  138.7500 C   0  0  0  0  0  0  0  0  0  0  0  0
  181.4290  177.8940  137.1260 C   0  0  0  0  0  3  0  0  0  0  0  0
  184.9350  176.7690  137.1390 C   0  0  0  0  0  2  0  0  0  0  0  0
  185.6370  177.5920  138.2470 C   0  0  1  0  0  3  0  0  0  0  0  0
  183.7950  178.7930  145.2210 C   0  0  0  0  0  3  0  0  0  0  0  0
  185.7360  178.2720  143.2280 C   0  0  0  0  0  3  0  0  0  0  0  0
  187.3630  178.0350  146.5090 C   0  0  0  0  0  0  0  0  0  0  0  0
  185.8120  178.4160  147.0760 S   0  0  0  0  0  0  0  0  0  0  0  0
  185.1160  178.5060  145.5490 C   0  0  0  0  0  0  0  0  0  0  0  0
  187.3400  177.9880  145.1160 C   0  0  0  0  0  0  0  0  0  0  0  0
  186.0760  178.2490  144.5820 C   0  0  0  0  0  0  0  0  0  0  0  0
  188.4600  177.7100  144.3400 O   0  0  0  0  0  1  0  0  0  0  0  0
  184.4080  178.5580  142.8600 C   0  0  0  0  0  0  0  0  0  0  0  0
  183.4450  178.8160  143.8630 C   0  0  0  0  0  3  0  0  0  0  0  0
  188.5730  177.8290  147.3580 C   0  0  1  0  0  3  0  0  0  0  0  0
  188.2320  178.0460  148.8190 C   0  0  0  0  0  1  0  0  0  0  0  0
  189.0720  176.5380  147.1780 O   0  0  0  0  0  1  0  0  0  0  0  0
  186.7090  178.4270  137.6810 N   0  0  2  0  0  0  0  0  0  0  0  0
  187.2100  177.7970  136.4620 C   0  0  0  0  0  2  0  0  0  0  0  0
  188.6850  178.1120  136.3500 C   0  0  1  0  0  3  0  0  0  0  0  0
  189.1090  178.5190  137.7400 C   0  0  0  0  0  2  0  0  0  0  0  0
  187.8580  178.4150  138.5830 C   0  0  0  0  0  2  0  0  0  0  0  0
  189.4360  176.8700  135.9050 C   0  0  0  0  0  2  0  0  0  0  0  0
  188.7150  175.7280  136.2520 O   0  0  0  0  0  0  0  0  0  0  0  0
  189.6270  174.9380  136.9520 C   0  0  0  0  0  1  0  0  0  0  0  0
  1  8  2  0  0  0  0
  2 12  1  0  0  0  0
  2  9  1  0  0  0  0
  3  8  1  0  0  0  0
  4 10  1  1  0  0  0
  4  1  1  0  0  0  0
  5  3  1  0  0  0  0
  6  7  2  0  0  0  0
  7  5  1  0  0  0  0
  8 22  1  0  0  0  0
  9 10  1  0  0  0  0
 10  5  2  0  0  0  0
 11  9  2  0  0  0  0
 11  6  1  0  0  0  0
 13 12  1  6  0  0  0
 13  4  1  0  0  0  0
 14 18  1  0  0  0  0
 15 20  1  0  0  0  0
 16 17  1  0  0  0  0
 16 24  1  0  0  0  0
 18 17  1  0  0  0  0
 19 16  2  0  0  0  0
 20 19  1  0  0  0  0
 20 18  2  0  0  0  0
 21 19  1  0  0  0  0
 22 15  2  0  0  0  0
 22 23  1  0  0  0  0
 23 14  2  0  0  0  0
 24 25  1  1  0  0  0
 26 24  1  0  0  0  0
 27 28  1  6  0  0  0
 27 13  1  0  0  0  0
 27 31  1  0  0  0  0
 29 32  1  1  0  0  0
 29 28  1  0  0  0  0
 29 30  1  0  0  0  0
 30 31  1  0  0  0  0
 32 33  1  0  0  0  0
 33 34  1  0  0  0  0
M  END
>  <MODEL>
7

>  <REMARK>
 VINA RESULT:      -9.0      3.645      7.617
  Name = 
  5 active torsions:
  status: ('A' for Active; 'I' for Inactive)
    1  A    between atoms: N_2  and  C_34
    2  A    between atoms: C_3  and  O_13
    3  A    between atoms: C_3  and  C_25
    4  A    between atoms: C_7  and  C_11
    5  A    between atoms: C_18  and  C_30
                            x       y       z     vdW  Elec       q    Type
                         _______ _______ _______ _____ _____    ______ ____

>  <TORSDO>
F 5

$$$$
=
 OpenBabel10272415253D

 34 39  0  0  1  0  0  0  0  0999 V2000
  187.5510  177.7900  143.0160 N   0  0  0  0  0  0  0  0  0  0  0  0
  191.7760  177.3820  143.6370 C   0  0  0  0  0  2  0  0  0  0  0  0
  187.1440  177.3480  145.3150 N   0  0  0  0  0  2  0  0  0  0  0  0
  188.9270  177.2910  143.1090 C   0  0  2  0  0  3  0  0  0  0  0  0
  188.5370  177.1860  145.5820 C   0  0  0  0  0  0  0  0  0  0  0  0
  190.3760  176.9550  147.1400 C   0  0  0  0  0  3  0  0  0  0  0  0
  189.0000  177.0230  146.8920 C   0  0  0  0  0  3  0  0  0  0  0  0
  186.7040  177.7500  144.0080 C   0  0  0  0  0  0  0  0  0  0  0  0
  190.8240  177.2320  144.7750 C   0  0  0  0  0  0  0  0  0  0  0  0
  189.4460  177.2710  144.5250 C   0  0  0  0  0  0  0  0  0  0  0  0
  191.2890  177.0650  146.0840 C   0  0  0  0  0  3  0  0  0  0  0  0
  191.2110  178.4100  142.6580 C   0  0  0  0  0  2  0  0  0  0  0  0
  189.8520  177.9690  142.0620 C   0  0  1  0  0  3  0  0  0  0  0  0
  183.2120  179.0650  144.7180 C   0  0  0  0  0  3  0  0  0  0  0  0
  184.7390  178.1460  142.5190 C   0  0  0  0  0  3  0  0  0  0  0  0
  181.4010  179.0610  141.3000 C   0  0  0  0  0  0  0  0  0  0  0  0
  181.1350  179.4410  142.9310 S   0  0  0  0  0  0  0  0  0  0  0  0
  182.6800  179.0130  143.4340 C   0  0  0  0  0  0  0  0  0  0  0  0
  182.7030  178.5870  141.1490 C   0  0  0  0  0  0  0  0  0  0  0  0
  183.4180  178.5650  142.3490 C   0  0  0  0  0  0  0  0  0  0  0  0
  183.2330  178.1770  139.9310 O   0  0  0  0  0  1  0  0  0  0  0  0
  185.3090  178.1860  143.8060 C   0  0  0  0  0  0  0  0  0  0  0  0
  184.5390  178.6470  144.8980 C   0  0  0  0  0  3  0  0  0  0  0  0
  180.3910  179.1710  140.2070 C   0  0  1  0  0  3  0  0  0  0  0  0
  180.8080  180.2350  139.2110 C   0  0  0  0  0  1  0  0  0  0  0  0
  180.2550  177.9440  139.5550 O   0  0  0  0  0  1  0  0  0  0  0  0
  190.0490  177.0950  140.8940 N   0  0  2  0  0  0  0  0  0  0  0  0
  190.5700  177.8910  139.7860 C   0  0  0  0  0  2  0  0  0  0  0  0
  190.0310  177.3050  138.5010 C   0  0  1  0  0  3  0  0  0  0  0  0
  188.8400  176.4760  138.9130 C   0  0  0  0  0  2  0  0  0  0  0  0
  188.7510  176.6290  140.4140 C   0  0  0  0  0  2  0  0  0  0  0  0
  189.6050  178.4280  137.5710 C   0  0  0  0  0  2  0  0  0  0  0  0
  188.3490  178.9040  137.9460 O   0  0  0  0  0  0  0  0  0  0  0  0
  187.6010  178.8810  136.7690 C   0  0  0  0  0  1  0  0  0  0  0  0
  1  8  2  0  0  0  0
  2  9  1  0  0  0  0
  3  5  1  0  0  0  0
  4  1  1  1  0  0  0
  4 10  1  0  0  0  0
  5  7  1  0  0  0  0
  7  6  2  0  0  0  0
  8  3  1  0  0  0  0
  9 11  2  0  0  0  0
 10  9  1  0  0  0  0
 10  5  2  0  0  0  0
 11  6  1  0  0  0  0
 12  2  1  0  0  0  0
 13 12  1  1  0  0  0
 13  4  1  0  0  0  0
 14 23  1  0  0  0  0
 15 22  1  0  0  0  0
 16 17  1  0  0  0  0
 17 18  1  0  0  0  0
 18 14  2  0  0  0  0
 19 16  2  0  0  0  0
 19 20  1  0  0  0  0
 20 15  2  0  0  0  0
 20 18  1  0  0  0  0
 21 19  1  0  0  0  0
 22  8  1  0  0  0  0
 22 23  2  0  0  0  0
 24 25  1  6  0  0  0
 24 16  1  0  0  0  0
 26 24  1  0  0  0  0
 27 28  1  6  0  0  0
 27 13  1  0  0  0  0
 29 32  1  6  0  0  0
 29 30  1  0  0  0  0
 29 28  1  0  0  0  0
 30 31  1  0  0  0  0
 31 27  1  0  0  0  0
 32 33  1  0  0  0  0
 34 33  1  0  0  0  0
M  END
>  <MODEL>
8

>  <REMARK>
 VINA RESULT:      -9.0      1.637      2.114
  Name = 
  5 active torsions:
  status: ('A' for Active; 'I' for Inactive)
    1  A    between atoms: N_2  and  C_34
    2  A    between atoms: C_3  and  O_13
    3  A    between atoms: C_3  and  C_25
    4  A    between atoms: C_7  and  C_11
    5  A    between atoms: C_18  and  C_30
                            x       y       z     vdW  Elec       q    Type
                         _______ _______ _______ _____ _____    ______ ____

>  <TORSDO>
F 5

$$$$
=
 OpenBabel10272415253D

 34 39  0  0  1  0  0  0  0  0999 V2000
  188.8680  177.5950  142.5310 N   0  0  0  0  0  0  0  0  0  0  0  0
  187.1800  177.5360  146.4740 C   0  0  0  0  0  2  0  0  0  0  0  0
  191.0460  177.2940  143.4300 N   0  0  0  0  0  2  0  0  0  0  0  0
  188.3190  177.9570  143.8420 C   0  0  2  0  0  3  0  0  0  0  0  0
  190.5470  177.2810  144.7670 C   0  0  0  0  0  0  0  0  0  0  0  0
  190.8630  176.8880  147.1360 C   0  0  0  0  0  3  0  0  0  0  0  0
  191.3900  176.9840  145.8430 C   0  0  0  0  0  3  0  0  0  0  0  0
  190.1340  177.3610  142.3220 C   0  0  0  0  0  0  0  0  0  0  0  0
  188.6490  177.3650  146.2750 C   0  0  0  0  0  0  0  0  0  0  0  0
  189.1830  177.4890  144.9860 C   0  0  0  0  0  0  0  0  0  0  0  0
  189.4920  177.0730  147.3520 C   0  0  0  0  0  3  0  0  0  0  0  0
  186.4480  176.9130  145.2860 C   0  0  0  0  0  2  0  0  0  0  0  0
  186.8110  177.6010  143.9470 C   0  0  1  0  0  3  0  0  0  0  0  0
  192.4640  177.0060  139.3430 C   0  0  0  0  0  3  0  0  0  0  0  0
  189.7200  176.6760  139.9570 C   0  0  0  0  0  3  0  0  0  0  0  0
  190.2160  175.8460  136.4170 C   0  0  0  0  0  0  0  0  0  0  0  0
  191.8300  176.2300  136.7650 S   0  0  0  0  0  0  0  0  0  0  0  0
  191.5480  176.5930  138.3820 C   0  0  0  0  0  0  0  0  0  0  0  0
  189.4490  176.0120  137.5690 C   0  0  0  0  0  0  0  0  0  0  0  0
  190.2010  176.4270  138.6700 C   0  0  0  0  0  0  0  0  0  0  0  0
  188.0770  175.7880  137.6160 O   0  0  0  0  0  1  0  0  0  0  0  0
  190.6210  177.0960  140.9550 C   0  0  0  0  0  0  0  0  0  0  0  0
  191.9890  177.2570  140.6390 C   0  0  0  0  0  3  0  0  0  0  0  0
  189.6880  175.4400  135.0810 C   0  0  1  0  0  3  0  0  0  0  0  0
  189.1590  174.0200  135.1350 C   0  0  0  0  0  1  0  0  0  0  0  0
  188.6690  176.3060  134.6850 O   0  0  0  0  0  1  0  0  0  0  0  0
  185.9750  178.7920  143.7260 N   0  0  2  0  0  0  0  0  0  0  0  0
  184.9200  178.8280  144.7350 C   0  0  0  0  0  2  0  0  0  0  0  0
  183.6960  179.4530  144.1040 C   0  0  1  0  0  3  0  0  0  0  0  0
  183.9160  179.3370  142.6160 C   0  0  0  0  0  2  0  0  0  0  0  0
  185.2530  178.6480  142.4640 C   0  0  0  0  0  2  0  0  0  0  0  0
  182.4590  178.6800  144.5230 C   0  0  0  0  0  2  0  0  0  0  0  0
  181.5670  178.5930  143.4550 O   0  0  0  0  0  0  0  0  0  0  0  0
  180.3050  178.6440  144.0480 C   0  0  0  0  0  1  0  0  0  0  0  0
  3  5  1  0  0  0  0
  4  1  1  6  0  0  0
  4 13  1  0  0  0  0
  4 10  1  0  0  0  0
  5 10  2  0  0  0  0
  5  7  1  0  0  0  0
  6 11  1  0  0  0  0
  7  6  2  0  0  0  0
  8  1  2  0  0  0  0
  8  3  1  0  0  0  0
  9  2  1  0  0  0  0
  9 11  2  0  0  0  0
 10  9  1  0  0  0  0
 12  2  1  0  0  0  0
 13 12  1  1  0  0  0
 14 23  1  0  0  0  0
 15 22  1  0  0  0  0
 16 17  1  0  0  0  0
 16 19  2  0  0  0  0
 17 18  1  0  0  0  0
 18 20  1  0  0  0  0
 18 14  2  0  0  0  0
 19 21  1  0  0  0  0
 19 20  1  0  0  0  0
 20 15  2  0  0  0  0
 22  8  1  0  0  0  0
 23 22  2  0  0  0  0
 24 25  1  1  0  0  0
 24 16  1  0  0  0  0
 26 24  1  0  0  0  0
 27 31  1  6  0  0  0
 27 13  1  0  0  0  0
 27 28  1  0  0  0  0
 29 32  1  1  0  0  0
 29 28  1  0  0  0  0
 30 29  1  0  0  0  0
 31 30  1  0  0  0  0
 33 34  1  0  0  0  0
 33 32  1  0  0  0  0
M  END
>  <MODEL>
9

>  <REMARK>
 VINA RESULT:      -8.9      3.255      7.660
  Name = 
  5 active torsions:
  status: ('A' for Active; 'I' for Inactive)
    1  A    between atoms: N_2  and  C_34
    2  A    between atoms: C_3  and  O_13
    3  A    between atoms: C_3  and  C_25
    4  A    between atoms: C_7  and  C_11
    5  A    between atoms: C_18  and  C_30
                            x       y       z     vdW  Elec       q    Type
                         _______ _______ _______ _____ _____    ______ ____

>  <TORSDO>
F 5

$$$$
