=
 OpenBabel10272400593D

 27 31  0  0  1  0  0  0  0  0999 V2000
  188.7520  178.8380  137.4610 C   0  0  0  0  0  2  0  0  0  0  0  0
  188.3120  178.0230  139.7670 C   0  0  0  0  0  0  0  0  0  0  0  0
  190.5200  177.0890  139.0740 N   0  0  0  0  0  2  0  0  0  0  0  0
  189.4960  177.9690  143.8900 C   0  0  0  0  0  2  0  0  0  0  0  0
  191.6030  179.1190  143.9550 O   0  0  0  0  0  1  0  0  0  0  0  0
  187.4760  178.4110  140.7690 N   0  0  0  0  0  0  0  0  0  0  0  0
  191.4560  177.2120  141.7660 C   0  0  0  0  0  2  0  0  0  0  0  0
  190.9660  174.3810  137.2250 C   0  0  0  0  0  1  0  0  0  0  0  0
  191.6270  176.8260  143.2340 C   0  0  0  0  0  2  0  0  0  0  0  0
  191.3690  176.2160  135.6900 O   0  0  0  0  0  0  0  0  0  0  0  0
  189.6220  177.5830  140.0810 C   0  0  0  0  0  0  0  0  0  0  0  0
  187.8710  178.1450  138.4030 N   0  0  0  0  0  0  0  0  0  0  0  0
  190.9990  177.8740  144.1460 C   0  0  2  0  0  3  0  0  0  0  0  0
  189.1440  178.0210  142.4290 C   0  0  0  0  0  0  0  0  0  0  0  0
  189.7900  177.8950  136.8560 C   0  0  2  0  0  3  0  0  0  0  0  0
  190.0370  177.5890  141.4250 C   0  0  0  0  0  0  0  0  0  0  0  0
  191.2010  175.8730  137.0560 C   0  0  1  0  0  3  0  0  0  0  0  0
  187.8550  178.4080  142.0710 C   0  0  0  0  0  3  0  0  0  0  0  0
  190.0930  176.3630  135.0970 C   0  0  0  0  0  2  0  0  0  0  0  0
  189.4090  177.5280  135.5410 O   0  0  0  0  0  0  0  0  0  0  0  0
  190.0990  176.6820  137.7410 C   0  0  1  0  0  3  0  0  0  0  0  0
  184.0940  176.6910  137.0880 C   0  0  0  0  0  3  0  0  0  0  0  0
  186.5900  177.6430  137.9680 C   0  0  0  0  0  0  0  0  0  0  0  0
  186.4990  176.4550  137.2220 C   0  0  0  0  0  3  0  0  0  0  0  0
  185.2590  175.9800  136.7870 C   0  0  0  0  0  3  0  0  0  0  0  0
  184.1700  177.8750  137.8240 C   0  0  0  0  0  3  0  0  0  0  0  0
  185.4110  178.3490  138.2600 C   0  0  0  0  0  3  0  0  0  0  0  0
  1 12  1  0  0  0  0
  2 11  2  0  0  0  0
  2  6  1  0  0  0  0
  3 11  1  0  0  0  0
  4 13  1  0  0  0  0
  6 18  2  0  0  0  0
  7  9  1  0  0  0  0
  9 13  1  0  0  0  0
 10 17  1  0  0  0  0
 11 16  1  0  0  0  0
 12  2  1  0  0  0  0
 13  5  1  6  0  0  0
 14  4  1  0  0  0  0
 15  1  1  1  0  0  0
 15 21  1  0  0  0  0
 16  7  1  0  0  0  0
 16 14  2  0  0  0  0
 17  8  1  6  0  0  0
 17 21  1  0  0  0  0
 18 14  1  0  0  0  0
 19 20  1  0  0  0  0
 19 10  1  0  0  0  0
 20 15  1  0  0  0  0
 21  3  1  1  0  0  0
 22 26  1  0  0  0  0
 23 27  1  0  0  0  0
 23 12  1  0  0  0  0
 24 23  2  0  0  0  0
 25 22  2  0  0  0  0
 25 24  1  0  0  0  0
 26 27  2  0  0  0  0
M  END
>  <MODEL>
1

>  <REMARK>
 VINA RESULT:      -7.9      0.000      0.000
  Name = 
  1 active torsions:
  status: ('A' for Active; 'I' for Inactive)
    1  A    between atoms: C_9  and  N_15
                            x       y       z     vdW  Elec       q    Type
                         _______ _______ _______ _____ _____    ______ ____

>  <TORSDO>
F 1

$$$$
=
 OpenBabel10272400593D

 27 31  0  0  1  0  0  0  0  0999 V2000
  187.8630  176.1660  143.6190 C   0  0  0  0  0  2  0  0  0  0  0  0
  187.0040  177.7620  141.9200 C   0  0  0  0  0  0  0  0  0  0  0  0
  189.4950  177.8480  141.8040 N   0  0  0  0  0  2  0  0  0  0  0  0
  186.6970  178.8480  137.7810 C   0  0  0  0  0  2  0  0  0  0  0  0
  188.1150  177.3000  136.6170 O   0  0  0  0  0  1  0  0  0  0  0  0
  185.8040  177.9350  141.3000 N   0  0  0  0  0  0  0  0  0  0  0  0
  189.3820  178.3740  139.0030 C   0  0  0  0  0  2  0  0  0  0  0  0
  191.4500  179.6190  143.8040 C   0  0  0  0  0  1  0  0  0  0  0  0
  189.1820  179.1580  137.7070 C   0  0  0  0  0  2  0  0  0  0  0  0
  191.6640  177.3480  144.6290 O   0  0  0  0  0  0  0  0  0  0  0  0
  188.2010  177.9420  141.1850 C   0  0  0  0  0  0  0  0  0  0  0  0
  187.0250  177.3190  143.2880 N   0  0  0  0  0  0  0  0  0  0  0  0
  187.9620  178.6480  136.9480 C   0  0  2  0  0  3  0  0  0  0  0  0
  186.8530  178.4160  139.2130 C   0  0  0  0  0  0  0  0  0  0  0  0
  189.3050  176.5770  143.9140 C   0  0  2  0  0  3  0  0  0  0  0  0
  188.1190  178.2690  139.8190 C   0  0  0  0  0  0  0  0  0  0  0  0
  191.1860  178.1430  143.5570 C   0  0  1  0  0  3  0  0  0  0  0  0
  185.7060  178.2640  139.9880 C   0  0  0  0  0  3  0  0  0  0  0  0
  190.6910  177.3350  145.6560 C   0  0  0  0  0  2  0  0  0  0  0  0
  189.5350  176.5820  145.3120 O   0  0  0  0  0  0  0  0  0  0  0  0
  189.7100  177.8950  143.2440 C   0  0  1  0  0  3  0  0  0  0  0  0
  184.6420  179.1520  146.3000 C   0  0  0  0  0  3  0  0  0  0  0  0
  186.2230  177.9520  144.3080 C   0  0  0  0  0  0  0  0  0  0  0  0
  186.7180  178.1130  145.6140 C   0  0  0  0  0  3  0  0  0  0  0  0
  185.9330  178.7110  146.6040 C   0  0  0  0  0  3  0  0  0  0  0  0
  184.1370  178.9940  145.0080 C   0  0  0  0  0  3  0  0  0  0  0  0
  184.9220  178.3960  144.0190 C   0  0  0  0  0  3  0  0  0  0  0  0
  2 12  1  0  0  0  0
  4 14  1  0  0  0  0
  6  2  1  0  0  0  0
  7 16  1  0  0  0  0
  9  7  1  0  0  0  0
 10 19  1  0  0  0  0
 11  3  1  0  0  0  0
 11  2  2  0  0  0  0
 12  1  1  0  0  0  0
 12 23  1  0  0  0  0
 13  5  1  1  0  0  0
 13  9  1  0  0  0  0
 13  4  1  0  0  0  0
 14 16  2  0  0  0  0
 14 18  1  0  0  0  0
 15  1  1  1  0  0  0
 15 20  1  0  0  0  0
 16 11  1  0  0  0  0
 17  8  1  1  0  0  0
 17 10  1  0  0  0  0
 18  6  2  0  0  0  0
 20 19  1  0  0  0  0
 21  3  1  6  0  0  0
 21 17  1  0  0  0  0
 21 15  1  0  0  0  0
 22 25  1  0  0  0  0
 23 24  1  0  0  0  0
 24 25  2  0  0  0  0
 26 22  2  0  0  0  0
 27 23  2  0  0  0  0
 27 26  1  0  0  0  0
M  END
>  <MODEL>
2

>  <REMARK>
 VINA RESULT:      -7.5      2.479      6.790
  Name = 
  1 active torsions:
  status: ('A' for Active; 'I' for Inactive)
    1  A    between atoms: C_9  and  N_15
                            x       y       z     vdW  Elec       q    Type
                         _______ _______ _______ _____ _____    ______ ____

>  <TORSDO>
F 1

$$$$
=
 OpenBabel10272400593D

 27 31  0  0  1  0  0  0  0  0999 V2000
  188.6760  175.9690  143.3450 C   0  0  0  0  0  2  0  0  0  0  0  0
  188.9820  176.9900  141.1010 C   0  0  0  0  0  0  0  0  0  0  0  0
  191.1700  177.1730  142.2880 N   0  0  0  0  0  2  0  0  0  0  0  0
  190.9660  176.8800  137.2990 C   0  0  0  0  0  2  0  0  0  0  0  0
  192.6170  175.1490  137.5010 O   0  0  0  0  0  1  0  0  0  0  0  0
  188.2990  176.9230  139.9250 N   0  0  0  0  0  0  0  0  0  0  0  0
  192.5720  176.9020  139.8190 C   0  0  0  0  0  2  0  0  0  0  0  0
  191.9790  179.5250  144.4710 C   0  0  0  0  0  1  0  0  0  0  0  0
  193.1500  177.2880  138.4590 C   0  0  0  0  0  2  0  0  0  0  0  0
  191.5070  177.5820  145.8450 O   0  0  0  0  0  0  0  0  0  0  0  0
  190.3980  177.0250  141.0840 C   0  0  0  0  0  0  0  0  0  0  0  0
  188.2500  176.9410  142.3380 N   0  0  0  0  0  0  0  0  0  0  0  0
  192.4520  176.5260  137.3370 C   0  0  2  0  0  3  0  0  0  0  0  0
  190.3170  176.8670  138.6550 C   0  0  0  0  0  0  0  0  0  0  0  0
  189.7910  176.5210  144.2320 C   0  0  2  0  0  3  0  0  0  0  0  0
  191.0660  176.9590  139.8470 C   0  0  0  0  0  0  0  0  0  0  0  0
  191.7330  178.0260  144.5170 C   0  0  1  0  0  3  0  0  0  0  0  0
  188.9260  176.8730  138.7240 C   0  0  0  0  0  3  0  0  0  0  0  0
  190.1480  177.8010  146.1720 C   0  0  0  0  0  2  0  0  0  0  0  0
  189.2660  176.9220  145.4850 O   0  0  0  0  0  0  0  0  0  0  0  0
  190.6140  177.6240  143.5570 C   0  0  1  0  0  3  0  0  0  0  0  0
  184.8530  179.4100  143.0300 C   0  0  0  0  0  3  0  0  0  0  0  0
  187.1050  177.7870  142.5800 C   0  0  0  0  0  0  0  0  0  0  0  0
  186.3600  177.6650  143.7660 C   0  0  0  0  0  3  0  0  0  0  0  0
  185.2420  178.4730  143.9910 C   0  0  0  0  0  3  0  0  0  0  0  0
  185.5820  179.5380  141.8460 C   0  0  0  0  0  3  0  0  0  0  0  0
  186.7000  178.7300  141.6210 C   0  0  0  0  0  3  0  0  0  0  0  0
  2 12  1  0  0  0  0
  4 13  1  0  0  0  0
  4 14  1  0  0  0  0
  6  2  2  0  0  0  0
  7 16  1  0  0  0  0
  9  7  1  0  0  0  0
 10 19  1  0  0  0  0
 11  2  1  0  0  0  0
 11  3  1  0  0  0  0
 12 23  1  0  0  0  0
 12  1  1  0  0  0  0
 13  5  1  1  0  0  0
 13  9  1  0  0  0  0
 14 18  2  0  0  0  0
 14 16  1  0  0  0  0
 15  1  1  6  0  0  0
 15 20  1  0  0  0  0
 16 11  2  0  0  0  0
 17  8  1  1  0  0  0
 17 10  1  0  0  0  0
 18  6  1  0  0  0  0
 20 19  1  0  0  0  0
 21  3  1  6  0  0  0
 21 15  1  0  0  0  0
 21 17  1  0  0  0  0
 22 25  1  0  0  0  0
 23 24  1  0  0  0  0
 24 25  2  0  0  0  0
 26 22  2  0  0  0  0
 27 26  1  0  0  0  0
 27 23  2  0  0  0  0
M  END
>  <MODEL>
3

>  <REMARK>
 VINA RESULT:      -7.1      2.545      6.275
  Name = 
  1 active torsions:
  status: ('A' for Active; 'I' for Inactive)
    1  A    between atoms: C_9  and  N_15
                            x       y       z     vdW  Elec       q    Type
                         _______ _______ _______ _____ _____    ______ ____

>  <TORSDO>
F 1

$$$$
=
 OpenBabel10272400593D

 27 31  0  0  1  0  0  0  0  0999 V2000
  188.9820  178.8120  138.8460 C   0  0  0  0  0  2  0  0  0  0  0  0
  190.8010  177.1200  138.8880 C   0  0  0  0  0  0  0  0  0  0  0  0
  189.3960  176.6270  136.8860 N   0  0  0  0  0  2  0  0  0  0  0  0
  194.2570  175.4510  136.9710 C   0  0  0  0  0  2  0  0  0  0  0  0
  194.3890  176.5530  134.8420 O   0  0  0  0  0  1  0  0  0  0  0  0
  192.0110  177.0410  139.5090 N   0  0  0  0  0  0  0  0  0  0  0  0
  191.6850  175.6870  135.4680 C   0  0  0  0  0  2  0  0  0  0  0  0
  186.5650  174.9130  136.9010 C   0  0  0  0  0  1  0  0  0  0  0  0
  192.8140  174.7480  135.0460 C   0  0  0  0  0  2  0  0  0  0  0  0
  185.8540  177.2250  136.7100 O   0  0  0  0  0  0  0  0  0  0  0  0
  190.6640  176.6400  137.5630 C   0  0  0  0  0  0  0  0  0  0  0  0
  189.7100  177.7670  139.5670 N   0  0  0  0  0  0  0  0  0  0  0  0
  194.1710  175.3160  135.4520 C   0  0  2  0  0  3  0  0  0  0  0  0
  193.0330  176.0750  137.5820 C   0  0  0  0  0  0  0  0  0  0  0  0
  187.8670  178.2320  137.9770 C   0  0  2  0  0  3  0  0  0  0  0  0
  191.7940  176.1170  136.9080 C   0  0  0  0  0  0  0  0  0  0  0  0
  186.9710  176.3540  136.6400 C   0  0  1  0  0  3  0  0  0  0  0  0
  193.1070  176.5270  138.8980 C   0  0  0  0  0  3  0  0  0  0  0  0
  185.6180  177.5520  138.0660 C   0  0  0  0  0  2  0  0  0  0  0  0
  186.6120  178.4130  138.6070 O   0  0  0  0  0  0  0  0  0  0  0  0
  188.1150  176.7770  137.5620 C   0  0  1  0  0  3  0  0  0  0  0  0
  188.6340  176.7670  143.5610 C   0  0  0  0  0  3  0  0  0  0  0  0
  189.3540  177.4370  140.9260 C   0  0  0  0  0  0  0  0  0  0  0  0
  190.1070  176.5020  141.6590 C   0  0  0  0  0  3  0  0  0  0  0  0
  189.7500  176.1710  142.9690 C   0  0  0  0  0  3  0  0  0  0  0  0
  187.8750  177.6930  142.8430 C   0  0  0  0  0  3  0  0  0  0  0  0
  188.2320  178.0240  141.5330 C   0  0  0  0  0  3  0  0  0  0  0  0
  1 12  1  0  0  0  0
  2  6  1  0  0  0  0
  2 12  1  0  0  0  0
  3 11  1  0  0  0  0
  4 14  1  0  0  0  0
  7 16  1  0  0  0  0
  9 13  1  0  0  0  0
  9  7  1  0  0  0  0
 10 19  1  0  0  0  0
 11  2  2  0  0  0  0
 12 23  1  0  0  0  0
 13  5  1  6  0  0  0
 13  4  1  0  0  0  0
 14 18  1  0  0  0  0
 15 20  1  0  0  0  0
 15  1  1  1  0  0  0
 16 11  1  0  0  0  0
 16 14  2  0  0  0  0
 17 10  1  0  0  0  0
 17  8  1  1  0  0  0
 17 21  1  0  0  0  0
 18  6  2  0  0  0  0
 19 20  1  0  0  0  0
 21  3  1  6  0  0  0
 21 15  1  0  0  0  0
 23 27  2  0  0  0  0
 23 24  1  0  0  0  0
 24 25  2  0  0  0  0
 25 22  1  0  0  0  0
 26 22  2  0  0  0  0
 27 26  1  0  0  0  0
M  END
>  <MODEL>
4

>  <REMARK>
 VINA RESULT:      -7.1      2.233      5.772
  Name = 
  1 active torsions:
  status: ('A' for Active; 'I' for Inactive)
    1  A    between atoms: C_9  and  N_15
                            x       y       z     vdW  Elec       q    Type
                         _______ _______ _______ _____ _____    ______ ____

>  <TORSDO>
F 1

$$$$
=
 OpenBabel10272400593D

 27 31  0  0  1  0  0  0  0  0999 V2000
  184.1070  179.6340  139.4300 C   0  0  0  0  0  2  0  0  0  0  0  0
  186.2710  178.4130  139.3970 C   0  0  0  0  0  0  0  0  0  0  0  0
  184.7870  177.3100  137.7210 N   0  0  0  0  0  2  0  0  0  0  0  0
  189.7590  177.2610  137.1820 C   0  0  0  0  0  2  0  0  0  0  0  0
  189.3550  178.0100  134.9370 O   0  0  0  0  0  1  0  0  0  0  0  0
  187.5310  178.7020  139.8230 N   0  0  0  0  0  0  0  0  0  0  0  0
  187.0400  176.6820  136.0880 C   0  0  0  0  0  2  0  0  0  0  0  0
  182.4770  175.0400  138.4020 C   0  0  0  0  0  1  0  0  0  0  0  0
  188.3000  175.9590  135.6150 C   0  0  0  0  0  2  0  0  0  0  0  0
  181.2120  177.0770  138.0350 O   0  0  0  0  0  0  0  0  0  0  0  0
  186.0890  177.7090  138.1820 C   0  0  0  0  0  0  0  0  0  0  0  0
  185.1490  178.9030  140.1530 N   0  0  0  0  0  0  0  0  0  0  0  0
  189.5190  176.8690  135.7250 C   0  0  2  0  0  3  0  0  0  0  0  0
  188.5070  177.6900  137.8960 C   0  0  0  0  0  0  0  0  0  0  0  0
  183.0650  178.6920  138.8300 C   0  0  2  0  0  3  0  0  0  0  0  0
  187.2210  177.3500  137.4270 C   0  0  0  0  0  0  0  0  0  0  0  0
  182.4880  176.4740  137.8990 C   0  0  1  0  0  3  0  0  0  0  0  0
  188.6340  178.3510  139.1160 C   0  0  0  0  0  3  0  0  0  0  0  0
  181.0750  177.5570  139.3590 C   0  0  0  0  0  2  0  0  0  0  0  0
  181.8920  178.6910  139.6230 O   0  0  0  0  0  0  0  0  0  0  0  0
  183.6020  177.2800  138.5680 C   0  0  1  0  0  3  0  0  0  0  0  0
  184.8950  178.4120  144.3720 C   0  0  0  0  0  3  0  0  0  0  0  0
  185.0560  178.7250  141.5820 C   0  0  0  0  0  0  0  0  0  0  0  0
  183.8950  179.1010  142.2790 C   0  0  0  0  0  3  0  0  0  0  0  0
  183.8140  178.9430  143.6660 C   0  0  0  0  0  3  0  0  0  0  0  0
  186.0570  178.0390  143.6930 C   0  0  0  0  0  3  0  0  0  0  0  0
  186.1380  178.1960  142.3070 C   0  0  0  0  0  3  0  0  0  0  0  0
  1 12  1  0  0  0  0
  2  6  1  0  0  0  0
  2 12  1  0  0  0  0
  3 11  1  0  0  0  0
  4 14  1  0  0  0  0
  7 16  1  0  0  0  0
  9 13  1  0  0  0  0
  9  7  1  0  0  0  0
 10 19  1  0  0  0  0
 11  2  2  0  0  0  0
 12 23  1  0  0  0  0
 13  5  1  6  0  0  0
 13  4  1  0  0  0  0
 14 18  1  0  0  0  0
 15  1  1  1  0  0  0
 15 20  1  0  0  0  0
 16 14  2  0  0  0  0
 16 11  1  0  0  0  0
 17 10  1  0  0  0  0
 17  8  1  1  0  0  0
 17 21  1  0  0  0  0
 18  6  2  0  0  0  0
 19 20  1  0  0  0  0
 21  3  1  6  0  0  0
 21 15  1  0  0  0  0
 23 24  2  0  0  0  0
 23 27  1  0  0  0  0
 24 25  1  0  0  0  0
 25 22  2  0  0  0  0
 26 22  1  0  0  0  0
 27 26  2  0  0  0  0
M  END
>  <MODEL>
5

>  <REMARK>
 VINA RESULT:      -6.5      3.200      6.753
  Name = 
  1 active torsions:
  status: ('A' for Active; 'I' for Inactive)
    1  A    between atoms: C_9  and  N_15
                            x       y       z     vdW  Elec       q    Type
                         _______ _______ _______ _____ _____    ______ ____

>  <TORSDO>
F 1

$$$$
=
 OpenBabel10272400593D

 27 31  0  0  1  0  0  0  0  0999 V2000
  189.4200  178.2100  138.3440 C   0  0  0  0  0  2  0  0  0  0  0  0
  187.0830  177.4280  138.0300 C   0  0  0  0  0  0  0  0  0  0  0  0
  187.2660  178.2510  140.3790 N   0  0  0  0  0  2  0  0  0  0  0  0
  182.9060  178.4030  137.9320 C   0  0  0  0  0  2  0  0  0  0  0  0
  182.7780  180.6920  138.6450 O   0  0  0  0  0  1  0  0  0  0  0  0
  186.3020  177.1770  136.9430 N   0  0  0  0  0  0  0  0  0  0  0  0
  184.5470  179.1130  140.3250 C   0  0  0  0  0  2  0  0  0  0  0  0
  188.4660  176.5210  142.9320 C   0  0  0  0  0  1  0  0  0  0  0  0
  183.0230  179.0230  140.3570 C   0  0  0  0  0  2  0  0  0  0  0  0
  190.2600  178.0490  142.3600 O   0  0  0  0  0  0  0  0  0  0  0  0
  186.5100  178.0320  139.1760 C   0  0  0  0  0  0  0  0  0  0  0  0
  188.4920  177.1470  137.9580 N   0  0  0  0  0  0  0  0  0  0  0  0
  182.4300  179.3870  138.9990 C   0  0  2  0  0  3  0  0  0  0  0  0
  184.3840  178.1280  137.9930 C   0  0  0  0  0  0  0  0  0  0  0  0
  189.6790  178.2210  139.8490 C   0  0  2  0  0  3  0  0  0  0  0  0
  185.1490  178.3870  139.1490 C   0  0  0  0  0  0  0  0  0  0  0  0
  188.8910  177.7500  142.1460 C   0  0  1  0  0  3  0  0  0  0  0  0
  184.9850  177.4980  136.9060 C   0  0  0  0  0  3  0  0  0  0  0  0
  191.0420  177.2450  141.4970 C   0  0  0  0  0  2  0  0  0  0  0  0
  190.9350  177.6320  140.1330 O   0  0  0  0  0  0  0  0  0  0  0  0
  188.5380  177.6030  140.6660 C   0  0  1  0  0  3  0  0  0  0  0  0
  189.9740  173.3930  136.6060 C   0  0  0  0  0  3  0  0  0  0  0  0
  188.9930  175.8780  137.4860 C   0  0  0  0  0  0  0  0  0  0  0  0
  188.1090  174.8540  137.1020 C   0  0  0  0  0  3  0  0  0  0  0  0
  188.5960  173.6200  136.6620 C   0  0  0  0  0  3  0  0  0  0  0  0
  190.8630  174.3990  136.9900 C   0  0  0  0  0  3  0  0  0  0  0  0
  190.3750  175.6330  137.4300 C   0  0  0  0  0  3  0  0  0  0  0  0
  2 11  1  0  0  0  0
  4 14  1  0  0  0  0
  4 13  1  0  0  0  0
  6  2  2  0  0  0  0
  7  9  1  0  0  0  0
 11  3  1  0  0  0  0
 12  2  1  0  0  0  0
 12  1  1  0  0  0  0
 13  5  1  6  0  0  0
 13  9  1  0  0  0  0
 14 16  1  0  0  0  0
 15  1  1  6  0  0  0
 15 20  1  0  0  0  0
 15 21  1  0  0  0  0
 16 11  2  0  0  0  0
 16  7  1  0  0  0  0
 17 10  1  0  0  0  0
 17  8  1  1  0  0  0
 18  6  1  0  0  0  0
 18 14  2  0  0  0  0
 19 10  1  0  0  0  0
 20 19  1  0  0  0  0
 21  3  1  1  0  0  0
 21 17  1  0  0  0  0
 22 25  2  0  0  0  0
 22 26  1  0  0  0  0
 23 12  1  0  0  0  0
 24 23  2  0  0  0  0
 25 24  1  0  0  0  0
 26 27  2  0  0  0  0
 27 23  1  0  0  0  0
M  END
>  <MODEL>
6

>  <REMARK>
 VINA RESULT:      -6.3      2.316      5.992
  Name = 
  1 active torsions:
  status: ('A' for Active; 'I' for Inactive)
    1  A    between atoms: C_9  and  N_15
                            x       y       z     vdW  Elec       q    Type
                         _______ _______ _______ _____ _____    ______ ____

>  <TORSDO>
F 1

$$$$
=
 OpenBabel10272400593D

 27 31  0  0  1  0  0  0  0  0999 V2000
  188.8160  177.7920  136.6660 C   0  0  0  0  0  2  0  0  0  0  0  0
  186.4620  177.1240  137.1000 C   0  0  0  0  0  0  0  0  0  0  0  0
  187.3300  178.1410  139.2070 N   0  0  0  0  0  2  0  0  0  0  0  0
  182.4630  178.3310  138.0740 C   0  0  0  0  0  2  0  0  0  0  0  0
  182.6130  180.6780  138.5570 O   0  0  0  0  0  1  0  0  0  0  0  0
  185.3980  176.8230  136.3060 N   0  0  0  0  0  0  0  0  0  0  0  0
  184.7370  179.1540  139.8280 C   0  0  0  0  0  2  0  0  0  0  0  0
  189.1520  176.5790  141.4860 C   0  0  0  0  0  1  0  0  0  0  0  0
  183.2820  179.1570  140.2930 C   0  0  0  0  0  2  0  0  0  0  0  0
  190.7570  177.9420  140.2820 O   0  0  0  0  0  0  0  0  0  0  0  0
  186.2580  177.8610  138.2930 C   0  0  0  0  0  0  0  0  0  0  0  0
  187.7830  176.7550  136.6660 N   0  0  0  0  0  0  0  0  0  0  0  0
  182.3400  179.4320  139.1260 C   0  0  2  0  0  3  0  0  0  0  0  0
  183.8870  177.9760  137.7480 C   0  0  0  0  0  0  0  0  0  0  0  0
  189.4910  177.9220  138.0300 C   0  0  2  0  0  3  0  0  0  0  0  0
  184.9570  178.2910  138.6110 C   0  0  0  0  0  0  0  0  0  0  0  0
  189.3740  177.7050  140.4910 C   0  0  1  0  0  3  0  0  0  0  0  0
  184.1350  177.2170  136.6060 C   0  0  0  0  0  3  0  0  0  0  0  0
  191.2360  177.0180  139.3220 C   0  0  0  0  0  2  0  0  0  0  0  0
  190.7580  177.2880  138.0100 O   0  0  0  0  0  0  0  0  0  0  0  0
  188.6110  177.4480  139.1920 C   0  0  1  0  0  3  0  0  0  0  0  0
  188.6490  172.8200  135.2970 C   0  0  0  0  0  3  0  0  0  0  0  0
  188.0900  175.4220  136.2060 C   0  0  0  0  0  0  0  0  0  0  0  0
  188.6530  175.2130  134.9340 C   0  0  0  0  0  3  0  0  0  0  0  0
  188.9330  173.9200  134.4840 C   0  0  0  0  0  3  0  0  0  0  0  0
  188.0850  173.0130  136.5590 C   0  0  0  0  0  3  0  0  0  0  0  0
  187.8050  174.3060  137.0100 C   0  0  0  0  0  3  0  0  0  0  0  0
  1 12  1  0  0  0  0
  2 11  1  0  0  0  0
  4 13  1  0  0  0  0
  6 18  1  0  0  0  0
  6  2  2  0  0  0  0
  7  9  1  0  0  0  0
 10 17  1  0  0  0  0
 11 16  2  0  0  0  0
 11  3  1  0  0  0  0
 12  2  1  0  0  0  0
 13  5  1  6  0  0  0
 13  9  1  0  0  0  0
 14  4  1  0  0  0  0
 14 16  1  0  0  0  0
 15  1  1  6  0  0  0
 15 21  1  0  0  0  0
 16  7  1  0  0  0  0
 17  8  1  1  0  0  0
 18 14  2  0  0  0  0
 19 10  1  0  0  0  0
 20 15  1  0  0  0  0
 20 19  1  0  0  0  0
 21  3  1  1  0  0  0
 21 17  1  0  0  0  0
 22 26  1  0  0  0  0
 23 12  1  0  0  0  0
 23 27  1  0  0  0  0
 24 23  2  0  0  0  0
 25 24  1  0  0  0  0
 25 22  2  0  0  0  0
 26 27  2  0  0  0  0
M  END
>  <MODEL>
7

>  <REMARK>
 VINA RESULT:      -6.0      2.605      5.727
  Name = 
  1 active torsions:
  status: ('A' for Active; 'I' for Inactive)
    1  A    between atoms: C_9  and  N_15
                            x       y       z     vdW  Elec       q    Type
                         _______ _______ _______ _____ _____    ______ ____

>  <TORSDO>
F 1

$$$$
=
 OpenBabel10272400593D

 27 31  0  0  1  0  0  0  0  0999 V2000
  185.9080  177.2990  135.6150 C   0  0  0  0  0  2  0  0  0  0  0  0
  184.4340  176.4570  137.4300 C   0  0  0  0  0  0  0  0  0  0  0  0
  185.8860  178.2220  138.4320 N   0  0  0  0  0  2  0  0  0  0  0  0
  181.3290  177.2900  140.2700 C   0  0  0  0  0  2  0  0  0  0  0  0
  180.9730  179.6610  140.1360 O   0  0  0  0  0  1  0  0  0  0  0  0
  183.2670  175.7570  137.4580 N   0  0  0  0  0  0  0  0  0  0  0  0
  183.7960  178.9740  140.2220 C   0  0  0  0  0  2  0  0  0  0  0  0
  188.9860  177.7800  139.5040 C   0  0  0  0  0  1  0  0  0  0  0  0
  182.8570  178.9060  141.4240 C   0  0  0  0  0  2  0  0  0  0  0  0
  189.2540  178.9060  137.3720 O   0  0  0  0  0  0  0  0  0  0  0  0
  184.6450  177.5010  138.3640 C   0  0  0  0  0  0  0  0  0  0  0  0
  185.3940  176.1730  136.3970 N   0  0  0  0  0  0  0  0  0  0  0  0
  181.4230  178.6410  140.9770 C   0  0  2  0  0  3  0  0  0  0  0  0
  182.4220  177.0700  139.2610 C   0  0  0  0  0  0  0  0  0  0  0  0
  187.1020  177.9650  136.2970 C   0  0  2  0  0  3  0  0  0  0  0  0
  183.6240  177.8080  139.2830 C   0  0  0  0  0  0  0  0  0  0  0  0
  188.3170  178.5430  138.3730 C   0  0  1  0  0  3  0  0  0  0  0  0
  182.2790  176.0290  138.3460 C   0  0  0  0  0  3  0  0  0  0  0  0
  189.4390  177.8060  136.5020 C   0  0  0  0  0  2  0  0  0  0  0  0
  188.3090  177.5600  135.6750 O   0  0  0  0  0  0  0  0  0  0  0  0
  187.1240  177.7650  137.8170 C   0  0  1  0  0  3  0  0  0  0  0  0
  186.6800  172.2160  135.5040 C   0  0  0  0  0  3  0  0  0  0  0  0
  185.8180  174.8260  136.0990 C   0  0  0  0  0  0  0  0  0  0  0  0
  186.4320  174.0320  137.0840 C   0  0  0  0  0  3  0  0  0  0  0  0
  186.8580  172.7340  136.7890 C   0  0  0  0  0  3  0  0  0  0  0  0
  186.0760  172.9950  134.5150 C   0  0  0  0  0  3  0  0  0  0  0  0
  185.6500  174.2930  134.8100 C   0  0  0  0  0  3  0  0  0  0  0  0
  1 12  1  0  0  0  0
  2  6  2  0  0  0  0
  2 11  1  0  0  0  0
  4 13  1  0  0  0  0
  6 18  1  0  0  0  0
  7  9  1  0  0  0  0
 10 17  1  0  0  0  0
 11  3  1  0  0  0  0
 11 16  2  0  0  0  0
 12  2  1  0  0  0  0
 13  5  1  6  0  0  0
 13  9  1  0  0  0  0
 14 16  1  0  0  0  0
 14  4  1  0  0  0  0
 15  1  1  6  0  0  0
 15 21  1  0  0  0  0
 16  7  1  0  0  0  0
 17  8  1  1  0  0  0
 18 14  2  0  0  0  0
 19 10  1  0  0  0  0
 20 15  1  0  0  0  0
 20 19  1  0  0  0  0
 21 17  1  0  0  0  0
 21  3  1  1  0  0  0
 22 25  1  0  0  0  0
 23 12  1  0  0  0  0
 23 24  1  0  0  0  0
 25 24  2  0  0  0  0
 26 27  1  0  0  0  0
 26 22  2  0  0  0  0
 27 23  2  0  0  0  0
M  END
>  <MODEL>
8

>  <REMARK>
 VINA RESULT:      -5.7      3.264      5.938
  Name = 
  1 active torsions:
  status: ('A' for Active; 'I' for Inactive)
    1  A    between atoms: C_9  and  N_15
                            x       y       z     vdW  Elec       q    Type
                         _______ _______ _______ _____ _____    ______ ____

>  <TORSDO>
F 1

$$$$
=
 OpenBabel10272400593D

 27 31  0  0  1  0  0  0  0  0999 V2000
  188.8800  179.0050  139.4700 C   0  0  0  0  0  2  0  0  0  0  0  0
  186.6130  178.2280  140.1240 C   0  0  0  0  0  0  0  0  0  0  0  0
  188.0640  178.0180  142.1430 N   0  0  0  0  0  2  0  0  0  0  0  0
  183.1440  178.8010  142.5830 C   0  0  0  0  0  2  0  0  0  0  0  0
  183.7310  180.5710  144.0960 O   0  0  0  0  0  1  0  0  0  0  0  0
  185.3660  178.3850  139.5990 N   0  0  0  0  0  0  0  0  0  0  0  0
  185.8460  178.5930  143.8410 C   0  0  0  0  0  2  0  0  0  0  0  0
  190.1070  175.4940  142.7860 C   0  0  0  0  0  1  0  0  0  0  0  0
  184.5470  178.3700  144.6140 C   0  0  0  0  0  2  0  0  0  0  0  0
  191.5800  177.2680  142.0310 O   0  0  0  0  0  0  0  0  0  0  0  0
  186.7860  178.2540  141.5300 C   0  0  0  0  0  0  0  0  0  0  0  0
  187.7370  178.1220  139.2340 N   0  0  0  0  0  0  0  0  0  0  0  0
  183.4170  179.2110  144.0290 C   0  0  2  0  0  3  0  0  0  0  0  0
  184.3950  178.6510  141.7610 C   0  0  0  0  0  0  0  0  0  0  0  0
  189.8540  178.4130  140.4870 C   0  0  2  0  0  3  0  0  0  0  0  0
  185.6640  178.4720  142.3500 C   0  0  0  0  0  0  0  0  0  0  0  0
  190.2600  176.9690  142.4540 C   0  0  1  0  0  3  0  0  0  0  0  0
  184.2720  178.5810  140.3750 C   0  0  0  0  0  3  0  0  0  0  0  0
  191.6960  176.9610  140.6550 C   0  0  0  0  0  2  0  0  0  0  0  0
  190.9810  177.8670  139.8240 O   0  0  0  0  0  0  0  0  0  0  0  0
  189.1970  177.4190  141.4510 C   0  0  1  0  0  3  0  0  0  0  0  0
  187.7710  175.4560  135.9160 C   0  0  0  0  0  3  0  0  0  0  0  0
  187.7410  177.2090  138.1150 C   0  0  0  0  0  0  0  0  0  0  0  0
  188.6340  176.1240  138.0770 C   0  0  0  0  0  3  0  0  0  0  0  0
  188.6480  175.2520  136.9850 C   0  0  0  0  0  3  0  0  0  0  0  0
  186.8820  176.5320  135.9400 C   0  0  0  0  0  3  0  0  0  0  0  0
  186.8690  177.4050  137.0320 C   0  0  0  0  0  3  0  0  0  0  0  0
  2 11  1  0  0  0  0
  4 13  1  0  0  0  0
  6  2  2  0  0  0  0
  6 18  1  0  0  0  0
  7  9  1  0  0  0  0
 10 17  1  0  0  0  0
 11  3  1  0  0  0  0
 11 16  2  0  0  0  0
 12  1  1  0  0  0  0
 12  2  1  0  0  0  0
 13  5  1  6  0  0  0
 13  9  1  0  0  0  0
 14 16  1  0  0  0  0
 14  4  1  0  0  0  0
 15  1  1  6  0  0  0
 15 21  1  0  0  0  0
 16  7  1  0  0  0  0
 17  8  1  6  0  0  0
 18 14  2  0  0  0  0
 19 10  1  0  0  0  0
 20 15  1  0  0  0  0
 20 19  1  0  0  0  0
 21  3  1  1  0  0  0
 21 17  1  0  0  0  0
 22 26  2  0  0  0  0
 22 25  1  0  0  0  0
 23 12  1  0  0  0  0
 24 23  1  0  0  0  0
 25 24  2  0  0  0  0
 26 27  1  0  0  0  0
 27 23  2  0  0  0  0
M  END
>  <MODEL>
9

>  <REMARK>
 VINA RESULT:      -5.7      2.880      4.715
  Name = 
  1 active torsions:
  status: ('A' for Active; 'I' for Inactive)
    1  A    between atoms: C_9  and  N_15
                            x       y       z     vdW  Elec       q    Type
                         _______ _______ _______ _____ _____    ______ ____

>  <TORSDO>
F 1

$$$$
