=
 OpenBabel10272413593D

 30 34  0  0  1  0  0  0  0  0999 V2000
  187.5070  177.9930  138.0140 C   0  0  1  0  0  3  0  0  0  0  0  0
  189.9670  176.7670  135.4570 C   0  0  0  0  0  2  0  0  0  0  0  0
  187.2020  173.1010  136.9760 C   0  0  0  0  0  1  0  0  0  0  0  0
  185.9630  178.1180  137.8180 C   0  0  2  0  0  3  0  0  0  0  0  0
  187.9360  177.8440  139.4810 C   0  0  0  0  0  2  0  0  0  0  0  0
  184.9740  179.2710  141.2320 N   0  0  0  0  0  2  0  0  0  0  0  0
  181.8880  179.8710  138.4860 C   0  0  0  0  0  2  0  0  0  0  0  0
  185.7850  178.5970  140.2640 C   0  0  0  0  0  0  0  0  0  0  0  0
  183.8880  177.5020  136.4630 C   0  0  0  0  0  2  0  0  0  0  0  0
  184.9460  175.0710  137.3610 O   0  0  0  0  0  1  0  0  0  0  0  0
  187.0770  178.6050  140.3850 N   0  0  0  0  0  0  0  0  0  0  0  0
  185.1590  177.8580  139.1080 C   0  0  1  0  0  3  0  0  0  0  0  0
  189.7490  175.5190  134.8630 O   0  0  0  0  0  0  0  0  0  0  0  0
  183.1190  177.2850  137.7720 C   0  0  2  0  0  3  0  0  0  0  0  0
  181.3460  179.0330  137.3300 C   0  0  0  0  0  2  0  0  0  0  0  0
  188.6340  177.3860  135.8450 C   0  0  0  0  0  2  0  0  0  0  0  0
  187.2690  175.6080  137.1570 C   0  0  1  0  0  3  0  0  0  0  0  0
  190.3120  174.5670  135.7270 C   0  0  0  0  0  2  0  0  0  0  0  0
  188.1610  176.8720  137.2040 C   0  0  2  0  0  3  0  0  0  0  0  0
  185.9400  177.9090  135.4550 F   0  0  0  0  0  0  0  0  0  0  0  0
  185.8420  175.8510  136.6230 C   0  0  2  0  0  3  0  0  0  0  0  0
  185.4130  177.3390  136.5980 C   0  0  1  0  0  0  0  0  0  0  0  0
  181.6240  177.5480  137.5690 C   0  0  0  0  0  2  0  0  0  0  0  0
  183.3880  179.6450  138.6400 C   0  0  0  0  0  2  0  0  0  0  0  0
  187.9190  174.3610  136.5270 C   0  0  1  0  0  3  0  0  0  0  0  0
  189.3910  174.2390  136.9070 C   0  0  0  0  0  2  0  0  0  0  0  0
  183.6680  178.1590  138.9070 C   0  0  2  0  0  3  0  0  0  0  0  0
  185.5230  179.9630  142.2590 O   0  0  0  0  0  0  0  0  0  0  0  0
  184.8480  179.5160  143.3960 C   0  0  0  0  0  2  0  0  0  0  0  0
  185.5670  178.3160  143.9730 C   0  0  0  0  0  1  0  0  0  0  0  0
  1  5  1  1  0  0  0
  2 16  1  0  0  0  0
  4  1  1  0  0  0  0
  4 12  1  0  0  0  0
  5 11  1  0  0  0  0
  6 28  1  0  0  0  0
  7 24  1  0  0  0  0
  8 11  2  0  0  0  0
  8  6  1  0  0  0  0
  9 22  1  0  0  0  0
  9 14  1  0  0  0  0
 12  8  1  0  0  0  0
 13  2  1  0  0  0  0
 13 18  1  0  0  0  0
 14 27  1  0  0  0  0
 15 23  1  0  0  0  0
 15  7  1  0  0  0  0
 16 19  1  0  0  0  0
 17 19  1  0  0  0  0
 18 26  1  0  0  0  0
 19  1  1  0  0  0  0
 20 22  1  0  0  0  0
 21 17  1  0  0  0  0
 21 10  1  0  0  0  0
 22 21  1  0  0  0  0
 22  4  1  0  0  0  0
 23 14  1  0  0  0  0
 24 27  1  0  0  0  0
 25 26  1  0  0  0  0
 25  3  1  0  0  0  0
 25 17  1  0  0  0  0
 27 12  1  0  0  0  0
 28 29  1  0  0  0  0
 29 30  1  0  0  0  0
M  END
>  <MODEL>
1

>  <REMARK>
 VINA RESULT:      -6.5      0.000      0.000
  Name = 
  2 active torsions:
  status: ('A' for Active; 'I' for Inactive)
    1  A    between atoms: N_6  and  O_21
    2  A    between atoms: C_9  and  O_21
                            x       y       z     vdW  Elec       q    Type
                         _______ _______ _______ _____ _____    ______ ____

>  <TORSDO>
F 2

$$$$
=
 OpenBabel10272413593D

 30 34  0  0  1  0  0  0  0  0999 V2000
  192.4380  176.6660  137.5480 C   0  0  1  0  0  3  0  0  0  0  0  0
  195.4760  176.0360  135.4340 C   0  0  0  0  0  2  0  0  0  0  0  0
  193.1260  171.8840  136.2210 C   0  0  0  0  0  1  0  0  0  0  0  0
  190.9540  176.5710  137.0750 C   0  0  2  0  0  3  0  0  0  0  0  0
  192.6220  176.4660  139.0600 C   0  0  0  0  0  2  0  0  0  0  0  0
  189.2050  177.2820  140.3000 N   0  0  0  0  0  2  0  0  0  0  0  0
  186.5930  177.6260  137.0620 C   0  0  0  0  0  2  0  0  0  0  0  0
  190.2730  176.8190  139.4660 C   0  0  0  0  0  0  0  0  0  0  0  0
  189.2780  175.7590  135.3280 C   0  0  0  0  0  2  0  0  0  0  0  0
  190.5460  173.4510  136.2810 O   0  0  0  0  0  1  0  0  0  0  0  0
  191.5040  177.0130  139.8260 N   0  0  0  0  0  0  0  0  0  0  0  0
  189.9890  176.0890  138.1770 C   0  0  1  0  0  3  0  0  0  0  0  0
  195.5730  174.8220  134.7470 O   0  0  0  0  0  0  0  0  0  0  0  0
  188.3370  175.3220  136.4570 C   0  0  2  0  0  3  0  0  0  0  0  0
  186.4070  176.8120  135.7840 C   0  0  0  0  0  2  0  0  0  0  0  0
  194.0120  176.4130  135.5980 C   0  0  0  0  0  2  0  0  0  0  0  0
  192.7480  174.3490  136.5400 C   0  0  1  0  0  3  0  0  0  0  0  0
  196.1230  173.9000  135.6500 C   0  0  0  0  0  2  0  0  0  0  0  0
  193.3990  175.7260  136.8170 C   0  0  2  0  0  3  0  0  0  0  0  0
  191.3810  176.5520  134.7420 F   0  0  0  0  0  0  0  0  0  0  0  0
  191.4170  174.4150  135.7630 C   0  0  2  0  0  3  0  0  0  0  0  0
  190.7610  175.8180  135.7360 C   0  0  1  0  0  0  0  0  0  0  0  0
  186.8790  175.3720  135.9940 C   0  0  0  0  0  2  0  0  0  0  0  0
  188.0590  177.6180  137.4800 C   0  0  0  0  0  2  0  0  0  0  0  0
  193.6940  173.2700  135.9790 C   0  0  1  0  0  3  0  0  0  0  0  0
  195.0760  173.3420  136.6190 C   0  0  0  0  0  2  0  0  0  0  0  0
  188.5270  176.1750  137.7180 C   0  0  2  0  0  3  0  0  0  0  0  0
  189.4450  177.9650  141.4450 O   0  0  0  0  0  0  0  0  0  0  0  0
  188.5610  177.4210  142.3790 C   0  0  0  0  0  2  0  0  0  0  0  0
  189.1620  176.1640  142.9720 C   0  0  0  0  0  1  0  0  0  0  0  0
  1  5  1  1  0  0  0
  2 16  1  0  0  0  0
  4  1  1  0  0  0  0
  4 12  1  0  0  0  0
  5 11  1  0  0  0  0
  6 28  1  0  0  0  0
  7 24  1  0  0  0  0
  8 11  2  0  0  0  0
  8  6  1  0  0  0  0
  9 22  1  0  0  0  0
  9 14  1  0  0  0  0
 12  8  1  0  0  0  0
 13  2  1  0  0  0  0
 13 18  1  0  0  0  0
 14 27  1  0  0  0  0
 15 23  1  0  0  0  0
 15  7  1  0  0  0  0
 16 19  1  0  0  0  0
 17 19  1  0  0  0  0
 18 26  1  0  0  0  0
 19  1  1  0  0  0  0
 20 22  1  0  0  0  0
 21 10  1  0  0  0  0
 21 17  1  0  0  0  0
 22 21  1  0  0  0  0
 22  4  1  0  0  0  0
 23 14  1  0  0  0  0
 24 27  1  0  0  0  0
 25  3  1  0  0  0  0
 25 17  1  0  0  0  0
 25 26  1  0  0  0  0
 27 12  1  0  0  0  0
 28 29  1  0  0  0  0
 29 30  1  0  0  0  0
M  END
>  <MODEL>
2

>  <REMARK>
 VINA RESULT:      -6.0      3.448      5.416
  Name = 
  2 active torsions:
  status: ('A' for Active; 'I' for Inactive)
    1  A    between atoms: N_6  and  O_21
    2  A    between atoms: C_9  and  O_21
                            x       y       z     vdW  Elec       q    Type
                         _______ _______ _______ _____ _____    ______ ____

>  <TORSDO>
F 2

$$$$
=
 OpenBabel10272413593D

 30 34  0  0  1  0  0  0  0  0999 V2000
  186.1700  178.1300  138.0240 C   0  0  1  0  0  3  0  0  0  0  0  0
  187.9820  177.2250  134.8640 C   0  0  0  0  0  2  0  0  0  0  0  0
  186.4200  173.2170  137.0740 C   0  0  0  0  0  1  0  0  0  0  0  0
  184.6350  177.9900  138.2760 C   0  0  2  0  0  3  0  0  0  0  0  0
  187.0130  178.1130  139.3080 C   0  0  0  0  0  2  0  0  0  0  0  0
  184.4650  179.1010  141.8390 N   0  0  0  0  0  2  0  0  0  0  0  0
  180.6760  179.0710  140.0880 C   0  0  0  0  0  2  0  0  0  0  0  0
  185.0730  178.5320  140.6750 C   0  0  0  0  0  0  0  0  0  0  0  0
  182.3980  176.9870  137.5610 C   0  0  0  0  0  2  0  0  0  0  0  0
  184.0640  174.8010  138.1010 O   0  0  0  0  0  1  0  0  0  0  0  0
  186.3260  178.7570  140.4250 N   0  0  0  0  0  0  0  0  0  0  0  0
  184.2830  177.6530  139.7380 C   0  0  1  0  0  3  0  0  0  0  0  0
  187.8210  175.9360  134.3460 O   0  0  0  0  0  0  0  0  0  0  0  0
  182.0770  176.6980  139.0320 C   0  0  2  0  0  3  0  0  0  0  0  0
  179.9820  178.1110  139.1270 C   0  0  0  0  0  2  0  0  0  0  0  0
  186.7270  177.6310  135.6190 C   0  0  0  0  0  2  0  0  0  0  0  0
  186.1080  175.7060  137.2500 C   0  0  1  0  0  3  0  0  0  0  0  0
  188.7570  175.1250  135.0060 C   0  0  0  0  0  2  0  0  0  0  0  0
  186.7500  177.1010  137.0520 C   0  0  2  0  0  3  0  0  0  0  0  0
  183.9850  177.6860  136.0150 F   0  0  0  0  0  0  0  0  0  0  0  0
  184.5690  175.6880  137.1450 C   0  0  2  0  0  3  0  0  0  0  0  0
  183.9050  177.0830  137.2560 C   0  0  1  0  0  0  0  0  0  0  0  0
  180.5640  176.7020  139.2650 C   0  0  0  0  0  2  0  0  0  0  0  0
  182.1740  179.1030  139.8080 C   0  0  0  0  0  2  0  0  0  0  0  0
  186.7570  174.5590  136.4510 C   0  0  1  0  0  3  0  0  0  0  0  0
  188.2750  174.6970  136.3960 C   0  0  0  0  0  2  0  0  0  0  0  0
  182.7660  177.6950  139.9720 C   0  0  2  0  0  3  0  0  0  0  0  0
  185.1550  179.9150  142.6740 O   0  0  0  0  0  0  0  0  0  0  0  0
  184.8750  179.4370  143.9560 C   0  0  0  0  0  2  0  0  0  0  0  0
  183.4040  179.0980  144.0580 C   0  0  0  0  0  1  0  0  0  0  0  0
  1  4  1  0  0  0  0
  1  5  1  1  0  0  0
  2 16  1  0  0  0  0
  4 12  1  0  0  0  0
  5 11  1  0  0  0  0
  6 28  1  0  0  0  0
  8  6  1  0  0  0  0
  9 14  1  0  0  0  0
 11  8  2  0  0  0  0
 12 27  1  0  0  0  0
 12  8  1  0  0  0  0
 13  2  1  0  0  0  0
 13 18  1  0  0  0  0
 14 23  1  0  0  0  0
 14 27  1  0  0  0  0
 15 23  1  0  0  0  0
 15  7  1  0  0  0  0
 16 19  1  0  0  0  0
 18 26  1  0  0  0  0
 19 17  1  0  0  0  0
 19  1  1  0  0  0  0
 20 22  1  0  0  0  0
 21 17  1  0  0  0  0
 21 22  1  0  0  0  0
 21 10  1  0  0  0  0
 22  9  1  0  0  0  0
 22  4  1  0  0  0  0
 24 27  1  0  0  0  0
 24  7  1  0  0  0  0
 25  3  1  0  0  0  0
 25 17  1  0  0  0  0
 26 25  1  0  0  0  0
 28 29  1  0  0  0  0
 29 30  1  0  0  0  0
M  END
>  <MODEL>
3

>  <REMARK>
 VINA RESULT:      -5.8      1.370      1.573
  Name = 
  2 active torsions:
  status: ('A' for Active; 'I' for Inactive)
    1  A    between atoms: N_6  and  O_21
    2  A    between atoms: C_9  and  O_21
                            x       y       z     vdW  Elec       q    Type
                         _______ _______ _______ _____ _____    ______ ____

>  <TORSDO>
F 2

$$$$
=
 OpenBabel10272413593D

 30 34  0  0  1  0  0  0  0  0999 V2000
  181.8420  177.3930  139.2970 C   0  0  1  0  0  3  0  0  0  0  0  0
  179.9830  179.8160  141.4810 C   0  0  0  0  0  2  0  0  0  0  0  0
  184.1170  178.5050  143.6200 C   0  0  0  0  0  1  0  0  0  0  0  0
  183.1750  177.6780  138.5360 C   0  0  2  0  0  3  0  0  0  0  0  0
  181.6010  175.9050  139.5920 C   0  0  0  0  0  2  0  0  0  0  0  0
  183.7830  174.3150  137.0260 N   0  0  0  0  0  2  0  0  0  0  0  0
  186.1650  177.2300  135.2220 C   0  0  0  0  0  2  0  0  0  0  0  0
  183.2770  175.2410  137.9920 C   0  0  0  0  0  0  0  0  0  0  0  0
  185.2340  179.1590  138.2400 C   0  0  0  0  0  2  0  0  0  0  0  0
  185.3520  178.2290  140.8780 O   0  0  0  0  0  1  0  0  0  0  0  0
  182.1110  175.0450  138.5270 N   0  0  0  0  0  0  0  0  0  0  0  0
  184.0870  176.4410  138.4160 C   0  0  1  0  0  3  0  0  0  0  0  0
  180.6710  180.4360  142.5290 O   0  0  0  0  0  0  0  0  0  0  0  0
  186.0980  177.9000  138.0950 C   0  0  2  0  0  3  0  0  0  0  0  0
  186.9400  178.4240  135.7690 C   0  0  0  0  0  2  0  0  0  0  0  0
  180.9510  179.4990  140.3520 C   0  0  0  0  0  2  0  0  0  0  0  0
  183.0120  178.2910  141.3720 C   0  0  1  0  0  3  0  0  0  0  0  0
  180.6130  179.5510  143.6170 C   0  0  0  0  0  2  0  0  0  0  0  0
  181.6750  178.1770  140.6000 C   0  0  2  0  0  3  0  0  0  0  0  0
  183.1460  180.0400  138.7490 F   0  0  0  0  0  0  0  0  0  0  0  0
  184.1700  178.9040  140.5580 C   0  0  2  0  0  3  0  0  0  0  0  0
  183.9300  178.9370  139.0280 C   0  0  1  0  0  0  0  0  0  0  0  0
  187.3280  178.1870  137.2300 C   0  0  0  0  0  2  0  0  0  0  0  0
  184.9110  176.9910  136.0560 C   0  0  0  0  0  2  0  0  0  0  0  0
  182.9120  178.8950  142.7850 C   0  0  1  0  0  3  0  0  0  0  0  0
  181.6530  178.4320  143.5100 C   0  0  0  0  0  2  0  0  0  0  0  0
  185.2990  176.7250  137.5180 C   0  0  2  0  0  3  0  0  0  0  0  0
  183.0540  173.2490  136.6150 O   0  0  0  0  0  0  0  0  0  0  0  0
  183.8080  172.1340  136.9840 C   0  0  0  0  0  2  0  0  0  0  0  0
  185.2750  172.4090  136.7320 C   0  0  0  0  0  1  0  0  0  0  0  0
  1  5  1  1  0  0  0
  1 19  1  0  0  0  0
  2 13  1  0  0  0  0
  4 22  1  0  0  0  0
  4  1  1  0  0  0  0
  6  8  1  0  0  0  0
  7 15  1  0  0  0  0
  7 24  1  0  0  0  0
  8 12  1  0  0  0  0
  8 11  2  0  0  0  0
  9 22  1  0  0  0  0
 11  5  1  0  0  0  0
 12  4  1  0  0  0  0
 13 18  1  0  0  0  0
 14  9  1  0  0  0  0
 15 23  1  0  0  0  0
 16 19  1  0  0  0  0
 16  2  1  0  0  0  0
 17 25  1  0  0  0  0
 19 17  1  0  0  0  0
 20 22  1  0  0  0  0
 21 10  1  0  0  0  0
 21 17  1  0  0  0  0
 22 21  1  0  0  0  0
 23 14  1  0  0  0  0
 24 27  1  0  0  0  0
 25 26  1  0  0  0  0
 25  3  1  0  0  0  0
 26 18  1  0  0  0  0
 27 14  1  0  0  0  0
 27 12  1  0  0  0  0
 28 29  1  0  0  0  0
 28  6  1  0  0  0  0
 30 29  1  0  0  0  0
M  END
>  <MODEL>
4

>  <REMARK>
 VINA RESULT:      -5.7      3.059      7.425
  Name = 
  2 active torsions:
  status: ('A' for Active; 'I' for Inactive)
    1  A    between atoms: N_6  and  O_21
    2  A    between atoms: C_9  and  O_21
                            x       y       z     vdW  Elec       q    Type
                         _______ _______ _______ _____ _____    ______ ____

>  <TORSDO>
F 2

$$$$
=
 OpenBabel10272413593D

 30 34  0  0  1  0  0  0  0  0999 V2000
  191.9150  175.7730  138.2260 C   0  0  1  0  0  3  0  0  0  0  0  0
  188.5570  177.2130  139.0930 C   0  0  0  0  0  2  0  0  0  0  0  0
  189.3680  177.6610  134.3460 C   0  0  0  0  0  1  0  0  0  0  0  0
  192.1710  174.4690  137.4070 C   0  0  2  0  0  3  0  0  0  0  0  0
  193.0810  176.7720  138.1850 C   0  0  0  0  0  2  0  0  0  0  0  0
  195.9050  174.5220  137.2720 N   0  0  0  0  0  2  0  0  0  0  0  0
  194.4110  170.7720  136.2070 C   0  0  0  0  0  2  0  0  0  0  0  0
  194.5930  175.0850  137.3630 C   0  0  0  0  0  0  0  0  0  0  0  0
  191.2610  172.6780  135.8310 C   0  0  0  0  0  2  0  0  0  0  0  0
  190.9670  175.1020  134.4610 O   0  0  0  0  0  1  0  0  0  0  0  0
  194.3770  176.1000  138.1410 N   0  0  0  0  0  0  0  0  0  0  0  0
  193.4510  174.5270  136.5490 C   0  0  1  0  0  3  0  0  0  0  0  0
  187.6460  177.4540  138.0590 O   0  0  0  0  0  0  0  0  0  0  0  0
  192.5630  172.7480  135.0260 C   0  0  2  0  0  3  0  0  0  0  0  0
  193.2160  170.3290  135.3680 C   0  0  0  0  0  2  0  0  0  0  0  0
  189.4590  176.0490  138.7140 C   0  0  0  0  0  2  0  0  0  0  0  0
  190.3780  176.4830  136.3240 C   0  0  1  0  0  3  0  0  0  0  0  0
  187.9570  178.7240  137.5480 C   0  0  0  0  0  2  0  0  0  0  0  0
  190.6300  176.5160  137.8510 C   0  0  2  0  0  3  0  0  0  0  0  0
  189.9690  173.5960  137.5300 F   0  0  0  0  0  0  0  0  0  0  0  0
  190.3410  175.0680  135.7120 C   0  0  2  0  0  3  0  0  0  0  0  0
  190.9400  173.9630  136.6170 C   0  0  1  0  0  0  0  0  0  0  0  0
  192.8500  171.4060  134.3460 C   0  0  0  0  0  2  0  0  0  0  0  0
  194.0930  172.0780  136.9260 C   0  0  0  0  0  2  0  0  0  0  0  0
  189.2150  177.3620  135.8260 C   0  0  1  0  0  3  0  0  0  0  0  0
  189.1430  178.6850  136.5800 C   0  0  0  0  0  2  0  0  0  0  0  0
  193.7520  173.1690  135.9000 C   0  0  2  0  0  3  0  0  0  0  0  0
  196.9330  174.9940  138.0180 O   0  0  0  0  0  0  0  0  0  0  0  0
  198.0590  174.3130  137.5510 C   0  0  0  0  0  2  0  0  0  0  0  0
  197.6240  173.1490  136.6870 C   0  0  0  0  0  1  0  0  0  0  0  0
  1  5  1  6  0  0  0
  3 25  1  0  0  0  0
  4  1  1  0  0  0  0
  6  8  1  0  0  0  0
  6 28  1  0  0  0  0
  7 24  1  0  0  0  0
  8 11  2  0  0  0  0
  9 22  1  0  0  0  0
 10 21  1  0  0  0  0
 11  5  1  0  0  0  0
 12  8  1  0  0  0  0
 12  4  1  0  0  0  0
 13  2  1  0  0  0  0
 14  9  1  0  0  0  0
 14 27  1  0  0  0  0
 15  7  1  0  0  0  0
 16  2  1  0  0  0  0
 17 19  1  0  0  0  0
 18 13  1  0  0  0  0
 19  1  1  0  0  0  0
 19 16  1  0  0  0  0
 21 17  1  0  0  0  0
 21 22  1  0  0  0  0
 22  4  1  0  0  0  0
 22 20  1  0  0  0  0
 23 14  1  0  0  0  0
 23 15  1  0  0  0  0
 25 17  1  0  0  0  0
 25 26  1  0  0  0  0
 26 18  1  0  0  0  0
 27 12  1  0  0  0  0
 27 24  1  0  0  0  0
 29 28  1  0  0  0  0
 30 29  1  0  0  0  0
M  END
>  <MODEL>
5

>  <REMARK>
 VINA RESULT:      -5.3      4.573      9.294
  Name = 
  2 active torsions:
  status: ('A' for Active; 'I' for Inactive)
    1  A    between atoms: N_6  and  O_21
    2  A    between atoms: C_9  and  O_21
                            x       y       z     vdW  Elec       q    Type
                         _______ _______ _______ _____ _____    ______ ____

>  <TORSDO>
F 2

$$$$
=
 OpenBabel10272413593D

 30 34  0  0  1  0  0  0  0  0999 V2000
  193.8330  173.2010  136.8710 C   0  0  1  0  0  3  0  0  0  0  0  0
  197.2240  173.9780  138.2840 C   0  0  0  0  0  2  0  0  0  0  0  0
  196.4230  176.6690  134.3460 C   0  0  0  0  0  1  0  0  0  0  0  0
  192.5940  174.1520  136.8800 C   0  0  2  0  0  3  0  0  0  0  0  0
  193.7980  172.1480  135.7540 C   0  0  0  0  0  2  0  0  0  0  0  0
  190.1530  172.0410  134.9960 N   0  0  0  0  0  2  0  0  0  0  0  0
  188.2260  175.1700  136.9760 C   0  0  0  0  0  2  0  0  0  0  0  0
  191.4480  172.5190  135.3750 C   0  0  0  0  0  0  0  0  0  0  0  0
  191.6690  176.5140  137.1740 C   0  0  0  0  0  2  0  0  0  0  0  0
  193.4870  176.6790  135.0510 O   0  0  0  0  0  1  0  0  0  0  0  0
  192.4400  171.6890  135.4730 N   0  0  0  0  0  0  0  0  0  0  0  0
  191.6850  173.9840  135.6460 C   0  0  1  0  0  3  0  0  0  0  0  0
  197.8730  175.1420  137.8620 O   0  0  0  0  0  0  0  0  0  0  0  0
  190.7600  176.2910  135.9600 C   0  0  2  0  0  3  0  0  0  0  0  0
  188.5810  176.6390  137.1940 C   0  0  0  0  0  2  0  0  0  0  0  0
  195.7180  174.1840  138.2210 C   0  0  0  0  0  2  0  0  0  0  0  0
  195.1330  175.1560  135.8850 C   0  0  1  0  0  3  0  0  0  0  0  0
  198.5450  174.8110  136.6750 C   0  0  0  0  0  2  0  0  0  0  0  0
  195.1830  173.9190  136.8150 C   0  0  2  0  0  3  0  0  0  0  0  0
  193.4150  175.7040  138.4750 F   0  0  0  0  0  0  0  0  0  0  0  0
  194.0310  176.1770  136.2370 C   0  0  2  0  0  3  0  0  0  0  0  0
  192.9320  175.6320  137.1820 C   0  0  1  0  0  0  0  0  0  0  0  0
  189.4920  177.1410  136.0720 C   0  0  0  0  0  2  0  0  0  0  0  0
  189.4950  174.3260  136.9250 C   0  0  0  0  0  2  0  0  0  0  0  0
  196.4880  175.8350  135.6120 C   0  0  1  0  0  3  0  0  0  0  0  0
  197.6110  174.8150  135.4600 C   0  0  0  0  0  2  0  0  0  0  0  0
  190.3990  174.8100  135.7820 C   0  0  2  0  0  3  0  0  0  0  0  0
  189.9190  170.7250  134.7780 O   0  0  0  0  0  0  0  0  0  0  0  0
  188.5560  170.6450  134.4870 C   0  0  0  0  0  2  0  0  0  0  0  0
  187.7620  171.2830  135.6070 C   0  0  0  0  0  1  0  0  0  0  0  0
  1  5  1  6  0  0  0
  1  4  1  0  0  0  0
  3 25  1  0  0  0  0
  4 22  1  0  0  0  0
  6  8  1  0  0  0  0
  7 15  1  0  0  0  0
  8 11  2  0  0  0  0
  8 12  1  0  0  0  0
  9 22  1  0  0  0  0
 10 21  1  0  0  0  0
 11  5  1  0  0  0  0
 12 27  1  0  0  0  0
 12  4  1  0  0  0  0
 13  2  1  0  0  0  0
 14 23  1  0  0  0  0
 14  9  1  0  0  0  0
 16  2  1  0  0  0  0
 17 21  1  0  0  0  0
 17 19  1  0  0  0  0
 18 13  1  0  0  0  0
 19  1  1  0  0  0  0
 19 16  1  0  0  0  0
 21 22  1  0  0  0  0
 22 20  1  0  0  0  0
 23 15  1  0  0  0  0
 24  7  1  0  0  0  0
 25 17  1  0  0  0  0
 26 25  1  0  0  0  0
 26 18  1  0  0  0  0
 27 14  1  0  0  0  0
 27 24  1  0  0  0  0
 28  6  1  0  0  0  0
 29 28  1  0  0  0  0
 29 30  1  0  0  0  0
M  END
>  <MODEL>
6

>  <REMARK>
 VINA RESULT:      -5.3      5.628      8.980
  Name = 
  2 active torsions:
  status: ('A' for Active; 'I' for Inactive)
    1  A    between atoms: N_6  and  O_21
    2  A    between atoms: C_9  and  O_21
                            x       y       z     vdW  Elec       q    Type
                         _______ _______ _______ _____ _____    ______ ____

>  <TORSDO>
F 2

$$$$
=
 OpenBabel10272413593D

 30 34  0  0  1  0  0  0  0  0999 V2000
  184.1290  178.0040  139.1780 C   0  0  1  0  0  3  0  0  0  0  0  0
  181.1180  179.1570  141.1000 C   0  0  0  0  0  2  0  0  0  0  0  0
  180.7260  180.4890  136.4680 C   0  0  0  0  0  1  0  0  0  0  0  0
  184.1530  176.8800  138.0950 C   0  0  2  0  0  3  0  0  0  0  0  0
  185.2640  179.0280  139.0340 C   0  0  0  0  0  2  0  0  0  0  0  0
  187.7350  177.0710  137.0500 N   0  0  0  0  0  2  0  0  0  0  0  0
  185.9630  173.5350  135.7150 C   0  0  0  0  0  2  0  0  0  0  0  0
  186.4960  177.5680  137.5650 C   0  0  0  0  0  0  0  0  0  0  0  0
  182.8490  175.3790  136.4910 C   0  0  0  0  0  2  0  0  0  0  0  0
  182.2620  178.0030  135.7090 O   0  0  0  0  0  1  0  0  0  0  0  0
  186.4980  178.4170  138.5470 N   0  0  0  0  0  0  0  0  0  0  0  0
  185.1790  177.1330  136.9720 C   0  0  1  0  0  3  0  0  0  0  0  0
  179.9820  179.5550  140.3880 O   0  0  0  0  0  0  0  0  0  0  0  0
  183.9110  175.6350  135.4150 C   0  0  2  0  0  3  0  0  0  0  0  0
  184.5890  173.2160  135.1330 C   0  0  0  0  0  2  0  0  0  0  0  0
  181.8780  178.1100  140.3020 C   0  0  0  0  0  2  0  0  0  0  0  0
  182.1790  179.0020  137.8810 C   0  0  1  0  0  3  0  0  0  0  0  0
  180.1750  180.9060  140.0590 C   0  0  0  0  0  2  0  0  0  0  0  0
  182.8040  178.7630  139.2770 C   0  0  2  0  0  3  0  0  0  0  0  0
  182.0370  175.9310  138.5960 F   0  0  0  0  0  0  0  0  0  0  0  0
  181.9680  177.7210  137.0460 C   0  0  2  0  0  3  0  0  0  0  0  0
  182.7550  176.4890  137.5550 C   0  0  1  0  0  0  0  0  0  0  0  0
  183.9970  174.4500  134.4500 C   0  0  0  0  0  2  0  0  0  0  0  0
  185.8550  174.6770  136.7190 C   0  0  0  0  0  2  0  0  0  0  0  0
  180.9430  179.9200  137.8580 C   0  0  1  0  0  3  0  0  0  0  0  0
  181.0820  181.0810  138.8370 C   0  0  0  0  0  2  0  0  0  0  0  0
  185.2860  175.9260  136.0300 C   0  0  2  0  0  3  0  0  0  0  0  0
  188.9240  177.4300  137.5920 O   0  0  0  0  0  0  0  0  0  0  0  0
  189.4590  176.2460  138.1020 C   0  0  0  0  0  2  0  0  0  0  0  0
  189.5060  175.2000  137.0100 C   0  0  0  0  0  1  0  0  0  0  0  0
  1  5  1  6  0  0  0
  1 19  1  0  0  0  0
  3 25  1  0  0  0  0
  4  1  1  0  0  0  0
  6  8  1  0  0  0  0
  6 28  1  0  0  0  0
  7 24  1  0  0  0  0
  8 11  2  0  0  0  0
  9 22  1  0  0  0  0
 10 21  1  0  0  0  0
 11  5  1  0  0  0  0
 12  8  1  0  0  0  0
 12  4  1  0  0  0  0
 13  2  1  0  0  0  0
 14 27  1  0  0  0  0
 14  9  1  0  0  0  0
 15  7  1  0  0  0  0
 16  2  1  0  0  0  0
 17 19  1  0  0  0  0
 18 13  1  0  0  0  0
 19 16  1  0  0  0  0
 21 22  1  0  0  0  0
 21 17  1  0  0  0  0
 22  4  1  0  0  0  0
 22 20  1  0  0  0  0
 23 15  1  0  0  0  0
 23 14  1  0  0  0  0
 25 17  1  0  0  0  0
 25 26  1  0  0  0  0
 26 18  1  0  0  0  0
 27 24  1  0  0  0  0
 27 12  1  0  0  0  0
 28 29  1  0  0  0  0
 30 29  1  0  0  0  0
M  END
>  <MODEL>
7

>  <REMARK>
 VINA RESULT:      -5.3      2.579      6.792
  Name = 
  2 active torsions:
  status: ('A' for Active; 'I' for Inactive)
    1  A    between atoms: N_6  and  O_21
    2  A    between atoms: C_9  and  O_21
                            x       y       z     vdW  Elec       q    Type
                         _______ _______ _______ _____ _____    ______ ____

>  <TORSDO>
F 2

$$$$
=
 OpenBabel10272413593D

 30 34  0  0  1  0  0  0  0  0999 V2000
  183.8810  177.7910  138.9320 C   0  0  1  0  0  3  0  0  0  0  0  0
  181.1320  179.6960  140.6360 C   0  0  0  0  0  2  0  0  0  0  0  0
  180.5030  179.8290  135.8430 C   0  0  0  0  0  1  0  0  0  0  0  0
  183.7270  176.4300  138.1810 C   0  0  2  0  0  3  0  0  0  0  0  0
  185.0840  178.6240  138.4650 C   0  0  0  0  0  2  0  0  0  0  0  0
  187.2230  175.9840  136.9400 N   0  0  0  0  0  2  0  0  0  0  0  0
  185.0630  172.4220  136.6730 C   0  0  0  0  0  2  0  0  0  0  0  0
  186.0730  176.7180  137.3700 C   0  0  0  0  0  0  0  0  0  0  0  0
  182.1830  174.7090  137.0970 C   0  0  0  0  0  2  0  0  0  0  0  0
  181.7610  177.0890  135.6850 O   0  0  0  0  0  1  0  0  0  0  0  0
  186.2210  177.7860  138.0930 N   0  0  0  0  0  0  0  0  0  0  0  0
  184.6830  176.2820  136.9800 C   0  0  1  0  0  3  0  0  0  0  0  0
  179.9830  180.0120  139.9040 O   0  0  0  0  0  0  0  0  0  0  0  0
  183.1780  174.5710  135.9380 C   0  0  2  0  0  3  0  0  0  0  0  0
  183.6260  172.1040  136.2660 C   0  0  0  0  0  2  0  0  0  0  0  0
  181.7380  178.4080  140.1030 C   0  0  0  0  0  2  0  0  0  0  0  0
  181.9280  178.6140  137.5210 C   0  0  1  0  0  3  0  0  0  0  0  0
  180.2640  181.2060  139.2230 C   0  0  0  0  0  2  0  0  0  0  0  0
  182.6360  178.6790  138.8960 C   0  0  2  0  0  3  0  0  0  0  0  0
  181.5840  175.8610  139.0230 F   0  0  0  0  0  0  0  0  0  0  0  0
  181.5470  177.1910  137.0630 C   0  0  2  0  0  3  0  0  0  0  0  0
  182.2640  176.0570  137.8360 C   0  0  1  0  0  0  0  0  0  0  0  0
  183.0900  173.1760  135.3150 C   0  0  0  0  0  2  0  0  0  0  0  0
  185.1280  173.7880  137.3460 C   0  0  0  0  0  2  0  0  0  0  0  0
  180.7760  179.6170  137.3210 C   0  0  1  0  0  3  0  0  0  0  0  0
  181.0860  180.9690  137.9530 C   0  0  0  0  0  2  0  0  0  0  0  0
  184.6160  174.8700  136.3830 C   0  0  2  0  0  3  0  0  0  0  0  0
  188.4750  176.3480  137.3060 O   0  0  0  0  0  0  0  0  0  0  0  0
  189.2640  175.2230  137.0580 C   0  0  0  0  0  2  0  0  0  0  0  0
  188.5910  174.3530  136.0180 C   0  0  0  0  0  1  0  0  0  0  0  0
  1  5  1  6  0  0  0
  3 25  1  0  0  0  0
  4  1  1  0  0  0  0
  6 28  1  0  0  0  0
  6  8  1  0  0  0  0
  7 24  1  0  0  0  0
  8 11  2  0  0  0  0
  9 22  1  0  0  0  0
 10 21  1  0  0  0  0
 11  5  1  0  0  0  0
 12  8  1  0  0  0  0
 12  4  1  0  0  0  0
 13  2  1  0  0  0  0
 14 27  1  0  0  0  0
 14  9  1  0  0  0  0
 15  7  1  0  0  0  0
 16  2  1  0  0  0  0
 17 19  1  0  0  0  0
 18 13  1  0  0  0  0
 19  1  1  0  0  0  0
 19 16  1  0  0  0  0
 21 17  1  0  0  0  0
 21 22  1  0  0  0  0
 22  4  1  0  0  0  0
 22 20  1  0  0  0  0
 23 14  1  0  0  0  0
 23 15  1  0  0  0  0
 25 17  1  0  0  0  0
 25 26  1  0  0  0  0
 26 18  1  0  0  0  0
 27 12  1  0  0  0  0
 27 24  1  0  0  0  0
 29 28  1  0  0  0  0
 30 29  1  0  0  0  0
M  END
>  <MODEL>
8

>  <REMARK>
 VINA RESULT:      -5.1      2.729      6.972
  Name = 
  2 active torsions:
  status: ('A' for Active; 'I' for Inactive)
    1  A    between atoms: N_6  and  O_21
    2  A    between atoms: C_9  and  O_21
                            x       y       z     vdW  Elec       q    Type
                         _______ _______ _______ _____ _____    ______ ____

>  <TORSDO>
F 2

$$$$
=
 OpenBabel10272413593D

 30 34  0  0  1  0  0  0  0  0999 V2000
  183.7380  179.1970  138.5230 C   0  0  1  0  0  3  0  0  0  0  0  0
  181.1020  179.6800  135.8940 C   0  0  0  0  0  2  0  0  0  0  0  0
  180.5260  175.3830  138.0360 C   0  0  0  0  0  1  0  0  0  0  0  0
  183.5040  179.1800  140.0670 C   0  0  2  0  0  3  0  0  0  0  0  0
  184.9960  178.4370  138.0780 C   0  0  0  0  0  2  0  0  0  0  0  0
  186.9750  178.4380  141.2340 N   0  0  0  0  0  2  0  0  0  0  0  0
  184.5930  179.8170  144.3720 C   0  0  0  0  0  2  0  0  0  0  0  0
  185.8700  178.4210  140.3240 C   0  0  0  0  0  0  0  0  0  0  0  0
  181.8630  178.9890  142.0140 C   0  0  0  0  0  2  0  0  0  0  0  0
  181.6070  176.5980  140.5800 O   0  0  0  0  0  1  0  0  0  0  0  0
  186.0800  178.5530  139.0500 N   0  0  0  0  0  0  0  0  0  0  0  0
  184.4590  178.2330  140.8210 C   0  0  1  0  0  3  0  0  0  0  0  0
  179.9820  178.8420  135.9080 O   0  0  0  0  0  0  0  0  0  0  0  0
  182.8570  178.0750  142.7400 C   0  0  2  0  0  3  0  0  0  0  0  0
  183.1430  179.5560  144.7700 C   0  0  0  0  0  2  0  0  0  0  0  0
  181.6290  179.8490  137.3100 C   0  0  0  0  0  2  0  0  0  0  0  0
  181.8550  177.4900  138.3740 C   0  0  1  0  0  3  0  0  0  0  0  0
  180.3450  177.6860  135.2010 C   0  0  0  0  0  2  0  0  0  0  0  0
  182.5530  178.6940  137.6960 C   0  0  2  0  0  3  0  0  0  0  0  0
  181.3210  180.1080  140.0520 F   0  0  0  0  0  0  0  0  0  0  0  0
  181.3870  177.7520  139.8200 C   0  0  2  0  0  3  0  0  0  0  0  0
  182.0240  178.9990  140.4830 C   0  0  1  0  0  0  0  0  0  0  0  0
  182.6850  178.1890  144.2570 C   0  0  0  0  0  2  0  0  0  0  0  0
  184.7390  179.7600  142.8560 C   0  0  0  0  0  2  0  0  0  0  0  0
  180.7710  176.7920  137.5300 C   0  0  1  0  0  3  0  0  0  0  0  0
  181.1620  176.7140  136.0590 C   0  0  0  0  0  2  0  0  0  0  0  0
  184.3070  178.3790  142.3410 C   0  0  2  0  0  3  0  0  0  0  0  0
  188.2450  178.6350  140.8050 O   0  0  0  0  0  0  0  0  0  0  0  0
  189.0510  178.0960  141.8090 C   0  0  0  0  0  2  0  0  0  0  0  0
  188.1790  177.5290  142.9080 C   0  0  0  0  0  1  0  0  0  0  0  0
  1  5  1  1  0  0  0
  1  4  1  0  0  0  0
  2 13  1  0  0  0  0
  2 16  1  0  0  0  0
  4 22  1  0  0  0  0
  4 12  1  0  0  0  0
  5 11  1  0  0  0  0
  7 15  1  0  0  0  0
  8 12  1  0  0  0  0
  8  6  1  0  0  0  0
  9 14  1  0  0  0  0
 11  8  2  0  0  0  0
 12 27  1  0  0  0  0
 14 23  1  0  0  0  0
 16 19  1  0  0  0  0
 17 21  1  0  0  0  0
 18 13  1  0  0  0  0
 18 26  1  0  0  0  0
 19 17  1  0  0  0  0
 19  1  1  0  0  0  0
 20 22  1  0  0  0  0
 21 22  1  0  0  0  0
 21 10  1  0  0  0  0
 22  9  1  0  0  0  0
 23 15  1  0  0  0  0
 24  7  1  0  0  0  0
 25  3  1  0  0  0  0
 25 17  1  0  0  0  0
 26 25  1  0  0  0  0
 27 14  1  0  0  0  0
 27 24  1  0  0  0  0
 28  6  1  0  0  0  0
 28 29  1  0  0  0  0
 29 30  1  0  0  0  0
M  END
>  <MODEL>
9

>  <REMARK>
 VINA RESULT:      -4.9      3.686      6.006
  Name = 
  2 active torsions:
  status: ('A' for Active; 'I' for Inactive)
    1  A    between atoms: N_6  and  O_21
    2  A    between atoms: C_9  and  O_21
                            x       y       z     vdW  Elec       q    Type
                         _______ _______ _______ _____ _____    ______ ____

>  <TORSDO>
F 2

$$$$
