=
 OpenBabel10272413493D

 30 33  0  0  1  0  0  0  0  0999 V2000
  188.7260  176.9320  137.7360 C   0  0  1  0  0  3  0  0  0  0  0  0
  189.3330  177.7720  138.8480 C   0  0  1  0  0  3  0  0  0  0  0  0
  189.1040  179.1750  138.5310 N   0  0  0  0  0  2  0  0  0  0  0  0
  188.3630  177.9070  136.6430 C   0  0  0  0  0  2  0  0  0  0  0  0
  188.9430  179.2300  137.0870 C   0  0  0  0  0  2  0  0  0  0  0  0
  190.4210  175.2570  138.2280 O   0  0  0  0  0  1  0  0  0  0  0  0
  189.6970  175.8740  137.2010 C   0  0  1  0  0  3  0  0  0  0  0  0
  189.0090  174.8440  136.2940 C   0  0  1  0  0  3  0  0  0  0  0  0
  185.7330  175.7620  134.5010 C   0  0  0  0  0  1  0  0  0  0  0  0
  186.4910  174.0590  137.2320 S   0  0  0  0  0  0  0  0  0  0  0  0
  187.4910  175.1320  136.1520 C   0  0  2  0  0  3  0  0  0  0  0  0
  186.6840  173.2010  134.3510 S   0  0  0  0  0  0  0  0  0  0  0  0
  186.9960  174.9550  134.7270 C   0  0  1  0  0  3  0  0  0  0  0  0
  187.7920  171.7890  136.4200 C   0  0  0  0  0  1  0  0  0  0  0  0
  186.5900  172.6500  136.0860 C   0  0  1  0  0  3  0  0  0  0  0  0
  190.5850  173.4890  135.0090 C   0  0  0  0  0  1  0  0  0  0  0  0
  189.7440  174.6810  135.0230 N   0  0  0  0  0  0  0  0  0  0  0  0
  190.5950  175.8400  134.8140 C   0  0  0  0  0  1  0  0  0  0  0  0
  188.6790  177.4250  140.1730 C   0  0  0  0  0  2  0  0  0  0  0  0
  189.7300  177.0100  141.1830 C   0  0  1  0  0  3  0  0  0  0  0  0
  190.9830  177.4780  140.7840 O   0  0  0  0  0  1  0  0  0  0  0  0
  189.3730  177.5840  142.5410 C   0  0  0  0  0  2  0  0  0  0  0  0
  186.6520  177.8730  145.9610 C   0  0  0  0  0  0  0  0  0  0  0  0
  187.9350  177.7490  146.6600 C   0  0  0  0  0  3  0  0  0  0  0  0
  185.2890  178.5240  146.8440 Cl  0  0  0  0  0  0  0  0  0  0  0  0
  188.7620  176.5140  143.4300 C   0  0  1  0  0  3  0  0  0  0  0  0
  189.1430  177.2400  146.0680 C   0  0  0  0  0  3  0  0  0  0  0  0
  186.4540  177.4950  144.5860 C   0  0  0  0  0  3  0  0  0  0  0  0
  188.8940  176.9000  144.7740 C   0  0  0  0  0  0  0  0  0  0  0  0
  187.6210  177.0200  144.0730 C   0  0  0  0  0  0  0  0  0  0  0  0
  1  7  1  6  0  0  0
  1  2  1  0  0  0  0
  2 19  1  1  0  0  0
  3  2  1  0  0  0  0
  4  5  1  0  0  0  0
  4  1  1  0  0  0  0
  5  3  1  0  0  0  0
  7  6  1  1  0  0  0
  8 17  1  6  0  0  0
  8  7  1  0  0  0  0
 11  8  1  6  0  0  0
 11 10  1  0  0  0  0
 12 13  1  0  0  0  0
 12 15  1  0  0  0  0
 13  9  1  1  0  0  0
 13 11  1  0  0  0  0
 15 14  1  1  0  0  0
 15 10  1  0  0  0  0
 16 17  1  0  0  0  0
 18 17  1  0  0  0  0
 19 20  1  0  0  0  0
 20 21  1  6  0  0  0
 20 22  1  0  0  0  0
 23 24  1  0  0  0  0
 23 25  1  0  0  0  0
 26 22  1  6  0  0  0
 26 30  1  0  0  0  0
 26 29  1  0  0  0  0
 27 24  2  0  0  0  0
 28 23  2  0  0  0  0
 29 27  1  0  0  0  0
 30 28  1  0  0  0  0
 30 29  2  0  0  0  0
M  END
>  <MODEL>
1

>  <REMARK>
 VINA RESULT:      -7.2      0.000      0.000
  Name = 
  8 active torsions:
  status: ('A' for Active; 'I' for Inactive)
    1  A    between atoms: C_3  and  C_11
    2  A    between atoms: C_3  and  C_19
    3  A    between atoms: N_4  and  C_13
    4  A    between atoms: C_7  and  C_30
    5  A    between atoms: C_8  and  C_13
    6  A    between atoms: C_10  and  C_25
    7  A    between atoms: C_11  and  C_25
    8  A    between atoms: C_13  and  C_30
                            x       y       z     vdW  Elec       q    Type
                         _______ _______ _______ _____ _____    ______ ____

>  <TORSDO>
F 8

$$$$
=
 OpenBabel10272413493D

 30 33  0  0  1  0  0  0  0  0999 V2000
  182.1670  178.3120  140.8480 C   0  0  1  0  0  3  0  0  0  0  0  0
  183.1810  178.8320  141.8540 C   0  0  1  0  0  3  0  0  0  0  0  0
  182.5000  179.0210  143.1270 N   0  0  0  0  0  2  0  0  0  0  0  0
  180.8230  178.4480  141.5210 C   0  0  0  0  0  2  0  0  0  0  0  0
  181.0970  179.2090  142.7970 C   0  0  0  0  0  2  0  0  0  0  0  0
  183.4020  179.7590  139.3310 O   0  0  0  0  0  1  0  0  0  0  0  0
  182.1840  179.1000  139.5330 C   0  0  1  0  0  3  0  0  0  0  0  0
  181.7960  178.2380  138.3230 C   0  0  1  0  0  3  0  0  0  0  0  0
  180.0130  174.8620  138.7780 C   0  0  0  0  0  1  0  0  0  0  0  0
  183.1570  175.7920  138.3490 S   0  0  0  0  0  0  0  0  0  0  0  0
  181.6470  176.7430  138.7100 C   0  0  2  0  0  3  0  0  0  0  0  0
  180.9530  175.5730  136.3080 S   0  0  0  0  0  0  0  0  0  0  0  0
  180.4860  176.0710  137.9960 C   0  0  1  0  0  3  0  0  0  0  0  0
  183.3520  176.7950  135.8070 C   0  0  0  0  0  1  0  0  0  0  0  0
  182.7530  175.6380  136.5820 C   0  0  1  0  0  3  0  0  0  0  0  0
  181.0410  179.4870  136.3630 C   0  0  0  0  0  1  0  0  0  0  0  0
  180.6490  178.8240  137.6010 N   0  0  0  0  0  0  0  0  0  0  0  0
  179.9990  179.8030  138.4550 C   0  0  0  0  0  1  0  0  0  0  0  0
  184.3120  177.8320  142.0120 C   0  0  0  0  0  2  0  0  0  0  0  0
  185.5970  178.5470  142.3830 C   0  0  1  0  0  3  0  0  0  0  0  0
  185.6610  179.7780  141.7270 O   0  0  0  0  0  1  0  0  0  0  0  0
  185.6340  178.7580  143.8850 C   0  0  0  0  0  2  0  0  0  0  0  0
  188.4380  177.9020  147.1390 C   0  0  0  0  0  0  0  0  0  0  0  0
  189.2500  177.5040  145.9860 C   0  0  0  0  0  3  0  0  0  0  0  0
  189.2540  178.2390  148.6490 Cl  0  0  0  0  0  0  0  0  0  0  0  0
  185.9770  177.4620  144.5990 C   0  0  1  0  0  3  0  0  0  0  0  0
  188.7250  177.2020  144.6800 C   0  0  0  0  0  3  0  0  0  0  0  0
  187.0050  178.0380  147.0960 C   0  0  0  0  0  3  0  0  0  0  0  0
  187.3720  177.3460  144.7020 C   0  0  0  0  0  0  0  0  0  0  0  0
  186.5580  177.7410  145.8460 C   0  0  0  0  0  0  0  0  0  0  0  0
  1  7  1  6  0  0  0
  1  4  1  0  0  0  0
  1  2  1  0  0  0  0
  2 19  1  1  0  0  0
  2  3  1  0  0  0  0
  4  5  1  0  0  0  0
  5  3  1  0  0  0  0
  7  6  1  6  0  0  0
  8 17  1  1  0  0  0
  8  7  1  0  0  0  0
 10 11  1  0  0  0  0
 11  8  1  6  0  0  0
 12 15  1  0  0  0  0
 12 13  1  0  0  0  0
 13 11  1  0  0  0  0
 13  9  1  1  0  0  0
 15 14  1  6  0  0  0
 15 10  1  0  0  0  0
 16 17  1  0  0  0  0
 17 18  1  0  0  0  0
 19 20  1  0  0  0  0
 20 21  1  6  0  0  0
 20 22  1  0  0  0  0
 23 25  1  0  0  0  0
 24 23  2  0  0  0  0
 26 22  1  6  0  0  0
 26 29  1  0  0  0  0
 26 30  1  0  0  0  0
 27 29  2  0  0  0  0
 27 24  1  0  0  0  0
 28 23  1  0  0  0  0
 29 30  1  0  0  0  0
 30 28  2  0  0  0  0
M  END
>  <MODEL>
2

>  <REMARK>
 VINA RESULT:      -7.0      5.169      6.717
  Name = 
  8 active torsions:
  status: ('A' for Active; 'I' for Inactive)
    1  A    between atoms: C_3  and  C_11
    2  A    between atoms: C_3  and  C_19
    3  A    between atoms: N_4  and  C_13
    4  A    between atoms: C_7  and  C_30
    5  A    between atoms: C_8  and  C_13
    6  A    between atoms: C_10  and  C_25
    7  A    between atoms: C_11  and  C_25
    8  A    between atoms: C_13  and  C_30
                            x       y       z     vdW  Elec       q    Type
                         _______ _______ _______ _____ _____    ______ ____

>  <TORSDO>
F 8

$$$$
=
 OpenBabel10272413493D

 30 33  0  0  1  0  0  0  0  0999 V2000
  186.6740  178.2870  137.8160 C   0  0  1  0  0  3  0  0  0  0  0  0
  187.8050  177.9690  138.7810 C   0  0  1  0  0  3  0  0  0  0  0  0
  188.9910  178.6930  138.3430 N   0  0  0  0  0  2  0  0  0  0  0  0
  187.3180  179.0200  136.6640 C   0  0  0  0  0  2  0  0  0  0  0  0
  188.8050  178.9270  136.9200 C   0  0  0  0  0  2  0  0  0  0  0  0
  186.5780  175.8570  137.7600 O   0  0  0  0  0  1  0  0  0  0  0  0
  185.9590  177.0290  137.3100 C   0  0  1  0  0  3  0  0  0  0  0  0
  184.4570  177.0360  137.6250 C   0  0  1  0  0  3  0  0  0  0  0  0
  182.7910  180.3560  138.6200 C   0  0  0  0  0  1  0  0  0  0  0  0
  183.8130  177.6800  140.2720 S   0  0  0  0  0  0  0  0  0  0  0  0
  184.0730  178.2200  138.5520 C   0  0  2  0  0  3  0  0  0  0  0  0
  181.3180  178.0500  138.6250 S   0  0  0  0  0  0  0  0  0  0  0  0
  182.8150  178.9360  138.0900 C   0  0  1  0  0  3  0  0  0  0  0  0
  182.1800  175.6110  139.5270 C   0  0  0  0  0  1  0  0  0  0  0  0
  182.1330  177.0720  139.9290 C   0  0  1  0  0  3  0  0  0  0  0  0
  183.0320  175.6020  136.2530 C   0  0  0  0  0  1  0  0  0  0  0  0
  183.6560  176.9130  136.3910 N   0  0  0  0  0  0  0  0  0  0  0  0
  184.5170  177.1290  135.2410 C   0  0  0  0  0  1  0  0  0  0  0  0
  187.4220  178.3990  140.1850 C   0  0  0  0  0  2  0  0  0  0  0  0
  188.1460  177.5460  141.2100 C   0  0  1  0  0  3  0  0  0  0  0  0
  189.5250  177.7240  141.0850 O   0  0  0  0  0  1  0  0  0  0  0  0
  187.6970  177.9490  142.6010 C   0  0  0  0  0  2  0  0  0  0  0  0
  188.2390  177.7260  146.9410 C   0  0  0  0  0  0  0  0  0  0  0  0
  189.6090  177.4580  146.4950 C   0  0  0  0  0  3  0  0  0  0  0  0
  187.9950  178.2520  148.5920 Cl  0  0  0  0  0  0  0  0  0  0  0  0
  187.7500  176.7600  143.5460 C   0  0  1  0  0  3  0  0  0  0  0  0
  189.9680  177.0280  145.1700 C   0  0  0  0  0  3  0  0  0  0  0  0
  187.0830  177.5870  146.0940 C   0  0  0  0  0  3  0  0  0  0  0  0
  188.8390  176.9140  144.4190 C   0  0  0  0  0  0  0  0  0  0  0  0
  187.4730  177.1780  144.8570 C   0  0  0  0  0  0  0  0  0  0  0  0
  1  7  1  6  0  0  0
  1  2  1  0  0  0  0
  2 19  1  1  0  0  0
  3  2  1  0  0  0  0
  4  5  1  0  0  0  0
  4  1  1  0  0  0  0
  5  3  1  0  0  0  0
  7  8  1  0  0  0  0
  7  6  1  1  0  0  0
  8 17  1  6  0  0  0
 11  8  1  6  0  0  0
 11 10  1  0  0  0  0
 12 15  1  0  0  0  0
 13 11  1  0  0  0  0
 13  9  1  1  0  0  0
 13 12  1  0  0  0  0
 15 14  1  6  0  0  0
 15 10  1  0  0  0  0
 16 17  1  0  0  0  0
 18 17  1  0  0  0  0
 19 20  1  0  0  0  0
 20 21  1  1  0  0  0
 20 22  1  0  0  0  0
 23 25  1  0  0  0  0
 24 23  1  0  0  0  0
 26 22  1  6  0  0  0
 26 29  1  0  0  0  0
 26 30  1  0  0  0  0
 27 24  2  0  0  0  0
 28 23  2  0  0  0  0
 29 30  2  0  0  0  0
 29 27  1  0  0  0  0
 30 28  1  0  0  0  0
M  END
>  <MODEL>
3

>  <REMARK>
 VINA RESULT:      -7.0      3.506      4.385
  Name = 
  8 active torsions:
  status: ('A' for Active; 'I' for Inactive)
    1  A    between atoms: C_3  and  C_11
    2  A    between atoms: C_3  and  C_19
    3  A    between atoms: N_4  and  C_13
    4  A    between atoms: C_7  and  C_30
    5  A    between atoms: C_8  and  C_13
    6  A    between atoms: C_10  and  C_25
    7  A    between atoms: C_11  and  C_25
    8  A    between atoms: C_13  and  C_30
                            x       y       z     vdW  Elec       q    Type
                         _______ _______ _______ _____ _____    ______ ____

>  <TORSDO>
F 8

$$$$
=
 OpenBabel10272413493D

 30 33  0  0  1  0  0  0  0  0999 V2000
  184.1610  178.4180  141.8790 C   0  0  1  0  0  3  0  0  0  0  0  0
  185.4650  178.8380  142.5380 C   0  0  1  0  0  3  0  0  0  0  0  0
  185.1770  179.2030  143.9180 N   0  0  0  0  0  2  0  0  0  0  0  0
  183.0740  178.7950  142.8550 C   0  0  0  0  0  2  0  0  0  0  0  0
  183.7730  179.5800  143.9400 C   0  0  0  0  0  2  0  0  0  0  0  0
  185.1310  179.5290  139.9430 O   0  0  0  0  0  1  0  0  0  0  0  0
  183.9310  179.1140  140.5330 C   0  0  1  0  0  3  0  0  0  0  0  0
  183.0850  178.2720  139.5680 C   0  0  1  0  0  3  0  0  0  0  0  0
  181.7540  178.8240  136.0030 C   0  0  0  0  0  1  0  0  0  0  0  0
  182.0530  180.7220  138.6930 S   0  0  0  0  0  0  0  0  0  0  0  0
  182.7060  179.0710  138.2930 C   0  0  2  0  0  3  0  0  0  0  0  0
  179.9920  178.6120  138.0860 S   0  0  0  0  0  0  0  0  0  0  0  0
  181.6740  178.3510  137.4410 C   0  0  1  0  0  3  0  0  0  0  0  0
  180.3110  179.7370  140.5630 C   0  0  0  0  0  1  0  0  0  0  0  0
  180.3990  180.0790  139.0890 C   0  0  1  0  0  3  0  0  0  0  0  0
  184.4800  176.9130  138.0920 C   0  0  0  0  0  1  0  0  0  0  0  0
  183.7070  176.9540  139.3290 N   0  0  0  0  0  0  0  0  0  0  0  0
  182.6670  175.9440  139.2480 C   0  0  0  0  0  1  0  0  0  0  0  0
  186.4570  177.6900  142.4990 C   0  0  0  0  0  2  0  0  0  0  0  0
  187.7670  178.1500  141.8880 C   0  0  1  0  0  3  0  0  0  0  0  0
  187.6330  179.4530  141.4050 O   0  0  0  0  0  1  0  0  0  0  0  0
  188.8550  178.0990  142.9430 C   0  0  0  0  0  2  0  0  0  0  0  0
  188.7110  177.6270  147.2950 C   0  0  0  0  0  0  0  0  0  0  0  0
  190.1170  177.2960  147.0450 C   0  0  0  0  0  3  0  0  0  0  0  0
  188.2450  178.0850  148.9180 Cl  0  0  0  0  0  0  0  0  0  0  0  0
  188.6990  176.8640  143.8140 C   0  0  1  0  0  3  0  0  0  0  0  0
  190.6520  176.9100  145.7660 C   0  0  0  0  0  3  0  0  0  0  0  0
  187.6940  177.6030  146.2770 C   0  0  0  0  0  3  0  0  0  0  0  0
  189.6460  176.9050  144.8490 C   0  0  0  0  0  0  0  0  0  0  0  0
  188.2460  177.2320  145.0910 C   0  0  0  0  0  0  0  0  0  0  0  0
  1  7  1  6  0  0  0
  1  2  1  0  0  0  0
  1  4  1  0  0  0  0
  2 19  1  1  0  0  0
  2  3  1  0  0  0  0
  3  5  1  0  0  0  0
  4  5  1  0  0  0  0
  7  6  1  6  0  0  0
  8 17  1  6  0  0  0
  8  7  1  0  0  0  0
 10 15  1  0  0  0  0
 11 10  1  0  0  0  0
 11  8  1  1  0  0  0
 12 15  1  0  0  0  0
 13  9  1  6  0  0  0
 13 12  1  0  0  0  0
 13 11  1  0  0  0  0
 15 14  1  1  0  0  0
 16 17  1  0  0  0  0
 18 17  1  0  0  0  0
 20 21  1  1  0  0  0
 20 19  1  0  0  0  0
 20 22  1  0  0  0  0
 23 25  1  0  0  0  0
 24 23  1  0  0  0  0
 26 22  1  6  0  0  0
 26 29  1  0  0  0  0
 26 30  1  0  0  0  0
 27 24  2  0  0  0  0
 28 23  2  0  0  0  0
 29 30  2  0  0  0  0
 29 27  1  0  0  0  0
 30 28  1  0  0  0  0
M  END
>  <MODEL>
4

>  <REMARK>
 VINA RESULT:      -6.8      4.790      6.311
  Name = 
  8 active torsions:
  status: ('A' for Active; 'I' for Inactive)
    1  A    between atoms: C_3  and  C_11
    2  A    between atoms: C_3  and  C_19
    3  A    between atoms: N_4  and  C_13
    4  A    between atoms: C_7  and  C_30
    5  A    between atoms: C_8  and  C_13
    6  A    between atoms: C_10  and  C_25
    7  A    between atoms: C_11  and  C_25
    8  A    between atoms: C_13  and  C_30
                            x       y       z     vdW  Elec       q    Type
                         _______ _______ _______ _____ _____    ______ ____

>  <TORSDO>
F 8

$$$$
=
 OpenBabel10272413493D

 30 33  0  0  1  0  0  0  0  0999 V2000
  185.2860  177.9420  138.5790 C   0  0  1  0  0  3  0  0  0  0  0  0
  185.2980  179.1660  139.4800 C   0  0  1  0  0  3  0  0  0  0  0  0
  183.9250  179.6250  139.6390 N   0  0  0  0  0  2  0  0  0  0  0  0
  183.8860  177.8630  138.0220 C   0  0  0  0  0  2  0  0  0  0  0  0
  183.2110  179.1390  138.4700 C   0  0  0  0  0  2  0  0  0  0  0  0
  186.6220  179.3670  137.1280 O   0  0  0  0  0  1  0  0  0  0  0  0
  186.3060  178.0400  137.4390 C   0  0  1  0  0  3  0  0  0  0  0  0
  187.5660  177.2020  137.7000 C   0  0  1  0  0  3  0  0  0  0  0  0
  190.1060  175.3760  135.4630 C   0  0  0  0  0  1  0  0  0  0  0  0
  186.9250  176.2250  135.1560 S   0  0  0  0  0  0  0  0  0  0  0  0
  188.1940  176.6880  136.3770 C   0  0  2  0  0  3  0  0  0  0  0  0
  188.1340  173.9490  136.7130 S   0  0  0  0  0  0  0  0  0  0  0  0
  189.1000  175.4870  136.5910 C   0  0  1  0  0  3  0  0  0  0  0  0
  185.5210  174.7280  136.9700 C   0  0  0  0  0  1  0  0  0  0  0  0
  186.6240  174.6100  135.9370 C   0  0  1  0  0  3  0  0  0  0  0  0
  189.7140  178.3400  137.9420 C   0  0  0  0  0  1  0  0  0  0  0  0
  188.4920  177.9050  138.6090 N   0  0  0  0  0  0  0  0  0  0  0  0
  188.8600  177.0140  139.6960 C   0  0  0  0  0  1  0  0  0  0  0  0
  185.8860  178.8060  140.8320 C   0  0  0  0  0  2  0  0  0  0  0  0
  184.8130  178.8620  141.9030 C   0  0  1  0  0  3  0  0  0  0  0  0
  184.0930  177.6670  141.9160 O   0  0  0  0  0  1  0  0  0  0  0  0
  185.4670  179.0870  143.2530 C   0  0  0  0  0  2  0  0  0  0  0  0
  187.6720  178.0350  146.8880 C   0  0  0  0  0  0  0  0  0  0  0  0
  188.5960  177.5280  145.8690 C   0  0  0  0  0  3  0  0  0  0  0  0
  188.2930  178.3250  148.4970 Cl  0  0  0  0  0  0  0  0  0  0  0  0
  185.5680  177.7810  144.0220 C   0  0  1  0  0  3  0  0  0  0  0  0
  188.2350  177.2490  144.5040 C   0  0  0  0  0  3  0  0  0  0  0  0
  186.2820  178.3120  146.6360 C   0  0  0  0  0  3  0  0  0  0  0  0
  186.9150  177.5280  144.3280 C   0  0  0  0  0  0  0  0  0  0  0  0
  185.9900  178.0310  145.3380 C   0  0  0  0  0  0  0  0  0  0  0  0
  1  7  1  6  0  0  0
  1  2  1  0  0  0  0
  2  3  1  0  0  0  0
  2 19  1  1  0  0  0
  4  5  1  0  0  0  0
  4  1  1  0  0  0  0
  5  3  1  0  0  0  0
  7  6  1  1  0  0  0
  7  8  1  0  0  0  0
  8 17  1  6  0  0  0
 10 15  1  0  0  0  0
 10 11  1  0  0  0  0
 11 13  1  0  0  0  0
 11  8  1  1  0  0  0
 13  9  1  6  0  0  0
 13 12  1  0  0  0  0
 15 12  1  0  0  0  0
 15 14  1  1  0  0  0
 16 17  1  0  0  0  0
 17 18  1  0  0  0  0
 19 20  1  0  0  0  0
 20 21  1  1  0  0  0
 20 22  1  0  0  0  0
 23 25  1  0  0  0  0
 24 23  2  0  0  0  0
 26 22  1  6  0  0  0
 26 29  1  0  0  0  0
 26 30  1  0  0  0  0
 27 24  1  0  0  0  0
 28 23  1  0  0  0  0
 29 27  2  0  0  0  0
 29 30  1  0  0  0  0
 30 28  2  0  0  0  0
M  END
>  <MODEL>
5

>  <REMARK>
 VINA RESULT:      -6.8      2.964      3.993
  Name = 
  8 active torsions:
  status: ('A' for Active; 'I' for Inactive)
    1  A    between atoms: C_3  and  C_11
    2  A    between atoms: C_3  and  C_19
    3  A    between atoms: N_4  and  C_13
    4  A    between atoms: C_7  and  C_30
    5  A    between atoms: C_8  and  C_13
    6  A    between atoms: C_10  and  C_25
    7  A    between atoms: C_11  and  C_25
    8  A    between atoms: C_13  and  C_30
                            x       y       z     vdW  Elec       q    Type
                         _______ _______ _______ _____ _____    ______ ____

>  <TORSDO>
F 8

$$$$
=
 OpenBabel10272413493D

 30 33  0  0  1  0  0  0  0  0999 V2000
  190.6200  176.0030  136.9870 C   0  0  1  0  0  3  0  0  0  0  0  0
  191.1570  176.0810  138.4070 C   0  0  1  0  0  3  0  0  0  0  0  0
  192.5300  176.5620  138.3460 N   0  0  0  0  0  2  0  0  0  0  0  0
  191.8150  176.2160  136.0900 C   0  0  0  0  0  2  0  0  0  0  0  0
  193.0080  176.2170  137.0170 C   0  0  0  0  0  2  0  0  0  0  0  0
  190.1450  173.7300  137.7140 O   0  0  0  0  0  1  0  0  0  0  0  0
  189.9600  174.6550  136.6800 C   0  0  1  0  0  3  0  0  0  0  0  0
  188.4790  174.7940  136.3010 C   0  0  1  0  0  3  0  0  0  0  0  0
  187.4890  177.9550  134.3460 C   0  0  0  0  0  1  0  0  0  0  0  0
  187.0170  176.8910  137.4410 S   0  0  0  0  0  0  0  0  0  0  0  0
  188.0790  176.2800  136.0950 C   0  0  2  0  0  3  0  0  0  0  0  0
  185.5900  176.0700  134.9190 S   0  0  0  0  0  0  0  0  0  0  0  0
  187.3510  176.5090  134.7810 C   0  0  1  0  0  3  0  0  0  0  0  0
  185.3420  174.7290  137.2950 C   0  0  0  0  0  1  0  0  0  0  0  0
  185.5230  176.1280  136.7390 C   0  0  1  0  0  3  0  0  0  0  0  0
  187.6660  172.5810  135.6590 C   0  0  0  0  0  1  0  0  0  0  0  0
  188.1270  173.8840  135.1920 N   0  0  0  0  0  0  0  0  0  0  0  0
  189.2960  173.6790  134.3550 C   0  0  0  0  0  1  0  0  0  0  0  0
  190.3080  177.0330  139.2290 C   0  0  0  0  0  2  0  0  0  0  0  0
  190.5800  176.8350  140.7080 C   0  0  1  0  0  3  0  0  0  0  0  0
  191.6400  177.6500  141.1080 O   0  0  0  0  0  1  0  0  0  0  0  0
  189.3320  177.1860  141.4960 C   0  0  0  0  0  2  0  0  0  0  0  0
  187.5560  177.6350  145.4740 C   0  0  0  0  0  0  0  0  0  0  0  0
  188.9790  177.7210  145.8150 C   0  0  0  0  0  3  0  0  0  0  0  0
  186.3910  178.2570  146.6220 Cl  0  0  0  0  0  0  0  0  0  0  0  0
  189.1060  176.1810  142.6130 C   0  0  1  0  0  3  0  0  0  0  0  0
  190.0510  177.2610  144.9730 C   0  0  0  0  0  3  0  0  0  0  0  0
  187.0640  177.0720  144.2440 C   0  0  0  0  0  3  0  0  0  0  0  0
  189.5250  176.7410  143.8300 C   0  0  0  0  0  0  0  0  0  0  0  0
  188.1110  176.6510  143.4860 C   0  0  0  0  0  0  0  0  0  0  0  0
  1  7  1  6  0  0  0
  1  2  1  0  0  0  0
  2 19  1  1  0  0  0
  3  2  1  0  0  0  0
  4  1  1  0  0  0  0
  4  5  1  0  0  0  0
  5  3  1  0  0  0  0
  7  6  1  1  0  0  0
  8 17  1  6  0  0  0
  8  7  1  0  0  0  0
 11  8  1  1  0  0  0
 11 10  1  0  0  0  0
 12 15  1  0  0  0  0
 13  9  1  1  0  0  0
 13 12  1  0  0  0  0
 13 11  1  0  0  0  0
 15 14  1  1  0  0  0
 15 10  1  0  0  0  0
 17 16  1  0  0  0  0
 18 17  1  0  0  0  0
 19 20  1  0  0  0  0
 20 21  1  1  0  0  0
 20 22  1  0  0  0  0
 23 24  1  0  0  0  0
 23 25  1  0  0  0  0
 26 22  1  6  0  0  0
 26 30  1  0  0  0  0
 26 29  1  0  0  0  0
 27 24  2  0  0  0  0
 28 23  2  0  0  0  0
 29 27  1  0  0  0  0
 30 29  2  0  0  0  0
 30 28  1  0  0  0  0
M  END
>  <MODEL>
6

>  <REMARK>
 VINA RESULT:      -6.8      1.805      2.386
  Name = 
  8 active torsions:
  status: ('A' for Active; 'I' for Inactive)
    1  A    between atoms: C_3  and  C_11
    2  A    between atoms: C_3  and  C_19
    3  A    between atoms: N_4  and  C_13
    4  A    between atoms: C_7  and  C_30
    5  A    between atoms: C_8  and  C_13
    6  A    between atoms: C_10  and  C_25
    7  A    between atoms: C_11  and  C_25
    8  A    between atoms: C_13  and  C_30
                            x       y       z     vdW  Elec       q    Type
                         _______ _______ _______ _____ _____    ______ ____

>  <TORSDO>
F 8

$$$$
=
 OpenBabel10272413493D

 30 33  0  0  1  0  0  0  0  0999 V2000
  189.4180  176.9720  140.4330 C   0  0  1  0  0  3  0  0  0  0  0  0
  189.8180  177.6680  141.7240 C   0  0  1  0  0  3  0  0  0  0  0  0
  188.6660  178.4140  142.2110 N   0  0  0  0  0  2  0  0  0  0  0  0
  188.0730  177.5460  140.0620 C   0  0  0  0  0  2  0  0  0  0  0  0
  187.8440  178.6750  141.0410 C   0  0  0  0  0  2  0  0  0  0  0  0
  191.7470  177.1800  139.7600 O   0  0  0  0  0  1  0  0  0  0  0  0
  190.4250  177.2050  139.3020 C   0  0  1  0  0  3  0  0  0  0  0  0
  190.2160  176.2520  138.1170 C   0  0  1  0  0  3  0  0  0  0  0  0
  190.8610  176.6650  134.3490 C   0  0  0  0  0  1  0  0  0  0  0  0
  189.0420  178.2810  136.5870 S   0  0  0  0  0  0  0  0  0  0  0  0
  190.3200  176.9950  136.7590 C   0  0  2  0  0  3  0  0  0  0  0  0
  188.4620  175.6670  135.2080 S   0  0  0  0  0  0  0  0  0  0  0  0
  190.2030  176.0550  135.5710 C   0  0  1  0  0  3  0  0  0  0  0  0
  187.0310  176.5860  137.3550 C   0  0  0  0  0  1  0  0  0  0  0  0
  187.7590  177.0790  136.1200 C   0  0  1  0  0  3  0  0  0  0  0  0
  192.3930  175.2340  137.6770 C   0  0  0  0  0  1  0  0  0  0  0  0
  191.0630  175.0500  138.2470 N   0  0  0  0  0  0  0  0  0  0  0  0
  190.4250  173.9400  137.5610 C   0  0  0  0  0  1  0  0  0  0  0  0
  190.2460  176.6400  142.7550 C   0  0  0  0  0  2  0  0  0  0  0  0
  191.2850  177.2330  143.6870 C   0  0  1  0  0  3  0  0  0  0  0  0
  192.0250  178.2060  143.0130 O   0  0  0  0  0  1  0  0  0  0  0  0
  190.5880  177.8500  144.8840 C   0  0  0  0  0  2  0  0  0  0  0  0
  186.5940  178.1670  146.6530 C   0  0  0  0  0  0  0  0  0  0  0  0
  187.4210  178.3100  147.8540 C   0  0  0  0  0  3  0  0  0  0  0  0
  184.9350  178.7220  146.7190 Cl  0  0  0  0  0  0  0  0  0  0  0  0
  189.7160  176.8210  145.5840 C   0  0  1  0  0  3  0  0  0  0  0  0
  188.7990  177.9090  147.9510 C   0  0  0  0  0  3  0  0  0  0  0  0
  187.0720  177.6000  145.4190 C   0  0  0  0  0  3  0  0  0  0  0  0
  189.1920  177.3820  146.7600 C   0  0  0  0  0  0  0  0  0  0  0  0
  188.3740  177.2350  145.5610 C   0  0  0  0  0  0  0  0  0  0  0  0
  1  7  1  6  0  0  0
  1  2  1  0  0  0  0
  2  3  1  0  0  0  0
  2 19  1  1  0  0  0
  4  1  1  0  0  0  0
  4  5  1  0  0  0  0
  5  3  1  0  0  0  0
  7  6  1  1  0  0  0
  8 17  1  6  0  0  0
  8  7  1  0  0  0  0
 10 11  1  0  0  0  0
 11  8  1  1  0  0  0
 12 13  1  0  0  0  0
 12 15  1  0  0  0  0
 13  9  1  6  0  0  0
 13 11  1  0  0  0  0
 15 10  1  0  0  0  0
 15 14  1  1  0  0  0
 16 17  1  0  0  0  0
 18 17  1  0  0  0  0
 19 20  1  0  0  0  0
 20 21  1  6  0  0  0
 20 22  1  0  0  0  0
 23 25  1  0  0  0  0
 23 24  1  0  0  0  0
 24 27  2  0  0  0  0
 26 22  1  6  0  0  0
 26 29  1  0  0  0  0
 28 30  1  0  0  0  0
 28 23  2  0  0  0  0
 29 27  1  0  0  0  0
 30 26  1  0  0  0  0
 30 29  2  0  0  0  0
M  END
>  <MODEL>
7

>  <REMARK>
 VINA RESULT:      -6.6      2.184      3.173
  Name = 
  8 active torsions:
  status: ('A' for Active; 'I' for Inactive)
    1  A    between atoms: C_3  and  C_11
    2  A    between atoms: C_3  and  C_19
    3  A    between atoms: N_4  and  C_13
    4  A    between atoms: C_7  and  C_30
    5  A    between atoms: C_8  and  C_13
    6  A    between atoms: C_10  and  C_25
    7  A    between atoms: C_11  and  C_25
    8  A    between atoms: C_13  and  C_30
                            x       y       z     vdW  Elec       q    Type
                         _______ _______ _______ _____ _____    ______ ____

>  <TORSDO>
F 8

$$$$
=
 OpenBabel10272413493D

 30 33  0  0  1  0  0  0  0  0999 V2000
  184.5330  178.0760  140.9720 C   0  0  1  0  0  3  0  0  0  0  0  0
  185.7260  178.6260  141.7380 C   0  0  1  0  0  3  0  0  0  0  0  0
  185.2700  179.0180  143.0640 N   0  0  0  0  0  2  0  0  0  0  0  0
  183.3250  178.3980  141.8160 C   0  0  0  0  0  2  0  0  0  0  0  0
  183.8460  179.2800  142.9280 C   0  0  0  0  0  2  0  0  0  0  0  0
  184.8530  180.0190  139.5430 O   0  0  0  0  0  1  0  0  0  0  0  0
  184.3890  178.6990  139.5790 C   0  0  1  0  0  3  0  0  0  0  0  0
  185.0300  177.8410  138.4780 C   0  0  1  0  0  3  0  0  0  0  0  0
  184.0790  176.9330  134.8650 C   0  0  0  0  0  1  0  0  0  0  0  0
  182.3840  177.8140  137.5630 S   0  0  0  0  0  0  0  0  0  0  0  0
  184.1660  177.8280  137.1890 C   0  0  2  0  0  3  0  0  0  0  0  0
  183.5990  175.1450  136.8790 S   0  0  0  0  0  0  0  0  0  0  0  0
  184.4690  176.6350  136.2990 C   0  0  1  0  0  3  0  0  0  0  0  0
  182.6340  175.7660  139.3650 C   0  0  0  0  0  1  0  0  0  0  0  0
  182.3700  176.0260  137.8950 C   0  0  1  0  0  3  0  0  0  0  0  0
  186.6920  178.8790  137.0190 C   0  0  0  0  0  1  0  0  0  0  0  0
  186.4490  178.1980  138.2860 N   0  0  0  0  0  0  0  0  0  0  0  0
  187.2520  176.9880  138.3130 C   0  0  0  0  0  1  0  0  0  0  0  0
  186.8030  177.5630  141.8510 C   0  0  0  0  0  2  0  0  0  0  0  0
  188.1690  178.1720  141.6030 C   0  0  1  0  0  3  0  0  0  0  0  0
  188.0270  179.4470  141.0530 O   0  0  0  0  0  1  0  0  0  0  0  0
  188.9240  178.2570  142.9160 C   0  0  0  0  0  2  0  0  0  0  0  0
  188.6800  177.6260  147.2430 C   0  0  0  0  0  0  0  0  0  0  0  0
  190.0800  177.2630  147.0070 C   0  0  0  0  0  3  0  0  0  0  0  0
  188.1950  178.0350  148.8730 Cl  0  0  0  0  0  0  0  0  0  0  0  0
  188.7150  176.9940  143.7350 C   0  0  1  0  0  3  0  0  0  0  0  0
  190.6290  176.9100  145.7250 C   0  0  0  0  0  3  0  0  0  0  0  0
  187.6820  177.6700  146.2050 C   0  0  0  0  0  3  0  0  0  0  0  0
  189.6420  176.9680  144.7890 C   0  0  0  0  0  0  0  0  0  0  0  0
  188.2480  177.3280  145.0170 C   0  0  0  0  0  0  0  0  0  0  0  0
  1  7  1  6  0  0  0
  1  2  1  0  0  0  0
  1  4  1  0  0  0  0
  2 19  1  1  0  0  0
  2  3  1  0  0  0  0
  4  5  1  0  0  0  0
  5  3  1  0  0  0  0
  7  6  1  1  0  0  0
  8 17  1  6  0  0  0
  8  7  1  0  0  0  0
 10 15  1  0  0  0  0
 11 10  1  0  0  0  0
 11  8  1  1  0  0  0
 12 15  1  0  0  0  0
 13  9  1  6  0  0  0
 13 12  1  0  0  0  0
 13 11  1  0  0  0  0
 15 14  1  1  0  0  0
 16 17  1  0  0  0  0
 17 18  1  0  0  0  0
 20 21  1  1  0  0  0
 20 19  1  0  0  0  0
 20 22  1  0  0  0  0
 23 25  1  0  0  0  0
 24 23  1  0  0  0  0
 26 22  1  6  0  0  0
 26 29  1  0  0  0  0
 26 30  1  0  0  0  0
 27 24  2  0  0  0  0
 28 23  2  0  0  0  0
 29 30  2  0  0  0  0
 29 27  1  0  0  0  0
 30 28  1  0  0  0  0
M  END
>  <MODEL>
8

>  <REMARK>
 VINA RESULT:      -6.5      3.419      4.686
  Name = 
  8 active torsions:
  status: ('A' for Active; 'I' for Inactive)
    1  A    between atoms: C_3  and  C_11
    2  A    between atoms: C_3  and  C_19
    3  A    between atoms: N_4  and  C_13
    4  A    between atoms: C_7  and  C_30
    5  A    between atoms: C_8  and  C_13
    6  A    between atoms: C_10  and  C_25
    7  A    between atoms: C_11  and  C_25
    8  A    between atoms: C_13  and  C_30
                            x       y       z     vdW  Elec       q    Type
                         _______ _______ _______ _____ _____    ______ ____

>  <TORSDO>
F 8

$$$$
=
 OpenBabel10272413493D

 30 33  0  0  1  0  0  0  0  0999 V2000
  183.5370  177.8790  139.7430 C   0  0  1  0  0  3  0  0  0  0  0  0
  183.5940  178.6760  141.0360 C   0  0  1  0  0  3  0  0  0  0  0  0
  182.2430  178.7640  141.5730 N   0  0  0  0  0  2  0  0  0  0  0  0
  182.0700  177.7280  139.4240 C   0  0  0  0  0  2  0  0  0  0  0  0
  181.3560  178.5970  140.4330 C   0  0  0  0  0  2  0  0  0  0  0  0
  184.5780  179.9080  138.8940 O   0  0  0  0  0  1  0  0  0  0  0  0
  184.2610  178.5790  138.5880 C   0  0  1  0  0  3  0  0  0  0  0  0
  185.4910  177.7990  138.1010 C   0  0  1  0  0  3  0  0  0  0  0  0
  186.7420  176.6450  134.6530 C   0  0  0  0  0  1  0  0  0  0  0  0
  183.7730  176.8850  136.0890 S   0  0  0  0  0  0  0  0  0  0  0  0
  185.4140  177.5030  136.5800 C   0  0  2  0  0  3  0  0  0  0  0  0
  185.8990  174.7870  136.4760 S   0  0  0  0  0  0  0  0  0  0  0  0
  186.4520  176.4870  136.1320 C   0  0  1  0  0  3  0  0  0  0  0  0
  183.7100  175.0310  138.1040 C   0  0  0  0  0  1  0  0  0  0  0  0
  184.1320  175.1950  136.6580 C   0  0  1  0  0  3  0  0  0  0  0  0
  187.6590  178.7280  137.4640 C   0  0  0  0  0  1  0  0  0  0  0  0
  186.7400  178.4380  138.5600 N   0  0  0  0  0  0  0  0  0  0  0  0
  187.4120  177.5530  139.4950 C   0  0  0  0  0  1  0  0  0  0  0  0
  184.5050  177.9810  142.0310 C   0  0  0  0  0  2  0  0  0  0  0  0
  185.0170  178.9750  143.0560 C   0  0  1  0  0  3  0  0  0  0  0  0
  184.3110  178.8290  144.2520 O   0  0  0  0  0  1  0  0  0  0  0  0
  186.4940  178.7290  143.2950 C   0  0  0  0  0  2  0  0  0  0  0  0
  190.0770  176.9080  145.0350 C   0  0  0  0  0  0  0  0  0  0  0  0
  190.0810  176.2740  143.7140 C   0  0  0  0  0  3  0  0  0  0  0  0
  191.5680  176.9190  145.9510 Cl  0  0  0  0  0  0  0  0  0  0  0  0
  186.7110  177.3820  143.9640 C   0  0  1  0  0  3  0  0  0  0  0  0
  188.9380  176.1930  142.8430 C   0  0  0  0  0  3  0  0  0  0  0  0
  188.9170  177.5280  145.6190 C   0  0  0  0  0  3  0  0  0  0  0  0
  187.8760  176.7920  143.4470 C   0  0  0  0  0  0  0  0  0  0  0  0
  187.8660  177.4240  144.7610 C   0  0  0  0  0  0  0  0  0  0  0  0
  1  7  1  6  0  0  0
  1  2  1  0  0  0  0
  2  3  1  0  0  0  0
  2 19  1  1  0  0  0
  4  1  1  0  0  0  0
  4  5  1  0  0  0  0
  5  3  1  0  0  0  0
  7  6  1  1  0  0  0
  8 17  1  6  0  0  0
  8  7  1  0  0  0  0
 10 11  1  0  0  0  0
 10 15  1  0  0  0  0
 11  8  1  1  0  0  0
 12 15  1  0  0  0  0
 13  9  1  6  0  0  0
 13 12  1  0  0  0  0
 13 11  1  0  0  0  0
 15 14  1  1  0  0  0
 16 17  1  0  0  0  0
 17 18  1  0  0  0  0
 19 20  1  0  0  0  0
 20 22  1  0  0  0  0
 20 21  1  1  0  0  0
 23 28  1  0  0  0  0
 23 25  1  0  0  0  0
 24 23  2  0  0  0  0
 26 22  1  6  0  0  0
 26 30  1  0  0  0  0
 27 29  2  0  0  0  0
 27 24  1  0  0  0  0
 29 26  1  0  0  0  0
 29 30  1  0  0  0  0
 30 28  2  0  0  0  0
M  END
>  <MODEL>
9

>  <REMARK>
 VINA RESULT:      -6.4      3.943      5.092
  Name = 
  8 active torsions:
  status: ('A' for Active; 'I' for Inactive)
    1  A    between atoms: C_3  and  C_11
    2  A    between atoms: C_3  and  C_19
    3  A    between atoms: N_4  and  C_13
    4  A    between atoms: C_7  and  C_30
    5  A    between atoms: C_8  and  C_13
    6  A    between atoms: C_10  and  C_25
    7  A    between atoms: C_11  and  C_25
    8  A    between atoms: C_13  and  C_30
                            x       y       z     vdW  Elec       q    Type
                         _______ _______ _______ _____ _____    ______ ____

>  <TORSDO>
F 8

$$$$
