=
 OpenBabel10272400123D

 34 39  0  0  1  0  0  0  0  0999 V2000
  190.0600  177.1570  146.7620 C   0  0  0  0  0  0  0  0  0  0  0  0
  191.4960  175.8690  145.2900 C   0  0  0  0  0  0  0  0  0  0  0  0
  189.5230  177.1750  144.3750 C   0  0  0  0  0  0  0  0  0  0  0  0
  188.9160  177.5500  142.0320 C   0  0  0  0  0  0  0  0  0  0  0  0
  190.9330  176.9110  147.8220 C   0  0  0  0  0  3  0  0  0  0  0  0
  192.3630  175.6400  146.3610 C   0  0  0  0  0  3  0  0  0  0  0  0
  191.2380  177.1790  142.5750 C   0  0  0  0  0  3  0  0  0  0  0  0
  190.3880  176.7500  145.4390 C   0  0  0  0  0  0  0  0  0  0  0  0
  191.5740  177.2770  141.2240 C   0  0  0  0  0  3  0  0  0  0  0  0
  189.2520  177.6330  140.6780 C   0  0  0  0  0  3  0  0  0  0  0  0
  192.1010  176.1820  147.6160 C   0  0  0  0  0  3  0  0  0  0  0  0
  188.2250  177.6500  144.7200 C   0  0  0  0  0  0  0  0  0  0  0  0
  188.8670  177.7400  147.0260 N   0  0  0  0  0  0  0  0  0  0  0  0
  191.6970  175.1200  144.1380 O   0  0  0  0  0  1  0  0  0  0  0  0
  187.6460  177.8250  142.4080 N   0  0  0  0  0  0  0  0  0  0  0  0
  187.2640  177.8950  143.7090 C   0  0  0  0  0  0  0  0  0  0  0  0
  190.5820  177.4820  140.2640 C   0  0  0  0  0  0  0  0  0  0  0  0
  189.9010  177.2540  143.0030 C   0  0  0  0  0  0  0  0  0  0  0  0
  187.9470  177.9520  146.0570 C   0  0  0  0  0  3  0  0  0  0  0  0
  183.5880  178.6440  143.1770 C   0  0  0  0  0  0  0  0  0  0  0  0
  183.1460  178.8570  144.4840 C   0  0  0  0  0  3  0  0  0  0  0  0
  185.8490  178.2570  143.9920 C   0  0  0  0  0  0  0  0  0  0  0  0
  184.0460  178.7630  145.5480 C   0  0  0  0  0  3  0  0  0  0  0  0
  184.9320  178.3400  142.9340 C   0  0  0  0  0  3  0  0  0  0  0  0
  185.3880  178.4600  145.3040 C   0  0  0  0  0  3  0  0  0  0  0  0
  182.6950  178.7300  142.1180 O   0  0  0  0  0  1  0  0  0  0  0  0
  190.9450  177.5530  138.9180 O   0  0  0  0  0  0  0  0  0  0  0  0
  190.1150  177.0610  137.8730 C   0  0  0  0  0  2  0  0  0  0  0  0
  189.3940  179.4510  137.8090 F   0  0  0  0  0  0  0  0  0  0  0  0
  186.8710  176.0580  137.2810 O   0  0  0  0  0  0  0  0  0  0  0  0
  187.3810  177.6570  137.4820 P   0  0  2  0  0  0  0  0  0  0  0  0
  188.5960  177.9790  136.1150 C   0  0  0  0  0  2  0  0  0  0  0  0
  189.1530  178.1440  137.4300 C   0  0  2  0  0  0  0  0  0  0  0  0
  186.3010  178.7060  137.3520 O   0  0  0  0  0  1  0  0  0  0  0  0
  1 13  1  0  0  0  0
  1  5  2  0  0  0  0
  2  8  2  0  0  0  0
  2  6  1  0  0  0  0
  3 12  1  0  0  0  0
  3  8  1  0  0  0  0
  4 15  2  0  0  0  0
  4 18  1  0  0  0  0
  6 11  2  0  0  0  0
  7 18  1  0  0  0  0
  8  1  1  0  0  0  0
  9  7  2  0  0  0  0
 10  4  1  0  0  0  0
 11  5  1  0  0  0  0
 12 19  1  0  0  0  0
 14  2  1  0  0  0  0
 15 16  1  0  0  0  0
 16 22  1  0  0  0  0
 16 12  2  0  0  0  0
 17 10  2  0  0  0  0
 17  9  1  0  0  0  0
 18  3  2  0  0  0  0
 19 13  2  0  0  0  0
 20 21  1  0  0  0  0
 21 23  2  0  0  0  0
 22 25  2  0  0  0  0
 24 20  2  0  0  0  0
 24 22  1  0  0  0  0
 25 23  1  0  0  0  0
 26 20  1  0  0  0  0
 27 17  1  0  0  0  0
 28 27  1  0  0  0  0
 31 30  2  1  0  0  0
 32 33  1  0  0  0  0
 32 31  1  0  0  0  0
 33 31  1  0  0  0  0
 33 29  1  1  0  0  0
 33 28  1  0  0  0  0
 34 31  1  0  0  0  0
M  END
>  <MODEL>
1

>  <REMARK>
 VINA RESULT:     -11.4      0.000      0.000
  Name = 
  4 active torsions:
  status: ('A' for Active; 'I' for Inactive)
    1  A    between atoms: O_3  and  C_13
    2  A    between atoms: O_3  and  C_29
    3  A    between atoms: C_12  and  C_28
    4  A    between atoms: C_13  and  C_33
                            x       y       z     vdW  Elec       q    Type
                         _______ _______ _______ _____ _____    ______ ____

>  <TORSDO>
F 4

$$$$
=
 OpenBabel10272400123D

 34 39  0  0  1  0  0  0  0  0999 V2000
  189.9800  177.1890  146.6350 C   0  0  0  0  0  0  0  0  0  0  0  0
  191.4540  175.9050  145.1970 C   0  0  0  0  0  0  0  0  0  0  0  0
  189.4960  177.2020  144.2370 C   0  0  0  0  0  0  0  0  0  0  0  0
  188.9400  177.5720  141.8800 C   0  0  0  0  0  0  0  0  0  0  0  0
  190.8300  176.9470  147.7150 C   0  0  0  0  0  3  0  0  0  0  0  0
  192.2980  175.6800  146.2870 C   0  0  0  0  0  3  0  0  0  0  0  0
  191.2510  177.2110  142.4750 C   0  0  0  0  0  3  0  0  0  0  0  0
  190.3390  176.7820  145.3200 C   0  0  0  0  0  0  0  0  0  0  0  0
  191.6170  177.3090  141.1320 C   0  0  0  0  0  3  0  0  0  0  0  0
  189.3060  177.6550  140.5340 C   0  0  0  0  0  3  0  0  0  0  0  0
  192.0050  176.2230  147.5360 C   0  0  0  0  0  3  0  0  0  0  0  0
  188.1890  177.6720  144.5520 C   0  0  0  0  0  0  0  0  0  0  0  0
  188.7790  177.7670  146.8710 N   0  0  0  0  0  0  0  0  0  0  0  0
  191.6830  175.1560  144.0510 O   0  0  0  0  0  1  0  0  0  0  0  0
  187.6610  177.8420  142.2280 N   0  0  0  0  0  0  0  0  0  0  0  0
  187.2500  177.9130  143.5190 C   0  0  0  0  0  0  0  0  0  0  0  0
  190.6450  177.5090  140.1510 C   0  0  0  0  0  0  0  0  0  0  0  0
  189.9040  177.2810  142.8730 C   0  0  0  0  0  0  0  0  0  0  0  0
  187.8800  177.9740  145.8820 C   0  0  0  0  0  3  0  0  0  0  0  0
  183.5800  178.6280  142.9070 C   0  0  0  0  0  0  0  0  0  0  0  0
  183.1120  178.8570  144.2030 C   0  0  0  0  0  3  0  0  0  0  0  0
  185.8270  178.2690  143.7710 C   0  0  0  0  0  0  0  0  0  0  0  0
  183.9920  178.7850  145.2850 C   0  0  0  0  0  3  0  0  0  0  0  0
  184.9300  178.3300  142.6940 C   0  0  0  0  0  3  0  0  0  0  0  0
  185.3400  178.4870  145.0700 C   0  0  0  0  0  3  0  0  0  0  0  0
  182.7060  178.6940  141.8300 O   0  0  0  0  0  1  0  0  0  0  0  0
  191.0380  177.5800  138.8130 O   0  0  0  0  0  0  0  0  0  0  0  0
  190.2740  177.0090  137.7580 C   0  0  0  0  0  2  0  0  0  0  0  0
  190.1630  174.5150  137.6800 F   0  0  0  0  0  0  0  0  0  0  0  0
  193.7090  176.8720  137.5070 O   0  0  0  0  0  0  0  0  0  0  0  0
  192.6800  175.5340  137.6040 P   0  0  2  0  0  0  0  0  0  0  0  0
  191.5690  175.6380  136.1200 C   0  0  0  0  0  2  0  0  0  0  0  0
  190.8610  175.6670  137.3690 C   0  0  2  0  0  0  0  0  0  0  0  0
  193.3580  174.1850  137.5410 O   0  0  0  0  0  1  0  0  0  0  0  0
  1 13  1  0  0  0  0
  1  5  2  0  0  0  0
  2  8  2  0  0  0  0
  2  6  1  0  0  0  0
  3 12  1  0  0  0  0
  3  8  1  0  0  0  0
  4 15  2  0  0  0  0
  4 18  1  0  0  0  0
  6 11  2  0  0  0  0
  7 18  1  0  0  0  0
  8  1  1  0  0  0  0
  9  7  2  0  0  0  0
 10  4  1  0  0  0  0
 11  5  1  0  0  0  0
 12 19  1  0  0  0  0
 14  2  1  0  0  0  0
 15 16  1  0  0  0  0
 16 22  1  0  0  0  0
 16 12  2  0  0  0  0
 17 10  2  0  0  0  0
 17  9  1  0  0  0  0
 18  3  2  0  0  0  0
 19 13  2  0  0  0  0
 20 21  1  0  0  0  0
 21 23  2  0  0  0  0
 22 25  2  0  0  0  0
 24 20  2  0  0  0  0
 24 22  1  0  0  0  0
 25 23  1  0  0  0  0
 26 20  1  0  0  0  0
 27 17  1  0  0  0  0
 28 27  1  0  0  0  0
 31 30  2  1  0  0  0
 32 33  1  0  0  0  0
 32 31  1  0  0  0  0
 33 31  1  0  0  0  0
 33 29  1  1  0  0  0
 33 28  1  0  0  0  0
 34 31  1  0  0  0  0
M  END
>  <MODEL>
2

>  <REMARK>
 VINA RESULT:     -11.3      1.843      2.423
  Name = 
  4 active torsions:
  status: ('A' for Active; 'I' for Inactive)
    1  A    between atoms: O_3  and  C_13
    2  A    between atoms: O_3  and  C_29
    3  A    between atoms: C_12  and  C_28
    4  A    between atoms: C_13  and  C_33
                            x       y       z     vdW  Elec       q    Type
                         _______ _______ _______ _____ _____    ______ ____

>  <TORSDO>
F 4

$$$$
=
 OpenBabel10272400123D

 34 39  0  0  1  0  0  0  0  0999 V2000
  186.8880  178.4540  147.0570 C   0  0  0  0  0  0  0  0  0  0  0  0
  188.8140  177.1940  146.2880 C   0  0  0  0  0  0  0  0  0  0  0  0
  187.0940  178.0830  144.6480 C   0  0  0  0  0  0  0  0  0  0  0  0
  187.1880  178.0580  142.2000 C   0  0  0  0  0  0  0  0  0  0  0  0
  187.4200  178.4720  148.3470 C   0  0  0  0  0  3  0  0  0  0  0  0
  189.3360  177.2290  147.5840 C   0  0  0  0  0  3  0  0  0  0  0  0
  189.2630  178.0860  143.4320 C   0  0  0  0  0  3  0  0  0  0  0  0
  187.6350  177.9260  145.9680 C   0  0  0  0  0  0  0  0  0  0  0  0
  189.9800  178.0510  142.2350 C   0  0  0  0  0  3  0  0  0  0  0  0
  187.9070  178.0070  141.0030 C   0  0  0  0  0  3  0  0  0  0  0  0
  188.6590  177.8910  148.6040 C   0  0  0  0  0  3  0  0  0  0  0  0
  185.7150  178.4150  144.5270 C   0  0  0  0  0  0  0  0  0  0  0  0
  185.6220  178.8960  146.8710 N   0  0  0  0  0  0  0  0  0  0  0  0
  189.4210  176.3350  145.3820 O   0  0  0  0  0  1  0  0  0  0  0  0
  185.8440  178.2020  142.1500 N   0  0  0  0  0  0  0  0  0  0  0  0
  185.0840  178.3900  143.2590 C   0  0  0  0  0  0  0  0  0  0  0  0
  189.3080  177.9890  141.0140 C   0  0  0  0  0  0  0  0  0  0  0  0
  187.8590  178.0320  143.4460 C   0  0  0  0  0  0  0  0  0  0  0  0
  185.0210  178.8500  145.6610 C   0  0  0  0  0  3  0  0  0  0  0  0
  181.7150  178.7350  141.5600 C   0  0  0  0  0  0  0  0  0  0  0  0
  180.8560  178.8740  142.6520 C   0  0  0  0  0  3  0  0  0  0  0  0
  183.6220  178.5880  143.0660 C   0  0  0  0  0  0  0  0  0  0  0  0
  181.3700  178.8620  143.9500 C   0  0  0  0  0  3  0  0  0  0  0  0
  183.0900  178.5860  141.7670 C   0  0  0  0  0  3  0  0  0  0  0  0
  182.7440  178.7140  144.1550 C   0  0  0  0  0  3  0  0  0  0  0  0
  181.2050  178.7400  140.2690 O   0  0  0  0  0  1  0  0  0  0  0  0
  190.0510  177.9310  139.8330 O   0  0  0  0  0  0  0  0  0  0  0  0
  189.4550  178.0380  138.5460 C   0  0  0  0  0  2  0  0  0  0  0  0
  188.2940  175.9050  137.9660 F   0  0  0  0  0  0  0  0  0  0  0  0
  192.5090  176.4840  138.1780 O   0  0  0  0  0  1  0  0  0  0  0  0
  191.0030  175.7310  138.0300 P   0  0  2  0  0  0  0  0  0  0  0  0
  190.1400  176.5920  136.6280 C   0  0  0  0  0  2  0  0  0  0  0  0
  189.4350  176.6790  137.8770 C   0  0  2  0  0  0  0  0  0  0  0  0
  191.0410  174.2630  137.6740 O   0  0  0  0  0  0  0  0  0  0  0  0
  1  5  2  0  0  0  0
  2  6  1  0  0  0  0
  3  8  1  0  0  0  0
  4 18  1  0  0  0  0
  5 11  1  0  0  0  0
  6 11  2  0  0  0  0
  7 18  1  0  0  0  0
  8  2  2  0  0  0  0
  8  1  1  0  0  0  0
  9  7  2  0  0  0  0
 10 17  2  0  0  0  0
 10  4  1  0  0  0  0
 12  3  1  0  0  0  0
 12 19  1  0  0  0  0
 13  1  1  0  0  0  0
 14  2  1  0  0  0  0
 15  4  2  0  0  0  0
 15 16  1  0  0  0  0
 16 12  2  0  0  0  0
 17  9  1  0  0  0  0
 18  3  2  0  0  0  0
 19 13  2  0  0  0  0
 20 24  2  0  0  0  0
 20 21  1  0  0  0  0
 21 23  2  0  0  0  0
 22 16  1  0  0  0  0
 22 25  2  0  0  0  0
 23 25  1  0  0  0  0
 24 22  1  0  0  0  0
 26 20  1  0  0  0  0
 27 17  1  0  0  0  0
 28 27  1  0  0  0  0
 31 34  2  1  0  0  0
 31 30  1  0  0  0  0
 32 33  1  0  0  0  0
 32 31  1  0  0  0  0
 33 29  1  1  0  0  0
 33 31  1  0  0  0  0
 33 28  1  0  0  0  0
M  END
>  <MODEL>
3

>  <REMARK>
 VINA RESULT:     -11.0      2.213      3.045
  Name = 
  4 active torsions:
  status: ('A' for Active; 'I' for Inactive)
    1  A    between atoms: O_3  and  C_13
    2  A    between atoms: O_3  and  C_29
    3  A    between atoms: C_12  and  C_28
    4  A    between atoms: C_13  and  C_33
                            x       y       z     vdW  Elec       q    Type
                         _______ _______ _______ _____ _____    ______ ____

>  <TORSDO>
F 4

$$$$
=
 OpenBabel10272400123D

 34 39  0  0  1  0  0  0  0  0999 V2000
  189.6560  177.2990  146.4170 C   0  0  0  0  0  0  0  0  0  0  0  0
  191.1090  176.0340  144.9410 C   0  0  0  0  0  0  0  0  0  0  0  0
  189.1110  177.3070  144.0320 C   0  0  0  0  0  0  0  0  0  0  0  0
  188.4910  177.6720  141.6900 C   0  0  0  0  0  0  0  0  0  0  0  0
  190.5360  177.0670  147.4750 C   0  0  0  0  0  3  0  0  0  0  0  0
  191.9820  175.8190  146.0090 C   0  0  0  0  0  3  0  0  0  0  0  0
  190.8210  177.3390  142.2260 C   0  0  0  0  0  3  0  0  0  0  0  0
  189.9860  176.8970  145.0930 C   0  0  0  0  0  0  0  0  0  0  0  0
  191.1510  177.4420  140.8740 C   0  0  0  0  0  3  0  0  0  0  0  0
  188.8220  177.7600  140.3350 C   0  0  0  0  0  3  0  0  0  0  0  0
  191.7150  176.3570  147.2650 C   0  0  0  0  0  3  0  0  0  0  0  0
  187.8070  177.7610  144.3800 C   0  0  0  0  0  0  0  0  0  0  0  0
  188.4550  177.8630  146.6840 N   0  0  0  0  0  0  0  0  0  0  0  0
  191.3180  175.2880  143.7890 O   0  0  0  0  0  1  0  0  0  0  0  0
  187.2180  177.9260  142.0700 N   0  0  0  0  0  0  0  0  0  0  0  0
  186.8390  177.9910  143.3720 C   0  0  0  0  0  0  0  0  0  0  0  0
  190.1530  177.6310  139.9180 C   0  0  0  0  0  0  0  0  0  0  0  0
  189.4840  177.3920  142.6580 C   0  0  0  0  0  0  0  0  0  0  0  0
  187.5290  178.0590  145.7180 C   0  0  0  0  0  3  0  0  0  0  0  0
  183.1540  178.6980  142.8480 C   0  0  0  0  0  0  0  0  0  0  0  0
  182.7090  178.8860  144.1580 C   0  0  0  0  0  3  0  0  0  0  0  0
  185.4190  178.3300  143.6600 C   0  0  0  0  0  0  0  0  0  0  0  0
  183.6090  178.7880  145.2210 C   0  0  0  0  0  3  0  0  0  0  0  0
  184.5010  178.4150  142.6020 C   0  0  0  0  0  3  0  0  0  0  0  0
  184.9550  178.5070  144.9730 C   0  0  0  0  0  3  0  0  0  0  0  0
  182.2600  178.7880  141.7900 O   0  0  0  0  0  1  0  0  0  0  0  0
  190.5100  177.7070  138.5700 O   0  0  0  0  0  0  0  0  0  0  0  0
  189.5530  177.8690  137.5310 C   0  0  0  0  0  2  0  0  0  0  0  0
  190.4790  176.7650  135.4910 F   0  0  0  0  0  0  0  0  0  0  0  0
  186.7330  175.8980  137.3260 O   0  0  0  0  0  1  0  0  0  0  0  0
  188.0110  175.8970  136.2200 P   0  0  2  0  0  0  0  0  0  0  0  0
  189.5170  175.3950  137.1840 C   0  0  0  0  0  2  0  0  0  0  0  0
  189.6290  176.6930  136.5780 C   0  0  2  0  0  0  0  0  0  0  0  0
  187.8840  174.9140  135.0800 O   0  0  0  0  0  0  0  0  0  0  0  0
  1 13  1  0  0  0  0
  1  5  2  0  0  0  0
  2  8  2  0  0  0  0
  2  6  1  0  0  0  0
  3 12  1  0  0  0  0
  3  8  1  0  0  0  0
  4 15  2  0  0  0  0
  4 18  1  0  0  0  0
  6 11  2  0  0  0  0
  7 18  1  0  0  0  0
  8  1  1  0  0  0  0
  9  7  2  0  0  0  0
 10  4  1  0  0  0  0
 11  5  1  0  0  0  0
 12 19  1  0  0  0  0
 14  2  1  0  0  0  0
 15 16  1  0  0  0  0
 16 22  1  0  0  0  0
 16 12  2  0  0  0  0
 17 10  2  0  0  0  0
 17  9  1  0  0  0  0
 18  3  2  0  0  0  0
 19 13  2  0  0  0  0
 20 21  1  0  0  0  0
 21 23  2  0  0  0  0
 22 25  2  0  0  0  0
 24 20  2  0  0  0  0
 24 22  1  0  0  0  0
 25 23  1  0  0  0  0
 26 20  1  0  0  0  0
 27 17  1  0  0  0  0
 28 27  1  0  0  0  0
 31 34  2  6  0  0  0
 31 33  1  0  0  0  0
 31 32  1  0  0  0  0
 31 30  1  0  0  0  0
 33 29  1  6  0  0  0
 33 32  1  0  0  0  0
 33 28  1  0  0  0  0
M  END
>  <MODEL>
4

>  <REMARK>
 VINA RESULT:     -10.9      1.088      1.351
  Name = 
  4 active torsions:
  status: ('A' for Active; 'I' for Inactive)
    1  A    between atoms: O_3  and  C_13
    2  A    between atoms: O_3  and  C_29
    3  A    between atoms: C_12  and  C_28
    4  A    between atoms: C_13  and  C_33
                            x       y       z     vdW  Elec       q    Type
                         _______ _______ _______ _____ _____    ______ ____

>  <TORSDO>
F 4

$$$$
=
 OpenBabel10272400123D

 34 39  0  0  1  0  0  0  0  0999 V2000
  182.5720  178.7500  141.4330 C   0  0  0  0  0  0  0  0  0  0  0  0
  183.4640  179.7330  139.4010 C   0  0  0  0  0  0  0  0  0  0  0  0
  185.0010  178.7250  141.1500 C   0  0  0  0  0  0  0  0  0  0  0  0
  187.4190  178.3600  141.0040 C   0  0  0  0  0  0  0  0  0  0  0  0
  181.2780  178.8950  140.9290 C   0  0  0  0  0  3  0  0  0  0  0  0
  182.1620  179.8630  138.9100 C   0  0  0  0  0  3  0  0  0  0  0  0
  186.1320  178.3760  138.9620 C   0  0  0  0  0  3  0  0  0  0  0  0
  183.7050  179.0470  140.6260 C   0  0  0  0  0  0  0  0  0  0  0  0
  187.2970  178.1730  138.2210 C   0  0  0  0  0  3  0  0  0  0  0  0
  188.5870  178.1720  140.2590 C   0  0  0  0  0  3  0  0  0  0  0  0
  181.0740  179.4190  139.6560 C   0  0  0  0  0  3  0  0  0  0  0  0
  185.1140  178.4780  142.5470 C   0  0  0  0  0  0  0  0  0  0  0  0
  182.7270  178.3760  142.7240 N   0  0  0  0  0  0  0  0  0  0  0  0
  184.4720  180.3950  138.7130 O   0  0  0  0  0  1  0  0  0  0  0  0
  187.4900  178.3070  142.3540 N   0  0  0  0  0  0  0  0  0  0  0  0
  186.3900  178.3500  143.1490 C   0  0  0  0  0  0  0  0  0  0  0  0
  188.5340  178.0920  138.8610 C   0  0  0  0  0  0  0  0  0  0  0  0
  186.1720  178.5330  140.3590 C   0  0  0  0  0  0  0  0  0  0  0  0
  183.9490  178.2760  143.2950 C   0  0  0  0  0  3  0  0  0  0  0  0
  187.9650  177.4600  146.4770 C   0  0  0  0  0  0  0  0  0  0  0  0
  187.0770  178.0480  147.3810 C   0  0  0  0  0  3  0  0  0  0  0  0
  186.5970  178.2300  144.6170 C   0  0  0  0  0  0  0  0  0  0  0  0
  185.9550  178.7340  146.9110 C   0  0  0  0  0  3  0  0  0  0  0  0
  187.7280  177.5570  145.1020 C   0  0  0  0  0  3  0  0  0  0  0  0
  185.7200  178.8290  145.5370 C   0  0  0  0  0  3  0  0  0  0  0  0
  189.0840  176.7830  146.9420 O   0  0  0  0  0  1  0  0  0  0  0  0
  189.6850  177.9110  138.0920 O   0  0  0  0  0  0  0  0  0  0  0  0
  190.0300  176.6600  137.5100 C   0  0  0  0  0  2  0  0  0  0  0  0
  191.2020  176.1850  139.6640 F   0  0  0  0  0  0  0  0  0  0  0  0
  192.9850  176.2060  135.7940 O   0  0  0  0  0  0  0  0  0  0  0  0
  192.8080  176.1400  137.4740 P   0  0  2  0  0  0  0  0  0  0  0  0
  191.6180  174.7540  137.8070 C   0  0  0  0  0  2  0  0  0  0  0  0
  191.1650  176.0280  138.2920 C   0  0  2  0  0  0  0  0  0  0  0  0
  194.0650  175.8230  138.2490 O   0  0  0  0  0  1  0  0  0  0  0  0
  1 13  1  0  0  0  0
  2  8  1  0  0  0  0
  3 12  1  0  0  0  0
  4 15  2  0  0  0  0
  5  1  1  0  0  0  0
  6  2  2  0  0  0  0
  6 11  1  0  0  0  0
  7 18  1  0  0  0  0
  8  3  1  0  0  0  0
  8  1  2  0  0  0  0
  9 17  1  0  0  0  0
  9  7  2  0  0  0  0
 10  4  1  0  0  0  0
 11  5  2  0  0  0  0
 12 16  2  0  0  0  0
 12 19  1  0  0  0  0
 13 19  2  0  0  0  0
 14  2  1  0  0  0  0
 15 16  1  0  0  0  0
 16 22  1  0  0  0  0
 17 10  2  0  0  0  0
 18  4  1  0  0  0  0
 18  3  2  0  0  0  0
 20 26  1  0  0  0  0
 20 21  1  0  0  0  0
 22 24  1  0  0  0  0
 22 25  2  0  0  0  0
 23 21  2  0  0  0  0
 24 20  2  0  0  0  0
 25 23  1  0  0  0  0
 27 17  1  0  0  0  0
 28 27  1  0  0  0  0
 28 33  1  0  0  0  0
 31 30  2  6  0  0  0
 31 32  1  0  0  0  0
 31 34  1  0  0  0  0
 31 33  1  0  0  0  0
 32 33  1  0  0  0  0
 33 29  1  1  0  0  0
M  END
>  <MODEL>
5

>  <REMARK>
 VINA RESULT:     -10.0      2.850      6.576
  Name = 
  4 active torsions:
  status: ('A' for Active; 'I' for Inactive)
    1  A    between atoms: O_3  and  C_13
    2  A    between atoms: O_3  and  C_29
    3  A    between atoms: C_12  and  C_28
    4  A    between atoms: C_13  and  C_33
                            x       y       z     vdW  Elec       q    Type
                         _______ _______ _______ _____ _____    ______ ____

>  <TORSDO>
F 4

$$$$
=
 OpenBabel10272400123D

 34 39  0  0  1  0  0  0  0  0999 V2000
  185.0130  178.6980  145.1570 C   0  0  0  0  0  0  0  0  0  0  0  0
  187.0550  177.4380  144.8000 C   0  0  0  0  0  0  0  0  0  0  0  0
  185.7320  178.3630  142.8430 C   0  0  0  0  0  0  0  0  0  0  0  0
  186.3510  178.3770  140.4730 C   0  0  0  0  0  0  0  0  0  0  0  0
  185.2550  178.6930  146.5320 C   0  0  0  0  0  3  0  0  0  0  0  0
  187.2860  177.4490  146.1780 C   0  0  0  0  0  3  0  0  0  0  0  0
  188.1120  178.3710  142.1230 C   0  0  0  0  0  3  0  0  0  0  0  0
  185.9750  178.1820  144.2460 C   0  0  0  0  0  0  0  0  0  0  0  0
  189.0700  178.3500  141.1080 C   0  0  0  0  0  3  0  0  0  0  0  0
  187.3110  178.3400  139.4580 C   0  0  0  0  0  3  0  0  0  0  0  0
  186.4070  178.0990  147.0400 C   0  0  0  0  0  3  0  0  0  0  0  0
  184.4120  178.7070  142.4340 C   0  0  0  0  0  0  0  0  0  0  0  0
  183.8180  179.1520  144.7110 N   0  0  0  0  0  0  0  0  0  0  0  0
  187.8400  176.5880  144.0320 O   0  0  0  0  0  1  0  0  0  0  0  0
  185.0500  178.5300  140.1370 N   0  0  0  0  0  0  0  0  0  0  0  0
  184.0690  178.7060  141.0590 C   0  0  0  0  0  0  0  0  0  0  0  0
  188.6760  178.3110  139.7700 C   0  0  0  0  0  0  0  0  0  0  0  0
  186.7380  178.3260  141.8330 C   0  0  0  0  0  0  0  0  0  0  0  0
  183.4920  179.1280  143.3990 C   0  0  0  0  0  3  0  0  0  0  0  0
  181.1880  179.8560  138.8850 C   0  0  0  0  0  0  0  0  0  0  0  0
  180.0930  179.2730  139.5270 C   0  0  0  0  0  3  0  0  0  0  0  0
  182.6840  178.9160  140.5590 C   0  0  0  0  0  0  0  0  0  0  0  0
  180.2870  178.5060  140.6780 C   0  0  0  0  0  3  0  0  0  0  0  0
  182.4770  179.6720  139.3950 C   0  0  0  0  0  3  0  0  0  0  0  0
  181.5750  178.3240  141.1870 C   0  0  0  0  0  3  0  0  0  0  0  0
  180.9980  180.6140  137.7370 O   0  0  0  0  0  1  0  0  0  0  0  0
  189.6560  178.2670  138.7760 O   0  0  0  0  0  0  0  0  0  0  0  0
  189.3620  177.9430  137.4230 C   0  0  0  0  0  2  0  0  0  0  0  0
  188.4670  175.6110  137.4240 F   0  0  0  0  0  0  0  0  0  0  0  0
  192.5610  176.7230  137.8210 O   0  0  0  0  0  0  0  0  0  0  0  0
  191.1540  175.7870  137.7780 P   0  0  2  0  0  0  0  0  0  0  0  0
  190.3950  176.0860  136.1090 C   0  0  0  0  0  2  0  0  0  0  0  0
  189.5400  176.4540  137.2040 C   0  0  2  0  0  0  0  0  0  0  0  0
  191.3610  174.2950  137.8940 O   0  0  0  0  0  1  0  0  0  0  0  0
  1  5  2  0  0  0  0
  2  6  1  0  0  0  0
  3  8  1  0  0  0  0
  4 18  1  0  0  0  0
  5 11  1  0  0  0  0
  6 11  2  0  0  0  0
  8  2  2  0  0  0  0
  8  1  1  0  0  0  0
  9  7  2  0  0  0  0
 10 17  2  0  0  0  0
 10  4  1  0  0  0  0
 12  3  1  0  0  0  0
 12 19  1  0  0  0  0
 13  1  1  0  0  0  0
 14  2  1  0  0  0  0
 15  4  2  0  0  0  0
 15 16  1  0  0  0  0
 16 12  2  0  0  0  0
 17  9  1  0  0  0  0
 18  7  1  0  0  0  0
 18  3  2  0  0  0  0
 19 13  2  0  0  0  0
 20 24  2  0  0  0  0
 20 21  1  0  0  0  0
 21 23  2  0  0  0  0
 22 16  1  0  0  0  0
 22 25  2  0  0  0  0
 23 25  1  0  0  0  0
 24 22  1  0  0  0  0
 26 20  1  0  0  0  0
 27 17  1  0  0  0  0
 28 27  1  0  0  0  0
 31 30  2  1  0  0  0
 31 34  1  0  0  0  0
 32 33  1  0  0  0  0
 32 31  1  0  0  0  0
 33 28  1  0  0  0  0
 33 29  1  1  0  0  0
 33 31  1  0  0  0  0
M  END
>  <MODEL>
6

>  <REMARK>
 VINA RESULT:      -9.9      3.009      4.538
  Name = 
  4 active torsions:
  status: ('A' for Active; 'I' for Inactive)
    1  A    between atoms: O_3  and  C_13
    2  A    between atoms: O_3  and  C_29
    3  A    between atoms: C_12  and  C_28
    4  A    between atoms: C_13  and  C_33
                            x       y       z     vdW  Elec       q    Type
                         _______ _______ _______ _____ _____    ______ ____

>  <TORSDO>
F 4

$$$$
=
 OpenBabel10272400123D

 34 39  0  0  1  0  0  0  0  0999 V2000
  191.3310  177.5020  141.1850 C   0  0  0  0  0  0  0  0  0  0  0  0
  189.7850  176.8980  139.4150 C   0  0  0  0  0  0  0  0  0  0  0  0
  188.9420  177.6700  141.6790 C   0  0  0  0  0  0  0  0  0  0  0  0
  186.6340  178.1500  142.3480 C   0  0  0  0  0  0  0  0  0  0  0  0
  192.3950  177.3890  140.2880 C   0  0  0  0  0  3  0  0  0  0  0  0
  190.8610  176.7980  138.5290 C   0  0  0  0  0  3  0  0  0  0  0  0
  187.2390  178.4140  140.0260 C   0  0  0  0  0  3  0  0  0  0  0  0
  189.9860  177.3860  140.7370 C   0  0  0  0  0  0  0  0  0  0  0  0
  185.9280  178.7810  139.7210 C   0  0  0  0  0  3  0  0  0  0  0  0
  185.3180  178.5030  142.0380 C   0  0  0  0  0  3  0  0  0  0  0  0
  192.1580  177.0710  138.9540 C   0  0  0  0  0  3  0  0  0  0  0  0
  189.2780  177.6920  143.0630 C   0  0  0  0  0  0  0  0  0  0  0  0
  191.6060  177.6680  142.5000 N   0  0  0  0  0  0  0  0  0  0  0  0
  188.5620  176.3980  138.9880 O   0  0  0  0  0  1  0  0  0  0  0  0
  186.9790  177.9860  143.6450 N   0  0  0  0  0  0  0  0  0  0  0  0
  188.2590  177.7720  144.0440 C   0  0  0  0  0  0  0  0  0  0  0  0
  184.9540  178.8070  140.7200 C   0  0  0  0  0  0  0  0  0  0  0  0
  187.6080  178.0350  141.3290 C   0  0  0  0  0  0  0  0  0  0  0  0
  190.6270  177.7220  143.4310 C   0  0  0  0  0  3  0  0  0  0  0  0
  190.0810  177.2520  147.3240 C   0  0  0  0  0  0  0  0  0  0  0  0
  189.0750  177.5160  148.2560 C   0  0  0  0  0  3  0  0  0  0  0  0
  188.5160  177.6600  145.5040 C   0  0  0  0  0  0  0  0  0  0  0  0
  187.7930  177.8600  147.8210 C   0  0  0  0  0  3  0  0  0  0  0  0
  189.8040  177.3300  145.9560 C   0  0  0  0  0  3  0  0  0  0  0  0
  187.5180  177.9360  146.4530 C   0  0  0  0  0  3  0  0  0  0  0  0
  191.3570  176.9160  147.7550 O   0  0  0  0  0  1  0  0  0  0  0  0
  183.6450  179.1550  140.3820 O   0  0  0  0  0  0  0  0  0  0  0  0
  182.5540  178.2500  140.5000 C   0  0  0  0  0  2  0  0  0  0  0  0
  180.8230  179.9430  139.8920 F   0  0  0  0  0  0  0  0  0  0  0  0
  181.8070  178.6730  143.8380 O   0  0  0  0  0  1  0  0  0  0  0  0
  181.1130  179.5370  142.5620 P   0  0  2  0  0  0  0  0  0  0  0  0
  180.2640  178.2750  141.4960 C   0  0  0  0  0  2  0  0  0  0  0  0
  181.2840  179.0160  140.8070 C   0  0  2  0  0  0  0  0  0  0  0  0
  180.0590  180.5450  142.9550 O   0  0  0  0  0  0  0  0  0  0  0  0
  1 13  1  0  0  0  0
  2  8  1  0  0  0  0
  3 12  1  0  0  0  0
  4 15  2  0  0  0  0
  5  1  1  0  0  0  0
  6 11  1  0  0  0  0
  6  2  2  0  0  0  0
  7 18  1  0  0  0  0
  8  1  2  0  0  0  0
  8  3  1  0  0  0  0
  9  7  2  0  0  0  0
  9 17  1  0  0  0  0
 10  4  1  0  0  0  0
 11  5  2  0  0  0  0
 12 19  1  0  0  0  0
 12 16  2  0  0  0  0
 13 19  2  0  0  0  0
 14  2  1  0  0  0  0
 15 16  1  0  0  0  0
 16 22  1  0  0  0  0
 17 10  2  0  0  0  0
 18  3  2  0  0  0  0
 18  4  1  0  0  0  0
 20 26  1  0  0  0  0
 20 21  1  0  0  0  0
 22 24  1  0  0  0  0
 22 25  2  0  0  0  0
 23 21  2  0  0  0  0
 24 20  2  0  0  0  0
 25 23  1  0  0  0  0
 27 28  1  0  0  0  0
 27 17  1  0  0  0  0
 28 33  1  0  0  0  0
 31 34  2  1  0  0  0
 31 30  1  0  0  0  0
 32 31  1  0  0  0  0
 33 29  1  6  0  0  0
 33 32  1  0  0  0  0
 33 31  1  0  0  0  0
M  END
>  <MODEL>
7

>  <REMARK>
 VINA RESULT:      -9.6      2.959      6.416
  Name = 
  4 active torsions:
  status: ('A' for Active; 'I' for Inactive)
    1  A    between atoms: O_3  and  C_13
    2  A    between atoms: O_3  and  C_29
    3  A    between atoms: C_12  and  C_28
    4  A    between atoms: C_13  and  C_33
                            x       y       z     vdW  Elec       q    Type
                         _______ _______ _______ _____ _____    ______ ____

>  <TORSDO>
F 4

$$$$
=
 OpenBabel10272400123D

 34 39  0  0  1  0  0  0  0  0999 V2000
  191.5740  177.2900  140.6480 C   0  0  0  0  0  0  0  0  0  0  0  0
  189.9130  176.7550  138.9620 C   0  0  0  0  0  0  0  0  0  0  0  0
  189.2230  177.5340  141.2760 C   0  0  0  0  0  0  0  0  0  0  0  0
  186.9740  178.0850  142.0750 C   0  0  0  0  0  0  0  0  0  0  0  0
  192.5820  177.1500  139.6930 C   0  0  0  0  0  3  0  0  0  0  0  0
  190.9340  176.6260  138.0170 C   0  0  0  0  0  3  0  0  0  0  0  0
  187.4580  178.3490  139.7250 C   0  0  0  0  0  3  0  0  0  0  0  0
  190.2030  177.2230  140.2750 C   0  0  0  0  0  0  0  0  0  0  0  0
  186.1450  178.7630  139.4970 C   0  0  0  0  0  3  0  0  0  0  0  0
  185.6550  178.4840  141.8420 C   0  0  0  0  0  3  0  0  0  0  0  0
  192.2620  176.8520  138.3710 C   0  0  0  0  0  3  0  0  0  0  0  0
  189.6360  177.5310  142.6380 C   0  0  0  0  0  0  0  0  0  0  0  0
  191.9270  177.4350  141.9470 N   0  0  0  0  0  0  0  0  0  0  0  0
  188.6520  176.2990  138.6000 O   0  0  0  0  0  1  0  0  0  0  0  0
  187.3840  177.8980  143.3500 N   0  0  0  0  0  0  0  0  0  0  0  0
  188.6760  177.6360  143.6750 C   0  0  0  0  0  0  0  0  0  0  0  0
  185.2290  178.8120  140.5480 C   0  0  0  0  0  0  0  0  0  0  0  0
  187.8850  177.9460  141.0020 C   0  0  0  0  0  0  0  0  0  0  0  0
  191.0040  177.5130  142.9310 C   0  0  0  0  0  3  0  0  0  0  0  0
  190.6620  177.0450  146.8460 C   0  0  0  0  0  0  0  0  0  0  0  0
  189.7130  177.3170  147.8340 C   0  0  0  0  0  3  0  0  0  0  0  0
  189.0100  177.5030  145.1180 C   0  0  0  0  0  0  0  0  0  0  0  0
  188.4170  177.6890  147.4720 C   0  0  0  0  0  3  0  0  0  0  0  0
  190.3130  177.1440  145.4960 C   0  0  0  0  0  3  0  0  0  0  0  0
  188.0690  177.7870  146.1230 C   0  0  0  0  0  3  0  0  0  0  0  0
  191.9530  176.6810  147.2030 O   0  0  0  0  0  1  0  0  0  0  0  0
  183.9160  179.2080  140.2860 O   0  0  0  0  0  0  0  0  0  0  0  0
  182.7870  178.5010  140.7860 C   0  0  0  0  0  2  0  0  0  0  0  0
  182.9750  176.1460  139.9790 F   0  0  0  0  0  0  0  0  0  0  0  0
  181.7840  179.5060  137.6450 O   0  0  0  0  0  1  0  0  0  0  0  0
  182.2380  177.9350  138.0730 P   0  0  2  0  0  0  0  0  0  0  0  0
  181.0380  177.3980  139.3850 C   0  0  0  0  0  2  0  0  0  0  0  0
  182.4070  177.3960  139.8220 C   0  0  2  0  0  0  0  0  0  0  0  0
  182.1530  176.9090  136.9670 O   0  0  0  0  0  0  0  0  0  0  0  0
  1 13  1  0  0  0  0
  2  8  1  0  0  0  0
  3 12  1  0  0  0  0
  4 15  2  0  0  0  0
  5  1  1  0  0  0  0
  6 11  1  0  0  0  0
  6  2  2  0  0  0  0
  7 18  1  0  0  0  0
  8  1  2  0  0  0  0
  8  3  1  0  0  0  0
  9  7  2  0  0  0  0
  9 17  1  0  0  0  0
 10  4  1  0  0  0  0
 11  5  2  0  0  0  0
 12 19  1  0  0  0  0
 12 16  2  0  0  0  0
 13 19  2  0  0  0  0
 14  2  1  0  0  0  0
 15 16  1  0  0  0  0
 16 22  1  0  0  0  0
 17 10  2  0  0  0  0
 18  3  2  0  0  0  0
 18  4  1  0  0  0  0
 20 26  1  0  0  0  0
 20 21  1  0  0  0  0
 22 24  1  0  0  0  0
 22 25  2  0  0  0  0
 23 21  2  0  0  0  0
 24 20  2  0  0  0  0
 25 23  1  0  0  0  0
 27 17  1  0  0  0  0
 27 28  1  0  0  0  0
 30 31  1  0  0  0  0
 31 34  2  6  0  0  0
 31 32  1  0  0  0  0
 31 33  1  0  0  0  0
 32 33  1  0  0  0  0
 33 29  1  1  0  0  0
 33 28  1  0  0  0  0
M  END
>  <MODEL>
8

>  <REMARK>
 VINA RESULT:      -9.5      2.754      6.109
  Name = 
  4 active torsions:
  status: ('A' for Active; 'I' for Inactive)
    1  A    between atoms: O_3  and  C_13
    2  A    between atoms: O_3  and  C_29
    3  A    between atoms: C_12  and  C_28
    4  A    between atoms: C_13  and  C_33
                            x       y       z     vdW  Elec       q    Type
                         _______ _______ _______ _____ _____    ______ ____

>  <TORSDO>
F 4

$$$$
=
 OpenBabel10272400123D

 34 39  0  0  1  0  0  0  0  0999 V2000
  185.8800  177.7960  143.3070 C   0  0  0  0  0  0  0  0  0  0  0  0
  186.2500  178.7900  141.1250 C   0  0  0  0  0  0  0  0  0  0  0  0
  188.1320  177.6280  142.3680 C   0  0  0  0  0  0  0  0  0  0  0  0
  190.3870  177.1180  141.5580 C   0  0  0  0  0  0  0  0  0  0  0  0
  184.5110  178.0390  143.1800 C   0  0  0  0  0  3  0  0  0  0  0  0
  184.8760  179.0180  141.0120 C   0  0  0  0  0  3  0  0  0  0  0  0
  188.5970  177.2850  139.9490 C   0  0  0  0  0  3  0  0  0  0  0  0
  186.7670  178.0490  142.2250 C   0  0  0  0  0  0  0  0  0  0  0  0
  189.4980  177.0350  138.9130 C   0  0  0  0  0  3  0  0  0  0  0  0
  191.2910  176.8830  140.5190 C   0  0  0  0  0  3  0  0  0  0  0  0
  184.0050  178.6180  142.0200 C   0  0  0  0  0  3  0  0  0  0  0  0
  188.6040  177.3260  143.6770 C   0  0  0  0  0  0  0  0  0  0  0  0
  186.3550  177.3680  144.5000 N   0  0  0  0  0  0  0  0  0  0  0  0
  187.0760  179.4110  140.1970 O   0  0  0  0  0  1  0  0  0  0  0  0
  190.8190  177.0140  142.8360 N   0  0  0  0  0  0  0  0  0  0  0  0
  189.9840  177.0980  143.9030 C   0  0  0  0  0  0  0  0  0  0  0  0
  190.8540  176.8540  139.1880 C   0  0  0  0  0  0  0  0  0  0  0  0
  189.0270  177.3900  141.2830 C   0  0  0  0  0  0  0  0  0  0  0  0
  187.6760  177.1730  144.7130 C   0  0  0  0  0  3  0  0  0  0  0  0
  190.5070  177.3820  147.6440 C   0  0  0  0  0  0  0  0  0  0  0  0
  191.6010  176.5370  147.8460 C   0  0  0  0  0  3  0  0  0  0  0  0
  190.5740  176.9150  145.2560 C   0  0  0  0  0  0  0  0  0  0  0  0
  192.1790  175.8740  146.7620 C   0  0  0  0  0  3  0  0  0  0  0  0
  189.9930  177.5640  146.3560 C   0  0  0  0  0  3  0  0  0  0  0  0
  191.6650  176.0580  145.4760 C   0  0  0  0  0  3  0  0  0  0  0  0
  189.9270  178.0380  148.7210 O   0  0  0  0  0  1  0  0  0  0  0  0
  191.7360  176.6290  138.1300 O   0  0  0  0  0  0  0  0  0  0  0  0
  193.0980  176.2700  138.3300 C   0  0  0  0  0  2  0  0  0  0  0  0
  192.3360  174.0520  137.4700 F   0  0  0  0  0  0  0  0  0  0  0  0
  196.2970  175.0390  138.6930 O   0  0  0  0  0  1  0  0  0  0  0  0
  194.9560  174.1460  138.1810 P   0  0  2  0  0  0  0  0  0  0  0  0
  194.3660  174.9620  136.6210 C   0  0  0  0  0  2  0  0  0  0  0  0
  193.3790  174.9380  137.6640 C   0  0  2  0  0  0  0  0  0  0  0  0
  195.2300  172.7010  137.8330 O   0  0  0  0  0  0  0  0  0  0  0  0
  1 13  1  0  0  0  0
  2  8  1  0  0  0  0
  3 12  1  0  0  0  0
  4 15  2  0  0  0  0
  5  1  1  0  0  0  0
  6  2  2  0  0  0  0
  6 11  1  0  0  0  0
  7 18  1  0  0  0  0
  8  3  1  0  0  0  0
  8  1  2  0  0  0  0
  9 17  1  0  0  0  0
  9  7  2  0  0  0  0
 10  4  1  0  0  0  0
 11  5  2  0  0  0  0
 12 16  2  0  0  0  0
 12 19  1  0  0  0  0
 13 19  2  0  0  0  0
 14  2  1  0  0  0  0
 15 16  1  0  0  0  0
 16 22  1  0  0  0  0
 17 10  2  0  0  0  0
 18  4  1  0  0  0  0
 18  3  2  0  0  0  0
 20 21  1  0  0  0  0
 20 26  1  0  0  0  0
 22 25  2  0  0  0  0
 22 24  1  0  0  0  0
 23 21  2  0  0  0  0
 24 20  2  0  0  0  0
 25 23  1  0  0  0  0
 27 28  1  0  0  0  0
 27 17  1  0  0  0  0
 31 34  2  1  0  0  0
 31 30  1  0  0  0  0
 32 33  1  0  0  0  0
 32 31  1  0  0  0  0
 33 29  1  6  0  0  0
 33 31  1  0  0  0  0
 33 28  1  0  0  0  0
M  END
>  <MODEL>
9

>  <REMARK>
 VINA RESULT:      -9.4      3.079      6.283
  Name = 
  4 active torsions:
  status: ('A' for Active; 'I' for Inactive)
    1  A    between atoms: O_3  and  C_13
    2  A    between atoms: O_3  and  C_29
    3  A    between atoms: C_12  and  C_28
    4  A    between atoms: C_13  and  C_33
                            x       y       z     vdW  Elec       q    Type
                         _______ _______ _______ _____ _____    ______ ____

>  <TORSDO>
F 4

$$$$
