=
 OpenBabel10272402083D

 32 36  0  0  1  0  0  0  0  0999 V2000
  189.8730  177.8000  142.3280 C   0  0  1  0  0  3  0  0  0  0  0  0
  188.2860  177.1920  140.3660 C   0  0  0  0  0  2  0  0  0  0  0  0
  191.1840  177.8160  142.8400 O   0  0  0  0  0  0  0  0  0  0  0  0
  189.6700  177.6610  140.7150 C   0  0  2  0  0  0  0  0  0  0  0  0
  189.8610  176.6470  136.6530 C   0  0  0  0  0  2  0  0  0  0  0  0
  185.5290  178.1920  137.8730 C   0  0  0  0  0  1  0  0  0  0  0  0
  188.0390  178.0180  137.6920 C   0  0  1  0  0  3  0  0  0  0  0  0
  186.8370  177.5310  137.2710 C   0  0  2  0  0  3  0  0  0  0  0  0
  190.8640  177.3130  139.8460 C   0  0  2  0  0  3  0  0  0  0  0  0
  189.1870  177.8170  136.9240 O   0  0  0  0  0  0  0  0  0  0  0  0
  190.7240  176.0980  138.9110 C   0  0  0  0  0  2  0  0  0  0  0  0
  192.2140  177.2370  140.5990 C   0  0  0  0  0  2  0  0  0  0  0  0
  188.5720  178.6680  140.2530 C   0  0  1  0  0  3  0  0  0  0  0  0
  191.1750  176.5860  137.5090 C   0  0  1  0  0  3  0  0  0  0  0  0
  192.2250  178.0290  141.9170 C   0  0  0  0  0  2  0  0  0  0  0  0
  188.2210  178.9590  138.8300 O   0  0  0  0  0  0  0  0  0  0  0  0
  186.4560  177.4750  134.6620 C   0  0  0  0  0  1  0  0  0  0  0  0
  186.6430  176.6620  136.0020 C   0  0  0  0  0  2  0  0  0  0  0  0
  192.8450  176.0120  136.8740 S   0  0  0  0  0  0  0  0  0  0  0  0
  192.4870  174.3640  137.4130 C   0  0  0  0  0  1  0  0  0  0  0  0
  189.7940  175.3880  143.3010 C   0  0  0  0  0  1  0  0  0  0  0  0
  189.0870  176.7600  143.1100 C   0  0  1  0  0  3  0  0  0  0  0  0
  188.4230  177.3470  144.4120 C   0  0  2  0  0  3  0  0  0  0  0  0
  188.3080  177.2480  147.0980 C   0  0  0  0  0  1  0  0  0  0  0  0
  189.1710  177.0300  145.7850 C   0  0  2  0  0  3  0  0  0  0  0  0
  190.4060  177.6130  145.8640 O   0  0  0  0  0  1  0  0  0  0  0  0
  186.8810  177.3350  144.7600 C   0  0  0  0  0  2  0  0  0  0  0  0
  185.2930  177.9080  143.1760 C   0  0  0  0  0  2  0  0  0  0  0  0
  186.1700  178.5570  144.2270 C   0  0  2  0  0  0  0  0  0  0  0  0
  184.6900  179.1160  143.9740 C   0  0  2  0  0  3  0  0  0  0  0  0
  184.8650  178.2030  146.4330 C   0  0  0  0  0  1  0  0  0  0  0  0
  185.3520  179.2560  145.3340 C   0  0  1  0  0  3  0  0  0  0  0  0
  1  3  1  0  0  0  0
  1 22  1  1  0  0  0
  4  2  1  6  0  0  0
  4  1  1  0  0  0  0
  5 10  1  0  0  0  0
  5 14  1  0  0  0  0
  7  8  1  6  0  0  0
  7 16  1  0  0  0  0
  8  6  1  6  0  0  0
  9 11  1  1  0  0  0
  9 12  1  0  0  0  0
  9  4  1  0  0  0  0
 10  7  1  0  0  0  0
 12 15  1  0  0  0  0
 13  2  1  1  0  0  0
 13  4  1  0  0  0  0
 14 19  1  6  0  0  0
 14 11  1  0  0  0  0
 15  3  1  0  0  0  0
 16 13  1  0  0  0  0
 17 18  1  0  0  0  0
 18  8  1  0  0  0  0
 19 20  1  0  0  0  0
 22 21  1  1  0  0  0
 22 23  1  0  0  0  0
 23 27  1  1  0  0  0
 23 25  1  0  0  0  0
 25 26  1  0  0  0  0
 25 24  1  1  0  0  0
 28 29  1  0  0  0  0
 29 27  1  6  0  0  0
 29 32  1  0  0  0  0
 30 28  1  1  0  0  0
 30 29  1  0  0  0  0
 30 32  1  0  0  0  0
 32 31  1  1  0  0  0
M  END
>  <MODEL>
1

>  <REMARK>
 VINA RESULT:      -7.7      0.000      0.000
  Name = 
  7 active torsions:
  status: ('A' for Active; 'I' for Inactive)
    1  A    between atoms: C_1  and  C_27
    2  A    between atoms: C_7  and  C_20
    3  A    between atoms: C_12  and  C_31
    4  A    between atoms: S_13  and  C_29
    5  A    between atoms: C_16  and  C_20
    6  A    between atoms: C_16  and  C_22
    7  A    between atoms: C_16  and  C_27
                            x       y       z     vdW  Elec       q    Type
                         _______ _______ _______ _____ _____    ______ ____

>  <TORSDO>
F 7

$$$$
=
 OpenBabel10272402083D

 32 36  0  0  1  0  0  0  0  0999 V2000
  189.7680  177.7300  142.1450 C   0  0  1  0  0  3  0  0  0  0  0  0
  188.3390  177.1000  140.0730 C   0  0  0  0  0  2  0  0  0  0  0  0
  191.0400  177.7790  142.7460 O   0  0  0  0  0  0  0  0  0  0  0  0
  189.6810  177.6050  140.5200 C   0  0  2  0  0  0  0  0  0  0  0  0
  190.1790  176.6510  136.4700 C   0  0  0  0  0  2  0  0  0  0  0  0
  185.7280  178.0490  137.4080 C   0  0  0  0  0  1  0  0  0  0  0  0
  188.2490  177.9520  137.3970 C   0  0  1  0  0  3  0  0  0  0  0  0
  187.0940  177.4350  136.8890 C   0  0  2  0  0  3  0  0  0  0  0  0
  190.9400  177.3060  139.7320 C   0  0  2  0  0  3  0  0  0  0  0  0
  189.4520  177.7960  136.7070 O   0  0  0  0  0  0  0  0  0  0  0  0
  190.9030  176.0990  138.7760 C   0  0  0  0  0  2  0  0  0  0  0  0
  192.2390  177.2600  140.5740 C   0  0  0  0  0  2  0  0  0  0  0  0
  188.5860  178.5850  139.9960 C   0  0  1  0  0  3  0  0  0  0  0  0
  191.4330  176.6190  137.4140 C   0  0  1  0  0  3  0  0  0  0  0  0
  192.1350  178.0350  141.8990 C   0  0  0  0  0  2  0  0  0  0  0  0
  188.3230  178.8830  138.5550 O   0  0  0  0  0  0  0  0  0  0  0  0
  186.8640  175.0240  135.8450 C   0  0  0  0  0  1  0  0  0  0  0  0
  187.0140  176.5770  135.6010 C   0  0  0  0  0  2  0  0  0  0  0  0
  193.1600  176.1040  136.8890 S   0  0  0  0  0  0  0  0  0  0  0  0
  192.8710  174.4770  137.5250 C   0  0  0  0  0  1  0  0  0  0  0  0
  189.6840  175.2900  143.0470 C   0  0  0  0  0  1  0  0  0  0  0  0
  188.9630  176.6570  142.8600 C   0  0  1  0  0  3  0  0  0  0  0  0
  188.2290  177.1960  144.1450 C   0  0  2  0  0  3  0  0  0  0  0  0
  185.9300  178.1840  145.1310 C   0  0  0  0  0  1  0  0  0  0  0  0
  186.9090  178.0550  143.8900 C   0  0  2  0  0  3  0  0  0  0  0  0
  186.2580  177.7010  142.7400 O   0  0  0  0  0  1  0  0  0  0  0  0
  188.9190  177.8470  145.4090 C   0  0  0  0  0  2  0  0  0  0  0  0
  191.0780  177.2920  146.0330 C   0  0  0  0  0  2  0  0  0  0  0  0
  189.6530  176.8240  146.2450 C   0  0  2  0  0  0  0  0  0  0  0  0
  190.7020  176.7350  147.4510 C   0  0  2  0  0  3  0  0  0  0  0  0
  188.7570  178.3740  148.1130 C   0  0  0  0  0  1  0  0  0  0  0  0
  189.2170  176.8930  147.7240 C   0  0  1  0  0  3  0  0  0  0  0  0
  1  3  1  0  0  0  0
  1 22  1  1  0  0  0
  4  2  1  6  0  0  0
  4  1  1  0  0  0  0
  5 10  1  0  0  0  0
  5 14  1  0  0  0  0
  7  8  1  6  0  0  0
  7 16  1  0  0  0  0
  8  6  1  6  0  0  0
  9 11  1  1  0  0  0
  9  4  1  0  0  0  0
  9 12  1  0  0  0  0
 10  7  1  0  0  0  0
 12 15  1  0  0  0  0
 13  2  1  6  0  0  0
 13  4  1  0  0  0  0
 14 19  1  6  0  0  0
 14 11  1  0  0  0  0
 15  3  1  0  0  0  0
 16 13  1  0  0  0  0
 18 17  1  0  0  0  0
 18  8  1  0  0  0  0
 19 20  1  0  0  0  0
 22 21  1  1  0  0  0
 22 23  1  0  0  0  0
 23 27  1  6  0  0  0
 25 23  1  0  0  0  0
 25 24  1  1  0  0  0
 26 25  1  0  0  0  0
 28 29  1  0  0  0  0
 29 27  1  6  0  0  0
 29 30  1  0  0  0  0
 29 32  1  0  0  0  0
 30 28  1  6  0  0  0
 30 32  1  0  0  0  0
 32 31  1  6  0  0  0
M  END
>  <MODEL>
2

>  <REMARK>
 VINA RESULT:      -7.6      1.144      2.629
  Name = 
  7 active torsions:
  status: ('A' for Active; 'I' for Inactive)
    1  A    between atoms: C_1  and  C_27
    2  A    between atoms: C_7  and  C_20
    3  A    between atoms: C_12  and  C_31
    4  A    between atoms: S_13  and  C_29
    5  A    between atoms: C_16  and  C_20
    6  A    between atoms: C_16  and  C_22
    7  A    between atoms: C_16  and  C_27
                            x       y       z     vdW  Elec       q    Type
                         _______ _______ _______ _____ _____    ______ ____

>  <TORSDO>
F 7

$$$$
=
 OpenBabel10272402083D

 32 36  0  0  1  0  0  0  0  0999 V2000
  190.5780  177.6030  141.5680 C   0  0  1  0  0  3  0  0  0  0  0  0
  188.4030  177.2050  140.2100 C   0  0  0  0  0  2  0  0  0  0  0  0
  191.9740  177.4400  141.6600 O   0  0  0  0  0  0  0  0  0  0  0  0
  189.8760  177.4770  140.1000 C   0  0  2  0  0  0  0  0  0  0  0  0
  188.6820  176.4050  136.2290 C   0  0  0  0  0  2  0  0  0  0  0  0
  185.1730  178.5580  138.6130 C   0  0  0  0  0  1  0  0  0  0  0  0
  187.4620  178.0290  137.6940 C   0  0  1  0  0  3  0  0  0  0  0  0
  186.1360  177.7120  137.6810 C   0  0  2  0  0  3  0  0  0  0  0  0
  190.6910  176.9560  138.9320 C   0  0  2  0  0  3  0  0  0  0  0  0
  188.2830  177.6610  136.6280 O   0  0  0  0  0  0  0  0  0  0  0  0
  190.1150  175.7630  138.1480 C   0  0  0  0  0  2  0  0  0  0  0  0
  192.1850  176.6980  139.2460 C   0  0  0  0  0  2  0  0  0  0  0  0
  188.8320  178.6240  139.9380 C   0  0  1  0  0  3  0  0  0  0  0  0
  190.1760  176.1680  136.6520 C   0  0  1  0  0  3  0  0  0  0  0  0
  192.7010  177.4940  140.4570 C   0  0  0  0  0  2  0  0  0  0  0  0
  188.1040  178.9470  138.6730 O   0  0  0  0  0  0  0  0  0  0  0  0
  184.8810  175.4760  137.0630 C   0  0  0  0  0  1  0  0  0  0  0  0
  185.4510  176.8660  136.5770 C   0  0  0  0  0  2  0  0  0  0  0  0
  191.4820  175.3580  135.5750 S   0  0  0  0  0  0  0  0  0  0  0  0
  191.4070  173.9000  136.5760 C   0  0  0  0  0  1  0  0  0  0  0  0
  190.7450  175.4090  142.9570 C   0  0  0  0  0  1  0  0  0  0  0  0
  189.9390  176.6930  142.6040 C   0  0  1  0  0  3  0  0  0  0  0  0
  189.3760  177.4800  143.8460 C   0  0  2  0  0  3  0  0  0  0  0  0
  191.0070  179.6100  144.0360 C   0  0  0  0  0  1  0  0  0  0  0  0
  190.4470  178.2880  144.7100 C   0  0  2  0  0  3  0  0  0  0  0  0
  191.4390  177.4900  145.2080 O   0  0  0  0  0  1  0  0  0  0  0  0
  188.3130  176.9440  144.8860 C   0  0  0  0  0  2  0  0  0  0  0  0
  186.1460  177.5800  145.3940 C   0  0  0  0  0  2  0  0  0  0  0  0
  187.5690  178.0690  145.5680 C   0  0  2  0  0  0  0  0  0  0  0  0
  186.4980  178.3170  146.7330 C   0  0  2  0  0  3  0  0  0  0  0  0
  188.4250  176.7730  147.6380 C   0  0  0  0  0  1  0  0  0  0  0  0
  187.9780  178.1920  147.0510 C   0  0  1  0  0  3  0  0  0  0  0  0
  1  3  1  0  0  0  0
  1 22  1  1  0  0  0
  4  2  1  1  0  0  0
  4  1  1  0  0  0  0
  5 10  1  0  0  0  0
  5 14  1  0  0  0  0
  7  8  1  6  0  0  0
  7 16  1  0  0  0  0
  8  6  1  6  0  0  0
  9 11  1  1  0  0  0
  9 12  1  0  0  0  0
  9  4  1  0  0  0  0
 10  7  1  0  0  0  0
 12 15  1  0  0  0  0
 13  4  1  0  0  0  0
 13  2  1  1  0  0  0
 14 19  1  6  0  0  0
 14 11  1  0  0  0  0
 15  3  1  0  0  0  0
 16 13  1  0  0  0  0
 18 17  1  0  0  0  0
 18  8  1  0  0  0  0
 19 20  1  0  0  0  0
 22 21  1  1  0  0  0
 22 23  1  0  0  0  0
 23 25  1  0  0  0  0
 23 27  1  1  0  0  0
 25 24  1  6  0  0  0
 25 26  1  0  0  0  0
 28 29  1  0  0  0  0
 29 27  1  6  0  0  0
 29 30  1  0  0  0  0
 29 32  1  0  0  0  0
 30 28  1  1  0  0  0
 30 32  1  0  0  0  0
 32 31  1  1  0  0  0
M  END
>  <MODEL>
3

>  <REMARK>
 VINA RESULT:      -7.3      1.301      1.930
  Name = 
  7 active torsions:
  status: ('A' for Active; 'I' for Inactive)
    1  A    between atoms: C_1  and  C_27
    2  A    between atoms: C_7  and  C_20
    3  A    between atoms: C_12  and  C_31
    4  A    between atoms: S_13  and  C_29
    5  A    between atoms: C_16  and  C_20
    6  A    between atoms: C_16  and  C_22
    7  A    between atoms: C_16  and  C_27
                            x       y       z     vdW  Elec       q    Type
                         _______ _______ _______ _____ _____    ______ ____

>  <TORSDO>
F 7

$$$$
=
 OpenBabel10272402083D

 32 36  0  0  1  0  0  0  0  0999 V2000
  190.0200  177.6650  142.4080 C   0  0  1  0  0  3  0  0  0  0  0  0
  187.5340  177.4510  141.6980 C   0  0  0  0  0  2  0  0  0  0  0  0
  191.3770  177.5200  142.0600 O   0  0  0  0  0  0  0  0  0  0  0  0
  188.9170  177.7710  141.2100 C   0  0  2  0  0  0  0  0  0  0  0  0
  186.6160  177.3370  137.7350 C   0  0  0  0  0  2  0  0  0  0  0  0
  184.0160  178.9790  141.3650 C   0  0  0  0  0  1  0  0  0  0  0  0
  185.9220  178.6640  139.7420 C   0  0  1  0  0  3  0  0  0  0  0  0
  184.6410  178.3240  140.0640 C   0  0  2  0  0  3  0  0  0  0  0  0
  189.3410  177.4730  139.7850 C   0  0  2  0  0  3  0  0  0  0  0  0
  186.3860  178.4990  138.4370 O   0  0  0  0  0  0  0  0  0  0  0  0
  188.5280  176.4150  139.0150 C   0  0  0  0  0  2  0  0  0  0  0  0
  190.8540  177.1990  139.6010 C   0  0  0  0  0  2  0  0  0  0  0  0
  187.9030  178.9050  141.5550 C   0  0  1  0  0  3  0  0  0  0  0  0
  188.1610  177.0670  137.6570 C   0  0  1  0  0  3  0  0  0  0  0  0
  191.7230  177.7920  140.7230 C   0  0  0  0  0  2  0  0  0  0  0  0
  186.8470  179.4190  140.6300 O   0  0  0  0  0  0  0  0  0  0  0  0
  182.8880  176.3970  139.6580 C   0  0  0  0  0  1  0  0  0  0  0  0
  183.6420  177.6600  139.0840 C   0  0  0  0  0  2  0  0  0  0  0  0
  189.0730  176.4790  136.1260 S   0  0  0  0  0  0  0  0  0  0  0  0
  189.4210  174.9360  136.9220 C   0  0  0  0  0  1  0  0  0  0  0  0
  190.3690  175.2020  143.1740 C   0  0  0  0  0  1  0  0  0  0  0  0
  189.6870  176.5790  143.4180 C   0  0  1  0  0  3  0  0  0  0  0  0
  189.7470  177.0890  144.9070 C   0  0  2  0  0  3  0  0  0  0  0  0
  191.0280  176.6220  147.2250 C   0  0  0  0  0  1  0  0  0  0  0  0
  191.1360  176.8830  145.6640 C   0  0  2  0  0  3  0  0  0  0  0  0
  192.0590  177.8420  145.3540 O   0  0  0  0  0  1  0  0  0  0  0  0
  188.6310  176.8860  146.0090 C   0  0  0  0  0  2  0  0  0  0  0  0
  186.4100  177.3740  145.5780 C   0  0  0  0  0  2  0  0  0  0  0  0
  187.6720  178.0520  146.0680 C   0  0  2  0  0  0  0  0  0  0  0  0
  186.2580  178.4610  146.6990 C   0  0  2  0  0  3  0  0  0  0  0  0
  187.7820  177.4310  148.5770 C   0  0  0  0  0  1  0  0  0  0  0  0
  187.5370  178.5930  147.5070 C   0  0  1  0  0  3  0  0  0  0  0  0
  1 22  1  1  0  0  0
  3  1  1  0  0  0  0
  4 13  1  0  0  0  0
  4  2  1  1  0  0  0
  4  1  1  0  0  0  0
  5 10  1  0  0  0  0
  7  8  1  6  0  0  0
  7 16  1  0  0  0  0
  8  6  1  6  0  0  0
  9 11  1  1  0  0  0
  9  4  1  0  0  0  0
 10  7  1  0  0  0  0
 12  9  1  0  0  0  0
 12 15  1  0  0  0  0
 13  2  1  1  0  0  0
 14 19  1  6  0  0  0
 14  5  1  0  0  0  0
 14 11  1  0  0  0  0
 15  3  1  0  0  0  0
 16 13  1  0  0  0  0
 18 17  1  0  0  0  0
 18  8  1  0  0  0  0
 19 20  1  0  0  0  0
 22 21  1  1  0  0  0
 22 23  1  0  0  0  0
 23 25  1  0  0  0  0
 23 27  1  1  0  0  0
 25 24  1  1  0  0  0
 26 25  1  0  0  0  0
 28 29  1  0  0  0  0
 29 27  1  6  0  0  0
 29 30  1  0  0  0  0
 29 32  1  0  0  0  0
 30 28  1  1  0  0  0
 30 32  1  0  0  0  0
 32 31  1  1  0  0  0
M  END
>  <MODEL>
4

>  <REMARK>
 VINA RESULT:      -7.2      1.795      2.772
  Name = 
  7 active torsions:
  status: ('A' for Active; 'I' for Inactive)
    1  A    between atoms: C_1  and  C_27
    2  A    between atoms: C_7  and  C_20
    3  A    between atoms: C_12  and  C_31
    4  A    between atoms: S_13  and  C_29
    5  A    between atoms: C_16  and  C_20
    6  A    between atoms: C_16  and  C_22
    7  A    between atoms: C_16  and  C_27
                            x       y       z     vdW  Elec       q    Type
                         _______ _______ _______ _____ _____    ______ ____

>  <TORSDO>
F 7

$$$$
=
 OpenBabel10272402083D

 32 36  0  0  1  0  0  0  0  0999 V2000
  190.6850  176.2320  142.4260 C   0  0  1  0  0  3  0  0  0  0  0  0
  188.5090  177.6220  142.6900 C   0  0  0  0  0  2  0  0  0  0  0  0
  191.8820  175.7700  143.0050 O   0  0  0  0  0  0  0  0  0  0  0  0
  189.4930  176.7480  143.4140 C   0  0  2  0  0  0  0  0  0  0  0  0
  187.1640  178.4910  146.4320 C   0  0  0  0  0  2  0  0  0  0  0  0
  184.6800  177.9090  142.4160 C   0  0  0  0  0  1  0  0  0  0  0  0
  186.2440  177.4580  144.3440 C   0  0  1  0  0  3  0  0  0  0  0  0
  185.3340  178.3170  143.8010 C   0  0  2  0  0  3  0  0  0  0  0  0
  189.7860  176.9440  144.8890 C   0  0  2  0  0  3  0  0  0  0  0  0
  186.5280  177.5070  145.7080 O   0  0  0  0  0  0  0  0  0  0  0  0
  189.4540  178.3190  145.4970 C   0  0  0  0  0  2  0  0  0  0  0  0
  191.2050  176.5090  145.3320 C   0  0  0  0  0  2  0  0  0  0  0  0
  188.1320  176.1790  142.9070 C   0  0  1  0  0  3  0  0  0  0  0  0
  188.6250  178.0300  146.7760 C   0  0  1  0  0  3  0  0  0  0  0  0
  191.8550  175.4880  144.3840 C   0  0  0  0  0  2  0  0  0  0  0  0
  186.8320  176.2890  143.6370 O   0  0  0  0  0  0  0  0  0  0  0  0
  183.0690  179.2530  144.7730 C   0  0  0  0  0  1  0  0  0  0  0  0
  184.6240  179.4480  144.5860 C   0  0  0  0  0  2  0  0  0  0  0  0
  189.4630  178.2670  148.4380 S   0  0  0  0  0  0  0  0  0  0  0  0
  187.9230  177.9730  149.2600 C   0  0  0  0  0  1  0  0  0  0  0  0
  192.5490  177.6790  141.3300 C   0  0  0  0  0  1  0  0  0  0  0  0
  191.0520  177.2560  141.3650 C   0  0  1  0  0  3  0  0  0  0  0  0
  190.4260  176.9310  139.9570 C   0  0  2  0  0  3  0  0  0  0  0  0
  192.0640  176.9300  137.8240 C   0  0  0  0  0  1  0  0  0  0  0  0
  191.3420  176.0890  138.9590 C   0  0  2  0  0  3  0  0  0  0  0  0
  190.7150  174.9770  138.4710 O   0  0  0  0  0  1  0  0  0  0  0  0
  189.6150  177.9330  139.0430 C   0  0  0  0  0  2  0  0  0  0  0  0
  187.3600  178.3270  139.3830 C   0  0  0  0  0  2  0  0  0  0  0  0
  188.2710  177.3730  138.6380 C   0  0  2  0  0  0  0  0  0  0  0  0
  186.8900  177.8310  137.9700 C   0  0  2  0  0  3  0  0  0  0  0  0
  188.8920  178.6590  136.4800 C   0  0  0  0  0  1  0  0  0  0  0  0
  188.0760  177.4360  137.1090 C   0  0  1  0  0  3  0  0  0  0  0  0
  1 22  1  6  0  0  0
  1  3  1  0  0  0  0
  1  4  1  0  0  0  0
  3 15  1  0  0  0  0
  4  2  1  6  0  0  0
  4  9  1  0  0  0  0
  5 14  1  0  0  0  0
  7  8  1  1  0  0  0
  7 10  1  0  0  0  0
  8  6  1  1  0  0  0
  8 18  1  0  0  0  0
  9 12  1  6  0  0  0
  9 11  1  0  0  0  0
 10  5  1  0  0  0  0
 11 14  1  0  0  0  0
 13  2  1  6  0  0  0
 13  4  1  0  0  0  0
 13 16  1  0  0  0  0
 14 19  1  1  0  0  0
 15 12  1  0  0  0  0
 16  7  1  0  0  0  0
 18 17  1  0  0  0  0
 19 20  1  0  0  0  0
 22 21  1  6  0  0  0
 23 27  1  6  0  0  0
 23 22  1  0  0  0  0
 25 24  1  6  0  0  0
 25 23  1  0  0  0  0
 26 25  1  0  0  0  0
 29 27  1  1  0  0  0
 29 28  1  0  0  0  0
 30 29  1  0  0  0  0
 30 28  1  6  0  0  0
 32 31  1  6  0  0  0
 32 30  1  0  0  0  0
 32 29  1  0  0  0  0
M  END
>  <MODEL>
5

>  <REMARK>
 VINA RESULT:      -6.9      2.837      7.293
  Name = 
  7 active torsions:
  status: ('A' for Active; 'I' for Inactive)
    1  A    between atoms: C_1  and  C_27
    2  A    between atoms: C_7  and  C_20
    3  A    between atoms: C_12  and  C_31
    4  A    between atoms: S_13  and  C_29
    5  A    between atoms: C_16  and  C_20
    6  A    between atoms: C_16  and  C_22
    7  A    between atoms: C_16  and  C_27
                            x       y       z     vdW  Elec       q    Type
                         _______ _______ _______ _____ _____    ______ ____

>  <TORSDO>
F 7

$$$$
=
 OpenBabel10272402083D

 32 36  0  0  1  0  0  0  0  0999 V2000
  190.7200  176.5460  142.1430 C   0  0  1  0  0  3  0  0  0  0  0  0
  188.5580  177.9340  142.5140 C   0  0  0  0  0  2  0  0  0  0  0  0
  191.9040  176.0150  142.6890 O   0  0  0  0  0  0  0  0  0  0  0  0
  189.5220  176.9810  143.1620 C   0  0  2  0  0  0  0  0  0  0  0  0
  187.1760  178.4580  146.3060 C   0  0  0  0  0  2  0  0  0  0  0  0
  184.7370  178.2990  142.2240 C   0  0  0  0  0  1  0  0  0  0  0  0
  186.2700  177.6430  144.1170 C   0  0  1  0  0  3  0  0  0  0  0  0
  185.3780  178.5620  143.6490 C   0  0  2  0  0  3  0  0  0  0  0  0
  189.7980  177.0310  144.6520 C   0  0  2  0  0  3  0  0  0  0  0  0
  186.5370  177.5570  145.4840 O   0  0  0  0  0  0  0  0  0  0  0  0
  189.4750  178.3460  145.3860 C   0  0  0  0  0  2  0  0  0  0  0  0
  191.2050  176.5370  145.0680 C   0  0  0  0  0  2  0  0  0  0  0  0
  188.1600  176.4820  142.5860 C   0  0  1  0  0  3  0  0  0  0  0  0
  188.6260  177.9460  146.6210 C   0  0  1  0  0  3  0  0  0  0  0  0
  191.8550  175.6020  144.0330 C   0  0  0  0  0  2  0  0  0  0  0  0
  186.8530  176.5390  143.3080 O   0  0  0  0  0  0  0  0  0  0  0  0
  183.2930  179.1630  145.1470 C   0  0  0  0  0  1  0  0  0  0  0  0
  184.6720  179.6230  144.5310 C   0  0  0  0  0  2  0  0  0  0  0  0
  189.4460  178.0120  148.3080 S   0  0  0  0  0  0  0  0  0  0  0  0
  187.8560  177.9580  149.0860 C   0  0  0  0  0  1  0  0  0  0  0  0
  192.5900  178.1450  141.2930 C   0  0  0  0  0  1  0  0  0  0  0  0
  191.1130  177.6630  141.1900 C   0  0  1  0  0  3  0  0  0  0  0  0
  190.6000  177.4220  139.7200 C   0  0  2  0  0  3  0  0  0  0  0  0
  188.2740  176.8730  138.4860 C   0  0  0  0  0  1  0  0  0  0  0  0
  189.0940  177.8560  139.4230 C   0  0  2  0  0  3  0  0  0  0  0  0
  188.9830  179.1640  139.0390 O   0  0  0  0  0  1  0  0  0  0  0  0
  190.8470  176.1290  138.8460 C   0  0  0  0  0  2  0  0  0  0  0  0
  193.0310  176.1290  138.0790 C   0  0  0  0  0  2  0  0  0  0  0  0
  191.6300  176.4340  137.5900 C   0  0  2  0  0  0  0  0  0  0  0  0
  192.6860  175.7560  136.5950 C   0  0  2  0  0  3  0  0  0  0  0  0
  190.6670  174.1140  136.9690 C   0  0  0  0  0  1  0  0  0  0  0  0
  191.1960  175.5210  136.4240 C   0  0  1  0  0  3  0  0  0  0  0  0
  1 22  1  1  0  0  0
  1  3  1  0  0  0  0
  1  4  1  0  0  0  0
  3 15  1  0  0  0  0
  4  2  1  6  0  0  0
  4  9  1  0  0  0  0
  5 14  1  0  0  0  0
  7  8  1  1  0  0  0
  7 10  1  0  0  0  0
  8  6  1  1  0  0  0
  8 18  1  0  0  0  0
  9 12  1  6  0  0  0
  9 11  1  0  0  0  0
 10  5  1  0  0  0  0
 11 14  1  0  0  0  0
 13  2  1  6  0  0  0
 13  4  1  0  0  0  0
 13 16  1  0  0  0  0
 14 19  1  1  0  0  0
 15 12  1  0  0  0  0
 16  7  1  0  0  0  0
 18 17  1  0  0  0  0
 19 20  1  0  0  0  0
 22 21  1  6  0  0  0
 23 27  1  1  0  0  0
 23 22  1  0  0  0  0
 25 24  1  6  0  0  0
 25 23  1  0  0  0  0
 26 25  1  0  0  0  0
 29 28  1  0  0  0  0
 29 27  1  6  0  0  0
 30 29  1  0  0  0  0
 30 28  1  1  0  0  0
 32 30  1  0  0  0  0
 32 31  1  1  0  0  0
 32 29  1  0  0  0  0
M  END
>  <MODEL>
6

>  <REMARK>
 VINA RESULT:      -6.6      2.775      7.720
  Name = 
  7 active torsions:
  status: ('A' for Active; 'I' for Inactive)
    1  A    between atoms: C_1  and  C_27
    2  A    between atoms: C_7  and  C_20
    3  A    between atoms: C_12  and  C_31
    4  A    between atoms: S_13  and  C_29
    5  A    between atoms: C_16  and  C_20
    6  A    between atoms: C_16  and  C_22
    7  A    between atoms: C_16  and  C_27
                            x       y       z     vdW  Elec       q    Type
                         _______ _______ _______ _____ _____    ______ ____

>  <TORSDO>
F 7

$$$$
=
 OpenBabel10272402083D

 32 36  0  0  1  0  0  0  0  0999 V2000
  187.8080  178.3080  142.5360 C   0  0  1  0  0  3  0  0  0  0  0  0
  185.5250  177.9360  141.3600 C   0  0  0  0  0  2  0  0  0  0  0  0
  189.2130  178.2990  142.4430 O   0  0  0  0  0  0  0  0  0  0  0  0
  186.9390  178.4010  141.1580 C   0  0  2  0  0  0  0  0  0  0  0  0
  185.3660  178.0060  137.2940 C   0  0  0  0  0  2  0  0  0  0  0  0
  182.0010  179.1860  140.4450 C   0  0  0  0  0  1  0  0  0  0  0  0
  184.1940  179.1370  139.1970 C   0  0  1  0  0  3  0  0  0  0  0  0
  182.9130  178.6720  139.2550 C   0  0  2  0  0  3  0  0  0  0  0  0
  187.6430  178.2320  139.8260 C   0  0  2  0  0  3  0  0  0  0  0  0
  184.9020  179.0960  137.9960 O   0  0  0  0  0  0  0  0  0  0  0  0
  187.0870  177.1630  138.8660 C   0  0  0  0  0  2  0  0  0  0  0  0
  189.1830  178.0970  139.9180 C   0  0  0  0  0  2  0  0  0  0  0  0
  185.7770  179.4220  141.3600 C   0  0  1  0  0  3  0  0  0  0  0  0
  186.9170  177.8700  137.4960 C   0  0  1  0  0  3  0  0  0  0  0  0
  189.7720  178.6850  141.2110 C   0  0  0  0  0  2  0  0  0  0  0  0
  184.8650  179.9060  140.2790 O   0  0  0  0  0  0  0  0  0  0  0  0
  181.5700  178.9880  137.0080 C   0  0  0  0  0  1  0  0  0  0  0  0
  182.1770  177.9930  138.0720 C   0  0  0  0  0  2  0  0  0  0  0  0
  188.1450  177.4610  136.1370 S   0  0  0  0  0  0  0  0  0  0  0  0
  188.4760  175.8990  136.9030 C   0  0  0  0  0  1  0  0  0  0  0  0
  188.2240  175.8310  143.2160 C   0  0  0  0  0  1  0  0  0  0  0  0
  187.3980  177.1350  143.4110 C   0  0  1  0  0  3  0  0  0  0  0  0
  187.1580  177.5450  144.9130 C   0  0  2  0  0  3  0  0  0  0  0  0
  185.5850  178.7600  146.7250 C   0  0  0  0  0  1  0  0  0  0  0  0
  185.8770  178.4520  145.1960 C   0  0  2  0  0  3  0  0  0  0  0  0
  184.7650  178.0270  144.5240 O   0  0  0  0  0  1  0  0  0  0  0  0
  188.2610  178.0410  145.9310 C   0  0  0  0  0  2  0  0  0  0  0  0
  190.4910  177.4420  145.7640 C   0  0  0  0  0  2  0  0  0  0  0  0
  189.1920  176.9260  146.3480 C   0  0  2  0  0  0  0  0  0  0  0  0
  190.5640  176.6900  147.1390 C   0  0  2  0  0  3  0  0  0  0  0  0
  188.9690  178.1900  148.5940 C   0  0  0  0  0  1  0  0  0  0  0  0
  189.2440  176.7850  147.8830 C   0  0  1  0  0  3  0  0  0  0  0  0
  1 22  1  6  0  0  0
  3  1  1  0  0  0  0
  4  2  1  1  0  0  0
  4 13  1  0  0  0  0
  4  1  1  0  0  0  0
  5 14  1  0  0  0  0
  5 10  1  0  0  0  0
  7  8  1  6  0  0  0
  7 16  1  0  0  0  0
  8  6  1  6  0  0  0
  9 11  1  1  0  0  0
  9 12  1  0  0  0  0
  9  4  1  0  0  0  0
 10  7  1  0  0  0  0
 12 15  1  0  0  0  0
 13  2  1  1  0  0  0
 14 19  1  6  0  0  0
 14 11  1  0  0  0  0
 15  3  1  0  0  0  0
 16 13  1  0  0  0  0
 17 18  1  0  0  0  0
 18  8  1  0  0  0  0
 19 20  1  0  0  0  0
 22 21  1  1  0  0  0
 22 23  1  0  0  0  0
 23 25  1  0  0  0  0
 23 27  1  6  0  0  0
 25 24  1  1  0  0  0
 26 25  1  0  0  0  0
 28 29  1  0  0  0  0
 29 27  1  6  0  0  0
 29 30  1  0  0  0  0
 29 32  1  0  0  0  0
 30 28  1  1  0  0  0
 30 32  1  0  0  0  0
 32 31  1  1  0  0  0
M  END
>  <MODEL>
7

>  <REMARK>
 VINA RESULT:      -6.4      2.472      4.087
  Name = 
  7 active torsions:
  status: ('A' for Active; 'I' for Inactive)
    1  A    between atoms: C_1  and  C_27
    2  A    between atoms: C_7  and  C_20
    3  A    between atoms: C_12  and  C_31
    4  A    between atoms: S_13  and  C_29
    5  A    between atoms: C_16  and  C_20
    6  A    between atoms: C_16  and  C_22
    7  A    between atoms: C_16  and  C_27
                            x       y       z     vdW  Elec       q    Type
                         _______ _______ _______ _____ _____    ______ ____

>  <TORSDO>
F 7

$$$$
=
 OpenBabel10272402083D

 32 36  0  0  1  0  0  0  0  0999 V2000
  187.9490  178.4210  141.1180 C   0  0  1  0  0  3  0  0  0  0  0  0
  185.4240  177.8300  141.0200 C   0  0  0  0  0  2  0  0  0  0  0  0
  189.1870  178.4780  140.4510 O   0  0  0  0  0  0  0  0  0  0  0  0
  186.5860  178.3490  140.2230 C   0  0  2  0  0  0  0  0  0  0  0  0
  183.6060  177.5400  137.3900 C   0  0  0  0  0  2  0  0  0  0  0  0
  181.7440  178.8100  141.5800 C   0  0  0  0  0  1  0  0  0  0  0  0
  183.2270  178.7680  139.5400 C   0  0  1  0  0  3  0  0  0  0  0  0
  182.1270  178.2430  140.1510 C   0  0  2  0  0  3  0  0  0  0  0  0
  186.6930  178.1030  138.7300 C   0  0  2  0  0  3  0  0  0  0  0  0
  183.3820  178.6610  138.1580 O   0  0  0  0  0  0  0  0  0  0  0  0
  185.8840  176.9280  138.1500 C   0  0  0  0  0  2  0  0  0  0  0  0
  188.1400  178.0580  138.1820 C   0  0  0  0  0  2  0  0  0  0  0  0
  185.5280  179.3210  140.8300 C   0  0  1  0  0  3  0  0  0  0  0  0
  185.1080  177.5040  136.9370 C   0  0  1  0  0  3  0  0  0  0  0  0
  189.1570  178.7850  139.0780 C   0  0  0  0  0  2  0  0  0  0  0  0
  184.2170  179.6620  140.2000 O   0  0  0  0  0  0  0  0  0  0  0  0
  181.1210  175.8640  139.6210 C   0  0  0  0  0  1  0  0  0  0  0  0
  181.0300  177.4270  139.4210 C   0  0  0  0  0  2  0  0  0  0  0  0
  185.7010  177.0450  135.2160 S   0  0  0  0  0  0  0  0  0  0  0  0
  186.4550  175.5800  135.8650 C   0  0  0  0  0  1  0  0  0  0  0  0
  189.1950  176.2930  141.9490 C   0  0  0  0  0  1  0  0  0  0  0  0
  188.0320  177.3080  142.1490 C   0  0  1  0  0  3  0  0  0  0  0  0
  187.8580  177.8270  143.6260 C   0  0  2  0  0  3  0  0  0  0  0  0
  188.7800  177.2460  146.0860 C   0  0  0  0  0  1  0  0  0  0  0  0
  189.1180  177.6430  144.5870 C   0  0  2  0  0  3  0  0  0  0  0  0
  190.0050  178.6810  144.5060 O   0  0  0  0  0  1  0  0  0  0  0  0
  186.5910  177.6150  144.5460 C   0  0  0  0  0  2  0  0  0  0  0  0
  184.4300  178.2070  143.9660 C   0  0  0  0  0  2  0  0  0  0  0  0
  185.6840  178.8230  144.5500 C   0  0  2  0  0  0  0  0  0  0  0  0
  184.2480  179.2910  145.0850 C   0  0  2  0  0  3  0  0  0  0  0  0
  185.5870  178.1770  147.0550 C   0  0  0  0  0  1  0  0  0  0  0  0
  185.4710  179.3580  145.9820 C   0  0  1  0  0  3  0  0  0  0  0  0
  1 22  1  1  0  0  0
  3  1  1  0  0  0  0
  4 13  1  0  0  0  0
  4  2  1  1  0  0  0
  4  1  1  0  0  0  0
  5 10  1  0  0  0  0
  7  8  1  6  0  0  0
  7 16  1  0  0  0  0
  8  6  1  6  0  0  0
  9 11  1  1  0  0  0
  9  4  1  0  0  0  0
 10  7  1  0  0  0  0
 12  9  1  0  0  0  0
 12 15  1  0  0  0  0
 13  2  1  1  0  0  0
 14 19  1  6  0  0  0
 14  5  1  0  0  0  0
 14 11  1  0  0  0  0
 15  3  1  0  0  0  0
 16 13  1  0  0  0  0
 18 17  1  0  0  0  0
 18  8  1  0  0  0  0
 19 20  1  0  0  0  0
 22 21  1  1  0  0  0
 22 23  1  0  0  0  0
 23 27  1  1  0  0  0
 23 25  1  0  0  0  0
 25 24  1  1  0  0  0
 26 25  1  0  0  0  0
 28 29  1  0  0  0  0
 29 27  1  6  0  0  0
 29 30  1  0  0  0  0
 29 32  1  0  0  0  0
 30 28  1  1  0  0  0
 30 32  1  0  0  0  0
 32 31  1  1  0  0  0
M  END
>  <MODEL>
8

>  <REMARK>
 VINA RESULT:      -6.2      2.713      4.189
  Name = 
  7 active torsions:
  status: ('A' for Active; 'I' for Inactive)
    1  A    between atoms: C_1  and  C_27
    2  A    between atoms: C_7  and  C_20
    3  A    between atoms: C_12  and  C_31
    4  A    between atoms: S_13  and  C_29
    5  A    between atoms: C_16  and  C_20
    6  A    between atoms: C_16  and  C_22
    7  A    between atoms: C_16  and  C_27
                            x       y       z     vdW  Elec       q    Type
                         _______ _______ _______ _____ _____    ______ ____

>  <TORSDO>
F 7

$$$$
=
 OpenBabel10272402083D

 32 36  0  0  1  0  0  0  0  0999 V2000
  189.0080  178.0110  142.1420 C   0  0  1  0  0  3  0  0  0  0  0  0
  188.1200  177.2920  139.8120 C   0  0  0  0  0  2  0  0  0  0  0  0
  190.0830  178.0430  143.0500 O   0  0  0  0  0  0  0  0  0  0  0  0
  189.3330  177.7630  140.5620 C   0  0  2  0  0  0  0  0  0  0  0  0
  190.7890  176.4670  136.8520 C   0  0  0  0  0  2  0  0  0  0  0  0
  186.3560  178.1580  136.5020 C   0  0  0  0  0  1  0  0  0  0  0  0
  188.7820  177.9340  137.1570 C   0  0  1  0  0  3  0  0  0  0  0  0
  187.7630  177.4370  136.3980 C   0  0  2  0  0  3  0  0  0  0  0  0
  190.7300  177.3380  140.1510 C   0  0  2  0  0  3  0  0  0  0  0  0
  190.1070  177.6630  136.8180 O   0  0  0  0  0  0  0  0  0  0  0  0
  190.8560  176.0630  139.2970 C   0  0  0  0  0  2  0  0  0  0  0  0
  191.7600  177.2940  141.3050 C   0  0  0  0  0  2  0  0  0  0  0  0
  188.4810  178.7520  139.7080 C   0  0  1  0  0  3  0  0  0  0  0  0
  191.7530  176.4470  138.0910 C   0  0  1  0  0  3  0  0  0  0  0  0
  191.3730  178.1750  142.5050 C   0  0  0  0  0  2  0  0  0  0  0  0
  188.6200  178.9490  138.2330 O   0  0  0  0  0  0  0  0  0  0  0  0
  187.6280  174.9690  135.4810 C   0  0  0  0  0  1  0  0  0  0  0  0
  187.9580  176.4850  135.1910 C   0  0  0  0  0  2  0  0  0  0  0  0
  193.5170  175.8050  138.0700 S   0  0  0  0  0  0  0  0  0  0  0  0
  192.9590  174.2880  137.3460 C   0  0  0  0  0  1  0  0  0  0  0  0
  188.5360  175.6910  143.2230 C   0  0  0  0  0  1  0  0  0  0  0  0
  187.9730  177.0400  142.6870 C   0  0  1  0  0  3  0  0  0  0  0  0
  186.9180  177.7340  143.6270 C   0  0  2  0  0  3  0  0  0  0  0  0
  184.6880  178.0390  142.1540 C   0  0  0  0  0  1  0  0  0  0  0  0
  185.8940  178.7310  142.9180 C   0  0  2  0  0  3  0  0  0  0  0  0
  186.5180  179.6840  142.1610 O   0  0  0  0  0  1  0  0  0  0  0  0
  187.2060  178.3660  145.0470 C   0  0  0  0  0  2  0  0  0  0  0  0
  185.1460  177.5000  145.6480 C   0  0  0  0  0  2  0  0  0  0  0  0
  185.9370  178.7880  145.7500 C   0  0  2  0  0  0  0  0  0  0  0  0
  184.9870  178.3450  146.9610 C   0  0  2  0  0  3  0  0  0  0  0  0
  187.4800  178.4130  147.7930 C   0  0  0  0  0  1  0  0  0  0  0  0
  186.2160  179.2010  147.2100 C   0  0  1  0  0  3  0  0  0  0  0  0
  1 22  1  1  0  0  0
  1  3  1  0  0  0  0
  4  2  1  6  0  0  0
  4  1  1  0  0  0  0
  5 14  1  0  0  0  0
  7  8  1  6  0  0  0
  7 16  1  0  0  0  0
  8  6  1  6  0  0  0
  9 11  1  1  0  0  0
  9  4  1  0  0  0  0
  9 12  1  0  0  0  0
 10  5  1  0  0  0  0
 10  7  1  0  0  0  0
 12 15  1  0  0  0  0
 13  2  1  6  0  0  0
 13  4  1  0  0  0  0
 14 19  1  6  0  0  0
 14 11  1  0  0  0  0
 15  3  1  0  0  0  0
 16 13  1  0  0  0  0
 18 17  1  0  0  0  0
 18  8  1  0  0  0  0
 20 19  1  0  0  0  0
 22 21  1  1  0  0  0
 22 23  1  0  0  0  0
 23 27  1  1  0  0  0
 25 24  1  6  0  0  0
 25 23  1  0  0  0  0
 26 25  1  0  0  0  0
 28 29  1  0  0  0  0
 29 27  1  6  0  0  0
 29 30  1  0  0  0  0
 29 32  1  0  0  0  0
 30 28  1  1  0  0  0
 30 32  1  0  0  0  0
 32 31  1  1  0  0  0
M  END
>  <MODEL>
9

>  <REMARK>
 VINA RESULT:      -5.9      1.262      2.221
  Name = 
  7 active torsions:
  status: ('A' for Active; 'I' for Inactive)
    1  A    between atoms: C_1  and  C_27
    2  A    between atoms: C_7  and  C_20
    3  A    between atoms: C_12  and  C_31
    4  A    between atoms: S_13  and  C_29
    5  A    between atoms: C_16  and  C_20
    6  A    between atoms: C_16  and  C_22
    7  A    between atoms: C_16  and  C_27
                            x       y       z     vdW  Elec       q    Type
                         _______ _______ _______ _____ _____    ______ ____

>  <TORSDO>
F 7

$$$$
