=
 OpenBabel10272400243D

 31 34  0  0  0  0  0  0  0  0999 V2000
  185.4450  178.4580  146.0390 C   0  0  0  0  0  0  0  0  0  0  0  0
  188.6060  177.4510  144.2550 C   0  0  0  0  0  0  0  0  0  0  0  0
  189.5810  177.1570  145.2610 C   0  0  0  0  0  0  0  0  0  0  0  0
  190.1840  176.9950  147.6490 C   0  0  0  0  0  3  0  0  0  0  0  0
  187.2680  177.8730  144.5210 C   0  0  0  0  0  0  0  0  0  0  0  0
  184.6050  178.7100  144.9550 C   0  0  0  0  0  3  0  0  0  0  0  0
  189.2850  177.2650  146.7070 C   0  0  0  0  0  3  0  0  0  0  0  0
  188.0930  177.5890  141.8610 C   0  0  0  0  0  0  0  0  0  0  0  0
  184.9850  178.6150  147.3030 F   0  0  0  0  0  0  0  0  0  0  0  0
  191.1910  176.6350  143.5270 C   0  0  0  0  0  3  0  0  0  0  0  0
  191.5400  176.5670  147.2980 C   0  0  0  0  0  0  0  0  0  0  0  0
  186.8310  177.9870  142.1570 N   0  0  0  0  0  0  0  0  0  0  0  0
  189.0020  177.3140  142.8950 C   0  0  0  0  0  0  0  0  0  0  0  0
  186.7610  178.0450  145.8200 C   0  0  0  0  0  3  0  0  0  0  0  0
  192.3660  176.3190  148.2140 O   0  0  0  0  0  0  0  0  0  0  0  0
  186.3980  178.1350  143.4310 C   0  0  0  0  0  0  0  0  0  0  0  0
  185.0820  178.5490  143.6540 C   0  0  0  0  0  3  0  0  0  0  0  0
  190.2650  176.9160  142.5830 N   0  0  0  0  0  0  0  0  0  0  0  0
  190.8790  176.7470  144.8750 C   0  0  0  0  0  0  0  0  0  0  0  0
  191.9620  176.4180  145.8670 C   0  0  0  0  0  2  0  0  0  0  0  0
  188.9190  178.4700  139.7190 C   0  0  0  0  0  3  0  0  0  0  0  0
  188.5060  177.4460  140.4550 C   0  0  0  0  0  3  0  0  0  0  0  0
  189.3210  178.2580  138.2980 C   0  0  0  0  0  2  0  0  0  0  0  0
  188.2100  178.6470  137.3240 C   0  0  0  0  0  2  0  0  0  0  0  0
  187.2160  177.5160  137.0730 C   0  0  0  0  0  2  0  0  0  0  0  0
  184.8470  177.5100  136.8220 O   0  0  0  0  0  0  0  0  0  0  0  0
  185.8370  177.8910  137.5010 C   0  0  0  0  0  0  0  0  0  0  0  0
  185.6650  178.6670  138.6910 N   0  0  0  0  0  2  0  0  0  0  0  0
  184.4140  179.0920  139.2410 C   0  0  0  0  0  0  0  0  0  0  0  0
  183.9190  180.4100  139.0250 N   0  0  0  0  0  1  0  0  0  0  0  0
  183.5360  178.0420  140.1290 S   0  0  0  0  0  0  0  0  0  0  0  0
  1  9  1  0  0  0  0
  2  5  1  0  0  0  0
  2  3  1  0  0  0  0
  3  7  1  0  0  0  0
  5 14  2  0  0  0  0
  6  1  2  0  0  0  0
  7  4  2  0  0  0  0
  8 12  2  0  0  0  0
  8 13  1  0  0  0  0
 10 19  1  0  0  0  0
 11  4  1  0  0  0  0
 11 15  2  0  0  0  0
 12 16  1  0  0  0  0
 13  2  2  0  0  0  0
 14  1  1  0  0  0  0
 16 17  2  0  0  0  0
 16  5  1  0  0  0  0
 17  6  1  0  0  0  0
 18 13  1  0  0  0  0
 18 10  2  0  0  0  0
 19  3  2  0  0  0  0
 19 20  1  0  0  0  0
 20 11  1  0  0  0  0
 21 22  2  0  0  0  0
 22  8  1  0  0  0  0
 23 21  1  0  0  0  0
 24 23  1  0  0  0  0
 25 24  1  0  0  0  0
 25 27  1  0  0  0  0
 26 27  2  0  0  0  0
 27 28  1  0  0  0  0
 28 29  1  0  0  0  0
 29 31  2  0  0  0  0
 30 29  1  0  0  0  0
M  END
>  <MODEL>
1

>  <REMARK>
 VINA RESULT:     -10.4      0.000      0.000
  Name = 
  6 active torsions:
  status: ('A' for Active; 'I' for Inactive)
    1  A    between atoms: C_1  and  N_24
    2  A    between atoms: C_3  and  C_19
    3  A    between atoms: C_3  and  C_22
    4  A    between atoms: C_7  and  C_9
    5  A    between atoms: C_7  and  C_22
    6  A    between atoms: C_15  and  C_23
                            x       y       z     vdW  Elec       q    Type
                         _______ _______ _______ _____ _____    ______ ____

>  <TORSDO>
F 6

$$$$
=
 OpenBabel10272400243D

 31 34  0  0  0  0  0  0  0  0999 V2000
  185.0960  178.3430  145.7930 C   0  0  0  0  0  0  0  0  0  0  0  0
  188.3580  177.6800  144.0290 C   0  0  0  0  0  0  0  0  0  0  0  0
  189.3070  177.2980  145.0300 C   0  0  0  0  0  0  0  0  0  0  0  0
  189.8300  176.8620  147.4030 C   0  0  0  0  0  3  0  0  0  0  0  0
  186.9950  178.0170  144.2900 C   0  0  0  0  0  0  0  0  0  0  0  0
  184.2860  178.6970  144.7150 C   0  0  0  0  0  3  0  0  0  0  0  0
  188.9550  177.2150  146.4650 C   0  0  0  0  0  3  0  0  0  0  0  0
  187.9260  178.0950  141.6510 C   0  0  0  0  0  0  0  0  0  0  0  0
  184.5850  178.3250  147.0470 F   0  0  0  0  0  0  0  0  0  0  0  0
  190.9980  177.0540  143.3120 C   0  0  0  0  0  3  0  0  0  0  0  0
  191.2140  176.5310  147.0580 C   0  0  0  0  0  0  0  0  0  0  0  0
  186.6390  178.4070  141.9420 N   0  0  0  0  0  0  0  0  0  0  0  0
  188.8080  177.7270  142.6800 C   0  0  0  0  0  0  0  0  0  0  0  0
  186.4350  178.0080  145.5790 C   0  0  0  0  0  3  0  0  0  0  0  0
  192.0160  176.2000  147.9690 O   0  0  0  0  0  0  0  0  0  0  0  0
  186.1550  178.3810  143.2060 C   0  0  0  0  0  0  0  0  0  0  0  0
  184.8160  178.7160  143.4250 C   0  0  0  0  0  3  0  0  0  0  0  0
  190.0960  177.4160  142.3740 N   0  0  0  0  0  0  0  0  0  0  0  0
  190.6330  176.9860  144.6500 C   0  0  0  0  0  0  0  0  0  0  0  0
  191.6930  176.5760  145.6380 C   0  0  0  0  0  2  0  0  0  0  0  0
  187.5700  178.0650  139.2180 C   0  0  0  0  0  3  0  0  0  0  0  0
  188.3940  178.1420  140.2570 C   0  0  0  0  0  3  0  0  0  0  0  0
  188.1090  178.1170  137.8280 C   0  0  0  0  0  2  0  0  0  0  0  0
  188.3920  176.7220  137.2710 C   0  0  0  0  0  2  0  0  0  0  0  0
  189.7610  176.6150  136.6030 C   0  0  0  0  0  2  0  0  0  0  0  0
  190.4920  175.7040  138.6790 O   0  0  0  0  0  0  0  0  0  0  0  0
  190.8190  176.2200  137.5770 C   0  0  0  0  0  0  0  0  0  0  0  0
  192.1930  176.4230  137.2320 N   0  0  0  0  0  2  0  0  0  0  0  0
  193.3200  176.0830  138.0470 C   0  0  0  0  0  0  0  0  0  0  0  0
  193.6990  176.8890  139.1590 N   0  0  0  0  0  1  0  0  0  0  0  0
  194.1840  174.7450  137.6950 S   0  0  0  0  0  0  0  0  0  0  0  0
  1  9  1  0  0  0  0
  2  5  1  0  0  0  0
  2  3  1  0  0  0  0
  3  7  1  0  0  0  0
  5 14  2  0  0  0  0
  6  1  2  0  0  0  0
  7  4  2  0  0  0  0
  8 12  2  0  0  0  0
  8 13  1  0  0  0  0
 10 19  1  0  0  0  0
 11  4  1  0  0  0  0
 11 15  2  0  0  0  0
 12 16  1  0  0  0  0
 13  2  2  0  0  0  0
 14  1  1  0  0  0  0
 16 17  2  0  0  0  0
 16  5  1  0  0  0  0
 17  6  1  0  0  0  0
 18 13  1  0  0  0  0
 18 10  2  0  0  0  0
 19  3  2  0  0  0  0
 19 20  1  0  0  0  0
 20 11  1  0  0  0  0
 21 22  2  0  0  0  0
 22  8  1  0  0  0  0
 23 21  1  0  0  0  0
 24 23  1  0  0  0  0
 25 24  1  0  0  0  0
 25 27  1  0  0  0  0
 27 26  2  0  0  0  0
 28 27  1  0  0  0  0
 28 29  1  0  0  0  0
 29 30  1  0  0  0  0
 31 29  2  0  0  0  0
M  END
>  <MODEL>
2

>  <REMARK>
 VINA RESULT:     -10.1      2.939      3.868
  Name = 
  6 active torsions:
  status: ('A' for Active; 'I' for Inactive)
    1  A    between atoms: C_1  and  N_24
    2  A    between atoms: C_3  and  C_19
    3  A    between atoms: C_3  and  C_22
    4  A    between atoms: C_7  and  C_9
    5  A    between atoms: C_7  and  C_22
    6  A    between atoms: C_15  and  C_23
                            x       y       z     vdW  Elec       q    Type
                         _______ _______ _______ _____ _____    ______ ____

>  <TORSDO>
F 6

$$$$
=
 OpenBabel10272400243D

 31 34  0  0  0  0  0  0  0  0999 V2000
  190.4230  176.9040  146.7610 C   0  0  0  0  0  0  0  0  0  0  0  0
  188.2020  177.6210  143.8030 C   0  0  0  0  0  0  0  0  0  0  0  0
  186.9230  178.0010  144.3200 C   0  0  0  0  0  0  0  0  0  0  0  0
  185.4570  178.4170  146.2630 C   0  0  0  0  0  3  0  0  0  0  0  0
  189.3290  177.2670  144.6060 C   0  0  0  0  0  0  0  0  0  0  0  0
  191.6080  176.5540  146.1160 C   0  0  0  0  0  3  0  0  0  0  0  0
  186.6420  178.0650  145.7720 C   0  0  0  0  0  3  0  0  0  0  0  0
  189.5870  177.2260  141.8190 C   0  0  0  0  0  0  0  0  0  0  0  0
  190.3620  176.9040  148.1140 F   0  0  0  0  0  0  0  0  0  0  0  0
  186.1070  178.2810  142.0560 C   0  0  0  0  0  3  0  0  0  0  0  0
  184.3460  178.7670  145.3740 C   0  0  0  0  0  0  0  0  0  0  0  0
  190.6330  176.8970  142.6170 N   0  0  0  0  0  0  0  0  0  0  0  0
  188.3580  177.5920  142.3890 C   0  0  0  0  0  0  0  0  0  0  0  0
  189.2980  177.2560  146.0110 C   0  0  0  0  0  3  0  0  0  0  0  0
  183.2370  179.0950  145.8700 O   0  0  0  0  0  0  0  0  0  0  0  0
  190.5440  176.9060  143.9680 C   0  0  0  0  0  0  0  0  0  0  0  0
  191.6670  176.5540  144.7230 C   0  0  0  0  0  3  0  0  0  0  0  0
  187.3180  177.9200  141.5760 N   0  0  0  0  0  0  0  0  0  0  0  0
  185.8790  178.3310  143.4240 C   0  0  0  0  0  0  0  0  0  0  0  0
  184.5050  178.7420  143.8830 C   0  0  0  0  0  2  0  0  0  0  0  0
  190.8220  176.7000  139.7580 C   0  0  0  0  0  3  0  0  0  0  0  0
  189.7460  177.1980  140.3560 C   0  0  0  0  0  3  0  0  0  0  0  0
  190.9220  176.7040  138.2690 C   0  0  0  0  0  2  0  0  0  0  0  0
  189.5620  176.9130  137.6050 C   0  0  0  0  0  2  0  0  0  0  0  0
  189.3140  178.3650  137.2020 C   0  0  0  0  0  2  0  0  0  0  0  0
  187.4260  179.6390  136.5050 O   0  0  0  0  0  0  0  0  0  0  0  0
  187.8600  178.7000  137.2230 C   0  0  0  0  0  0  0  0  0  0  0  0
  186.9820  177.9330  138.0530 N   0  0  0  0  0  2  0  0  0  0  0  0
  185.5680  178.1190  138.1710 C   0  0  0  0  0  0  0  0  0  0  0  0
  185.0220  179.2210  138.8900 N   0  0  0  0  0  1  0  0  0  0  0  0
  184.5610  177.0470  137.4650 S   0  0  0  0  0  0  0  0  0  0  0  0
  1  9  1  0  0  0  0
  2  3  1  0  0  0  0
  2  5  1  0  0  0  0
  3  7  1  0  0  0  0
  5 14  1  0  0  0  0
  6  1  1  0  0  0  0
  7  4  2  0  0  0  0
  8 13  1  0  0  0  0
  8 12  2  0  0  0  0
 10 19  1  0  0  0  0
 11 15  2  0  0  0  0
 11  4  1  0  0  0  0
 12 16  1  0  0  0  0
 13  2  2  0  0  0  0
 14  1  2  0  0  0  0
 16  5  2  0  0  0  0
 16 17  1  0  0  0  0
 17  6  2  0  0  0  0
 18 10  2  0  0  0  0
 18 13  1  0  0  0  0
 19 20  1  0  0  0  0
 19  3  2  0  0  0  0
 20 11  1  0  0  0  0
 21 22  2  0  0  0  0
 22  8  1  0  0  0  0
 23 21  1  0  0  0  0
 24 23  1  0  0  0  0
 25 27  1  0  0  0  0
 25 24  1  0  0  0  0
 26 27  2  0  0  0  0
 27 28  1  0  0  0  0
 28 29  1  0  0  0  0
 29 30  1  0  0  0  0
 31 29  2  0  0  0  0
M  END
>  <MODEL>
3

>  <REMARK>
 VINA RESULT:      -9.8      2.360      4.427
  Name = 
  6 active torsions:
  status: ('A' for Active; 'I' for Inactive)
    1  A    between atoms: C_1  and  N_24
    2  A    between atoms: C_3  and  C_19
    3  A    between atoms: C_3  and  C_22
    4  A    between atoms: C_7  and  C_9
    5  A    between atoms: C_7  and  C_22
    6  A    between atoms: C_15  and  C_23
                            x       y       z     vdW  Elec       q    Type
                         _______ _______ _______ _____ _____    ______ ____

>  <TORSDO>
F 6

$$$$
=
 OpenBabel10272400243D

 31 34  0  0  0  0  0  0  0  0999 V2000
  189.8460  177.6600  140.6970 C   0  0  0  0  0  0  0  0  0  0  0  0
  188.2500  177.7530  144.1090 C   0  0  0  0  0  0  0  0  0  0  0  0
  189.2620  177.3940  145.0560 C   0  0  0  0  0  0  0  0  0  0  0  0
  191.5930  176.7310  145.5230 C   0  0  0  0  0  3  0  0  0  0  0  0
  188.4530  177.8350  142.6970 C   0  0  0  0  0  0  0  0  0  0  0  0
  188.7650  178.0220  139.8960 C   0  0  0  0  0  3  0  0  0  0  0  0
  190.6470  177.0670  144.6510 C   0  0  0  0  0  3  0  0  0  0  0  0
  185.9160  178.4040  143.7350 C   0  0  0  0  0  0  0  0  0  0  0  0
  191.0490  177.3960  140.1340 F   0  0  0  0  0  0  0  0  0  0  0  0
  187.6510  177.6470  146.8490 C   0  0  0  0  0  3  0  0  0  0  0  0
  191.3090  176.6680  146.9580 C   0  0  0  0  0  0  0  0  0  0  0  0
  186.1510  178.4710  142.4000 N   0  0  0  0  0  0  0  0  0  0  0  0
  186.9520  178.0470  144.6120 C   0  0  0  0  0  0  0  0  0  0  0  0
  189.6880  177.5680  142.0820 C   0  0  0  0  0  3  0  0  0  0  0  0
  192.2270  176.3480  147.7570 O   0  0  0  0  0  0  0  0  0  0  0  0
  187.3640  178.2020  141.8650 C   0  0  0  0  0  0  0  0  0  0  0  0
  187.5270  178.2920  140.4790 C   0  0  0  0  0  3  0  0  0  0  0  0
  186.7020  177.9850  145.9480 N   0  0  0  0  0  0  0  0  0  0  0  0
  188.9410  177.3460  146.4330 C   0  0  0  0  0  0  0  0  0  0  0  0
  189.9440  176.9800  147.4940 C   0  0  0  0  0  2  0  0  0  0  0  0
  183.4680  178.5390  143.5440 C   0  0  0  0  0  3  0  0  0  0  0  0
  184.5750  178.7080  144.2580 C   0  0  0  0  0  3  0  0  0  0  0  0
  182.1370  178.8690  144.1330 C   0  0  0  0  0  2  0  0  0  0  0  0
  181.1570  179.3850  143.0810 C   0  0  0  0  0  2  0  0  0  0  0  0
  181.0010  178.4340  141.8960 C   0  0  0  0  0  2  0  0  0  0  0  0
  181.1660  179.8970  140.0220 O   0  0  0  0  0  0  0  0  0  0  0  0
  181.6880  178.9570  140.6780 C   0  0  0  0  0  0  0  0  0  0  0  0
  182.9410  178.3860  140.2880 N   0  0  0  0  0  2  0  0  0  0  0  0
  183.7280  178.7850  139.1610 C   0  0  0  0  0  0  0  0  0  0  0  0
  184.4470  180.0150  139.1580 N   0  0  0  0  0  1  0  0  0  0  0  0
  183.8040  177.8090  137.8560 S   0  0  0  0  0  0  0  0  0  0  0  0
  1 14  1  0  0  0  0
  2 13  2  0  0  0  0
  2  3  1  0  0  0  0
  3 19  2  0  0  0  0
  4 11  1  0  0  0  0
  5  2  1  0  0  0  0
  6 17  1  0  0  0  0
  6  1  2  0  0  0  0
  7  3  1  0  0  0  0
  7  4  2  0  0  0  0
  8 22  1  0  0  0  0
  8 13  1  0  0  0  0
  9  1  1  0  0  0  0
 11 20  1  0  0  0  0
 11 15  2  0  0  0  0
 12  8  2  0  0  0  0
 13 18  1  0  0  0  0
 14  5  2  0  0  0  0
 16 12  1  0  0  0  0
 16  5  1  0  0  0  0
 17 16  2  0  0  0  0
 18 10  2  0  0  0  0
 19 10  1  0  0  0  0
 19 20  1  0  0  0  0
 21 23  1  0  0  0  0
 21 22  2  0  0  0  0
 24 23  1  0  0  0  0
 25 24  1  0  0  0  0
 26 27  2  0  0  0  0
 27 25  1  0  0  0  0
 28 27  1  0  0  0  0
 29 28  1  0  0  0  0
 30 29  1  0  0  0  0
 31 29  2  0  0  0  0
M  END
>  <MODEL>
4

>  <REMARK>
 VINA RESULT:      -9.7      2.618      4.769
  Name = 
  6 active torsions:
  status: ('A' for Active; 'I' for Inactive)
    1  A    between atoms: C_1  and  N_24
    2  A    between atoms: C_3  and  C_19
    3  A    between atoms: C_3  and  C_22
    4  A    between atoms: C_7  and  C_9
    5  A    between atoms: C_7  and  C_22
    6  A    between atoms: C_15  and  C_23
                            x       y       z     vdW  Elec       q    Type
                         _______ _______ _______ _____ _____    ______ ____

>  <TORSDO>
F 6

$$$$
=
 OpenBabel10272400243D

 31 34  0  0  0  0  0  0  0  0999 V2000
  188.3850  177.3680  147.7190 C   0  0  0  0  0  0  0  0  0  0  0  0
  187.2720  177.9880  144.1740 C   0  0  0  0  0  0  0  0  0  0  0  0
  185.8690  178.2700  144.2170 C   0  0  0  0  0  0  0  0  0  0  0  0
  183.7990  178.5460  145.5330 C   0  0  0  0  0  3  0  0  0  0  0  0
  188.0760  177.6970  145.3170 C   0  0  0  0  0  0  0  0  0  0  0  0
  189.7410  177.1120  147.5230 C   0  0  0  0  0  3  0  0  0  0  0  0
  185.1030  178.2860  145.4830 C   0  0  0  0  0  3  0  0  0  0  0  0
  189.2790  177.7280  142.7900 C   0  0  0  0  0  0  0  0  0  0  0  0
  187.8630  177.3370  148.9680 F   0  0  0  0  0  0  0  0  0  0  0  0
  185.8640  178.5370  141.8090 C   0  0  0  0  0  3  0  0  0  0  0  0
  183.0400  178.8370  144.3150 C   0  0  0  0  0  0  0  0  0  0  0  0
  190.0080  177.4560  143.9020 N   0  0  0  0  0  0  0  0  0  0  0  0
  187.9060  177.9980  142.9000 C   0  0  0  0  0  0  0  0  0  0  0  0
  187.5650  177.6570  146.6260 C   0  0  0  0  0  3  0  0  0  0  0  0
  181.8080  179.0790  144.3980 O   0  0  0  0  0  0  0  0  0  0  0  0
  189.4590  177.4320  145.1390 C   0  0  0  0  0  0  0  0  0  0  0  0
  190.2760  177.1430  146.2360 C   0  0  0  0  0  3  0  0  0  0  0  0
  187.1890  178.2690  141.7770 N   0  0  0  0  0  0  0  0  0  0  0  0
  185.1760  178.5450  143.0150 C   0  0  0  0  0  0  0  0  0  0  0  0
  183.7030  178.8520  142.9710 C   0  0  0  0  0  2  0  0  0  0  0  0
  190.4550  176.6520  140.9170 C   0  0  0  0  0  3  0  0  0  0  0  0
  189.9330  177.7400  141.4710 C   0  0  0  0  0  3  0  0  0  0  0  0
  191.1060  176.7310  139.5770 C   0  0  0  0  0  2  0  0  0  0  0  0
  190.1550  176.3240  138.4530 C   0  0  0  0  0  2  0  0  0  0  0  0
  190.0560  177.3720  137.3470 C   0  0  0  0  0  2  0  0  0  0  0  0
  188.6510  179.2920  137.2230 O   0  0  0  0  0  0  0  0  0  0  0  0
  188.7220  178.0400  137.3400 C   0  0  0  0  0  0  0  0  0  0  0  0
  187.5420  177.2370  137.4500 N   0  0  0  0  0  2  0  0  0  0  0  0
  186.1960  177.7220  137.4410 C   0  0  0  0  0  0  0  0  0  0  0  0
  185.7540  178.6970  138.3820 N   0  0  0  0  0  1  0  0  0  0  0  0
  185.1490  177.1480  136.3290 S   0  0  0  0  0  0  0  0  0  0  0  0
  1  9  1  0  0  0  0
  2  3  1  0  0  0  0
  2  5  1  0  0  0  0
  3  7  1  0  0  0  0
  5 14  1  0  0  0  0
  6  1  1  0  0  0  0
  7  4  2  0  0  0  0
  8 13  1  0  0  0  0
  8 12  2  0  0  0  0
 10 19  1  0  0  0  0
 11 15  2  0  0  0  0
 11  4  1  0  0  0  0
 12 16  1  0  0  0  0
 13  2  2  0  0  0  0
 14  1  2  0  0  0  0
 16  5  2  0  0  0  0
 16 17  1  0  0  0  0
 17  6  2  0  0  0  0
 18 10  2  0  0  0  0
 18 13  1  0  0  0  0
 19  3  2  0  0  0  0
 20 19  1  0  0  0  0
 20 11  1  0  0  0  0
 21 22  2  0  0  0  0
 22  8  1  0  0  0  0
 23 21  1  0  0  0  0
 24 23  1  0  0  0  0
 25 24  1  0  0  0  0
 26 27  2  0  0  0  0
 27 25  1  0  0  0  0
 27 28  1  0  0  0  0
 29 28  1  0  0  0  0
 29 30  1  0  0  0  0
 31 29  2  0  0  0  0
M  END
>  <MODEL>
5

>  <REMARK>
 VINA RESULT:      -9.6      2.743      4.772
  Name = 
  6 active torsions:
  status: ('A' for Active; 'I' for Inactive)
    1  A    between atoms: C_1  and  N_24
    2  A    between atoms: C_3  and  C_19
    3  A    between atoms: C_3  and  C_22
    4  A    between atoms: C_7  and  C_9
    5  A    between atoms: C_7  and  C_22
    6  A    between atoms: C_15  and  C_23
                            x       y       z     vdW  Elec       q    Type
                         _______ _______ _______ _____ _____    ______ ____

>  <TORSDO>
F 6

$$$$
=
 OpenBabel10272400243D

 31 34  0  0  0  0  0  0  0  0999 V2000
  190.3780  176.8590  146.4720 C   0  0  0  0  0  0  0  0  0  0  0  0
  188.1860  177.6840  143.5210 C   0  0  0  0  0  0  0  0  0  0  0  0
  186.9060  178.0600  144.0400 C   0  0  0  0  0  0  0  0  0  0  0  0
  185.4290  178.4300  145.9840 C   0  0  0  0  0  3  0  0  0  0  0  0
  189.3040  177.2960  144.3210 C   0  0  0  0  0  0  0  0  0  0  0  0
  191.5650  176.5170  145.8250 C   0  0  0  0  0  3  0  0  0  0  0  0
  186.6150  178.0830  145.4910 C   0  0  0  0  0  3  0  0  0  0  0  0
  189.5830  177.3380  141.5360 C   0  0  0  0  0  0  0  0  0  0  0  0
  190.3070  176.8180  147.8240 F   0  0  0  0  0  0  0  0  0  0  0  0
  186.1110  178.4160  141.7800 C   0  0  0  0  0  3  0  0  0  0  0  0
  184.3290  178.8160  145.0980 C   0  0  0  0  0  0  0  0  0  0  0  0
  190.6210  176.9760  142.3320 N   0  0  0  0  0  0  0  0  0  0  0  0
  188.3530  177.6980  142.1080 C   0  0  0  0  0  0  0  0  0  0  0  0
  189.2630  177.2430  145.7250 C   0  0  0  0  0  3  0  0  0  0  0  0
  183.2190  179.1390  145.5960 O   0  0  0  0  0  0  0  0  0  0  0  0
  190.5210  176.9440  143.6810 C   0  0  0  0  0  0  0  0  0  0  0  0
  191.6350  176.5600  144.4330 C   0  0  0  0  0  3  0  0  0  0  0  0
  187.3220  178.0590  141.2980 N   0  0  0  0  0  0  0  0  0  0  0  0
  185.8720  178.4260  143.1470 C   0  0  0  0  0  0  0  0  0  0  0  0
  184.4990  178.8350  143.6090 C   0  0  0  0  0  2  0  0  0  0  0  0
  190.7590  176.7420  139.4600 C   0  0  0  0  0  3  0  0  0  0  0  0
  189.7530  177.3540  140.0740 C   0  0  0  0  0  3  0  0  0  0  0  0
  190.8750  176.7980  137.9730 C   0  0  0  0  0  2  0  0  0  0  0  0
  191.3280  175.4630  137.3840 C   0  0  0  0  0  2  0  0  0  0  0  0
  192.3960  175.6210  136.3040 C   0  0  0  0  0  2  0  0  0  0  0  0
  194.6050  176.4640  136.5970 O   0  0  0  0  0  0  0  0  0  0  0  0
  193.7710  175.5620  136.8780 C   0  0  0  0  0  0  0  0  0  0  0  0
  194.1130  174.4830  137.7550 N   0  0  0  0  0  2  0  0  0  0  0  0
  195.3790  174.2950  138.3960 C   0  0  0  0  0  0  0  0  0  0  0  0
  195.7390  175.0390  139.5570 N   0  0  0  0  0  1  0  0  0  0  0  0
  196.4260  173.2020  137.7880 S   0  0  0  0  0  0  0  0  0  0  0  0
  1  9  1  0  0  0  0
  2  3  1  0  0  0  0
  2  5  1  0  0  0  0
  3  7  1  0  0  0  0
  5 14  1  0  0  0  0
  6  1  1  0  0  0  0
  7  4  2  0  0  0  0
  8 13  1  0  0  0  0
  8 12  2  0  0  0  0
 10 19  1  0  0  0  0
 11 15  2  0  0  0  0
 11  4  1  0  0  0  0
 12 16  1  0  0  0  0
 13  2  2  0  0  0  0
 14  1  2  0  0  0  0
 16  5  2  0  0  0  0
 16 17  1  0  0  0  0
 17  6  2  0  0  0  0
 18 10  2  0  0  0  0
 18 13  1  0  0  0  0
 19 20  1  0  0  0  0
 19  3  2  0  0  0  0
 20 11  1  0  0  0  0
 21 22  2  0  0  0  0
 22  8  1  0  0  0  0
 23 21  1  0  0  0  0
 24 23  1  0  0  0  0
 25 27  1  0  0  0  0
 25 24  1  0  0  0  0
 26 27  2  0  0  0  0
 27 28  1  0  0  0  0
 28 29  1  0  0  0  0
 29 30  1  0  0  0  0
 31 29  2  0  0  0  0
M  END
>  <MODEL>
6

>  <REMARK>
 VINA RESULT:      -9.5      4.502      6.682
  Name = 
  6 active torsions:
  status: ('A' for Active; 'I' for Inactive)
    1  A    between atoms: C_1  and  N_24
    2  A    between atoms: C_3  and  C_19
    3  A    between atoms: C_3  and  C_22
    4  A    between atoms: C_7  and  C_9
    5  A    between atoms: C_7  and  C_22
    6  A    between atoms: C_15  and  C_23
                            x       y       z     vdW  Elec       q    Type
                         _______ _______ _______ _____ _____    ______ ____

>  <TORSDO>
F 6

$$$$
=
 OpenBabel10272400243D

 31 34  0  0  0  0  0  0  0  0999 V2000
  188.5470  177.3650  147.7560 C   0  0  0  0  0  0  0  0  0  0  0  0
  187.4720  177.8820  144.1820 C   0  0  0  0  0  0  0  0  0  0  0  0
  186.0760  178.1960  144.2040 C   0  0  0  0  0  0  0  0  0  0  0  0
  184.0040  178.5660  145.4940 C   0  0  0  0  0  3  0  0  0  0  0  0
  188.2620  177.6140  145.3420 C   0  0  0  0  0  0  0  0  0  0  0  0
  189.8980  177.0720  147.5800 C   0  0  0  0  0  3  0  0  0  0  0  0
  185.3010  178.2750  145.4630 C   0  0  0  0  0  3  0  0  0  0  0  0
  189.4830  177.5280  142.8240 C   0  0  0  0  0  0  0  0  0  0  0  0
  188.0160  177.3900  149.0010 F   0  0  0  0  0  0  0  0  0  0  0  0
  186.0930  178.3770  141.7880 C   0  0  0  0  0  3  0  0  0  0  0  0
  183.2600  178.8290  144.2600 C   0  0  0  0  0  0  0  0  0  0  0  0
  190.1970  177.2800  143.9500 N   0  0  0  0  0  0  0  0  0  0  0  0
  188.1150  177.8320  142.9140 C   0  0  0  0  0  0  0  0  0  0  0  0
  187.7410  177.6320  146.6470 C   0  0  0  0  0  3  0  0  0  0  0  0
  182.0330  179.1010  144.3250 O   0  0  0  0  0  0  0  0  0  0  0  0
  189.6400  177.3130  145.1830 C   0  0  0  0  0  0  0  0  0  0  0  0
  190.4420  177.0450  146.2960 C   0  0  0  0  0  3  0  0  0  0  0  0
  187.4120  178.0790  141.7760 N   0  0  0  0  0  0  0  0  0  0  0  0
  185.3980  178.4430  142.9880 C   0  0  0  0  0  0  0  0  0  0  0  0
  183.9320  178.7810  142.9210 C   0  0  0  0  0  2  0  0  0  0  0  0
  191.4610  177.3670  141.3720 C   0  0  0  0  0  3  0  0  0  0  0  0
  190.1450  177.4780  141.5110 C   0  0  0  0  0  3  0  0  0  0  0  0
  192.0710  177.3240  140.0110 C   0  0  0  0  0  2  0  0  0  0  0  0
  191.2000  176.5570  139.0180 C   0  0  0  0  0  2  0  0  0  0  0  0
  191.7750  176.5510  137.6030 C   0  0  0  0  0  2  0  0  0  0  0  0
  192.6650  174.3520  137.8210 O   0  0  0  0  0  0  0  0  0  0  0  0
  192.8630  175.5410  137.4560 C   0  0  0  0  0  0  0  0  0  0  0  0
  194.1120  175.9430  136.8840 N   0  0  0  0  0  2  0  0  0  0  0  0
  195.2430  175.0940  136.6620 C   0  0  0  0  0  0  0  0  0  0  0  0
  196.1340  174.7550  137.7200 N   0  0  0  0  0  1  0  0  0  0  0  0
  195.5130  174.5010  135.1660 S   0  0  0  0  0  0  0  0  0  0  0  0
  1  9  1  0  0  0  0
  2  3  1  0  0  0  0
  2  5  1  0  0  0  0
  3  7  1  0  0  0  0
  5 14  1  0  0  0  0
  6  1  1  0  0  0  0
  7  4  2  0  0  0  0
  8 13  1  0  0  0  0
  8 12  2  0  0  0  0
 10 19  1  0  0  0  0
 11 15  2  0  0  0  0
 11  4  1  0  0  0  0
 12 16  1  0  0  0  0
 13  2  2  0  0  0  0
 14  1  2  0  0  0  0
 16  5  2  0  0  0  0
 16 17  1  0  0  0  0
 17  6  2  0  0  0  0
 18 10  2  0  0  0  0
 18 13  1  0  0  0  0
 19  3  2  0  0  0  0
 20 19  1  0  0  0  0
 20 11  1  0  0  0  0
 21 22  2  0  0  0  0
 22  8  1  0  0  0  0
 23 21  1  0  0  0  0
 24 23  1  0  0  0  0
 25 24  1  0  0  0  0
 27 25  1  0  0  0  0
 27 26  2  0  0  0  0
 28 27  1  0  0  0  0
 29 28  1  0  0  0  0
 29 30  1  0  0  0  0
 31 29  2  0  0  0  0
M  END
>  <MODEL>
7

>  <REMARK>
 VINA RESULT:      -9.4      4.282      6.637
  Name = 
  6 active torsions:
  status: ('A' for Active; 'I' for Inactive)
    1  A    between atoms: C_1  and  N_24
    2  A    between atoms: C_3  and  C_19
    3  A    between atoms: C_3  and  C_22
    4  A    between atoms: C_7  and  C_9
    5  A    between atoms: C_7  and  C_22
    6  A    between atoms: C_15  and  C_23
                            x       y       z     vdW  Elec       q    Type
                         _______ _______ _______ _____ _____    ______ ____

>  <TORSDO>
F 6

$$$$
=
 OpenBabel10272400243D

 31 34  0  0  0  0  0  0  0  0999 V2000
  189.6950  177.1850  147.1150 C   0  0  0  0  0  0  0  0  0  0  0  0
  188.0820  177.8450  143.7750 C   0  0  0  0  0  0  0  0  0  0  0  0
  189.1000  177.6940  142.7800 C   0  0  0  0  0  0  0  0  0  0  0  0
  191.4490  177.2000  142.2040 C   0  0  0  0  0  3  0  0  0  0  0  0
  188.2880  177.6780  145.1780 C   0  0  0  0  0  0  0  0  0  0  0  0
  188.6060  177.3650  147.9680 C   0  0  0  0  0  3  0  0  0  0  0  0
  190.4960  177.3420  143.1210 C   0  0  0  0  0  3  0  0  0  0  0  0
  185.7320  178.3510  144.2570 C   0  0  0  0  0  0  0  0  0  0  0  0
  190.9070  176.8610  147.6240 F   0  0  0  0  0  0  0  0  0  0  0  0
  187.4750  178.2180  141.0600 C   0  0  0  0  0  3  0  0  0  0  0  0
  191.1610  177.3890  140.7810 C   0  0  0  0  0  0  0  0  0  0  0  0
  185.9700  178.1830  145.5820 N   0  0  0  0  0  0  0  0  0  0  0  0
  186.7740  178.1870  143.3310 C   0  0  0  0  0  0  0  0  0  0  0  0
  189.5340  177.3410  145.7370 C   0  0  0  0  0  3  0  0  0  0  0  0
  192.0850  177.2470  139.9390 O   0  0  0  0  0  0  0  0  0  0  0  0
  187.1930  177.8570  146.0620 C   0  0  0  0  0  0  0  0  0  0  0  0
  187.3590  177.7010  147.4410 C   0  0  0  0  0  3  0  0  0  0  0  0
  186.5200  178.3590  142.0060 N   0  0  0  0  0  0  0  0  0  0  0  0
  188.7750  177.8860  141.4170 C   0  0  0  0  0  0  0  0  0  0  0  0
  189.7840  177.7460  140.3080 C   0  0  0  0  0  2  0  0  0  0  0  0
  183.4180  179.0990  144.6220 C   0  0  0  0  0  3  0  0  0  0  0  0
  184.3800  178.7050  143.7960 C   0  0  0  0  0  3  0  0  0  0  0  0
  182.0660  179.4410  144.0890 C   0  0  0  0  0  2  0  0  0  0  0  0
  181.5750  178.4140  143.0710 C   0  0  0  0  0  2  0  0  0  0  0  0
  180.7100  179.0300  141.9740 C   0  0  0  0  0  2  0  0  0  0  0  0
  180.8750  179.6150  139.6710 O   0  0  0  0  0  0  0  0  0  0  0  0
  181.4530  179.1430  140.6860 C   0  0  0  0  0  0  0  0  0  0  0  0
  182.8200  178.7240  140.6320 N   0  0  0  0  0  2  0  0  0  0  0  0
  183.6700  178.7840  139.4820 C   0  0  0  0  0  0  0  0  0  0  0  0
  184.4820  179.9250  139.2190 N   0  0  0  0  0  1  0  0  0  0  0  0
  183.7130  177.5170  138.4560 S   0  0  0  0  0  0  0  0  0  0  0  0
  1  9  1  0  0  0  0
  1  6  1  0  0  0  0
  2  5  1  0  0  0  0
  3  7  1  0  0  0  0
  3  2  1  0  0  0  0
  4  7  2  0  0  0  0
  5 14  1  0  0  0  0
  5 16  2  0  0  0  0
  8 12  2  0  0  0  0
 10 19  1  0  0  0  0
 10 18  2  0  0  0  0
 11  4  1  0  0  0  0
 12 16  1  0  0  0  0
 13  2  2  0  0  0  0
 13  8  1  0  0  0  0
 14  1  2  0  0  0  0
 15 11  2  0  0  0  0
 16 17  1  0  0  0  0
 17  6  2  0  0  0  0
 18 13  1  0  0  0  0
 19  3  2  0  0  0  0
 20 11  1  0  0  0  0
 20 19  1  0  0  0  0
 22  8  1  0  0  0  0
 22 21  2  0  0  0  0
 23 21  1  0  0  0  0
 24 23  1  0  0  0  0
 25 24  1  0  0  0  0
 26 27  2  0  0  0  0
 27 25  1  0  0  0  0
 28 27  1  0  0  0  0
 29 28  1  0  0  0  0
 30 29  1  0  0  0  0
 31 29  2  0  0  0  0
M  END
>  <MODEL>
8

>  <REMARK>
 VINA RESULT:      -9.3      2.726      5.102
  Name = 
  6 active torsions:
  status: ('A' for Active; 'I' for Inactive)
    1  A    between atoms: C_1  and  N_24
    2  A    between atoms: C_3  and  C_19
    3  A    between atoms: C_3  and  C_22
    4  A    between atoms: C_7  and  C_9
    5  A    between atoms: C_7  and  C_22
    6  A    between atoms: C_15  and  C_23
                            x       y       z     vdW  Elec       q    Type
                         _______ _______ _______ _____ _____    ______ ____

>  <TORSDO>
F 6

$$$$
=
 OpenBabel10272400243D

 31 34  0  0  0  0  0  0  0  0999 V2000
  181.7490  178.9720  142.2490 C   0  0  0  0  0  0  0  0  0  0  0  0
  185.4750  178.4150  142.3140 C   0  0  0  0  0  0  0  0  0  0  0  0
  185.9210  178.4000  140.9540 C   0  0  0  0  0  0  0  0  0  0  0  0
  185.4000  178.5690  138.5460 C   0  0  0  0  0  3  0  0  0  0  0  0
  184.1180  178.6010  142.7200 C   0  0  0  0  0  0  0  0  0  0  0  0
  181.4630  178.9610  143.6130 C   0  0  0  0  0  3  0  0  0  0  0  0
  184.9950  178.5820  139.8130 C   0  0  0  0  0  3  0  0  0  0  0  0
  186.0800  178.2310  144.6820 C   0  0  0  0  0  0  0  0  0  0  0  0
  180.7540  179.1550  141.3490 F   0  0  0  0  0  0  0  0  0  0  0  0
  188.1910  178.0330  141.7180 C   0  0  0  0  0  3  0  0  0  0  0  0
  186.8110  178.3730  138.2070 C   0  0  0  0  0  0  0  0  0  0  0  0
  184.7800  178.4110  145.0260 N   0  0  0  0  0  0  0  0  0  0  0  0
  186.4540  178.2290  143.3300 C   0  0  0  0  0  0  0  0  0  0  0  0
  183.0630  178.7930  141.8110 C   0  0  0  0  0  3  0  0  0  0  0  0
  187.1610  178.3660  136.9980 O   0  0  0  0  0  0  0  0  0  0  0  0
  183.8060  178.5920  144.1040 C   0  0  0  0  0  0  0  0  0  0  0  0
  182.4890  178.7710  144.5380 C   0  0  0  0  0  3  0  0  0  0  0  0
  187.7610  178.0470  143.0000 N   0  0  0  0  0  0  0  0  0  0  0  0
  187.2940  178.2070  140.6730 C   0  0  0  0  0  0  0  0  0  0  0  0
  187.8470  178.1790  139.2730 C   0  0  0  0  0  2  0  0  0  0  0  0
  186.8490  178.2550  147.0180 C   0  0  0  0  0  3  0  0  0  0  0  0
  187.0950  178.0390  145.7310 C   0  0  0  0  0  3  0  0  0  0  0  0
  187.9230  178.0430  148.0320 C   0  0  0  0  0  2  0  0  0  0  0  0
  188.8730  176.9150  147.6330 C   0  0  0  0  0  2  0  0  0  0  0  0
  190.3440  177.2830  147.8170 C   0  0  0  0  0  2  0  0  0  0  0  0
  192.2950  176.3970  146.7760 O   0  0  0  0  0  0  0  0  0  0  0  0
  191.1560  176.9120  146.6220 C   0  0  0  0  0  0  0  0  0  0  0  0
  190.6150  177.1380  145.3160 N   0  0  0  0  0  2  0  0  0  0  0  0
  191.2590  176.8240  144.0770 C   0  0  0  0  0  0  0  0  0  0  0  0
  191.5950  175.4810  143.7360 N   0  0  0  0  0  1  0  0  0  0  0  0
  191.6110  178.0270  143.0330 S   0  0  0  0  0  0  0  0  0  0  0  0
  1  6  1  0  0  0  0
  2  5  2  0  0  0  0
  2 13  1  0  0  0  0
  3  2  1  0  0  0  0
  4  7  2  0  0  0  0
  5 16  1  0  0  0  0
  6 17  2  0  0  0  0
  7  3  1  0  0  0  0
  8 12  1  0  0  0  0
  8 22  1  0  0  0  0
  9  1  1  0  0  0  0
 10 18  2  0  0  0  0
 11  4  1  0  0  0  0
 11 20  1  0  0  0  0
 13  8  2  0  0  0  0
 14  1  2  0  0  0  0
 14  5  1  0  0  0  0
 15 11  2  0  0  0  0
 16 17  1  0  0  0  0
 16 12  2  0  0  0  0
 18 13  1  0  0  0  0
 19  3  2  0  0  0  0
 19 10  1  0  0  0  0
 20 19  1  0  0  0  0
 21 23  1  0  0  0  0
 22 21  2  0  0  0  0
 24 25  1  0  0  0  0
 24 23  1  0  0  0  0
 27 26  2  0  0  0  0
 27 25  1  0  0  0  0
 28 27  1  0  0  0  0
 29 28  1  0  0  0  0
 30 29  1  0  0  0  0
 31 29  2  0  0  0  0
M  END
>  <MODEL>
9

>  <REMARK>
 VINA RESULT:      -9.0      2.780      7.631
  Name = 
  6 active torsions:
  status: ('A' for Active; 'I' for Inactive)
    1  A    between atoms: C_1  and  N_24
    2  A    between atoms: C_3  and  C_19
    3  A    between atoms: C_3  and  C_22
    4  A    between atoms: C_7  and  C_9
    5  A    between atoms: C_7  and  C_22
    6  A    between atoms: C_15  and  C_23
                            x       y       z     vdW  Elec       q    Type
                         _______ _______ _______ _____ _____    ______ ____

>  <TORSDO>
F 6

$$$$
