=
 OpenBabel10272401363D

 55 60  0  0  1  0  0  0  0  0999 V2000
  182.0800  178.9320  141.8450 N   0  0  0  0  0  0  0  0  0  0  0  0
  184.2150  178.6200  143.5690 C   0  0  0  0  0  0  0  0  0  0  0  0
  184.3630  178.3330  142.2090 C   0  0  0  0  0  3  0  0  0  0  0  0
  181.9180  179.2220  143.1640 C   0  0  0  0  0  3  0  0  0  0  0  0
  183.2730  178.4980  141.3530 C   0  0  0  0  0  0  0  0  0  0  0  0
  182.9850  179.0690  144.0510 C   0  0  0  0  0  3  0  0  0  0  0  0
  183.3990  178.1390  139.9170 C   0  0  0  0  0  2  0  0  0  0  0  0
  183.1060  176.6570  139.7370 C   0  0  0  0  0  2  0  0  0  0  0  0
  182.2070  178.5960  135.0710 C   0  0  0  0  0  2  0  0  0  0  0  0
  180.3360  180.0960  134.3880 C   0  0  0  0  0  1  0  0  0  0  0  0
  180.7640  177.4770  136.4700 C   0  0  0  0  0  0  0  0  0  0  0  0
  179.9820  177.9720  135.4500 O   0  0  0  0  0  0  0  0  0  0  0  0
  180.7850  178.6530  134.4970 C   0  0  2  0  0  3  0  0  0  0  0  0
  182.0340  177.7640  136.2960 C   0  0  0  0  0  0  0  0  0  0  0  0
  181.2750  175.7710  138.2220 C   0  0  2  0  0  3  0  0  0  0  0  0
  180.2390  176.7600  137.6690 C   0  0  0  0  0  2  0  0  0  0  0  0
  183.0890  177.4560  137.3210 C   0  0  1  0  0  3  0  0  0  0  0  0
  182.7180  176.3180  138.3030 C   0  0  1  0  0  3  0  0  0  0  0  0
  182.3900  173.6690  137.4720 C   0  0  0  0  0  3  0  0  0  0  0  0
  181.1950  171.9360  136.2610 C   0  0  0  0  0  0  0  0  0  0  0  0
  180.0380  173.9500  136.9730 C   0  0  0  0  0  3  0  0  0  0  0  0
  180.0250  172.7070  136.3340 C   0  0  0  0  0  3  0  0  0  0  0  0
  182.3760  172.4250  136.8340 C   0  0  0  0  0  3  0  0  0  0  0  0
  181.2230  174.4350  137.5470 C   0  0  0  0  0  0  0  0  0  0  0  0
  181.1870  170.6290  135.5880 C   0  0  0  0  0  0  0  0  0  0  0  0
  182.2690  170.0690  135.2680 O   0  0  0  0  0  0  0  0  0  0  0  0
  179.9820  169.9970  135.2980 O   0  0  0  0  0  1  0  0  0  0  0  0
  185.5510  177.8470  137.7250 C   0  0  0  0  0  1  0  0  0  0  0  0
  184.5120  177.3590  136.7330 C   0  0  1  0  0  3  0  0  0  0  0  0
  185.1540  176.0920  134.5970 C   0  0  0  0  0  1  0  0  0  0  0  0
  184.9280  176.0210  136.0980 C   0  0  0  0  0  3  0  0  0  0  0  0
  186.1180  175.3920  136.7900 C   0  0  0  0  0  1  0  0  0  0  0  0
  185.3610  178.4450  144.5090 C   0  0  0  0  0  2  0  0  0  0  0  0
  185.3920  179.5490  145.5620 C   0  0  0  0  0  2  0  0  0  0  0  0
  186.1610  180.0310  147.8930 C   0  0  0  0  0  1  0  0  0  0  0  0
  185.5960  178.9730  146.9620 C   0  0  2  0  0  3  0  0  0  0  0  0
  186.4680  177.7180  146.9420 C   0  0  0  0  0  2  0  0  0  0  0  0
  187.9010  177.9960  147.3940 C   0  0  0  0  0  2  0  0  0  0  0  0
  191.5700  177.6440  144.5030 C   0  0  2  0  0  3  0  0  0  0  0  0
  190.3650  177.7570  146.8460 C   0  0  1  0  0  3  0  0  0  0  0  0
  188.9150  175.7820  147.3960 C   0  0  0  0  0  1  0  0  0  0  0  0
  189.5150  179.0100  144.5270 O   0  0  0  0  0  0  0  0  0  0  0  0
  190.9160  179.0250  144.2830 C   0  0  0  0  0  2  0  0  0  0  0  0
  188.9490  177.1270  146.6900 C   0  0  1  0  0  0  0  0  0  0  0  0
  189.6940  177.0190  143.0510 C   0  0  0  0  0  2  0  0  0  0  0  0
  190.9880  176.6170  143.6160 N   0  0  0  0  0  0  0  0  0  0  0  0
  188.4960  176.8550  145.2390 C   0  0  0  0  0  2  0  0  0  0  0  0
  190.7980  177.9390  148.2980 C   0  0  0  0  0  1  0  0  0  0  0  0
  188.8870  177.8080  144.0900 C   0  0  1  0  0  3  0  0  0  0  0  0
  191.5280  177.2150  145.9860 C   0  0  1  0  0  3  0  0  0  0  0  0
  191.9690  175.8100  146.2730 C   0  0  0  0  0  0  0  0  0  0  0  0
  192.4680  175.0930  145.3670 O   0  0  0  0  0  0  0  0  0  0  0  0
  191.8090  175.2800  147.5820 N   0  0  0  0  0  1  0  0  0  0  0  0
  191.9200  176.3400  142.5260 C   0  0  0  0  0  2  0  0  0  0  0  0
  191.9280  177.3780  141.5890 O   0  0  0  0  0  1  0  0  0  0  0  0
  1  4  1  0  0  0  0
  2  6  1  0  0  0  0
  2 33  1  0  0  0  0
  3  2  2  0  0  0  0
  4  6  2  0  0  0  0
  5  1  2  0  0  0  0
  5  3  1  0  0  0  0
  7  5  1  0  0  0  0
  8  7  1  0  0  0  0
  9 14  1  0  0  0  0
 11 16  1  0  0  0  0
 12 11  1  0  0  0  0
 13 10  1  1  0  0  0
 13  9  1  0  0  0  0
 13 12  1  0  0  0  0
 14 11  2  0  0  0  0
 14 17  1  0  0  0  0
 15 24  1  6  0  0  0
 15 18  1  0  0  0  0
 16 15  1  0  0  0  0
 17 29  1  6  0  0  0
 17 18  1  0  0  0  0
 18  8  1  1  0  0  0
 19 24  1  0  0  0  0
 20 22  2  0  0  0  0
 20 23  1  0  0  0  0
 21 24  2  0  0  0  0
 22 21  1  0  0  0  0
 23 19  2  0  0  0  0
 25 20  1  0  0  0  0
 26 25  2  0  0  0  0
 27 25  1  0  0  0  0
 29 28  1  1  0  0  0
 30 31  1  0  0  0  0
 31 29  1  0  0  0  0
 31 32  1  0  0  0  0
 33 34  1  0  0  0  0
 34 36  1  0  0  0  0
 36 35  1  1  0  0  0
 37 36  1  0  0  0  0
 37 38  1  0  0  0  0
 39 43  1  1  0  0  0
 39 50  1  0  0  0  0
 40 48  1  1  0  0  0
 43 42  1  0  0  0  0
 44 40  1  0  0  0  0
 44 38  1  0  0  0  0
 44 41  1  1  0  0  0
 45 46  1  0  0  0  0
 46 39  1  0  0  0  0
 47 44  1  0  0  0  0
 49 45  1  6  0  0  0
 49 42  1  0  0  0  0
 49 47  1  0  0  0  0
 50 51  1  6  0  0  0
 50 40  1  0  0  0  0
 51 53  1  0  0  0  0
 52 51  2  0  0  0  0
 54 46  1  0  0  0  0
 55 54  1  0  0  0  0
M  END
>  <MODEL>
1

>  <REMARK>
 VINA RESULT:      -6.2      0.000      0.000
  Name = 
  15 active torsions:
  status: ('A' for Active; 'I' for Inactive)
    1  A    between atoms: C_1  and  C_53
    2  A    between atoms: C_2  and  C_28
    3  A    between atoms: C_2  and  C_49
    4  A    between atoms: C_8  and  C_20
    5  A    between atoms: C_8  and  C_22
    6  A    between atoms: C_10  and  C_32
    7  A    between atoms: C_11  and  N_38
    8  A    between atoms: C_19  and  C_40
    9  A    between atoms: C_22  and  C_43
   10  A    between atoms: C_27  and  C_54
   11  A    between atoms: C_28  and  C_44
   12  A    between atoms: C_33  and  C_52
   13  A    between atoms: C_40  and  C_45
   14  A    between atoms: C_43  and  C_51
   15  A    between atoms: C_51  and  C_54
                            x       y       z     vdW  Elec       q    Type
                         _______ _______ _______ _____ _____    ______ ____

>  <TORSDO>
F 15

$$$$
=
 OpenBabel10272401363D

 55 60  0  0  1  0  0  0  0  0999 V2000
  180.0870  178.5590  142.1360 N   0  0  0  0  0  0  0  0  0  0  0  0
  182.6400  178.7540  143.1730 C   0  0  0  0  0  0  0  0  0  0  0  0
  182.4000  177.9670  142.0430 C   0  0  0  0  0  3  0  0  0  0  0  0
  180.3030  179.3340  143.2340 C   0  0  0  0  0  3  0  0  0  0  0  0
  181.1030  177.8830  141.5320 C   0  0  0  0  0  0  0  0  0  0  0  0
  181.5860  179.4440  143.7730 C   0  0  0  0  0  3  0  0  0  0  0  0
  180.8210  177.0030  140.3690 C   0  0  0  0  0  2  0  0  0  0  0  0
  182.1320  176.4850  139.7950 C   0  0  0  0  0  2  0  0  0  0  0  0
  185.7540  176.9510  136.1880 C   0  0  0  0  0  2  0  0  0  0  0  0
  188.1720  177.4550  136.5250 C   0  0  0  0  0  1  0  0  0  0  0  0
  185.2420  178.3860  137.9120 C   0  0  0  0  0  0  0  0  0  0  0  0
  186.4180  178.8580  137.3740 O   0  0  0  0  0  0  0  0  0  0  0  0
  186.8090  178.0620  136.2640 C   0  0  2  0  0  3  0  0  0  0  0  0
  184.7960  177.3340  137.2650 C   0  0  0  0  0  0  0  0  0  0  0  0
  183.0590  178.7340  139.0770 C   0  0  2  0  0  3  0  0  0  0  0  0
  184.5790  178.9500  139.1250 C   0  0  0  0  0  2  0  0  0  0  0  0
  183.6010  176.5430  137.7170 C   0  0  1  0  0  3  0  0  0  0  0  0
  182.6160  177.3260  138.6200 C   0  0  1  0  0  3  0  0  0  0  0  0
  181.6050  179.4730  137.1900 C   0  0  0  0  0  3  0  0  0  0  0  0
  181.0030  181.8030  136.8610 C   0  0  0  0  0  0  0  0  0  0  0  0
  182.4120  181.1570  138.7310 C   0  0  0  0  0  3  0  0  0  0  0  0
  181.7450  182.1440  138.0010 C   0  0  0  0  0  3  0  0  0  0  0  0
  180.9370  180.4620  136.4600 C   0  0  0  0  0  3  0  0  0  0  0  0
  182.3410  179.8150  138.3280 C   0  0  0  0  0  0  0  0  0  0  0  0
  180.3020  182.8400  136.0870 C   0  0  0  0  0  0  0  0  0  0  0  0
  179.9820  183.9310  136.6270 O   0  0  0  0  0  1  0  0  0  0  0  0
  179.9890  182.6240  134.7490 O   0  0  0  0  0  0  0  0  0  0  0  0
  183.0730  176.4370  135.2500 C   0  0  0  0  0  1  0  0  0  0  0  0
  182.9320  175.7340  136.5870 C   0  0  1  0  0  3  0  0  0  0  0  0
  184.4020  173.7990  137.4100 C   0  0  0  0  0  1  0  0  0  0  0  0
  183.2890  174.2410  136.4750 C   0  0  0  0  0  3  0  0  0  0  0  0
  182.0800  173.3410  136.6180 C   0  0  0  0  0  1  0  0  0  0  0  0
  184.0150  178.8560  143.7450 C   0  0  0  0  0  2  0  0  0  0  0  0
  183.9810  178.9020  145.2700 C   0  0  0  0  0  2  0  0  0  0  0  0
  184.8770  177.7980  147.3290 C   0  0  0  0  0  1  0  0  0  0  0  0
  185.1530  178.1320  145.8740 C   0  0  2  0  0  3  0  0  0  0  0  0
  186.4750  178.8820  145.7090 C   0  0  0  0  0  2  0  0  0  0  0  0
  187.6630  177.9380  145.5390 C   0  0  0  0  0  2  0  0  0  0  0  0
  190.8770  176.3990  142.4970 C   0  0  2  0  0  3  0  0  0  0  0  0
  188.4530  176.6390  143.5090 C   0  0  1  0  0  3  0  0  0  0  0  0
  187.4440  178.9310  143.3260 C   0  0  0  0  0  1  0  0  0  0  0  0
  190.8200  176.6980  144.9460 O   0  0  0  0  0  0  0  0  0  0  0  0
  191.2260  175.8350  143.8920 C   0  0  0  0  0  2  0  0  0  0  0  0
  188.3450  178.0450  144.1700 C   0  0  1  0  0  0  0  0  0  0  0  0
  191.9870  178.3450  143.4970 C   0  0  0  0  0  2  0  0  0  0  0  0
  191.5220  177.7060  142.2600 N   0  0  0  0  0  0  0  0  0  0  0  0
  189.6740  178.8160  144.3220 C   0  0  0  0  0  2  0  0  0  0  0  0
  187.1070  175.9480  143.3140 C   0  0  0  0  0  1  0  0  0  0  0  0
  190.9920  178.0780  144.6330 C   0  0  1  0  0  3  0  0  0  0  0  0
  189.3510  176.4610  142.2650 C   0  0  1  0  0  3  0  0  0  0  0  0
  188.9080  177.1660  141.0180 C   0  0  0  0  0  0  0  0  0  0  0  0
  188.2900  178.2620  141.0810 O   0  0  0  0  0  0  0  0  0  0  0  0
  189.1780  176.5840  139.7500 N   0  0  0  0  0  1  0  0  0  0  0  0
  192.6600  177.5220  141.3610 C   0  0  0  0  0  2  0  0  0  0  0  0
  192.2380  177.2720  140.0520 O   0  0  0  0  0  1  0  0  0  0  0  0
  1  4  1  0  0  0  0
  2 33  1  0  0  0  0
  2  6  1  0  0  0  0
  3  2  2  0  0  0  0
  4  6  2  0  0  0  0
  5  3  1  0  0  0  0
  5  1  2  0  0  0  0
  7  5  1  0  0  0  0
  8  7  1  0  0  0  0
  9 13  1  0  0  0  0
  9 14  1  0  0  0  0
 11 16  1  0  0  0  0
 12 11  1  0  0  0  0
 13 10  1  1  0  0  0
 13 12  1  0  0  0  0
 14 17  1  0  0  0  0
 14 11  2  0  0  0  0
 15 24  1  6  0  0  0
 15 16  1  0  0  0  0
 17 29  1  6  0  0  0
 17 18  1  0  0  0  0
 18 15  1  0  0  0  0
 18  8  1  1  0  0  0
 19 24  1  0  0  0  0
 20 22  2  0  0  0  0
 22 21  1  0  0  0  0
 23 20  1  0  0  0  0
 23 19  2  0  0  0  0
 24 21  2  0  0  0  0
 25 26  1  0  0  0  0
 25 20  1  0  0  0  0
 27 25  2  0  0  0  0
 29 28  1  6  0  0  0
 31 29  1  0  0  0  0
 31 32  1  0  0  0  0
 31 30  1  0  0  0  0
 33 34  1  0  0  0  0
 34 36  1  0  0  0  0
 36 35  1  1  0  0  0
 37 36  1  0  0  0  0
 38 37  1  0  0  0  0
 39 43  1  1  0  0  0
 40 48  1  6  0  0  0
 40 44  1  0  0  0  0
 43 42  1  0  0  0  0
 44 41  1  6  0  0  0
 44 47  1  0  0  0  0
 44 38  1  0  0  0  0
 46 39  1  0  0  0  0
 46 45  1  0  0  0  0
 47 49  1  0  0  0  0
 49 45  1  6  0  0  0
 49 42  1  0  0  0  0
 50 51  1  6  0  0  0
 50 39  1  0  0  0  0
 50 40  1  0  0  0  0
 51 52  2  0  0  0  0
 53 51  1  0  0  0  0
 54 46  1  0  0  0  0
 55 54  1  0  0  0  0
M  END
>  <MODEL>
2

>  <REMARK>
 VINA RESULT:      -6.2      2.861      5.345
  Name = 
  15 active torsions:
  status: ('A' for Active; 'I' for Inactive)
    1  A    between atoms: C_1  and  C_53
    2  A    between atoms: C_2  and  C_28
    3  A    between atoms: C_2  and  C_49
    4  A    between atoms: C_8  and  C_20
    5  A    between atoms: C_8  and  C_22
    6  A    between atoms: C_10  and  C_32
    7  A    between atoms: C_11  and  N_38
    8  A    between atoms: C_19  and  C_40
    9  A    between atoms: C_22  and  C_43
   10  A    between atoms: C_27  and  C_54
   11  A    between atoms: C_28  and  C_44
   12  A    between atoms: C_33  and  C_52
   13  A    between atoms: C_40  and  C_45
   14  A    between atoms: C_43  and  C_51
   15  A    between atoms: C_51  and  C_54
                            x       y       z     vdW  Elec       q    Type
                         _______ _______ _______ _____ _____    ______ ____

>  <TORSDO>
F 15

$$$$
=
 OpenBabel10272401363D

 55 60  0  0  1  0  0  0  0  0999 V2000
  190.1880  174.1580  134.6450 N   0  0  0  0  0  0  0  0  0  0  0  0
  191.3540  175.7830  136.5500 C   0  0  0  0  0  0  0  0  0  0  0  0
  189.9660  175.7750  136.3900 C   0  0  0  0  0  3  0  0  0  0  0  0
  191.5400  174.1480  134.7910 C   0  0  0  0  0  3  0  0  0  0  0  0
  189.3950  174.9460  135.4230 C   0  0  0  0  0  0  0  0  0  0  0  0
  192.1490  174.9630  135.7470 C   0  0  0  0  0  3  0  0  0  0  0  0
  187.9260  174.9720  135.2000 C   0  0  0  0  0  2  0  0  0  0  0  0
  187.3500  176.2640  135.7600 C   0  0  0  0  0  2  0  0  0  0  0  0
  182.9200  173.6760  135.8920 C   0  0  0  0  0  2  0  0  0  0  0  0
  180.9780  173.9160  134.3470 C   0  0  0  0  0  1  0  0  0  0  0  0
  183.2600  175.9480  135.7750 C   0  0  0  0  0  0  0  0  0  0  0  0
  181.9120  175.7640  135.5630 O   0  0  0  0  0  0  0  0  0  0  0  0
  181.5810  174.3860  135.6550 C   0  0  2  0  0  3  0  0  0  0  0  0
  183.8790  174.8120  136.0030 C   0  0  0  0  0  0  0  0  0  0  0  0
  185.1930  177.2960  136.6040 C   0  0  2  0  0  3  0  0  0  0  0  0
  183.9580  177.2640  135.6910 C   0  0  0  0  0  2  0  0  0  0  0  0
  185.3720  174.7090  136.1400 C   0  0  1  0  0  3  0  0  0  0  0  0
  186.0720  176.0270  136.5540 C   0  0  1  0  0  3  0  0  0  0  0  0
  185.8600  178.2920  138.7920 C   0  0  0  0  0  3  0  0  0  0  0  0
  184.3250  178.4270  140.6690 C   0  0  0  0  0  0  0  0  0  0  0  0
  183.5990  177.4570  138.5630 C   0  0  0  0  0  3  0  0  0  0  0  0
  183.3300  177.8230  139.8850 C   0  0  0  0  0  3  0  0  0  0  0  0
  185.5900  178.6580  140.1140 C   0  0  0  0  0  3  0  0  0  0  0  0
  184.8670  177.6930  138.0110 C   0  0  0  0  0  0  0  0  0  0  0  0
  184.0480  178.8100  142.0620 C   0  0  0  0  0  0  0  0  0  0  0  0
  184.8900  179.4750  142.7210 O   0  0  0  0  0  1  0  0  0  0  0  0
  182.8490  178.4430  142.6650 O   0  0  0  0  0  0  0  0  0  0  0  0
  184.9300  173.1880  138.1070 C   0  0  0  0  0  1  0  0  0  0  0  0
  185.8360  173.4620  136.9200 C   0  0  1  0  0  3  0  0  0  0  0  0
  185.7360  172.2820  134.6450 C   0  0  0  0  0  1  0  0  0  0  0  0
  186.1070  172.1800  136.1150 C   0  0  0  0  0  3  0  0  0  0  0  0
  187.5260  171.6790  136.2760 C   0  0  0  0  0  1  0  0  0  0  0  0
  191.9940  176.6660  137.5710 C   0  0  0  0  0  2  0  0  0  0  0  0
  190.9480  177.3610  138.4380 C   0  0  0  0  0  2  0  0  0  0  0  0
  192.9040  177.2670  139.9950 C   0  0  0  0  0  1  0  0  0  0  0  0
  191.3980  177.4360  139.8950 C   0  0  2  0  0  3  0  0  0  0  0  0
  190.6590  176.4270  140.7740 C   0  0  0  0  0  2  0  0  0  0  0  0
  189.3410  176.9800  141.3120 C   0  0  0  0  0  2  0  0  0  0  0  0
  190.6870  177.9150  145.7010 C   0  0  2  0  0  3  0  0  0  0  0  0
  189.1730  178.1530  143.5530 C   0  0  1  0  0  3  0  0  0  0  0  0
  187.7940  176.1320  142.9920 C   0  0  0  0  0  1  0  0  0  0  0  0
  191.8760  177.5500  143.5700 O   0  0  0  0  0  0  0  0  0  0  0  0
  191.8230  178.3450  144.7470 C   0  0  0  0  0  2  0  0  0  0  0  0
  189.1580  176.7790  142.8210 C   0  0  1  0  0  0  0  0  0  0  0  0
  191.7500  175.7460  145.2740 C   0  0  0  0  0  2  0  0  0  0  0  0
  190.8380  176.5110  146.1330 N   0  0  0  0  0  0  0  0  0  0  0  0
  190.1850  175.7420  143.3250 C   0  0  0  0  0  2  0  0  0  0  0  0
  188.0940  179.1180  143.0700 C   0  0  0  0  0  1  0  0  0  0  0  0
  191.5830  176.1760  143.8120 C   0  0  1  0  0  3  0  0  0  0  0  0
  189.2920  178.1830  145.0930 C   0  0  1  0  0  3  0  0  0  0  0  0
  188.1280  177.6300  145.8610 C   0  0  0  0  0  0  0  0  0  0  0  0
  187.3170  176.8330  145.3180 O   0  0  0  0  0  0  0  0  0  0  0  0
  187.9310  178.0200  147.2130 N   0  0  0  0  0  1  0  0  0  0  0  0
  191.3380  176.4840  147.5060 C   0  0  0  0  0  2  0  0  0  0  0  0
  192.7310  176.3770  147.5370 O   0  0  0  0  0  1  0  0  0  0  0  0
  1  4  2  0  0  0  0
  1  5  1  0  0  0  0
  2 33  1  0  0  0  0
  3  2  1  0  0  0  0
  4  6  1  0  0  0  0
  5  3  2  0  0  0  0
  6  2  2  0  0  0  0
  7  5  1  0  0  0  0
  7  8  1  0  0  0  0
  9 14  1  0  0  0  0
 11 14  2  0  0  0  0
 12 13  1  0  0  0  0
 12 11  1  0  0  0  0
 13 10  1  6  0  0  0
 13  9  1  0  0  0  0
 14 17  1  0  0  0  0
 15 24  1  1  0  0  0
 16 11  1  0  0  0  0
 16 15  1  0  0  0  0
 17 18  1  0  0  0  0
 17 29  1  1  0  0  0
 18  8  1  6  0  0  0
 18 15  1  0  0  0  0
 19 23  1  0  0  0  0
 20 25  1  0  0  0  0
 21 22  2  0  0  0  0
 22 20  1  0  0  0  0
 23 20  2  0  0  0  0
 24 21  1  0  0  0  0
 24 19  2  0  0  0  0
 25 27  2  0  0  0  0
 25 26  1  0  0  0  0
 29 28  1  1  0  0  0
 30 31  1  0  0  0  0
 31 32  1  0  0  0  0
 31 29  1  0  0  0  0
 33 34  1  0  0  0  0
 34 36  1  0  0  0  0
 36 35  1  6  0  0  0
 36 37  1  0  0  0  0
 37 38  1  0  0  0  0
 38 44  1  0  0  0  0
 39 43  1  6  0  0  0
 39 46  1  0  0  0  0
 40 48  1  1  0  0  0
 40 50  1  0  0  0  0
 42 49  1  0  0  0  0
 42 43  1  0  0  0  0
 44 41  1  1  0  0  0
 44 47  1  0  0  0  0
 44 40  1  0  0  0  0
 45 46  1  0  0  0  0
 46 54  1  0  0  0  0
 49 47  1  1  0  0  0
 49 45  1  0  0  0  0
 50 39  1  0  0  0  0
 50 51  1  1  0  0  0
 51 53  1  0  0  0  0
 52 51  2  0  0  0  0
 54 55  1  0  0  0  0
M  END
>  <MODEL>
3

>  <REMARK>
 VINA RESULT:      -5.8      3.096      6.794
  Name = 
  15 active torsions:
  status: ('A' for Active; 'I' for Inactive)
    1  A    between atoms: C_1  and  C_53
    2  A    between atoms: C_2  and  C_28
    3  A    between atoms: C_2  and  C_49
    4  A    between atoms: C_8  and  C_20
    5  A    between atoms: C_8  and  C_22
    6  A    between atoms: C_10  and  C_32
    7  A    between atoms: C_11  and  N_38
    8  A    between atoms: C_19  and  C_40
    9  A    between atoms: C_22  and  C_43
   10  A    between atoms: C_27  and  C_54
   11  A    between atoms: C_28  and  C_44
   12  A    between atoms: C_33  and  C_52
   13  A    between atoms: C_40  and  C_45
   14  A    between atoms: C_43  and  C_51
   15  A    between atoms: C_51  and  C_54
                            x       y       z     vdW  Elec       q    Type
                         _______ _______ _______ _____ _____    ______ ____

>  <TORSDO>
F 15

$$$$
=
 OpenBabel10272401363D

 55 60  0  0  1  0  0  0  0  0999 V2000
  191.8390  177.3780  141.8690 N   0  0  0  0  0  0  0  0  0  0  0  0
  189.7790  177.3590  140.0300 C   0  0  0  0  0  0  0  0  0  0  0  0
  191.0900  177.1070  139.6170 C   0  0  0  0  0  3  0  0  0  0  0  0
  190.5680  177.6210  142.2910 C   0  0  0  0  0  3  0  0  0  0  0  0
  192.1180  177.1190  140.5620 C   0  0  0  0  0  0  0  0  0  0  0  0
  189.5140  177.6170  141.3760 C   0  0  0  0  0  3  0  0  0  0  0  0
  193.5240  176.9130  140.1290 C   0  0  0  0  0  2  0  0  0  0  0  0
  193.6540  177.2460  138.6500 C   0  0  0  0  0  2  0  0  0  0  0  0
  197.0140  174.1040  136.3750 C   0  0  0  0  0  2  0  0  0  0  0  0
  198.5370  174.6340  134.4750 C   0  0  0  0  0  1  0  0  0  0  0  0
  195.3960  175.4260  135.4130 C   0  0  0  0  0  0  0  0  0  0  0  0
  196.1610  174.9570  134.3680 O   0  0  0  0  0  0  0  0  0  0  0  0
  197.1760  174.0880  134.8490 C   0  0  2  0  0  3  0  0  0  0  0  0
  195.8030  174.9530  136.5680 C   0  0  0  0  0  0  0  0  0  0  0  0
  193.2290  176.2140  136.3730 C   0  0  2  0  0  3  0  0  0  0  0  0
  194.2810  176.4080  135.2720 C   0  0  0  0  0  2  0  0  0  0  0  0
  195.2290  175.4010  137.8830 C   0  0  1  0  0  3  0  0  0  0  0  0
  193.8030  175.9970  137.7910 C   0  0  1  0  0  3  0  0  0  0  0  0
  192.0680  174.0570  136.8440 C   0  0  0  0  0  3  0  0  0  0  0  0
  190.3230  173.1860  135.3960 C   0  0  0  0  0  0  0  0  0  0  0  0
  191.3980  175.3030  134.8800 C   0  0  0  0  0  3  0  0  0  0  0  0
  190.4630  174.3120  134.5700 C   0  0  0  0  0  3  0  0  0  0  0  0
  191.1320  173.0650  136.5340 C   0  0  0  0  0  3  0  0  0  0  0  0
  192.2040  175.1790  136.0220 C   0  0  0  0  0  0  0  0  0  0  0  0
  189.3430  172.1390  135.0720 C   0  0  0  0  0  0  0  0  0  0  0  0
  189.7200  170.9590  134.8480 O   0  0  0  0  0  0  0  0  0  0  0  0
  187.9870  172.4430  135.0130 O   0  0  0  0  0  1  0  0  0  0  0  0
  195.2380  172.9600  138.5270 C   0  0  0  0  0  1  0  0  0  0  0  0
  195.4280  174.3820  139.0230 C   0  0  1  0  0  3  0  0  0  0  0  0
  197.9620  174.7760  139.0760 C   0  0  0  0  0  1  0  0  0  0  0  0
  196.6990  174.5120  139.8790 C   0  0  0  0  0  3  0  0  0  0  0  0
  196.5510  175.5270  140.9930 C   0  0  0  0  0  1  0  0  0  0  0  0
  188.6610  177.3610  139.0400 C   0  0  0  0  0  2  0  0  0  0  0  0
  189.0390  176.6010  137.7720 C   0  0  0  0  0  2  0  0  0  0  0  0
  188.9580  178.9800  137.0040 C   0  0  0  0  0  1  0  0  0  0  0  0
  189.1020  177.5340  136.5650 C   0  0  2  0  0  3  0  0  0  0  0  0
  188.0690  177.1630  135.5010 C   0  0  0  0  0  2  0  0  0  0  0  0
  187.2340  175.9470  135.8990 C   0  0  0  0  0  2  0  0  0  0  0  0
  182.7920  174.6140  136.5620 C   0  0  2  0  0  3  0  0  0  0  0  0
  184.8910  176.1900  136.8350 C   0  0  1  0  0  3  0  0  0  0  0  0
  185.6250  177.3590  134.7380 C   0  0  0  0  0  1  0  0  0  0  0  0
  184.9610  173.4390  136.5270 O   0  0  0  0  0  0  0  0  0  0  0  0
  183.7130  173.5510  137.1990 C   0  0  0  0  0  2  0  0  0  0  0  0
  185.7500  176.0750  135.5410 C   0  0  1  0  0  0  0  0  0  0  0  0
  183.4340  173.3360  134.5690 C   0  0  0  0  0  2  0  0  0  0  0  0
  182.4970  174.3060  135.1490 N   0  0  0  0  0  0  0  0  0  0  0  0
  185.3570  174.9330  134.5780 C   0  0  0  0  0  2  0  0  0  0  0  0
  185.2680  177.3760  137.7180 C   0  0  0  0  0  1  0  0  0  0  0  0
  184.8470  173.5790  135.1130 C   0  0  1  0  0  3  0  0  0  0  0  0
  183.3560  176.0420  136.7340 C   0  0  1  0  0  3  0  0  0  0  0  0
  182.6310  177.1250  135.9890 C   0  0  0  0  0  0  0  0  0  0  0  0
  182.4500  177.0430  134.7460 O   0  0  0  0  0  0  0  0  0  0  0  0
  182.1540  178.2620  136.6960 N   0  0  0  0  0  1  0  0  0  0  0  0
  181.1380  173.7770  135.0480 C   0  0  0  0  0  2  0  0  0  0  0  0
  180.1860  174.7910  135.1860 O   0  0  0  0  0  1  0  0  0  0  0  0
  1  4  1  0  0  0  0
  2  6  1  0  0  0  0
  3  2  2  0  0  0  0
  3  5  1  0  0  0  0
  5  1  2  0  0  0  0
  6  4  2  0  0  0  0
  7  5  1  0  0  0  0
  8  7  1  0  0  0  0
  9 14  1  0  0  0  0
 11 14  2  0  0  0  0
 12 13  1  0  0  0  0
 12 11  1  0  0  0  0
 13 10  1  1  0  0  0
 13  9  1  0  0  0  0
 14 17  1  0  0  0  0
 15 24  1  6  0  0  0
 15 18  1  0  0  0  0
 16 11  1  0  0  0  0
 16 15  1  0  0  0  0
 17 29  1  1  0  0  0
 18 17  1  0  0  0  0
 18  8  1  6  0  0  0
 20 23  2  0  0  0  0
 21 24  1  0  0  0  0
 22 21  2  0  0  0  0
 22 20  1  0  0  0  0
 23 19  1  0  0  0  0
 24 19  2  0  0  0  0
 25 20  1  0  0  0  0
 26 25  2  0  0  0  0
 27 25  1  0  0  0  0
 29 28  1  6  0  0  0
 29 31  1  0  0  0  0
 30 31  1  0  0  0  0
 31 32  1  0  0  0  0
 33  2  1  0  0  0  0
 34 33  1  0  0  0  0
 36 35  1  1  0  0  0
 36 34  1  0  0  0  0
 37 38  1  0  0  0  0
 37 36  1  0  0  0  0
 39 50  1  0  0  0  0
 39 43  1  6  0  0  0
 40 48  1  6  0  0  0
 42 43  1  0  0  0  0
 44 41  1  6  0  0  0
 44 38  1  0  0  0  0
 44 40  1  0  0  0  0
 45 46  1  0  0  0  0
 46 39  1  0  0  0  0
 47 49  1  0  0  0  0
 47 44  1  0  0  0  0
 49 45  1  1  0  0  0
 49 42  1  0  0  0  0
 50 51  1  6  0  0  0
 50 40  1  0  0  0  0
 51 53  1  0  0  0  0
 52 51  2  0  0  0  0
 54 46  1  0  0  0  0
 54 55  1  0  0  0  0
M  END
>  <MODEL>
4

>  <REMARK>
 VINA RESULT:      -5.8      5.016     11.807
  Name = 
  15 active torsions:
  status: ('A' for Active; 'I' for Inactive)
    1  A    between atoms: C_1  and  C_53
    2  A    between atoms: C_2  and  C_28
    3  A    between atoms: C_2  and  C_49
    4  A    between atoms: C_8  and  C_20
    5  A    between atoms: C_8  and  C_22
    6  A    between atoms: C_10  and  C_32
    7  A    between atoms: C_11  and  N_38
    8  A    between atoms: C_19  and  C_40
    9  A    between atoms: C_22  and  C_43
   10  A    between atoms: C_27  and  C_54
   11  A    between atoms: C_28  and  C_44
   12  A    between atoms: C_33  and  C_52
   13  A    between atoms: C_40  and  C_45
   14  A    between atoms: C_43  and  C_51
   15  A    between atoms: C_51  and  C_54
                            x       y       z     vdW  Elec       q    Type
                         _______ _______ _______ _____ _____    ______ ____

>  <TORSDO>
F 15

$$$$
=
 OpenBabel10272401363D

 55 60  0  0  1  0  0  0  0  0999 V2000
  179.9890  179.0600  142.0610 N   0  0  0  0  0  0  0  0  0  0  0  0
  182.5660  178.6370  142.9590 C   0  0  0  0  0  0  0  0  0  0  0  0
  182.1110  177.9930  141.8050 C   0  0  0  0  0  3  0  0  0  0  0  0
  180.4160  179.7000  143.1830 C   0  0  0  0  0  3  0  0  0  0  0  0
  180.8060  178.2220  141.3650 C   0  0  0  0  0  0  0  0  0  0  0  0
  181.7150  179.4970  143.6530 C   0  0  0  0  0  3  0  0  0  0  0  0
  180.2880  177.4980  140.1750 C   0  0  0  0  0  2  0  0  0  0  0  0
  181.4270  176.7430  139.5050 C   0  0  0  0  0  2  0  0  0  0  0  0
  185.5820  177.1150  136.5160 C   0  0  0  0  0  2  0  0  0  0  0  0
  187.9330  177.5310  137.2330 C   0  0  0  0  0  1  0  0  0  0  0  0
  184.8550  178.5510  138.1590 C   0  0  0  0  0  0  0  0  0  0  0  0
  186.1160  178.9870  137.8180 O   0  0  0  0  0  0  0  0  0  0  0  0
  186.6490  178.1880  136.7720 C   0  0  2  0  0  3  0  0  0  0  0  0
  184.4810  177.5210  137.4350 C   0  0  0  0  0  0  0  0  0  0  0  0
  182.5300  178.9640  138.9740 C   0  0  2  0  0  3  0  0  0  0  0  0
  184.0290  179.1260  139.2610 C   0  0  0  0  0  2  0  0  0  0  0  0
  183.2040  176.7680  137.6840 C   0  0  1  0  0  3  0  0  0  0  0  0
  182.1170  177.5770  138.4330 C   0  0  1  0  0  3  0  0  0  0  0  0
  182.1850  181.3970  138.5420 C   0  0  0  0  0  3  0  0  0  0  0  0
  180.9240  182.2030  136.6290 C   0  0  0  0  0  0  0  0  0  0  0  0
  181.2310  179.8180  136.9760 C   0  0  0  0  0  3  0  0  0  0  0  0
  180.7100  180.8760  136.2260 C   0  0  0  0  0  3  0  0  0  0  0  0
  181.6650  182.4560  137.7920 C   0  0  0  0  0  3  0  0  0  0  0  0
  181.9740  180.0760  138.1370 C   0  0  0  0  0  0  0  0  0  0  0  0
  180.3760  183.3200  135.8460 C   0  0  0  0  0  0  0  0  0  0  0  0
  180.2550  183.2250  134.5960 O   0  0  0  0  0  0  0  0  0  0  0  0
  179.9820  184.4940  136.4800 O   0  0  0  0  0  1  0  0  0  0  0  0
  183.3520  174.6290  136.3490 C   0  0  0  0  0  1  0  0  0  0  0  0
  182.6940  175.9930  136.4520 C   0  0  1  0  0  3  0  0  0  0  0  0
  180.6770  176.4990  134.9500 C   0  0  0  0  0  1  0  0  0  0  0  0
  181.1710  175.8960  136.2540 C   0  0  0  0  0  3  0  0  0  0  0  0
  180.6500  174.4850  136.4230 C   0  0  0  0  0  1  0  0  0  0  0  0
  183.9550  178.4060  143.4570 C   0  0  0  0  0  2  0  0  0  0  0  0
  184.0260  178.5170  144.9770 C   0  0  0  0  0  2  0  0  0  0  0  0
  185.1340  180.6170  144.1920 C   0  0  0  0  0  1  0  0  0  0  0  0
  184.7510  179.7900  145.4060 C   0  0  2  0  0  3  0  0  0  0  0  0
  185.9640  179.4870  146.2870 C   0  0  0  0  0  2  0  0  0  0  0  0
  185.9940  178.0340  146.7570 C   0  0  0  0  0  2  0  0  0  0  0  0
  190.0050  177.7920  144.3490 C   0  0  2  0  0  3  0  0  0  0  0  0
  188.4900  178.3440  146.4370 C   0  0  1  0  0  3  0  0  0  0  0  0
  187.5270  176.3460  147.6120 C   0  0  0  0  0  1  0  0  0  0  0  0
  187.6890  178.4310  143.7870 O   0  0  0  0  0  0  0  0  0  0  0  0
  189.0600  178.7650  143.6110 C   0  0  0  0  0  2  0  0  0  0  0  0
  187.3180  177.3190  146.4640 C   0  0  1  0  0  0  0  0  0  0  0  0
  188.5750  176.1980  143.1530 C   0  0  0  0  0  2  0  0  0  0  0  0
  189.8350  176.4030  143.8780 N   0  0  0  0  0  0  0  0  0  0  0  0
  187.1590  176.4510  145.1970 C   0  0  0  0  0  2  0  0  0  0  0  0
  188.6520  179.1260  147.7370 C   0  0  0  0  0  1  0  0  0  0  0  0
  187.4560  177.0250  143.7960 C   0  0  1  0  0  3  0  0  0  0  0  0
  189.8620  177.9010  145.8830 C   0  0  1  0  0  3  0  0  0  0  0  0
  190.6010  176.8680  146.6830 C   0  0  0  0  0  0  0  0  0  0  0  0
  189.9760  175.9900  147.3350 O   0  0  0  0  0  0  0  0  0  0  0  0
  192.0210  176.8910  146.7150 N   0  0  0  0  0  1  0  0  0  0  0  0
  190.9520  176.0530  143.0040 C   0  0  0  0  0  2  0  0  0  0  0  0
  191.9130  177.0690  142.9760 O   0  0  0  0  0  1  0  0  0  0  0  0
  1  4  1  0  0  0  0
  2 33  1  0  0  0  0
  2  6  1  0  0  0  0
  3  2  2  0  0  0  0
  4  6  2  0  0  0  0
  5  3  1  0  0  0  0
  5  1  2  0  0  0  0
  7  5  1  0  0  0  0
  8  7  1  0  0  0  0
  9 13  1  0  0  0  0
  9 14  1  0  0  0  0
 11 16  1  0  0  0  0
 12 11  1  0  0  0  0
 13 10  1  1  0  0  0
 13 12  1  0  0  0  0
 14 17  1  0  0  0  0
 14 11  2  0  0  0  0
 15 24  1  6  0  0  0
 15 16  1  0  0  0  0
 17 29  1  6  0  0  0
 17 18  1  0  0  0  0
 18 15  1  0  0  0  0
 18  8  1  1  0  0  0
 20 23  1  0  0  0  0
 21 24  2  0  0  0  0
 22 20  2  0  0  0  0
 22 21  1  0  0  0  0
 23 19  2  0  0  0  0
 24 19  1  0  0  0  0
 25 27  1  0  0  0  0
 25 20  1  0  0  0  0
 26 25  2  0  0  0  0
 29 28  1  1  0  0  0
 30 31  1  0  0  0  0
 31 32  1  0  0  0  0
 31 29  1  0  0  0  0
 33 34  1  0  0  0  0
 34 36  1  0  0  0  0
 36 35  1  6  0  0  0
 36 37  1  0  0  0  0
 37 38  1  0  0  0  0
 39 43  1  6  0  0  0
 39 50  1  0  0  0  0
 40 44  1  0  0  0  0
 40 48  1  1  0  0  0
 42 49  1  0  0  0  0
 43 42  1  0  0  0  0
 44 38  1  0  0  0  0
 44 41  1  1  0  0  0
 45 46  1  0  0  0  0
 46 39  1  0  0  0  0
 47 44  1  0  0  0  0
 49 45  1  1  0  0  0
 49 47  1  0  0  0  0
 50 40  1  0  0  0  0
 50 51  1  1  0  0  0
 51 53  1  0  0  0  0
 51 52  2  0  0  0  0
 54 46  1  0  0  0  0
 55 54  1  0  0  0  0
M  END
>  <MODEL>
5

>  <REMARK>
 VINA RESULT:      -5.7      2.700      5.060
  Name = 
  15 active torsions:
  status: ('A' for Active; 'I' for Inactive)
    1  A    between atoms: C_1  and  C_53
    2  A    between atoms: C_2  and  C_28
    3  A    between atoms: C_2  and  C_49
    4  A    between atoms: C_8  and  C_20
    5  A    between atoms: C_8  and  C_22
    6  A    between atoms: C_10  and  C_32
    7  A    between atoms: C_11  and  N_38
    8  A    between atoms: C_19  and  C_40
    9  A    between atoms: C_22  and  C_43
   10  A    between atoms: C_27  and  C_54
   11  A    between atoms: C_28  and  C_44
   12  A    between atoms: C_33  and  C_52
   13  A    between atoms: C_40  and  C_45
   14  A    between atoms: C_43  and  C_51
   15  A    between atoms: C_51  and  C_54
                            x       y       z     vdW  Elec       q    Type
                         _______ _______ _______ _____ _____    ______ ____

>  <TORSDO>
F 15

$$$$
=
 OpenBabel10272401363D

 55 60  0  0  1  0  0  0  0  0999 V2000
  188.0710  177.8820  138.7480 N   0  0  0  0  0  0  0  0  0  0  0  0
  186.0710  178.7180  140.4610 C   0  0  0  0  0  0  0  0  0  0  0  0
  185.7540  178.2790  139.1720 C   0  0  0  0  0  3  0  0  0  0  0  0
  188.3990  178.3010  140.0010 C   0  0  0  0  0  3  0  0  0  0  0  0
  186.7780  177.8580  138.3220 C   0  0  0  0  0  0  0  0  0  0  0  0
  187.4020  178.7280  140.8800 C   0  0  0  0  0  3  0  0  0  0  0  0
  186.4620  177.4460  136.9300 C   0  0  0  0  0  2  0  0  0  0  0  0
  185.1360  178.0610  136.5070 C   0  0  0  0  0  2  0  0  0  0  0  0
  181.9460  174.0590  136.1220 C   0  0  0  0  0  2  0  0  0  0  0  0
  180.2380  173.6470  134.3540 C   0  0  0  0  0  1  0  0  0  0  0  0
  181.4590  176.3050  136.0330 C   0  0  0  0  0  0  0  0  0  0  0  0
  180.3000  175.6600  135.6610 O   0  0  0  0  0  0  0  0  0  0  0  0
  180.4780  174.2520  135.7210 C   0  0  2  0  0  3  0  0  0  0  0  0
  182.4140  175.4570  136.3410 C   0  0  0  0  0  0  0  0  0  0  0  0
  182.6700  178.2230  137.0790 C   0  0  2  0  0  3  0  0  0  0  0  0
  181.6430  177.7860  136.0250 C   0  0  0  0  0  2  0  0  0  0  0  0
  183.8180  175.8890  136.6570 C   0  0  1  0  0  3  0  0  0  0  0  0
  183.9460  177.3530  137.1430 C   0  0  1  0  0  3  0  0  0  0  0  0
  181.7330  179.7200  138.8410 C   0  0  0  0  0  3  0  0  0  0  0  0
  180.9590  178.8690  140.9800 C   0  0  0  0  0  0  0  0  0  0  0  0
  181.8450  177.3470  139.3060 C   0  0  0  0  0  3  0  0  0  0  0  0
  181.2950  177.5690  140.5720 C   0  0  0  0  0  3  0  0  0  0  0  0
  181.1820  179.9420  140.1070 C   0  0  0  0  0  3  0  0  0  0  0  0
  182.0640  178.4240  138.4350 C   0  0  0  0  0  0  0  0  0  0  0  0
  180.3820  179.1080  142.3110 C   0  0  0  0  0  0  0  0  0  0  0  0
  180.2430  180.2820  142.7450 O   0  0  0  0  0  0  0  0  0  0  0  0
  179.9820  178.0380  143.1050 O   0  0  0  0  0  1  0  0  0  0  0  0
  183.6710  173.9060  138.2140 C   0  0  0  0  0  1  0  0  0  0  0  0
  184.6060  174.8620  137.4950 C   0  0  1  0  0  3  0  0  0  0  0  0
  186.0230  172.7270  137.3750 C   0  0  0  0  0  1  0  0  0  0  0  0
  185.7520  174.1070  136.8000 C   0  0  0  0  0  3  0  0  0  0  0  0
  185.5790  174.0380  135.2980 C   0  0  0  0  0  1  0  0  0  0  0  0
  184.9980  179.1810  141.3890 C   0  0  0  0  0  2  0  0  0  0  0  0
  184.4570  178.0300  142.2330 C   0  0  0  0  0  2  0  0  0  0  0  0
  183.4320  179.5290  143.9540 C   0  0  0  0  0  1  0  0  0  0  0  0
  184.4190  178.4010  143.7140 C   0  0  2  0  0  3  0  0  0  0  0  0
  185.8080  178.7440  144.2530 C   0  0  0  0  0  2  0  0  0  0  0  0
  186.6440  177.4980  144.5420 C   0  0  0  0  0  2  0  0  0  0  0  0
  190.5930  176.3730  146.7980 C   0  0  2  0  0  3  0  0  0  0  0  0
  188.9740  176.5150  144.7200 C   0  0  1  0  0  3  0  0  0  0  0  0
  188.5590  178.8320  143.8480 C   0  0  0  0  0  1  0  0  0  0  0  0
  188.1940  176.2840  147.3670 O   0  0  0  0  0  0  0  0  0  0  0  0
  189.4310  175.5880  147.4430 C   0  0  0  0  0  2  0  0  0  0  0  0
  188.1100  177.8020  144.8700 C   0  0  1  0  0  0  0  0  0  0  0  0
  189.6360  178.1080  148.2440 C   0  0  0  0  0  2  0  0  0  0  0  0
  190.7940  177.6840  147.4480 N   0  0  0  0  0  0  0  0  0  0  0  0
  188.1910  178.5040  146.2430 C   0  0  0  0  0  2  0  0  0  0  0  0
  188.9190  175.8980  143.3250 C   0  0  0  0  0  1  0  0  0  0  0  0
  188.3350  177.6910  147.5460 C   0  0  1  0  0  3  0  0  0  0  0  0
  190.4180  176.5100  145.2700 C   0  0  1  0  0  3  0  0  0  0  0  0
  191.3950  177.4150  144.5780 C   0  0  0  0  0  0  0  0  0  0  0  0
  191.8700  178.4220  145.1670 O   0  0  0  0  0  0  0  0  0  0  0  0
  191.7800  177.1370  143.2380 N   0  0  0  0  0  1  0  0  0  0  0  0
  191.9690  177.6130  148.3140 C   0  0  0  0  0  2  0  0  0  0  0  0
  192.4970  176.3190  148.3500 O   0  0  0  0  0  1  0  0  0  0  0  0
  1  4  1  0  0  0  0
  2  6  1  0  0  0  0
  2 33  1  0  0  0  0
  3  2  2  0  0  0  0
  4  6  2  0  0  0  0
  5  1  2  0  0  0  0
  5  3  1  0  0  0  0
  7  5  1  0  0  0  0
  8  7  1  0  0  0  0
  9 14  1  0  0  0  0
 11 14  2  0  0  0  0
 12 13  1  0  0  0  0
 12 11  1  0  0  0  0
 13 10  1  6  0  0  0
 13  9  1  0  0  0  0
 14 17  1  0  0  0  0
 15 18  1  0  0  0  0
 15 24  1  1  0  0  0
 16 11  1  0  0  0  0
 16 15  1  0  0  0  0
 17 18  1  0  0  0  0
 17 29  1  1  0  0  0
 18  8  1  6  0  0  0
 19 23  1  0  0  0  0
 20 25  1  0  0  0  0
 21 22  2  0  0  0  0
 22 20  1  0  0  0  0
 23 20  2  0  0  0  0
 24 19  2  0  0  0  0
 24 21  1  0  0  0  0
 25 26  2  0  0  0  0
 25 27  1  0  0  0  0
 29 28  1  6  0  0  0
 31 30  1  0  0  0  0
 31 29  1  0  0  0  0
 32 31  1  0  0  0  0
 33 34  1  0  0  0  0
 34 36  1  0  0  0  0
 36 35  1  6  0  0  0
 36 37  1  0  0  0  0
 37 38  1  0  0  0  0
 38 44  1  0  0  0  0
 39 43  1  1  0  0  0
 39 46  1  0  0  0  0
 40 48  1  6  0  0  0
 40 44  1  0  0  0  0
 40 50  1  0  0  0  0
 42 43  1  0  0  0  0
 42 49  1  0  0  0  0
 44 41  1  6  0  0  0
 44 47  1  0  0  0  0
 46 45  1  0  0  0  0
 46 54  1  0  0  0  0
 49 47  1  6  0  0  0
 49 45  1  0  0  0  0
 50 51  1  1  0  0  0
 50 39  1  0  0  0  0
 51 52  2  0  0  0  0
 53 51  1  0  0  0  0
 54 55  1  0  0  0  0
M  END
>  <MODEL>
6

>  <REMARK>
 VINA RESULT:      -5.4      2.431      5.101
  Name = 
  15 active torsions:
  status: ('A' for Active; 'I' for Inactive)
    1  A    between atoms: C_1  and  C_53
    2  A    between atoms: C_2  and  C_28
    3  A    between atoms: C_2  and  C_49
    4  A    between atoms: C_8  and  C_20
    5  A    between atoms: C_8  and  C_22
    6  A    between atoms: C_10  and  C_32
    7  A    between atoms: C_11  and  N_38
    8  A    between atoms: C_19  and  C_40
    9  A    between atoms: C_22  and  C_43
   10  A    between atoms: C_27  and  C_54
   11  A    between atoms: C_28  and  C_44
   12  A    between atoms: C_33  and  C_52
   13  A    between atoms: C_40  and  C_45
   14  A    between atoms: C_43  and  C_51
   15  A    between atoms: C_51  and  C_54
                            x       y       z     vdW  Elec       q    Type
                         _______ _______ _______ _____ _____    ______ ____

>  <TORSDO>
F 15

$$$$
=
 OpenBabel10272401363D

 55 60  0  0  1  0  0  0  0  0999 V2000
  188.5990  176.4980  134.4430 N   0  0  0  0  0  0  0  0  0  0  0  0
  188.6360  177.9120  136.8150 C   0  0  0  0  0  0  0  0  0  0  0  0
  187.4730  177.2490  136.4110 C   0  0  0  0  0  3  0  0  0  0  0  0
  189.7410  177.1320  134.8210 C   0  0  0  0  0  3  0  0  0  0  0  0
  187.4750  176.5380  135.2100 C   0  0  0  0  0  0  0  0  0  0  0  0
  189.7790  177.8530  136.0170 C   0  0  0  0  0  3  0  0  0  0  0  0
  186.2290  175.8790  134.7380 C   0  0  0  0  0  2  0  0  0  0  0  0
  185.0360  176.7730  135.0440 C   0  0  0  0  0  2  0  0  0  0  0  0
  182.1190  172.7510  136.3300 C   0  0  0  0  0  2  0  0  0  0  0  0
  179.9830  172.0270  135.2690 C   0  0  0  0  0  1  0  0  0  0  0  0
  181.4970  174.9440  136.0240 C   0  0  0  0  0  0  0  0  0  0  0  0
  180.3200  174.2380  136.1400 O   0  0  0  0  0  0  0  0  0  0  0  0
  180.5890  172.8630  136.3750 C   0  0  2  0  0  3  0  0  0  0  0  0
  182.5480  174.1680  136.1590 C   0  0  0  0  0  0  0  0  0  0  0  0
  182.8540  177.0210  136.3130 C   0  0  2  0  0  3  0  0  0  0  0  0
  181.5830  176.4010  135.7150 C   0  0  0  0  0  2  0  0  0  0  0  0
  183.9550  174.6550  135.9500 C   0  0  1  0  0  3  0  0  0  0  0  0
  184.1380  176.1830  136.1240 C   0  0  1  0  0  3  0  0  0  0  0  0
  181.5060  178.1300  138.0960 C   0  0  0  0  0  3  0  0  0  0  0  0
  182.3020  178.3250  140.3820 C   0  0  0  0  0  0  0  0  0  0  0  0
  183.6650  177.2190  138.7030 C   0  0  0  0  0  3  0  0  0  0  0  0
  183.4780  177.6510  140.0180 C   0  0  0  0  0  3  0  0  0  0  0  0
  181.3190  178.5620  139.4120 C   0  0  0  0  0  3  0  0  0  0  0  0
  182.6760  177.4550  137.7360 C   0  0  0  0  0  0  0  0  0  0  0  0
  182.1020  178.7860  141.7640 C   0  0  0  0  0  0  0  0  0  0  0  0
  181.1300  179.5320  142.0540 O   0  0  0  0  0  0  0  0  0  0  0  0
  182.9850  178.3980  142.7670 O   0  0  0  0  0  1  0  0  0  0  0  0
  184.6120  173.4940  138.0940 C   0  0  0  0  0  1  0  0  0  0  0  0
  185.0180  173.7940  136.6630 C   0  0  1  0  0  3  0  0  0  0  0  0
  185.2040  172.5070  134.4520 C   0  0  0  0  0  1  0  0  0  0  0  0
  185.5060  172.5270  135.9410 C   0  0  0  0  0  3  0  0  0  0  0  0
  186.9700  172.2380  136.1950 C   0  0  0  0  0  1  0  0  0  0  0  0
  188.6610  178.6870  138.0910 C   0  0  0  0  0  2  0  0  0  0  0  0
  187.8770  177.9760  139.1890 C   0  0  0  0  0  2  0  0  0  0  0  0
  190.0830  177.5360  140.2830 C   0  0  0  0  0  1  0  0  0  0  0  0
  188.6470  177.9740  140.5080 C   0  0  2  0  0  3  0  0  0  0  0  0
  187.9580  177.1200  141.5720 C   0  0  0  0  0  2  0  0  0  0  0  0
  187.6600  177.9080  142.8470 C   0  0  0  0  0  2  0  0  0  0  0  0
  190.7780  177.6990  146.3370 C   0  0  2  0  0  3  0  0  0  0  0  0
  188.4640  178.2960  145.2200 C   0  0  1  0  0  3  0  0  0  0  0  0
  187.0440  176.3230  144.5910 C   0  0  0  0  0  1  0  0  0  0  0  0
  190.9130  178.2210  143.9290 O   0  0  0  0  0  0  0  0  0  0  0  0
  191.3610  178.5980  145.2250 C   0  0  0  0  0  2  0  0  0  0  0  0
  188.1710  177.2290  144.1230 C   0  0  1  0  0  0  0  0  0  0  0  0
  191.6120  175.9940  144.7830 C   0  0  0  0  0  2  0  0  0  0  0  0
  191.1490  176.2830  146.1460 N   0  0  0  0  0  0  0  0  0  0  0  0
  189.3470  176.2950  143.7690 C   0  0  0  0  0  2  0  0  0  0  0  0
  187.2520  179.1470  145.5880 C   0  0  0  0  0  1  0  0  0  0  0  0
  190.8020  176.8090  143.7680 C   0  0  1  0  0  3  0  0  0  0  0  0
  189.2510  177.8780  146.4820 C   0  0  1  0  0  3  0  0  0  0  0  0
  188.5640  176.9150  147.4060 C   0  0  0  0  0  0  0  0  0  0  0  0
  188.5620  175.6800  147.1640 O   0  0  0  0  0  0  0  0  0  0  0  0
  187.8980  177.4070  148.5610 N   0  0  0  0  0  1  0  0  0  0  0  0
  192.2060  175.9330  147.0940 C   0  0  0  0  0  2  0  0  0  0  0  0
  192.3540  176.9170  148.0760 O   0  0  0  0  0  1  0  0  0  0  0  0
  1  4  2  0  0  0  0
  1  5  1  0  0  0  0
  2 33  1  0  0  0  0
  3  2  1  0  0  0  0
  4  6  1  0  0  0  0
  5  3  2  0  0  0  0
  6  2  2  0  0  0  0
  7  8  1  0  0  0  0
  7  5  1  0  0  0  0
  9 13  1  0  0  0  0
 11 12  1  0  0  0  0
 11 14  2  0  0  0  0
 12 13  1  0  0  0  0
 13 10  1  6  0  0  0
 14  9  1  0  0  0  0
 15 24  1  1  0  0  0
 16 11  1  0  0  0  0
 16 15  1  0  0  0  0
 17 18  1  0  0  0  0
 17 14  1  0  0  0  0
 17 29  1  1  0  0  0
 18  8  1  6  0  0  0
 18 15  1  0  0  0  0
 19 23  1  0  0  0  0
 20 25  1  0  0  0  0
 21 22  2  0  0  0  0
 22 20  1  0  0  0  0
 23 20  2  0  0  0  0
 24 19  2  0  0  0  0
 24 21  1  0  0  0  0
 25 26  2  0  0  0  0
 25 27  1  0  0  0  0
 29 28  1  1  0  0  0
 30 31  1  0  0  0  0
 31 32  1  0  0  0  0
 31 29  1  0  0  0  0
 33 34  1  0  0  0  0
 34 36  1  0  0  0  0
 36 35  1  6  0  0  0
 36 37  1  0  0  0  0
 37 38  1  0  0  0  0
 38 44  1  0  0  0  0
 39 43  1  6  0  0  0
 39 50  1  0  0  0  0
 40 48  1  1  0  0  0
 40 50  1  0  0  0  0
 42 43  1  0  0  0  0
 44 41  1  1  0  0  0
 44 40  1  0  0  0  0
 45 46  1  0  0  0  0
 46 39  1  0  0  0  0
 46 54  1  0  0  0  0
 47 44  1  0  0  0  0
 49 47  1  1  0  0  0
 49 42  1  0  0  0  0
 49 45  1  0  0  0  0
 50 51  1  6  0  0  0
 51 53  1  0  0  0  0
 52 51  2  0  0  0  0
 54 55  1  0  0  0  0
M  END
>  <MODEL>
7

>  <REMARK>
 VINA RESULT:      -5.1      2.858      5.933
  Name = 
  15 active torsions:
  status: ('A' for Active; 'I' for Inactive)
    1  A    between atoms: C_1  and  C_53
    2  A    between atoms: C_2  and  C_28
    3  A    between atoms: C_2  and  C_49
    4  A    between atoms: C_8  and  C_20
    5  A    between atoms: C_8  and  C_22
    6  A    between atoms: C_10  and  C_32
    7  A    between atoms: C_11  and  N_38
    8  A    between atoms: C_19  and  C_40
    9  A    between atoms: C_22  and  C_43
   10  A    between atoms: C_27  and  C_54
   11  A    between atoms: C_28  and  C_44
   12  A    between atoms: C_33  and  C_52
   13  A    between atoms: C_40  and  C_45
   14  A    between atoms: C_43  and  C_51
   15  A    between atoms: C_51  and  C_54
                            x       y       z     vdW  Elec       q    Type
                         _______ _______ _______ _____ _____    ______ ____

>  <TORSDO>
F 15

$$$$
=
 OpenBabel10272401363D

 55 60  0  0  1  0  0  0  0  0999 V2000
  188.5040  176.4730  134.6040 N   0  0  0  0  0  0  0  0  0  0  0  0
  187.7780  177.9540  136.8200 C   0  0  0  0  0  0  0  0  0  0  0  0
  186.8670  177.0680  136.2390 C   0  0  0  0  0  3  0  0  0  0  0  0
  189.4070  177.3280  135.1590 C   0  0  0  0  0  3  0  0  0  0  0  0
  187.2530  176.3260  135.1210 C   0  0  0  0  0  0  0  0  0  0  0  0
  189.0580  178.0860  136.2780 C   0  0  0  0  0  3  0  0  0  0  0  0
  186.2760  175.4240  134.4580 C   0  0  0  0  0  2  0  0  0  0  0  0
  184.8920  176.0540  134.5050 C   0  0  0  0  0  2  0  0  0  0  0  0
  182.9760  171.5990  136.1860 C   0  0  0  0  0  2  0  0  0  0  0  0
  181.3510  170.1110  135.0180 C   0  0  0  0  0  1  0  0  0  0  0  0
  181.8560  173.4290  135.3550 C   0  0  0  0  0  0  0  0  0  0  0  0
  180.9120  172.4310  135.4550 O   0  0  0  0  0  0  0  0  0  0  0  0
  181.4920  171.2550  136.0010 C   0  0  2  0  0  3  0  0  0  0  0  0
  183.0320  173.0340  135.7860 C   0  0  0  0  0  0  0  0  0  0  0  0
  182.5260  175.8350  135.3910 C   0  0  2  0  0  3  0  0  0  0  0  0
  181.6040  174.7770  134.7670 C   0  0  0  0  0  2  0  0  0  0  0  0
  184.2700  173.8800  135.6730 C   0  0  1  0  0  3  0  0  0  0  0  0
  183.9990  175.4000  135.5520 C   0  0  1  0  0  3  0  0  0  0  0  0
  182.7830  177.2600  137.4230 C   0  0  0  0  0  3  0  0  0  0  0  0
  181.0070  177.5030  139.0610 C   0  0  0  0  0  0  0  0  0  0  0  0
  180.6770  176.1100  137.0990 C   0  0  0  0  0  3  0  0  0  0  0  0
  180.1970  176.6520  138.2940 C   0  0  0  0  0  3  0  0  0  0  0  0
  182.3020  177.8030  138.6180 C   0  0  0  0  0  3  0  0  0  0  0  0
  181.9740  176.4150  136.6570 C   0  0  0  0  0  0  0  0  0  0  0  0
  180.5070  178.0740  140.3210 C   0  0  0  0  0  0  0  0  0  0  0  0
  180.4250  179.3220  140.4690 O   0  0  0  0  0  0  0  0  0  0  0  0
  180.1180  177.2380  141.3630 O   0  0  0  0  0  1  0  0  0  0  0  0
  184.8130  173.3930  138.0910 C   0  0  0  0  0  1  0  0  0  0  0  0
  185.3710  173.5010  136.6840 C   0  0  1  0  0  3  0  0  0  0  0  0
  186.3700  172.0060  134.8540 C   0  0  0  0  0  1  0  0  0  0  0  0
  186.2640  172.2960  136.3420 C   0  0  0  0  0  3  0  0  0  0  0  0
  187.6390  172.3930  136.9680 C   0  0  0  0  0  1  0  0  0  0  0  0
  187.3900  178.7670  138.0110 C   0  0  0  0  0  2  0  0  0  0  0  0
  186.0890  178.2620  138.6280 C   0  0  0  0  0  2  0  0  0  0  0  0
  185.0820  178.9960  140.7970 C   0  0  0  0  0  1  0  0  0  0  0  0
  186.1910  178.1860  140.1490 C   0  0  2  0  0  3  0  0  0  0  0  0
  187.5690  178.6150  140.6520 C   0  0  0  0  0  2  0  0  0  0  0  0
  188.2930  177.4930  141.3940 C   0  0  0  0  0  2  0  0  0  0  0  0
  187.9770  176.8770  146.0280 C   0  0  2  0  0  3  0  0  0  0  0  0
  189.0610  176.5970  143.6390 C   0  0  1  0  0  3  0  0  0  0  0  0
  190.0000  178.7020  142.6420 C   0  0  0  0  0  1  0  0  0  0  0  0
  186.3550  176.8600  144.1680 O   0  0  0  0  0  0  0  0  0  0  0  0
  186.7500  176.2100  145.3700 C   0  0  0  0  0  2  0  0  0  0  0  0
  188.7360  177.8760  142.8110 C   0  0  1  0  0  0  0  0  0  0  0  0
  186.5520  178.8390  145.6590 C   0  0  0  0  0  2  0  0  0  0  0  0
  187.7140  178.2900  146.3670 N   0  0  0  0  0  0  0  0  0  0  0  0
  187.6900  178.8260  143.4330 C   0  0  0  0  0  2  0  0  0  0  0  0
  190.1520  175.7280  143.0210 C   0  0  0  0  0  1  0  0  0  0  0  0
  186.4900  178.2770  144.2330 C   0  0  1  0  0  3  0  0  0  0  0  0
  189.2500  176.7200  145.1670 C   0  0  1  0  0  3  0  0  0  0  0  0
  190.4510  177.4930  145.6290 C   0  0  0  0  0  0  0  0  0  0  0  0
  190.4500  178.7520  145.6220 O   0  0  0  0  0  0  0  0  0  0  0  0
  191.6080  176.7930  146.0680 N   0  0  0  0  0  1  0  0  0  0  0  0
  187.4930  178.4030  147.8070 C   0  0  0  0  0  2  0  0  0  0  0  0
  188.6930  178.2930  148.5160 O   0  0  0  0  0  1  0  0  0  0  0  0
  1  5  2  0  0  0  0
  1  4  1  0  0  0  0
  2 33  1  0  0  0  0
  3  2  2  0  0  0  0
  4  6  2  0  0  0  0
  5  3  1  0  0  0  0
  6  2  1  0  0  0  0
  7  8  1  0  0  0  0
  7  5  1  0  0  0  0
 11 12  1  0  0  0  0
 11 14  2  0  0  0  0
 12 13  1  0  0  0  0
 13 10  1  6  0  0  0
 13  9  1  0  0  0  0
 14  9  1  0  0  0  0
 15 18  1  0  0  0  0
 15 24  1  1  0  0  0
 16 11  1  0  0  0  0
 16 15  1  0  0  0  0
 17 14  1  0  0  0  0
 17 29  1  1  0  0  0
 18  8  1  6  0  0  0
 18 17  1  0  0  0  0
 19 23  1  0  0  0  0
 20 25  1  0  0  0  0
 21 22  2  0  0  0  0
 22 20  1  0  0  0  0
 23 20  2  0  0  0  0
 24 21  1  0  0  0  0
 24 19  2  0  0  0  0
 25 26  2  0  0  0  0
 25 27  1  0  0  0  0
 29 28  1  1  0  0  0
 30 31  1  0  0  0  0
 31 29  1  0  0  0  0
 31 32  1  0  0  0  0
 33 34  1  0  0  0  0
 34 36  1  0  0  0  0
 36 37  1  0  0  0  0
 36 35  1  1  0  0  0
 37 38  1  0  0  0  0
 38 44  1  0  0  0  0
 39 43  1  6  0  0  0
 39 46  1  0  0  0  0
 40 48  1  6  0  0  0
 40 50  1  0  0  0  0
 42 49  1  0  0  0  0
 42 43  1  0  0  0  0
 44 41  1  6  0  0  0
 44 47  1  0  0  0  0
 44 40  1  0  0  0  0
 45 46  1  0  0  0  0
 46 54  1  0  0  0  0
 49 47  1  6  0  0  0
 49 45  1  0  0  0  0
 50 51  1  6  0  0  0
 50 39  1  0  0  0  0
 51 53  1  0  0  0  0
 52 51  2  0  0  0  0
 54 55  1  0  0  0  0
M  END
>  <MODEL>
8

>  <REMARK>
 VINA RESULT:      -5.0      2.728      6.028
  Name = 
  15 active torsions:
  status: ('A' for Active; 'I' for Inactive)
    1  A    between atoms: C_1  and  C_53
    2  A    between atoms: C_2  and  C_28
    3  A    between atoms: C_2  and  C_49
    4  A    between atoms: C_8  and  C_20
    5  A    between atoms: C_8  and  C_22
    6  A    between atoms: C_10  and  C_32
    7  A    between atoms: C_11  and  N_38
    8  A    between atoms: C_19  and  C_40
    9  A    between atoms: C_22  and  C_43
   10  A    between atoms: C_27  and  C_54
   11  A    between atoms: C_28  and  C_44
   12  A    between atoms: C_33  and  C_52
   13  A    between atoms: C_40  and  C_45
   14  A    between atoms: C_43  and  C_51
   15  A    between atoms: C_51  and  C_54
                            x       y       z     vdW  Elec       q    Type
                         _______ _______ _______ _____ _____    ______ ____

>  <TORSDO>
F 15

$$$$
=
 OpenBabel10272401363D

 55 60  0  0  1  0  0  0  0  0999 V2000
  180.0830  177.9800  142.8790 N   0  0  0  0  0  0  0  0  0  0  0  0
  182.6320  178.9080  143.4030 C   0  0  0  0  0  0  0  0  0  0  0  0
  182.3220  178.3780  142.1470 C   0  0  0  0  0  3  0  0  0  0  0  0
  180.3640  178.4970  144.1060 C   0  0  0  0  0  3  0  0  0  0  0  0
  181.0280  177.9170  141.9000 C   0  0  0  0  0  0  0  0  0  0  0  0
  181.6470  178.9690  144.3900 C   0  0  0  0  0  3  0  0  0  0  0  0
  180.7000  177.2960  140.5900 C   0  0  0  0  0  2  0  0  0  0  0  0
  181.9450  176.6340  140.0170 C   0  0  0  0  0  2  0  0  0  0  0  0
  185.8470  176.9280  136.6970 C   0  0  0  0  0  2  0  0  0  0  0  0
  188.2330  177.4410  137.2050 C   0  0  0  0  0  1  0  0  0  0  0  0
  185.2070  178.4410  138.3080 C   0  0  0  0  0  0  0  0  0  0  0  0
  186.4260  178.8850  137.8460 O   0  0  0  0  0  0  0  0  0  0  0  0
  186.9000  178.0390  136.8080 C   0  0  2  0  0  3  0  0  0  0  0  0
  184.8080  177.3610  137.6750 C   0  0  0  0  0  0  0  0  0  0  0  0
  182.9400  178.8460  139.2760 C   0  0  2  0  0  3  0  0  0  0  0  0
  184.4520  179.0600  139.4370 C   0  0  0  0  0  2  0  0  0  0  0  0
  183.5760  176.5940  138.0650 C   0  0  1  0  0  3  0  0  0  0  0  0
  182.5270  177.4190  138.8490 C   0  0  1  0  0  3  0  0  0  0  0  0
  181.6960  179.5100  137.2190 C   0  0  0  0  0  3  0  0  0  0  0  0
  181.0900  181.8180  136.7650 C   0  0  0  0  0  0  0  0  0  0  0  0
  182.2890  181.2450  138.7990 C   0  0  0  0  0  3  0  0  0  0  0  0
  181.6900  182.2010  137.9740 C   0  0  0  0  0  3  0  0  0  0  0  0
  181.0970  180.4670  136.3940 C   0  0  0  0  0  3  0  0  0  0  0  0
  182.2910  179.8930  138.4240 C   0  0  0  0  0  0  0  0  0  0  0  0
  180.4620  182.8210  135.8920 C   0  0  0  0  0  0  0  0  0  0  0  0
  180.2350  182.5610  134.6810 O   0  0  0  0  0  0  0  0  0  0  0  0
  180.1090  184.0680  136.3980 O   0  0  0  0  0  1  0  0  0  0  0  0
  183.0520  174.2580  137.2610 C   0  0  0  0  0  1  0  0  0  0  0  0
  182.9950  175.7360  136.9220 C   0  0  1  0  0  3  0  0  0  0  0  0
  181.4810  175.9600  134.8640 C   0  0  0  0  0  1  0  0  0  0  0  0
  181.6160  176.1310  136.3670 C   0  0  0  0  0  3  0  0  0  0  0  0
  180.4780  175.4420  137.0890 C   0  0  0  0  0  1  0  0  0  0  0  0
  184.0090  179.4020  143.6980 C   0  0  0  0  0  2  0  0  0  0  0  0
  184.9940  178.2460  143.8490 C   0  0  0  0  0  2  0  0  0  0  0  0
  184.8900  179.1410  146.1830 C   0  0  0  0  0  1  0  0  0  0  0  0
  185.2870  177.9570  145.3200 C   0  0  2  0  0  3  0  0  0  0  0  0
  186.7470  177.5610  145.5450 C   0  0  0  0  0  2  0  0  0  0  0  0
  187.2510  176.5760  144.4920 C   0  0  0  0  0  2  0  0  0  0  0  0
  190.4510  178.6140  141.7430 C   0  0  2  0  0  3  0  0  0  0  0  0
  189.0220  178.3040  143.9390 C   0  0  1  0  0  3  0  0  0  0  0  0
  189.5360  176.2340  145.2620 C   0  0  0  0  0  1  0  0  0  0  0  0
  188.2000  177.6750  141.3700 O   0  0  0  0  0  0  0  0  0  0  0  0
  189.0720  178.7540  141.0610 C   0  0  0  0  0  2  0  0  0  0  0  0
  188.7200  176.7850  144.1050 C   0  0  1  0  0  0  0  0  0  0  0  0
  190.2290  176.3890  140.7330 C   0  0  0  0  0  2  0  0  0  0  0  0
  191.1380  177.3720  141.3360 N   0  0  0  0  0  0  0  0  0  0  0  0
  189.0580  175.9000  142.8870 C   0  0  0  0  0  2  0  0  0  0  0  0
  188.7400  179.1270  145.1920 C   0  0  0  0  0  1  0  0  0  0  0  0
  188.8720  176.4200  141.4470 C   0  0  1  0  0  3  0  0  0  0  0  0
  190.3500  178.7380  143.2790 C   0  0  1  0  0  3  0  0  0  0  0  0
  191.6040  178.4310  144.0440 C   0  0  0  0  0  0  0  0  0  0  0  0
  192.1280  177.2880  143.9890 O   0  0  0  0  0  0  0  0  0  0  0  0
  192.1980  179.4400  144.8480 N   0  0  0  0  0  1  0  0  0  0  0  0
  192.1910  177.7000  140.3770 C   0  0  0  0  0  2  0  0  0  0  0  0
  191.9620  177.0870  139.1420 O   0  0  0  0  0  1  0  0  0  0  0  0
  1  4  1  0  0  0  0
  2 33  1  0  0  0  0
  2  6  1  0  0  0  0
  3  2  2  0  0  0  0
  4  6  2  0  0  0  0
  5  3  1  0  0  0  0
  5  1  2  0  0  0  0
  7  5  1  0  0  0  0
  8  7  1  0  0  0  0
  9 13  1  0  0  0  0
  9 14  1  0  0  0  0
 11 16  1  0  0  0  0
 12 11  1  0  0  0  0
 13 10  1  1  0  0  0
 13 12  1  0  0  0  0
 14 17  1  0  0  0  0
 14 11  2  0  0  0  0
 15 24  1  6  0  0  0
 15 16  1  0  0  0  0
 17 29  1  6  0  0  0
 17 18  1  0  0  0  0
 18 15  1  0  0  0  0
 18  8  1  1  0  0  0
 19 24  1  0  0  0  0
 20 22  2  0  0  0  0
 22 21  1  0  0  0  0
 23 20  1  0  0  0  0
 23 19  2  0  0  0  0
 24 21  2  0  0  0  0
 25 27  1  0  0  0  0
 25 20  1  0  0  0  0
 26 25  2  0  0  0  0
 29 28  1  1  0  0  0
 30 31  1  0  0  0  0
 31 29  1  0  0  0  0
 31 32  1  0  0  0  0
 33 34  1  0  0  0  0
 34 36  1  0  0  0  0
 36 37  1  0  0  0  0
 36 35  1  1  0  0  0
 38 37  1  0  0  0  0
 39 43  1  6  0  0  0
 39 50  1  0  0  0  0
 40 44  1  0  0  0  0
 40 48  1  1  0  0  0
 42 49  1  0  0  0  0
 43 42  1  0  0  0  0
 44 38  1  0  0  0  0
 44 41  1  1  0  0  0
 45 46  1  0  0  0  0
 46 39  1  0  0  0  0
 47 44  1  0  0  0  0
 49 45  1  1  0  0  0
 49 47  1  0  0  0  0
 50 40  1  0  0  0  0
 50 51  1  1  0  0  0
 51 53  1  0  0  0  0
 52 51  2  0  0  0  0
 54 46  1  0  0  0  0
 55 54  1  0  0  0  0
M  END
>  <MODEL>
9

>  <REMARK>
 VINA RESULT:      -4.9      2.931      5.180
  Name = 
  15 active torsions:
  status: ('A' for Active; 'I' for Inactive)
    1  A    between atoms: C_1  and  C_53
    2  A    between atoms: C_2  and  C_28
    3  A    between atoms: C_2  and  C_49
    4  A    between atoms: C_8  and  C_20
    5  A    between atoms: C_8  and  C_22
    6  A    between atoms: C_10  and  C_32
    7  A    between atoms: C_11  and  N_38
    8  A    between atoms: C_19  and  C_40
    9  A    between atoms: C_22  and  C_43
   10  A    between atoms: C_27  and  C_54
   11  A    between atoms: C_28  and  C_44
   12  A    between atoms: C_33  and  C_52
   13  A    between atoms: C_40  and  C_45
   14  A    between atoms: C_43  and  C_51
   15  A    between atoms: C_51  and  C_54
                            x       y       z     vdW  Elec       q    Type
                         _______ _______ _______ _____ _____    ______ ____

>  <TORSDO>
F 15

$$$$
