=
 OpenBabel10272415113D

 34 38  0  0  1  0  0  0  0  0999 V2000
  192.9770  175.6130  137.9040 C   0  0  0  0  0  0  0  0  0  0  0  0
  193.9090  172.2410  136.3330 C   0  0  0  0  0  2  0  0  0  0  0  0
  191.8270  173.6070  136.2940 C   0  0  0  0  0  3  0  0  0  0  0  0
  193.5380  176.6230  138.6780 O   0  0  0  0  0  1  0  0  0  0  0  0
  190.7120  176.8480  137.6590 C   0  0  2  0  0  3  0  0  0  0  0  0
  189.5460  176.5220  136.7150 C   0  0  0  0  0  3  0  0  0  0  0  0
  191.1140  174.7530  136.6390 C   0  0  0  0  0  0  0  0  0  0  0  0
  191.6620  175.7260  137.4350 C   0  0  0  0  0  0  0  0  0  0  0  0
  189.7480  175.0930  136.1950 C   0  0  0  0  0  3  0  0  0  0  0  0
  195.1290  171.9740  137.2130 C   0  0  0  0  0  2  0  0  0  0  0  0
  195.9490  173.2470  137.4260 C   0  0  2  0  0  3  0  0  0  0  0  0
  193.1320  173.4460  136.7790 C   0  0  0  0  0  0  0  0  0  0  0  0
  195.1090  174.3000  138.1470 C   0  0  0  0  0  2  0  0  0  0  0  0
  193.7250  174.4660  137.5720 C   0  0  0  0  0  0  0  0  0  0  0  0
  190.1880  176.8340  139.0910 C   0  0  0  0  0  2  0  0  0  0  0  0
  189.0490  177.8270  139.2770 C   0  0  0  0  0  2  0  0  0  0  0  0
  186.5270  178.7350  140.2890 O   0  0  0  0  0  0  0  0  0  0  0  0
  189.1770  176.8120  142.8080 C   0  0  0  0  0  2  0  0  0  0  0  0
  185.4590  178.3290  144.3830 C   0  0  0  0  0  0  0  0  0  0  0  0
  185.7900  178.5370  143.0360 C   0  0  0  0  0  3  0  0  0  0  0  0
  187.0050  178.0710  142.5210 C   0  0  0  0  0  0  0  0  0  0  0  0
  188.7080  177.9660  140.6870 N   0  0  0  0  0  0  0  0  0  0  0  0
  187.5730  177.1700  144.7010 C   0  0  0  0  0  3  0  0  0  0  0  0
  187.9050  177.3900  143.3620 C   0  0  0  0  0  0  0  0  0  0  0  0
  186.3610  177.6410  145.2100 C   0  0  0  0  0  3  0  0  0  0  0  0
  189.7350  177.6940  141.6910 C   0  0  0  0  0  2  0  0  0  0  0  0
  187.3730  178.2910  141.1120 C   0  0  0  0  0  0  0  0  0  0  0  0
  183.9750  178.8530  146.1610 O   0  0  0  0  0  0  0  0  0  0  0  0
  184.1760  178.8270  144.9170 C   0  0  0  0  0  0  0  0  0  0  0  0
  183.0970  179.3070  144.0060 C   0  0  0  0  0  1  0  0  0  0  0  0
  196.5160  173.8070  136.1230 C   0  0  0  0  0  2  0  0  0  0  0  0
  197.1960  175.1530  136.3450 C   0  0  0  0  0  2  0  0  0  0  0  0
  196.9240  176.1140  135.1990 C   0  0  0  0  0  2  0  0  0  0  0  0
  195.4430  176.1400  134.8670 C   0  0  0  0  0  1  0  0  0  0  0  0
  1  4  1  0  0  0  0
  2 12  1  0  0  0  0
  2 10  1  0  0  0  0
  3  7  2  0  0  0  0
  3 12  1  0  0  0  0
  5 15  1  1  0  0  0
  6  5  1  0  0  0  0
  7  8  1  0  0  0  0
  8  5  1  0  0  0  0
  8  1  2  0  0  0  0
  9  7  1  0  0  0  0
  9  6  2  0  0  0  0
 10 11  1  0  0  0  0
 11 31  1  6  0  0  0
 11 13  1  0  0  0  0
 12 14  2  0  0  0  0
 14  1  1  0  0  0  0
 14 13  1  0  0  0  0
 15 16  1  0  0  0  0
 16 22  1  0  0  0  0
 17 27  2  0  0  0  0
 18 24  1  0  0  0  0
 19 29  1  0  0  0  0
 19 25  1  0  0  0  0
 20 19  2  0  0  0  0
 21 20  1  0  0  0  0
 21 24  2  0  0  0  0
 22 27  1  0  0  0  0
 22 26  1  0  0  0  0
 23 25  2  0  0  0  0
 24 23  1  0  0  0  0
 26 18  1  0  0  0  0
 27 21  1  0  0  0  0
 29 28  2  0  0  0  0
 30 29  1  0  0  0  0
 31 32  1  0  0  0  0
 33 32  1  0  0  0  0
 34 33  1  0  0  0  0
M  END
>  <MODEL>
1

>  <REMARK>
 VINA RESULT:      -8.6      0.000      0.000
  Name = 
  7 active torsions:
  status: ('A' for Active; 'I' for Inactive)
    1  A    between atoms: C_3  and  C_24
    2  A    between atoms: C_7  and  C_15
    3  A    between atoms: C_8  and  C_17
    4  A    between atoms: C_8  and  N_18
    5  A    between atoms: C_10  and  C_17
    6  A    between atoms: C_24  and  C_25
    7  A    between atoms: C_25  and  C_27
                            x       y       z     vdW  Elec       q    Type
                         _______ _______ _______ _____ _____    ______ ____

>  <TORSDO>
F 7

$$$$
=
 OpenBabel10272415113D

 34 38  0  0  1  0  0  0  0  0999 V2000
  193.1630  175.7530  137.8660 C   0  0  0  0  0  0  0  0  0  0  0  0
  193.8770  172.8680  135.4430 C   0  0  0  0  0  2  0  0  0  0  0  0
  191.7820  174.0390  136.1070 C   0  0  0  0  0  3  0  0  0  0  0  0
  193.8340  176.6220  138.7200 O   0  0  0  0  0  1  0  0  0  0  0  0
  190.8520  176.8250  138.3400 C   0  0  2  0  0  3  0  0  0  0  0  0
  189.5300  176.6100  137.5900 C   0  0  0  0  0  3  0  0  0  0  0  0
  191.1130  175.0270  136.8260 C   0  0  0  0  0  0  0  0  0  0  0  0
  191.7770  175.8540  137.6950 C   0  0  0  0  0  0  0  0  0  0  0  0
  189.6740  175.3410  136.7390 C   0  0  0  0  0  3  0  0  0  0  0  0
  195.2600  172.5220  135.9900 C   0  0  0  0  0  2  0  0  0  0  0  0
  196.0590  173.7850  136.3160 C   0  0  2  0  0  3  0  0  0  0  0  0
  193.1640  173.8870  136.2830 C   0  0  0  0  0  0  0  0  0  0  0  0
  195.3470  174.5940  137.3990 C   0  0  0  0  0  2  0  0  0  0  0  0
  193.8690  174.7630  137.1520 C   0  0  0  0  0  0  0  0  0  0  0  0
  190.6340  176.4710  139.8070 C   0  0  0  0  0  2  0  0  0  0  0  0
  189.5880  177.3720  140.4480 C   0  0  0  0  0  2  0  0  0  0  0  0
  187.6250  177.8950  142.4680 O   0  0  0  0  0  0  0  0  0  0  0  0
  191.4250  176.6970  143.5600 C   0  0  0  0  0  2  0  0  0  0  0  0
  188.5320  177.6490  146.6140 C   0  0  0  0  0  0  0  0  0  0  0  0
  188.2000  177.7990  145.2590 C   0  0  0  0  0  3  0  0  0  0  0  0
  189.1400  177.5170  144.2610 C   0  0  0  0  0  0  0  0  0  0  0  0
  189.8690  177.5660  141.8650 N   0  0  0  0  0  0  0  0  0  0  0  0
  190.7590  176.9180  145.9660 C   0  0  0  0  0  3  0  0  0  0  0  0
  190.4300  177.0820  144.6180 C   0  0  0  0  0  0  0  0  0  0  0  0
  189.8190  177.2050  146.9580 C   0  0  0  0  0  3  0  0  0  0  0  0
  191.2590  177.5680  142.3140 C   0  0  0  0  0  2  0  0  0  0  0  0
  188.8130  177.6800  142.8350 C   0  0  0  0  0  0  0  0  0  0  0  0
  187.7790  177.6800  148.8650 O   0  0  0  0  0  0  0  0  0  0  0  0
  187.5350  177.9510  147.6590 C   0  0  0  0  0  0  0  0  0  0  0  0
  186.2260  178.5790  147.3160 C   0  0  0  0  0  1  0  0  0  0  0  0
  196.3250  174.6490  135.0840 C   0  0  0  0  0  2  0  0  0  0  0  0
  197.0310  175.9470  135.4550 C   0  0  0  0  0  2  0  0  0  0  0  0
  196.3700  177.1510  134.8040 C   0  0  0  0  0  2  0  0  0  0  0  0
  194.9530  176.8140  134.3800 C   0  0  0  0  0  1  0  0  0  0  0  0
  1  4  1  0  0  0  0
  2 10  1  0  0  0  0
  2 12  1  0  0  0  0
  3 12  2  0  0  0  0
  3  7  1  0  0  0  0
  5 15  1  1  0  0  0
  6  5  1  0  0  0  0
  7  8  2  0  0  0  0
  8  1  1  0  0  0  0
  8  5  1  0  0  0  0
  9  7  1  0  0  0  0
  9  6  2  0  0  0  0
 10 11  1  0  0  0  0
 11 31  1  6  0  0  0
 11 13  1  0  0  0  0
 12 14  1  0  0  0  0
 14 13  1  0  0  0  0
 14  1  2  0  0  0  0
 15 16  1  0  0  0  0
 16 22  1  0  0  0  0
 17 27  2  0  0  0  0
 18 24  1  0  0  0  0
 19 25  1  0  0  0  0
 19 29  1  0  0  0  0
 20 19  2  0  0  0  0
 21 24  2  0  0  0  0
 21 20  1  0  0  0  0
 22 26  1  0  0  0  0
 22 27  1  0  0  0  0
 23 25  2  0  0  0  0
 24 23  1  0  0  0  0
 26 18  1  0  0  0  0
 27 21  1  0  0  0  0
 29 28  2  0  0  0  0
 30 29  1  0  0  0  0
 31 32  1  0  0  0  0
 33 32  1  0  0  0  0
 34 33  1  0  0  0  0
M  END
>  <MODEL>
2

>  <REMARK>
 VINA RESULT:      -8.5      1.825      2.256
  Name = 
  7 active torsions:
  status: ('A' for Active; 'I' for Inactive)
    1  A    between atoms: C_3  and  C_24
    2  A    between atoms: C_7  and  C_15
    3  A    between atoms: C_8  and  C_17
    4  A    between atoms: C_8  and  N_18
    5  A    between atoms: C_10  and  C_17
    6  A    between atoms: C_24  and  C_25
    7  A    between atoms: C_25  and  C_27
                            x       y       z     vdW  Elec       q    Type
                         _______ _______ _______ _____ _____    ______ ____

>  <TORSDO>
F 7

$$$$
=
 OpenBabel10272415113D

 34 38  0  0  1  0  0  0  0  0999 V2000
  182.7230  177.6400  140.5240 C   0  0  0  0  0  0  0  0  0  0  0  0
  180.0420  175.4750  138.8430 C   0  0  0  0  0  2  0  0  0  0  0  0
  180.0010  176.9780  140.8280 C   0  0  0  0  0  3  0  0  0  0  0  0
  184.0590  177.9960  140.3720 O   0  0  0  0  0  1  0  0  0  0  0  0
  182.3900  179.1700  142.5880 C   0  0  2  0  0  3  0  0  0  0  0  0
  181.0770  179.5750  143.2730 C   0  0  0  0  0  3  0  0  0  0  0  0
  180.6260  177.8760  141.6900 C   0  0  0  0  0  0  0  0  0  0  0  0
  181.9540  178.1910  141.5570 C   0  0  0  0  0  0  0  0  0  0  0  0
  179.9820  178.6130  142.7940 C   0  0  0  0  0  3  0  0  0  0  0  0
  181.0050  174.5960  138.0470 C   0  0  0  0  0  2  0  0  0  0  0  0
  182.1490  175.4220  137.4560 C   0  0  2  0  0  3  0  0  0  0  0  0
  180.7520  176.3800  139.8070 C   0  0  0  0  0  0  0  0  0  0  0  0
  182.9650  176.0680  138.5750 C   0  0  0  0  0  2  0  0  0  0  0  0
  182.1190  176.7290  139.6350 C   0  0  0  0  0  0  0  0  0  0  0  0
  183.2840  178.5000  143.6250 C   0  0  0  0  0  2  0  0  0  0  0  0
  184.7190  178.9990  143.5300 C   0  0  0  0  0  2  0  0  0  0  0  0
  187.3600  177.9310  143.2220 O   0  0  0  0  0  0  0  0  0  0  0  0
  185.9490  178.8630  146.9910 C   0  0  0  0  0  2  0  0  0  0  0  0
  189.8600  177.0960  146.5580 C   0  0  0  0  0  0  0  0  0  0  0  0
  189.0510  177.3010  145.4300 C   0  0  0  0  0  3  0  0  0  0  0  0
  187.7700  177.8500  145.5620 C   0  0  0  0  0  0  0  0  0  0  0  0
  185.5340  178.4440  144.6040 N   0  0  0  0  0  0  0  0  0  0  0  0
  188.0950  178.0070  147.9620 C   0  0  0  0  0  3  0  0  0  0  0  0
  187.2880  178.1980  146.8380 C   0  0  0  0  0  0  0  0  0  0  0  0
  189.3710  177.4540  147.8240 C   0  0  0  0  0  3  0  0  0  0  0  0
  184.9620  178.3470  145.9440 C   0  0  0  0  0  2  0  0  0  0  0  0
  186.9040  178.0620  144.3910 C   0  0  0  0  0  0  0  0  0  0  0  0
  191.8040  176.5760  145.3000 O   0  0  0  0  0  0  0  0  0  0  0  0
  191.2070  176.5130  146.4080 C   0  0  0  0  0  0  0  0  0  0  0  0
  191.8870  175.8420  147.5530 C   0  0  0  0  0  1  0  0  0  0  0  0
  181.6640  176.4770  136.4640 C   0  0  0  0  0  2  0  0  0  0  0  0
  182.4000  177.7980  136.6500 C   0  0  0  0  0  2  0  0  0  0  0  0
  181.4730  178.9880  136.4650 C   0  0  0  0  0  2  0  0  0  0  0  0
  181.0960  179.5810  137.8090 C   0  0  0  0  0  1  0  0  0  0  0  0
  1  8  1  0  0  0  0
  2 12  1  0  0  0  0
  3  7  1  0  0  0  0
  4  1  1  0  0  0  0
  5  6  1  0  0  0  0
  5 15  1  1  0  0  0
  7  9  1  0  0  0  0
  8  7  2  0  0  0  0
  8  5  1  0  0  0  0
  9  6  2  0  0  0  0
 10  2  1  0  0  0  0
 11 31  1  6  0  0  0
 11 10  1  0  0  0  0
 11 13  1  0  0  0  0
 12  3  2  0  0  0  0
 13 14  1  0  0  0  0
 14 12  1  0  0  0  0
 14  1  2  0  0  0  0
 16 15  1  0  0  0  0
 16 22  1  0  0  0  0
 17 27  2  0  0  0  0
 19 25  1  0  0  0  0
 20 21  1  0  0  0  0
 20 19  2  0  0  0  0
 21 24  2  0  0  0  0
 22 26  1  0  0  0  0
 24 18  1  0  0  0  0
 24 23  1  0  0  0  0
 25 23  2  0  0  0  0
 26 18  1  0  0  0  0
 27 22  1  0  0  0  0
 27 21  1  0  0  0  0
 28 29  2  0  0  0  0
 29 19  1  0  0  0  0
 29 30  1  0  0  0  0
 31 32  1  0  0  0  0
 33 32  1  0  0  0  0
 33 34  1  0  0  0  0
M  END
>  <MODEL>
3

>  <REMARK>
 VINA RESULT:      -8.5      7.521     10.254
  Name = 
  7 active torsions:
  status: ('A' for Active; 'I' for Inactive)
    1  A    between atoms: C_3  and  C_24
    2  A    between atoms: C_7  and  C_15
    3  A    between atoms: C_8  and  C_17
    4  A    between atoms: C_8  and  N_18
    5  A    between atoms: C_10  and  C_17
    6  A    between atoms: C_24  and  C_25
    7  A    between atoms: C_25  and  C_27
                            x       y       z     vdW  Elec       q    Type
                         _______ _______ _______ _____ _____    ______ ____

>  <TORSDO>
F 7

$$$$
=
 OpenBabel10272415113D

 34 38  0  0  1  0  0  0  0  0999 V2000
  191.3250  176.6760  138.3420 C   0  0  0  0  0  0  0  0  0  0  0  0
  191.9610  174.5700  135.2000 C   0  0  0  0  0  2  0  0  0  0  0  0
  190.1330  176.1320  135.8470 C   0  0  0  0  0  3  0  0  0  0  0  0
  191.9130  176.9730  139.5660 O   0  0  0  0  0  1  0  0  0  0  0  0
  189.3280  178.2780  138.7370 C   0  0  2  0  0  3  0  0  0  0  0  0
  188.2740  178.7560  137.7280 C   0  0  0  0  0  3  0  0  0  0  0  0
  189.5560  177.0300  136.7420 C   0  0  0  0  0  0  0  0  0  0  0  0
  190.1220  177.2870  137.9640 C   0  0  0  0  0  0  0  0  0  0  0  0
  188.3340  177.8240  136.5110 C   0  0  0  0  0  3  0  0  0  0  0  0
  192.9890  173.6300  135.8290 C   0  0  0  0  0  2  0  0  0  0  0  0
  193.9500  174.3920  136.7430 C   0  0  2  0  0  3  0  0  0  0  0  0
  191.3160  175.4740  136.2100 C   0  0  0  0  0  0  0  0  0  0  0  0
  193.1810  175.0380  137.8950 C   0  0  0  0  0  2  0  0  0  0  0  0
  191.9340  175.7630  137.4570 C   0  0  0  0  0  0  0  0  0  0  0  0
  188.6080  177.6040  139.9000 C   0  0  0  0  0  2  0  0  0  0  0  0
  188.2280  178.6090  140.9790 C   0  0  0  0  0  2  0  0  0  0  0  0
  190.5720  178.0380  142.5250 O   0  0  0  0  0  0  0  0  0  0  0  0
  186.8570  177.9840  144.3310 C   0  0  0  0  0  2  0  0  0  0  0  0
  190.3590  176.9520  146.6290 C   0  0  0  0  0  0  0  0  0  0  0  0
  190.4760  177.2500  145.2630 C   0  0  0  0  0  3  0  0  0  0  0  0
  189.3420  177.5610  144.5030 C   0  0  0  0  0  0  0  0  0  0  0  0
  188.2370  177.9850  142.2960 N   0  0  0  0  0  0  0  0  0  0  0  0
  187.9550  177.2900  146.4750 C   0  0  0  0  0  3  0  0  0  0  0  0
  188.0740  177.5730  145.1120 C   0  0  0  0  0  0  0  0  0  0  0  0
  189.0890  176.9760  147.2280 C   0  0  0  0  0  3  0  0  0  0  0  0
  186.9710  177.5400  142.8730 C   0  0  0  0  0  2  0  0  0  0  0  0
  189.4450  177.8650  143.0660 C   0  0  0  0  0  0  0  0  0  0  0  0
  191.9200  177.3730  148.3670 O   0  0  0  0  0  0  0  0  0  0  0  0
  191.5590  176.6220  147.4210 C   0  0  0  0  0  0  0  0  0  0  0  0
  192.3670  175.4040  147.1240 C   0  0  0  0  0  1  0  0  0  0  0  0
  194.7750  175.4360  135.9930 C   0  0  0  0  0  2  0  0  0  0  0  0
  196.0480  174.8300  135.4150 C   0  0  0  0  0  2  0  0  0  0  0  0
  196.7300  173.9030  136.4080 C   0  0  0  0  0  2  0  0  0  0  0  0
  197.5150  174.7050  137.4290 C   0  0  0  0  0  1  0  0  0  0  0  0
  1  4  1  0  0  0  0
  2 10  1  0  0  0  0
  2 12  1  0  0  0  0
  3 12  2  0  0  0  0
  3  7  1  0  0  0  0
  5 15  1  1  0  0  0
  6  5  1  0  0  0  0
  7  8  2  0  0  0  0
  8  1  1  0  0  0  0
  8  5  1  0  0  0  0
  9  7  1  0  0  0  0
  9  6  2  0  0  0  0
 10 11  1  0  0  0  0
 11 31  1  6  0  0  0
 11 13  1  0  0  0  0
 12 14  1  0  0  0  0
 14 13  1  0  0  0  0
 14  1  2  0  0  0  0
 15 16  1  0  0  0  0
 16 22  1  0  0  0  0
 17 27  2  0  0  0  0
 18 24  1  0  0  0  0
 19 25  1  0  0  0  0
 19 29  1  0  0  0  0
 20 19  2  0  0  0  0
 21 24  2  0  0  0  0
 21 20  1  0  0  0  0
 22 26  1  0  0  0  0
 22 27  1  0  0  0  0
 23 25  2  0  0  0  0
 24 23  1  0  0  0  0
 26 18  1  0  0  0  0
 27 21  1  0  0  0  0
 29 28  2  0  0  0  0
 30 29  1  0  0  0  0
 32 31  1  0  0  0  0
 32 33  1  0  0  0  0
 33 34  1  0  0  0  0
M  END
>  <MODEL>
4

>  <REMARK>
 VINA RESULT:      -8.3      2.507      3.892
  Name = 
  7 active torsions:
  status: ('A' for Active; 'I' for Inactive)
    1  A    between atoms: C_3  and  C_24
    2  A    between atoms: C_7  and  C_15
    3  A    between atoms: C_8  and  C_17
    4  A    between atoms: C_8  and  N_18
    5  A    between atoms: C_10  and  C_17
    6  A    between atoms: C_24  and  C_25
    7  A    between atoms: C_25  and  C_27
                            x       y       z     vdW  Elec       q    Type
                         _______ _______ _______ _____ _____    ______ ____

>  <TORSDO>
F 7

$$$$
=
 OpenBabel10272415113D

 34 38  0  0  1  0  0  0  0  0999 V2000
  187.1090  177.3490  138.1310 C   0  0  0  0  0  0  0  0  0  0  0  0
  188.5200  174.2830  136.3110 C   0  0  0  0  0  2  0  0  0  0  0  0
  186.2410  175.2800  136.4270 C   0  0  0  0  0  3  0  0  0  0  0  0
  187.5270  178.3910  138.9530 O   0  0  0  0  0  1  0  0  0  0  0  0
  184.6630  178.1990  138.0390 C   0  0  2  0  0  3  0  0  0  0  0  0
  183.5280  177.7400  137.1120 C   0  0  0  0  0  3  0  0  0  0  0  0
  185.3630  176.2670  136.8690 C   0  0  0  0  0  0  0  0  0  0  0  0
  185.7750  177.2680  137.7110 C   0  0  0  0  0  0  0  0  0  0  0  0
  183.9420  176.3990  136.4920 C   0  0  0  0  0  3  0  0  0  0  0  0
  189.8030  174.1710  137.1330 C   0  0  0  0  0  2  0  0  0  0  0  0
  190.4090  175.5490  137.4050 C   0  0  2  0  0  3  0  0  0  0  0  0
  187.5730  175.3110  136.8600 C   0  0  0  0  0  0  0  0  0  0  0  0
  189.4370  176.4010  138.2200 C   0  0  0  0  0  2  0  0  0  0  0  0
  188.0220  176.3660  137.7000 C   0  0  0  0  0  0  0  0  0  0  0  0
  184.2080  178.0110  139.4820 C   0  0  0  0  0  2  0  0  0  0  0  0
  184.7650  179.1000  140.3890 C   0  0  0  0  0  2  0  0  0  0  0  0
  187.0140  178.3450  141.9950 O   0  0  0  0  0  0  0  0  0  0  0  0
  183.4150  179.2590  143.8040 C   0  0  0  0  0  2  0  0  0  0  0  0
  186.7430  177.9580  146.2190 C   0  0  0  0  0  0  0  0  0  0  0  0
  186.8670  178.0160  144.8230 C   0  0  0  0  0  3  0  0  0  0  0  0
  185.7850  178.4130  144.0280 C   0  0  0  0  0  0  0  0  0  0  0  0
  184.7030  178.6930  141.7870 N   0  0  0  0  0  0  0  0  0  0  0  0
  184.4380  178.7090  146.0250 C   0  0  0  0  0  3  0  0  0  0  0  0
  184.5610  178.7530  144.6340 C   0  0  0  0  0  0  0  0  0  0  0  0
  185.5200  178.3080  146.8120 C   0  0  0  0  0  3  0  0  0  0  0  0
  183.3970  178.5840  142.4320 C   0  0  0  0  0  2  0  0  0  0  0  0
  185.8940  178.4700  142.5610 C   0  0  0  0  0  0  0  0  0  0  0  0
  188.8090  176.8360  146.5470 O   0  0  0  0  0  0  0  0  0  0  0  0
  187.8890  177.5350  147.0480 C   0  0  0  0  0  0  0  0  0  0  0  0
  187.9840  177.9220  148.4850 C   0  0  0  0  0  1  0  0  0  0  0  0
  190.8210  176.2750  136.1250 C   0  0  0  0  0  2  0  0  0  0  0  0
  192.2840  176.0200  135.7850 C   0  0  0  0  0  2  0  0  0  0  0  0
  193.1780  176.1660  137.0060 C   0  0  0  0  0  2  0  0  0  0  0  0
  193.9020  174.8640  137.2920 C   0  0  0  0  0  1  0  0  0  0  0  0
  1  4  1  0  0  0  0
  2 12  1  0  0  0  0
  2 10  1  0  0  0  0
  3 12  2  0  0  0  0
  3  7  1  0  0  0  0
  5 15  1  1  0  0  0
  6  5  1  0  0  0  0
  7  8  2  0  0  0  0
  8  5  1  0  0  0  0
  8  1  1  0  0  0  0
  9  7  1  0  0  0  0
  9  6  2  0  0  0  0
 10 11  1  0  0  0  0
 11 31  1  6  0  0  0
 11 13  1  0  0  0  0
 12 14  1  0  0  0  0
 14  1  2  0  0  0  0
 14 13  1  0  0  0  0
 15 16  1  0  0  0  0
 16 22  1  0  0  0  0
 17 27  2  0  0  0  0
 18 24  1  0  0  0  0
 19 25  1  0  0  0  0
 19 29  1  0  0  0  0
 20 19  2  0  0  0  0
 21 24  2  0  0  0  0
 21 20  1  0  0  0  0
 22 26  1  0  0  0  0
 22 27  1  0  0  0  0
 23 25  2  0  0  0  0
 24 23  1  0  0  0  0
 26 18  1  0  0  0  0
 27 21  1  0  0  0  0
 28 29  2  0  0  0  0
 29 30  1  0  0  0  0
 32 31  1  0  0  0  0
 32 33  1  0  0  0  0
 33 34  1  0  0  0  0
M  END
>  <MODEL>
5

>  <REMARK>
 VINA RESULT:      -8.2      2.726      5.147
  Name = 
  7 active torsions:
  status: ('A' for Active; 'I' for Inactive)
    1  A    between atoms: C_3  and  C_24
    2  A    between atoms: C_7  and  C_15
    3  A    between atoms: C_8  and  C_17
    4  A    between atoms: C_8  and  N_18
    5  A    between atoms: C_10  and  C_17
    6  A    between atoms: C_24  and  C_25
    7  A    between atoms: C_25  and  C_27
                            x       y       z     vdW  Elec       q    Type
                         _______ _______ _______ _____ _____    ______ ____

>  <TORSDO>
F 7

$$$$
=
 OpenBabel10272415113D

 34 38  0  0  1  0  0  0  0  0999 V2000
  186.7320  174.7950  137.1560 C   0  0  0  0  0  0  0  0  0  0  0  0
  182.9750  175.4230  136.7120 C   0  0  0  0  0  2  0  0  0  0  0  0
  184.9470  176.9420  136.7820 C   0  0  0  0  0  3  0  0  0  0  0  0
  187.6280  173.7430  137.3170 O   0  0  0  0  0  1  0  0  0  0  0  0
  188.6010  176.5890  137.1440 C   0  0  2  0  0  3  0  0  0  0  0  0
  188.4970  178.0710  136.7590 C   0  0  0  0  0  3  0  0  0  0  0  0
  186.3200  177.1530  136.8790 C   0  0  0  0  0  0  0  0  0  0  0  0
  187.1930  176.1150  137.0770 C   0  0  0  0  0  0  0  0  0  0  0  0
  187.0110  178.4520  136.7550 C   0  0  0  0  0  3  0  0  0  0  0  0
  182.5110  174.0660  137.2380 C   0  0  0  0  0  2  0  0  0  0  0  0
  183.4110  172.9370  136.7320 C   0  0  2  0  0  3  0  0  0  0  0  0
  184.4500  175.6370  136.8950 C   0  0  0  0  0  0  0  0  0  0  0  0
  184.8400  173.1380  137.2330 C   0  0  0  0  0  2  0  0  0  0  0  0
  185.3480  174.5480  137.0610 C   0  0  0  0  0  0  0  0  0  0  0  0
  189.1340  176.5000  138.5690 C   0  0  0  0  0  2  0  0  0  0  0  0
  189.4080  177.8810  139.1490 C   0  0  0  0  0  2  0  0  0  0  0  0
  186.8800  178.8340  140.1020 O   0  0  0  0  0  0  0  0  0  0  0  0
  189.3240  176.6390  142.6080 C   0  0  0  0  0  2  0  0  0  0  0  0
  185.5990  178.2150  144.1090 C   0  0  0  0  0  0  0  0  0  0  0  0
  186.0030  178.4940  142.7940 C   0  0  0  0  0  3  0  0  0  0  0  0
  187.2220  178.0090  142.3050 C   0  0  0  0  0  0  0  0  0  0  0  0
  189.0050  177.9460  140.5480 N   0  0  0  0  0  0  0  0  0  0  0  0
  187.6460  176.9460  144.4450 C   0  0  0  0  0  3  0  0  0  0  0  0
  188.0510  177.2370  143.1400 C   0  0  0  0  0  0  0  0  0  0  0  0
  186.4310  177.4370  144.9280 C   0  0  0  0  0  3  0  0  0  0  0  0
  189.9700  177.5660  141.5780 C   0  0  0  0  0  2  0  0  0  0  0  0
  187.6660  178.3010  140.9330 C   0  0  0  0  0  0  0  0  0  0  0  0
  184.2010  179.0770  145.8230 O   0  0  0  0  0  0  0  0  0  0  0  0
  184.3140  178.7350  144.6150 C   0  0  0  0  0  0  0  0  0  0  0  0
  183.1290  178.8650  143.7190 C   0  0  0  0  0  1  0  0  0  0  0  0
  183.3860  172.8010  135.2110 C   0  0  0  0  0  2  0  0  0  0  0  0
  183.7050  171.3770  134.7730 C   0  0  0  0  0  2  0  0  0  0  0  0
  182.9460  170.3520  135.6000 C   0  0  0  0  0  2  0  0  0  0  0  0
  183.7900  169.1090  135.8100 C   0  0  0  0  0  1  0  0  0  0  0  0
  1  4  1  0  0  0  0
  2 12  1  0  0  0  0
  2 10  1  0  0  0  0
  3  7  1  0  0  0  0
  3 12  2  0  0  0  0
  5 15  1  1  0  0  0
  6  5  1  0  0  0  0
  7  8  2  0  0  0  0
  8  5  1  0  0  0  0
  8  1  1  0  0  0  0
  9  6  2  0  0  0  0
  9  7  1  0  0  0  0
 11 31  1  6  0  0  0
 11 13  1  0  0  0  0
 11 10  1  0  0  0  0
 12 14  1  0  0  0  0
 14  1  2  0  0  0  0
 14 13  1  0  0  0  0
 15 16  1  0  0  0  0
 16 22  1  0  0  0  0
 17 27  2  0  0  0  0
 18 24  1  0  0  0  0
 19 29  1  0  0  0  0
 19 25  1  0  0  0  0
 20 19  2  0  0  0  0
 21 20  1  0  0  0  0
 21 24  2  0  0  0  0
 22 27  1  0  0  0  0
 22 26  1  0  0  0  0
 23 25  2  0  0  0  0
 24 23  1  0  0  0  0
 26 18  1  0  0  0  0
 27 21  1  0  0  0  0
 29 28  2  0  0  0  0
 30 29  1  0  0  0  0
 32 31  1  0  0  0  0
 32 33  1  0  0  0  0
 33 34  1  0  0  0  0
M  END
>  <MODEL>
6

>  <REMARK>
 VINA RESULT:      -8.1      4.317      7.115
  Name = 
  7 active torsions:
  status: ('A' for Active; 'I' for Inactive)
    1  A    between atoms: C_3  and  C_24
    2  A    between atoms: C_7  and  C_15
    3  A    between atoms: C_8  and  C_17
    4  A    between atoms: C_8  and  N_18
    5  A    between atoms: C_10  and  C_17
    6  A    between atoms: C_24  and  C_25
    7  A    between atoms: C_25  and  C_27
                            x       y       z     vdW  Elec       q    Type
                         _______ _______ _______ _____ _____    ______ ____

>  <TORSDO>
F 7

$$$$
=
 OpenBabel10272415113D

 34 38  0  0  1  0  0  0  0  0999 V2000
  188.4300  175.1060  137.2650 C   0  0  0  0  0  0  0  0  0  0  0  0
  184.7060  174.4930  136.5850 C   0  0  0  0  0  2  0  0  0  0  0  0
  186.0580  176.5680  136.8450 C   0  0  0  0  0  3  0  0  0  0  0  0
  189.6130  174.3980  137.4490 O   0  0  0  0  0  1  0  0  0  0  0  0
  189.5990  177.4110  137.4460 C   0  0  2  0  0  3  0  0  0  0  0  0
  189.0320  178.7970  137.1080 C   0  0  0  0  0  3  0  0  0  0  0  0
  187.2780  177.2120  137.0450 C   0  0  0  0  0  0  0  0  0  0  0  0
  188.4330  176.5060  137.2650 C   0  0  0  0  0  0  0  0  0  0  0  0
  187.5060  178.6690  137.0150 C   0  0  0  0  0  3  0  0  0  0  0  0
  184.6890  173.0320  137.0290 C   0  0  0  0  0  2  0  0  0  0  0  0
  185.9360  172.2900  136.5460 C   0  0  2  0  0  3  0  0  0  0  0  0
  186.0150  175.1680  136.8780 C   0  0  0  0  0  0  0  0  0  0  0  0
  187.1910  172.9200  137.1520 C   0  0  0  0  0  2  0  0  0  0  0  0
  187.2120  174.4250  137.0660 C   0  0  0  0  0  0  0  0  0  0  0  0
  190.0540  177.4210  138.9010 C   0  0  0  0  0  2  0  0  0  0  0  0
  188.8700  177.3750  139.8560 C   0  0  0  0  0  2  0  0  0  0  0  0
  187.1600  177.9460  142.0830 O   0  0  0  0  0  0  0  0  0  0  0  0
  191.0020  176.5770  142.7420 C   0  0  0  0  0  2  0  0  0  0  0  0
  188.4970  177.5970  146.1030 C   0  0  0  0  0  0  0  0  0  0  0  0
  188.0280  177.7820  144.7940 C   0  0  0  0  0  3  0  0  0  0  0  0
  188.8420  177.4780  143.6960 C   0  0  0  0  0  0  0  0  0  0  0  0
  189.3100  177.5350  141.2360 N   0  0  0  0  0  0  0  0  0  0  0  0
  190.6090  176.7870  145.2090 C   0  0  0  0  0  3  0  0  0  0  0  0
  190.1440  176.9850  143.9070 C   0  0  0  0  0  0  0  0  0  0  0  0
  189.7940  177.0970  146.3000 C   0  0  0  0  0  3  0  0  0  0  0  0
  190.7390  177.4740  141.5320 C   0  0  0  0  0  2  0  0  0  0  0  0
  188.3700  177.6770  142.3160 C   0  0  0  0  0  0  0  0  0  0  0  0
  186.4350  178.2680  147.0670 O   0  0  0  0  0  0  0  0  0  0  0  0
  187.6320  177.9240  147.2530 C   0  0  0  0  0  0  0  0  0  0  0  0
  188.1500  177.8540  148.6500 C   0  0  0  0  0  1  0  0  0  0  0  0
  186.0390  172.2400  135.0230 C   0  0  0  0  0  2  0  0  0  0  0  0
  185.0140  171.2830  134.4260 C   0  0  0  0  0  2  0  0  0  0  0  0
  185.1170  169.8960  135.0400 C   0  0  0  0  0  2  0  0  0  0  0  0
  183.7920  169.4880  135.6560 C   0  0  0  0  0  1  0  0  0  0  0  0
  1  4  1  0  0  0  0
  2 12  1  0  0  0  0
  2 10  1  0  0  0  0
  3 12  2  0  0  0  0
  3  7  1  0  0  0  0
  5 15  1  1  0  0  0
  6  5  1  0  0  0  0
  7  8  2  0  0  0  0
  8  1  1  0  0  0  0
  8  5  1  0  0  0  0
  9  7  1  0  0  0  0
  9  6  2  0  0  0  0
 11 31  1  6  0  0  0
 11 10  1  0  0  0  0
 11 13  1  0  0  0  0
 12 14  1  0  0  0  0
 14 13  1  0  0  0  0
 14  1  2  0  0  0  0
 15 16  1  0  0  0  0
 16 22  1  0  0  0  0
 17 27  2  0  0  0  0
 18 24  1  0  0  0  0
 19 25  1  0  0  0  0
 19 29  1  0  0  0  0
 20 19  2  0  0  0  0
 21 24  2  0  0  0  0
 21 20  1  0  0  0  0
 22 26  1  0  0  0  0
 22 27  1  0  0  0  0
 23 25  2  0  0  0  0
 24 23  1  0  0  0  0
 26 18  1  0  0  0  0
 27 21  1  0  0  0  0
 28 29  2  0  0  0  0
 29 30  1  0  0  0  0
 32 31  1  0  0  0  0
 32 33  1  0  0  0  0
 33 34  1  0  0  0  0
M  END
>  <MODEL>
7

>  <REMARK>
 VINA RESULT:      -7.9      4.251      6.392
  Name = 
  7 active torsions:
  status: ('A' for Active; 'I' for Inactive)
    1  A    between atoms: C_3  and  C_24
    2  A    between atoms: C_7  and  C_15
    3  A    between atoms: C_8  and  C_17
    4  A    between atoms: C_8  and  N_18
    5  A    between atoms: C_10  and  C_17
    6  A    between atoms: C_24  and  C_25
    7  A    between atoms: C_25  and  C_27
                            x       y       z     vdW  Elec       q    Type
                         _______ _______ _______ _____ _____    ______ ____

>  <TORSDO>
F 7

$$$$
=
 OpenBabel10272415113D

 34 38  0  0  1  0  0  0  0  0999 V2000
  183.2680  179.0570  140.6790 C   0  0  0  0  0  0  0  0  0  0  0  0
  179.9890  178.1600  138.9030 C   0  0  0  0  0  2  0  0  0  0  0  0
  180.6270  178.3030  141.3060 C   0  0  0  0  0  3  0  0  0  0  0  0
  184.5680  179.4540  140.3850 O   0  0  0  0  0  1  0  0  0  0  0  0
  183.6450  179.1730  143.2390 C   0  0  2  0  0  3  0  0  0  0  0  0
  182.5990  179.1110  144.3610 C   0  0  0  0  0  3  0  0  0  0  0  0
  181.5560  178.5770  142.3070 C   0  0  0  0  0  0  0  0  0  0  0  0
  182.8470  178.9290  142.0080 C   0  0  0  0  0  0  0  0  0  0  0  0
  181.2980  178.5640  143.7600 C   0  0  0  0  0  3  0  0  0  0  0  0
  180.6060  177.8870  137.5320 C   0  0  0  0  0  2  0  0  0  0  0  0
  181.6860  178.9160  137.1940 C   0  0  2  0  0  3  0  0  0  0  0  0
  181.0260  178.3850  139.9650 C   0  0  0  0  0  0  0  0  0  0  0  0
  182.8230  178.8400  138.2120 C   0  0  0  0  0  2  0  0  0  0  0  0
  182.3500  178.7870  139.6430 C   0  0  0  0  0  0  0  0  0  0  0  0
  184.6530  178.0510  143.4610 C   0  0  0  0  0  2  0  0  0  0  0  0
  185.2540  178.1090  144.8590 C   0  0  0  0  0  2  0  0  0  0  0  0
  186.9840  177.8480  147.1280 O   0  0  0  0  0  0  0  0  0  0  0  0
  188.4220  177.0200  143.3440 C   0  0  0  0  0  2  0  0  0  0  0  0
  191.0820  176.7910  146.7320 C   0  0  0  0  0  0  0  0  0  0  0  0
  189.7510  177.1980  146.9090 C   0  0  0  0  0  3  0  0  0  0  0  0
  188.8870  177.3000  145.8120 C   0  0  0  0  0  0  0  0  0  0  0  0
  186.7070  178.0110  144.8030 N   0  0  0  0  0  0  0  0  0  0  0  0
  190.6770  176.5760  144.3430 C   0  0  0  0  0  3  0  0  0  0  0  0
  189.3560  176.9950  144.5210 C   0  0  0  0  0  0  0  0  0  0  0  0
  191.5360  176.4810  145.4400 C   0  0  0  0  0  3  0  0  0  0  0  0
  187.3720  178.1200  143.5070 C   0  0  0  0  0  2  0  0  0  0  0  0
  187.4900  177.7370  145.9780 C   0  0  0  0  0  0  0  0  0  0  0  0
  192.0840  177.6480  148.7060 O   0  0  0  0  0  0  0  0  0  0  0  0
  191.9870  176.6890  147.8940 C   0  0  0  0  0  0  0  0  0  0  0  0
  192.8000  175.4620  148.1310 C   0  0  0  0  0  1  0  0  0  0  0  0
  181.1360  180.3390  137.1050 C   0  0  0  0  0  2  0  0  0  0  0  0
  181.9330  181.3000  137.9780 C   0  0  0  0  0  2  0  0  0  0  0  0
  181.1600  182.5800  138.2520 C   0  0  0  0  0  2  0  0  0  0  0  0
  181.7110  183.7220  137.4180 C   0  0  0  0  0  1  0  0  0  0  0  0
  1  8  1  0  0  0  0
  2 12  1  0  0  0  0
  3  7  1  0  0  0  0
  4  1  1  0  0  0  0
  5 15  1  1  0  0  0
  5  6  1  0  0  0  0
  7  9  1  0  0  0  0
  8  7  2  0  0  0  0
  8  5  1  0  0  0  0
  9  6  2  0  0  0  0
 10  2  1  0  0  0  0
 11 31  1  1  0  0  0
 11 10  1  0  0  0  0
 11 13  1  0  0  0  0
 12  3  2  0  0  0  0
 13 14  1  0  0  0  0
 14 12  1  0  0  0  0
 14  1  2  0  0  0  0
 15 16  1  0  0  0  0
 18 26  1  0  0  0  0
 18 24  1  0  0  0  0
 19 20  1  0  0  0  0
 19 29  1  0  0  0  0
 21 27  1  0  0  0  0
 21 20  2  0  0  0  0
 22 16  1  0  0  0  0
 22 27  1  0  0  0  0
 23 24  2  0  0  0  0
 23 25  1  0  0  0  0
 24 21  1  0  0  0  0
 25 19  2  0  0  0  0
 26 22  1  0  0  0  0
 27 17  2  0  0  0  0
 29 30  1  0  0  0  0
 29 28  2  0  0  0  0
 31 32  1  0  0  0  0
 32 33  1  0  0  0  0
 34 33  1  0  0  0  0
M  END
>  <MODEL>
8

>  <REMARK>
 VINA RESULT:      -7.8      6.583     10.704
  Name = 
  7 active torsions:
  status: ('A' for Active; 'I' for Inactive)
    1  A    between atoms: C_3  and  C_24
    2  A    between atoms: C_7  and  C_15
    3  A    between atoms: C_8  and  C_17
    4  A    between atoms: C_8  and  N_18
    5  A    between atoms: C_10  and  C_17
    6  A    between atoms: C_24  and  C_25
    7  A    between atoms: C_25  and  C_27
                            x       y       z     vdW  Elec       q    Type
                         _______ _______ _______ _____ _____    ______ ____

>  <TORSDO>
F 7

$$$$
=
 OpenBabel10272415113D

 34 38  0  0  1  0  0  0  0  0999 V2000
  185.0730  178.6340  142.2910 C   0  0  0  0  0  0  0  0  0  0  0  0
  181.3360  178.8490  141.4580 C   0  0  0  0  0  2  0  0  0  0  0  0
  182.5900  178.8200  143.6090 C   0  0  0  0  0  3  0  0  0  0  0  0
  186.3080  178.5670  141.6540 O   0  0  0  0  0  1  0  0  0  0  0  0
  186.1230  178.6710  144.6590 C   0  0  2  0  0  3  0  0  0  0  0  0
  185.4430  178.9860  145.9990 C   0  0  0  0  0  3  0  0  0  0  0  0
  183.7850  178.7880  144.3230 C   0  0  0  0  0  0  0  0  0  0  0  0
  184.9960  178.6820  143.6880 C   0  0  0  0  0  0  0  0  0  0  0  0
  183.9260  178.8930  145.7880 C   0  0  0  0  0  3  0  0  0  0  0  0
  181.4530  178.3560  140.0160 C   0  0  0  0  0  2  0  0  0  0  0  0
  182.6760  178.9580  139.3220 C   0  0  2  0  0  3  0  0  0  0  0  0
  182.6290  178.7360  142.2110 C   0  0  0  0  0  0  0  0  0  0  0  0
  183.9540  178.5270  140.0400 C   0  0  0  0  0  2  0  0  0  0  0  0
  183.8810  178.6660  141.5400 C   0  0  0  0  0  0  0  0  0  0  0  0
  186.7420  177.2810  144.7510 C   0  0  0  0  0  2  0  0  0  0  0  0
  188.0910  177.3170  145.4570 C   0  0  0  0  0  2  0  0  0  0  0  0
  187.8390  176.2690  142.8020 O   0  0  0  0  0  0  0  0  0  0  0  0
  191.2240  178.3880  143.8600 C   0  0  0  0  0  2  0  0  0  0  0  0
  190.9330  176.6680  139.9140 C   0  0  0  0  0  0  0  0  0  0  0  0
  189.9080  176.4610  140.8500 C   0  0  0  0  0  3  0  0  0  0  0  0
  190.0040  176.9930  142.1410 C   0  0  0  0  0  0  0  0  0  0  0  0
  189.1810  177.1770  144.4990 N   0  0  0  0  0  0  0  0  0  0  0  0
  192.1560  177.9600  141.5730 C   0  0  0  0  0  3  0  0  0  0  0  0
  191.1400  177.7400  142.5060 C   0  0  0  0  0  0  0  0  0  0  0  0
  192.0570  177.4220  140.2880 C   0  0  0  0  0  3  0  0  0  0  0  0
  190.5370  177.5260  144.9180 C   0  0  0  0  0  2  0  0  0  0  0  0
  188.9430  176.7770  143.1390 C   0  0  0  0  0  0  0  0  0  0  0  0
  191.1010  174.8870  138.3540 O   0  0  0  0  0  0  0  0  0  0  0  0
  190.8230  176.0990  138.5570 C   0  0  0  0  0  0  0  0  0  0  0  0
  190.3860  176.9380  137.4040 C   0  0  0  0  0  1  0  0  0  0  0  0
  182.6040  180.4800  139.2160 C   0  0  0  0  0  2  0  0  0  0  0  0
  181.3430  180.9290  138.4880 C   0  0  0  0  0  2  0  0  0  0  0  0
  181.1060  180.1200  137.2230 C   0  0  0  0  0  2  0  0  0  0  0  0
  180.6990  181.0300  136.0800 C   0  0  0  0  0  1  0  0  0  0  0  0
  1  8  1  0  0  0  0
  2 12  1  0  0  0  0
  3  7  1  0  0  0  0
  4  1  1  0  0  0  0
  5 15  1  1  0  0  0
  5  6  1  0  0  0  0
  7  9  1  0  0  0  0
  8  7  2  0  0  0  0
  8  5  1  0  0  0  0
  9  6  2  0  0  0  0
 10  2  1  0  0  0  0
 11 31  1  1  0  0  0
 11 10  1  0  0  0  0
 11 13  1  0  0  0  0
 12  3  2  0  0  0  0
 13 14  1  0  0  0  0
 14 12  1  0  0  0  0
 14  1  2  0  0  0  0
 15 16  1  0  0  0  0
 17 27  2  0  0  0  0
 18 26  1  0  0  0  0
 19 25  2  0  0  0  0
 19 20  1  0  0  0  0
 20 21  2  0  0  0  0
 21 24  1  0  0  0  0
 21 27  1  0  0  0  0
 22 26  1  0  0  0  0
 22 16  1  0  0  0  0
 23 24  2  0  0  0  0
 24 18  1  0  0  0  0
 25 23  1  0  0  0  0
 27 22  1  0  0  0  0
 28 29  2  0  0  0  0
 29 19  1  0  0  0  0
 30 29  1  0  0  0  0
 32 31  1  0  0  0  0
 33 32  1  0  0  0  0
 34 33  1  0  0  0  0
M  END
>  <MODEL>
9

>  <REMARK>
 VINA RESULT:      -7.8      3.559     10.414
  Name = 
  7 active torsions:
  status: ('A' for Active; 'I' for Inactive)
    1  A    between atoms: C_3  and  C_24
    2  A    between atoms: C_7  and  C_15
    3  A    between atoms: C_8  and  C_17
    4  A    between atoms: C_8  and  N_18
    5  A    between atoms: C_10  and  C_17
    6  A    between atoms: C_24  and  C_25
    7  A    between atoms: C_25  and  C_27
                            x       y       z     vdW  Elec       q    Type
                         _______ _______ _______ _____ _____    ______ ____

>  <TORSDO>
F 7

$$$$
