=
 OpenBabel10272400393D

 31 32  0  0  1  0  0  0  0  0999 V2000
  185.1700  178.4120  144.4280 C   0  0  0  0  0  0  0  0  0  0  0  0
  188.1220  176.4170  143.1490 C   0  0  0  0  0  2  0  0  0  0  0  0
  187.0720  177.4880  143.2420 C   0  0  0  0  0  0  0  0  0  0  0  0
  185.0030  179.3650  143.4210 C   0  0  0  0  0  3  0  0  0  0  0  0
  188.6890  177.2730  140.8850 C   0  0  2  0  0  3  0  0  0  0  0  0
  184.3330  178.3960  145.4920 F   0  0  0  0  0  0  0  0  0  0  0  0
  187.8190  178.5250  141.0340 C   0  0  0  0  0  2  0  0  0  0  0  0
  189.2750  176.8070  142.2210 C   0  0  1  0  0  3  0  0  0  0  0  0
  186.2010  177.4720  144.3350 C   0  0  0  0  0  3  0  0  0  0  0  0
  186.8860  178.4350  142.2100 C   0  0  0  0  0  0  0  0  0  0  0  0
  185.8600  179.3780  142.3170 C   0  0  0  0  0  3  0  0  0  0  0  0
  190.0450  177.8140  142.8160 O   0  0  0  0  0  0  0  0  0  0  0  0
  190.8560  177.1500  143.7430 C   0  0  0  0  0  2  0  0  0  0  0  0
  191.0120  177.9940  144.9970 C   0  0  0  0  0  2  0  0  0  0  0  0
  189.7030  178.0850  145.7800 C   0  0  0  0  0  2  0  0  0  0  0  0
  188.7280  176.3190  147.0760 O   0  0  0  0  0  1  0  0  0  0  0  0
  191.0760  176.6700  147.3230 C   0  0  0  0  0  1  0  0  0  0  0  0
  189.7130  177.3100  147.0990 C   0  0  1  0  0  0  0  0  0  0  0  0
  189.4180  178.3030  148.2220 C   0  0  0  0  0  2  0  0  0  0  0  0
  188.0390  178.0910  148.8360 C   0  0  0  0  0  1  0  0  0  0  0  0
  189.7180  177.3720  139.7560 C   0  0  0  0  0  2  0  0  0  0  0  0
  189.1500  177.0630  138.3720 C   0  0  2  0  0  3  0  0  0  0  0  0
  190.0000  176.0000  137.6820 C   0  0  0  0  0  2  0  0  0  0  0  0
  190.8360  175.3640  138.6040 O   0  0  0  0  0  1  0  0  0  0  0  0
  189.0730  178.3270  137.5250 C   0  0  0  0  0  2  0  0  0  0  0  0
  187.7540  178.3930  136.7710 C   0  0  0  0  0  2  0  0  0  0  0  0
  185.4530  176.8890  137.5270 O   0  0  0  0  0  0  0  0  0  0  0  0
  186.7050  178.8540  137.6660 N   0  0  0  0  0  2  0  0  0  0  0  0
  185.5690  178.0550  137.9880 C   0  0  0  0  0  0  0  0  0  0  0  0
  184.7430  179.9760  139.0710 O   0  0  0  0  0  1  0  0  0  0  0  0
  184.5000  178.6210  138.8520 C   0  0  0  0  0  2  0  0  0  0  0  0
  1  6  1  0  0  0  0
  2  3  1  0  0  0  0
  3  9  2  0  0  0  0
  4  1  2  0  0  0  0
  5 21  1  6  0  0  0
  5  7  1  0  0  0  0
  5  8  1  0  0  0  0
  7 10  1  0  0  0  0
  8 12  1  1  0  0  0
  8  2  1  0  0  0  0
  9  1  1  0  0  0  0
 10 11  2  0  0  0  0
 10  3  1  0  0  0  0
 11  4  1  0  0  0  0
 12 13  1  0  0  0  0
 13 14  1  0  0  0  0
 14 15  1  0  0  0  0
 15 18  1  0  0  0  0
 16 18  1  0  0  0  0
 18 17  1  1  0  0  0
 18 19  1  0  0  0  0
 19 20  1  0  0  0  0
 22 25  1  6  0  0  0
 22 21  1  0  0  0  0
 23 22  1  0  0  0  0
 23 24  1  0  0  0  0
 26 25  1  0  0  0  0
 26 28  1  0  0  0  0
 27 29  2  0  0  0  0
 28 29  1  0  0  0  0
 29 31  1  0  0  0  0
 31 30  1  0  0  0  0
M  END
>  <MODEL>
1

>  <REMARK>
 VINA RESULT:      -7.6      0.000      0.000
  Name = 
  13 active torsions:
  status: ('A' for Active; 'I' for Inactive)
    1  A    between atoms: C_3  and  C_9
    2  A    between atoms: O_5  and  C_14
    3  A    between atoms: O_5  and  C_21
    4  A    between atoms: C_6  and  C_7
    5  A    between atoms: C_6  and  N_19
    6  A    between atoms: C_7  and  C_9
    7  A    between atoms: C_9  and  C_23
    8  A    between atoms: C_10  and  C_14
    9  A    between atoms: C_10  and  C_18
   10  A    between atoms: C_11  and  C_24
   11  A    between atoms: C_15  and  C_23
   12  A    between atoms: C_17  and  C_31
   13  A    between atoms: C_18  and  C_31
                            x       y       z     vdW  Elec       q    Type
                         _______ _______ _______ _____ _____    ______ ____

>  <TORSDO>
F 13

$$$$
=
 OpenBabel10272400393D

 31 32  0  0  1  0  0  0  0  0999 V2000
  190.9000  177.1250  147.5440 C   0  0  0  0  0  0  0  0  0  0  0  0
  189.3120  176.3790  144.1890 C   0  0  0  0  0  2  0  0  0  0  0  0
  189.4980  176.9290  145.5760 C   0  0  0  0  0  0  0  0  0  0  0  0
  189.8740  177.8000  148.2100 C   0  0  0  0  0  3  0  0  0  0  0  0
  186.9410  177.1170  144.2940 C   0  0  2  0  0  3  0  0  0  0  0  0
  192.0780  176.8950  148.1700 F   0  0  0  0  0  0  0  0  0  0  0  0
  187.1440  177.9110  145.5880 C   0  0  0  0  0  2  0  0  0  0  0  0
  188.1990  177.0940  143.4210 C   0  0  1  0  0  3  0  0  0  0  0  0
  190.7100  176.6870  146.2300 C   0  0  0  0  0  3  0  0  0  0  0  0
  188.4500  177.5870  146.2580 C   0  0  0  0  0  0  0  0  0  0  0  0
  188.6540  178.0310  147.5670 C   0  0  0  0  0  3  0  0  0  0  0  0
  188.6080  178.3910  143.0870 O   0  0  0  0  0  0  0  0  0  0  0  0
  189.5100  178.2260  142.0300 C   0  0  0  0  0  2  0  0  0  0  0  0
  188.7810  177.7180  140.7980 C   0  0  0  0  0  2  0  0  0  0  0  0
  189.2490  178.4350  139.5320 C   0  0  0  0  0  2  0  0  0  0  0  0
  187.0870  178.4030  138.4960 O   0  0  0  0  0  1  0  0  0  0  0  0
  188.9550  178.8720  137.0850 C   0  0  0  0  0  1  0  0  0  0  0  0
  188.4330  178.0930  138.2850 C   0  0  1  0  0  0  0  0  0  0  0  0
  188.5810  176.5940  138.0310 C   0  0  0  0  0  2  0  0  0  0  0  0
  187.4700  176.0420  137.1460 C   0  0  0  0  0  1  0  0  0  0  0  0
  185.6650  177.4950  143.5370 C   0  0  0  0  0  2  0  0  0  0  0  0
  185.1330  178.8870  143.8750 C   0  0  2  0  0  3  0  0  0  0  0  0
  183.7380  178.7820  144.4840 C   0  0  0  0  0  2  0  0  0  0  0  0
  183.7770  179.0640  145.8530 O   0  0  0  0  0  1  0  0  0  0  0  0
  185.1170  179.7740  142.6370 C   0  0  0  0  0  2  0  0  0  0  0  0
  185.2630  178.9400  141.3730 C   0  0  0  0  0  2  0  0  0  0  0  0
  184.3230  180.2520  139.0230 O   0  0  0  0  0  0  0  0  0  0  0  0
  183.9560  178.7440  140.7670 N   0  0  0  0  0  2  0  0  0  0  0  0
  183.5420  179.4490  139.5990 C   0  0  0  0  0  0  0  0  0  0  0  0
  181.4950  178.3140  139.8630 O   0  0  0  0  0  1  0  0  0  0  0  0
  182.1640  179.2520  139.0770 C   0  0  0  0  0  2  0  0  0  0  0  0
  1  6  1  0  0  0  0
  1  4  1  0  0  0  0
  2  3  1  0  0  0  0
  3  9  1  0  0  0  0
  3 10  2  0  0  0  0
  5 21  1  6  0  0  0
  5  7  1  0  0  0  0
  7 10  1  0  0  0  0
  8 12  1  1  0  0  0
  8  2  1  0  0  0  0
  8  5  1  0  0  0  0
  9  1  2  0  0  0  0
 10 11  1  0  0  0  0
 11  4  2  0  0  0  0
 13 12  1  0  0  0  0
 14 13  1  0  0  0  0
 15 14  1  0  0  0  0
 18 17  1  6  0  0  0
 18 16  1  0  0  0  0
 18 15  1  0  0  0  0
 19 18  1  0  0  0  0
 20 19  1  0  0  0  0
 21 22  1  0  0  0  0
 22 25  1  6  0  0  0
 22 23  1  0  0  0  0
 23 24  1  0  0  0  0
 26 25  1  0  0  0  0
 27 29  2  0  0  0  0
 28 26  1  0  0  0  0
 29 28  1  0  0  0  0
 31 29  1  0  0  0  0
 31 30  1  0  0  0  0
M  END
>  <MODEL>
2

>  <REMARK>
 VINA RESULT:      -7.2      2.415      6.507
  Name = 
  13 active torsions:
  status: ('A' for Active; 'I' for Inactive)
    1  A    between atoms: C_3  and  C_9
    2  A    between atoms: O_5  and  C_14
    3  A    between atoms: O_5  and  C_21
    4  A    between atoms: C_6  and  C_7
    5  A    between atoms: C_6  and  N_19
    6  A    between atoms: C_7  and  C_9
    7  A    between atoms: C_9  and  C_23
    8  A    between atoms: C_10  and  C_14
    9  A    between atoms: C_10  and  C_18
   10  A    between atoms: C_11  and  C_24
   11  A    between atoms: C_15  and  C_23
   12  A    between atoms: C_17  and  C_31
   13  A    between atoms: C_18  and  C_31
                            x       y       z     vdW  Elec       q    Type
                         _______ _______ _______ _____ _____    ______ ____

>  <TORSDO>
F 13

$$$$
=
 OpenBabel10272400393D

 31 32  0  0  1  0  0  0  0  0999 V2000
  187.3920  177.8620  147.2370 C   0  0  0  0  0  0  0  0  0  0  0  0
  186.6980  176.9750  143.6230 C   0  0  0  0  0  2  0  0  0  0  0  0
  186.6070  177.6730  144.9520 C   0  0  0  0  0  0  0  0  0  0  0  0
  186.4150  178.8260  147.4950 C   0  0  0  0  0  3  0  0  0  0  0  0
  184.6480  178.1960  142.9260 C   0  0  2  0  0  3  0  0  0  0  0  0
  188.2500  177.4880  148.2160 F   0  0  0  0  0  0  0  0  0  0  0  0
  184.6590  179.1120  144.1530 C   0  0  0  0  0  2  0  0  0  0  0  0
  186.0580  177.7840  142.4930 C   0  0  1  0  0  3  0  0  0  0  0  0
  187.4850  177.2840  145.9680 C   0  0  0  0  0  3  0  0  0  0  0  0
  185.6000  178.6270  145.2200 C   0  0  0  0  0  0  0  0  0  0  0  0
  185.5240  179.2080  146.4890 C   0  0  0  0  0  3  0  0  0  0  0  0
  186.8470  178.9040  142.2040 O   0  0  0  0  0  0  0  0  0  0  0  0
  187.5280  178.5740  141.0270 C   0  0  0  0  0  2  0  0  0  0  0  0
  189.0290  178.6480  141.2560 C   0  0  0  0  0  2  0  0  0  0  0  0
  189.5840  177.3240  141.7780 C   0  0  0  0  0  2  0  0  0  0  0  0
  191.9450  177.4680  142.1700 O   0  0  0  0  0  1  0  0  0  0  0  0
  190.5340  178.7880  143.5720 C   0  0  0  0  0  1  0  0  0  0  0  0
  190.7020  177.4810  142.8090 C   0  0  1  0  0  0  0  0  0  0  0  0
  190.6100  176.3030  143.7770 C   0  0  0  0  0  2  0  0  0  0  0  0
  191.2480  176.6080  145.1260 C   0  0  0  0  0  1  0  0  0  0  0  0
  183.7730  178.7140  141.7820 C   0  0  0  0  0  2  0  0  0  0  0  0
  183.9190  177.9230  140.4830 C   0  0  2  0  0  3  0  0  0  0  0  0
  183.9410  178.8740  139.2890 C   0  0  0  0  0  2  0  0  0  0  0  0
  184.7190  180.0000  139.5720 O   0  0  0  0  0  1  0  0  0  0  0  0
  182.7970  176.9040  140.3420 C   0  0  0  0  0  2  0  0  0  0  0  0
  182.5330  176.5900  138.8770 C   0  0  0  0  0  2  0  0  0  0  0  0
  184.6200  175.8070  137.1000 O   0  0  0  0  0  0  0  0  0  0  0  0
  182.9260  175.2200  138.5950 N   0  0  0  0  0  2  0  0  0  0  0  0
  183.9690  174.8970  137.6790 C   0  0  0  0  0  0  0  0  0  0  0  0
  185.2910  173.0240  138.2180 O   0  0  0  0  0  1  0  0  0  0  0  0
  184.2670  173.4710  137.3840 C   0  0  0  0  0  2  0  0  0  0  0  0
  1  4  1  0  0  0  0
  1  6  1  0  0  0  0
  2  3  1  0  0  0  0
  3 10  2  0  0  0  0
  3  9  1  0  0  0  0
  5 21  1  6  0  0  0
  5  7  1  0  0  0  0
  7 10  1  0  0  0  0
  8 12  1  1  0  0  0
  8  5  1  0  0  0  0
  8  2  1  0  0  0  0
  9  1  2  0  0  0  0
 10 11  1  0  0  0  0
 11  4  2  0  0  0  0
 13 14  1  0  0  0  0
 13 12  1  0  0  0  0
 14 15  1  0  0  0  0
 15 18  1  0  0  0  0
 16 18  1  0  0  0  0
 18 17  1  1  0  0  0
 18 19  1  0  0  0  0
 19 20  1  0  0  0  0
 22 23  1  6  0  0  0
 22 21  1  0  0  0  0
 23 24  1  0  0  0  0
 25 22  1  0  0  0  0
 26 25  1  0  0  0  0
 27 29  2  0  0  0  0
 28 26  1  0  0  0  0
 29 28  1  0  0  0  0
 31 29  1  0  0  0  0
 31 30  1  0  0  0  0
M  END
>  <MODEL>
3

>  <REMARK>
 VINA RESULT:      -7.0      2.664      4.840
  Name = 
  13 active torsions:
  status: ('A' for Active; 'I' for Inactive)
    1  A    between atoms: C_3  and  C_9
    2  A    between atoms: O_5  and  C_14
    3  A    between atoms: O_5  and  C_21
    4  A    between atoms: C_6  and  C_7
    5  A    between atoms: C_6  and  N_19
    6  A    between atoms: C_7  and  C_9
    7  A    between atoms: C_9  and  C_23
    8  A    between atoms: C_10  and  C_14
    9  A    between atoms: C_10  and  C_18
   10  A    between atoms: C_11  and  C_24
   11  A    between atoms: C_15  and  C_23
   12  A    between atoms: C_17  and  C_31
   13  A    between atoms: C_18  and  C_31
                            x       y       z     vdW  Elec       q    Type
                         _______ _______ _______ _____ _____    ______ ____

>  <TORSDO>
F 13

$$$$
=
 OpenBabel10272400393D

 31 32  0  0  1  0  0  0  0  0999 V2000
  185.1390  178.3340  143.9110 C   0  0  0  0  0  0  0  0  0  0  0  0
  188.2870  176.3920  143.1060 C   0  0  0  0  0  2  0  0  0  0  0  0
  187.2000  177.4260  143.0150 C   0  0  0  0  0  0  0  0  0  0  0  0
  185.0660  179.2290  142.8420 C   0  0  0  0  0  3  0  0  0  0  0  0
  189.1000  177.1560  140.8850 C   0  0  2  0  0  3  0  0  0  0  0  0
  184.1790  178.3390  144.8660 F   0  0  0  0  0  0  0  0  0  0  0  0
  188.1800  178.3790  140.8610 C   0  0  0  0  0  2  0  0  0  0  0  0
  189.5320  176.7790  142.3050 C   0  0  1  0  0  3  0  0  0  0  0  0
  186.2030  177.4310  143.9940 C   0  0  0  0  0  3  0  0  0  0  0  0
  187.1120  178.3130  141.9180 C   0  0  0  0  0  0  0  0  0  0  0  0
  186.0520  179.2200  141.8510 C   0  0  0  0  0  3  0  0  0  0  0  0
  190.1910  177.8410  142.9340 O   0  0  0  0  0  0  0  0  0  0  0  0
  191.2250  177.2470  143.6650 C   0  0  0  0  0  2  0  0  0  0  0  0
  191.3330  177.8920  145.0350 C   0  0  0  0  0  2  0  0  0  0  0  0
  189.9590  178.1020  145.6680 C   0  0  0  0  0  2  0  0  0  0  0  0
  188.6490  176.4320  146.7840 O   0  0  0  0  0  1  0  0  0  0  0  0
  190.9810  176.4930  147.2910 C   0  0  0  0  0  1  0  0  0  0  0  0
  189.7340  177.2970  146.9490 C   0  0  1  0  0  0  0  0  0  0  0  0
  189.4350  178.2880  148.0730 C   0  0  0  0  0  2  0  0  0  0  0  0
  188.0920  178.0190  148.7410 C   0  0  0  0  0  1  0  0  0  0  0  0
  190.2560  177.2380  139.8850 C   0  0  0  0  0  2  0  0  0  0  0  0
  189.9740  176.5430  138.5540 C   0  0  2  0  0  3  0  0  0  0  0  0
  191.1820  175.7130  138.1290 C   0  0  0  0  0  2  0  0  0  0  0  0
  190.8030  174.3930  137.8660 O   0  0  0  0  0  1  0  0  0  0  0  0
  189.6130  177.5600  137.4790 C   0  0  0  0  0  2  0  0  0  0  0  0
  188.2140  177.3040  136.9410 C   0  0  0  0  0  2  0  0  0  0  0  0
  186.7000  175.3980  135.4550 O   0  0  0  0  0  0  0  0  0  0  0  0
  187.7200  176.0370  137.4550 N   0  0  0  0  0  2  0  0  0  0  0  0
  186.9510  175.1370  136.6620 C   0  0  0  0  0  0  0  0  0  0  0  0
  186.1890  172.9400  136.2860 O   0  0  0  0  0  1  0  0  0  0  0  0
  186.4170  173.8940  137.2770 C   0  0  0  0  0  2  0  0  0  0  0  0
  1  9  1  0  0  0  0
  1  6  1  0  0  0  0
  3  2  1  0  0  0  0
  3  9  2  0  0  0  0
  4  1  2  0  0  0  0
  5 21  1  6  0  0  0
  5  8  1  0  0  0  0
  7  5  1  0  0  0  0
  7 10  1  0  0  0  0
  8 12  1  1  0  0  0
  8  2  1  0  0  0  0
 10  3  1  0  0  0  0
 11 10  2  0  0  0  0
 11  4  1  0  0  0  0
 12 13  1  0  0  0  0
 13 14  1  0  0  0  0
 14 15  1  0  0  0  0
 15 18  1  0  0  0  0
 16 18  1  0  0  0  0
 18 17  1  1  0  0  0
 18 19  1  0  0  0  0
 19 20  1  0  0  0  0
 22 25  1  6  0  0  0
 22 21  1  0  0  0  0
 23 22  1  0  0  0  0
 24 23  1  0  0  0  0
 26 28  1  0  0  0  0
 26 25  1  0  0  0  0
 27 29  2  0  0  0  0
 29 31  1  0  0  0  0
 29 28  1  0  0  0  0
 30 31  1  0  0  0  0
M  END
>  <MODEL>
4

>  <REMARK>
 VINA RESULT:      -6.9      1.648      2.021
  Name = 
  13 active torsions:
  status: ('A' for Active; 'I' for Inactive)
    1  A    between atoms: C_3  and  C_9
    2  A    between atoms: O_5  and  C_14
    3  A    between atoms: O_5  and  C_21
    4  A    between atoms: C_6  and  C_7
    5  A    between atoms: C_6  and  N_19
    6  A    between atoms: C_7  and  C_9
    7  A    between atoms: C_9  and  C_23
    8  A    between atoms: C_10  and  C_14
    9  A    between atoms: C_10  and  C_18
   10  A    between atoms: C_11  and  C_24
   11  A    between atoms: C_15  and  C_23
   12  A    between atoms: C_17  and  C_31
   13  A    between atoms: C_18  and  C_31
                            x       y       z     vdW  Elec       q    Type
                         _______ _______ _______ _____ _____    ______ ____

>  <TORSDO>
F 13

$$$$
=
 OpenBabel10272400393D

 31 32  0  0  1  0  0  0  0  0999 V2000
  184.7730  178.4340  143.6430 C   0  0  0  0  0  0  0  0  0  0  0  0
  188.0300  176.5620  143.1730 C   0  0  0  0  0  2  0  0  0  0  0  0
  186.9280  177.5610  142.9560 C   0  0  0  0  0  0  0  0  0  0  0  0
  184.7700  179.2950  142.5430 C   0  0  0  0  0  3  0  0  0  0  0  0
  189.0110  177.2840  141.0070 C   0  0  2  0  0  3  0  0  0  0  0  0
  183.7350  178.4390  144.5120 F   0  0  0  0  0  0  0  0  0  0  0  0
  188.0640  178.4780  140.8640 C   0  0  0  0  0  2  0  0  0  0  0  0
  189.3290  176.9620  142.4700 C   0  0  1  0  0  3  0  0  0  0  0  0
  185.8500  177.5650  143.8460 C   0  0  0  0  0  3  0  0  0  0  0  0
  186.9120  178.4120  141.8280 C   0  0  0  0  0  0  0  0  0  0  0  0
  185.8370  179.2850  141.6410 C   0  0  0  0  0  3  0  0  0  0  0  0
  189.9020  178.0620  143.1180 O   0  0  0  0  0  0  0  0  0  0  0  0
  190.7120  177.5130  144.1180 C   0  0  0  0  0  2  0  0  0  0  0  0
  190.3150  178.0690  145.4750 C   0  0  0  0  0  2  0  0  0  0  0  0
  189.9050  176.9580  146.4400 C   0  0  0  0  0  2  0  0  0  0  0  0
  188.2950  176.2110  148.0510 O   0  0  0  0  0  1  0  0  0  0  0  0
  189.2670  178.3610  148.4130 C   0  0  0  0  0  1  0  0  0  0  0  0
  188.7720  177.3460  147.3910 C   0  0  1  0  0  0  0  0  0  0  0  0
  187.6530  177.9620  146.5530 C   0  0  0  0  0  2  0  0  0  0  0  0
  186.5300  178.5310  147.4110 C   0  0  0  0  0  1  0  0  0  0  0  0
  190.2470  177.3700  140.1070 C   0  0  0  0  0  2  0  0  0  0  0  0
  190.0530  176.7440  138.7270 C   0  0  2  0  0  3  0  0  0  0  0  0
  191.3270  176.0250  138.2930 C   0  0  0  0  0  2  0  0  0  0  0  0
  191.1010  174.6500  138.1800 O   0  0  0  0  0  1  0  0  0  0  0  0
  189.6550  177.8020  137.7050 C   0  0  0  0  0  2  0  0  0  0  0  0
  189.2920  177.1580  136.3760 C   0  0  0  0  0  2  0  0  0  0  0  0
  187.0650  175.5630  137.1650 O   0  0  0  0  0  0  0  0  0  0  0  0
  187.9010  177.4420  136.0620 N   0  0  0  0  0  2  0  0  0  0  0  0
  186.8350  176.5900  136.4730 C   0  0  0  0  0  0  0  0  0  0  0  0
  184.8770  175.7890  135.4370 O   0  0  0  0  0  1  0  0  0  0  0  0
  185.4450  176.9050  136.0520 C   0  0  0  0  0  2  0  0  0  0  0  0
  1  9  1  0  0  0  0
  1  6  1  0  0  0  0
  3  2  1  0  0  0  0
  3  9  2  0  0  0  0
  4  1  2  0  0  0  0
  5 21  1  6  0  0  0
  5  8  1  0  0  0  0
  7  5  1  0  0  0  0
  7 10  1  0  0  0  0
  8 12  1  1  0  0  0
  8  2  1  0  0  0  0
 10  3  1  0  0  0  0
 11 10  2  0  0  0  0
 11  4  1  0  0  0  0
 12 13  1  0  0  0  0
 13 14  1  0  0  0  0
 14 15  1  0  0  0  0
 15 18  1  0  0  0  0
 18 16  1  0  0  0  0
 18 17  1  1  0  0  0
 19 18  1  0  0  0  0
 19 20  1  0  0  0  0
 22 25  1  6  0  0  0
 22 21  1  0  0  0  0
 23 22  1  0  0  0  0
 24 23  1  0  0  0  0
 26 25  1  0  0  0  0
 28 26  1  0  0  0  0
 28 29  1  0  0  0  0
 29 27  2  0  0  0  0
 30 31  1  0  0  0  0
 31 29  1  0  0  0  0
M  END
>  <MODEL>
5

>  <REMARK>
 VINA RESULT:      -6.8      1.549      1.753
  Name = 
  13 active torsions:
  status: ('A' for Active; 'I' for Inactive)
    1  A    between atoms: C_3  and  C_9
    2  A    between atoms: O_5  and  C_14
    3  A    between atoms: O_5  and  C_21
    4  A    between atoms: C_6  and  C_7
    5  A    between atoms: C_6  and  N_19
    6  A    between atoms: C_7  and  C_9
    7  A    between atoms: C_9  and  C_23
    8  A    between atoms: C_10  and  C_14
    9  A    between atoms: C_10  and  C_18
   10  A    between atoms: C_11  and  C_24
   11  A    between atoms: C_15  and  C_23
   12  A    between atoms: C_17  and  C_31
   13  A    between atoms: C_18  and  C_31
                            x       y       z     vdW  Elec       q    Type
                         _______ _______ _______ _____ _____    ______ ____

>  <TORSDO>
F 13

$$$$
=
 OpenBabel10272400393D

 31 32  0  0  1  0  0  0  0  0999 V2000
  191.5160  176.7670  145.9030 C   0  0  0  0  0  0  0  0  0  0  0  0
  189.4580  178.6090  143.3150 C   0  0  0  0  0  2  0  0  0  0  0  0
  190.2970  177.5400  143.9550 C   0  0  0  0  0  0  0  0  0  0  0  0
  191.9740  175.6630  145.1810 C   0  0  0  0  0  3  0  0  0  0  0  0
  189.7290  177.4210  141.1490 C   0  0  2  0  0  3  0  0  0  0  0  0
  191.8790  176.9290  147.1980 F   0  0  0  0  0  0  0  0  0  0  0  0
  190.3670  176.1870  141.7930 C   0  0  0  0  0  2  0  0  0  0  0  0
  188.7190  178.1070  142.0720 C   0  0  1  0  0  3  0  0  0  0  0  0
  190.6820  177.7060  145.2890 C   0  0  0  0  0  3  0  0  0  0  0  0
  190.7830  176.4380  143.2160 C   0  0  0  0  0  0  0  0  0  0  0  0
  191.6060  175.4980  143.8430 C   0  0  0  0  0  3  0  0  0  0  0  0
  187.6980  177.2270  142.4500 O   0  0  0  0  0  0  0  0  0  0  0  0
  186.6540  178.0480  142.8890 C   0  0  0  0  0  2  0  0  0  0  0  0
  186.2480  177.6630  144.3010 C   0  0  0  0  0  2  0  0  0  0  0  0
  185.8330  178.8850  145.1190 C   0  0  0  0  0  2  0  0  0  0  0  0
  185.9870  179.9360  147.2690 O   0  0  0  0  0  1  0  0  0  0  0  0
  184.7830  177.8780  147.1570 C   0  0  0  0  0  1  0  0  0  0  0  0
  185.9580  178.6930  146.6320 C   0  0  1  0  0  0  0  0  0  0  0  0
  187.2640  177.9470  146.8980 C   0  0  0  0  0  2  0  0  0  0  0  0
  187.9070  178.3570  148.2180 C   0  0  0  0  0  1  0  0  0  0  0  0
  189.2060  177.1710  139.7310 C   0  0  0  0  0  2  0  0  0  0  0  0
  190.1050  177.7330  138.6310 C   0  0  2  0  0  3  0  0  0  0  0  0
  189.2550  178.3110  137.5030 C   0  0  0  0  0  2  0  0  0  0  0  0
  188.9830  179.6630  137.7350 O   0  0  0  0  0  1  0  0  0  0  0  0
  191.0470  176.6590  138.1030 C   0  0  0  0  0  2  0  0  0  0  0  0
  192.4230  176.7870  138.7390 C   0  0  0  0  0  2  0  0  0  0  0  0
  193.2880  174.2990  137.6470 O   0  0  0  0  0  0  0  0  0  0  0  0
  193.4470  176.6270  137.7190 N   0  0  0  0  0  2  0  0  0  0  0  0
  193.8450  175.3490  137.2300 C   0  0  0  0  0  0  0  0  0  0  0  0
  195.2550  176.5310  135.7600 O   0  0  0  0  0  1  0  0  0  0  0  0
  194.9500  175.2580  136.2400 C   0  0  0  0  0  2  0  0  0  0  0  0
  1  6  1  0  0  0  0
  2  3  1  0  0  0  0
  3  9  2  0  0  0  0
  4  1  2  0  0  0  0
  5 21  1  6  0  0  0
  5  7  1  0  0  0  0
  5  8  1  0  0  0  0
  7 10  1  0  0  0  0
  8 12  1  1  0  0  0
  8  2  1  0  0  0  0
  9  1  1  0  0  0  0
 10 11  2  0  0  0  0
 10  3  1  0  0  0  0
 11  4  1  0  0  0  0
 12 13  1  0  0  0  0
 13 14  1  0  0  0  0
 14 15  1  0  0  0  0
 15 18  1  0  0  0  0
 18 19  1  0  0  0  0
 18 17  1  1  0  0  0
 18 16  1  0  0  0  0
 19 20  1  0  0  0  0
 22 23  1  6  0  0  0
 22 21  1  0  0  0  0
 23 24  1  0  0  0  0
 25 22  1  0  0  0  0
 25 26  1  0  0  0  0
 28 26  1  0  0  0  0
 29 27  2  0  0  0  0
 29 28  1  0  0  0  0
 30 31  1  0  0  0  0
 31 29  1  0  0  0  0
M  END
>  <MODEL>
6

>  <REMARK>
 VINA RESULT:      -6.7      3.066      5.588
  Name = 
  13 active torsions:
  status: ('A' for Active; 'I' for Inactive)
    1  A    between atoms: C_3  and  C_9
    2  A    between atoms: O_5  and  C_14
    3  A    between atoms: O_5  and  C_21
    4  A    between atoms: C_6  and  C_7
    5  A    between atoms: C_6  and  N_19
    6  A    between atoms: C_7  and  C_9
    7  A    between atoms: C_9  and  C_23
    8  A    between atoms: C_10  and  C_14
    9  A    between atoms: C_10  and  C_18
   10  A    between atoms: C_11  and  C_24
   11  A    between atoms: C_15  and  C_23
   12  A    between atoms: C_17  and  C_31
   13  A    between atoms: C_18  and  C_31
                            x       y       z     vdW  Elec       q    Type
                         _______ _______ _______ _____ _____    ______ ____

>  <TORSDO>
F 13

$$$$
=
 OpenBabel10272400393D

 31 32  0  0  1  0  0  0  0  0999 V2000
  191.5970  176.7450  146.9410 C   0  0  0  0  0  0  0  0  0  0  0  0
  189.6850  178.4670  144.1660 C   0  0  0  0  0  2  0  0  0  0  0  0
  190.4550  177.4130  144.9110 C   0  0  0  0  0  0  0  0  0  0  0  0
  192.0070  175.5610  146.3230 C   0  0  0  0  0  3  0  0  0  0  0  0
  189.9280  177.0890  142.1120 C   0  0  2  0  0  3  0  0  0  0  0  0
  191.9470  176.9950  148.2250 F   0  0  0  0  0  0  0  0  0  0  0  0
  190.4870  175.8830  142.8700 C   0  0  0  0  0  2  0  0  0  0  0  0
  188.9410  177.9020  142.9540 C   0  0  1  0  0  3  0  0  0  0  0  0
  190.8250  177.6710  146.2340 C   0  0  0  0  0  3  0  0  0  0  0  0
  190.8930  176.2290  144.2760 C   0  0  0  0  0  0  0  0  0  0  0  0
  191.6540  175.3040  144.9960 C   0  0  0  0  0  3  0  0  0  0  0  0
  187.8680  177.1110  143.3810 O   0  0  0  0  0  0  0  0  0  0  0  0
  186.7230  177.7870  142.9470 C   0  0  0  0  0  2  0  0  0  0  0  0
  185.7250  177.9070  144.0860 C   0  0  0  0  0  2  0  0  0  0  0  0
  186.0850  179.0530  145.0310 C   0  0  0  0  0  2  0  0  0  0  0  0
  185.9630  179.8890  147.2750 O   0  0  0  0  0  1  0  0  0  0  0  0
  184.5560  178.0380  146.7340 C   0  0  0  0  0  1  0  0  0  0  0  0
  185.9000  178.7200  146.5120 C   0  0  1  0  0  0  0  0  0  0  0  0
  187.0310  177.7780  146.9200 C   0  0  0  0  0  2  0  0  0  0  0  0
  187.7940  178.2810  148.1390 C   0  0  0  0  0  1  0  0  0  0  0  0
  189.4160  176.7490  140.7100 C   0  0  0  0  0  2  0  0  0  0  0  0
  189.4780  177.9170  139.7270 C   0  0  2  0  0  3  0  0  0  0  0  0
  188.0700  178.4230  139.4230 C   0  0  0  0  0  2  0  0  0  0  0  0
  187.9860  178.8800  138.1050 O   0  0  0  0  0  1  0  0  0  0  0  0
  190.1930  177.5080  138.4460 C   0  0  0  0  0  2  0  0  0  0  0  0
  190.7700  176.1070  138.5730 C   0  0  0  0  0  2  0  0  0  0  0  0
  193.5230  176.8370  138.6960 O   0  0  0  0  0  0  0  0  0  0  0  0
  191.7460  175.8850  137.5190 N   0  0  0  0  0  2  0  0  0  0  0  0
  193.1070  176.2930  137.6390 C   0  0  0  0  0  0  0  0  0  0  0  0
  195.1700  175.4170  136.9160 O   0  0  0  0  0  1  0  0  0  0  0  0
  194.0310  176.1000  136.4910 C   0  0  0  0  0  2  0  0  0  0  0  0
  1  6  1  0  0  0  0
  2  3  1  0  0  0  0
  3  9  1  0  0  0  0
  4  1  1  0  0  0  0
  5 21  1  6  0  0  0
  5  7  1  0  0  0  0
  5  8  1  0  0  0  0
  7 10  1  0  0  0  0
  8 12  1  1  0  0  0
  8  2  1  0  0  0  0
  9  1  2  0  0  0  0
 10  3  2  0  0  0  0
 10 11  1  0  0  0  0
 11  4  2  0  0  0  0
 13 12  1  0  0  0  0
 13 14  1  0  0  0  0
 14 15  1  0  0  0  0
 15 18  1  0  0  0  0
 18 17  1  1  0  0  0
 18 19  1  0  0  0  0
 18 16  1  0  0  0  0
 19 20  1  0  0  0  0
 22 25  1  6  0  0  0
 22 21  1  0  0  0  0
 23 22  1  0  0  0  0
 24 23  1  0  0  0  0
 25 26  1  0  0  0  0
 28 29  1  0  0  0  0
 28 26  1  0  0  0  0
 29 27  2  0  0  0  0
 31 30  1  0  0  0  0
 31 29  1  0  0  0  0
M  END
>  <MODEL>
7

>  <REMARK>
 VINA RESULT:      -6.6      2.794      5.549
  Name = 
  13 active torsions:
  status: ('A' for Active; 'I' for Inactive)
    1  A    between atoms: C_3  and  C_9
    2  A    between atoms: O_5  and  C_14
    3  A    between atoms: O_5  and  C_21
    4  A    between atoms: C_6  and  C_7
    5  A    between atoms: C_6  and  N_19
    6  A    between atoms: C_7  and  C_9
    7  A    between atoms: C_9  and  C_23
    8  A    between atoms: C_10  and  C_14
    9  A    between atoms: C_10  and  C_18
   10  A    between atoms: C_11  and  C_24
   11  A    between atoms: C_15  and  C_23
   12  A    between atoms: C_17  and  C_31
   13  A    between atoms: C_18  and  C_31
                            x       y       z     vdW  Elec       q    Type
                         _______ _______ _______ _____ _____    ______ ____

>  <TORSDO>
F 13

$$$$
=
 OpenBabel10272400393D

 31 32  0  0  1  0  0  0  0  0999 V2000
  191.6720  176.1290  145.7900 C   0  0  0  0  0  0  0  0  0  0  0  0
  189.7250  175.9500  142.5480 C   0  0  0  0  0  2  0  0  0  0  0  0
  190.2210  176.4520  143.8750 C   0  0  0  0  0  0  0  0  0  0  0  0
  191.1030  177.2420  146.4120 C   0  0  0  0  0  3  0  0  0  0  0  0
  187.9560  177.6930  142.6320 C   0  0  2  0  0  3  0  0  0  0  0  0
  192.6530  175.4330  146.4120 F   0  0  0  0  0  0  0  0  0  0  0  0
  188.5700  178.3970  143.8450 C   0  0  0  0  0  2  0  0  0  0  0  0
  189.0130  177.0370  141.7400 C   0  0  1  0  0  3  0  0  0  0  0  0
  191.2280  175.7320  144.5250 C   0  0  0  0  0  3  0  0  0  0  0  0
  189.6260  177.5620  144.5160 C   0  0  0  0  0  0  0  0  0  0  0  0
  190.0850  177.9580  145.7750 C   0  0  0  0  0  3  0  0  0  0  0  0
  189.9440  177.9760  141.2820 O   0  0  0  0  0  0  0  0  0  0  0  0
  190.8210  177.2510  140.4680 C   0  0  0  0  0  2  0  0  0  0  0  0
  190.3620  177.3160  139.0210 C   0  0  0  0  0  2  0  0  0  0  0  0
  189.3620  178.4480  138.7990 C   0  0  0  0  0  2  0  0  0  0  0  0
  188.2660  179.5440  136.9690 O   0  0  0  0  0  1  0  0  0  0  0  0
  189.2340  177.4080  136.5250 C   0  0  0  0  0  1  0  0  0  0  0  0
  188.5140  178.2910  137.5350 C   0  0  1  0  0  0  0  0  0  0  0  0
  187.1930  177.6400  137.9410 C   0  0  0  0  0  2  0  0  0  0  0  0
  186.8700  176.4100  137.1020 C   0  0  0  0  0  1  0  0  0  0  0  0
  186.9470  178.5550  141.8690 C   0  0  0  0  0  2  0  0  0  0  0  0
  185.5140  178.4350  142.3850 C   0  0  2  0  0  3  0  0  0  0  0  0
  184.5260  178.5920  141.2320 C   0  0  0  0  0  2  0  0  0  0  0  0
  184.9990  179.5230  140.3030 O   0  0  0  0  0  1  0  0  0  0  0  0
  185.2430  179.4660  143.4730 C   0  0  0  0  0  2  0  0  0  0  0  0
  184.5680  178.8200  144.6730 C   0  0  0  0  0  2  0  0  0  0  0  0
  186.3900  177.0540  145.9730 O   0  0  0  0  0  0  0  0  0  0  0  0
  185.3220  179.1270  145.8780 N   0  0  0  0  0  2  0  0  0  0  0  0
  186.2040  178.1890  146.4880 C   0  0  0  0  0  0  0  0  0  0  0  0
  187.7110  177.4970  148.1600 O   0  0  0  0  0  1  0  0  0  0  0  0
  186.8850  178.5460  147.7600 C   0  0  0  0  0  2  0  0  0  0  0  0
  1  6  1  0  0  0  0
  1  4  1  0  0  0  0
  2  3  1  0  0  0  0
  3 10  2  0  0  0  0
  3  9  1  0  0  0  0
  5 21  1  6  0  0  0
  5  7  1  0  0  0  0
  7 10  1  0  0  0  0
  8 12  1  1  0  0  0
  8  2  1  0  0  0  0
  8  5  1  0  0  0  0
  9  1  2  0  0  0  0
 10 11  1  0  0  0  0
 11  4  2  0  0  0  0
 13 12  1  0  0  0  0
 14 13  1  0  0  0  0
 15 14  1  0  0  0  0
 16 18  1  0  0  0  0
 18 17  1  6  0  0  0
 18 19  1  0  0  0  0
 18 15  1  0  0  0  0
 20 19  1  0  0  0  0
 21 22  1  0  0  0  0
 22 23  1  6  0  0  0
 22 25  1  0  0  0  0
 24 23  1  0  0  0  0
 25 26  1  0  0  0  0
 26 28  1  0  0  0  0
 27 29  2  0  0  0  0
 28 29  1  0  0  0  0
 29 31  1  0  0  0  0
 31 30  1  0  0  0  0
M  END
>  <MODEL>
8

>  <REMARK>
 VINA RESULT:      -6.6      2.722      7.247
  Name = 
  13 active torsions:
  status: ('A' for Active; 'I' for Inactive)
    1  A    between atoms: C_3  and  C_9
    2  A    between atoms: O_5  and  C_14
    3  A    between atoms: O_5  and  C_21
    4  A    between atoms: C_6  and  C_7
    5  A    between atoms: C_6  and  N_19
    6  A    between atoms: C_7  and  C_9
    7  A    between atoms: C_9  and  C_23
    8  A    between atoms: C_10  and  C_14
    9  A    between atoms: C_10  and  C_18
   10  A    between atoms: C_11  and  C_24
   11  A    between atoms: C_15  and  C_23
   12  A    between atoms: C_17  and  C_31
   13  A    between atoms: C_18  and  C_31
                            x       y       z     vdW  Elec       q    Type
                         _______ _______ _______ _____ _____    ______ ____

>  <TORSDO>
F 13

$$$$
=
 OpenBabel10272400393D

 31 32  0  0  1  0  0  0  0  0999 V2000
  185.2660  178.2210  145.3620 C   0  0  0  0  0  0  0  0  0  0  0  0
  188.1730  176.4560  143.6980 C   0  0  0  0  0  2  0  0  0  0  0  0
  187.0550  177.4340  143.9270 C   0  0  0  0  0  0  0  0  0  0  0  0
  184.8730  179.1290  144.3760 C   0  0  0  0  0  3  0  0  0  0  0  0
  188.3320  177.2960  141.3650 C   0  0  2  0  0  3  0  0  0  0  0  0
  184.5950  178.1630  146.5360 F   0  0  0  0  0  0  0  0  0  0  0  0
  187.3840  178.4710  141.6200 C   0  0  0  0  0  2  0  0  0  0  0  0
  189.1420  176.9190  142.6080 C   0  0  1  0  0  3  0  0  0  0  0  0
  186.3540  177.3720  145.1350 C   0  0  0  0  0  3  0  0  0  0  0  0
  186.6400  178.3330  142.9190 C   0  0  0  0  0  0  0  0  0  0  0  0
  185.5590  179.1860  143.1600 C   0  0  0  0  0  3  0  0  0  0  0  0
  189.8950  178.0030  143.0720 O   0  0  0  0  0  0  0  0  0  0  0  0
  191.2090  177.5290  143.1430 C   0  0  0  0  0  2  0  0  0  0  0  0
  191.4230  176.7790  144.4460 C   0  0  0  0  0  2  0  0  0  0  0  0
  191.1870  177.6780  145.6580 C   0  0  0  0  0  2  0  0  0  0  0  0
  191.4430  177.6990  148.0420 O   0  0  0  0  0  1  0  0  0  0  0  0
  189.5320  176.5640  147.1700 C   0  0  0  0  0  1  0  0  0  0  0  0
  191.0000  176.9170  146.9710 C   0  0  1  0  0  0  0  0  0  0  0  0
  191.8320  175.6390  146.8890 C   0  0  0  0  0  2  0  0  0  0  0  0
  192.7100  175.4380  148.1180 C   0  0  0  0  0  1  0  0  0  0  0  0
  189.1770  177.4530  140.0970 C   0  0  0  0  0  2  0  0  0  0  0  0
  188.5250  178.3220  139.0230 C   0  0  2  0  0  3  0  0  0  0  0  0
  187.1360  177.7860  138.6860 C   0  0  0  0  0  2  0  0  0  0  0  0
  186.7770  178.1390  137.3810 O   0  0  0  0  0  1  0  0  0  0  0  0
  189.3970  178.3850  137.7760 C   0  0  0  0  0  2  0  0  0  0  0  0
  189.8550  176.9940  137.3670 C   0  0  0  0  0  2  0  0  0  0  0  0
  191.3170  174.6590  138.1030 O   0  0  0  0  0  0  0  0  0  0  0  0
  191.3020  176.9070  137.4730 N   0  0  0  0  0  2  0  0  0  0  0  0
  191.9700  175.7100  137.8660 C   0  0  0  0  0  0  0  0  0  0  0  0
  194.0040  176.6880  137.1930 O   0  0  0  0  0  1  0  0  0  0  0  0
  193.4480  175.7170  138.0240 C   0  0  0  0  0  2  0  0  0  0  0  0
  1  6  1  0  0  0  0
  2  3  1  0  0  0  0
  3  9  2  0  0  0  0
  4  1  2  0  0  0  0
  5 21  1  6  0  0  0
  5  7  1  0  0  0  0
  5  8  1  0  0  0  0
  7 10  1  0  0  0  0
  8 12  1  1  0  0  0
  8  2  1  0  0  0  0
  9  1  1  0  0  0  0
 10 11  2  0  0  0  0
 10  3  1  0  0  0  0
 11  4  1  0  0  0  0
 12 13  1  0  0  0  0
 13 14  1  0  0  0  0
 14 15  1  0  0  0  0
 15 18  1  0  0  0  0
 18 17  1  1  0  0  0
 18 16  1  0  0  0  0
 19 18  1  0  0  0  0
 19 20  1  0  0  0  0
 22 25  1  6  0  0  0
 22 21  1  0  0  0  0
 23 22  1  0  0  0  0
 24 23  1  0  0  0  0
 26 28  1  0  0  0  0
 26 25  1  0  0  0  0
 28 29  1  0  0  0  0
 29 31  1  0  0  0  0
 29 27  2  0  0  0  0
 30 31  1  0  0  0  0
M  END
>  <MODEL>
9

>  <REMARK>
 VINA RESULT:      -6.6      1.726      3.676
  Name = 
  13 active torsions:
  status: ('A' for Active; 'I' for Inactive)
    1  A    between atoms: C_3  and  C_9
    2  A    between atoms: O_5  and  C_14
    3  A    between atoms: O_5  and  C_21
    4  A    between atoms: C_6  and  C_7
    5  A    between atoms: C_6  and  N_19
    6  A    between atoms: C_7  and  C_9
    7  A    between atoms: C_9  and  C_23
    8  A    between atoms: C_10  and  C_14
    9  A    between atoms: C_10  and  C_18
   10  A    between atoms: C_11  and  C_24
   11  A    between atoms: C_15  and  C_23
   12  A    between atoms: C_17  and  C_31
   13  A    between atoms: C_18  and  C_31
                            x       y       z     vdW  Elec       q    Type
                         _______ _______ _______ _____ _____    ______ ____

>  <TORSDO>
F 13

$$$$
