=
 OpenBabel10272414333D

 43 49  0  0  1  0  0  0  0  0999 V2000
  191.8420  176.2990  147.1170 C   0  0  1  0  0  3  0  0  0  0  0  0
  189.2630  177.6720  143.1420 C   0  0  1  0  0  3  0  0  0  0  0  0
  186.3550  177.5790  143.6290 C   0  0  2  0  0  3  0  0  0  0  0  0
  190.9780  176.2520  144.8680 C   0  0  0  0  0  0  0  0  0  0  0  0
  190.9690  177.5310  147.4400 C   0  0  0  0  0  2  0  0  0  0  0  0
  191.2550  175.1130  147.7180 N   0  0  0  0  0  1  0  0  0  0  0  0
  189.6490  176.6830  145.4440 C   0  0  1  0  0  3  0  0  0  0  0  0
  191.9850  176.1020  145.6710 N   0  0  0  0  0  0  0  0  0  0  0  0
  189.9100  177.8720  146.3680 C   0  0  0  0  0  2  0  0  0  0  0  0
  187.3500  177.6450  144.7850 C   0  0  0  0  0  2  0  0  0  0  0  0
  188.6260  176.9480  144.3310 C   0  0  1  0  0  3  0  0  0  0  0  0
  190.3910  176.8280  142.6220 C   0  0  0  0  0  3  0  0  0  0  0  0
  188.2600  178.0490  142.0690 C   0  0  0  0  0  0  0  0  0  0  0  0
  186.9400  178.0950  142.3370 C   0  0  0  0  0  3  0  0  0  0  0  0
  191.1850  176.2110  143.4470 N   0  0  0  0  0  0  0  0  0  0  0  0
  185.0770  178.2630  143.9800 C   0  0  0  0  0  0  0  0  0  0  0  0
  183.9900  178.2090  143.0580 N   0  0  0  0  0  2  0  0  0  0  0  0
  184.9470  178.8460  145.0920 O   0  0  0  0  0  0  0  0  0  0  0  0
  182.4100  178.9220  143.4070 S   0  0  0  0  0  0  0  0  0  0  0  0
  180.5730  178.5540  141.3920 C   0  0  0  0  0  2  0  0  0  0  0  0
  183.0160  178.3380  140.8100 C   0  0  0  0  0  2  0  0  0  0  0  0
  181.8230  179.2590  138.5430 C   0  0  2  0  0  3  0  0  0  0  0  0
  181.9830  179.0880  141.6470 C   0  0  2  0  0  3  0  0  0  0  0  0
  180.1530  178.7180  139.9380 C   0  0  0  0  0  2  0  0  0  0  0  0
  182.9850  178.5810  139.2840 C   0  0  1  0  0  0  0  0  0  0  0  0
  183.1350  180.0050  138.8060 C   0  0  0  0  0  2  0  0  0  0  0  0
  180.8290  179.8040  139.3720 O   0  0  0  0  0  0  0  0  0  0  0  0
  183.6810  177.6400  138.4800 O   0  0  0  0  0  0  0  0  0  0  0  0
  183.1800  176.3600  138.2610 C   0  0  0  0  0  0  0  0  0  0  0  0
  182.2040  175.4970  137.7220 N   0  0  0  0  0  0  0  0  0  0  0  0
  183.2820  175.0090  138.4020 C   0  0  1  0  0  3  0  0  0  0  0  0
  184.7280  175.2050  136.4780 N   0  0  0  0  0  2  0  0  0  0  0  0
  185.0140  173.1890  137.7430 C   0  0  0  0  0  1  0  0  0  0  0  0
  184.3090  174.4740  137.4450 C   0  0  0  0  0  0  0  0  0  0  0  0
  188.7430  178.6510  140.7870 C   0  0  0  0  0  2  0  0  0  0  0  0
  189.9840  176.7760  137.7090 C   0  0  0  0  0  2  0  0  0  0  0  0
  189.4050  177.8200  136.7440 C   0  0  2  0  0  3  0  0  0  0  0  0
  187.6730  178.1230  138.5820 C   0  0  0  0  0  2  0  0  0  0  0  0
  190.0520  177.3150  139.1330 C   0  0  0  0  0  2  0  0  0  0  0  0
  188.6490  177.6340  139.6630 C   0  0  1  0  0  3  0  0  0  0  0  0
  188.4050  178.7810  137.4100 C   0  0  0  0  0  2  0  0  0  0  0  0
  188.1850  175.9060  136.0000 O   0  0  0  0  0  1  0  0  0  0  0  0
  188.7580  177.1050  135.5710 C   0  0  0  0  0  2  0  0  0  0  0  0
  1  5  1  0  0  0  0
  1  6  1  6  0  0  0
  2 12  1  6  0  0  0
  2 11  1  0  0  0  0
  3 16  1  1  0  0  0
  3 10  1  0  0  0  0
  4  7  1  0  0  0  0
  4  8  2  0  0  0  0
  7  9  1  6  0  0  0
  8  1  1  0  0  0  0
  9  5  1  0  0  0  0
 11 10  1  1  0  0  0
 11  7  1  0  0  0  0
 12 15  2  0  0  0  0
 13 14  2  0  0  0  0
 13  2  1  0  0  0  0
 14  3  1  0  0  0  0
 15  4  1  0  0  0  0
 16 18  2  0  0  0  0
 17 19  1  0  0  0  0
 17 16  1  0  0  0  0
 20 23  1  0  0  0  0
 21 23  1  0  0  0  0
 22 26  1  1  0  0  0
 22 25  1  0  0  0  0
 22 27  1  0  0  0  0
 23 19  1  1  0  0  0
 24 20  1  0  0  0  0
 25 28  1  6  0  0  0
 25 21  1  0  0  0  0
 26 25  1  0  0  0  0
 27 24  1  0  0  0  0
 29 31  1  0  0  0  0
 29 28  1  0  0  0  0
 30 29  2  0  0  0  0
 30 31  1  0  0  0  0
 31 34  1  6  0  0  0
 32 34  2  0  0  0  0
 34 33  1  0  0  0  0
 35 13  1  0  0  0  0
 36 39  1  0  0  0  0
 37 43  1  6  0  0  0
 37 41  1  0  0  0  0
 37 36  1  0  0  0  0
 38 40  1  0  0  0  0
 39 40  1  0  0  0  0
 40 35  1  1  0  0  0
 41 38  1  0  0  0  0
 43 42  1  0  0  0  0
M  END
>  <MODEL>
1

>  <REMARK>
 VINA RESULT:      -8.4      0.000      0.000
  Name = 
  9 active torsions:
  status: ('A' for Active; 'I' for Inactive)
    1  A    between atoms: C_1  and  C_34
    2  A    between atoms: C_1  and  C_35
    3  A    between atoms: C_2  and  C_13
    4  A    between atoms: N_6  and  S_17
    5  A    between atoms: C_11  and  O_14
    6  A    between atoms: C_12  and  S_17
    7  A    between atoms: O_14  and  C_22
    8  A    between atoms: C_19  and  C_37
    9  A    between atoms: C_31  and  C_40
                            x       y       z     vdW  Elec       q    Type
                         _______ _______ _______ _____ _____    ______ ____

>  <TORSDO>
F 9

$$$$
=
 OpenBabel10272414333D

 43 49  0  0  1  0  0  0  0  0999 V2000
  185.1020  178.5980  146.6110 C   0  0  1  0  0  3  0  0  0  0  0  0
  183.2010  178.2920  142.0690 C   0  0  1  0  0  3  0  0  0  0  0  0
  185.1530  179.0800  140.0020 C   0  0  2  0  0  3  0  0  0  0  0  0
  183.6590  179.0670  144.7380 C   0  0  0  0  0  0  0  0  0  0  0  0
  185.9150  177.6060  145.7510 C   0  0  0  0  0  2  0  0  0  0  0  0
  185.8480  179.8360  146.7660 N   0  0  0  0  0  1  0  0  0  0  0  0
  184.8790  178.9390  143.8550 C   0  0  1  0  0  3  0  0  0  0  0  0
  183.7920  178.8810  146.0150 N   0  0  0  0  0  0  0  0  0  0  0  0
  185.5940  177.6450  144.2410 C   0  0  0  0  0  2  0  0  0  0  0  0
  185.6050  178.6580  141.3980 C   0  0  0  0  0  2  0  0  0  0  0  0
  184.4990  179.0440  142.3720 C   0  0  1  0  0  3  0  0  0  0  0  0
  182.1100  178.8640  142.9270 C   0  0  0  0  0  3  0  0  0  0  0  0
  182.8510  178.2810  140.5930 C   0  0  0  0  0  0  0  0  0  0  0  0
  183.7830  178.5490  139.6560 C   0  0  0  0  0  3  0  0  0  0  0  0
  182.3460  179.1810  144.1660 N   0  0  0  0  0  0  0  0  0  0  0  0
  186.1720  178.7150  138.9750 C   0  0  0  0  0  0  0  0  0  0  0  0
  187.4840  178.3530  139.4030 N   0  0  0  0  0  2  0  0  0  0  0  0
  185.8670  178.6870  137.7510 O   0  0  0  0  0  0  0  0  0  0  0  0
  188.7430  177.8330  138.2760 S   0  0  0  0  0  0  0  0  0  0  0  0
  191.1630  176.8280  139.1140 C   0  0  0  0  0  2  0  0  0  0  0  0
  189.3560  177.1330  140.8430 C   0  0  0  0  0  2  0  0  0  0  0  0
  191.6950  177.4980  142.1870 C   0  0  2  0  0  3  0  0  0  0  0  0
  190.0010  177.7040  139.5830 C   0  0  2  0  0  3  0  0  0  0  0  0
  192.2660  176.7310  140.1580 C   0  0  0  0  0  2  0  0  0  0  0  0
  190.1890  177.1960  142.1420 C   0  0  1  0  0  0  0  0  0  0  0  0
  190.6650  178.5560  142.5950 C   0  0  0  0  0  2  0  0  0  0  0  0
  192.2590  177.8790  140.9580 O   0  0  0  0  0  0  0  0  0  0  0  0
  189.7590  176.3660  143.2110 O   0  0  0  0  0  0  0  0  0  0  0  0
  189.7320  176.8280  144.5240 C   0  0  0  0  0  0  0  0  0  0  0  0
  189.1020  176.9210  145.7820 N   0  0  0  0  0  0  0  0  0  0  0  0
  190.3070  177.5190  145.5470 C   0  0  1  0  0  3  0  0  0  0  0  0
  191.7350  176.8610  147.3800 N   0  0  0  0  0  2  0  0  0  0  0  0
  192.0110  175.5660  145.3820 C   0  0  0  0  0  1  0  0  0  0  0  0
  191.4210  176.7090  146.1450 C   0  0  0  0  0  0  0  0  0  0  0  0
  181.5490  177.6940  140.1480 C   0  0  0  0  0  2  0  0  0  0  0  0
  182.6550  174.7640  137.9750 C   0  0  0  0  0  2  0  0  0  0  0  0
  181.3240  174.7300  137.2100 C   0  0  2  0  0  3  0  0  0  0  0  0
  180.3800  175.6050  139.4030 C   0  0  0  0  0  2  0  0  0  0  0  0
  182.8210  176.0730  138.7390 C   0  0  0  0  0  2  0  0  0  0  0  0
  181.7270  176.2270  139.8030 C   0  0  1  0  0  3  0  0  0  0  0  0
  180.2090  175.5480  137.8830 C   0  0  0  0  0  2  0  0  0  0  0  0
  181.8110  172.6110  136.2210 O   0  0  0  0  0  1  0  0  0  0  0  0
  180.8940  173.2860  137.0290 C   0  0  0  0  0  2  0  0  0  0  0  0
  1  6  1  6  0  0  0
  2 11  1  0  0  0  0
  2 12  1  1  0  0  0
  3 16  1  6  0  0  0
  3 10  1  0  0  0  0
  4  8  2  0  0  0  0
  5  1  1  0  0  0  0
  7  9  1  6  0  0  0
  7  4  1  0  0  0  0
  8  1  1  0  0  0  0
  9  5  1  0  0  0  0
 11 10  1  6  0  0  0
 11  7  1  0  0  0  0
 12 15  2  0  0  0  0
 13  2  1  0  0  0  0
 14  3  1  0  0  0  0
 14 13  2  0  0  0  0
 15  4  1  0  0  0  0
 16 17  1  0  0  0  0
 18 16  2  0  0  0  0
 19 17  1  0  0  0  0
 20 23  1  0  0  0  0
 20 24  1  0  0  0  0
 21 25  1  0  0  0  0
 22 26  1  1  0  0  0
 23 19  1  6  0  0  0
 23 21  1  0  0  0  0
 24 27  1  0  0  0  0
 25 22  1  0  0  0  0
 25 26  1  0  0  0  0
 25 28  1  1  0  0  0
 27 22  1  0  0  0  0
 28 29  1  0  0  0  0
 29 31  1  0  0  0  0
 29 30  2  0  0  0  0
 31 30  1  0  0  0  0
 31 34  1  1  0  0  0
 33 34  1  0  0  0  0
 34 32  2  0  0  0  0
 35 13  1  0  0  0  0
 36 39  1  0  0  0  0
 37 43  1  1  0  0  0
 37 41  1  0  0  0  0
 37 36  1  0  0  0  0
 38 40  1  0  0  0  0
 39 40  1  0  0  0  0
 40 35  1  6  0  0  0
 41 38  1  0  0  0  0
 42 43  1  0  0  0  0
M  END
>  <MODEL>
2

>  <REMARK>
 VINA RESULT:      -7.9      2.877      8.223
  Name = 
  9 active torsions:
  status: ('A' for Active; 'I' for Inactive)
    1  A    between atoms: C_1  and  C_34
    2  A    between atoms: C_1  and  C_35
    3  A    between atoms: C_2  and  C_13
    4  A    between atoms: N_6  and  S_17
    5  A    between atoms: C_11  and  O_14
    6  A    between atoms: C_12  and  S_17
    7  A    between atoms: O_14  and  C_22
    8  A    between atoms: C_19  and  C_37
    9  A    between atoms: C_31  and  C_40
                            x       y       z     vdW  Elec       q    Type
                         _______ _______ _______ _____ _____    ______ ____

>  <TORSDO>
F 9

$$$$
=
 OpenBabel10272414333D

 43 49  0  0  1  0  0  0  0  0999 V2000
  187.2330  177.5810  146.0850 C   0  0  1  0  0  3  0  0  0  0  0  0
  183.7380  178.4880  142.7230 C   0  0  1  0  0  3  0  0  0  0  0  0
  184.8890  179.1590  140.0910 C   0  0  2  0  0  3  0  0  0  0  0  0
  185.3730  178.6740  145.0100 C   0  0  0  0  0  0  0  0  0  0  0  0
  187.3520  176.5940  144.9040 C   0  0  0  0  0  2  0  0  0  0  0  0
  188.2900  178.5750  145.9990 N   0  0  0  0  0  1  0  0  0  0  0  0
  186.0780  178.4280  143.6960 C   0  0  1  0  0  3  0  0  0  0  0  0
  185.9270  178.2480  146.1030 N   0  0  0  0  0  0  0  0  0  0  0  0
  186.5030  176.9600  143.6670 C   0  0  0  0  0  2  0  0  0  0  0  0
  185.7040  178.4150  141.1450 C   0  0  0  0  0  2  0  0  0  0  0  0
  185.2060  178.8670  142.5120 C   0  0  1  0  0  3  0  0  0  0  0  0
  183.2590  179.1350  143.9910 C   0  0  0  0  0  3  0  0  0  0  0  0
  182.8630  178.8080  141.5260 C   0  0  0  0  0  0  0  0  0  0  0  0
  183.4010  179.0160  140.3080 C   0  0  0  0  0  3  0  0  0  0  0  0
  184.0270  179.1750  145.0400 N   0  0  0  0  0  0  0  0  0  0  0  0
  185.2960  178.7550  138.7140 C   0  0  0  0  0  0  0  0  0  0  0  0
  186.6860  178.7030  138.3930 N   0  0  0  0  0  2  0  0  0  0  0  0
  184.4280  178.4270  137.8590 O   0  0  0  0  0  0  0  0  0  0  0  0
  187.2790  178.1670  136.8160 S   0  0  0  0  0  0  0  0  0  0  0  0
  188.7840  175.8740  137.0210 C   0  0  0  0  0  2  0  0  0  0  0  0
  188.6100  177.3510  139.0550 C   0  0  0  0  0  2  0  0  0  0  0  0
  191.0590  176.1760  139.2370 C   0  0  2  0  0  3  0  0  0  0  0  0
  188.7150  177.3130  137.5330 C   0  0  2  0  0  3  0  0  0  0  0  0
  190.0010  175.1330  137.5560 C   0  0  0  0  0  2  0  0  0  0  0  0
  189.8620  176.9180  139.8500 C   0  0  1  0  0  0  0  0  0  0  0  0
  191.1460  177.6650  139.5830 C   0  0  0  0  0  2  0  0  0  0  0  0
  191.0220  176.0470  137.8390 O   0  0  0  0  0  0  0  0  0  0  0  0
  189.6640  176.6110  141.2230 O   0  0  0  0  0  0  0  0  0  0  0  0
  190.2040  177.4060  142.2290 C   0  0  0  0  0  0  0  0  0  0  0  0
  190.0770  178.4350  143.1860 N   0  0  0  0  0  0  0  0  0  0  0  0
  191.2510  177.7550  143.0290 C   0  0  1  0  0  3  0  0  0  0  0  0
  191.7240  175.5270  143.8290 N   0  0  0  0  0  2  0  0  0  0  0  0
  191.4590  177.1720  145.5520 C   0  0  0  0  0  1  0  0  0  0  0  0
  191.4180  176.7370  144.1210 C   0  0  0  0  0  0  0  0  0  0  0  0
  181.3830  178.6120  141.6220 C   0  0  0  0  0  2  0  0  0  0  0  0
  181.8760  175.7750  139.1240 C   0  0  0  0  0  2  0  0  0  0  0  0
  181.3970  176.6300  137.9410 C   0  0  2  0  0  3  0  0  0  0  0  0
  179.9820  177.7690  139.7210 C   0  0  0  0  0  2  0  0  0  0  0  0
  182.2110  176.6400  140.3330 C   0  0  0  0  0  2  0  0  0  0  0  0
  180.9660  177.3820  140.8360 C   0  0  1  0  0  3  0  0  0  0  0  0
  180.6840  177.9240  138.3710 C   0  0  0  0  0  2  0  0  0  0  0  0
  180.4370  174.4810  137.5380 O   0  0  0  0  0  1  0  0  0  0  0  0
  180.4930  175.7900  137.0570 C   0  0  0  0  0  2  0  0  0  0  0  0
  1  6  1  6  0  0  0
  1  8  1  0  0  0  0
  2 12  1  1  0  0  0
  3 16  1  6  0  0  0
  3 14  1  0  0  0  0
  3 10  1  0  0  0  0
  4 15  1  0  0  0  0
  4  8  2  0  0  0  0
  5  1  1  0  0  0  0
  7  9  1  6  0  0  0
  7  4  1  0  0  0  0
  9  5  1  0  0  0  0
 11 10  1  6  0  0  0
 11  2  1  0  0  0  0
 11  7  1  0  0  0  0
 12 15  2  0  0  0  0
 13 35  1  0  0  0  0
 13  2  1  0  0  0  0
 14 13  2  0  0  0  0
 17 16  1  0  0  0  0
 18 16  2  0  0  0  0
 19 17  1  0  0  0  0
 20 23  1  0  0  0  0
 20 24  1  0  0  0  0
 21 25  1  0  0  0  0
 22 26  1  6  0  0  0
 22 25  1  0  0  0  0
 23 19  1  6  0  0  0
 23 21  1  0  0  0  0
 24 27  1  0  0  0  0
 25 28  1  1  0  0  0
 26 25  1  0  0  0  0
 27 22  1  0  0  0  0
 28 29  1  0  0  0  0
 29 31  1  0  0  0  0
 29 30  2  0  0  0  0
 31 30  1  0  0  0  0
 31 34  1  1  0  0  0
 32 34  2  0  0  0  0
 34 33  1  0  0  0  0
 36 39  1  0  0  0  0
 37 43  1  1  0  0  0
 37 41  1  0  0  0  0
 37 36  1  0  0  0  0
 38 40  1  0  0  0  0
 39 40  1  0  0  0  0
 40 35  1  6  0  0  0
 41 38  1  0  0  0  0
 43 42  1  0  0  0  0
M  END
>  <MODEL>
3

>  <REMARK>
 VINA RESULT:      -7.7      2.674      7.563
  Name = 
  9 active torsions:
  status: ('A' for Active; 'I' for Inactive)
    1  A    between atoms: C_1  and  C_34
    2  A    between atoms: C_1  and  C_35
    3  A    between atoms: C_2  and  C_13
    4  A    between atoms: N_6  and  S_17
    5  A    between atoms: C_11  and  O_14
    6  A    between atoms: C_12  and  S_17
    7  A    between atoms: O_14  and  C_22
    8  A    between atoms: C_19  and  C_37
    9  A    between atoms: C_31  and  C_40
                            x       y       z     vdW  Elec       q    Type
                         _______ _______ _______ _____ _____    ______ ____

>  <TORSDO>
F 9

$$$$
=
 OpenBabel10272414333D

 43 49  0  0  1  0  0  0  0  0999 V2000
  185.3860  178.4900  146.8670 C   0  0  1  0  0  3  0  0  0  0  0  0
  183.6010  178.2350  142.2760 C   0  0  1  0  0  3  0  0  0  0  0  0
  185.5840  179.1010  140.2720 C   0  0  2  0  0  3  0  0  0  0  0  0
  183.9790  178.9660  144.9700 C   0  0  0  0  0  0  0  0  0  0  0  0
  186.2400  177.5320  146.0090 C   0  0  0  0  0  2  0  0  0  0  0  0
  186.1030  179.7390  147.0640 N   0  0  0  0  0  1  0  0  0  0  0  0
  185.2210  178.8800  144.1140 C   0  0  1  0  0  3  0  0  0  0  0  0
  184.0850  178.7580  146.2460 N   0  0  0  0  0  0  0  0  0  0  0  0
  185.9540  177.5930  144.4920 C   0  0  0  0  0  2  0  0  0  0  0  0
  186.0110  178.6620  141.6700 C   0  0  0  0  0  2  0  0  0  0  0  0
  184.8750  179.0070  142.6250 C   0  0  1  0  0  3  0  0  0  0  0  0
  182.4770  178.7680  143.1180 C   0  0  0  0  0  3  0  0  0  0  0  0
  183.2860  178.2460  140.7920 C   0  0  0  0  0  0  0  0  0  0  0  0
  184.2330  178.5510  139.8830 C   0  0  0  0  0  3  0  0  0  0  0  0
  182.6780  179.0650  144.3690 N   0  0  0  0  0  0  0  0  0  0  0  0
  186.6340  178.7770  139.2630 C   0  0  0  0  0  0  0  0  0  0  0  0
  186.2860  178.7790  137.8800 N   0  0  0  0  0  2  0  0  0  0  0  0
  187.8200  178.5450  139.6250 O   0  0  0  0  0  0  0  0  0  0  0  0
  187.4680  178.4820  136.5990 S   0  0  0  0  0  0  0  0  0  0  0  0
  185.6890  176.4730  137.2080 C   0  0  0  0  0  2  0  0  0  0  0  0
  188.0750  175.8230  136.7200 C   0  0  0  0  0  2  0  0  0  0  0  0
  186.5770  173.7040  135.8960 C   0  0  2  0  0  3  0  0  0  0  0  0
  186.9270  176.7620  136.3590 C   0  0  2  0  0  3  0  0  0  0  0  0
  185.1700  175.0570  137.0010 C   0  0  0  0  0  2  0  0  0  0  0  0
  187.9080  174.3380  136.3280 C   0  0  1  0  0  0  0  0  0  0  0  0
  187.6670  174.0280  134.8710 C   0  0  0  0  0  2  0  0  0  0  0  0
  185.5190  174.6110  135.7220 O   0  0  0  0  0  0  0  0  0  0  0  0
  188.7810  173.4150  136.9630 O   0  0  0  0  0  0  0  0  0  0  0  0
  190.1550  173.4460  136.7430 C   0  0  0  0  0  0  0  0  0  0  0  0
  191.2990  173.0140  136.0390 N   0  0  0  0  0  0  0  0  0  0  0  0
  191.3920  173.9320  137.0460 C   0  0  1  0  0  3  0  0  0  0  0  0
  191.6140  175.4880  135.2130 N   0  0  0  0  0  2  0  0  0  0  0  0
  191.3910  176.5090  137.3700 C   0  0  0  0  0  1  0  0  0  0  0  0
  191.5470  175.3150  136.4820 C   0  0  0  0  0  0  0  0  0  0  0  0
  182.0070  177.6410  140.3050 C   0  0  0  0  0  2  0  0  0  0  0  0
  181.0870  176.6290  136.7470 C   0  0  0  0  0  2  0  0  0  0  0  0
  180.3510  175.3650  137.2150 C   0  0  2  0  0  3  0  0  0  0  0  0
  182.0450  175.4380  139.1090 C   0  0  0  0  0  2  0  0  0  0  0  0
  181.3230  177.5930  137.9040 C   0  0  0  0  0  2  0  0  0  0  0  0
  182.2270  176.9570  138.9680 C   0  0  1  0  0  3  0  0  0  0  0  0
  180.6480  174.9890  138.6760 C   0  0  0  0  0  2  0  0  0  0  0  0
  181.5640  174.6600  135.2820 O   0  0  0  0  0  1  0  0  0  0  0  0
  180.7000  174.2170  136.2860 C   0  0  0  0  0  2  0  0  0  0  0  0
  1  6  1  6  0  0  0
  2 11  1  0  0  0  0
  2 12  1  1  0  0  0
  3 16  1  6  0  0  0
  3 10  1  0  0  0  0
  4  8  2  0  0  0  0
  5  1  1  0  0  0  0
  7  9  1  6  0  0  0
  7  4  1  0  0  0  0
  8  1  1  0  0  0  0
  9  5  1  0  0  0  0
 11 10  1  6  0  0  0
 11  7  1  0  0  0  0
 12 15  2  0  0  0  0
 13  2  1  0  0  0  0
 14  3  1  0  0  0  0
 14 13  2  0  0  0  0
 15  4  1  0  0  0  0
 16 18  2  0  0  0  0
 17 16  1  0  0  0  0
 19 17  1  0  0  0  0
 22 26  1  6  0  0  0
 22 25  1  0  0  0  0
 23 19  1  1  0  0  0
 23 21  1  0  0  0  0
 23 20  1  0  0  0  0
 24 20  1  0  0  0  0
 25 21  1  0  0  0  0
 25 28  1  1  0  0  0
 26 25  1  0  0  0  0
 27 22  1  0  0  0  0
 27 24  1  0  0  0  0
 29 28  1  0  0  0  0
 29 31  1  0  0  0  0
 30 29  2  0  0  0  0
 30 31  1  0  0  0  0
 31 34  1  6  0  0  0
 32 34  2  0  0  0  0
 34 33  1  0  0  0  0
 35 13  1  0  0  0  0
 36 37  1  0  0  0  0
 36 39  1  0  0  0  0
 37 43  1  6  0  0  0
 37 41  1  0  0  0  0
 39 40  1  0  0  0  0
 40 38  1  0  0  0  0
 40 35  1  1  0  0  0
 41 38  1  0  0  0  0
 42 43  1  0  0  0  0
M  END
>  <MODEL>
4

>  <REMARK>
 VINA RESULT:      -7.7      3.773      7.097
  Name = 
  9 active torsions:
  status: ('A' for Active; 'I' for Inactive)
    1  A    between atoms: C_1  and  C_34
    2  A    between atoms: C_1  and  C_35
    3  A    between atoms: C_2  and  C_13
    4  A    between atoms: N_6  and  S_17
    5  A    between atoms: C_11  and  O_14
    6  A    between atoms: C_12  and  S_17
    7  A    between atoms: O_14  and  C_22
    8  A    between atoms: C_19  and  C_37
    9  A    between atoms: C_31  and  C_40
                            x       y       z     vdW  Elec       q    Type
                         _______ _______ _______ _____ _____    ______ ____

>  <TORSDO>
F 9

$$$$
=
 OpenBabel10272414333D

 43 49  0  0  1  0  0  0  0  0999 V2000
  190.9890  176.5200  145.7120 C   0  0  1  0  0  3  0  0  0  0  0  0
  187.0490  177.6410  142.9640 C   0  0  1  0  0  3  0  0  0  0  0  0
  187.8150  178.7720  140.3500 C   0  0  2  0  0  3  0  0  0  0  0  0
  188.9480  177.6140  145.0440 C   0  0  0  0  0  0  0  0  0  0  0  0
  191.0120  175.7270  144.3880 C   0  0  0  0  0  2  0  0  0  0  0  0
  191.9690  177.5920  145.6560 N   0  0  0  0  0  1  0  0  0  0  0  0
  189.4930  177.6160  143.6340 C   0  0  1  0  0  3  0  0  0  0  0  0
  189.6600  177.0770  145.9860 N   0  0  0  0  0  0  0  0  0  0  0  0
  189.9930  176.2040  143.3300 C   0  0  0  0  0  2  0  0  0  0  0  0
  188.7990  177.9460  141.1740 C   0  0  0  0  0  2  0  0  0  0  0  0
  188.4530  178.1560  142.6430 C   0  0  1  0  0  3  0  0  0  0  0  0
  186.6990  178.0590  144.3630 C   0  0  0  0  0  3  0  0  0  0  0  0
  186.0110  178.0650  141.9420 C   0  0  0  0  0  0  0  0  0  0  0  0
  186.3770  178.4880  140.7150 C   0  0  0  0  0  3  0  0  0  0  0  0
  187.5910  178.0030  145.3080 N   0  0  0  0  0  0  0  0  0  0  0  0
  188.0660  178.6060  138.8890 C   0  0  0  0  0  0  0  0  0  0  0  0
  186.9540  178.4030  138.0160 N   0  0  0  0  0  2  0  0  0  0  0  0
  189.2370  178.6830  138.4270 O   0  0  0  0  0  0  0  0  0  0  0  0
  187.1330  178.2690  136.2630 S   0  0  0  0  0  0  0  0  0  0  0  0
  185.6810  176.1630  137.2750 C   0  0  0  0  0  2  0  0  0  0  0  0
  188.0610  175.7210  136.5760 C   0  0  0  0  0  2  0  0  0  0  0  0
  186.7480  173.3750  136.1520 C   0  0  2  0  0  3  0  0  0  0  0  0
  186.7780  176.4860  136.2610 C   0  0  2  0  0  3  0  0  0  0  0  0
  185.3140  174.6860  137.2730 C   0  0  0  0  0  2  0  0  0  0  0  0
  188.0320  174.1920  136.3580 C   0  0  1  0  0  0  0  0  0  0  0  0
  187.6760  173.6960  134.9770 C   0  0  0  0  0  2  0  0  0  0  0  0
  185.5760  174.1380  136.0140 O   0  0  0  0  0  0  0  0  0  0  0  0
  189.0710  173.4450  136.9740 O   0  0  0  0  0  0  0  0  0  0  0  0
  190.4090  173.7940  136.8140 C   0  0  0  0  0  0  0  0  0  0  0  0
  191.5010  174.1370  135.9910 N   0  0  0  0  0  0  0  0  0  0  0  0
  191.6320  174.0690  137.3480 C   0  0  1  0  0  3  0  0  0  0  0  0
  190.7860  175.7450  138.8680 N   0  0  0  0  0  2  0  0  0  0  0  0
  192.7410  176.3990  137.6440 C   0  0  0  0  0  1  0  0  0  0  0  0
  191.6280  175.4470  137.9460 C   0  0  0  0  0  0  0  0  0  0  0  0
  184.5690  177.7460  142.1790 C   0  0  0  0  0  2  0  0  0  0  0  0
  181.2920  179.0840  140.7630 C   0  0  0  0  0  2  0  0  0  0  0  0
  180.9910  177.7750  140.0190 C   0  0  2  0  0  3  0  0  0  0  0  0
  183.5250  177.6020  139.9040 C   0  0  0  0  0  2  0  0  0  0  0  0
  182.3770  178.8850  141.8160 C   0  0  0  0  0  2  0  0  0  0  0  0
  183.7000  178.4660  141.1630 C   0  0  1  0  0  3  0  0  0  0  0  0
  182.2030  176.8330  139.9200 C   0  0  0  0  0  2  0  0  0  0  0  0
  180.8600  179.3870  138.2610 O   0  0  0  0  0  1  0  0  0  0  0  0
  180.4570  178.1040  138.6360 C   0  0  0  0  0  2  0  0  0  0  0  0
  1  6  1  6  0  0  0
  1  8  1  0  0  0  0
  2 12  1  1  0  0  0
  3 16  1  6  0  0  0
  3 14  1  0  0  0  0
  3 10  1  0  0  0  0
  4 15  1  0  0  0  0
  4  8  2  0  0  0  0
  5  1  1  0  0  0  0
  7  9  1  6  0  0  0
  7  4  1  0  0  0  0
  9  5  1  0  0  0  0
 11 10  1  6  0  0  0
 11  2  1  0  0  0  0
 11  7  1  0  0  0  0
 12 15  2  0  0  0  0
 13 35  1  0  0  0  0
 13  2  1  0  0  0  0
 14 13  2  0  0  0  0
 17 16  1  0  0  0  0
 18 16  2  0  0  0  0
 19 17  1  0  0  0  0
 22 26  1  6  0  0  0
 22 25  1  0  0  0  0
 23 19  1  1  0  0  0
 23 21  1  0  0  0  0
 23 20  1  0  0  0  0
 24 20  1  0  0  0  0
 25 21  1  0  0  0  0
 25 28  1  1  0  0  0
 26 25  1  0  0  0  0
 27 22  1  0  0  0  0
 27 24  1  0  0  0  0
 29 28  1  0  0  0  0
 29 31  1  0  0  0  0
 30 29  2  0  0  0  0
 30 31  1  0  0  0  0
 31 34  1  1  0  0  0
 33 34  1  0  0  0  0
 34 32  2  0  0  0  0
 36 39  1  0  0  0  0
 37 43  1  6  0  0  0
 37 36  1  0  0  0  0
 38 41  1  0  0  0  0
 38 40  1  0  0  0  0
 40 39  1  0  0  0  0
 40 35  1  1  0  0  0
 41 37  1  0  0  0  0
 42 43  1  0  0  0  0
M  END
>  <MODEL>
5

>  <REMARK>
 VINA RESULT:      -7.6      2.736      6.395
  Name = 
  9 active torsions:
  status: ('A' for Active; 'I' for Inactive)
    1  A    between atoms: C_1  and  C_34
    2  A    between atoms: C_1  and  C_35
    3  A    between atoms: C_2  and  C_13
    4  A    between atoms: N_6  and  S_17
    5  A    between atoms: C_11  and  O_14
    6  A    between atoms: C_12  and  S_17
    7  A    between atoms: O_14  and  C_22
    8  A    between atoms: C_19  and  C_37
    9  A    between atoms: C_31  and  C_40
                            x       y       z     vdW  Elec       q    Type
                         _______ _______ _______ _____ _____    ______ ____

>  <TORSDO>
F 9

$$$$
=
 OpenBabel10272414333D

 43 49  0  0  1  0  0  0  0  0999 V2000
  188.2900  177.6580  148.4830 C   0  0  1  0  0  3  0  0  0  0  0  0
  187.6720  178.2240  143.6210 C   0  0  1  0  0  3  0  0  0  0  0  0
  184.8330  178.0380  142.8420 C   0  0  2  0  0  3  0  0  0  0  0  0
  188.4660  177.2010  146.1230 C   0  0  0  0  0  0  0  0  0  0  0  0
  187.3810  178.8710  148.1920 C   0  0  0  0  0  2  0  0  0  0  0  0
  187.4860  176.5500  148.9710 N   0  0  0  0  0  1  0  0  0  0  0  0
  187.0250  177.6390  146.0010 C   0  0  1  0  0  3  0  0  0  0  0  0
  189.0330  177.2420  147.2890 N   0  0  0  0  0  0  0  0  0  0  0  0
  186.8850  178.9740  146.7330 C   0  0  0  0  0  2  0  0  0  0  0  0
  185.2410  178.3470  144.2800 C   0  0  0  0  0  2  0  0  0  0  0  0
  186.5790  177.6630  144.5330 C   0  0  1  0  0  3  0  0  0  0  0  0
  188.9020  177.3760  143.7770 C   0  0  0  0  0  3  0  0  0  0  0  0
  187.2280  178.3650  142.1770 C   0  0  0  0  0  0  0  0  0  0  0  0
  185.9210  178.3760  141.8510 C   0  0  0  0  0  3  0  0  0  0  0  0
  189.2590  176.9460  144.9520 N   0  0  0  0  0  0  0  0  0  0  0  0
  183.5380  178.6930  142.4990 C   0  0  0  0  0  0  0  0  0  0  0  0
  183.0730  178.6390  141.1510 N   0  0  0  0  0  2  0  0  0  0  0  0
  182.8450  179.2510  143.3930 O   0  0  0  0  0  0  0  0  0  0  0  0
  181.5180  179.3170  140.6520 S   0  0  0  0  0  0  0  0  0  0  0  0
  181.3100  176.6570  139.9810 C   0  0  0  0  0  2  0  0  0  0  0  0
  182.3360  178.2200  138.2900 C   0  0  0  0  0  2  0  0  0  0  0  0
  181.1310  176.2720  136.8190 C   0  0  2  0  0  3  0  0  0  0  0  0
  181.2660  178.0560  139.3660 C   0  0  2  0  0  3  0  0  0  0  0  0
  181.0540  175.5690  138.9480 C   0  0  0  0  0  2  0  0  0  0  0  0
  182.1360  177.4220  136.9820 C   0  0  1  0  0  0  0  0  0  0  0  0
  180.8550  177.6530  136.2190 C   0  0  0  0  0  2  0  0  0  0  0  0
  180.2670  176.0810  137.9100 O   0  0  0  0  0  0  0  0  0  0  0  0
  183.2740  177.2860  136.1440 O   0  0  0  0  0  0  0  0  0  0  0  0
  184.3580  176.4950  136.5140 C   0  0  0  0  0  0  0  0  0  0  0  0
  184.9320  175.2300  136.7590 N   0  0  0  0  0  0  0  0  0  0  0  0
  185.6600  176.3770  136.8990 C   0  0  1  0  0  3  0  0  0  0  0  0
  187.0000  175.5590  135.0640 N   0  0  0  0  0  2  0  0  0  0  0  0
  186.7600  177.9430  135.1430 C   0  0  0  0  0  1  0  0  0  0  0  0
  186.5610  176.5750  135.7130 C   0  0  0  0  0  0  0  0  0  0  0  0
  188.2210  178.7820  141.1380 C   0  0  0  0  0  2  0  0  0  0  0  0
  190.4860  176.5370  139.0520 C   0  0  0  0  0  2  0  0  0  0  0  0
  190.3430  177.4200  137.8050 C   0  0  2  0  0  3  0  0  0  0  0  0
  188.0530  177.9240  138.7890 C   0  0  0  0  0  2  0  0  0  0  0  0
  190.0240  177.2690  140.3070 C   0  0  0  0  0  2  0  0  0  0  0  0
  188.5330  177.6180  140.2160 C   0  0  1  0  0  3  0  0  0  0  0  0
  189.1900  178.4340  137.9020 C   0  0  0  0  0  2  0  0  0  0  0  0
  191.4030  176.3340  135.9600 O   0  0  0  0  0  1  0  0  0  0  0  0
  190.1700  176.5320  136.5860 C   0  0  0  0  0  2  0  0  0  0  0  0
  1  6  1  6  0  0  0
  2 12  1  6  0  0  0
  2 11  1  0  0  0  0
  3 16  1  6  0  0  0
  3 10  1  0  0  0  0
  4  8  2  0  0  0  0
  5  1  1  0  0  0  0
  7  4  1  0  0  0  0
  7  9  1  6  0  0  0
  8  1  1  0  0  0  0
  9  5  1  0  0  0  0
 11 10  1  1  0  0  0
 11  7  1  0  0  0  0
 12 15  2  0  0  0  0
 13  2  1  0  0  0  0
 14 13  2  0  0  0  0
 14  3  1  0  0  0  0
 15  4  1  0  0  0  0
 16 18  2  0  0  0  0
 17 16  1  0  0  0  0
 19 17  1  0  0  0  0
 21 23  1  0  0  0  0
 22 26  1  6  0  0  0
 22 25  1  0  0  0  0
 22 27  1  0  0  0  0
 23 20  1  0  0  0  0
 23 19  1  1  0  0  0
 24 20  1  0  0  0  0
 25 28  1  6  0  0  0
 25 21  1  0  0  0  0
 26 25  1  0  0  0  0
 27 24  1  0  0  0  0
 28 29  1  0  0  0  0
 29 30  2  0  0  0  0
 29 31  1  0  0  0  0
 30 31  1  0  0  0  0
 31 34  1  6  0  0  0
 32 34  2  0  0  0  0
 33 34  1  0  0  0  0
 35 13  1  0  0  0  0
 36 39  1  0  0  0  0
 37 43  1  6  0  0  0
 37 41  1  0  0  0  0
 37 36  1  0  0  0  0
 38 40  1  0  0  0  0
 40 39  1  0  0  0  0
 40 35  1  1  0  0  0
 41 38  1  0  0  0  0
 42 43  1  0  0  0  0
M  END
>  <MODEL>
6

>  <REMARK>
 VINA RESULT:      -7.5      2.098      2.774
  Name = 
  9 active torsions:
  status: ('A' for Active; 'I' for Inactive)
    1  A    between atoms: C_1  and  C_34
    2  A    between atoms: C_1  and  C_35
    3  A    between atoms: C_2  and  C_13
    4  A    between atoms: N_6  and  S_17
    5  A    between atoms: C_11  and  O_14
    6  A    between atoms: C_12  and  S_17
    7  A    between atoms: O_14  and  C_22
    8  A    between atoms: C_19  and  C_37
    9  A    between atoms: C_31  and  C_40
                            x       y       z     vdW  Elec       q    Type
                         _______ _______ _______ _____ _____    ______ ____

>  <TORSDO>
F 9

$$$$
=
 OpenBabel10272414333D

 43 49  0  0  1  0  0  0  0  0999 V2000
  190.9260  176.5750  147.7060 C   0  0  1  0  0  3  0  0  0  0  0  0
  187.5420  177.4090  144.2140 C   0  0  1  0  0  3  0  0  0  0  0  0
  188.7360  178.5630  141.7760 C   0  0  2  0  0  3  0  0  0  0  0  0
  188.9930  177.5260  146.6260 C   0  0  0  0  0  0  0  0  0  0  0  0
  191.2590  175.7730  146.4290 C   0  0  0  0  0  2  0  0  0  0  0  0
  191.8280  177.7090  147.8190 N   0  0  0  0  0  1  0  0  0  0  0  0
  189.8030  177.5510  145.3510 C   0  0  1  0  0  3  0  0  0  0  0  0
  189.5370  177.0460  147.7010 N   0  0  0  0  0  0  0  0  0  0  0  0
  190.4400  176.1720  145.1820 C   0  0  0  0  0  2  0  0  0  0  0  0
  189.5880  177.8120  142.7950 C   0  0  0  0  0  2  0  0  0  0  0  0
  188.9470  178.0120  144.1630 C   0  0  1  0  0  3  0  0  0  0  0  0
  186.8980  177.8160  145.5080 C   0  0  0  0  0  3  0  0  0  0  0  0
  186.7020  177.7540  142.9990 C   0  0  0  0  0  0  0  0  0  0  0  0
  187.2750  178.1890  141.8590 C   0  0  0  0  0  3  0  0  0  0  0  0
  187.5880  177.8280  146.6110 N   0  0  0  0  0  0  0  0  0  0  0  0
  189.2790  178.4000  140.3970 C   0  0  0  0  0  0  0  0  0  0  0  0
  188.4710  178.7870  139.2860 N   0  0  0  0  0  2  0  0  0  0  0  0
  190.4490  177.9640  140.2170 O   0  0  0  0  0  0  0  0  0  0  0  0
  189.0460  178.7050  137.6170 S   0  0  0  0  0  0  0  0  0  0  0  0
  186.4610  177.9210  138.1380 C   0  0  0  0  0  2  0  0  0  0  0  0
  187.7700  176.5980  136.4390 C   0  0  0  0  0  2  0  0  0  0  0  0
  185.1770  176.4250  135.6300 C   0  0  2  0  0  3  0  0  0  0  0  0
  187.4900  177.9860  137.0090 C   0  0  2  0  0  3  0  0  0  0  0  0
  185.1230  177.3710  137.6630 C   0  0  0  0  0  2  0  0  0  0  0  0
  186.6320  175.9340  135.6320 C   0  0  1  0  0  0  0  0  0  0  0  0
  186.1000  176.6870  134.4370 C   0  0  0  0  0  2  0  0  0  0  0  0
  184.9610  177.6400  136.3000 O   0  0  0  0  0  0  0  0  0  0  0  0
  186.7460  174.5360  135.4120 O   0  0  0  0  0  0  0  0  0  0  0  0
  187.4440  173.7160  136.2940 C   0  0  0  0  0  0  0  0  0  0  0  0
  187.8070  172.4340  136.7580 N   0  0  0  0  0  0  0  0  0  0  0  0
  188.2970  173.5650  137.3460 C   0  0  1  0  0  3  0  0  0  0  0  0
  190.5200  174.4530  137.6630 N   0  0  0  0  0  2  0  0  0  0  0  0
  190.2390  173.1460  135.6730 C   0  0  0  0  0  1  0  0  0  0  0  0
  189.7080  173.8210  136.8970 C   0  0  0  0  0  0  0  0  0  0  0  0
  185.2640  177.3440  142.9560 C   0  0  0  0  0  2  0  0  0  0  0  0
  182.0900  179.4060  143.4080 C   0  0  0  0  0  2  0  0  0  0  0  0
  181.4300  178.8050  142.1590 C   0  0  2  0  0  3  0  0  0  0  0  0
  183.8310  178.6190  141.3420 C   0  0  0  0  0  2  0  0  0  0  0  0
  183.2880  178.5750  143.8560 C   0  0  0  0  0  2  0  0  0  0  0  0
  184.3770  178.5630  142.7770 C   0  0  1  0  0  3  0  0  0  0  0  0
  182.4140  178.0490  141.2500 C   0  0  0  0  0  2  0  0  0  0  0  0
  179.9820  180.7020  142.2610 O   0  0  0  0  0  1  0  0  0  0  0  0
  180.7320  179.9110  141.3880 C   0  0  0  0  0  2  0  0  0  0  0  0
  1  6  1  6  0  0  0
  2 12  1  1  0  0  0
  3 16  1  6  0  0  0
  3 14  1  0  0  0  0
  3 10  1  0  0  0  0
  4  8  2  0  0  0  0
  5  1  1  0  0  0  0
  7  9  1  6  0  0  0
  7  4  1  0  0  0  0
  8  1  1  0  0  0  0
  9  5  1  0  0  0  0
 11 10  1  6  0  0  0
 11  2  1  0  0  0  0
 11  7  1  0  0  0  0
 12 15  2  0  0  0  0
 13  2  1  0  0  0  0
 14 13  2  0  0  0  0
 15  4  1  0  0  0  0
 17 16  1  0  0  0  0
 18 16  2  0  0  0  0
 19 17  1  0  0  0  0
 21 23  1  0  0  0  0
 22 26  1  6  0  0  0
 22 25  1  0  0  0  0
 22 27  1  0  0  0  0
 23 19  1  1  0  0  0
 23 20  1  0  0  0  0
 24 20  1  0  0  0  0
 25 28  1  6  0  0  0
 25 21  1  0  0  0  0
 26 25  1  0  0  0  0
 27 24  1  0  0  0  0
 28 29  1  0  0  0  0
 29 30  2  0  0  0  0
 29 31  1  0  0  0  0
 30 31  1  0  0  0  0
 31 34  1  6  0  0  0
 33 34  1  0  0  0  0
 34 32  2  0  0  0  0
 35 13  1  0  0  0  0
 36 39  1  0  0  0  0
 37 43  1  6  0  0  0
 37 36  1  0  0  0  0
 38 40  1  0  0  0  0
 40 35  1  6  0  0  0
 40 39  1  0  0  0  0
 41 38  1  0  0  0  0
 41 37  1  0  0  0  0
 43 42  1  0  0  0  0
M  END
>  <MODEL>
7

>  <REMARK>
 VINA RESULT:      -7.3      2.843      5.834
  Name = 
  9 active torsions:
  status: ('A' for Active; 'I' for Inactive)
    1  A    between atoms: C_1  and  C_34
    2  A    between atoms: C_1  and  C_35
    3  A    between atoms: C_2  and  C_13
    4  A    between atoms: N_6  and  S_17
    5  A    between atoms: C_11  and  O_14
    6  A    between atoms: C_12  and  S_17
    7  A    between atoms: O_14  and  C_22
    8  A    between atoms: C_19  and  C_37
    9  A    between atoms: C_31  and  C_40
                            x       y       z     vdW  Elec       q    Type
                         _______ _______ _______ _____ _____    ______ ____

>  <TORSDO>
F 9

$$$$
=
 OpenBabel10272414333D

 43 49  0  0  1  0  0  0  0  0999 V2000
  191.0220  176.5200  145.6660 C   0  0  1  0  0  3  0  0  0  0  0  0
  187.0400  177.6080  142.9660 C   0  0  1  0  0  3  0  0  0  0  0  0
  187.7630  178.7890  140.3610 C   0  0  2  0  0  3  0  0  0  0  0  0
  188.9560  177.5870  145.0300 C   0  0  0  0  0  0  0  0  0  0  0  0
  191.0480  175.7460  144.3310 C   0  0  0  0  0  2  0  0  0  0  0  0
  191.9820  177.6100  145.6180 N   0  0  0  0  0  1  0  0  0  0  0  0
  189.4890  177.6180  143.6160 C   0  0  1  0  0  3  0  0  0  0  0  0
  189.6850  177.0490  145.9580 N   0  0  0  0  0  0  0  0  0  0  0  0
  190.0110  176.2190  143.2880 C   0  0  0  0  0  2  0  0  0  0  0  0
  188.7690  177.9690  141.1660 C   0  0  0  0  0  2  0  0  0  0  0  0
  188.4320  178.1530  142.6410 C   0  0  1  0  0  3  0  0  0  0  0  0
  186.6940  178.0000  144.3740 C   0  0  0  0  0  3  0  0  0  0  0  0
  185.9860  178.0270  141.9580 C   0  0  0  0  0  0  0  0  0  0  0  0
  186.3350  178.4740  140.7350 C   0  0  0  0  0  3  0  0  0  0  0  0
  187.5950  177.9480  145.3110 N   0  0  0  0  0  0  0  0  0  0  0  0
  188.0050  178.6470  138.8960 C   0  0  0  0  0  0  0  0  0  0  0  0
  187.1180  177.8370  138.1260 N   0  0  0  0  0  2  0  0  0  0  0  0
  188.9540  179.2650  138.3400 O   0  0  0  0  0  0  0  0  0  0  0  0
  187.2690  177.6610  136.3740 S   0  0  0  0  0  0  0  0  0  0  0  0
  187.0330  175.0640  137.2510 C   0  0  0  0  0  2  0  0  0  0  0  0
  189.3370  176.0850  137.2050 C   0  0  0  0  0  2  0  0  0  0  0  0
  189.7270  173.4280  136.7610 C   0  0  2  0  0  3  0  0  0  0  0  0
  187.9860  175.9940  136.5000 C   0  0  2  0  0  3  0  0  0  0  0  0
  187.5700  173.6430  137.3390 C   0  0  0  0  0  2  0  0  0  0  0  0
  190.2260  174.8210  137.1710 C   0  0  1  0  0  0  0  0  0  0  0  0
  190.5900  174.2670  135.8150 C   0  0  0  0  0  2  0  0  0  0  0  0
  188.4180  173.3920  136.2540 O   0  0  0  0  0  0  0  0  0  0  0  0
  191.2950  174.7750  138.1040 O   0  0  0  0  0  0  0  0  0  0  0  0
  192.3650  175.6620  138.0280 C   0  0  0  0  0  0  0  0  0  0  0  0
  193.4690  176.3110  138.6170 N   0  0  0  0  0  0  0  0  0  0  0  0
  193.1260  176.5390  137.3160 C   0  0  1  0  0  3  0  0  0  0  0  0
  194.6410  174.7300  136.8040 N   0  0  0  0  0  2  0  0  0  0  0  0
  194.0750  176.1200  134.9350 C   0  0  0  0  0  1  0  0  0  0  0  0
  194.0400  175.7860  136.3920 C   0  0  0  0  0  0  0  0  0  0  0  0
  184.5520  177.6800  142.2020 C   0  0  0  0  0  2  0  0  0  0  0  0
  181.2430  178.9760  140.8230 C   0  0  0  0  0  2  0  0  0  0  0  0
  180.9500  177.6640  140.0820 C   0  0  2  0  0  3  0  0  0  0  0  0
  183.4850  177.5220  139.9390 C   0  0  0  0  0  2  0  0  0  0  0  0
  182.3420  178.7920  141.8630 C   0  0  0  0  0  2  0  0  0  0  0  0
  183.6630  178.3880  141.1960 C   0  0  1  0  0  3  0  0  0  0  0  0
  182.1720  176.7370  139.9710 C   0  0  0  0  0  2  0  0  0  0  0  0
  180.5450  179.3480  138.4370 O   0  0  0  0  0  1  0  0  0  0  0  0
  180.3960  177.9850  138.7060 C   0  0  0  0  0  2  0  0  0  0  0  0
  1  6  1  6  0  0  0
  1  8  1  0  0  0  0
  2 12  1  1  0  0  0
  3 16  1  6  0  0  0
  3 14  1  0  0  0  0
  3 10  1  0  0  0  0
  4 15  1  0  0  0  0
  4  8  2  0  0  0  0
  5  1  1  0  0  0  0
  7  9  1  6  0  0  0
  7  4  1  0  0  0  0
  9  5  1  0  0  0  0
 11 10  1  6  0  0  0
 11  2  1  0  0  0  0
 11  7  1  0  0  0  0
 12 15  2  0  0  0  0
 13 35  1  0  0  0  0
 13  2  1  0  0  0  0
 14 13  2  0  0  0  0
 17 16  1  0  0  0  0
 18 16  2  0  0  0  0
 19 17  1  0  0  0  0
 20 24  1  0  0  0  0
 22 26  1  6  0  0  0
 22 25  1  0  0  0  0
 23 19  1  1  0  0  0
 23 21  1  0  0  0  0
 23 20  1  0  0  0  0
 25 21  1  0  0  0  0
 25 28  1  1  0  0  0
 26 25  1  0  0  0  0
 27 22  1  0  0  0  0
 27 24  1  0  0  0  0
 29 28  1  0  0  0  0
 29 30  2  0  0  0  0
 31 34  1  6  0  0  0
 31 29  1  0  0  0  0
 31 30  1  0  0  0  0
 33 34  1  0  0  0  0
 34 32  2  0  0  0  0
 36 39  1  0  0  0  0
 37 43  1  6  0  0  0
 37 36  1  0  0  0  0
 38 41  1  0  0  0  0
 38 40  1  0  0  0  0
 40 39  1  0  0  0  0
 40 35  1  1  0  0  0
 41 37  1  0  0  0  0
 42 43  1  0  0  0  0
M  END
>  <MODEL>
8

>  <REMARK>
 VINA RESULT:      -7.3      2.960      7.156
  Name = 
  9 active torsions:
  status: ('A' for Active; 'I' for Inactive)
    1  A    between atoms: C_1  and  C_34
    2  A    between atoms: C_1  and  C_35
    3  A    between atoms: C_2  and  C_13
    4  A    between atoms: N_6  and  S_17
    5  A    between atoms: C_11  and  O_14
    6  A    between atoms: C_12  and  S_17
    7  A    between atoms: O_14  and  C_22
    8  A    between atoms: C_19  and  C_37
    9  A    between atoms: C_31  and  C_40
                            x       y       z     vdW  Elec       q    Type
                         _______ _______ _______ _____ _____    ______ ____

>  <TORSDO>
F 9

$$$$
=
 OpenBabel10272414333D

 43 49  0  0  1  0  0  0  0  0999 V2000
  180.6980  179.1590  143.0900 C   0  0  1  0  0  3  0  0  0  0  0  0
  182.4030  176.3290  139.4270 C   0  0  1  0  0  3  0  0  0  0  0  0
  184.3140  177.7790  137.7110 C   0  0  2  0  0  3  0  0  0  0  0  0
  180.6800  177.8060  141.0960 C   0  0  0  0  0  0  0  0  0  0  0  0
  182.2340  179.0240  143.1820 C   0  0  0  0  0  2  0  0  0  0  0  0
  180.3530  180.4800  142.5920 N   0  0  0  0  0  1  0  0  0  0  0  0
  181.9840  178.4690  140.7170 C   0  0  1  0  0  3  0  0  0  0  0  0
  180.1170  178.1330  142.2180 N   0  0  0  0  0  0  0  0  0  0  0  0
  182.9050  178.4070  141.9350 C   0  0  0  0  0  2  0  0  0  0  0  0
  184.0020  178.2560  139.1270 C   0  0  0  0  0  2  0  0  0  0  0  0
  182.5670  177.8500  139.4400 C   0  0  1  0  0  3  0  0  0  0  0  0
  180.9400  176.0080  139.5390 C   0  0  0  0  0  3  0  0  0  0  0  0
  183.0640  175.6690  138.2310 C   0  0  0  0  0  0  0  0  0  0  0  0
  184.0080  176.3140  137.5160 C   0  0  0  0  0  3  0  0  0  0  0  0
  180.1780  176.6890  140.3440 N   0  0  0  0  0  0  0  0  0  0  0  0
  185.7170  178.1150  137.3290 C   0  0  0  0  0  0  0  0  0  0  0  0
  186.2040  177.6940  136.0560 N   0  0  0  0  0  2  0  0  0  0  0  0
  186.4460  178.7950  138.1020 O   0  0  0  0  0  0  0  0  0  0  0  0
  187.8230  178.1020  135.4740 S   0  0  0  0  0  0  0  0  0  0  0  0
  187.4370  175.5120  136.3190 C   0  0  0  0  0  2  0  0  0  0  0  0
  189.3440  176.8080  137.3350 C   0  0  0  0  0  2  0  0  0  0  0  0
  190.1620  174.2120  137.3470 C   0  0  2  0  0  3  0  0  0  0  0  0
  188.5400  176.5390  136.0660 C   0  0  2  0  0  3  0  0  0  0  0  0
  187.9950  174.1700  136.7680 C   0  0  0  0  0  2  0  0  0  0  0  0
  190.2500  175.6640  137.8410 C   0  0  1  0  0  0  0  0  0  0  0  0
  191.2950  175.1340  136.8880 C   0  0  0  0  0  2  0  0  0  0  0  0
  189.2900  174.0060  136.2650 O   0  0  0  0  0  0  0  0  0  0  0  0
  190.7100  175.7660  139.1800 O   0  0  0  0  0  0  0  0  0  0  0  0
  190.0870  176.6050  140.1000 C   0  0  0  0  0  0  0  0  0  0  0  0
  188.9650  177.3450  140.5270 N   0  0  0  0  0  0  0  0  0  0  0  0
  190.1120  177.3100  141.2660 C   0  0  1  0  0  3  0  0  0  0  0  0
  190.9960  175.8480  142.9720 N   0  0  0  0  0  2  0  0  0  0  0  0
  188.6330  176.2300  143.1070 C   0  0  0  0  0  1  0  0  0  0  0  0
  189.9590  176.3730  142.4300 C   0  0  0  0  0  0  0  0  0  0  0  0
  182.8870  174.2000  138.0070 C   0  0  0  0  0  2  0  0  0  0  0  0
  183.5580  172.6960  134.5700 C   0  0  0  0  0  2  0  0  0  0  0  0
  183.6210  171.2650  135.1240 C   0  0  2  0  0  3  0  0  0  0  0  0
  184.4750  172.4290  137.2170 C   0  0  0  0  0  2  0  0  0  0  0  0
  182.9190  173.6500  135.5730 C   0  0  0  0  0  2  0  0  0  0  0  0
  183.7580  173.7380  136.8530 C   0  0  1  0  0  3  0  0  0  0  0  0
  183.7470  171.2060  136.6560 C   0  0  0  0  0  2  0  0  0  0  0  0
  185.0630  169.3610  135.1740 O   0  0  0  0  0  1  0  0  0  0  0  0
  184.7730  170.5290  134.4650 C   0  0  0  0  0  2  0  0  0  0  0  0
  1  6  1  6  0  0  0
  1  5  1  0  0  0  0
  2 11  1  0  0  0  0
  2 12  1  6  0  0  0
  3 16  1  1  0  0  0
  3 10  1  0  0  0  0
  4  8  2  0  0  0  0
  7  4  1  0  0  0  0
  7  9  1  1  0  0  0
  8  1  1  0  0  0  0
  9  5  1  0  0  0  0
 11 10  1  1  0  0  0
 11  7  1  0  0  0  0
 12 15  2  0  0  0  0
 13  2  1  0  0  0  0
 14  3  1  0  0  0  0
 14 13  2  0  0  0  0
 15  4  1  0  0  0  0
 16 18  2  0  0  0  0
 17 16  1  0  0  0  0
 19 17  1  0  0  0  0
 20 24  1  0  0  0  0
 21 25  1  0  0  0  0
 22 26  1  6  0  0  0
 22 25  1  0  0  0  0
 23 19  1  1  0  0  0
 23 20  1  0  0  0  0
 23 21  1  0  0  0  0
 25 28  1  1  0  0  0
 26 25  1  0  0  0  0
 27 24  1  0  0  0  0
 27 22  1  0  0  0  0
 28 29  1  0  0  0  0
 29 30  2  0  0  0  0
 29 31  1  0  0  0  0
 30 31  1  0  0  0  0
 31 34  1  1  0  0  0
 34 32  2  0  0  0  0
 34 33  1  0  0  0  0
 35 13  1  0  0  0  0
 36 37  1  0  0  0  0
 36 39  1  0  0  0  0
 37 43  1  6  0  0  0
 37 41  1  0  0  0  0
 39 40  1  0  0  0  0
 40 38  1  0  0  0  0
 40 35  1  1  0  0  0
 41 38  1  0  0  0  0
 43 42  1  0  0  0  0
M  END
>  <MODEL>
9

>  <REMARK>
 VINA RESULT:      -7.2      3.118      8.732
  Name = 
  9 active torsions:
  status: ('A' for Active; 'I' for Inactive)
    1  A    between atoms: C_1  and  C_34
    2  A    between atoms: C_1  and  C_35
    3  A    between atoms: C_2  and  C_13
    4  A    between atoms: N_6  and  S_17
    5  A    between atoms: C_11  and  O_14
    6  A    between atoms: C_12  and  S_17
    7  A    between atoms: O_14  and  C_22
    8  A    between atoms: C_19  and  C_37
    9  A    between atoms: C_31  and  C_40
                            x       y       z     vdW  Elec       q    Type
                         _______ _______ _______ _____ _____    ______ ____

>  <TORSDO>
F 9

$$$$
