=
 OpenBabel10272413573D

 30 34  0  0  1  0  0  0  0  0999 V2000
  186.1670  177.8540  143.7740 C   0  0  0  0  0  0  0  0  0  0  0  0
  185.4210  177.8640  146.2590 C   0  0  1  0  0  3  0  0  0  0  0  0
  189.9030  178.1790  146.2420 C   0  0  0  0  0  3  0  0  0  0  0  0
  187.3390  177.7840  143.1530 C   0  0  0  0  0  0  0  0  0  0  0  0
  185.2410  178.4810  142.9700 C   0  0  0  0  0  3  0  0  0  0  0  0
  187.3060  178.3390  141.9340 N   0  0  0  0  0  0  0  0  0  0  0  0
  190.4610  178.2820  145.0260 C   0  0  0  0  0  0  0  0  0  0  0  0
  186.0050  178.7510  141.8190 C   0  0  0  0  0  0  0  0  0  0  0  0
  185.7120  179.1800  146.9890 C   0  0  0  0  0  2  0  0  0  0  0  0
  184.0950  177.8430  145.8220 O   0  0  0  0  0  1  0  0  0  0  0  0
  188.5940  177.4690  146.4840 C   0  0  1  0  0  3  0  0  0  0  0  0
  187.8890  178.0560  147.7140 C   0  0  0  0  0  2  0  0  0  0  0  0
  186.3670  177.6210  145.1200 C   0  0  0  0  0  0  0  0  0  0  0  0
  188.3560  177.5710  144.0060 N   0  0  0  0  0  0  0  0  0  0  0  0
  191.6830  178.9310  144.8960 O   0  0  0  0  0  1  0  0  0  0  0  0
  189.7970  177.7110  143.7950 C   0  0  2  0  0  3  0  0  0  0  0  0
  187.1790  179.3750  147.3980 C   0  0  0  0  0  2  0  0  0  0  0  0
  187.7620  177.4640  145.2230 C   0  0  0  0  0  0  0  0  0  0  0  0
  183.8880  177.8560  140.0400 O   0  0  0  0  0  0  0  0  0  0  0  0
  185.4700  179.4550  140.6910 N   0  0  0  0  0  2  0  0  0  0  0  0
  183.7380  179.9500  138.9310 C   0  0  0  0  0  1  0  0  0  0  0  0
  184.3440  179.0250  139.9220 C   0  0  0  0  0  0  0  0  0  0  0  0
  191.4110  175.8400  144.3090 N   0  0  0  0  0  2  0  0  0  0  0  0
  190.4130  176.3900  143.4490 C   0  0  0  0  0  0  0  0  0  0  0  0
  190.0230  175.7520  142.4330 O   0  0  0  0  0  0  0  0  0  0  0  0
  192.0310  174.5480  144.0590 C   0  0  0  0  0  2  0  0  0  0  0  0
  192.6900  174.1170  145.1960 F   0  0  0  0  0  0  0  0  0  0  0  0
  187.9360  178.2490  139.5670 C   0  0  0  0  0  2  0  0  0  0  0  0
  188.6890  177.1670  140.2970 C   0  0  0  0  0  2  0  0  0  0  0  0
  188.4150  178.4920  140.9910 C   0  0  0  0  0  3  0  0  0  0  0  0
  1 13  1  0  0  0  0
  2 10  1  6  0  0  0
  2  9  1  0  0  0  0
  4  1  2  0  0  0  0
  4 14  1  0  0  0  0
  5  1  1  0  0  0  0
  6  4  1  0  0  0  0
  7  3  2  0  0  0  0
  8  6  1  0  0  0  0
  8  5  2  0  0  0  0
  9 17  1  0  0  0  0
 11  3  1  6  0  0  0
 11 12  1  0  0  0  0
 13 18  2  0  0  0  0
 13  2  1  0  0  0  0
 14 18  1  0  0  0  0
 15  7  1  0  0  0  0
 16 24  1  1  0  0  0
 16 14  1  0  0  0  0
 16  7  1  0  0  0  0
 17 12  1  0  0  0  0
 18 11  1  0  0  0  0
 20  8  1  0  0  0  0
 21 22  1  0  0  0  0
 22 19  2  0  0  0  0
 22 20  1  0  0  0  0
 24 23  1  0  0  0  0
 25 24  2  0  0  0  0
 26 23  1  0  0  0  0
 26 27  1  0  0  0  0
 28 29  1  0  0  0  0
 28 30  1  0  0  0  0
 29 30  1  0  0  0  0
 30  6  1  0  0  0  0
M  END
>  <MODEL>
1

>  <REMARK>
 VINA RESULT:      -8.1      0.000      0.000
  Name = 
  4 active torsions:
  status: ('A' for Active; 'I' for Inactive)
    1  A    between atoms: N_7  and  C_16
    2  A    between atoms: N_8  and  C_30
    3  A    between atoms: N_9  and  C_12
    4  A    between atoms: C_10  and  C_25
                            x       y       z     vdW  Elec       q    Type
                         _______ _______ _______ _____ _____    ______ ____

>  <TORSDO>
F 4

$$$$
=
 OpenBabel10272413573D

 30 34  0  0  1  0  0  0  0  0999 V2000
  187.3830  178.3640  139.6160 C   0  0  0  0  0  0  0  0  0  0  0  0
  185.1170  178.6390  138.3830 C   0  0  1  0  0  3  0  0  0  0  0  0
  187.2290  175.1650  136.4690 C   0  0  0  0  0  3  0  0  0  0  0  0
  188.4670  177.6240  139.4180 C   0  0  0  0  0  0  0  0  0  0  0  0
  187.2740  178.6980  140.9470 C   0  0  0  0  0  3  0  0  0  0  0  0
  189.1480  177.4000  140.5500 N   0  0  0  0  0  0  0  0  0  0  0  0
  188.3890  174.8170  137.0470 C   0  0  0  0  0  0  0  0  0  0  0  0
  188.4170  178.0800  141.4880 C   0  0  0  0  0  0  0  0  0  0  0  0
  184.1580  177.4590  138.5760 C   0  0  0  0  0  2  0  0  0  0  0  0
  184.7980  179.6640  139.2750 O   0  0  0  0  0  1  0  0  0  0  0  0
  186.6890  176.5740  136.5020 C   0  0  1  0  0  3  0  0  0  0  0  0
  185.1570  176.5590  136.4030 C   0  0  0  0  0  2  0  0  0  0  0  0
  186.5560  178.2350  138.5190 C   0  0  0  0  0  0  0  0  0  0  0  0
  188.4140  176.9390  138.2620 N   0  0  0  0  0  0  0  0  0  0  0  0
  188.8250  173.5020  136.9470 O   0  0  0  0  0  1  0  0  0  0  0  0
  189.2330  175.8170  137.8020 C   0  0  2  0  0  3  0  0  0  0  0  0
  184.4950  176.2160  137.7400 C   0  0  0  0  0  2  0  0  0  0  0  0
  187.2370  177.3150  137.6980 C   0  0  0  0  0  0  0  0  0  0  0  0
  187.7770  176.0440  143.4620 O   0  0  0  0  0  0  0  0  0  0  0  0
  188.7160  178.1110  142.8880 N   0  0  0  0  0  2  0  0  0  0  0  0
  189.0530  177.0920  145.1670 C   0  0  0  0  0  1  0  0  0  0  0  0
  188.4890  177.0290  143.7950 C   0  0  0  0  0  0  0  0  0  0  0  0
  191.6350  175.6820  137.0410 N   0  0  0  0  0  2  0  0  0  0  0  0
  190.3530  176.3000  136.9320 C   0  0  0  0  0  0  0  0  0  0  0  0
  190.1520  177.2120  136.0840 O   0  0  0  0  0  0  0  0  0  0  0  0
  192.7620  176.0720  136.2070 C   0  0  0  0  0  2  0  0  0  0  0  0
  193.6550  176.8230  136.9490 F   0  0  0  0  0  0  0  0  0  0  0  0
  191.3530  177.3090  141.6170 C   0  0  0  0  0  2  0  0  0  0  0  0
  191.5520  177.3080  140.1230 C   0  0  0  0  0  2  0  0  0  0  0  0
  190.3540  176.5890  140.7230 C   0  0  0  0  0  3  0  0  0  0  0  0
  1  5  1  0  0  0  0
  2 13  1  0  0  0  0
  2  9  1  0  0  0  0
  2 10  1  1  0  0  0
  3 11  1  0  0  0  0
  3  7  2  0  0  0  0
  4  1  2  0  0  0  0
  4  6  1  0  0  0  0
  5  8  2  0  0  0  0
  6 30  1  0  0  0  0
  6  8  1  0  0  0  0
  7 16  1  0  0  0  0
  8 20  1  0  0  0  0
 11 12  1  1  0  0  0
 11 18  1  0  0  0  0
 12 17  1  0  0  0  0
 13  1  1  0  0  0  0
 14  4  1  0  0  0  0
 15  7  1  0  0  0  0
 16 24  1  6  0  0  0
 16 14  1  0  0  0  0
 17  9  1  0  0  0  0
 18 14  1  0  0  0  0
 18 13  2  0  0  0  0
 19 22  2  0  0  0  0
 20 22  1  0  0  0  0
 22 21  1  0  0  0  0
 24 23  1  0  0  0  0
 25 24  2  0  0  0  0
 26 27  1  0  0  0  0
 26 23  1  0  0  0  0
 29 30  1  0  0  0  0
 29 28  1  0  0  0  0
 30 28  1  0  0  0  0
M  END
>  <MODEL>
2

>  <REMARK>
 VINA RESULT:      -7.7      3.733      7.140
  Name = 
  4 active torsions:
  status: ('A' for Active; 'I' for Inactive)
    1  A    between atoms: N_7  and  C_16
    2  A    between atoms: N_8  and  C_30
    3  A    between atoms: N_9  and  C_12
    4  A    between atoms: C_10  and  C_25
                            x       y       z     vdW  Elec       q    Type
                         _______ _______ _______ _____ _____    ______ ____

>  <TORSDO>
F 4

$$$$
=
 OpenBabel10272413573D

 30 34  0  0  1  0  0  0  0  0999 V2000
  187.7340  178.0980  139.6460 C   0  0  0  0  0  0  0  0  0  0  0  0
  188.4360  178.3270  142.1330 C   0  0  1  0  0  3  0  0  0  0  0  0
  183.9440  178.3110  142.0440 C   0  0  0  0  0  3  0  0  0  0  0  0
  186.5800  178.1730  138.9930 C   0  0  0  0  0  0  0  0  0  0  0  0
  188.6270  177.3230  138.9420 C   0  0  0  0  0  3  0  0  0  0  0  0
  186.5950  177.4800  137.8470 N   0  0  0  0  0  0  0  0  0  0  0  0
  183.4000  178.1040  140.8340 C   0  0  0  0  0  0  0  0  0  0  0  0
  187.8660  176.9720  137.8110 C   0  0  0  0  0  0  0  0  0  0  0  0
  188.0440  177.1270  143.0020 C   0  0  0  0  0  2  0  0  0  0  0  0
  189.7670  178.2100  141.7290 O   0  0  0  0  0  1  0  0  0  0  0  0
  185.2950  178.9550  142.2340 C   0  0  1  0  0  3  0  0  0  0  0  0
  185.9370  178.4690  143.5400 C   0  0  0  0  0  2  0  0  0  0  0  0
  187.5280  178.4980  140.9510 C   0  0  0  0  0  0  0  0  0  0  0  0
  185.5660  178.5520  139.7900 N   0  0  0  0  0  0  0  0  0  0  0  0
  182.1390  177.5270  140.7500 O   0  0  0  0  0  1  0  0  0  0  0  0
  184.1220  178.4840  139.5620 C   0  0  2  0  0  3  0  0  0  0  0  0
  186.5600  177.0790  143.3950 C   0  0  0  0  0  2  0  0  0  0  0  0
  186.1450  178.7590  141.0020 C   0  0  0  0  0  0  0  0  0  0  0  0
  189.2740  177.7610  135.3930 O   0  0  0  0  0  0  0  0  0  0  0  0
  188.3700  176.1090  136.7850 N   0  0  0  0  0  2  0  0  0  0  0  0
  189.8240  175.5260  134.8120 C   0  0  0  0  0  1  0  0  0  0  0  0
  189.1640  176.5380  135.6760 C   0  0  0  0  0  0  0  0  0  0  0  0
  182.1980  179.9620  138.8690 N   0  0  0  0  0  2  0  0  0  0  0  0
  183.6040  179.7940  139.0520 C   0  0  0  0  0  0  0  0  0  0  0  0
  184.3970  180.7490  138.8300 O   0  0  0  0  0  0  0  0  0  0  0  0
  181.6160  181.2140  138.4100 C   0  0  0  0  0  2  0  0  0  0  0  0
  181.3500  181.1380  137.0550 F   0  0  0  0  0  0  0  0  0  0  0  0
  184.6470  176.0950  137.3040 C   0  0  0  0  0  2  0  0  0  0  0  0
  185.6470  175.9610  136.1850 C   0  0  0  0  0  2  0  0  0  0  0  0
  185.4940  177.2930  136.9010 C   0  0  0  0  0  3  0  0  0  0  0  0
  1 13  1  0  0  0  0
  2 10  1  6  0  0  0
  2  9  1  0  0  0  0
  4  1  2  0  0  0  0
  4 14  1  0  0  0  0
  5  1  1  0  0  0  0
  6  4  1  0  0  0  0
  7  3  2  0  0  0  0
  8  6  1  0  0  0  0
  8  5  2  0  0  0  0
  9 17  1  0  0  0  0
 11  3  1  6  0  0  0
 11 12  1  0  0  0  0
 13 18  2  0  0  0  0
 13  2  1  0  0  0  0
 14 18  1  0  0  0  0
 15  7  1  0  0  0  0
 16 24  1  1  0  0  0
 16 14  1  0  0  0  0
 16  7  1  0  0  0  0
 17 12  1  0  0  0  0
 18 11  1  0  0  0  0
 19 22  2  0  0  0  0
 20  8  1  0  0  0  0
 21 22  1  0  0  0  0
 22 20  1  0  0  0  0
 23 24  1  0  0  0  0
 25 24  2  0  0  0  0
 26 23  1  0  0  0  0
 27 26  1  0  0  0  0
 29 30  1  0  0  0  0
 29 28  1  0  0  0  0
 30 28  1  0  0  0  0
 30  6  1  0  0  0  0
M  END
>  <MODEL>
3

>  <REMARK>
 VINA RESULT:      -7.1      4.252      7.350
  Name = 
  4 active torsions:
  status: ('A' for Active; 'I' for Inactive)
    1  A    between atoms: N_7  and  C_16
    2  A    between atoms: N_8  and  C_30
    3  A    between atoms: N_9  and  C_12
    4  A    between atoms: C_10  and  C_25
                            x       y       z     vdW  Elec       q    Type
                         _______ _______ _______ _____ _____    ______ ____

>  <TORSDO>
F 4

$$$$
=
 OpenBabel10272413573D

 30 34  0  0  1  0  0  0  0  0999 V2000
  186.8040  178.5480  141.2160 C   0  0  0  0  0  0  0  0  0  0  0  0
  187.7490  178.4840  138.8010 C   0  0  1  0  0  3  0  0  0  0  0  0
  190.5200  176.0320  141.3520 C   0  0  0  0  0  3  0  0  0  0  0  0
  187.2450  178.1420  142.4010 C   0  0  0  0  0  0  0  0  0  0  0  0
  185.4280  178.5990  141.2150 C   0  0  0  0  0  3  0  0  0  0  0  0
  186.2480  177.8880  143.2590 N   0  0  0  0  0  0  0  0  0  0  0  0
  190.1300  175.8770  142.6270 C   0  0  0  0  0  0  0  0  0  0  0  0
  185.1290  178.1890  142.5280 C   0  0  0  0  0  0  0  0  0  0  0  0
  187.7220  177.0920  138.1610 C   0  0  0  0  0  2  0  0  0  0  0  0
  186.6400  179.2220  138.3870 O   0  0  0  0  0  1  0  0  0  0  0  0
  190.1480  177.2380  140.5240 C   0  0  1  0  0  3  0  0  0  0  0  0
  190.1130  176.8700  139.0340 C   0  0  0  0  0  2  0  0  0  0  0  0
  187.8270  178.4230  140.2990 C   0  0  0  0  0  0  0  0  0  0  0  0
  188.5080  177.6850  142.3460 N   0  0  0  0  0  0  0  0  0  0  0  0
  190.5390  174.7470  143.3250 O   0  0  0  0  0  1  0  0  0  0  0  0
  189.2610  176.8980  143.3230 C   0  0  2  0  0  3  0  0  0  0  0  0
  188.8240  176.1410  138.6490 C   0  0  0  0  0  2  0  0  0  0  0  0
  188.8760  177.8600  141.0500 C   0  0  0  0  0  0  0  0  0  0  0  0
  183.4650  180.2280  143.7620 O   0  0  0  0  0  0  0  0  0  0  0  0
  183.7840  178.0380  142.9970 N   0  0  0  0  0  2  0  0  0  0  0  0
  181.5180  178.8690  143.7180 C   0  0  0  0  0  1  0  0  0  0  0  0
  182.9660  179.1050  143.4840 C   0  0  0  0  0  0  0  0  0  0  0  0
  190.5550  179.0380  143.6600 N   0  0  0  0  0  2  0  0  0  0  0  0
  190.1060  177.7880  144.1820 C   0  0  0  0  0  0  0  0  0  0  0  0
  190.3810  177.4540  145.3670 O   0  0  0  0  0  0  0  0  0  0  0  0
  191.3500  179.9710  144.4440 C   0  0  0  0  0  2  0  0  0  0  0  0
  192.6690  179.5560  144.4680 F   0  0  0  0  0  0  0  0  0  0  0  0
  185.5090  178.2170  145.5730 C   0  0  0  0  0  2  0  0  0  0  0  0
  187.0010  178.4220  145.5210 C   0  0  0  0  0  2  0  0  0  0  0  0
  186.3530  177.3770  144.6260 C   0  0  0  0  0  3  0  0  0  0  0  0
  1  4  2  0  0  0  0
  2 10  1  1  0  0  0
  2 13  1  0  0  0  0
  3  7  2  0  0  0  0
  4  6  1  0  0  0  0
  5  1  1  0  0  0  0
  5  8  2  0  0  0  0
  6 30  1  0  0  0  0
  7 16  1  0  0  0  0
  7 15  1  0  0  0  0
  8 20  1  0  0  0  0
  8  6  1  0  0  0  0
  9 17  1  0  0  0  0
  9  2  1  0  0  0  0
 11 12  1  6  0  0  0
 11 18  1  0  0  0  0
 11  3  1  0  0  0  0
 13 18  2  0  0  0  0
 13  1  1  0  0  0  0
 14  4  1  0  0  0  0
 14 16  1  0  0  0  0
 16 24  1  6  0  0  0
 17 12  1  0  0  0  0
 18 14  1  0  0  0  0
 20 22  1  0  0  0  0
 22 21  1  0  0  0  0
 22 19  2  0  0  0  0
 23 24  1  0  0  0  0
 23 26  1  0  0  0  0
 24 25  2  0  0  0  0
 26 27  1  0  0  0  0
 29 28  1  0  0  0  0
 30 29  1  0  0  0  0
 30 28  1  0  0  0  0
M  END
>  <MODEL>
4

>  <REMARK>
 VINA RESULT:      -7.0      2.135      5.160
  Name = 
  4 active torsions:
  status: ('A' for Active; 'I' for Inactive)
    1  A    between atoms: N_7  and  C_16
    2  A    between atoms: N_8  and  C_30
    3  A    between atoms: N_9  and  C_12
    4  A    between atoms: C_10  and  C_25
                            x       y       z     vdW  Elec       q    Type
                         _______ _______ _______ _____ _____    ______ ____

>  <TORSDO>
F 4

$$$$
=
 OpenBabel10272413573D

 30 34  0  0  1  0  0  0  0  0999 V2000
  188.4610  176.8940  142.5240 C   0  0  0  0  0  0  0  0  0  0  0  0
  190.9070  176.0300  142.4810 C   0  0  1  0  0  3  0  0  0  0  0  0
  190.2070  178.1550  138.5840 C   0  0  0  0  0  3  0  0  0  0  0  0
  187.6560  177.4550  141.6300 C   0  0  0  0  0  0  0  0  0  0  0  0
  188.0770  177.2490  143.7980 C   0  0  0  0  0  3  0  0  0  0  0  0
  186.7060  178.2100  142.2000 N   0  0  0  0  0  0  0  0  0  0  0  0
  189.0110  178.7530  138.4700 C   0  0  0  0  0  0  0  0  0  0  0  0
  186.9590  178.0640  143.5380 C   0  0  0  0  0  0  0  0  0  0  0  0
  191.9590  177.1440  142.4620 C   0  0  0  0  0  2  0  0  0  0  0  0
  190.7260  175.5650  143.7850 O   0  0  0  0  0  1  0  0  0  0  0  0
  190.4330  176.9350  139.4430 C   0  0  1  0  0  3  0  0  0  0  0  0
  191.8900  176.8830  139.9210 C   0  0  0  0  0  2  0  0  0  0  0  0
  189.6030  176.4640  141.8790 C   0  0  0  0  0  0  0  0  0  0  0  0
  188.2010  177.4910  140.4030 N   0  0  0  0  0  0  0  0  0  0  0  0
  188.8850  179.8570  137.6370 O   0  0  0  0  0  1  0  0  0  0  0  0
  187.7980  178.2560  139.2220 C   0  0  2  0  0  3  0  0  0  0  0  0
  192.1450  177.8260  141.0990 C   0  0  0  0  0  2  0  0  0  0  0  0
  189.4040  176.8750  140.5470 C   0  0  0  0  0  0  0  0  0  0  0  0
  186.6070  177.1480  146.2740 O   0  0  0  0  0  0  0  0  0  0  0  0
  186.2310  178.7220  144.5820 N   0  0  0  0  0  2  0  0  0  0  0  0
  185.6000  179.1800  146.9770 C   0  0  0  0  0  1  0  0  0  0  0  0
  186.1910  178.2910  145.9440 C   0  0  0  0  0  0  0  0  0  0  0  0
  185.6640  177.9160  137.9180 N   0  0  0  0  0  2  0  0  0  0  0  0
  186.9420  177.4220  138.3180 C   0  0  0  0  0  0  0  0  0  0  0  0
  187.3660  176.3180  137.8800 O   0  0  0  0  0  0  0  0  0  0  0  0
  184.7910  177.1810  137.0160 C   0  0  0  0  0  2  0  0  0  0  0  0
  184.1800  176.1440  137.6970 F   0  0  0  0  0  0  0  0  0  0  0  0
  184.3870  178.9950  142.3290 C   0  0  0  0  0  2  0  0  0  0  0  0
  184.5240  178.1280  141.1040 C   0  0  0  0  0  2  0  0  0  0  0  0
  185.6830  179.0150  141.5310 C   0  0  0  0  0  3  0  0  0  0  0  0
  1  5  1  0  0  0  0
  2 10  1  1  0  0  0
  4  6  1  0  0  0  0
  4  1  2  0  0  0  0
  6  8  1  0  0  0  0
  7  3  2  0  0  0  0
  7 16  1  0  0  0  0
  8  5  2  0  0  0  0
  8 20  1  0  0  0  0
  9  2  1  0  0  0  0
 11  3  1  1  0  0  0
 11 12  1  0  0  0  0
 11 18  1  0  0  0  0
 12 17  1  0  0  0  0
 13  2  1  0  0  0  0
 13  1  1  0  0  0  0
 14 18  1  0  0  0  0
 14  4  1  0  0  0  0
 15  7  1  0  0  0  0
 16 24  1  6  0  0  0
 16 14  1  0  0  0  0
 17  9  1  0  0  0  0
 18 13  2  0  0  0  0
 20 22  1  0  0  0  0
 22 19  2  0  0  0  0
 22 21  1  0  0  0  0
 23 24  1  0  0  0  0
 25 24  2  0  0  0  0
 26 27  1  0  0  0  0
 26 23  1  0  0  0  0
 29 30  1  0  0  0  0
 29 28  1  0  0  0  0
 30  6  1  0  0  0  0
 30 28  1  0  0  0  0
M  END
>  <MODEL>
5

>  <REMARK>
 VINA RESULT:      -6.8      3.085      6.445
  Name = 
  4 active torsions:
  status: ('A' for Active; 'I' for Inactive)
    1  A    between atoms: N_7  and  C_16
    2  A    between atoms: N_8  and  C_30
    3  A    between atoms: N_9  and  C_12
    4  A    between atoms: C_10  and  C_25
                            x       y       z     vdW  Elec       q    Type
                         _______ _______ _______ _____ _____    ______ ____

>  <TORSDO>
F 4

$$$$
=
 OpenBabel10272413573D

 30 34  0  0  1  0  0  0  0  0999 V2000
  187.1970  178.5120  141.2630 C   0  0  0  0  0  0  0  0  0  0  0  0
  184.7100  179.2210  141.4720 C   0  0  1  0  0  3  0  0  0  0  0  0
  185.1070  176.9910  137.5910 C   0  0  0  0  0  3  0  0  0  0  0  0
  187.9320  177.9670  140.3010 C   0  0  0  0  0  0  0  0  0  0  0  0
  187.7440  178.2320  142.4950 C   0  0  0  0  0  3  0  0  0  0  0  0
  188.9880  177.2960  140.7830 N   0  0  0  0  0  0  0  0  0  0  0  0
  186.3200  176.4640  137.3610 C   0  0  0  0  0  0  0  0  0  0  0  0
  188.8770  177.4780  142.1350 C   0  0  0  0  0  0  0  0  0  0  0  0
  183.7390  178.0450  141.6100 C   0  0  0  0  0  2  0  0  0  0  0  0
  185.0050  179.7480  142.7310 O   0  0  0  0  0  1  0  0  0  0  0  0
  184.8990  178.2280  138.4310 C   0  0  1  0  0  3  0  0  0  0  0  0
  183.5050  178.2090  139.0710 C   0  0  0  0  0  2  0  0  0  0  0  0
  185.9640  178.8450  140.7390 C   0  0  0  0  0  0  0  0  0  0  0  0
  187.2560  177.8490  139.1460 N   0  0  0  0  0  0  0  0  0  0  0  0
  186.4240  175.3370  136.5550 O   0  0  0  0  0  1  0  0  0  0  0  0
  187.5740  177.0650  137.9520 C   0  0  2  0  0  3  0  0  0  0  0  0
  183.4460  177.2990  140.3000 C   0  0  0  0  0  2  0  0  0  0  0  0
  186.0390  178.3940  139.4070 C   0  0  0  0  0  0  0  0  0  0  0  0
  190.8480  178.8810  143.7460 O   0  0  0  0  0  0  0  0  0  0  0  0
  189.7600  176.9080  143.1090 N   0  0  0  0  0  2  0  0  0  0  0  0
  191.3150  176.9800  145.0900 C   0  0  0  0  0  1  0  0  0  0  0  0
  190.6250  177.6600  143.9640 C   0  0  0  0  0  0  0  0  0  0  0  0
  188.9120  177.2820  135.8230 N   0  0  0  0  0  2  0  0  0  0  0  0
  188.2660  177.9130  136.9290 C   0  0  0  0  0  0  0  0  0  0  0  0
  188.2390  179.1700  137.0220 O   0  0  0  0  0  0  0  0  0  0  0  0
  189.5750  178.0390  134.7720 C   0  0  0  0  0  2  0  0  0  0  0  0
  190.7100  177.3660  134.3570 F   0  0  0  0  0  0  0  0  0  0  0  0
  191.3880  176.9560  140.4170 C   0  0  0  0  0  2  0  0  0  0  0  0
  190.7820  177.4610  139.1330 C   0  0  0  0  0  2  0  0  0  0  0  0
  189.9800  176.5290  140.0270 C   0  0  0  0  0  3  0  0  0  0  0  0
  1  5  1  0  0  0  0
  2  9  1  0  0  0  0
  2 10  1  1  0  0  0
  4  6  1  0  0  0  0
  4  1  2  0  0  0  0
  6  8  1  0  0  0  0
  7  3  2  0  0  0  0
  7 16  1  0  0  0  0
  8  5  2  0  0  0  0
  8 20  1  0  0  0  0
 11  3  1  1  0  0  0
 11 12  1  0  0  0  0
 11 18  1  0  0  0  0
 12 17  1  0  0  0  0
 13  1  1  0  0  0  0
 13  2  1  0  0  0  0
 14 18  1  0  0  0  0
 14  4  1  0  0  0  0
 15  7  1  0  0  0  0
 16 24  1  6  0  0  0
 16 14  1  0  0  0  0
 17  9  1  0  0  0  0
 18 13  2  0  0  0  0
 19 22  2  0  0  0  0
 20 22  1  0  0  0  0
 22 21  1  0  0  0  0
 23 24  1  0  0  0  0
 24 25  2  0  0  0  0
 26 23  1  0  0  0  0
 27 26  1  0  0  0  0
 29 30  1  0  0  0  0
 29 28  1  0  0  0  0
 30 28  1  0  0  0  0
 30  6  1  0  0  0  0
M  END
>  <MODEL>
6

>  <REMARK>
 VINA RESULT:      -6.7      3.461      6.972
  Name = 
  4 active torsions:
  status: ('A' for Active; 'I' for Inactive)
    1  A    between atoms: N_7  and  C_16
    2  A    between atoms: N_8  and  C_30
    3  A    between atoms: N_9  and  C_12
    4  A    between atoms: C_10  and  C_25
                            x       y       z     vdW  Elec       q    Type
                         _______ _______ _______ _____ _____    ______ ____

>  <TORSDO>
F 4

$$$$
=
 OpenBabel10272413573D

 30 34  0  0  1  0  0  0  0  0999 V2000
  187.9720  177.2880  141.7250 C   0  0  0  0  0  0  0  0  0  0  0  0
  188.7410  176.8540  144.1640 C   0  0  1  0  0  3  0  0  0  0  0  0
  192.4620  177.3360  141.6930 C   0  0  0  0  0  3  0  0  0  0  0  0
  188.5920  177.3680  140.5530 C   0  0  0  0  0  0  0  0  0  0  0  0
  186.7970  178.0050  141.6890 C   0  0  0  0  0  3  0  0  0  0  0  0
  187.9200  178.1180  139.6690 N   0  0  0  0  0  0  0  0  0  0  0  0
  192.2520  177.6630  140.4080 C   0  0  0  0  0  0  0  0  0  0  0  0
  186.8050  178.4930  140.3690 C   0  0  0  0  0  0  0  0  0  0  0  0
  189.4710  178.0380  144.8050 C   0  0  0  0  0  2  0  0  0  0  0  0
  187.3980  176.8560  144.5480 O   0  0  0  0  0  1  0  0  0  0  0  0
  191.4670  176.5470  142.5090 C   0  0  1  0  0  3  0  0  0  0  0  0
  191.6070  176.8930  143.9970 C   0  0  0  0  0  2  0  0  0  0  0  0
  188.8730  176.8410  142.6700 C   0  0  0  0  0  0  0  0  0  0  0  0
  189.8950  177.0530  140.6430 N   0  0  0  0  0  0  0  0  0  0  0  0
  193.2320  178.3710  139.7220 O   0  0  0  0  0  1  0  0  0  0  0  0
  190.9800  177.2810  139.6870 C   0  0  2  0  0  3  0  0  0  0  0  0
  190.9260  178.2180  144.3480 C   0  0  0  0  0  2  0  0  0  0  0  0
  190.0760  176.7220  141.9480 C   0  0  0  0  0  0  0  0  0  0  0  0
  184.2290  177.6980  139.2810 O   0  0  0  0  0  0  0  0  0  0  0  0
  185.7770  179.3550  139.8640 N   0  0  0  0  0  2  0  0  0  0  0  0
  183.4240  179.9290  139.1740 C   0  0  0  0  0  1  0  0  0  0  0  0
  184.4780  178.9210  139.4540 C   0  0  0  0  0  0  0  0  0  0  0  0
  192.4920  175.8680  138.2420 N   0  0  0  0  0  2  0  0  0  0  0  0
  191.2140  176.0610  138.8500 C   0  0  0  0  0  0  0  0  0  0  0  0
  190.3070  175.1950  138.7200 O   0  0  0  0  0  0  0  0  0  0  0  0
  192.8060  174.6940  137.4440 C   0  0  0  0  0  2  0  0  0  0  0  0
  193.7530  173.9250  138.0960 F   0  0  0  0  0  0  0  0  0  0  0  0
  187.1280  178.3880  137.3650 C   0  0  0  0  0  2  0  0  0  0  0  0
  188.1380  177.2690  137.3880 C   0  0  0  0  0  2  0  0  0  0  0  0
  188.3220  178.4680  138.3060 C   0  0  0  0  0  3  0  0  0  0  0  0
  1 13  1  0  0  0  0
  2 10  1  6  0  0  0
  2  9  1  0  0  0  0
  4 14  1  0  0  0  0
  4  1  2  0  0  0  0
  5  1  1  0  0  0  0
  6  8  1  0  0  0  0
  6  4  1  0  0  0  0
  7  3  2  0  0  0  0
  8  5  2  0  0  0  0
 11  3  1  6  0  0  0
 11 12  1  0  0  0  0
 12 17  1  0  0  0  0
 13  2  1  0  0  0  0
 14 18  1  0  0  0  0
 15  7  1  0  0  0  0
 16 24  1  1  0  0  0
 16  7  1  0  0  0  0
 16 14  1  0  0  0  0
 17  9  1  0  0  0  0
 18 11  1  0  0  0  0
 18 13  2  0  0  0  0
 19 22  2  0  0  0  0
 20  8  1  0  0  0  0
 21 22  1  0  0  0  0
 22 20  1  0  0  0  0
 23 24  1  0  0  0  0
 25 24  2  0  0  0  0
 26 27  1  0  0  0  0
 26 23  1  0  0  0  0
 28 29  1  0  0  0  0
 28 30  1  0  0  0  0
 29 30  1  0  0  0  0
 30  6  1  0  0  0  0
M  END
>  <MODEL>
7

>  <REMARK>
 VINA RESULT:      -6.6      2.930      4.064
  Name = 
  4 active torsions:
  status: ('A' for Active; 'I' for Inactive)
    1  A    between atoms: N_7  and  C_16
    2  A    between atoms: N_8  and  C_30
    3  A    between atoms: N_9  and  C_12
    4  A    between atoms: C_10  and  C_25
                            x       y       z     vdW  Elec       q    Type
                         _______ _______ _______ _____ _____    ______ ____

>  <TORSDO>
F 4

$$$$
=
 OpenBabel10272413573D

 30 34  0  0  1  0  0  0  0  0999 V2000
  187.5070  177.4220  143.5060 C   0  0  0  0  0  0  0  0  0  0  0  0
  185.0530  177.8660  144.2180 C   0  0  1  0  0  3  0  0  0  0  0  0
  187.6230  178.7110  147.8050 C   0  0  0  0  0  3  0  0  0  0  0  0
  188.6680  177.3650  144.1490 C   0  0  0  0  0  0  0  0  0  0  0  0
  187.7130  177.7470  142.1840 C   0  0  0  0  0  3  0  0  0  0  0  0
  189.7090  177.6420  143.3510 N   0  0  0  0  0  0  0  0  0  0  0  0
  188.9450  178.6230  147.5910 C   0  0  0  0  0  0  0  0  0  0  0  0
  189.1160  177.8600  142.1360 C   0  0  0  0  0  0  0  0  0  0  0  0
  184.7600  179.3310  144.5570 C   0  0  0  0  0  2  0  0  0  0  0  0
  184.6620  177.5920  142.9060 O   0  0  0  0  0  1  0  0  0  0  0  0
  186.6110  177.9150  147.0180 C   0  0  1  0  0  3  0  0  0  0  0  0
  185.2700  178.6590  146.9690 C   0  0  0  0  0  2  0  0  0  0  0  0
  186.4920  177.5050  144.4370 C   0  0  0  0  0  0  0  0  0  0  0  0
  188.5190  177.4610  145.4810 N   0  0  0  0  0  0  0  0  0  0  0  0
  189.8090  179.3730  148.3790 O   0  0  0  0  0  1  0  0  0  0  0  0
  189.5180  177.7280  146.5160 C   0  0  2  0  0  3  0  0  0  0  0  0
  185.2710  179.7850  145.9320 C   0  0  0  0  0  2  0  0  0  0  0  0
  187.1760  177.5430  145.6680 C   0  0  0  0  0  0  0  0  0  0  0  0
  189.9730  176.1130  139.9770 O   0  0  0  0  0  0  0  0  0  0  0  0
  189.8140  178.2390  140.9440 N   0  0  0  0  0  2  0  0  0  0  0  0
  190.6200  177.9190  138.5790 C   0  0  0  0  0  1  0  0  0  0  0  0
  190.1040  177.3600  139.8550 C   0  0  0  0  0  0  0  0  0  0  0  0
  191.4100  176.1990  147.1900 N   0  0  0  0  0  2  0  0  0  0  0  0
  190.0060  176.4480  147.1240 C   0  0  0  0  0  0  0  0  0  0  0  0
  189.1870  175.6220  147.6110 O   0  0  0  0  0  0  0  0  0  0  0  0
  191.9620  174.9970  147.7950 C   0  0  0  0  0  2  0  0  0  0  0  0
  192.8650  175.3430  148.7840 F   0  0  0  0  0  0  0  0  0  0  0  0
  191.9910  177.1050  142.6380 C   0  0  0  0  0  2  0  0  0  0  0  0
  191.6950  176.3270  143.8940 C   0  0  0  0  0  2  0  0  0  0  0  0
  191.1220  177.7250  143.7220 C   0  0  0  0  0  3  0  0  0  0  0  0
  1  4  2  0  0  0  0
  1 13  1  0  0  0  0
  2 10  1  6  0  0  0
  2 13  1  0  0  0  0
  2  9  1  0  0  0  0
  4 14  1  0  0  0  0
  5  1  1  0  0  0  0
  6 30  1  0  0  0  0
  6  4  1  0  0  0  0
  7  3  2  0  0  0  0
  7 15  1  0  0  0  0
  8  5  2  0  0  0  0
  8  6  1  0  0  0  0
  9 17  1  0  0  0  0
 11 12  1  6  0  0  0
 11  3  1  0  0  0  0
 13 18  2  0  0  0  0
 14 18  1  0  0  0  0
 14 16  1  0  0  0  0
 16 24  1  1  0  0  0
 16  7  1  0  0  0  0
 17 12  1  0  0  0  0
 18 11  1  0  0  0  0
 20  8  1  0  0  0  0
 21 22  1  0  0  0  0
 22 19  2  0  0  0  0
 22 20  1  0  0  0  0
 23 26  1  0  0  0  0
 24 23  1  0  0  0  0
 24 25  2  0  0  0  0
 26 27  1  0  0  0  0
 28 30  1  0  0  0  0
 28 29  1  0  0  0  0
 30 29  1  0  0  0  0
M  END
>  <MODEL>
8

>  <REMARK>
 VINA RESULT:      -6.4      2.394      3.671
  Name = 
  4 active torsions:
  status: ('A' for Active; 'I' for Inactive)
    1  A    between atoms: N_7  and  C_16
    2  A    between atoms: N_8  and  C_30
    3  A    between atoms: N_9  and  C_12
    4  A    between atoms: C_10  and  C_25
                            x       y       z     vdW  Elec       q    Type
                         _______ _______ _______ _____ _____    ______ ____

>  <TORSDO>
F 4

$$$$
=
 OpenBabel10272413573D

 30 34  0  0  1  0  0  0  0  0999 V2000
  187.3640  178.7790  140.3000 C   0  0  0  0  0  0  0  0  0  0  0  0
  189.0380  178.6990  138.3190 C   0  0  1  0  0  3  0  0  0  0  0  0
  190.7080  176.0530  141.5440 C   0  0  0  0  0  3  0  0  0  0  0  0
  187.3770  178.3290  141.5490 C   0  0  0  0  0  0  0  0  0  0  0  0
  186.0670  178.9080  139.8560 C   0  0  0  0  0  3  0  0  0  0  0  0
  186.1440  178.1180  142.0300 N   0  0  0  0  0  0  0  0  0  0  0  0
  189.9190  175.9000  142.6180 C   0  0  0  0  0  0  0  0  0  0  0  0
  185.3390  178.4940  140.9870 C   0  0  0  0  0  0  0  0  0  0  0  0
  189.1530  177.3220  137.6580 C   0  0  0  0  0  2  0  0  0  0  0  0
  188.1600  179.5060  137.5930 O   0  0  0  0  0  1  0  0  0  0  0  0
  190.6840  177.2910  140.6810 C   0  0  1  0  0  3  0  0  0  0  0  0
  191.1170  176.9500  139.2490 C   0  0  0  0  0  2  0  0  0  0  0  0
  188.6230  178.6100  139.7580 C   0  0  0  0  0  0  0  0  0  0  0  0
  188.5660  177.8020  141.8890 N   0  0  0  0  0  0  0  0  0  0  0  0
  190.0240  174.7380  143.3720 O   0  0  0  0  0  1  0  0  0  0  0  0
  188.9220  176.9570  143.0300 C   0  0  2  0  0  3  0  0  0  0  0  0
  189.9890  176.3020  138.4430 C   0  0  0  0  0  2  0  0  0  0  0  0
  189.3430  177.9770  140.7890 C   0  0  0  0  0  0  0  0  0  0  0  0
  183.6600  177.0950  139.0710 O   0  0  0  0  0  0  0  0  0  0  0  0
  183.9090  178.4120  140.9910 N   0  0  0  0  0  2  0  0  0  0  0  0
  181.6840  177.4220  140.3470 C   0  0  0  0  0  1  0  0  0  0  0  0
  183.1360  177.6090  140.0960 C   0  0  0  0  0  0  0  0  0  0  0  0
  189.3370  177.3290  145.4910 N   0  0  0  0  0  2  0  0  0  0  0  0
  189.4850  177.7830  144.1460 C   0  0  0  0  0  0  0  0  0  0  0  0
  190.1190  178.8440  143.8950 O   0  0  0  0  0  0  0  0  0  0  0  0
  189.8860  178.0580  146.6250 C   0  0  0  0  0  2  0  0  0  0  0  0
  188.8670  178.4130  147.4900 F   0  0  0  0  0  0  0  0  0  0  0  0
  184.6450  178.3960  143.9490 C   0  0  0  0  0  2  0  0  0  0  0  0
  186.0600  178.6090  144.4210 C   0  0  0  0  0  2  0  0  0  0  0  0
  185.7750  177.5790  143.3390 C   0  0  0  0  0  3  0  0  0  0  0  0
  1  4  2  0  0  0  0
  2 10  1  6  0  0  0
  2 13  1  0  0  0  0
  3  7  2  0  0  0  0
  4 14  1  0  0  0  0
  4  6  1  0  0  0  0
  5  1  1  0  0  0  0
  5  8  2  0  0  0  0
  6 30  1  0  0  0  0
  7 16  1  0  0  0  0
  7 15  1  0  0  0  0
  8 20  1  0  0  0  0
  8  6  1  0  0  0  0
  9  2  1  0  0  0  0
  9 17  1  0  0  0  0
 11 12  1  6  0  0  0
 11 18  1  0  0  0  0
 11  3  1  0  0  0  0
 13  1  1  0  0  0  0
 13 18  2  0  0  0  0
 14 16  1  0  0  0  0
 16 24  1  1  0  0  0
 17 12  1  0  0  0  0
 18 14  1  0  0  0  0
 19 22  2  0  0  0  0
 22 21  1  0  0  0  0
 22 20  1  0  0  0  0
 23 26  1  0  0  0  0
 24 23  1  0  0  0  0
 25 24  2  0  0  0  0
 26 27  1  0  0  0  0
 28 29  1  0  0  0  0
 30 28  1  0  0  0  0
 30 29  1  0  0  0  0
M  END
>  <MODEL>
9

>  <REMARK>
 VINA RESULT:      -6.4      2.356      5.216
  Name = 
  4 active torsions:
  status: ('A' for Active; 'I' for Inactive)
    1  A    between atoms: N_7  and  C_16
    2  A    between atoms: N_8  and  C_30
    3  A    between atoms: N_9  and  C_12
    4  A    between atoms: C_10  and  C_25
                            x       y       z     vdW  Elec       q    Type
                         _______ _______ _______ _____ _____    ______ ____

>  <TORSDO>
F 4

$$$$
