=
 OpenBabel10272401013D

 27 30  0  0  1  0  0  0  0  0999 V2000
  181.4250  176.7450  140.3400 N   0  0  0  0  0  2  0  0  0  0  0  0
  180.4550  174.9320  139.1880 N   0  0  0  0  0  2  0  0  0  0  0  0
  184.2720  179.1850  140.1250 C   0  0  1  0  0  3  0  0  0  0  0  0
  183.3770  178.3800  137.8980 C   0  0  0  0  0  3  0  0  0  0  0  0
  180.9590  177.1010  137.6780 S   0  0  0  0  0  0  0  0  0  0  0  0
  184.5920  178.8800  138.6420 C   0  0  2  0  0  3  0  0  0  0  0  0
  180.7770  176.1810  139.2020 C   0  0  0  0  0  0  0  0  0  0  0  0
  182.1140  177.9800  140.0240 C   0  0  2  0  0  3  0  0  0  0  0  0
  182.2650  177.9720  138.5300 C   0  0  0  0  0  0  0  0  0  0  0  0
  183.4590  178.0500  140.7390 C   0  0  0  0  0  2  0  0  0  0  0  0
  185.4490  179.4200  140.8950 O   0  0  0  0  0  0  0  0  0  0  0  0
  185.9690  178.0970  144.8480 C   0  0  0  0  0  3  0  0  0  0  0  0
  185.5990  178.9860  142.2160 C   0  0  0  0  0  0  0  0  0  0  0  0
  184.7900  179.4810  143.2520 C   0  0  0  0  0  3  0  0  0  0  0  0
  184.9760  179.0380  144.5640 C   0  0  0  0  0  3  0  0  0  0  0  0
  186.7750  177.5980  143.8210 C   0  0  0  0  0  3  0  0  0  0  0  0
  186.5900  178.0420  142.5090 C   0  0  0  0  0  3  0  0  0  0  0  0
  185.7030  177.8430  138.4920 C   0  0  0  0  0  2  0  0  0  0  0  0
  188.1560  178.1940  137.8940 C   0  0  0  0  0  0  0  0  0  0  0  0
  186.9880  178.1000  134.8900 C   0  0  0  0  0  1  0  0  0  0  0  0
  187.0270  175.9860  136.2620 C   0  0  0  0  0  2  0  0  0  0  0  0
  188.9750  178.8870  137.0000 O   0  0  0  0  0  1  0  0  0  0  0  0
  188.2540  178.8060  139.1450 O   0  0  0  0  0  1  0  0  0  0  0  0
  186.4580  177.4020  136.1310 C   0  0  1  0  0  3  0  0  0  0  0  0
  188.4920  176.0060  136.6880 C   0  0  0  0  0  2  0  0  0  0  0  0
  188.6440  176.7470  138.0120 C   0  0  0  0  0  2  0  0  0  0  0  0
  186.6930  178.2440  137.3980 C   0  0  1  0  0  3  0  0  0  0  0  0
  2  7  2  0  0  0  0
  3 10  1  0  0  0  0
  3 11  1  1  0  0  0
  4  9  2  0  0  0  0
  4  6  1  0  0  0  0
  5  9  1  0  0  0  0
  5  7  1  0  0  0  0
  6 18  1  1  0  0  0
  6  3  1  0  0  0  0
  7  1  1  0  0  0  0
  8  1  1  0  0  0  0
  8 10  1  1  0  0  0
  9  8  1  0  0  0  0
 11 13  1  0  0  0  0
 13 17  2  0  0  0  0
 13 14  1  0  0  0  0
 14 15  2  0  0  0  0
 15 12  1  0  0  0  0
 16 12  2  0  0  0  0
 17 16  1  0  0  0  0
 19 26  1  0  0  0  0
 19 23  1  0  0  0  0
 21 25  1  0  0  0  0
 22 19  1  0  0  0  0
 24 20  1  6  0  0  0
 24 21  1  0  0  0  0
 24 27  1  0  0  0  0
 25 26  1  0  0  0  0
 27 19  1  0  0  0  0
 27 18  1  1  0  0  0
M  END
>  <MODEL>
1

>  <REMARK>
 VINA RESULT:      -7.1      0.000      0.000
  Name = 
  4 active torsions:
  status: ('A' for Active; 'I' for Inactive)
    1  A    between atoms: O_2  and  C_6
    2  A    between atoms: O_2  and  C_9
    3  A    between atoms: C_3  and  C_14
    4  A    between atoms: C_3  and  C_26
                            x       y       z     vdW  Elec       q    Type
                         _______ _______ _______ _____ _____    ______ ____

>  <TORSDO>
F 4

$$$$
=
 OpenBabel10272401013D

 27 30  0  0  1  0  0  0  0  0999 V2000
  185.2270  179.8090  145.5090 N   0  0  0  0  0  2  0  0  0  0  0  0
  186.0710  179.8490  147.7100 N   0  0  0  0  0  2  0  0  0  0  0  0
  185.9630  178.4210  142.0980 C   0  0  1  0  0  3  0  0  0  0  0  0
  186.7850  177.0090  144.0320 C   0  0  0  0  0  3  0  0  0  0  0  0
  185.9000  177.4030  146.6010 S   0  0  0  0  0  0  0  0  0  0  0  0
  187.0240  177.4100  142.5960 C   0  0  2  0  0  3  0  0  0  0  0  0
  185.5980  179.1630  146.7240 C   0  0  0  0  0  0  0  0  0  0  0  0
  185.1670  178.8860  144.3940 C   0  0  2  0  0  3  0  0  0  0  0  0
  185.9490  177.6840  144.8370 C   0  0  0  0  0  0  0  0  0  0  0  0
  185.7470  179.5200  143.1340 C   0  0  0  0  0  2  0  0  0  0  0  0
  186.3110  178.9910  140.8390 O   0  0  0  0  0  0  0  0  0  0  0  0
  184.9960  177.4400  137.1620 C   0  0  0  0  0  3  0  0  0  0  0  0
  185.8530  178.4870  139.6170 C   0  0  0  0  0  0  0  0  0  0  0  0
  184.4820  178.4120  139.3180 C   0  0  0  0  0  3  0  0  0  0  0  0
  184.0570  177.8890  138.0940 C   0  0  0  0  0  3  0  0  0  0  0  0
  186.3620  177.5150  137.4540 C   0  0  0  0  0  3  0  0  0  0  0  0
  186.7870  178.0380  138.6780 C   0  0  0  0  0  3  0  0  0  0  0  0
  188.4440  177.9600  142.4850 C   0  0  0  0  0  2  0  0  0  0  0  0
  190.5870  176.6200  142.8190 C   0  0  0  0  0  0  0  0  0  0  0  0
  190.2170  177.6090  145.8650 C   0  0  0  0  0  1  0  0  0  0  0  0
  190.8570  179.2870  144.0960 C   0  0  0  0  0  2  0  0  0  0  0  0
  191.2050  175.7520  143.7210 O   0  0  0  0  0  1  0  0  0  0  0  0
  190.1570  175.8770  141.7180 O   0  0  0  0  0  1  0  0  0  0  0  0
  189.7860  178.3080  144.5870 C   0  0  1  0  0  3  0  0  0  0  0  0
  192.0540  178.5550  143.4960 C   0  0  0  0  0  2  0  0  0  0  0  0
  191.6020  177.6640  142.3440 C   0  0  0  0  0  2  0  0  0  0  0  0
  189.3770  177.2970  143.5000 C   0  0  1  0  0  3  0  0  0  0  0  0
  1  7  1  0  0  0  0
  3 11  1  6  0  0  0
  3  6  1  0  0  0  0
  3 10  1  0  0  0  0
  4  9  2  0  0  0  0
  5  7  1  0  0  0  0
  6 18  1  1  0  0  0
  6  4  1  0  0  0  0
  7  2  2  0  0  0  0
  8 10  1  6  0  0  0
  8  9  1  0  0  0  0
  8  1  1  0  0  0  0
  9  5  1  0  0  0  0
 12 16  2  0  0  0  0
 12 15  1  0  0  0  0
 13 11  1  0  0  0  0
 14 13  1  0  0  0  0
 15 14  2  0  0  0  0
 16 17  1  0  0  0  0
 17 13  2  0  0  0  0
 19 27  1  0  0  0  0
 19 22  1  0  0  0  0
 21 24  1  0  0  0  0
 23 19  1  0  0  0  0
 24 20  1  1  0  0  0
 25 21  1  0  0  0  0
 26 19  1  0  0  0  0
 26 25  1  0  0  0  0
 27 18  1  6  0  0  0
 27 24  1  0  0  0  0
M  END
>  <MODEL>
2

>  <REMARK>
 VINA RESULT:      -6.9      4.040      6.965
  Name = 
  4 active torsions:
  status: ('A' for Active; 'I' for Inactive)
    1  A    between atoms: O_2  and  C_6
    2  A    between atoms: O_2  and  C_9
    3  A    between atoms: C_3  and  C_14
    4  A    between atoms: C_3  and  C_26
                            x       y       z     vdW  Elec       q    Type
                         _______ _______ _______ _____ _____    ______ ____

>  <TORSDO>
F 4

$$$$
=
 OpenBabel10272401013D

 27 30  0  0  1  0  0  0  0  0999 V2000
  194.6520  175.8150  136.9250 N   0  0  0  0  0  2  0  0  0  0  0  0
  195.1540  175.3750  134.6640 N   0  0  0  0  0  2  0  0  0  0  0  0
  191.7470  176.2930  139.2580 C   0  0  1  0  0  3  0  0  0  0  0  0
  191.3070  174.7560  137.2940 C   0  0  0  0  0  3  0  0  0  0  0  0
  193.3420  173.7220  135.7710 S   0  0  0  0  0  0  0  0  0  0  0  0
  190.6950  175.7330  138.2700 C   0  0  2  0  0  3  0  0  0  0  0  0
  194.6100  174.9850  135.7680 C   0  0  0  0  0  0  0  0  0  0  0  0
  193.6350  175.4580  137.8940 C   0  0  2  0  0  3  0  0  0  0  0  0
  192.6340  174.6420  137.1270 C   0  0  0  0  0  0  0  0  0  0  0  0
  193.0120  176.7060  138.5110 C   0  0  0  0  0  2  0  0  0  0  0  0
  191.2440  177.3880  140.0180 O   0  0  0  0  0  0  0  0  0  0  0  0
  189.6310  176.9380  143.8720 C   0  0  0  0  0  3  0  0  0  0  0  0
  190.7260  177.2490  141.3100 C   0  0  0  0  0  0  0  0  0  0  0  0
  191.5580  177.2500  142.4420 C   0  0  0  0  0  3  0  0  0  0  0  0
  191.0100  177.0940  143.7190 C   0  0  0  0  0  3  0  0  0  0  0  0
  188.7980  176.9390  142.7490 C   0  0  0  0  0  3  0  0  0  0  0  0
  189.3450  177.0950  141.4720 C   0  0  0  0  0  3  0  0  0  0  0  0
  190.0070  176.8370  137.4710 C   0  0  0  0  0  2  0  0  0  0  0  0
  187.9480  178.2930  137.8460 C   0  0  0  0  0  0  0  0  0  0  0  0
  186.4130  175.5390  137.1750 C   0  0  0  0  0  1  0  0  0  0  0  0
  187.6410  176.7430  135.3330 C   0  0  0  0  0  2  0  0  0  0  0  0
  186.6750  178.2600  138.4180 O   0  0  0  0  0  1  0  0  0  0  0  0
  188.7800  179.0560  138.6680 O   0  0  0  0  0  1  0  0  0  0  0  0
  187.7660  176.0120  136.6720 C   0  0  1  0  0  3  0  0  0  0  0  0
  187.0280  178.1300  135.5050 C   0  0  0  0  0  2  0  0  0  0  0  0
  187.8680  178.9600  136.4700 C   0  0  0  0  0  2  0  0  0  0  0  0
  188.5000  176.8550  137.7310 C   0  0  1  0  0  3  0  0  0  0  0  0
  1  8  1  0  0  0  0
  2  7  2  0  0  0  0
  3 11  1  6  0  0  0
  4  6  1  0  0  0  0
  5  9  1  0  0  0  0
  6 18  1  6  0  0  0
  6  3  1  0  0  0  0
  7  5  1  0  0  0  0
  7  1  1  0  0  0  0
  8 10  1  6  0  0  0
  9  4  2  0  0  0  0
  9  8  1  0  0  0  0
 10  3  1  0  0  0  0
 11 13  1  0  0  0  0
 13 17  2  0  0  0  0
 13 14  1  0  0  0  0
 14 15  2  0  0  0  0
 15 12  1  0  0  0  0
 16 12  2  0  0  0  0
 17 16  1  0  0  0  0
 19 22  1  0  0  0  0
 19 23  1  0  0  0  0
 21 25  1  0  0  0  0
 21 24  1  0  0  0  0
 24 20  1  1  0  0  0
 24 27  1  0  0  0  0
 25 26  1  0  0  0  0
 26 19  1  0  0  0  0
 27 18  1  6  0  0  0
 27 19  1  0  0  0  0
M  END
>  <MODEL>
3

>  <REMARK>
 VINA RESULT:      -6.8      5.587      7.717
  Name = 
  4 active torsions:
  status: ('A' for Active; 'I' for Inactive)
    1  A    between atoms: O_2  and  C_6
    2  A    between atoms: O_2  and  C_9
    3  A    between atoms: C_3  and  C_14
    4  A    between atoms: C_3  and  C_26
                            x       y       z     vdW  Elec       q    Type
                         _______ _______ _______ _____ _____    ______ ____

>  <TORSDO>
F 4

$$$$
=
 OpenBabel10272401013D

 27 30  0  0  1  0  0  0  0  0999 V2000
  181.2570  177.3730  139.7830 N   0  0  0  0  0  2  0  0  0  0  0  0
  180.2480  176.7540  137.7440 N   0  0  0  0  0  2  0  0  0  0  0  0
  184.4700  178.7170  141.1890 C   0  0  1  0  0  3  0  0  0  0  0  0
  183.9400  179.4550  138.8260 C   0  0  0  0  0  3  0  0  0  0  0  0
  181.4360  179.1680  137.7390 S   0  0  0  0  0  0  0  0  0  0  0  0
  185.0380  179.1540  139.8180 C   0  0  2  0  0  3  0  0  0  0  0  0
  180.7760  177.6770  138.4760 C   0  0  0  0  0  0  0  0  0  0  0  0
  182.2050  178.3590  140.2610 C   0  0  2  0  0  3  0  0  0  0  0  0
  182.6650  179.0890  139.0320 C   0  0  0  0  0  0  0  0  0  0  0  0
  183.3570  177.6900  141.0010 C   0  0  0  0  0  2  0  0  0  0  0  0
  185.4800  178.1970  142.0510 O   0  0  0  0  0  0  0  0  0  0  0  0
  185.3150  178.3790  146.2450 C   0  0  0  0  0  3  0  0  0  0  0  0
  185.4010  178.2590  143.4460 C   0  0  0  0  0  0  0  0  0  0  0  0
  184.3000  178.8390  144.0980 C   0  0  0  0  0  3  0  0  0  0  0  0
  184.2580  178.8990  145.4930 C   0  0  0  0  0  3  0  0  0  0  0  0
  186.4120  177.7980  145.6020 C   0  0  0  0  0  3  0  0  0  0  0  0
  186.4530  177.7390  144.2070 C   0  0  0  0  0  3  0  0  0  0  0  0
  185.9540  178.0960  139.2070 C   0  0  0  0  0  2  0  0  0  0  0  0
  187.2330  178.2100  137.0040 C   0  0  0  0  0  0  0  0  0  0  0  0
  184.4560  177.0640  135.8330 C   0  0  0  0  0  1  0  0  0  0  0  0
  185.9000  175.5700  137.2590 C   0  0  0  0  0  2  0  0  0  0  0  0
  187.0640  178.5430  135.6590 O   0  0  0  0  0  1  0  0  0  0  0  0
  187.9700  179.2250  137.6190 O   0  0  0  0  0  1  0  0  0  0  0  0
  185.0600  176.8490  137.2100 C   0  0  1  0  0  3  0  0  0  0  0  0
  187.2230  175.7380  136.5160 C   0  0  0  0  0  2  0  0  0  0  0  0
  188.0150  176.8990  137.1090 C   0  0  0  0  0  2  0  0  0  0  0  0
  185.8490  178.0840  137.6810 C   0  0  1  0  0  3  0  0  0  0  0  0
  1  8  1  0  0  0  0
  2  7  2  0  0  0  0
  3 11  1  1  0  0  0
  4  9  2  0  0  0  0
  4  6  1  0  0  0  0
  5  7  1  0  0  0  0
  5  9  1  0  0  0  0
  6 18  1  6  0  0  0
  6  3  1  0  0  0  0
  7  1  1  0  0  0  0
  8 10  1  6  0  0  0
  9  8  1  0  0  0  0
 10  3  1  0  0  0  0
 11 13  1  0  0  0  0
 13 14  2  0  0  0  0
 13 17  1  0  0  0  0
 14 15  1  0  0  0  0
 15 12  2  0  0  0  0
 16 12  1  0  0  0  0
 17 16  2  0  0  0  0
 19 26  1  0  0  0  0
 19 23  1  0  0  0  0
 19 27  1  0  0  0  0
 22 19  1  0  0  0  0
 24 20  1  6  0  0  0
 24 21  1  0  0  0  0
 24 27  1  0  0  0  0
 25 26  1  0  0  0  0
 25 21  1  0  0  0  0
 27 18  1  1  0  0  0
M  END
>  <MODEL>
4

>  <REMARK>
 VINA RESULT:      -6.8      1.338      1.561
  Name = 
  4 active torsions:
  status: ('A' for Active; 'I' for Inactive)
    1  A    between atoms: O_2  and  C_6
    2  A    between atoms: O_2  and  C_9
    3  A    between atoms: C_3  and  C_14
    4  A    between atoms: C_3  and  C_26
                            x       y       z     vdW  Elec       q    Type
                         _______ _______ _______ _____ _____    ______ ____

>  <TORSDO>
F 4

$$$$
=
 OpenBabel10272401013D

 27 30  0  0  1  0  0  0  0  0999 V2000
  186.2410  177.1150  137.3480 N   0  0  0  0  0  2  0  0  0  0  0  0
  187.3110  175.8380  135.6810 N   0  0  0  0  0  2  0  0  0  0  0  0
  186.8880  178.7750  140.6550 C   0  0  1  0  0  3  0  0  0  0  0  0
  188.8920  178.6340  139.1130 C   0  0  0  0  0  3  0  0  0  0  0  0
  188.6360  178.0520  136.4430 S   0  0  0  0  0  0  0  0  0  0  0  0
  188.4290  178.6740  140.5500 C   0  0  2  0  0  3  0  0  0  0  0  0
  187.2340  176.9450  136.3400 C   0  0  0  0  0  0  0  0  0  0  0  0
  186.5760  178.1780  138.2740 C   0  0  2  0  0  3  0  0  0  0  0  0
  188.0500  178.4040  138.0930 C   0  0  0  0  0  0  0  0  0  0  0  0
  186.2240  177.7830  139.7040 C   0  0  0  0  0  2  0  0  0  0  0  0
  186.4220  178.5690  141.9860 O   0  0  0  0  0  0  0  0  0  0  0  0
  182.3890  178.8370  143.1300 C   0  0  0  0  0  3  0  0  0  0  0  0
  185.0730  178.6490  142.3460 C   0  0  0  0  0  0  0  0  0  0  0  0
  184.0540  178.6940  141.3810 C   0  0  0  0  0  3  0  0  0  0  0  0
  182.7160  178.7890  141.7730 C   0  0  0  0  0  3  0  0  0  0  0  0
  183.3990  178.7900  144.0960 C   0  0  0  0  0  3  0  0  0  0  0  0
  184.7370  178.6950  143.7030 C   0  0  0  0  0  3  0  0  0  0  0  0
  188.9770  177.4400  141.2630 C   0  0  0  0  0  2  0  0  0  0  0  0
  189.1180  176.5170  143.6350 C   0  0  0  0  0  0  0  0  0  0  0  0
  190.9020  179.1630  144.0950 C   0  0  0  0  0  1  0  0  0  0  0  0
  191.8260  177.2850  142.6910 C   0  0  0  0  0  2  0  0  0  0  0  0
  189.1000  176.9250  144.9700 O   0  0  0  0  0  1  0  0  0  0  0  0
  187.8960  175.9060  143.3460 O   0  0  0  0  0  1  0  0  0  0  0  0
  190.7320  178.3480  142.8240 C   0  0  1  0  0  3  0  0  0  0  0  0
  191.6090  176.1310  143.6650 C   0  0  0  0  0  2  0  0  0  0  0  0
  190.2410  175.4960  143.4320 C   0  0  0  0  0  2  0  0  0  0  0  0
  189.3180  177.7470  142.7220 C   0  0  1  0  0  3  0  0  0  0  0  0
  1  8  1  0  0  0  0
  2  7  2  0  0  0  0
  3 11  1  1  0  0  0
  4  6  1  0  0  0  0
  5  9  1  0  0  0  0
  6  3  1  0  0  0  0
  6 18  1  1  0  0  0
  7  5  1  0  0  0  0
  7  1  1  0  0  0  0
  8 10  1  1  0  0  0
  9  8  1  0  0  0  0
  9  4  2  0  0  0  0
 10  3  1  0  0  0  0
 11 13  1  0  0  0  0
 12 16  1  0  0  0  0
 13 17  1  0  0  0  0
 14 15  1  0  0  0  0
 14 13  2  0  0  0  0
 15 12  2  0  0  0  0
 17 16  2  0  0  0  0
 19 22  1  0  0  0  0
 21 24  1  0  0  0  0
 21 25  1  0  0  0  0
 23 19  1  0  0  0  0
 24 20  1  1  0  0  0
 26 19  1  0  0  0  0
 26 25  1  0  0  0  0
 27 18  1  6  0  0  0
 27 24  1  0  0  0  0
 27 19  1  0  0  0  0
M  END
>  <MODEL>
5

>  <REMARK>
 VINA RESULT:      -6.7      3.715      5.742
  Name = 
  4 active torsions:
  status: ('A' for Active; 'I' for Inactive)
    1  A    between atoms: O_2  and  C_6
    2  A    between atoms: O_2  and  C_9
    3  A    between atoms: C_3  and  C_14
    4  A    between atoms: C_3  and  C_26
                            x       y       z     vdW  Elec       q    Type
                         _______ _______ _______ _____ _____    ______ ____

>  <TORSDO>
F 4

$$$$
=
 OpenBabel10272401013D

 27 30  0  0  1  0  0  0  0  0999 V2000
  188.1540  175.6410  137.3410 N   0  0  0  0  0  2  0  0  0  0  0  0
  188.8820  173.4270  136.9890 N   0  0  0  0  0  2  0  0  0  0  0  0
  188.4620  178.4910  139.7680 C   0  0  1  0  0  3  0  0  0  0  0  0
  190.4770  176.9620  139.6440 C   0  0  0  0  0  3  0  0  0  0  0  0
  190.8310  175.1840  137.5840 S   0  0  0  0  0  0  0  0  0  0  0  0
  189.6690  177.8860  140.5250 C   0  0  2  0  0  3  0  0  0  0  0  0
  189.1790  174.6760  137.1180 C   0  0  0  0  0  0  0  0  0  0  0  0
  188.6710  176.8680  137.9120 C   0  0  2  0  0  3  0  0  0  0  0  0
  190.0170  176.5040  138.4690 C   0  0  0  0  0  0  0  0  0  0  0  0
  187.7290  177.4080  138.9830 C   0  0  0  0  0  2  0  0  0  0  0  0
  187.5590  179.1640  140.6410 O   0  0  0  0  0  0  0  0  0  0  0  0
  183.5250  178.0930  141.1260 C   0  0  0  0  0  3  0  0  0  0  0  0
  186.2150  178.8010  140.7800 C   0  0  0  0  0  0  0  0  0  0  0  0
  185.3330  178.8090  139.6860 C   0  0  0  0  0  3  0  0  0  0  0  0
  183.9920  178.4560  139.8610 C   0  0  0  0  0  3  0  0  0  0  0  0
  184.3990  178.0810  142.2180 C   0  0  0  0  0  3  0  0  0  0  0  0
  185.7400  178.4340  142.0430 C   0  0  0  0  0  3  0  0  0  0  0  0
  189.2410  177.1070  141.7660 C   0  0  0  0  0  2  0  0  0  0  0  0
  189.0220  177.1590  144.3060 C   0  0  0  0  0  0  0  0  0  0  0  0
  191.0180  179.6710  143.9940 C   0  0  0  0  0  1  0  0  0  0  0  0
  191.8830  177.3480  143.5380 C   0  0  0  0  0  2  0  0  0  0  0  0
  188.9010  178.0490  145.3750 O   0  0  0  0  0  1  0  0  0  0  0  0
  187.7800  176.5550  144.0950 O   0  0  0  0  0  1  0  0  0  0  0  0
  190.9020  178.4420  143.1090 C   0  0  1  0  0  3  0  0  0  0  0  0
  191.4380  176.6710  144.8310 C   0  0  0  0  0  2  0  0  0  0  0  0
  190.0440  176.0760  144.6600 C   0  0  0  0  0  2  0  0  0  0  0  0
  189.4510  177.9300  143.0380 C   0  0  1  0  0  3  0  0  0  0  0  0
  1  8  1  0  0  0  0
  2  7  2  0  0  0  0
  3  6  1  0  0  0  0
  3 11  1  1  0  0  0
  4  6  1  0  0  0  0
  5  9  1  0  0  0  0
  6 18  1  1  0  0  0
  7  1  1  0  0  0  0
  7  5  1  0  0  0  0
  8  9  1  0  0  0  0
  8 10  1  1  0  0  0
  9  4  2  0  0  0  0
 10  3  1  0  0  0  0
 11 13  1  0  0  0  0
 12 16  1  0  0  0  0
 13 17  1  0  0  0  0
 14 15  1  0  0  0  0
 14 13  2  0  0  0  0
 15 12  2  0  0  0  0
 17 16  2  0  0  0  0
 19 26  1  0  0  0  0
 19 22  1  0  0  0  0
 21 25  1  0  0  0  0
 23 19  1  0  0  0  0
 24 21  1  0  0  0  0
 24 20  1  1  0  0  0
 26 25  1  0  0  0  0
 27 18  1  6  0  0  0
 27 24  1  0  0  0  0
 27 19  1  0  0  0  0
M  END
>  <MODEL>
6

>  <REMARK>
 VINA RESULT:      -6.7      4.098      6.667
  Name = 
  4 active torsions:
  status: ('A' for Active; 'I' for Inactive)
    1  A    between atoms: O_2  and  C_6
    2  A    between atoms: O_2  and  C_9
    3  A    between atoms: C_3  and  C_14
    4  A    between atoms: C_3  and  C_26
                            x       y       z     vdW  Elec       q    Type
                         _______ _______ _______ _____ _____    ______ ____

>  <TORSDO>
F 4

$$$$
=
 OpenBabel10272401013D

 27 30  0  0  1  0  0  0  0  0999 V2000
  186.3240  177.4190  138.0920 N   0  0  0  0  0  2  0  0  0  0  0  0
  185.5780  176.9670  135.9020 N   0  0  0  0  0  2  0  0  0  0  0  0
  189.4620  177.6560  140.1430 C   0  0  1  0  0  3  0  0  0  0  0  0
  189.7320  178.2420  137.6950 C   0  0  0  0  0  3  0  0  0  0  0  0
  187.5770  178.7600  136.0750 S   0  0  0  0  0  0  0  0  0  0  0  0
  190.4120  177.6840  138.9220 C   0  0  2  0  0  3  0  0  0  0  0  0
  186.2640  177.7150  136.6990 C   0  0  0  0  0  0  0  0  0  0  0  0
  187.4630  178.0410  138.7360 C   0  0  2  0  0  3  0  0  0  0  0  0
  188.4010  178.3950  137.6180 C   0  0  0  0  0  0  0  0  0  0  0  0
  188.1010  177.0920  139.7450 C   0  0  0  0  0  2  0  0  0  0  0  0
  190.0040  176.9130  141.2320 O   0  0  0  0  0  0  0  0  0  0  0  0
  189.1610  177.8210  145.2470 C   0  0  0  0  0  3  0  0  0  0  0  0
  189.7120  177.1950  142.5710 C   0  0  0  0  0  0  0  0  0  0  0  0
  188.6220  176.6000  143.2290 C   0  0  0  0  0  3  0  0  0  0  0  0
  188.3490  176.9140  144.5630 C   0  0  0  0  0  3  0  0  0  0  0  0
  190.2480  178.4140  144.5980 C   0  0  0  0  0  3  0  0  0  0  0  0
  190.5220  178.1000  143.2640 C   0  0  0  0  0  3  0  0  0  0  0  0
  190.9530  176.2980  138.5780 C   0  0  0  0  0  2  0  0  0  0  0  0
  193.3420  176.1300  137.7040 C   0  0  0  0  0  0  0  0  0  0  0  0
  191.8240  175.7470  134.8860 C   0  0  0  0  0  1  0  0  0  0  0  0
  191.7100  173.9070  136.6060 C   0  0  0  0  0  2  0  0  0  0  0  0
  194.1430  176.5220  136.6290 O   0  0  0  0  0  1  0  0  0  0  0  0
  193.6790  176.9130  138.8110 O   0  0  0  0  0  1  0  0  0  0  0  0
  191.3480  175.3580  136.2750 C   0  0  1  0  0  3  0  0  0  0  0  0
  193.2020  173.7510  136.8850 C   0  0  0  0  0  2  0  0  0  0  0  0
  193.6190  174.6620  138.0350 C   0  0  0  0  0  2  0  0  0  0  0  0
  191.8550  176.3440  137.3440 C   0  0  1  0  0  3  0  0  0  0  0  0
  1  8  1  0  0  0  0
  2  7  2  0  0  0  0
  3 11  1  1  0  0  0
  4  6  1  0  0  0  0
  5  7  1  0  0  0  0
  5  9  1  0  0  0  0
  6 18  1  6  0  0  0
  6  3  1  0  0  0  0
  7  1  1  0  0  0  0
  8 10  1  1  0  0  0
  9  4  2  0  0  0  0
  9  8  1  0  0  0  0
 10  3  1  0  0  0  0
 11 13  1  0  0  0  0
 13 14  2  0  0  0  0
 13 17  1  0  0  0  0
 14 15  1  0  0  0  0
 15 12  2  0  0  0  0
 16 12  1  0  0  0  0
 17 16  2  0  0  0  0
 19 26  1  0  0  0  0
 19 23  1  0  0  0  0
 21 25  1  0  0  0  0
 22 19  1  0  0  0  0
 24 20  1  6  0  0  0
 24 21  1  0  0  0  0
 24 27  1  0  0  0  0
 25 26  1  0  0  0  0
 27 19  1  0  0  0  0
 27 18  1  1  0  0  0
M  END
>  <MODEL>
7

>  <REMARK>
 VINA RESULT:      -6.5      3.902      5.371
  Name = 
  4 active torsions:
  status: ('A' for Active; 'I' for Inactive)
    1  A    between atoms: O_2  and  C_6
    2  A    between atoms: O_2  and  C_9
    3  A    between atoms: C_3  and  C_14
    4  A    between atoms: C_3  and  C_26
                            x       y       z     vdW  Elec       q    Type
                         _______ _______ _______ _____ _____    ______ ____

>  <TORSDO>
F 4

$$$$
=
 OpenBabel10272401013D

 27 30  0  0  1  0  0  0  0  0999 V2000
  185.2800  179.7960  146.0490 N   0  0  0  0  0  2  0  0  0  0  0  0
  186.3660  180.3300  148.0720 N   0  0  0  0  0  2  0  0  0  0  0  0
  185.7550  177.8380  142.8790 C   0  0  1  0  0  3  0  0  0  0  0  0
  186.9410  176.9000  144.9100 C   0  0  0  0  0  3  0  0  0  0  0  0
  186.3260  177.7100  147.4590 S   0  0  0  0  0  0  0  0  0  0  0  0
  186.9670  177.0330  143.4060 C   0  0  2  0  0  3  0  0  0  0  0  0
  185.8560  179.4300  147.3000 C   0  0  0  0  0  0  0  0  0  0  0  0
  185.1880  178.6730  145.1380 C   0  0  2  0  0  3  0  0  0  0  0  0
  186.1380  177.6470  145.6840 C   0  0  0  0  0  0  0  0  0  0  0  0
  185.5470  179.0960  143.7180 C   0  0  0  0  0  2  0  0  0  0  0  0
  185.8910  178.1810  141.5020 O   0  0  0  0  0  0  0  0  0  0  0  0
  182.5710  178.9580  139.0480 C   0  0  0  0  0  3  0  0  0  0  0  0
  184.8010  178.4490  140.6690 C   0  0  0  0  0  0  0  0  0  0  0  0
  184.8590  179.4380  139.6730 C   0  0  0  0  0  3  0  0  0  0  0  0
  183.7460  179.6920  138.8660 C   0  0  0  0  0  3  0  0  0  0  0  0
  182.5080  177.9700  140.0350 C   0  0  0  0  0  3  0  0  0  0  0  0
  183.6210  177.7170  140.8420 C   0  0  0  0  0  3  0  0  0  0  0  0
  188.2990  177.6650  143.0060 C   0  0  0  0  0  2  0  0  0  0  0  0
  190.5700  176.5170  142.8410 C   0  0  0  0  0  0  0  0  0  0  0  0
  190.7170  177.3170  145.9610 C   0  0  0  0  0  1  0  0  0  0  0  0
  190.8600  179.1310  144.2170 C   0  0  0  0  0  2  0  0  0  0  0  0
  191.4200  175.6670  143.5510 O   0  0  0  0  0  1  0  0  0  0  0  0
  189.9970  175.7910  141.7940 O   0  0  0  0  0  1  0  0  0  0  0  0
  189.9900  178.0340  144.8350 C   0  0  1  0  0  3  0  0  0  0  0  0
  191.9750  178.5450  143.3550 C   0  0  0  0  0  2  0  0  0  0  0  0
  191.3830  177.6730  142.2520 C   0  0  0  0  0  2  0  0  0  0  0  0
  189.4620  177.0440  143.7810 C   0  0  1  0  0  3  0  0  0  0  0  0
  1  7  1  0  0  0  0
  3 11  1  6  0  0  0
  3  6  1  0  0  0  0
  3 10  1  0  0  0  0
  4  9  2  0  0  0  0
  6 18  1  1  0  0  0
  6  4  1  0  0  0  0
  7  5  1  0  0  0  0
  7  2  2  0  0  0  0
  8 10  1  6  0  0  0
  8  9  1  0  0  0  0
  8  1  1  0  0  0  0
  9  5  1  0  0  0  0
 12 16  1  0  0  0  0
 13 17  1  0  0  0  0
 13 11  1  0  0  0  0
 14 13  2  0  0  0  0
 15 12  2  0  0  0  0
 15 14  1  0  0  0  0
 16 17  2  0  0  0  0
 19 22  1  0  0  0  0
 19 27  1  0  0  0  0
 21 24  1  0  0  0  0
 23 19  1  0  0  0  0
 24 20  1  1  0  0  0
 25 21  1  0  0  0  0
 26 19  1  0  0  0  0
 26 25  1  0  0  0  0
 27 18  1  6  0  0  0
 27 24  1  0  0  0  0
M  END
>  <MODEL>
8

>  <REMARK>
 VINA RESULT:      -6.4      4.315      7.162
  Name = 
  4 active torsions:
  status: ('A' for Active; 'I' for Inactive)
    1  A    between atoms: O_2  and  C_6
    2  A    between atoms: O_2  and  C_9
    3  A    between atoms: C_3  and  C_14
    4  A    between atoms: C_3  and  C_26
                            x       y       z     vdW  Elec       q    Type
                         _______ _______ _______ _____ _____    ______ ____

>  <TORSDO>
F 4

$$$$
=
 OpenBabel10272401013D

 27 30  0  0  1  0  0  0  0  0999 V2000
  188.1120  178.7400  139.1190 N   0  0  0  0  0  2  0  0  0  0  0  0
  189.1440  179.3980  137.1040 N   0  0  0  0  0  2  0  0  0  0  0  0
  184.7270  178.2890  140.6820 C   0  0  1  0  0  3  0  0  0  0  0  0
  184.8110  177.9270  138.1780 C   0  0  0  0  0  3  0  0  0  0  0  0
  187.1790  177.5790  136.8360 S   0  0  0  0  0  0  0  0  0  0  0  0
  183.9550  178.3650  139.3430 C   0  0  2  0  0  3  0  0  0  0  0  0
  188.3700  178.5740  137.7270 C   0  0  0  0  0  0  0  0  0  0  0  0
  186.9090  178.0520  139.5400 C   0  0  2  0  0  3  0  0  0  0  0  0
  186.1430  177.7930  138.2740 C   0  0  0  0  0  0  0  0  0  0  0  0
  186.1170  178.8990  140.5310 C   0  0  0  0  0  2  0  0  0  0  0  0
  184.0240  178.9240  141.7470 O   0  0  0  0  0  0  0  0  0  0  0  0
  184.9800  178.4330  145.8090 C   0  0  0  0  0  3  0  0  0  0  0  0
  184.3650  178.7620  143.0940 C   0  0  0  0  0  0  0  0  0  0  0  0
  185.6230  178.2710  143.4820 C   0  0  0  0  0  3  0  0  0  0  0  0
  185.9280  178.1070  144.8360 C   0  0  0  0  0  3  0  0  0  0  0  0
  183.7270  178.9240  145.4290 C   0  0  0  0  0  3  0  0  0  0  0  0
  183.4230  179.0880  144.0750 C   0  0  0  0  0  3  0  0  0  0  0  0
  183.4380  179.7720  139.0530 C   0  0  0  0  0  2  0  0  0  0  0  0
  181.2570  180.9770  138.5100 C   0  0  0  0  0  0  0  0  0  0  0  0
  179.9820  178.4560  140.0640 C   0  0  0  0  0  1  0  0  0  0  0  0
  181.0250  178.1050  137.7960 C   0  0  0  0  0  2  0  0  0  0  0  0
  180.0130  181.2870  139.0620 O   0  0  0  0  0  1  0  0  0  0  0  0
  182.0360  182.1360  138.5010 O   0  0  0  0  0  1  0  0  0  0  0  0
  181.2650  178.5140  139.2520 C   0  0  1  0  0  3  0  0  0  0  0  0
  180.2830  179.1910  137.0230 C   0  0  0  0  0  2  0  0  0  0  0  0
  181.0680  180.4980  137.0680 C   0  0  0  0  0  2  0  0  0  0  0  0
  181.9460  179.8910  139.3670 C   0  0  1  0  0  3  0  0  0  0  0  0
  1  8  1  0  0  0  0
  2  7  2  0  0  0  0
  3 11  1  1  0  0  0
  4  9  2  0  0  0  0
  4  6  1  0  0  0  0
  5  7  1  0  0  0  0
  5  9  1  0  0  0  0
  6 18  1  6  0  0  0
  6  3  1  0  0  0  0
  7  1  1  0  0  0  0
  8 10  1  1  0  0  0
  9  8  1  0  0  0  0
 10  3  1  0  0  0  0
 11 13  1  0  0  0  0
 13 14  2  0  0  0  0
 13 17  1  0  0  0  0
 14 15  1  0  0  0  0
 15 12  2  0  0  0  0
 16 12  1  0  0  0  0
 17 16  2  0  0  0  0
 19 22  1  0  0  0  0
 19 27  1  0  0  0  0
 21 24  1  0  0  0  0
 23 19  1  0  0  0  0
 24 27  1  0  0  0  0
 24 20  1  1  0  0  0
 25 26  1  0  0  0  0
 25 21  1  0  0  0  0
 26 19  1  0  0  0  0
 27 18  1  6  0  0  0
M  END
>  <MODEL>
9

>  <REMARK>
 VINA RESULT:      -6.4      3.321      5.729
  Name = 
  4 active torsions:
  status: ('A' for Active; 'I' for Inactive)
    1  A    between atoms: O_2  and  C_6
    2  A    between atoms: O_2  and  C_9
    3  A    between atoms: C_3  and  C_14
    4  A    between atoms: C_3  and  C_26
                            x       y       z     vdW  Elec       q    Type
                         _______ _______ _______ _____ _____    ______ ____

>  <TORSDO>
F 4

$$$$
