=
 OpenBabel10272413133D

 32 36  0  0  1  0  0  0  0  0999 V2000
  188.0550  177.8020  141.3400 C   0  0  2  0  0  3  0  0  0  0  0  0
  189.3200  177.2400  143.7850 C   0  0  0  0  0  0  0  0  0  0  0  0
  187.4330  178.1200  140.1260 C   0  0  0  0  0  3  0  0  0  0  0  0
  187.3170  178.0530  142.6200 C   0  0  0  0  0  0  0  0  0  0  0  0
  187.4070  177.9580  145.0880 C   0  0  0  0  0  3  0  0  0  0  0  0
  191.8920  175.7840  146.2170 C   0  0  0  0  0  2  0  0  0  0  0  0
  187.9990  177.7540  143.8300 C   0  0  0  0  0  0  0  0  0  0  0  0
  190.0450  176.8080  147.5270 C   0  0  0  0  0  2  0  0  0  0  0  0
  189.3890  177.1770  146.2260 C   0  0  0  0  0  0  0  0  0  0  0  0
  185.9950  178.5820  142.5380 C   0  0  0  0  0  0  0  0  0  0  0  0
  188.0870  177.6690  146.2660 C   0  0  0  0  0  3  0  0  0  0  0  0
  185.4440  178.8610  141.2760 C   0  0  0  0  0  3  0  0  0  0  0  0
  189.9390  177.0280  142.5510 C   0  0  0  0  0  3  0  0  0  0  0  0
  189.3260  177.2920  141.3690 N   0  0  0  0  0  0  0  0  0  0  0  0
  190.0130  176.9400  144.9800 C   0  0  0  0  0  0  0  0  0  0  0  0
  185.2950  178.8080  143.6120 N   0  0  0  0  0  2  0  0  0  0  0  0
  186.1470  178.6390  140.0960 C   0  0  0  0  0  3  0  0  0  0  0  0
  191.5590  176.6790  147.4000 C   0  0  0  0  0  2  0  0  0  0  0  0
  191.4500  176.4690  144.9280 C   0  0  0  0  0  2  0  0  0  0  0  0
  192.1570  177.0060  138.9250 C   0  0  0  0  0  0  0  0  0  0  0  0
  193.4910  177.2400  138.8620 F   0  0  0  0  0  0  0  0  0  0  0  0
  190.0690  177.0200  140.1680 C   0  0  0  0  0  0  0  0  0  0  0  0
  191.4870  176.5100  137.8050 C   0  0  0  0  0  3  0  0  0  0  0  0
  189.4040  176.5320  139.0340 C   0  0  0  0  0  3  0  0  0  0  0  0
  191.4520  177.2660  140.1060 C   0  0  0  0  0  0  0  0  0  0  0  0
  192.1070  177.7740  141.1800 F   0  0  0  0  0  0  0  0  0  0  0  0
  190.1040  176.2720  137.8530 C   0  0  0  0  0  0  0  0  0  0  0  0
  187.9970  175.6050  136.7440 C   0  0  0  0  0  1  0  0  0  0  0  0
  189.4070  175.7810  136.7460 O   0  0  0  0  0  0  0  0  0  0  0  0
  183.9400  179.3460  143.6210 C   0  0  0  0  0  2  0  0  0  0  0  0
  183.2280  178.8900  144.8760 C   0  0  0  0  0  2  0  0  0  0  0  0
  184.1020  178.9650  145.9590 O   0  0  0  0  0  1  0  0  0  0  0  0
  1  3  1  1  0  0  0
  1 14  1  0  0  0  0
  1  4  1  0  0  0  0
  2  7  1  0  0  0  0
  2 15  1  0  0  0  0
  4  7  2  0  0  0  0
  5 11  2  0  0  0  0
  6 18  1  0  0  0  0
  7  5  1  0  0  0  0
  9 11  1  0  0  0  0
  9  8  1  0  0  0  0
 10  4  1  0  0  0  0
 10 16  1  0  0  0  0
 12 10  2  0  0  0  0
 13  2  2  0  0  0  0
 14 13  1  0  0  0  0
 15  9  2  0  0  0  0
 16 30  1  0  0  0  0
 17  3  2  0  0  0  0
 17 12  1  0  0  0  0
 18  8  1  0  0  0  0
 19 15  1  0  0  0  0
 19  6  1  0  0  0  0
 20 25  1  0  0  0  0
 21 20  1  0  0  0  0
 22 14  1  0  0  0  0
 23 27  1  0  0  0  0
 23 20  2  0  0  0  0
 24 22  1  0  0  0  0
 25 22  2  0  0  0  0
 25 26  1  0  0  0  0
 27 24  2  0  0  0  0
 28 29  1  0  0  0  0
 29 27  1  0  0  0  0
 30 31  1  0  0  0  0
 31 32  1  0  0  0  0
M  END
>  <MODEL>
1

>  <REMARK>
 VINA RESULT:     -10.4      0.000      0.000
  Name = 
  4 active torsions:
  status: ('A' for Active; 'I' for Inactive)
    1  A    between atoms: C_13  and  C_18
    2  A    between atoms: O_15  and  C_26
    3  A    between atoms: C_16  and  N_27
    4  A    between atoms: C_18  and  N_29
                            x       y       z     vdW  Elec       q    Type
                         _______ _______ _______ _____ _____    ______ ____

>  <TORSDO>
F 4

$$$$
=
 OpenBabel10272413133D

 32 36  0  0  1  0  0  0  0  0999 V2000
  189.6530  177.2590  142.8530 C   0  0  2  0  0  3  0  0  0  0  0  0
  187.0380  177.9390  143.6210 C   0  0  0  0  0  0  0  0  0  0  0  0
  190.9490  176.8830  142.4760 C   0  0  0  0  0  3  0  0  0  0  0  0
  189.3240  177.3670  144.3100 C   0  0  0  0  0  0  0  0  0  0  0  0
  187.5660  177.8340  145.9830 C   0  0  0  0  0  3  0  0  0  0  0  0
  183.4450  179.2210  143.2980 C   0  0  0  0  0  2  0  0  0  0  0  0
  187.9880  177.7140  144.6490 C   0  0  0  0  0  0  0  0  0  0  0  0
  183.9330  178.8080  145.6990 C   0  0  0  0  0  2  0  0  0  0  0  0
  185.3150  178.3750  145.2970 C   0  0  0  0  0  0  0  0  0  0  0  0
  190.3630  177.1070  145.2520 C   0  0  0  0  0  0  0  0  0  0  0  0
  186.2540  178.1660  146.3030 C   0  0  0  0  0  3  0  0  0  0  0  0
  191.6390  176.7460  144.7860 C   0  0  0  0  0  3  0  0  0  0  0  0
  187.4230  177.8250  142.2830 C   0  0  0  0  0  3  0  0  0  0  0  0
  188.6890  177.5040  141.9110 N   0  0  0  0  0  0  0  0  0  0  0  0
  185.7040  178.2820  143.9420 C   0  0  0  0  0  0  0  0  0  0  0  0
  190.1460  177.1990  146.5320 N   0  0  0  0  0  2  0  0  0  0  0  0
  191.9260  176.6330  143.4290 C   0  0  0  0  0  3  0  0  0  0  0  0
  182.9120  178.6100  144.5840 C   0  0  0  0  0  2  0  0  0  0  0  0
  184.6750  178.4420  142.8430 C   0  0  0  0  0  2  0  0  0  0  0  0
  188.3840  177.9600  138.2000 C   0  0  0  0  0  0  0  0  0  0  0  0
  187.5700  178.5640  137.3000 F   0  0  0  0  0  0  0  0  0  0  0  0
  188.9590  177.4270  140.5010 C   0  0  0  0  0  0  0  0  0  0  0  0
  189.4930  177.2370  137.7560 C   0  0  0  0  0  3  0  0  0  0  0  0
  190.0640  176.6950  140.0430 C   0  0  0  0  0  3  0  0  0  0  0  0
  188.1110  178.0540  139.5700 C   0  0  0  0  0  0  0  0  0  0  0  0
  187.0150  178.7360  139.9900 F   0  0  0  0  0  0  0  0  0  0  0  0
  190.3390  176.5980  138.6760 C   0  0  0  0  0  0  0  0  0  0  0  0
  192.7260  176.4580  138.0430 C   0  0  0  0  0  1  0  0  0  0  0  0
  191.4530  175.8650  138.2600 O   0  0  0  0  0  0  0  0  0  0  0  0
  191.1470  176.9500  147.5630 C   0  0  0  0  0  2  0  0  0  0  0  0
  191.6340  175.5220  147.4570 C   0  0  0  0  0  2  0  0  0  0  0  0
  192.9870  175.4660  147.7890 O   0  0  0  0  0  1  0  0  0  0  0  0
  1  3  1  1  0  0  0
  1  4  1  0  0  0  0
  2 15  1  0  0  0  0
  2  7  1  0  0  0  0
  3 17  2  0  0  0  0
  4  7  2  0  0  0  0
  4 10  1  0  0  0  0
  5 11  2  0  0  0  0
  6 18  1  0  0  0  0
  7  5  1  0  0  0  0
  9  8  1  0  0  0  0
  9 11  1  0  0  0  0
 10 16  1  0  0  0  0
 12 10  2  0  0  0  0
 13  2  2  0  0  0  0
 14 13  1  0  0  0  0
 14  1  1  0  0  0  0
 15  9  2  0  0  0  0
 16 30  1  0  0  0  0
 17 12  1  0  0  0  0
 18  8  1  0  0  0  0
 19  6  1  0  0  0  0
 19 15  1  0  0  0  0
 20 25  1  0  0  0  0
 21 20  1  0  0  0  0
 22 14  1  0  0  0  0
 23 20  2  0  0  0  0
 23 27  1  0  0  0  0
 24 22  1  0  0  0  0
 25 26  1  0  0  0  0
 25 22  2  0  0  0  0
 27 24  2  0  0  0  0
 28 29  1  0  0  0  0
 29 27  1  0  0  0  0
 31 30  1  0  0  0  0
 31 32  1  0  0  0  0
M  END
>  <MODEL>
2

>  <REMARK>
 VINA RESULT:     -10.3      2.651      5.380
  Name = 
  4 active torsions:
  status: ('A' for Active; 'I' for Inactive)
    1  A    between atoms: C_13  and  C_18
    2  A    between atoms: O_15  and  C_26
    3  A    between atoms: C_16  and  N_27
    4  A    between atoms: C_18  and  N_29
                            x       y       z     vdW  Elec       q    Type
                         _______ _______ _______ _____ _____    ______ ____

>  <TORSDO>
F 4

$$$$
=
 OpenBabel10272413133D

 32 36  0  0  0  0  0  0  0  0999 V2000
  188.6030  177.7070  142.9340 C   0  0  0  0  0  0  0  0  0  0  0  0
  185.8460  178.2440  142.9060 C   0  0  0  0  0  0  0  0  0  0  0  0
  189.9850  177.4760  142.9440 C   0  0  0  0  0  3  0  0  0  0  0  0
  187.9080  177.8880  141.6200 C   0  0  0  0  0  0  0  0  0  0  0  0
  185.7620  178.3550  140.4870 C   0  0  0  0  0  3  0  0  0  0  0  0
  182.2550  178.5330  144.2000 C   0  0  0  0  0  2  0  0  0  0  0  0
  186.5130  178.1590  141.6570 C   0  0  0  0  0  0  0  0  0  0  0  0
  182.2560  178.9430  141.7500 C   0  0  0  0  0  2  0  0  0  0  0  0
  183.7430  178.7260  141.7600 C   0  0  0  0  0  0  0  0  0  0  0  0
  188.6870  177.7890  140.4310 C   0  0  0  0  0  0  0  0  0  0  0  0
  184.3980  178.6280  140.5360 C   0  0  0  0  0  3  0  0  0  0  0  0
  190.0680  177.5440  140.5320 C   0  0  0  0  0  3  0  0  0  0  0  0
  186.5640  178.0580  144.0890 C   0  0  0  0  0  3  0  0  0  0  0  0
  187.8950  177.7900  144.1040 N   0  0  0  0  0  0  0  0  0  0  0  0
  184.4600  178.5160  142.9600 C   0  0  0  0  0  0  0  0  0  0  0  0
  188.1410  177.9220  139.2560 N   0  0  0  0  0  0  0  0  0  0  0  0
  190.7040  177.3940  141.7600 C   0  0  0  0  0  3  0  0  0  0  0  0
  181.7290  179.4320  143.0940 C   0  0  0  0  0  2  0  0  0  0  0  0
  183.7690  178.6860  144.2960 C   0  0  0  0  0  2  0  0  0  0  0  0
  188.3980  177.6010  147.8160 C   0  0  0  0  0  0  0  0  0  0  0  0
  187.6890  177.7550  148.9610 F   0  0  0  0  0  0  0  0  0  0  0  0
  188.5150  177.6080  145.3890 C   0  0  0  0  0  0  0  0  0  0  0  0
  189.7550  177.2780  147.8800 C   0  0  0  0  0  3  0  0  0  0  0  0
  189.8790  177.2940  145.4650 C   0  0  0  0  0  3  0  0  0  0  0  0
  187.7750  177.7710  146.5740 C   0  0  0  0  0  0  0  0  0  0  0  0
  186.4630  178.1120  146.5230 F   0  0  0  0  0  0  0  0  0  0  0  0
  190.5040  177.1250  146.7030 C   0  0  0  0  0  0  0  0  0  0  0  0
  192.3780  175.7060  147.4750 C   0  0  0  0  0  1  0  0  0  0  0  0
  191.8640  176.8070  146.7370 O   0  0  0  0  0  0  0  0  0  0  0  0
  188.8600  177.8360  137.9910 C   0  0  0  0  0  2  0  0  0  0  0  0
  188.8720  179.1960  137.3270 C   0  0  0  0  0  2  0  0  0  0  0  0
  187.5770  179.5330  136.9370 O   0  0  0  0  0  1  0  0  0  0  0  0
  1  3  2  0  0  0  0
  1 14  1  0  0  0  0
  2 15  1  0  0  0  0
  2 13  2  0  0  0  0
  4  7  2  0  0  0  0
  4  1  1  0  0  0  0
  5 11  2  0  0  0  0
  5  7  1  0  0  0  0
  6 19  1  0  0  0  0
  7  2  1  0  0  0  0
  8  9  1  0  0  0  0
  8 18  1  0  0  0  0
  9 15  2  0  0  0  0
 10 12  1  0  0  0  0
 10  4  1  0  0  0  0
 11  9  1  0  0  0  0
 12 17  2  0  0  0  0
 13 14  1  0  0  0  0
 14 22  1  0  0  0  0
 15 19  1  0  0  0  0
 16 10  2  0  0  0  0
 17  3  1  0  0  0  0
 18  6  1  0  0  0  0
 20 23  1  0  0  0  0
 20 21  1  0  0  0  0
 22 24  2  0  0  0  0
 22 25  1  0  0  0  0
 24 27  1  0  0  0  0
 25 20  2  0  0  0  0
 26 25  1  0  0  0  0
 27 29  1  0  0  0  0
 27 23  2  0  0  0  0
 29 28  1  0  0  0  0
 30 16  1  0  0  0  0
 31 30  1  0  0  0  0
 32 31  1  0  0  0  0
M  END
>  <MODEL>
3

>  <REMARK>
 VINA RESULT:     -10.2      3.157      7.481
  Name = 
  4 active torsions:
  status: ('A' for Active; 'I' for Inactive)
    1  A    between atoms: C_13  and  C_18
    2  A    between atoms: O_15  and  C_26
    3  A    between atoms: C_16  and  N_27
    4  A    between atoms: C_18  and  N_29
                            x       y       z     vdW  Elec       q    Type
                         _______ _______ _______ _____ _____    ______ ____

>  <TORSDO>
F 4

$$$$
=
 OpenBabel10272413133D

 32 36  0  0  1  0  0  0  0  0999 V2000
  186.6160  178.2250  141.8200 C   0  0  2  0  0  3  0  0  0  0  0  0
  187.4460  177.9810  144.4920 C   0  0  0  0  0  0  0  0  0  0  0  0
  186.2050  178.3850  140.4910 C   0  0  0  0  0  3  0  0  0  0  0  0
  185.6140  178.4160  142.9170 C   0  0  0  0  0  0  0  0  0  0  0  0
  185.2320  178.4500  145.3580 C   0  0  0  0  0  3  0  0  0  0  0  0
  189.6760  177.0590  147.4640 C   0  0  0  0  0  2  0  0  0  0  0  0
  186.0820  178.2830  144.2530 C   0  0  0  0  0  0  0  0  0  0  0  0
  187.4800  177.8400  148.3260 C   0  0  0  0  0  2  0  0  0  0  0  0
  187.0450  178.0420  146.9020 C   0  0  0  0  0  0  0  0  0  0  0  0
  184.2720  178.7260  142.5500 C   0  0  0  0  0  0  0  0  0  0  0  0
  185.7030  178.3250  146.6610 C   0  0  0  0  0  3  0  0  0  0  0  0
  183.9430  178.8580  141.1900 C   0  0  0  0  0  3  0  0  0  0  0  0
  188.3190  177.8110  143.4150 C   0  0  0  0  0  3  0  0  0  0  0  0
  187.9170  177.9210  142.1230 N   0  0  0  0  0  0  0  0  0  0  0  0
  187.9280  177.8480  145.8150 C   0  0  0  0  0  0  0  0  0  0  0  0
  183.3490  178.8900  143.4550 N   0  0  0  0  0  2  0  0  0  0  0  0
  184.8870  178.6940  140.1820 C   0  0  0  0  0  3  0  0  0  0  0  0
  188.9920  177.9440  148.4930 C   0  0  0  0  0  2  0  0  0  0  0  0
  189.4000  177.6060  146.0680 C   0  0  0  0  0  2  0  0  0  0  0  0
  191.2270  177.4000  140.4380 C   0  0  0  0  0  0  0  0  0  0  0  0
  192.5390  177.2790  140.7590 F   0  0  0  0  0  0  0  0  0  0  0  0
  188.9120  177.7140  141.1060 C   0  0  0  0  0  0  0  0  0  0  0  0
  190.8330  177.3410  139.1000 C   0  0  0  0  0  3  0  0  0  0  0  0
  188.5280  177.6630  139.7580 C   0  0  0  0  0  3  0  0  0  0  0  0
  190.2720  177.5910  141.4430 C   0  0  0  0  0  0  0  0  0  0  0  0
  190.6680  177.6750  142.7380 F   0  0  0  0  0  0  0  0  0  0  0  0
  189.4800  177.4740  138.7520 C   0  0  0  0  0  0  0  0  0  0  0  0
  187.8140  177.9600  136.9890 C   0  0  0  0  0  1  0  0  0  0  0  0
  189.0570  177.4240  137.4210 O   0  0  0  0  0  0  0  0  0  0  0  0
  181.9550  179.2090  143.1720 C   0  0  0  0  0  2  0  0  0  0  0  0
  181.0600  178.4120  144.0950 C   0  0  0  0  0  2  0  0  0  0  0  0
  179.9820  177.9050  143.3720 O   0  0  0  0  0  1  0  0  0  0  0  0
  1  3  1  1  0  0  0
  1 14  1  0  0  0  0
  1  4  1  0  0  0  0
  2 15  1  0  0  0  0
  4  7  2  0  0  0  0
  5 11  2  0  0  0  0
  6 18  1  0  0  0  0
  7  2  1  0  0  0  0
  7  5  1  0  0  0  0
  8 18  1  0  0  0  0
  9  8  1  0  0  0  0
 10  4  1  0  0  0  0
 10 16  1  0  0  0  0
 11  9  1  0  0  0  0
 12 10  2  0  0  0  0
 13  2  2  0  0  0  0
 14 13  1  0  0  0  0
 15 19  1  0  0  0  0
 15  9  2  0  0  0  0
 17  3  2  0  0  0  0
 17 12  1  0  0  0  0
 19  6  1  0  0  0  0
 20 21  1  0  0  0  0
 20 25  1  0  0  0  0
 22 25  2  0  0  0  0
 22 14  1  0  0  0  0
 23 20  2  0  0  0  0
 24 22  1  0  0  0  0
 25 26  1  0  0  0  0
 27 23  1  0  0  0  0
 27 24  2  0  0  0  0
 28 29  1  0  0  0  0
 29 27  1  0  0  0  0
 30 16  1  0  0  0  0
 30 31  1  0  0  0  0
 32 31  1  0  0  0  0
M  END
>  <MODEL>
4

>  <REMARK>
 VINA RESULT:     -10.0      1.698      2.235
  Name = 
  4 active torsions:
  status: ('A' for Active; 'I' for Inactive)
    1  A    between atoms: C_13  and  C_18
    2  A    between atoms: O_15  and  C_26
    3  A    between atoms: C_16  and  N_27
    4  A    between atoms: C_18  and  N_29
                            x       y       z     vdW  Elec       q    Type
                         _______ _______ _______ _____ _____    ______ ____

>  <TORSDO>
F 4

$$$$
=
 OpenBabel10272413133D

 32 36  0  0  0  0  0  0  0  0999 V2000
  187.8040  177.7720  143.6630 C   0  0  0  0  0  0  0  0  0  0  0  0
  189.3400  177.4730  141.3300 C   0  0  0  0  0  0  0  0  0  0  0  0
  187.0240  177.8860  144.8200 C   0  0  0  0  0  3  0  0  0  0  0  0
  187.1630  178.0080  142.3300 C   0  0  0  0  0  0  0  0  0  0  0  0
  187.4810  178.0310  139.8790 C   0  0  0  0  0  3  0  0  0  0  0  0
  192.4530  177.1160  139.1310 C   0  0  0  0  0  2  0  0  0  0  0  0
  187.9800  177.8440  141.1790 C   0  0  0  0  0  0  0  0  0  0  0  0
  190.4670  177.3890  137.6640 C   0  0  0  0  0  2  0  0  0  0  0  0
  189.6210  177.4820  138.9030 C   0  0  0  0  0  0  0  0  0  0  0  0
  185.7830  178.3690  142.3050 C   0  0  0  0  0  0  0  0  0  0  0  0
  188.2890  177.8600  138.7600 C   0  0  0  0  0  3  0  0  0  0  0  0
  185.0770  178.4710  143.5160 C   0  0  0  0  0  3  0  0  0  0  0  0
  189.8670  177.2760  142.6080 C   0  0  0  0  0  3  0  0  0  0  0  0
  189.1280  177.4280  143.7360 N   0  0  0  0  0  0  0  0  0  0  0  0
  190.1660  177.3030  140.1950 C   0  0  0  0  0  0  0  0  0  0  0  0
  185.1700  178.6020  141.1810 N   0  0  0  0  0  0  0  0  0  0  0  0
  185.6820  178.2330  144.7470 C   0  0  0  0  0  3  0  0  0  0  0  0
  191.7480  176.5940  137.8910 C   0  0  0  0  0  2  0  0  0  0  0  0
  191.5940  176.8280  140.3580 C   0  0  0  0  0  2  0  0  0  0  0  0
  191.5720  176.1890  146.2980 C   0  0  0  0  0  0  0  0  0  0  0  0
  192.6850  175.4190  146.3720 F   0  0  0  0  0  0  0  0  0  0  0  0
  189.7920  177.2060  144.9920 C   0  0  0  0  0  0  0  0  0  0  0  0
  191.0490  176.7640  147.4580 C   0  0  0  0  0  3  0  0  0  0  0  0
  189.2690  177.7690  146.1660 C   0  0  0  0  0  3  0  0  0  0  0  0
  190.9450  176.4040  145.0650 C   0  0  0  0  0  0  0  0  0  0  0  0
  191.4450  175.8190  143.9470 F   0  0  0  0  0  0  0  0  0  0  0  0
  189.8920  177.5560  147.3980 C   0  0  0  0  0  0  0  0  0  0  0  0
  187.9520  178.1100  148.8290 C   0  0  0  0  0  1  0  0  0  0  0  0
  189.3430  178.1390  148.5430 O   0  0  0  0  0  0  0  0  0  0  0  0
  183.7650  178.9740  141.0620 C   0  0  0  0  0  2  0  0  0  0  0  0
  183.4600  179.3320  139.6240 C   0  0  0  0  0  2  0  0  0  0  0  0
  184.4640  180.1640  139.1300 O   0  0  0  0  0  1  0  0  0  0  0  0
  1 14  1  0  0  0  0
  1  3  2  0  0  0  0
  2 13  2  0  0  0  0
  4  1  1  0  0  0  0
  5  7  1  0  0  0  0
  6 19  1  0  0  0  0
  7  2  1  0  0  0  0
  7  4  2  0  0  0  0
  8 18  1  0  0  0  0
  8  9  1  0  0  0  0
  9 15  2  0  0  0  0
 10  4  1  0  0  0  0
 10 12  1  0  0  0  0
 11  9  1  0  0  0  0
 11  5  2  0  0  0  0
 12 17  2  0  0  0  0
 13 14  1  0  0  0  0
 14 22  1  0  0  0  0
 15 19  1  0  0  0  0
 15  2  1  0  0  0  0
 16 10  2  0  0  0  0
 17  3  1  0  0  0  0
 18  6  1  0  0  0  0
 20 21  1  0  0  0  0
 20 23  1  0  0  0  0
 22 25  1  0  0  0  0
 22 24  2  0  0  0  0
 24 27  1  0  0  0  0
 25 20  2  0  0  0  0
 26 25  1  0  0  0  0
 27 23  2  0  0  0  0
 27 29  1  0  0  0  0
 29 28  1  0  0  0  0
 30 16  1  0  0  0  0
 31 30  1  0  0  0  0
 32 31  1  0  0  0  0
M  END
>  <MODEL>
5

>  <REMARK>
 VINA RESULT:      -9.8      2.311      6.367
  Name = 
  4 active torsions:
  status: ('A' for Active; 'I' for Inactive)
    1  A    between atoms: C_13  and  C_18
    2  A    between atoms: O_15  and  C_26
    3  A    between atoms: C_16  and  N_27
    4  A    between atoms: C_18  and  N_29
                            x       y       z     vdW  Elec       q    Type
                         _______ _______ _______ _____ _____    ______ ____

>  <TORSDO>
F 4

$$$$
=
 OpenBabel10272413133D

 32 36  0  0  1  0  0  0  0  0999 V2000
  185.4990  178.3750  143.9000 C   0  0  2  0  0  3  0  0  0  0  0  0
  187.8440  177.8150  142.4590 C   0  0  0  0  0  0  0  0  0  0  0  0
  184.3420  178.6900  144.6230 C   0  0  0  0  0  3  0  0  0  0  0  0
  186.7620  178.0760  144.6470 C   0  0  0  0  0  0  0  0  0  0  0  0
  189.1620  177.5150  144.4690 C   0  0  0  0  0  3  0  0  0  0  0  0
  190.0670  176.9140  139.4750 C   0  0  0  0  0  2  0  0  0  0  0  0
  187.9220  177.7990  143.8740 C   0  0  0  0  0  0  0  0  0  0  0  0
  191.4570  176.9140  141.5350 C   0  0  0  0  0  2  0  0  0  0  0  0
  190.2240  177.2820  142.3120 C   0  0  0  0  0  0  0  0  0  0  0  0
  186.7190  178.0990  146.0720 C   0  0  0  0  0  0  0  0  0  0  0  0
  190.2930  177.2540  143.7020 C   0  0  0  0  0  3  0  0  0  0  0  0
  185.5110  178.4150  146.7180 C   0  0  0  0  0  3  0  0  0  0  0  0
  186.6270  178.0970  141.8340 C   0  0  0  0  0  3  0  0  0  0  0  0
  185.4910  178.3600  142.5300 N   0  0  0  0  0  0  0  0  0  0  0  0
  188.9900  177.5450  141.6750 C   0  0  0  0  0  0  0  0  0  0  0  0
  187.7780  177.8340  146.7810 N   0  0  0  0  0  2  0  0  0  0  0  0
  184.3490  178.7070  146.0110 C   0  0  0  0  0  3  0  0  0  0  0  0
  191.3860  177.3660  140.0810 C   0  0  0  0  0  2  0  0  0  0  0  0
  188.9200  177.6430  140.1660 C   0  0  0  0  0  2  0  0  0  0  0  0
  183.2120  179.2820  139.6970 C   0  0  0  0  0  0  0  0  0  0  0  0
  183.2840  179.6570  138.3970 F   0  0  0  0  0  0  0  0  0  0  0  0
  184.3010  178.6260  141.7690 C   0  0  0  0  0  0  0  0  0  0  0  0
  181.9650  179.1670  140.3160 C   0  0  0  0  0  3  0  0  0  0  0  0
  183.0440  178.5230  142.3830 C   0  0  0  0  0  3  0  0  0  0  0  0
  184.3810  179.0170  140.4200 C   0  0  0  0  0  0  0  0  0  0  0  0
  185.5890  179.1590  139.8170 F   0  0  0  0  0  0  0  0  0  0  0  0
  181.8750  178.7880  141.6650 C   0  0  0  0  0  0  0  0  0  0  0  0
  180.5000  178.7810  143.7210 C   0  0  0  0  0  1  0  0  0  0  0  0
  180.6420  178.6690  142.3110 O   0  0  0  0  0  0  0  0  0  0  0  0
  187.8240  177.8350  148.2380 C   0  0  0  0  0  2  0  0  0  0  0  0
  189.2520  178.0430  148.6950 C   0  0  0  0  0  2  0  0  0  0  0  0
  190.1170  177.3670  147.8350 O   0  0  0  0  0  1  0  0  0  0  0  0
  1  3  1  6  0  0  0
  1  4  1  0  0  0  0
  2  7  1  0  0  0  0
  3 17  2  0  0  0  0
  4 10  1  0  0  0  0
  6 18  1  0  0  0  0
  6 19  1  0  0  0  0
  7  5  1  0  0  0  0
  7  4  2  0  0  0  0
  8  9  1  0  0  0  0
  9 11  1  0  0  0  0
 10 12  2  0  0  0  0
 10 16  1  0  0  0  0
 11  5  2  0  0  0  0
 13  2  2  0  0  0  0
 13 14  1  0  0  0  0
 14  1  1  0  0  0  0
 15  9  2  0  0  0  0
 15  2  1  0  0  0  0
 16 30  1  0  0  0  0
 17 12  1  0  0  0  0
 18  8  1  0  0  0  0
 19 15  1  0  0  0  0
 20 23  2  0  0  0  0
 20 25  1  0  0  0  0
 21 20  1  0  0  0  0
 22 24  1  0  0  0  0
 22 14  1  0  0  0  0
 23 27  1  0  0  0  0
 25 22  2  0  0  0  0
 26 25  1  0  0  0  0
 27 29  1  0  0  0  0
 27 24  2  0  0  0  0
 29 28  1  0  0  0  0
 30 31  1  0  0  0  0
 32 31  1  0  0  0  0
M  END
>  <MODEL>
6

>  <REMARK>
 VINA RESULT:      -9.7      3.289      6.477
  Name = 
  4 active torsions:
  status: ('A' for Active; 'I' for Inactive)
    1  A    between atoms: C_13  and  C_18
    2  A    between atoms: O_15  and  C_26
    3  A    between atoms: C_16  and  N_27
    4  A    between atoms: C_18  and  N_29
                            x       y       z     vdW  Elec       q    Type
                         _______ _______ _______ _____ _____    ______ ____

>  <TORSDO>
F 4

$$$$
=
 OpenBabel10272413133D

 32 36  0  0  0  0  0  0  0  0999 V2000
  187.4150  177.9830  141.5240 C   0  0  0  0  0  0  0  0  0  0  0  0
  188.9290  177.4120  143.8200 C   0  0  0  0  0  0  0  0  0  0  0  0
  186.6560  178.2300  140.3720 C   0  0  0  0  0  3  0  0  0  0  0  0
  188.8660  177.6420  141.3760 C   0  0  0  0  0  0  0  0  0  0  0  0
  190.9530  177.0220  142.5460 C   0  0  0  0  0  3  0  0  0  0  0  0
  189.8490  177.2320  147.5320 C   0  0  0  0  0  2  0  0  0  0  0  0
  189.5900  177.3610  142.5670 C   0  0  0  0  0  0  0  0  0  0  0  0
  191.8200  176.5420  146.1860 C   0  0  0  0  0  2  0  0  0  0  0  0
  191.0000  176.7760  144.9480 C   0  0  0  0  0  0  0  0  0  0  0  0
  189.4170  177.6130  140.0610 C   0  0  0  0  0  0  0  0  0  0  0  0
  191.6490  176.7400  143.7170 C   0  0  0  0  0  3  0  0  0  0  0  0
  188.5850  177.8840  138.9610 C   0  0  0  0  0  3  0  0  0  0  0  0
  187.5730  177.7430  143.8760 C   0  0  0  0  0  3  0  0  0  0  0  0
  186.8430  178.0270  142.7670 N   0  0  0  0  0  0  0  0  0  0  0  0
  189.6340  177.1320  145.0130 C   0  0  0  0  0  0  0  0  0  0  0  0
  190.6750  177.3390  139.8660 N   0  0  0  0  0  0  0  0  0  0  0  0
  187.2350  178.1830  139.1120 C   0  0  0  0  0  3  0  0  0  0  0  0
  190.9610  176.2050  147.3990 C   0  0  0  0  0  2  0  0  0  0  0  0
  188.9060  177.1090  146.3400 C   0  0  0  0  0  2  0  0  0  0  0  0
  183.5990  178.9300  144.4200 C   0  0  0  0  0  0  0  0  0  0  0  0
  183.1070  179.1750  145.6590 F   0  0  0  0  0  0  0  0  0  0  0  0
  185.4580  178.3630  142.9610 C   0  0  0  0  0  0  0  0  0  0  0  0
  182.7480  178.9860  143.3140 C   0  0  0  0  0  3  0  0  0  0  0  0
  184.5930  178.4120  141.8590 C   0  0  0  0  0  3  0  0  0  0  0  0
  184.9520  178.6140  144.2490 C   0  0  0  0  0  0  0  0  0  0  0  0
  185.7640  178.5350  145.3330 F   0  0  0  0  0  0  0  0  0  0  0  0
  183.2410  178.7260  142.0250 C   0  0  0  0  0  0  0  0  0  0  0  0
  181.0440  179.1440  140.9700 C   0  0  0  0  0  1  0  0  0  0  0  0
  182.4130  178.7700  140.9010 O   0  0  0  0  0  0  0  0  0  0  0  0
  191.3200  177.2870  138.5600 C   0  0  0  0  0  2  0  0  0  0  0  0
  192.6290  176.5370  138.6760 C   0  0  0  0  0  2  0  0  0  0  0  0
  193.5040  177.2540  139.4910 O   0  0  0  0  0  1  0  0  0  0  0  0
  1 14  1  0  0  0  0
  2 13  2  0  0  0  0
  2 15  1  0  0  0  0
  3  1  2  0  0  0  0
  4  1  1  0  0  0  0
  4  7  2  0  0  0  0
  5  7  1  0  0  0  0
  5 11  2  0  0  0  0
  7  2  1  0  0  0  0
  8 18  1  0  0  0  0
  9 15  2  0  0  0  0
  9  8  1  0  0  0  0
 10  4  1  0  0  0  0
 11  9  1  0  0  0  0
 12 17  2  0  0  0  0
 12 10  1  0  0  0  0
 14 22  1  0  0  0  0
 14 13  1  0  0  0  0
 15 19  1  0  0  0  0
 16 10  2  0  0  0  0
 17  3  1  0  0  0  0
 18  6  1  0  0  0  0
 19  6  1  0  0  0  0
 20 21  1  0  0  0  0
 22 25  2  0  0  0  0
 23 20  2  0  0  0  0
 24 27  2  0  0  0  0
 24 22  1  0  0  0  0
 25 20  1  0  0  0  0
 25 26  1  0  0  0  0
 27 23  1  0  0  0  0
 29 28  1  0  0  0  0
 29 27  1  0  0  0  0
 30 31  1  0  0  0  0
 30 16  1  0  0  0  0
 31 32  1  0  0  0  0
M  END
>  <MODEL>
7

>  <REMARK>
 VINA RESULT:      -9.7      2.857      6.404
  Name = 
  4 active torsions:
  status: ('A' for Active; 'I' for Inactive)
    1  A    between atoms: C_13  and  C_18
    2  A    between atoms: O_15  and  C_26
    3  A    between atoms: C_16  and  N_27
    4  A    between atoms: C_18  and  N_29
                            x       y       z     vdW  Elec       q    Type
                         _______ _______ _______ _____ _____    ______ ____

>  <TORSDO>
F 4

$$$$
=
 OpenBabel10272413133D

 32 36  0  0  0  0  0  0  0  0999 V2000
  186.3920  178.1520  144.2330 C   0  0  0  0  0  0  0  0  0  0  0  0
  187.0140  178.1530  141.4930 C   0  0  0  0  0  0  0  0  0  0  0  0
  186.0670  178.1170  145.5950 C   0  0  0  0  0  3  0  0  0  0  0  0
  185.3220  178.4900  143.2400 C   0  0  0  0  0  0  0  0  0  0  0  0
  184.7610  178.7680  140.8500 C   0  0  0  0  0  3  0  0  0  0  0  0
  189.1610  178.1530  138.3230 C   0  0  0  0  0  2  0  0  0  0  0  0
  185.6850  178.4760  141.8660 C   0  0  0  0  0  0  0  0  0  0  0  0
  186.7840  178.4810  137.6780 C   0  0  0  0  0  2  0  0  0  0  0  0
  186.4260  178.4130  139.1370 C   0  0  0  0  0  0  0  0  0  0  0  0
  184.0190  178.7890  143.7360 C   0  0  0  0  0  0  0  0  0  0  0  0
  185.1260  178.7440  139.5070 C   0  0  0  0  0  3  0  0  0  0  0  0
  183.7830  178.7400  145.1210 C   0  0  0  0  0  3  0  0  0  0  0  0
  187.9580  177.8540  142.4790 C   0  0  0  0  0  3  0  0  0  0  0  0
  187.6600  177.8620  143.8030 N   0  0  0  0  0  0  0  0  0  0  0  0
  187.3910  178.1320  140.1300 C   0  0  0  0  0  0  0  0  0  0  0  0
  183.0490  179.1040  142.9280 N   0  0  0  0  0  0  0  0  0  0  0  0
  184.7820  178.4090  146.0300 C   0  0  0  0  0  3  0  0  0  0  0  0
  188.0680  177.7250  137.3580 C   0  0  0  0  0  2  0  0  0  0  0  0
  188.7880  177.7080  139.7340 C   0  0  0  0  0  2  0  0  0  0  0  0
  190.8840  176.5360  145.1900 C   0  0  0  0  0  0  0  0  0  0  0  0
  191.9830  175.8600  144.7750 F   0  0  0  0  0  0  0  0  0  0  0  0
  188.7240  177.5470  144.7180 C   0  0  0  0  0  0  0  0  0  0  0  0
  190.7700  176.9180  146.5280 C   0  0  0  0  0  3  0  0  0  0  0  0
  188.6160  177.9170  146.0660 C   0  0  0  0  0  3  0  0  0  0  0  0
  189.8620  176.8440  144.2830 C   0  0  0  0  0  0  0  0  0  0  0  0
  189.9700  176.4430  142.9910 F   0  0  0  0  0  0  0  0  0  0  0  0
  189.6330  177.6100  146.9740 C   0  0  0  0  0  0  0  0  0  0  0  0
  188.2310  178.0380  148.9670 C   0  0  0  0  0  1  0  0  0  0  0  0
  189.4900  178.0010  148.3080 O   0  0  0  0  0  0  0  0  0  0  0  0
  181.6900  179.4230  143.3460 C   0  0  0  0  0  2  0  0  0  0  0  0
  180.7270  179.0870  142.2280 C   0  0  0  0  0  2  0  0  0  0  0  0
  181.4260  178.4970  141.1760 O   0  0  0  0  0  1  0  0  0  0  0  0
  1  3  2  0  0  0  0
  2  7  1  0  0  0  0
  2 13  2  0  0  0  0
  3 17  1  0  0  0  0
  4 10  1  0  0  0  0
  4  1  1  0  0  0  0
  5  7  1  0  0  0  0
  6 19  1  0  0  0  0
  7  4  2  0  0  0  0
  8  9  1  0  0  0  0
  9 11  1  0  0  0  0
  9 15  2  0  0  0  0
 10 12  1  0  0  0  0
 11  5  2  0  0  0  0
 12 17  2  0  0  0  0
 13 14  1  0  0  0  0
 14  1  1  0  0  0  0
 14 22  1  0  0  0  0
 15  2  1  0  0  0  0
 16 30  1  0  0  0  0
 16 10  2  0  0  0  0
 18  8  1  0  0  0  0
 18  6  1  0  0  0  0
 19 15  1  0  0  0  0
 20 23  1  0  0  0  0
 21 20  1  0  0  0  0
 22 24  2  0  0  0  0
 23 27  2  0  0  0  0
 24 27  1  0  0  0  0
 25 22  1  0  0  0  0
 25 20  2  0  0  0  0
 26 25  1  0  0  0  0
 27 29  1  0  0  0  0
 29 28  1  0  0  0  0
 31 30  1  0  0  0  0
 32 31  1  0  0  0  0
M  END
>  <MODEL>
8

>  <REMARK>
 VINA RESULT:      -9.6      2.708      6.487
  Name = 
  4 active torsions:
  status: ('A' for Active; 'I' for Inactive)
    1  A    between atoms: C_13  and  C_18
    2  A    between atoms: O_15  and  C_26
    3  A    between atoms: C_16  and  N_27
    4  A    between atoms: C_18  and  N_29
                            x       y       z     vdW  Elec       q    Type
                         _______ _______ _______ _____ _____    ______ ____

>  <TORSDO>
F 4

$$$$
=
 OpenBabel10272413133D

 32 36  0  0  0  0  0  0  0  0999 V2000
  185.3520  178.4160  141.2190 C   0  0  0  0  0  0  0  0  0  0  0  0
  186.5700  178.0740  143.7270 C   0  0  0  0  0  0  0  0  0  0  0  0
  184.7450  178.5480  139.9630 C   0  0  0  0  0  3  0  0  0  0  0  0
  186.8350  178.2210  141.2910 C   0  0  0  0  0  0  0  0  0  0  0  0
  188.7830  177.8530  142.7670 C   0  0  0  0  0  3  0  0  0  0  0  0
  186.9620  178.1030  147.5350 C   0  0  0  0  0  2  0  0  0  0  0  0
  187.4050  178.0520  142.5820 C   0  0  0  0  0  0  0  0  0  0  0  0
  189.1630  177.5770  146.5100 C   0  0  0  0  0  2  0  0  0  0  0  0
  188.5100  177.6880  145.1610 C   0  0  0  0  0  0  0  0  0  0  0  0
  187.5690  178.2080  140.0680 C   0  0  0  0  0  0  0  0  0  0  0  0
  189.3280  177.6800  144.0350 C   0  0  0  0  0  3  0  0  0  0  0  0
  186.8810  178.3590  138.8520 C   0  0  0  0  0  3  0  0  0  0  0  0
  185.1940  178.2660  143.5790 C   0  0  0  0  0  3  0  0  0  0  0  0
  184.6060  178.4390  142.3680 N   0  0  0  0  0  0  0  0  0  0  0  0
  187.1210  177.9040  145.0180 C   0  0  0  0  0  0  0  0  0  0  0  0
  188.8620  178.0580  140.0620 N   0  0  0  0  0  0  0  0  0  0  0  0
  185.5000  178.5220  138.7990 C   0  0  0  0  0  3  0  0  0  0  0  0
  188.1750  177.1910  147.6050 C   0  0  0  0  0  2  0  0  0  0  0  0
  186.2150  177.8470  146.2300 C   0  0  0  0  0  2  0  0  0  0  0  0
  181.0670  178.9120  143.5160 C   0  0  0  0  0  0  0  0  0  0  0  0
  180.3610  179.0040  144.6700 F   0  0  0  0  0  0  0  0  0  0  0  0
  183.1820  178.6380  142.3510 C   0  0  0  0  0  0  0  0  0  0  0  0
  180.4020  178.9950  142.2910 C   0  0  0  0  0  3  0  0  0  0  0  0
  182.5030  178.7110  141.1260 C   0  0  0  0  0  3  0  0  0  0  0  0
  182.4540  178.7300  143.5510 C   0  0  0  0  0  0  0  0  0  0  0  0
  183.0860  178.6240  144.7470 F   0  0  0  0  0  0  0  0  0  0  0  0
  181.1180  178.8930  141.0870 C   0  0  0  0  0  0  0  0  0  0  0  0
  181.1100  178.5750  138.6340 C   0  0  0  0  0  1  0  0  0  0  0  0
  180.4800  178.9670  139.8470 O   0  0  0  0  0  0  0  0  0  0  0  0
  189.6890  178.0310  138.8620 C   0  0  0  0  0  2  0  0  0  0  0  0
  190.5710  176.8010  138.8870 C   0  0  0  0  0  2  0  0  0  0  0  0
  190.4880  176.1960  140.1390 O   0  0  0  0  0  1  0  0  0  0  0  0
  1  4  1  0  0  0  0
  1 14  1  0  0  0  0
  2 15  1  0  0  0  0
  3  1  2  0  0  0  0
  4  7  2  0  0  0  0
  5 11  2  0  0  0  0
  6 18  1  0  0  0  0
  7  5  1  0  0  0  0
  7  2  1  0  0  0  0
  8 18  1  0  0  0  0
  9  8  1  0  0  0  0
 10  4  1  0  0  0  0
 11  9  1  0  0  0  0
 12 10  1  0  0  0  0
 13  2  2  0  0  0  0
 14 13  1  0  0  0  0
 15  9  2  0  0  0  0
 15 19  1  0  0  0  0
 16 10  2  0  0  0  0
 17 12  2  0  0  0  0
 17  3  1  0  0  0  0
 19  6  1  0  0  0  0
 20 25  1  0  0  0  0
 20 21  1  0  0  0  0
 22 14  1  0  0  0  0
 22 25  2  0  0  0  0
 23 20  2  0  0  0  0
 24 22  1  0  0  0  0
 25 26  1  0  0  0  0
 27 24  2  0  0  0  0
 27 23  1  0  0  0  0
 28 29  1  0  0  0  0
 29 27  1  0  0  0  0
 30 31  1  0  0  0  0
 30 16  1  0  0  0  0
 31 32  1  0  0  0  0
M  END
>  <MODEL>
9

>  <REMARK>
 VINA RESULT:      -9.3      3.608      6.898
  Name = 
  4 active torsions:
  status: ('A' for Active; 'I' for Inactive)
    1  A    between atoms: C_13  and  C_18
    2  A    between atoms: O_15  and  C_26
    3  A    between atoms: C_16  and  N_27
    4  A    between atoms: C_18  and  N_29
                            x       y       z     vdW  Elec       q    Type
                         _______ _______ _______ _____ _____    ______ ____

>  <TORSDO>
F 4

$$$$
