=
 OpenBabel10272414123D

 43 48  0  0  1  0  0  0  0  0999 V2000
  184.2380  178.7240  144.6720 C   0  0  0  0  0  0  0  0  0  0  0  0
  182.6500  178.2750  139.8420 N   0  0  1  0  0  0  0  0  0  0  0  0
  185.0670  178.6000  138.1760 C   0  0  2  0  0  3  0  0  0  0  0  0
  182.8300  178.5580  142.5640 C   0  0  1  0  0  3  0  0  0  0  0  0
  185.3150  178.3250  143.9760 C   0  0  0  0  0  3  0  0  0  0  0  0
  184.3750  178.9830  145.9960 F   0  0  0  0  0  0  0  0  0  0  0  0
  184.1470  178.7950  141.8140 C   0  0  1  0  0  3  0  0  0  0  0  0
  182.9260  179.0620  144.0030 C   0  0  0  0  0  2  0  0  0  0  0  0
  185.2580  178.0160  142.5050 C   0  0  0  0  0  2  0  0  0  0  0  0
  184.8800  179.2090  139.5030 N   0  0  0  0  0  2  0  0  0  0  0  0
  184.0460  178.3490  140.3470 C   0  0  2  0  0  3  0  0  0  0  0  0
  181.8700  179.3990  140.3620 C   0  0  0  0  0  2  0  0  0  0  0  0
  182.5780  178.3330  138.3720 C   0  0  1  0  0  3  0  0  0  0  0  0
  183.8430  177.8130  137.6960 C   0  0  0  0  0  2  0  0  0  0  0  0
  181.6470  179.2360  141.8670 C   0  0  0  0  0  2  0  0  0  0  0  0
  186.3010  177.7510  138.1170 C   0  0  0  0  0  0  0  0  0  0  0  0
  187.4300  178.1060  138.9190 N   0  0  0  0  0  2  0  0  0  0  0  0
  186.3460  176.7370  137.3700 O   0  0  0  0  0  0  0  0  0  0  0  0
  189.8020  178.1210  139.5080 C   0  0  0  0  0  2  0  0  0  0  0  0
  189.1500  177.0770  140.3940 C   0  0  2  0  0  3  0  0  0  0  0  0
  188.6480  177.3020  138.9630 C   0  0  1  0  0  3  0  0  0  0  0  0
  188.3530  177.7850  141.4920 C   0  0  2  0  0  3  0  0  0  0  0  0
  188.6600  179.2760  141.4910 C   0  0  0  0  0  1  0  0  0  0  0  0
  188.5710  177.1390  142.8720 C   0  0  1  0  0  3  0  0  0  0  0  0
  189.0970  175.7080  142.7960 C   0  0  0  0  0  2  0  0  0  0  0  0
  190.5520  175.6530  143.2190 C   0  0  0  0  0  1  0  0  0  0  0  0
  189.5100  177.9870  143.7190 C   0  0  0  0  0  2  0  0  0  0  0  0
  188.8340  178.4550  144.8560 O   0  0  0  0  0  0  0  0  0  0  0  0
  189.7660  177.0960  146.7280 C   0  0  0  0  0  2  0  0  0  0  0  0
  187.2170  177.3710  146.3970 C   0  0  0  0  0  2  0  0  0  0  0  0
  188.2680  177.7120  148.6470 C   0  0  0  0  0  2  0  0  0  0  0  0
  187.1800  178.1870  147.6890 C   0  0  0  0  0  2  0  0  0  0  0  0
  189.6410  177.9140  148.0130 C   0  0  0  0  0  2  0  0  0  0  0  0
  188.6100  177.3880  145.7540 C   0  0  0  0  0  3  0  0  0  0  0  0
  181.3010  177.6630  137.8310 C   0  0  0  0  0  2  0  0  0  0  0  0
  181.3080  174.1890  136.1010 C   0  0  0  0  0  2  0  0  0  0  0  0
  180.7600  173.3650  137.2470 C   0  0  0  0  0  0  0  0  0  0  0  0
  180.4250  175.4110  138.6480 C   0  0  0  0  0  2  0  0  0  0  0  0
  181.0220  175.6830  136.2360 C   0  0  0  0  0  2  0  0  0  0  0  0
  181.3330  176.1360  137.6580 C   0  0  1  0  0  3  0  0  0  0  0  0
  180.4130  173.9280  138.4100 C   0  0  0  0  0  3  0  0  0  0  0  0
  181.0560  171.2770  135.9610 C   0  0  0  0  0  1  0  0  0  0  0  0
  180.6670  171.9760  137.1360 O   0  0  0  0  0  0  0  0  0  0  0  0
  1  6  1  0  0  0  0
  2 11  1  0  0  0  0
  2 12  1  1  0  0  0
  3 16  1  1  0  0  0
  3 10  1  0  0  0  0
  4 15  1  6  0  0  0
  4  8  1  0  0  0  0
  5  1  2  0  0  0  0
  7  9  1  1  0  0  0
  7  4  1  0  0  0  0
  8  1  1  0  0  0  0
  9  5  1  0  0  0  0
 11 10  1  6  0  0  0
 11  7  1  0  0  0  0
 12 15  1  0  0  0  0
 13 35  1  6  0  0  0
 13  2  1  0  0  0  0
 14  3  1  0  0  0  0
 14 13  1  0  0  0  0
 16 17  1  0  0  0  0
 18 16  2  0  0  0  0
 19 20  1  0  0  0  0
 20 22  1  1  0  0  0
 21 17  1  1  0  0  0
 21 19  1  0  0  0  0
 21 20  1  0  0  0  0
 22 23  1  1  0  0  0
 22 24  1  0  0  0  0
 24 25  1  6  0  0  0
 24 27  1  0  0  0  0
 25 26  1  0  0  0  0
 27 28  1  0  0  0  0
 28 34  1  0  0  0  0
 29 33  1  0  0  0  0
 30 32  1  0  0  0  0
 32 31  1  0  0  0  0
 33 31  1  0  0  0  0
 34 30  1  0  0  0  0
 34 29  1  0  0  0  0
 36 39  1  0  0  0  0
 36 37  1  0  0  0  0
 37 41  2  0  0  0  0
 39 40  1  0  0  0  0
 40 35  1  6  0  0  0
 40 38  1  0  0  0  0
 41 38  1  0  0  0  0
 42 43  1  0  0  0  0
 43 37  1  0  0  0  0
M  END
>  <MODEL>
1

>  <REMARK>
 VINA RESULT:      -8.3      0.000      0.000
  Name = 
  11 active torsions:
  status: ('A' for Active; 'I' for Inactive)
    1  A    between atoms: C_1  and  C_34
    2  A    between atoms: C_1  and  C_35
    3  A    between atoms: C_2  and  C_13
    4  A    between atoms: C_4  and  C_12
    5  A    between atoms: C_4  and  C_22
    6  A    between atoms: N_6  and  C_17
    7  A    between atoms: C_10  and  C_22
    8  A    between atoms: C_14  and  C_22
    9  A    between atoms: C_14  and  O_41
   10  A    between atoms: C_19  and  O_37
   11  A    between atoms: C_40  and  O_41
                            x       y       z     vdW  Elec       q    Type
                         _______ _______ _______ _____ _____    ______ ____

>  <TORSDO>
F 11

$$$$
=
 OpenBabel10272414123D

 43 48  0  0  1  0  0  0  0  0999 V2000
  193.2550  175.5050  136.3920 C   0  0  0  0  0  0  0  0  0  0  0  0
  189.8110  177.0420  139.8320 N   0  0  1  0  0  0  0  0  0  0  0  0
  187.8850  178.7090  138.3380 C   0  0  2  0  0  3  0  0  0  0  0  0
  192.0080  176.0240  138.5440 C   0  0  1  0  0  3  0  0  0  0  0  0
  192.1400  175.7670  135.6910 C   0  0  0  0  0  3  0  0  0  0  0  0
  194.3730  175.1240  135.7240 F   0  0  0  0  0  0  0  0  0  0  0  0
  191.1130  176.9080  137.6670 C   0  0  1  0  0  3  0  0  0  0  0  0
  193.3600  175.7850  137.8730 C   0  0  0  0  0  2  0  0  0  0  0  0
  190.8550  176.1950  136.3460 C   0  0  0  0  0  2  0  0  0  0  0  0
  189.3010  178.5420  137.9750 N   0  0  0  0  0  2  0  0  0  0  0  0
  189.7720  177.2080  138.3550 C   0  0  2  0  0  3  0  0  0  0  0  0
  191.0790  177.5480  140.3590 C   0  0  0  0  0  2  0  0  0  0  0  0
  188.7290  177.7750  140.5110 C   0  0  1  0  0  3  0  0  0  0  0  0
  187.5010  177.9720  139.6270 C   0  0  0  0  0  2  0  0  0  0  0  0
  192.2310  176.6360  139.9290 C   0  0  0  0  0  2  0  0  0  0  0  0
  186.9680  178.3260  137.2150 C   0  0  0  0  0  0  0  0  0  0  0  0
  185.7750  177.5950  137.5080 N   0  0  0  0  0  2  0  0  0  0  0  0
  187.2430  178.6430  136.0260 O   0  0  0  0  0  0  0  0  0  0  0  0
  184.1890  175.8800  136.7890 C   0  0  0  0  0  2  0  0  0  0  0  0
  183.3750  177.1350  137.0370 C   0  0  2  0  0  3  0  0  0  0  0  0
  184.8020  177.2320  136.4820 C   0  0  1  0  0  3  0  0  0  0  0  0
  183.2380  177.3490  138.5450 C   0  0  2  0  0  3  0  0  0  0  0  0
  182.5240  176.1650  139.1850 C   0  0  0  0  0  1  0  0  0  0  0  0
  182.5660  178.6930  138.8800 C   0  0  1  0  0  3  0  0  0  0  0  0
  181.7050  179.2400  137.7440 C   0  0  0  0  0  2  0  0  0  0  0  0
  180.9760  180.4930  138.1850 C   0  0  0  0  0  1  0  0  0  0  0  0
  181.7310  178.5750  140.1470 C   0  0  0  0  0  2  0  0  0  0  0  0
  182.3260  179.3150  141.1790 O   0  0  0  0  0  0  0  0  0  0  0  0
  184.3530  178.0390  141.8770 C   0  0  0  0  0  2  0  0  0  0  0  0
  182.5750  178.7940  143.5950 C   0  0  0  0  0  2  0  0  0  0  0  0
  185.0160  179.1910  144.0070 C   0  0  0  0  0  2  0  0  0  0  0  0
  183.6100  179.7570  144.1780 C   0  0  0  0  0  2  0  0  0  0  0  0
  185.3290  179.0220  142.5240 C   0  0  0  0  0  2  0  0  0  0  0  0
  182.8900  178.4410  142.1340 C   0  0  0  0  0  3  0  0  0  0  0  0
  188.3800  177.1530  141.8750 C   0  0  0  0  0  2  0  0  0  0  0  0
  191.4140  176.0810  144.0430 C   0  0  0  0  0  2  0  0  0  0  0  0
  191.0930  176.8760  145.2910 C   0  0  0  0  0  0  0  0  0  0  0  0
  188.9290  177.6660  144.3130 C   0  0  0  0  0  2  0  0  0  0  0  0
  190.2120  175.8790  143.1250 C   0  0  0  0  0  2  0  0  0  0  0  0
  189.4650  177.1980  142.9620 C   0  0  1  0  0  3  0  0  0  0  0  0
  189.9890  177.6280  145.3760 C   0  0  0  0  0  3  0  0  0  0  0  0
  192.1160  175.8020  147.2650 C   0  0  0  0  0  1  0  0  0  0  0  0
  191.9850  176.8940  146.3660 O   0  0  0  0  0  0  0  0  0  0  0  0
  1  8  1  0  0  0  0
  2 12  1  1  0  0  0
  2 13  1  0  0  0  0
  3 16  1  6  0  0  0
  3 14  1  0  0  0  0
  4  8  1  6  0  0  0
  4 15  1  0  0  0  0
  5  9  1  0  0  0  0
  5  1  2  0  0  0  0
  6  1  1  0  0  0  0
  7  9  1  6  0  0  0
  7 11  1  0  0  0  0
  7  4  1  0  0  0  0
 10  3  1  0  0  0  0
 11 10  1  1  0  0  0
 11  2  1  0  0  0  0
 13 35  1  1  0  0  0
 14 13  1  0  0  0  0
 15 12  1  0  0  0  0
 16 17  1  0  0  0  0
 18 16  2  0  0  0  0
 19 20  1  0  0  0  0
 20 22  1  1  0  0  0
 21 19  1  0  0  0  0
 21 20  1  0  0  0  0
 21 17  1  1  0  0  0
 22 24  1  0  0  0  0
 22 23  1  6  0  0  0
 24 25  1  6  0  0  0
 24 27  1  0  0  0  0
 25 26  1  0  0  0  0
 27 28  1  0  0  0  0
 28 34  1  0  0  0  0
 29 34  1  0  0  0  0
 29 33  1  0  0  0  0
 30 32  1  0  0  0  0
 31 32  1  0  0  0  0
 33 31  1  0  0  0  0
 34 30  1  0  0  0  0
 36 37  1  0  0  0  0
 37 41  2  0  0  0  0
 37 43  1  0  0  0  0
 38 41  1  0  0  0  0
 39 36  1  0  0  0  0
 40 35  1  6  0  0  0
 40 39  1  0  0  0  0
 40 38  1  0  0  0  0
 43 42  1  0  0  0  0
M  END
>  <MODEL>
2

>  <REMARK>
 VINA RESULT:      -8.2      3.426      9.137
  Name = 
  11 active torsions:
  status: ('A' for Active; 'I' for Inactive)
    1  A    between atoms: C_1  and  C_34
    2  A    between atoms: C_1  and  C_35
    3  A    between atoms: C_2  and  C_13
    4  A    between atoms: C_4  and  C_12
    5  A    between atoms: C_4  and  C_22
    6  A    between atoms: N_6  and  C_17
    7  A    between atoms: C_10  and  C_22
    8  A    between atoms: C_14  and  C_22
    9  A    between atoms: C_14  and  O_41
   10  A    between atoms: C_19  and  O_37
   11  A    between atoms: C_40  and  O_41
                            x       y       z     vdW  Elec       q    Type
                         _______ _______ _______ _____ _____    ______ ____

>  <TORSDO>
F 11

$$$$
=
 OpenBabel10272414123D

 43 48  0  0  1  0  0  0  0  0999 V2000
  184.0070  179.1990  143.7920 C   0  0  0  0  0  0  0  0  0  0  0  0
  183.7710  177.3350  139.0460 N   0  0  1  0  0  0  0  0  0  0  0  0
  186.1260  178.4330  137.6420 C   0  0  2  0  0  3  0  0  0  0  0  0
  183.2570  178.0930  141.6310 C   0  0  1  0  0  3  0  0  0  0  0  0
  185.2700  179.2140  143.3370 C   0  0  0  0  0  3  0  0  0  0  0  0
  183.7510  179.6960  145.0280 F   0  0  0  0  0  0  0  0  0  0  0  0
  184.4830  178.7690  141.0040 C   0  0  1  0  0  3  0  0  0  0  0  0
  182.8400  178.8080  142.9160 C   0  0  0  0  0  2  0  0  0  0  0  0
  185.6480  178.6850  141.9810 C   0  0  0  0  0  2  0  0  0  0  0  0
  185.4380  179.0960  138.7610 N   0  0  0  0  0  2  0  0  0  0  0  0
  184.8780  178.1000  139.6780 C   0  0  2  0  0  3  0  0  0  0  0  0
  182.5100  178.0610  139.1980 C   0  0  0  0  0  2  0  0  0  0  0  0
  183.9840  177.1220  137.6050 C   0  0  1  0  0  3  0  0  0  0  0  0
  185.4600  177.1180  137.2180 C   0  0  0  0  0  2  0  0  0  0  0  0
  182.0700  178.0560  140.6640 C   0  0  0  0  0  2  0  0  0  0  0  0
  187.5830  178.2220  137.9250 C   0  0  0  0  0  0  0  0  0  0  0  0
  187.9940  177.0470  138.6270 N   0  0  0  0  0  2  0  0  0  0  0  0
  188.4380  179.0700  137.5500 O   0  0  0  0  0  0  0  0  0  0  0  0
  190.1300  177.9790  139.3660 C   0  0  0  0  0  2  0  0  0  0  0  0
  189.7630  176.9060  140.3730 C   0  0  2  0  0  3  0  0  0  0  0  0
  189.3960  176.7390  138.8930 C   0  0  1  0  0  3  0  0  0  0  0  0
  188.6440  177.4320  141.2740 C   0  0  2  0  0  3  0  0  0  0  0  0
  188.6000  178.9530  141.2290 C   0  0  0  0  0  1  0  0  0  0  0  0
  188.7540  176.8880  142.7100 C   0  0  1  0  0  3  0  0  0  0  0  0
  189.5430  175.5850  142.8050 C   0  0  0  0  0  2  0  0  0  0  0  0
  190.8850  175.8230  143.4680 C   0  0  0  0  0  1  0  0  0  0  0  0
  189.3690  177.9300  143.6330 C   0  0  0  0  0  2  0  0  0  0  0  0
  188.4040  178.3900  144.5410 O   0  0  0  0  0  0  0  0  0  0  0  0
  189.2540  177.1070  146.5050 C   0  0  0  0  0  2  0  0  0  0  0  0
  186.7230  177.4570  146.1140 C   0  0  0  0  0  2  0  0  0  0  0  0
  187.7520  177.8890  148.3580 C   0  0  0  0  0  2  0  0  0  0  0  0
  186.6980  178.3480  147.3560 C   0  0  0  0  0  2  0  0  0  0  0  0
  189.1410  178.0030  147.7390 C   0  0  0  0  0  2  0  0  0  0  0  0
  188.1260  177.3860  145.4960 C   0  0  0  0  0  3  0  0  0  0  0  0
  183.2370  175.8790  137.0890 C   0  0  0  0  0  2  0  0  0  0  0  0
  184.6140  173.3220  134.5150 C   0  0  0  0  0  2  0  0  0  0  0  0
  185.1510  172.2900  135.4860 C   0  0  0  0  0  0  0  0  0  0  0  0
  184.2510  173.5650  137.4430 C   0  0  0  0  0  2  0  0  0  0  0  0
  183.5860  174.2630  135.1360 C   0  0  0  0  0  2  0  0  0  0  0  0
  184.0890  174.7480  136.4920 C   0  0  1  0  0  3  0  0  0  0  0  0
  185.0220  172.4420  136.8100 C   0  0  0  0  0  3  0  0  0  0  0  0
  185.3140  169.8680  135.0380 C   0  0  0  0  0  1  0  0  0  0  0  0
  185.8570  171.1810  135.0180 O   0  0  0  0  0  0  0  0  0  0  0  0
  1  6  1  0  0  0  0
  2 12  1  6  0  0  0
  2 11  1  0  0  0  0
  3 16  1  1  0  0  0
  3 10  1  0  0  0  0
  4 15  1  6  0  0  0
  4  8  1  0  0  0  0
  5  1  2  0  0  0  0
  7  4  1  0  0  0  0
  7  9  1  1  0  0  0
  8  1  1  0  0  0  0
  9  5  1  0  0  0  0
 11 10  1  6  0  0  0
 11  7  1  0  0  0  0
 12 15  1  0  0  0  0
 13 35  1  1  0  0  0
 13  2  1  0  0  0  0
 14 13  1  0  0  0  0
 14  3  1  0  0  0  0
 16 17  1  0  0  0  0
 18 16  2  0  0  0  0
 19 20  1  0  0  0  0
 20 22  1  1  0  0  0
 21 17  1  1  0  0  0
 21 19  1  0  0  0  0
 21 20  1  0  0  0  0
 22 23  1  1  0  0  0
 22 24  1  0  0  0  0
 24 25  1  6  0  0  0
 24 27  1  0  0  0  0
 25 26  1  0  0  0  0
 27 28  1  0  0  0  0
 28 34  1  0  0  0  0
 29 33  1  0  0  0  0
 30 32  1  0  0  0  0
 32 31  1  0  0  0  0
 33 31  1  0  0  0  0
 34 30  1  0  0  0  0
 34 29  1  0  0  0  0
 36 39  1  0  0  0  0
 36 37  1  0  0  0  0
 37 41  2  0  0  0  0
 39 40  1  0  0  0  0
 40 35  1  1  0  0  0
 40 38  1  0  0  0  0
 41 38  1  0  0  0  0
 43 42  1  0  0  0  0
 43 37  1  0  0  0  0
M  END
>  <MODEL>
3

>  <REMARK>
 VINA RESULT:      -8.1      1.975      2.215
  Name = 
  11 active torsions:
  status: ('A' for Active; 'I' for Inactive)
    1  A    between atoms: C_1  and  C_34
    2  A    between atoms: C_1  and  C_35
    3  A    between atoms: C_2  and  C_13
    4  A    between atoms: C_4  and  C_12
    5  A    between atoms: C_4  and  C_22
    6  A    between atoms: N_6  and  C_17
    7  A    between atoms: C_10  and  C_22
    8  A    between atoms: C_14  and  C_22
    9  A    between atoms: C_14  and  O_41
   10  A    between atoms: C_19  and  O_37
   11  A    between atoms: C_40  and  O_41
                            x       y       z     vdW  Elec       q    Type
                         _______ _______ _______ _____ _____    ______ ____

>  <TORSDO>
F 11

$$$$
=
 OpenBabel10272414123D

 43 48  0  0  1  0  0  0  0  0999 V2000
  194.4100  174.9340  135.3570 C   0  0  0  0  0  0  0  0  0  0  0  0
  190.0950  177.0720  137.0500 N   0  0  1  0  0  0  0  0  0  0  0  0
  189.9430  176.3910  139.9200 C   0  0  2  0  0  3  0  0  0  0  0  0
  192.1470  176.0770  135.5270 C   0  0  1  0  0  3  0  0  0  0  0  0
  194.5920  175.1150  136.6750 C   0  0  0  0  0  3  0  0  0  0  0  0
  195.3860  174.3230  134.6400 F   0  0  0  0  0  0  0  0  0  0  0  0
  192.1600  175.6120  136.9880 C   0  0  1  0  0  3  0  0  0  0  0  0
  193.0920  175.2270  134.6780 C   0  0  0  0  0  2  0  0  0  0  0  0
  193.5660  175.7820  137.5490 C   0  0  0  0  0  2  0  0  0  0  0  0
  190.6150  175.5690  138.9020 N   0  0  0  0  0  2  0  0  0  0  0  0
  191.1680  176.4170  137.8430 C   0  0  2  0  0  3  0  0  0  0  0  0
  189.6450  176.1770  135.9820 C   0  0  0  0  0  2  0  0  0  0  0  0
  188.9160  177.4090  137.8660 C   0  0  1  0  0  3  0  0  0  0  0  0
  189.2580  177.6330  139.3360 C   0  0  0  0  0  2  0  0  0  0  0  0
  190.7400  176.0240  134.9250 C   0  0  0  0  0  2  0  0  0  0  0  0
  190.8690  176.7710  141.0360 C   0  0  0  0  0  0  0  0  0  0  0  0
  190.7070  176.1550  142.3160 N   0  0  0  0  0  2  0  0  0  0  0  0
  191.7780  177.6240  140.8530 O   0  0  0  0  0  0  0  0  0  0  0  0
  191.6870  177.9180  143.6960 C   0  0  0  0  0  2  0  0  0  0  0  0
  190.8660  177.0530  144.6320 C   0  0  2  0  0  3  0  0  0  0  0  0
  191.5990  176.4260  143.4390 C   0  0  1  0  0  3  0  0  0  0  0  0
  189.3820  177.3510  144.4110 C   0  0  2  0  0  3  0  0  0  0  0  0
  189.1890  178.8070  144.0090 C   0  0  0  0  0  1  0  0  0  0  0  0
  188.5250  176.9570  145.6280 C   0  0  1  0  0  3  0  0  0  0  0  0
  189.3050  176.9470  146.9400 C   0  0  0  0  0  2  0  0  0  0  0  0
  188.8190  178.0510  147.8570 C   0  0  0  0  0  1  0  0  0  0  0  0
  187.3180  177.8760  145.7550 C   0  0  0  0  0  2  0  0  0  0  0  0
  186.3430  177.5130  144.8130 O   0  0  0  0  0  0  0  0  0  0  0  0
  185.7170  178.6130  142.6640 C   0  0  0  0  0  2  0  0  0  0  0  0
  184.5790  179.2590  144.8930 C   0  0  0  0  0  2  0  0  0  0  0  0
  183.2180  178.7780  142.8440 C   0  0  0  0  0  2  0  0  0  0  0  0
  183.2850  178.6430  144.3620 C   0  0  0  0  0  2  0  0  0  0  0  0
  184.3810  178.0260  142.2050 C   0  0  0  0  0  2  0  0  0  0  0  0
  185.8150  178.6690  144.1990 C   0  0  0  0  0  3  0  0  0  0  0  0
  188.1130  178.5760  137.2630 C   0  0  0  0  0  2  0  0  0  0  0  0
  184.4160  178.3840  138.4290 C   0  0  0  0  0  2  0  0  0  0  0  0
  183.8700  177.5260  137.3070 C   0  0  0  0  0  0  0  0  0  0  0  0
  186.1510  177.2480  136.3170 C   0  0  0  0  0  2  0  0  0  0  0  0
  185.9330  178.3000  138.5740 C   0  0  0  0  0  2  0  0  0  0  0  0
  186.5860  178.4140  137.2010 C   0  0  1  0  0  3  0  0  0  0  0  0
  184.6610  177.0630  136.3320 C   0  0  0  0  0  3  0  0  0  0  0  0
  181.7210  176.9460  138.3760 C   0  0  0  0  0  1  0  0  0  0  0  0
  182.5030  177.2520  137.2300 O   0  0  0  0  0  0  0  0  0  0  0  0
  1  5  2  0  0  0  0
  2 12  1  6  0  0  0
  2 11  1  0  0  0  0
  2 13  1  0  0  0  0
  3 16  1  1  0  0  0
  4  8  1  6  0  0  0
  4  7  1  0  0  0  0
  5  9  1  0  0  0  0
  6  1  1  0  0  0  0
  7  9  1  1  0  0  0
  7 11  1  0  0  0  0
  8  1  1  0  0  0  0
 10  3  1  0  0  0  0
 11 10  1  1  0  0  0
 13 35  1  6  0  0  0
 13 14  1  0  0  0  0
 14  3  1  0  0  0  0
 15  4  1  0  0  0  0
 15 12  1  0  0  0  0
 16 17  1  0  0  0  0
 18 16  2  0  0  0  0
 19 20  1  0  0  0  0
 20 22  1  6  0  0  0
 21 17  1  6  0  0  0
 21 19  1  0  0  0  0
 21 20  1  0  0  0  0
 22 23  1  1  0  0  0
 22 24  1  0  0  0  0
 24 27  1  1  0  0  0
 24 25  1  0  0  0  0
 25 26  1  0  0  0  0
 28 27  1  0  0  0  0
 29 34  1  0  0  0  0
 31 32  1  0  0  0  0
 32 30  1  0  0  0  0
 33 29  1  0  0  0  0
 33 31  1  0  0  0  0
 34 28  1  0  0  0  0
 34 30  1  0  0  0  0
 36 39  1  0  0  0  0
 37 36  1  0  0  0  0
 38 41  1  0  0  0  0
 38 40  1  0  0  0  0
 40 35  1  1  0  0  0
 40 39  1  0  0  0  0
 41 37  2  0  0  0  0
 43 37  1  0  0  0  0
 43 42  1  0  0  0  0
M  END
>  <MODEL>
4

>  <REMARK>
 VINA RESULT:      -8.0      3.892      7.573
  Name = 
  11 active torsions:
  status: ('A' for Active; 'I' for Inactive)
    1  A    between atoms: C_1  and  C_34
    2  A    between atoms: C_1  and  C_35
    3  A    between atoms: C_2  and  C_13
    4  A    between atoms: C_4  and  C_12
    5  A    between atoms: C_4  and  C_22
    6  A    between atoms: N_6  and  C_17
    7  A    between atoms: C_10  and  C_22
    8  A    between atoms: C_14  and  C_22
    9  A    between atoms: C_14  and  O_41
   10  A    between atoms: C_19  and  O_37
   11  A    between atoms: C_40  and  O_41
                            x       y       z     vdW  Elec       q    Type
                         _______ _______ _______ _____ _____    ______ ____

>  <TORSDO>
F 11

$$$$
=
 OpenBabel10272414123D

 43 48  0  0  1  0  0  0  0  0999 V2000
  182.8680  178.8230  143.2930 C   0  0  0  0  0  0  0  0  0  0  0  0
  187.9560  178.4350  143.1970 N   0  0  1  0  0  0  0  0  0  0  0  0
  188.6290  177.4580  140.4920 C   0  0  2  0  0  3  0  0  0  0  0  0
  185.3270  178.7170  143.9230 C   0  0  1  0  0  3  0  0  0  0  0  0
  183.2110  178.9260  141.9980 C   0  0  0  0  0  3  0  0  0  0  0  0
  181.5520  178.8370  143.6230 F   0  0  0  0  0  0  0  0  0  0  0  0
  185.5380  178.1600  142.5090 C   0  0  1  0  0  3  0  0  0  0  0  0
  183.8800  178.5210  144.3730 C   0  0  0  0  0  2  0  0  0  0  0  0
  184.6430  178.9200  141.5390 C   0  0  0  0  0  2  0  0  0  0  0  0
  187.3660  177.1740  141.1910 N   0  0  0  0  0  2  0  0  0  0  0  0
  187.0030  178.2930  142.0650 C   0  0  2  0  0  3  0  0  0  0  0  0
  187.5610  177.5560  144.2980 C   0  0  0  0  0  2  0  0  0  0  0  0
  189.3350  178.0760  142.8210 C   0  0  1  0  0  3  0  0  0  0  0  0
  189.6150  178.2750  141.3340 C   0  0  0  0  0  2  0  0  0  0  0  0
  186.2670  178.0620  144.9390 C   0  0  0  0  0  2  0  0  0  0  0  0
  188.3990  178.1120  139.1620 C   0  0  0  0  0  0  0  0  0  0  0  0
  187.5000  177.5040  138.2320 N   0  0  0  0  0  2  0  0  0  0  0  0
  188.9920  179.1830  138.8630 O   0  0  0  0  0  0  0  0  0  0  0  0
  188.1640  177.6440  135.8840 C   0  0  0  0  0  2  0  0  0  0  0  0
  186.7660  177.0580  135.8960 C   0  0  2  0  0  3  0  0  0  0  0  0
  187.1780  178.1030  136.9410 C   0  0  1  0  0  3  0  0  0  0  0  0
  186.8420  175.6010  136.3560 C   0  0  2  0  0  3  0  0  0  0  0  0
  187.9090  174.8520  135.5680 C   0  0  0  0  0  1  0  0  0  0  0  0
  185.4700  174.9040  136.3000 C   0  0  1  0  0  3  0  0  0  0  0  0
  185.3100  173.7950  137.3360 C   0  0  0  0  0  2  0  0  0  0  0  0
  185.1180  172.4550  136.6560 C   0  0  0  0  0  1  0  0  0  0  0  0
  184.3470  175.9190  136.4560 C   0  0  0  0  0  2  0  0  0  0  0  0
  183.5070  175.5410  137.5140 O   0  0  0  0  0  0  0  0  0  0  0  0
  183.5650  177.9920  137.9740 C   0  0  0  0  0  2  0  0  0  0  0  0
  182.4800  176.3320  139.6320 C   0  0  0  0  0  2  0  0  0  0  0  0
  181.2840  178.4200  138.9320 C   0  0  0  0  0  2  0  0  0  0  0  0
  181.1220  176.9480  139.2940 C   0  0  0  0  0  2  0  0  0  0  0  0
  182.1710  178.5570  137.6990 C   0  0  0  0  0  2  0  0  0  0  0  0
  183.4980  176.5480  138.5040 C   0  0  0  0  0  3  0  0  0  0  0  0
  190.3760  178.7730  143.7160 C   0  0  0  0  0  2  0  0  0  0  0  0
  192.1050  175.7940  145.5040 C   0  0  0  0  0  2  0  0  0  0  0  0
  191.6250  176.0670  146.9140 C   0  0  0  0  0  0  0  0  0  0  0  0
  190.2110  177.9800  146.1350 C   0  0  0  0  0  2  0  0  0  0  0  0
  191.2650  176.4840  144.4320 C   0  0  0  0  0  2  0  0  0  0  0  0
  191.0100  177.9320  144.8350 C   0  0  1  0  0  3  0  0  0  0  0  0
  190.8080  177.0920  147.1890 C   0  0  0  0  0  3  0  0  0  0  0  0
  193.1180  175.7180  148.8490 C   0  0  0  0  0  1  0  0  0  0  0  0
  192.0810  175.2870  147.9790 O   0  0  0  0  0  0  0  0  0  0  0  0
  1  6  1  0  0  0  0
  1  8  1  0  0  0  0
  2 12  1  1  0  0  0
  3 16  1  6  0  0  0
  3 10  1  0  0  0  0
  3 14  1  0  0  0  0
  4  8  1  1  0  0  0
  4 15  1  0  0  0  0
  5  1  2  0  0  0  0
  7  9  1  6  0  0  0
  7  4  1  0  0  0  0
  9  5  1  0  0  0  0
 11 10  1  1  0  0  0
 11  7  1  0  0  0  0
 11  2  1  0  0  0  0
 12 15  1  0  0  0  0
 13  2  1  0  0  0  0
 13 35  1  1  0  0  0
 14 13  1  0  0  0  0
 17 16  1  0  0  0  0
 18 16  2  0  0  0  0
 19 20  1  0  0  0  0
 19 21  1  0  0  0  0
 20 22  1  1  0  0  0
 20 21  1  0  0  0  0
 21 17  1  1  0  0  0
 22 23  1  6  0  0  0
 24 22  1  0  0  0  0
 24 27  1  1  0  0  0
 24 25  1  0  0  0  0
 26 25  1  0  0  0  0
 27 28  1  0  0  0  0
 28 34  1  0  0  0  0
 29 34  1  0  0  0  0
 31 32  1  0  0  0  0
 32 30  1  0  0  0  0
 33 29  1  0  0  0  0
 33 31  1  0  0  0  0
 34 30  1  0  0  0  0
 36 37  1  0  0  0  0
 37 41  2  0  0  0  0
 37 43  1  0  0  0  0
 38 41  1  0  0  0  0
 39 40  1  0  0  0  0
 39 36  1  0  0  0  0
 40 35  1  6  0  0  0
 40 38  1  0  0  0  0
 43 42  1  0  0  0  0
M  END
>  <MODEL>
5

>  <REMARK>
 VINA RESULT:      -7.8      2.435      8.801
  Name = 
  11 active torsions:
  status: ('A' for Active; 'I' for Inactive)
    1  A    between atoms: C_1  and  C_34
    2  A    between atoms: C_1  and  C_35
    3  A    between atoms: C_2  and  C_13
    4  A    between atoms: C_4  and  C_12
    5  A    between atoms: C_4  and  C_22
    6  A    between atoms: N_6  and  C_17
    7  A    between atoms: C_10  and  C_22
    8  A    between atoms: C_14  and  C_22
    9  A    between atoms: C_14  and  O_41
   10  A    between atoms: C_19  and  O_37
   11  A    between atoms: C_40  and  O_41
                            x       y       z     vdW  Elec       q    Type
                         _______ _______ _______ _____ _____    ______ ____

>  <TORSDO>
F 11

$$$$
=
 OpenBabel10272414123D

 43 48  0  0  1  0  0  0  0  0999 V2000
  185.3230  178.3340  145.4000 C   0  0  0  0  0  0  0  0  0  0  0  0
  182.3000  178.4830  141.2900 N   0  0  1  0  0  0  0  0  0  0  0  0
  184.0940  179.0010  139.0010 C   0  0  2  0  0  3  0  0  0  0  0  0
  183.3260  178.4310  143.8320 C   0  0  1  0  0  3  0  0  0  0  0  0
  186.1140  178.0180  144.3610 C   0  0  0  0  0  3  0  0  0  0  0  0
  185.8740  178.4280  146.6350 F   0  0  0  0  0  0  0  0  0  0  0  0
  184.3540  178.7530  142.7410 C   0  0  1  0  0  3  0  0  0  0  0  0
  183.8840  178.7550  145.2180 C   0  0  0  0  0  2  0  0  0  0  0  0
  185.5910  177.8910  142.9560 C   0  0  0  0  0  2  0  0  0  0  0  0
  184.3520  179.4440  140.3800 N   0  0  0  0  0  2  0  0  0  0  0  0
  183.7860  178.4890  141.3380 C   0  0  2  0  0  3  0  0  0  0  0  0
  181.7670  179.5380  142.1530 C   0  0  0  0  0  2  0  0  0  0  0  0
  181.7790  178.7200  139.9330 C   0  0  1  0  0  3  0  0  0  0  0  0
  182.7490  178.2820  138.8400 C   0  0  0  0  0  2  0  0  0  0  0  0
  182.0150  179.1930  143.6230 C   0  0  0  0  0  2  0  0  0  0  0  0
  185.2130  178.1600  138.4620 C   0  0  0  0  0  0  0  0  0  0  0  0
  186.5540  178.4420  138.8680 N   0  0  0  0  0  2  0  0  0  0  0  0
  184.9770  177.2170  137.6600 O   0  0  0  0  0  0  0  0  0  0  0  0
  188.9860  178.4060  138.6290 C   0  0  0  0  0  2  0  0  0  0  0  0
  188.6370  177.2880  139.5920 C   0  0  2  0  0  3  0  0  0  0  0  0
  187.6930  177.6390  138.4350 C   0  0  1  0  0  3  0  0  0  0  0  0
  188.2720  177.8960  140.9480 C   0  0  2  0  0  3  0  0  0  0  0  0
  188.5340  179.3960  140.9430 C   0  0  0  0  0  1  0  0  0  0  0  0
  188.9770  177.1770  142.1120 C   0  0  1  0  0  3  0  0  0  0  0  0
  190.2240  176.4090  141.6840 C   0  0  0  0  0  2  0  0  0  0  0  0
  191.4530  177.2890  141.7870 C   0  0  0  0  0  1  0  0  0  0  0  0
  189.3350  178.1650  143.2140 C   0  0  0  0  0  2  0  0  0  0  0  0
  188.9480  177.6490  144.4600 O   0  0  0  0  0  0  0  0  0  0  0  0
  189.3560  177.9080  146.9070 C   0  0  0  0  0  2  0  0  0  0  0  0
  191.3090  177.6710  145.2300 C   0  0  0  0  0  2  0  0  0  0  0  0
  191.2320  176.2910  147.3210 C   0  0  0  0  0  2  0  0  0  0  0  0
  191.6150  176.3060  145.8450 C   0  0  0  0  0  2  0  0  0  0  0  0
  189.7340  176.5380  147.4700 C   0  0  0  0  0  2  0  0  0  0  0  0
  189.8480  178.0820  145.4590 C   0  0  0  0  0  3  0  0  0  0  0  0
  180.3710  178.1260  139.7440 C   0  0  0  0  0  2  0  0  0  0  0  0
  180.6560  174.3490  138.9020 C   0  0  0  0  0  2  0  0  0  0  0  0
  180.7000  174.4560  137.3920 C   0  0  0  0  0  0  0  0  0  0  0  0
  180.7100  176.9570  137.5030 C   0  0  0  0  0  2  0  0  0  0  0  0
  181.0070  175.6520  139.6140 C   0  0  0  0  0  2  0  0  0  0  0  0
  180.2670  176.8110  138.9560 C   0  0  1  0  0  3  0  0  0  0  0  0
  180.6730  175.6440  136.7740 C   0  0  0  0  0  3  0  0  0  0  0  0
  180.5900  172.0010  137.1550 C   0  0  0  0  0  1  0  0  0  0  0  0
  180.7030  173.3050  136.6020 O   0  0  0  0  0  0  0  0  0  0  0  0
  1  6  1  0  0  0  0
  2 11  1  0  0  0  0
  2 12  1  1  0  0  0
  3 16  1  1  0  0  0
  3 10  1  0  0  0  0
  4 15  1  6  0  0  0
  4  8  1  0  0  0  0
  5  1  2  0  0  0  0
  7  9  1  1  0  0  0
  7  4  1  0  0  0  0
  8  1  1  0  0  0  0
  9  5  1  0  0  0  0
 11 10  1  6  0  0  0
 11  7  1  0  0  0  0
 12 15  1  0  0  0  0
 13 35  1  6  0  0  0
 13  2  1  0  0  0  0
 14  3  1  0  0  0  0
 14 13  1  0  0  0  0
 16 17  1  0  0  0  0
 18 16  2  0  0  0  0
 19 20  1  0  0  0  0
 20 22  1  1  0  0  0
 21 19  1  0  0  0  0
 21 17  1  1  0  0  0
 21 20  1  0  0  0  0
 22 23  1  6  0  0  0
 22 24  1  0  0  0  0
 24 25  1  6  0  0  0
 24 27  1  0  0  0  0
 25 26  1  0  0  0  0
 27 28  1  0  0  0  0
 28 34  1  0  0  0  0
 29 33  1  0  0  0  0
 30 34  1  0  0  0  0
 30 32  1  0  0  0  0
 31 33  1  0  0  0  0
 32 31  1  0  0  0  0
 34 29  1  0  0  0  0
 36 39  1  0  0  0  0
 37 36  1  0  0  0  0
 38 40  1  0  0  0  0
 40 39  1  0  0  0  0
 40 35  1  1  0  0  0
 41 37  2  0  0  0  0
 41 38  1  0  0  0  0
 43 42  1  0  0  0  0
 43 37  1  0  0  0  0
M  END
>  <MODEL>
6

>  <REMARK>
 VINA RESULT:      -7.6      1.226      1.895
  Name = 
  11 active torsions:
  status: ('A' for Active; 'I' for Inactive)
    1  A    between atoms: C_1  and  C_34
    2  A    between atoms: C_1  and  C_35
    3  A    between atoms: C_2  and  C_13
    4  A    between atoms: C_4  and  C_12
    5  A    between atoms: C_4  and  C_22
    6  A    between atoms: N_6  and  C_17
    7  A    between atoms: C_10  and  C_22
    8  A    between atoms: C_14  and  C_22
    9  A    between atoms: C_14  and  O_41
   10  A    between atoms: C_19  and  O_37
   11  A    between atoms: C_40  and  O_41
                            x       y       z     vdW  Elec       q    Type
                         _______ _______ _______ _____ _____    ______ ____

>  <TORSDO>
F 11

$$$$
=
 OpenBabel10272414123D

 43 48  0  0  1  0  0  0  0  0999 V2000
  189.7540  176.9390  146.5380 C   0  0  0  0  0  0  0  0  0  0  0  0
  186.2720  177.9230  142.9370 N   0  0  1  0  0  0  0  0  0  0  0  0
  187.8040  178.7840  140.5640 C   0  0  2  0  0  3  0  0  0  0  0  0
  187.5910  177.3810  145.2790 C   0  0  1  0  0  3  0  0  0  0  0  0
  190.3950  176.7880  145.3680 C   0  0  0  0  0  3  0  0  0  0  0  0
  190.4530  176.7910  147.6900 F   0  0  0  0  0  0  0  0  0  0  0  0
  188.4970  177.8600  144.1390 C   0  0  1  0  0  3  0  0  0  0  0  0
  188.3280  177.4330  146.6170 C   0  0  0  0  0  2  0  0  0  0  0  0
  189.7020  176.9330  144.0410 C   0  0  0  0  0  2  0  0  0  0  0  0
  188.2500  178.9630  141.9540 N   0  0  0  0  0  2  0  0  0  0  0  0
  187.7510  177.8720  142.7950 C   0  0  2  0  0  3  0  0  0  0  0  0
  185.9050  178.8220  144.0320 C   0  0  0  0  0  2  0  0  0  0  0  0
  185.6050  178.4160  141.7200 C   0  0  1  0  0  3  0  0  0  0  0  0
  186.4120  178.1500  140.4530 C   0  0  0  0  0  2  0  0  0  0  0  0
  186.3080  178.2110  145.3750 C   0  0  0  0  0  2  0  0  0  0  0  0
  188.8020  178.0170  139.7480 C   0  0  0  0  0  0  0  0  0  0  0  0
  188.4390  177.5760  138.4380 N   0  0  0  0  0  2  0  0  0  0  0  0
  189.9470  177.7620  140.2100 O   0  0  0  0  0  0  0  0  0  0  0  0
  189.4950  175.4210  137.9720 C   0  0  0  0  0  2  0  0  0  0  0  0
  188.6840  175.7720  136.7400 C   0  0  2  0  0  3  0  0  0  0  0  0
  189.3690  176.8740  137.5580 C   0  0  1  0  0  3  0  0  0  0  0  0
  187.2000  175.5520  137.0430 C   0  0  2  0  0  3  0  0  0  0  0  0
  186.9340  174.0840  137.3460 C   0  0  0  0  0  1  0  0  0  0  0  0
  186.2950  176.0970  135.9240 C   0  0  1  0  0  3  0  0  0  0  0  0
  187.0670  176.7700  134.7930 C   0  0  0  0  0  2  0  0  0  0  0  0
  186.9920  178.2780  134.9210 C   0  0  0  0  0  1  0  0  0  0  0  0
  185.4160  174.9900  135.3590 C   0  0  0  0  0  2  0  0  0  0  0  0
  184.0700  175.3860  135.3940 O   0  0  0  0  0  0  0  0  0  0  0  0
  183.0480  177.5340  136.1460 C   0  0  0  0  0  2  0  0  0  0  0  0
  183.4590  175.5850  137.7930 C   0  0  0  0  0  2  0  0  0  0  0  0
  181.2470  176.7610  137.7150 C   0  0  0  0  0  2  0  0  0  0  0  0
  181.9440  175.4180  137.9070 C   0  0  0  0  0  2  0  0  0  0  0  0
  181.5470  177.3060  136.3220 C   0  0  0  0  0  2  0  0  0  0  0  0
  183.8580  176.2670  136.4770 C   0  0  0  0  0  3  0  0  0  0  0  0
  184.1550  177.9120  141.6130 C   0  0  0  0  0  2  0  0  0  0  0  0
  180.7480  179.3730  140.4640 C   0  0  0  0  0  2  0  0  0  0  0  0
  181.2240  180.1120  139.2300 C   0  0  0  0  0  0  0  0  0  0  0  0
  183.5480  179.2290  139.5140 C   0  0  0  0  0  2  0  0  0  0  0  0
  181.7180  178.2930  140.9350 C   0  0  0  0  0  2  0  0  0  0  0  0
  183.1390  178.8440  140.9330 C   0  0  1  0  0  3  0  0  0  0  0  0
  182.5050  180.0770  138.8440 C   0  0  0  0  0  3  0  0  0  0  0  0
  180.4480  181.0720  137.0910 C   0  0  0  0  0  1  0  0  0  0  0  0
  180.3400  180.9080  138.4990 O   0  0  0  0  0  0  0  0  0  0  0  0
  1  8  1  0  0  0  0
  1  6  1  0  0  0  0
  2 12  1  1  0  0  0
  3 16  1  6  0  0  0
  3 10  1  0  0  0  0
  4 15  1  1  0  0  0
  4  8  1  0  0  0  0
  5  1  2  0  0  0  0
  7  9  1  6  0  0  0
  7  4  1  0  0  0  0
  9  5  1  0  0  0  0
 11 10  1  6  0  0  0
 11  2  1  0  0  0  0
 11  7  1  0  0  0  0
 12 15  1  0  0  0  0
 13 35  1  6  0  0  0
 13  2  1  0  0  0  0
 14  3  1  0  0  0  0
 14 13  1  0  0  0  0
 16 18  2  0  0  0  0
 17 16  1  0  0  0  0
 20 22  1  1  0  0  0
 20 21  1  0  0  0  0
 20 19  1  0  0  0  0
 21 19  1  0  0  0  0
 21 17  1  1  0  0  0
 22 23  1  6  0  0  0
 24 25  1  6  0  0  0
 24 22  1  0  0  0  0
 25 26  1  0  0  0  0
 27 28  1  0  0  0  0
 27 24  1  0  0  0  0
 28 34  1  0  0  0  0
 29 33  1  0  0  0  0
 29 34  1  0  0  0  0
 30 32  1  0  0  0  0
 31 32  1  0  0  0  0
 33 31  1  0  0  0  0
 34 30  1  0  0  0  0
 36 39  1  0  0  0  0
 37 36  1  0  0  0  0
 38 40  1  0  0  0  0
 40 39  1  0  0  0  0
 40 35  1  6  0  0  0
 41 37  2  0  0  0  0
 41 38  1  0  0  0  0
 42 43  1  0  0  0  0
 43 37  1  0  0  0  0
M  END
>  <MODEL>
7

>  <REMARK>
 VINA RESULT:      -7.4      2.660      7.224
  Name = 
  11 active torsions:
  status: ('A' for Active; 'I' for Inactive)
    1  A    between atoms: C_1  and  C_34
    2  A    between atoms: C_1  and  C_35
    3  A    between atoms: C_2  and  C_13
    4  A    between atoms: C_4  and  C_12
    5  A    between atoms: C_4  and  C_22
    6  A    between atoms: N_6  and  C_17
    7  A    between atoms: C_10  and  C_22
    8  A    between atoms: C_14  and  C_22
    9  A    between atoms: C_14  and  O_41
   10  A    between atoms: C_19  and  O_37
   11  A    between atoms: C_40  and  O_41
                            x       y       z     vdW  Elec       q    Type
                         _______ _______ _______ _____ _____    ______ ____

>  <TORSDO>
F 11

$$$$
=
 OpenBabel10272414123D

 43 48  0  0  1  0  0  0  0  0999 V2000
  188.0080  177.8590  148.3950 C   0  0  0  0  0  0  0  0  0  0  0  0
  189.6190  177.7350  143.5530 N   0  0  1  0  0  0  0  0  0  0  0  0
  187.1770  177.5150  141.9080 C   0  0  2  0  0  3  0  0  0  0  0  0
  189.4200  177.7040  146.2880 C   0  0  1  0  0  3  0  0  0  0  0  0
  186.9760  178.3050  147.6620 C   0  0  0  0  0  3  0  0  0  0  0  0
  187.8500  177.7290  149.7360 F   0  0  0  0  0  0  0  0  0  0  0  0
  188.0830  177.5380  145.5540 C   0  0  1  0  0  3  0  0  0  0  0  0
  189.2770  177.3350  147.7640 C   0  0  0  0  0  2  0  0  0  0  0  0
  187.0590  178.4810  146.1700 C   0  0  0  0  0  2  0  0  0  0  0  0
  187.3050  177.0050  143.2820 N   0  0  0  0  0  2  0  0  0  0  0  0
  188.2240  177.8460  144.0540 C   0  0  2  0  0  3  0  0  0  0  0  0
  190.2830  176.5860  144.1710 C   0  0  0  0  0  2  0  0  0  0  0  0
  189.6810  177.5460  142.0940 C   0  0  1  0  0  3  0  0  0  0  0  0
  188.4730  178.1320  141.3690 C   0  0  0  0  0  2  0  0  0  0  0  0
  190.5260  176.8530  145.6580 C   0  0  0  0  0  2  0  0  0  0  0  0
  186.0340  178.4770  141.7700 C   0  0  0  0  0  0  0  0  0  0  0  0
  184.8410  178.0510  141.1090 N   0  0  0  0  0  2  0  0  0  0  0  0
  186.1230  179.6480  142.2280 O   0  0  0  0  0  0  0  0  0  0  0  0
  183.6190  179.5430  139.6080 C   0  0  0  0  0  2  0  0  0  0  0  0
  182.6810  178.3930  139.9210 C   0  0  2  0  0  3  0  0  0  0  0  0
  183.6630  178.9040  140.9820 C   0  0  1  0  0  3  0  0  0  0  0  0
  183.1340  177.1560  139.1440 C   0  0  2  0  0  3  0  0  0  0  0  0
  183.6380  177.5540  137.7630 C   0  0  0  0  0  1  0  0  0  0  0  0
  182.0370  176.0780  139.0830 C   0  0  1  0  0  3  0  0  0  0  0  0
  180.7460  176.4860  139.7870 C   0  0  0  0  0  2  0  0  0  0  0  0
  180.0180  175.2650  140.3150 C   0  0  0  0  0  1  0  0  0  0  0  0
  181.7370  175.6980  137.6400 C   0  0  0  0  0  2  0  0  0  0  0  0
  181.4890  174.3200  137.5520 O   0  0  0  0  0  0  0  0  0  0  0  0
  183.6090  174.3310  136.2380 C   0  0  0  0  0  2  0  0  0  0  0  0
  182.0770  172.2500  136.3120 C   0  0  0  0  0  2  0  0  0  0  0  0
  184.5460  172.0470  136.6960 C   0  0  0  0  0  2  0  0  0  0  0  0
  183.1700  171.5260  137.0990 C   0  0  0  0  0  2  0  0  0  0  0  0
  184.6530  173.5330  137.0200 C   0  0  0  0  0  2  0  0  0  0  0  0
  182.1910  173.7750  136.4540 C   0  0  0  0  0  3  0  0  0  0  0  0
  191.0160  178.0350  141.5050 C   0  0  0  0  0  2  0  0  0  0  0  0
  190.7240  176.2250  138.0850 C   0  0  0  0  0  2  0  0  0  0  0  0
  192.1860  176.2500  137.6900 C   0  0  0  0  0  0  0  0  0  0  0  0
  192.8310  177.2730  139.8810 C   0  0  0  0  0  2  0  0  0  0  0  0
  190.4950  176.4340  139.5800 C   0  0  0  0  0  2  0  0  0  0  0  0
  191.3510  177.5970  140.0710 C   0  0  1  0  0  3  0  0  0  0  0  0
  193.1190  176.7750  138.4950 C   0  0  0  0  0  3  0  0  0  0  0  0
  193.9440  175.8050  136.0140 C   0  0  0  0  0  1  0  0  0  0  0  0
  192.5870  175.7810  136.4370 O   0  0  0  0  0  0  0  0  0  0  0  0
  1  6  1  0  0  0  0
  2 11  1  0  0  0  0
  2 12  1  1  0  0  0
  3 16  1  1  0  0  0
  3 10  1  0  0  0  0
  4 15  1  6  0  0  0
  4  8  1  0  0  0  0
  5  1  2  0  0  0  0
  7  9  1  1  0  0  0
  7  4  1  0  0  0  0
  8  1  1  0  0  0  0
  9  5  1  0  0  0  0
 11 10  1  6  0  0  0
 11  7  1  0  0  0  0
 12 15  1  0  0  0  0
 13 35  1  6  0  0  0
 13  2  1  0  0  0  0
 14  3  1  0  0  0  0
 14 13  1  0  0  0  0
 16 18  2  0  0  0  0
 17 16  1  0  0  0  0
 19 20  1  0  0  0  0
 19 21  1  0  0  0  0
 20 22  1  6  0  0  0
 20 21  1  0  0  0  0
 21 17  1  6  0  0  0
 22 23  1  6  0  0  0
 24 27  1  6  0  0  0
 24 22  1  0  0  0  0
 24 25  1  0  0  0  0
 25 26  1  0  0  0  0
 28 27  1  0  0  0  0
 29 34  1  0  0  0  0
 29 33  1  0  0  0  0
 30 34  1  0  0  0  0
 30 32  1  0  0  0  0
 31 33  1  0  0  0  0
 31 32  1  0  0  0  0
 34 28  1  0  0  0  0
 36 39  1  0  0  0  0
 37 36  1  0  0  0  0
 37 41  2  0  0  0  0
 38 40  1  0  0  0  0
 39 40  1  0  0  0  0
 40 35  1  1  0  0  0
 41 38  1  0  0  0  0
 42 43  1  0  0  0  0
 43 37  1  0  0  0  0
M  END
>  <MODEL>
8

>  <REMARK>
 VINA RESULT:      -7.2      2.637      9.153
  Name = 
  11 active torsions:
  status: ('A' for Active; 'I' for Inactive)
    1  A    between atoms: C_1  and  C_34
    2  A    between atoms: C_1  and  C_35
    3  A    between atoms: C_2  and  C_13
    4  A    between atoms: C_4  and  C_12
    5  A    between atoms: C_4  and  C_22
    6  A    between atoms: N_6  and  C_17
    7  A    between atoms: C_10  and  C_22
    8  A    between atoms: C_14  and  C_22
    9  A    between atoms: C_14  and  O_41
   10  A    between atoms: C_19  and  O_37
   11  A    between atoms: C_40  and  O_41
                            x       y       z     vdW  Elec       q    Type
                         _______ _______ _______ _____ _____    ______ ____

>  <TORSDO>
F 11

$$$$
=
 OpenBabel10272414123D

 43 48  0  0  1  0  0  0  0  0999 V2000
  181.6380  179.4680  139.8470 C   0  0  0  0  0  0  0  0  0  0  0  0
  183.9610  175.3730  137.8780 N   0  0  1  0  0  0  0  0  0  0  0  0
  185.4310  176.3530  135.5120 C   0  0  2  0  0  3  0  0  0  0  0  0
  182.3780  177.1000  139.3030 C   0  0  1  0  0  3  0  0  0  0  0  0
  182.6910  179.9470  139.1660 C   0  0  0  0  0  3  0  0  0  0  0  0
  180.7910  180.3460  140.4420 F   0  0  0  0  0  0  0  0  0  0  0  0
  183.0500  177.7240  138.0740 C   0  0  1  0  0  3  0  0  0  0  0  0
  181.2660  178.0040  139.8330 C   0  0  0  0  0  2  0  0  0  0  0  0
  183.6820  179.0510  138.4750 C   0  0  0  0  0  2  0  0  0  0  0  0
  184.1980  176.9590  136.0380 N   0  0  0  0  0  2  0  0  0  0  0  0
  184.1300  176.7990  137.4930 C   0  0  2  0  0  3  0  0  0  0  0  0
  182.5430  175.0130  137.8560 C   0  0  0  0  0  2  0  0  0  0  0  0
  184.6620  174.4550  136.9640 C   0  0  1  0  0  3  0  0  0  0  0  0
  185.8650  175.1010  136.2820 C   0  0  0  0  0  2  0  0  0  0  0  0
  181.8020  175.7150  138.9960 C   0  0  0  0  0  2  0  0  0  0  0  0
  186.5550  177.3440  135.4340 C   0  0  0  0  0  0  0  0  0  0  0  0
  187.7130  177.1480  136.2490 N   0  0  0  0  0  2  0  0  0  0  0  0
  186.4810  178.3380  134.6630 O   0  0  0  0  0  0  0  0  0  0  0  0
  188.7130  179.1780  137.1740 C   0  0  0  0  0  2  0  0  0  0  0  0
  189.6640  178.0450  137.5070 C   0  0  2  0  0  3  0  0  0  0  0  0
  188.8730  178.0330  136.1930 C   0  0  1  0  0  3  0  0  0  0  0  0
  189.0680  177.2130  138.6440 C   0  0  2  0  0  3  0  0  0  0  0  0
  188.2500  178.0980  139.5740 C   0  0  0  0  0  1  0  0  0  0  0  0
  190.1420  176.4040  139.3930 C   0  0  1  0  0  3  0  0  0  0  0  0
  191.1790  175.7720  138.4690 C   0  0  0  0  0  2  0  0  0  0  0  0
  192.4860  176.5380  138.5340 C   0  0  0  0  0  1  0  0  0  0  0  0
  190.8390  177.2710  140.4320 C   0  0  0  0  0  2  0  0  0  0  0  0
  190.6670  176.7140  141.7090 O   0  0  0  0  0  0  0  0  0  0  0  0
  189.0690  177.9190  143.1980 C   0  0  0  0  0  2  0  0  0  0  0  0
  191.5940  177.8040  143.7390 C   0  0  0  0  0  2  0  0  0  0  0  0
  189.8760  177.2860  145.4890 C   0  0  0  0  0  2  0  0  0  0  0  0
  191.2520  176.9240  144.9410 C   0  0  0  0  0  2  0  0  0  0  0  0
  188.8130  177.0420  144.4230 C   0  0  0  0  0  2  0  0  0  0  0  0
  190.5010  177.7430  142.6620 C   0  0  0  0  0  3  0  0  0  0  0  0
  185.0180  173.1220  137.6470 C   0  0  0  0  0  2  0  0  0  0  0  0
  185.1620  170.2700  135.0190 C   0  0  0  0  0  2  0  0  0  0  0  0
  183.7110  169.8370  135.0750 C   0  0  0  0  0  0  0  0  0  0  0  0
  183.1510  171.6840  136.6690 C   0  0  0  0  0  2  0  0  0  0  0  0
  185.3990  171.6720  135.5750 C   0  0  0  0  0  2  0  0  0  0  0  0
  184.6540  171.8320  136.8950 C   0  0  1  0  0  3  0  0  0  0  0  0
  182.8270  170.4570  135.8660 C   0  0  0  0  0  3  0  0  0  0  0  0
  182.0300  168.0930  134.5970 C   0  0  0  0  0  1  0  0  0  0  0  0
  183.2760  168.7290  134.3460 O   0  0  0  0  0  0  0  0  0  0  0  0
  1  6  1  0  0  0  0
  2 12  1  6  0  0  0
  3 16  1  1  0  0  0
  3 10  1  0  0  0  0
  3 14  1  0  0  0  0
  4 15  1  6  0  0  0
  4  8  1  0  0  0  0
  5  1  2  0  0  0  0
  7  9  1  1  0  0  0
  7  4  1  0  0  0  0
  8  1  1  0  0  0  0
  9  5  1  0  0  0  0
 11 10  1  6  0  0  0
 11  2  1  0  0  0  0
 11  7  1  0  0  0  0
 12 15  1  0  0  0  0
 13 35  1  1  0  0  0
 13  2  1  0  0  0  0
 14 13  1  0  0  0  0
 16 17  1  0  0  0  0
 18 16  2  0  0  0  0
 19 20  1  0  0  0  0
 20 22  1  1  0  0  0
 21 17  1  1  0  0  0
 21 19  1  0  0  0  0
 21 20  1  0  0  0  0
 22 24  1  0  0  0  0
 22 23  1  1  0  0  0
 24 25  1  6  0  0  0
 24 27  1  0  0  0  0
 25 26  1  0  0  0  0
 27 28  1  0  0  0  0
 28 34  1  0  0  0  0
 29 33  1  0  0  0  0
 30 32  1  0  0  0  0
 32 31  1  0  0  0  0
 33 31  1  0  0  0  0
 34 29  1  0  0  0  0
 34 30  1  0  0  0  0
 36 37  1  0  0  0  0
 36 39  1  0  0  0  0
 37 41  2  0  0  0  0
 38 40  1  0  0  0  0
 39 40  1  0  0  0  0
 40 35  1  6  0  0  0
 41 38  1  0  0  0  0
 43 42  1  0  0  0  0
 43 37  1  0  0  0  0
M  END
>  <MODEL>
9

>  <REMARK>
 VINA RESULT:      -7.2      2.866      4.382
  Name = 
  11 active torsions:
  status: ('A' for Active; 'I' for Inactive)
    1  A    between atoms: C_1  and  C_34
    2  A    between atoms: C_1  and  C_35
    3  A    between atoms: C_2  and  C_13
    4  A    between atoms: C_4  and  C_12
    5  A    between atoms: C_4  and  C_22
    6  A    between atoms: N_6  and  C_17
    7  A    between atoms: C_10  and  C_22
    8  A    between atoms: C_14  and  C_22
    9  A    between atoms: C_14  and  O_41
   10  A    between atoms: C_19  and  O_37
   11  A    between atoms: C_40  and  O_41
                            x       y       z     vdW  Elec       q    Type
                         _______ _______ _______ _____ _____    ______ ____

>  <TORSDO>
F 11

$$$$
