=
 OpenBabel10272401423D

 55 58  0  0  1  0  0  0  0  0999 V2000
  186.4450  178.8940  137.6010 C   0  0  0  0  0  1  0  0  0  0  0  0
  190.8810  175.6900  136.6160 O   0  0  0  0  0  1  0  0  0  0  0  0
  188.5050  175.5840  136.2810 C   0  0  1  0  0  3  0  0  0  0  0  0
  187.1870  176.3670  136.3870 C   0  0  2  0  0  3  0  0  0  0  0  0
  188.6580  177.9760  138.4350 C   0  0  2  0  0  3  0  0  0  0  0  0
  189.6900  176.3900  136.8140 C   0  0  1  0  0  3  0  0  0  0  0  0
  188.4090  174.2060  136.9360 C   0  0  0  0  0  1  0  0  0  0  0  0
  186.7920  176.4560  137.7370 O   0  0  0  0  0  0  0  0  0  0  0  0
  187.1510  177.7200  138.2650 C   0  0  2  0  0  3  0  0  0  0  0  0
  189.5370  176.7390  138.2890 C   0  0  0  0  0  2  0  0  0  0  0  0
  185.8880  176.3300  134.3470 O   0  0  0  0  0  1  0  0  0  0  0  0
  186.1050  175.6570  135.5530 C   0  0  2  0  0  3  0  0  0  0  0  0
  184.7710  175.3830  136.2760 C   0  0  2  0  0  3  0  0  0  0  0  0
  184.2070  173.5630  134.5990 C   0  0  0  0  0  1  0  0  0  0  0  0
  184.2650  173.9420  136.0710 C   0  0  1  0  0  3  0  0  0  0  0  0
  185.8070  171.9850  136.1160 O   0  0  0  0  0  0  0  0  0  0  0  0
  185.0850  172.9400  136.8190 C   0  0  0  0  0  0  0  0  0  0  0  0
  185.1090  172.9360  138.0790 O   0  0  0  0  0  1  0  0  0  0  0  0
  183.8060  176.3230  135.8430 O   0  0  0  0  0  0  0  0  0  0  0  0
  181.6170  178.3860  137.8470 O   0  0  0  0  0  1  0  0  0  0  0  0
  182.7950  176.5210  136.8270 C   0  0  2  0  0  0  0  0  0  0  0  0
  181.7170  178.2280  135.4590 C   0  0  2  0  0  3  0  0  0  0  0  0
  181.5120  175.7720  136.3840 C   0  0  2  0  0  3  0  0  0  0  0  0
  180.6160  176.8080  135.1710 S   0  0  0  0  0  0  0  0  0  0  0  0
  182.4440  178.0140  136.7790 C   0  0  1  0  0  3  0  0  0  0  0  0
  181.0890  180.2430  134.3490 O   0  0  0  0  0  0  0  0  0  0  0  0
  180.9950  179.5380  135.3860 C   0  0  0  0  0  0  0  0  0  0  0  0
  180.2710  180.0090  136.4760 O   0  0  0  0  0  1  0  0  0  0  0  0
  183.3530  176.1230  138.2250 C   0  0  0  0  0  2  0  0  0  0  0  0
  182.4280  176.2660  139.2620 O   0  0  0  0  0  0  0  0  0  0  0  0
  182.9730  177.2540  140.0820 C   0  0  0  0  0  2  0  0  0  0  0  0
  181.8960  177.8010  140.9940 C   0  0  0  0  0  1  0  0  0  0  0  0
  180.5600  175.3910  137.5150 C   0  0  0  0  0  2  0  0  0  0  0  0
  180.3690  173.9100  137.5820 C   0  0  0  0  0  3  0  0  0  0  0  0
  180.0000  173.3140  138.7140 C   0  0  0  0  0  2  0  0  0  0  0  0
  188.9530  178.7070  139.7440 C   0  0  0  0  0  2  0  0  0  0  0  0
  188.1860  178.1250  140.9450 C   0  0  1  0  0  3  0  0  0  0  0  0
  189.6990  178.3640  142.9200 C   0  0  0  0  0  3  0  0  0  0  0  0
  190.7750  176.4480  143.9620 C   0  0  0  0  0  0  0  0  0  0  0  0
  189.3000  176.1400  142.0560 C   0  0  0  0  0  3  0  0  0  0  0  0
  190.1470  175.6080  143.0330 C   0  0  0  0  0  3  0  0  0  0  0  0
  190.5460  177.8320  143.8970 C   0  0  0  0  0  3  0  0  0  0  0  0
  189.0690  177.5220  142.0010 C   0  0  0  0  0  0  0  0  0  0  0  0
  191.6430  175.8920  144.9630 N   0  0  0  0  0  0  0  0  0  0  0  0
  192.3670  174.7790  144.6920 O   0  0  0  0  0  1  0  0  0  0  0  0
  191.7740  176.4990  146.2790 C   0  0  0  0  0  1  0  0  0  0  0  0
  187.1850  178.9760  141.4690 O   0  0  0  0  0  0  0  0  0  0  0  0
  186.0300  178.2180  141.7360 C   0  0  0  0  0  2  0  0  0  0  0  0
  184.3280  179.0480  143.3670 C   0  0  0  0  0  3  0  0  0  0  0  0
  185.9380  178.3360  145.5090 C   0  0  0  0  0  0  0  0  0  0  0  0
  186.3860  178.0990  144.2070 C   0  0  0  0  0  3  0  0  0  0  0  0
  183.9160  179.2670  144.6840 C   0  0  0  0  0  3  0  0  0  0  0  0
  185.5750  178.4660  143.1300 C   0  0  0  0  0  0  0  0  0  0  0  0
  186.7890  177.9570  146.6660 C   0  0  0  0  0  1  0  0  0  0  0  0
  184.7230  178.9130  145.7180 N   0  0  0  0  0  0  0  0  0  0  0  0
  3  4  1  0  0  0  0
  3  6  1  0  0  0  0
  3  7  1  1  0  0  0
  4 12  1  6  0  0  0
  4  8  1  0  0  0  0
  5 36  1  1  0  0  0
  6  2  1  1  0  0  0
  6 10  1  0  0  0  0
  8  9  1  0  0  0  0
  9  1  1  6  0  0  0
  9  5  1  0  0  0  0
 10  5  1  0  0  0  0
 12 11  1  6  0  0  0
 12 13  1  0  0  0  0
 13 19  1  6  0  0  0
 15 14  1  6  0  0  0
 15 13  1  0  0  0  0
 15 17  1  0  0  0  0
 16 17  2  0  0  0  0
 17 18  1  0  0  0  0
 19 21  1  0  0  0  0
 21 29  1  1  0  0  0
 22 27  1  1  0  0  0
 22 25  1  0  0  0  0
 23 21  1  0  0  0  0
 23 33  1  1  0  0  0
 24 22  1  0  0  0  0
 24 23  1  0  0  0  0
 25 21  1  0  0  0  0
 25 20  1  1  0  0  0
 26 27  2  0  0  0  0
 27 28  1  0  0  0  0
 29 30  1  0  0  0  0
 30 31  1  0  0  0  0
 31 32  1  0  0  0  0
 33 34  1  0  0  0  0
 34 35  2  0  0  0  0
 37 36  1  6  0  0  0
 37 47  1  0  0  0  0
 37 43  1  0  0  0  0
 38 42  1  0  0  0  0
 39 44  1  0  0  0  0
 40 41  2  0  0  0  0
 41 39  1  0  0  0  0
 42 39  2  0  0  0  0
 43 40  1  0  0  0  0
 43 38  2  0  0  0  0
 44 46  1  0  0  0  0
 45 44  1  0  0  0  0
 47 48  1  0  0  0  0
 48 53  1  0  0  0  0
 49 52  1  0  0  0  0
 50 55  1  0  0  0  0
 50 54  1  0  0  0  0
 51 50  2  0  0  0  0
 52 55  2  0  0  0  0
 53 49  2  0  0  0  0
 53 51  1  0  0  0  0
M  END
>  <MODEL>
1

>  <REMARK>
 VINA RESULT:      -6.4      0.000      0.000
  Name = 
  19 active torsions:
  status: ('A' for Active; 'I' for Inactive)
    1  A    between atoms: C_1  and  C_30
    2  A    between atoms: C_2  and  O_28
    3  A    between atoms: C_2  and  C_44
    4  A    between atoms: C_6  and  O_8
    5  A    between atoms: C_6  and  C_46
    6  A    between atoms: C_7  and  O_8
    7  A    between atoms: C_7  and  C_23
    8  A    between atoms: C_7  and  C_43
    9  A    between atoms: N_10  and  C_32
   10  A    between atoms: C_11  and  C_29
   11  A    between atoms: C_12  and  O_14
   12  A    between atoms: O_14  and  C_46
   13  A    between atoms: C_17  and  C_23
   14  A    between atoms: C_19  and  C_49
   15  A    between atoms: C_20  and  C_30
   16  A    between atoms: O_28  and  C_33
   17  A    between atoms: C_33  and  C_49
   18  A    between atoms: C_33  and  C_52
   19  A    between atoms: C_35  and  C_43
                            x       y       z     vdW  Elec       q    Type
                         _______ _______ _______ _____ _____    ______ ____

>  <TORSDO>
F 19

$$$$
=
 OpenBabel10272401423D

 55 58  0  0  1  0  0  0  0  0999 V2000
  193.5730  176.3320  138.1800 C   0  0  0  0  0  1  0  0  0  0  0  0
  188.8400  173.6100  137.1310 O   0  0  0  0  0  1  0  0  0  0  0  0
  190.9470  173.9910  136.0430 C   0  0  1  0  0  3  0  0  0  0  0  0
  192.3490  174.5990  136.2020 C   0  0  2  0  0  3  0  0  0  0  0  0
  191.0380  176.3230  138.2660 C   0  0  2  0  0  3  0  0  0  0  0  0
  190.0690  174.2560  137.2680 C   0  0  1  0  0  3  0  0  0  0  0  0
  190.2690  174.4390  134.7480 C   0  0  0  0  0  1  0  0  0  0  0  0
  192.2730  176.0040  136.1100 O   0  0  0  0  0  0  0  0  0  0  0  0
  192.2860  176.5770  137.4050 C   0  0  2  0  0  3  0  0  0  0  0  0
  189.8470  175.7430  137.5110 C   0  0  0  0  0  2  0  0  0  0  0  0
  192.9340  172.7150  134.8050 O   0  0  0  0  0  1  0  0  0  0  0  0
  193.2750  174.0350  135.1110 C   0  0  2  0  0  3  0  0  0  0  0  0
  194.7880  174.1610  135.3820 C   0  0  2  0  0  3  0  0  0  0  0  0
  194.6860  176.4770  134.3480 C   0  0  0  0  0  1  0  0  0  0  0  0
  195.4780  175.1820  134.4570 C   0  0  1  0  0  3  0  0  0  0  0  0
  197.1170  176.5250  135.7690 O   0  0  0  0  0  1  0  0  0  0  0  0
  196.8790  175.4810  134.8840 C   0  0  0  0  0  0  0  0  0  0  0  0
  197.8490  174.8140  134.4320 O   0  0  0  0  0  0  0  0  0  0  0  0
  195.3900  172.8860  135.2640 O   0  0  0  0  0  0  0  0  0  0  0  0
  195.3120  171.1940  138.4560 O   0  0  0  0  0  1  0  0  0  0  0  0
  195.9710  172.4680  136.4950 C   0  0  2  0  0  0  0  0  0  0  0  0
  194.9790  170.2520  136.2800 C   0  0  2  0  0  3  0  0  0  0  0  0
  197.2300  171.6150  136.1920 C   0  0  2  0  0  3  0  0  0  0  0  0
  196.7000  169.9090  135.7970 S   0  0  0  0  0  0  0  0  0  0  0  0
  194.9610  171.5090  137.1380 C   0  0  1  0  0  3  0  0  0  0  0  0
  194.9470  168.4250  137.8120 O   0  0  0  0  0  1  0  0  0  0  0  0
  194.3230  169.0770  136.9370 C   0  0  0  0  0  0  0  0  0  0  0  0
  193.0550  168.6630  136.5440 O   0  0  0  0  0  0  0  0  0  0  0  0
  196.2100  173.7140  137.3990 C   0  0  0  0  0  2  0  0  0  0  0  0
  195.5940  173.6300  138.6500 O   0  0  0  0  0  0  0  0  0  0  0  0
  196.3650  174.4480  139.4750 C   0  0  0  0  0  2  0  0  0  0  0  0
  197.6580  174.7980  138.7710 C   0  0  0  0  0  1  0  0  0  0  0  0
  198.2680  171.5700  137.3090 C   0  0  0  0  0  2  0  0  0  0  0  0
  199.6490  171.7580  136.7680 C   0  0  0  0  0  3  0  0  0  0  0  0
  200.1250  172.9730  136.5060 C   0  0  0  0  0  2  0  0  0  0  0  0
  190.6360  177.5740  139.0460 C   0  0  0  0  0  2  0  0  0  0  0  0
  189.1340  177.6180  139.3810 C   0  0  1  0  0  3  0  0  0  0  0  0
  187.7190  178.1530  141.3700 C   0  0  0  0  0  3  0  0  0  0  0  0
  188.2450  177.3150  143.5930 C   0  0  0  0  0  0  0  0  0  0  0  0
  189.6540  176.7400  141.6990 C   0  0  0  0  0  3  0  0  0  0  0  0
  189.3620  176.6540  143.0630 C   0  0  0  0  0  3  0  0  0  0  0  0
  187.4260  178.0680  142.7350 C   0  0  0  0  0  3  0  0  0  0  0  0
  188.8290  177.4850  140.8460 C   0  0  0  0  0  0  0  0  0  0  0  0
  187.9520  177.2210  144.9960 N   0  0  0  0  0  0  0  0  0  0  0  0
  188.9430  176.9540  145.8800 O   0  0  0  0  0  1  0  0  0  0  0  0
  186.6020  177.4110  145.5050 C   0  0  0  0  0  1  0  0  0  0  0  0
  188.4240  178.6680  138.7530 O   0  0  0  0  0  0  0  0  0  0  0  0
  188.0080  178.2450  137.4770 C   0  0  0  0  0  2  0  0  0  0  0  0
  185.6390  178.3760  138.2610 C   0  0  0  0  0  3  0  0  0  0  0  0
  185.0160  175.9980  136.9780 C   0  0  0  0  0  0  0  0  0  0  0  0
  186.3170  176.4980  136.8990 C   0  0  0  0  0  3  0  0  0  0  0  0
  184.3490  177.8430  138.3160 C   0  0  0  0  0  3  0  0  0  0  0  0
  186.6300  177.6930  137.5530 C   0  0  0  0  0  0  0  0  0  0  0  0
  184.6670  174.7270  136.2930 C   0  0  0  0  0  1  0  0  0  0  0  0
  184.0670  176.6740  137.6820 N   0  0  0  0  0  0  0  0  0  0  0  0
  3  7  1  6  0  0  0
  3  4  1  0  0  0  0
  3  6  1  0  0  0  0
  4 12  1  6  0  0  0
  5 36  1  6  0  0  0
  6  2  1  6  0  0  0
  6 10  1  0  0  0  0
  8  4  1  0  0  0  0
  8  9  1  0  0  0  0
  9  1  1  1  0  0  0
  9  5  1  0  0  0  0
 10  5  1  0  0  0  0
 12 11  1  1  0  0  0
 12 13  1  0  0  0  0
 13 19  1  6  0  0  0
 15 14  1  1  0  0  0
 15 17  1  0  0  0  0
 15 13  1  0  0  0  0
 17 16  1  0  0  0  0
 18 17  2  0  0  0  0
 19 21  1  0  0  0  0
 21 25  1  0  0  0  0
 21 29  1  1  0  0  0
 22 27  1  1  0  0  0
 22 25  1  0  0  0  0
 23 21  1  0  0  0  0
 23 33  1  1  0  0  0
 24 23  1  0  0  0  0
 24 22  1  0  0  0  0
 25 20  1  1  0  0  0
 27 26  1  0  0  0  0
 28 27  2  0  0  0  0
 29 30  1  0  0  0  0
 30 31  1  0  0  0  0
 32 31  1  0  0  0  0
 34 33  1  0  0  0  0
 35 34  2  0  0  0  0
 37 36  1  1  0  0  0
 37 43  1  0  0  0  0
 38 42  1  0  0  0  0
 39 44  1  0  0  0  0
 40 41  2  0  0  0  0
 41 39  1  0  0  0  0
 42 39  2  0  0  0  0
 43 38  2  0  0  0  0
 43 40  1  0  0  0  0
 44 46  1  0  0  0  0
 44 45  1  0  0  0  0
 47 37  1  0  0  0  0
 48 53  1  0  0  0  0
 48 47  1  0  0  0  0
 49 52  1  0  0  0  0
 50 55  1  0  0  0  0
 51 50  2  0  0  0  0
 51 53  1  0  0  0  0
 53 49  2  0  0  0  0
 54 50  1  0  0  0  0
 55 52  2  0  0  0  0
M  END
>  <MODEL>
2

>  <REMARK>
 VINA RESULT:      -6.3      5.792     10.553
  Name = 
  19 active torsions:
  status: ('A' for Active; 'I' for Inactive)
    1  A    between atoms: C_1  and  C_30
    2  A    between atoms: C_2  and  O_28
    3  A    between atoms: C_2  and  C_44
    4  A    between atoms: C_6  and  O_8
    5  A    between atoms: C_6  and  C_46
    6  A    between atoms: C_7  and  O_8
    7  A    between atoms: C_7  and  C_23
    8  A    between atoms: C_7  and  C_43
    9  A    between atoms: N_10  and  C_32
   10  A    between atoms: C_11  and  C_29
   11  A    between atoms: C_12  and  O_14
   12  A    between atoms: O_14  and  C_46
   13  A    between atoms: C_17  and  C_23
   14  A    between atoms: C_19  and  C_49
   15  A    between atoms: C_20  and  C_30
   16  A    between atoms: O_28  and  C_33
   17  A    between atoms: C_33  and  C_49
   18  A    between atoms: C_33  and  C_52
   19  A    between atoms: C_35  and  C_43
                            x       y       z     vdW  Elec       q    Type
                         _______ _______ _______ _____ _____    ______ ____

>  <TORSDO>
F 19

$$$$
=
 OpenBabel10272401423D

 55 58  0  0  1  0  0  0  0  0999 V2000
  184.6120  177.7120  140.0960 C   0  0  0  0  0  1  0  0  0  0  0  0
  179.9940  178.5920  143.0640 O   0  0  0  0  0  1  0  0  0  0  0  0
  180.6870  178.7520  140.7700 C   0  0  1  0  0  3  0  0  0  0  0  0
  181.8310  178.4730  139.7830 C   0  0  2  0  0  3  0  0  0  0  0  0
  183.5660  178.6340  142.2150 C   0  0  2  0  0  3  0  0  0  0  0  0
  181.0830  178.4180  142.2100 C   0  0  1  0  0  3  0  0  0  0  0  0
  180.1510  180.1770  140.6410 C   0  0  0  0  0  1  0  0  0  0  0  0
  182.8500  179.4320  139.9500 O   0  0  0  0  0  0  0  0  0  0  0  0
  183.8980  178.8950  140.7360 C   0  0  2  0  0  3  0  0  0  0  0  0
  182.2590  179.2550  142.6950 C   0  0  0  0  0  2  0  0  0  0  0  0
  179.9820  179.0200  138.3230 O   0  0  0  0  0  1  0  0  0  0  0  0
  181.2830  178.5100  138.3450 C   0  0  2  0  0  3  0  0  0  0  0  0
  181.3660  177.1860  137.5590 C   0  0  2  0  0  3  0  0  0  0  0  0
  179.9830  175.1230  137.0390 C   0  0  0  0  0  1  0  0  0  0  0  0
  180.4280  176.1000  138.1170 C   0  0  1  0  0  3  0  0  0  0  0  0
  182.4190  175.3640  139.4240 O   0  0  0  0  0  0  0  0  0  0  0  0
  181.0400  175.3500  139.2560 C   0  0  0  0  0  0  0  0  0  0  0  0
  180.3230  174.6850  140.0520 O   0  0  0  0  0  1  0  0  0  0  0  0
  182.7080  176.7370  137.5460 O   0  0  0  0  0  0  0  0  0  0  0  0
  184.8500  177.4120  134.7150 O   0  0  0  0  0  1  0  0  0  0  0  0
  183.1670  176.5090  136.2170 C   0  0  2  0  0  0  0  0  0  0  0  0
  185.4910  176.7330  136.9200 C   0  0  2  0  0  3  0  0  0  0  0  0
  183.6500  175.0400  136.0990 C   0  0  2  0  0  3  0  0  0  0  0  0
  185.3490  174.9250  136.7690 S   0  0  0  0  0  0  0  0  0  0  0  0
  184.4220  177.3760  136.0470 C   0  0  1  0  0  3  0  0  0  0  0  0
  187.7000  176.4620  136.0640 O   0  0  0  0  0  0  0  0  0  0  0  0
  186.8730  177.2260  136.6230 C   0  0  0  0  0  0  0  0  0  0  0  0
  187.2710  178.5000  137.0140 O   0  0  0  0  0  1  0  0  0  0  0  0
  182.0570  176.9300  135.2100 C   0  0  0  0  0  2  0  0  0  0  0  0
  182.2350  178.2100  134.6790 O   0  0  0  0  0  0  0  0  0  0  0  0
  180.9410  178.6730  134.4420 C   0  0  0  0  0  2  0  0  0  0  0  0
  180.8870  180.1660  134.6840 C   0  0  0  0  0  1  0  0  0  0  0  0
  183.6300  174.4610  134.6870 C   0  0  0  0  0  2  0  0  0  0  0  0
  182.9770  173.1170  134.6670 C   0  0  0  0  0  3  0  0  0  0  0  0
  182.4150  172.6080  135.7610 C   0  0  0  0  0  2  0  0  0  0  0  0
  184.7280  179.0280  143.1240 C   0  0  0  0  0  2  0  0  0  0  0  0
  185.5340  177.8170  143.6300 C   0  0  1  0  0  3  0  0  0  0  0  0
  187.2170  178.5110  141.9180 C   0  0  0  0  0  3  0  0  0  0  0  0
  189.3060  177.3060  141.5970 C   0  0  0  0  0  0  0  0  0  0  0  0
  187.7220  176.5870  143.2940 C   0  0  0  0  0  3  0  0  0  0  0  0
  188.9380  176.4250  142.6240 C   0  0  0  0  0  3  0  0  0  0  0  0
  188.4340  178.3510  141.2480 C   0  0  0  0  0  3  0  0  0  0  0  0
  186.8600  177.6360  142.9460 C   0  0  0  0  0  0  0  0  0  0  0  0
  190.5580  177.1330  140.9140 N   0  0  0  0  0  0  0  0  0  0  0  0
  191.7220  177.4130  141.5480 O   0  0  0  0  0  1  0  0  0  0  0  0
  190.6150  176.6540  139.5410 C   0  0  0  0  0  1  0  0  0  0  0  0
  185.6090  177.7090  145.0380 O   0  0  0  0  0  0  0  0  0  0  0  0
  186.3500  178.7920  145.5440 C   0  0  0  0  0  2  0  0  0  0  0  0
  187.0890  178.2850  147.8770 C   0  0  0  0  0  3  0  0  0  0  0  0
  189.5430  177.3680  146.9690 C   0  0  0  0  0  0  0  0  0  0  0  0
  188.6010  177.8310  146.0470 C   0  0  0  0  0  3  0  0  0  0  0  0
  188.0570  177.8140  148.7670 C   0  0  0  0  0  3  0  0  0  0  0  0
  187.3690  178.3000  146.5090 C   0  0  0  0  0  0  0  0  0  0  0  0
  190.8610  176.8710  146.4970 C   0  0  0  0  0  1  0  0  0  0  0  0
  189.2550  177.3720  148.2990 N   0  0  0  0  0  0  0  0  0  0  0  0
  3  7  1  1  0  0  0
  3  6  1  0  0  0  0
  4 12  1  6  0  0  0
  4  8  1  0  0  0  0
  4  3  1  0  0  0  0
  5 10  1  0  0  0  0
  5 36  1  1  0  0  0
  6 10  1  0  0  0  0
  6  2  1  1  0  0  0
  8  9  1  0  0  0  0
  9  1  1  6  0  0  0
  9  5  1  0  0  0  0
 12 11  1  1  0  0  0
 13 19  1  1  0  0  0
 13 15  1  0  0  0  0
 13 12  1  0  0  0  0
 15 14  1  6  0  0  0
 15 17  1  0  0  0  0
 17 16  2  0  0  0  0
 17 18  1  0  0  0  0
 21 29  1  6  0  0  0
 21 19  1  0  0  0  0
 22 27  1  6  0  0  0
 23 33  1  6  0  0  0
 23 21  1  0  0  0  0
 23 24  1  0  0  0  0
 24 22  1  0  0  0  0
 25 20  1  6  0  0  0
 25 21  1  0  0  0  0
 25 22  1  0  0  0  0
 26 27  2  0  0  0  0
 27 28  1  0  0  0  0
 30 29  1  0  0  0  0
 31 30  1  0  0  0  0
 31 32  1  0  0  0  0
 34 33  1  0  0  0  0
 34 35  2  0  0  0  0
 37 36  1  1  0  0  0
 37 47  1  0  0  0  0
 38 43  1  0  0  0  0
 39 41  2  0  0  0  0
 41 40  1  0  0  0  0
 42 39  1  0  0  0  0
 42 38  2  0  0  0  0
 43 40  2  0  0  0  0
 43 37  1  0  0  0  0
 44 45  1  0  0  0  0
 44 39  1  0  0  0  0
 46 44  1  0  0  0  0
 47 48  1  0  0  0  0
 48 53  1  0  0  0  0
 49 52  1  0  0  0  0
 50 55  1  0  0  0  0
 51 53  1  0  0  0  0
 51 50  2  0  0  0  0
 53 49  2  0  0  0  0
 54 50  1  0  0  0  0
 55 52  2  0  0  0  0
M  END
>  <MODEL>
3

>  <REMARK>
 VINA RESULT:      -6.1      2.322      5.590
  Name = 
  19 active torsions:
  status: ('A' for Active; 'I' for Inactive)
    1  A    between atoms: C_1  and  C_30
    2  A    between atoms: C_2  and  O_28
    3  A    between atoms: C_2  and  C_44
    4  A    between atoms: C_6  and  O_8
    5  A    between atoms: C_6  and  C_46
    6  A    between atoms: C_7  and  O_8
    7  A    between atoms: C_7  and  C_23
    8  A    between atoms: C_7  and  C_43
    9  A    between atoms: N_10  and  C_32
   10  A    between atoms: C_11  and  C_29
   11  A    between atoms: C_12  and  O_14
   12  A    between atoms: O_14  and  C_46
   13  A    between atoms: C_17  and  C_23
   14  A    between atoms: C_19  and  C_49
   15  A    between atoms: C_20  and  C_30
   16  A    between atoms: O_28  and  C_33
   17  A    between atoms: C_33  and  C_49
   18  A    between atoms: C_33  and  C_52
   19  A    between atoms: C_35  and  C_43
                            x       y       z     vdW  Elec       q    Type
                         _______ _______ _______ _____ _____    ______ ____

>  <TORSDO>
F 19

$$$$
=
 OpenBabel10272401423D

 55 58  0  0  1  0  0  0  0  0999 V2000
  187.2030  178.9240  137.3620 C   0  0  0  0  0  1  0  0  0  0  0  0
  191.9780  176.2040  138.2070 O   0  0  0  0  0  1  0  0  0  0  0  0
  189.9160  175.8460  137.0280 C   0  0  1  0  0  3  0  0  0  0  0  0
  188.5830  176.4860  136.6110 C   0  0  2  0  0  3  0  0  0  0  0  0
  189.0300  178.2470  138.9880 C   0  0  2  0  0  3  0  0  0  0  0  0
  190.7370  176.7750  137.9260 C   0  0  1  0  0  3  0  0  0  0  0  0
  189.7200  174.4680  137.6600 C   0  0  0  0  0  1  0  0  0  0  0  0
  187.7100  176.5370  137.7170 O   0  0  0  0  0  0  0  0  0  0  0  0
  187.7240  177.8320  138.2870 C   0  0  2  0  0  3  0  0  0  0  0  0
  190.0160  177.1090  139.2250 C   0  0  0  0  0  2  0  0  0  0  0  0
  187.7320  176.4660  134.3470 O   0  0  0  0  0  1  0  0  0  0  0  0
  187.9600  175.6640  135.4680 C   0  0  2  0  0  3  0  0  0  0  0  0
  186.6960  174.8580  135.8320 C   0  0  2  0  0  3  0  0  0  0  0  0
  187.8340  173.0850  134.4150 C   0  0  0  0  0  1  0  0  0  0  0  0
  186.8430  173.3520  135.5380 C   0  0  1  0  0  3  0  0  0  0  0  0
  186.6610  172.8800  137.9780 O   0  0  0  0  0  1  0  0  0  0  0  0
  187.2340  172.5710  136.7520 C   0  0  0  0  0  0  0  0  0  0  0  0
  188.0940  171.6520  136.6800 O   0  0  0  0  0  0  0  0  0  0  0  0
  185.5850  175.4000  135.1440 O   0  0  0  0  0  0  0  0  0  0  0  0
  183.2470  175.1580  137.8880 O   0  0  0  0  0  1  0  0  0  0  0  0
  184.3560  174.9870  135.7330 C   0  0  2  0  0  0  0  0  0  0  0  0
  184.1000  177.1400  136.8480 C   0  0  2  0  0  3  0  0  0  0  0  0
  183.1830  175.5950  134.9240 C   0  0  2  0  0  3  0  0  0  0  0  0
  182.9280  177.3240  135.4670 S   0  0  0  0  0  0  0  0  0  0  0  0
  184.3020  175.6550  137.1140 C   0  0  1  0  0  3  0  0  0  0  0  0
  184.1570  177.6070  139.1860 O   0  0  0  0  0  1  0  0  0  0  0  0
  183.6770  177.9060  138.0630 C   0  0  0  0  0  0  0  0  0  0  0  0
  182.7140  178.9050  137.9720 O   0  0  0  0  0  0  0  0  0  0  0  0
  184.3450  173.4350  135.8640 C   0  0  0  0  0  2  0  0  0  0  0  0
  183.6500  172.9680  136.9820 O   0  0  0  0  0  0  0  0  0  0  0  0
  183.3820  171.6300  136.6930 C   0  0  0  0  0  2  0  0  0  0  0  0
  183.6770  171.3610  135.2330 C   0  0  0  0  0  1  0  0  0  0  0  0
  181.8610  174.8390  135.0290 C   0  0  0  0  0  2  0  0  0  0  0  0
  180.7020  175.7830  135.0480 C   0  0  0  0  0  3  0  0  0  0  0  0
  180.2410  176.2850  136.1910 C   0  0  0  0  0  2  0  0  0  0  0  0
  188.7480  179.0090  140.2810 C   0  0  0  0  0  2  0  0  0  0  0  0
  187.9670  178.1750  141.3140 C   0  0  1  0  0  3  0  0  0  0  0  0
  188.7000  176.5220  143.0390 C   0  0  0  0  0  3  0  0  0  0  0  0
  190.1750  177.1360  144.8740 C   0  0  0  0  0  0  0  0  0  0  0  0
  189.5180  178.7910  143.2200 C   0  0  0  0  0  3  0  0  0  0  0  0
  190.2230  178.4460  144.3770 C   0  0  0  0  0  3  0  0  0  0  0  0
  189.4060  176.1760  144.1960 C   0  0  0  0  0  3  0  0  0  0  0  0
  188.7580  177.8270  142.5430 C   0  0  0  0  0  0  0  0  0  0  0  0
  190.9030  176.7910  146.0630 N   0  0  0  0  0  0  0  0  0  0  0  0
  192.1430  176.2550  145.9680 O   0  0  0  0  0  1  0  0  0  0  0  0
  190.3410  177.0060  147.3880 C   0  0  0  0  0  1  0  0  0  0  0  0
  186.6700  178.6600  141.6000 O   0  0  0  0  0  0  0  0  0  0  0  0
  185.9360  177.6550  142.2540 C   0  0  0  0  0  2  0  0  0  0  0  0
  184.0150  178.7050  143.4590 C   0  0  0  0  0  3  0  0  0  0  0  0
  185.4330  178.7160  145.8420 C   0  0  0  0  0  0  0  0  0  0  0  0
  186.0330  178.2000  144.6900 C   0  0  0  0  0  3  0  0  0  0  0  0
  183.4510  179.2120  144.6320 C   0  0  0  0  0  3  0  0  0  0  0  0
  185.3180  178.2040  143.4900 C   0  0  0  0  0  0  0  0  0  0  0  0
  186.1800  178.7250  147.1260 C   0  0  0  0  0  1  0  0  0  0  0  0
  184.1660  179.2100  145.7880 N   0  0  0  0  0  0  0  0  0  0  0  0
  3  7  1  1  0  0  0
  3  6  1  0  0  0  0
  4 12  1  6  0  0  0
  4  3  1  0  0  0  0
  4  8  1  0  0  0  0
  5 10  1  0  0  0  0
  5 36  1  1  0  0  0
  6  2  1  1  0  0  0
  6 10  1  0  0  0  0
  8  9  1  0  0  0  0
  9  1  1  6  0  0  0
  9  5  1  0  0  0  0
 12 11  1  6  0  0  0
 12 13  1  0  0  0  0
 13 19  1  6  0  0  0
 15 14  1  6  0  0  0
 15 13  1  0  0  0  0
 15 17  1  0  0  0  0
 17 16  1  0  0  0  0
 18 17  2  0  0  0  0
 19 21  1  0  0  0  0
 21 29  1  1  0  0  0
 21 25  1  0  0  0  0
 22 25  1  0  0  0  0
 22 27  1  1  0  0  0
 23 33  1  1  0  0  0
 23 24  1  0  0  0  0
 23 21  1  0  0  0  0
 24 22  1  0  0  0  0
 25 20  1  1  0  0  0
 27 26  1  0  0  0  0
 28 27  2  0  0  0  0
 29 30  1  0  0  0  0
 31 30  1  0  0  0  0
 32 31  1  0  0  0  0
 33 34  1  0  0  0  0
 34 35  2  0  0  0  0
 37 36  1  1  0  0  0
 37 47  1  0  0  0  0
 37 43  1  0  0  0  0
 38 42  1  0  0  0  0
 39 44  1  0  0  0  0
 40 41  2  0  0  0  0
 41 39  1  0  0  0  0
 42 39  2  0  0  0  0
 43 38  2  0  0  0  0
 43 40  1  0  0  0  0
 44 46  1  0  0  0  0
 45 44  1  0  0  0  0
 47 48  1  0  0  0  0
 48 53  1  0  0  0  0
 49 53  2  0  0  0  0
 49 52  1  0  0  0  0
 50 54  1  0  0  0  0
 51 50  2  0  0  0  0
 52 55  2  0  0  0  0
 53 51  1  0  0  0  0
 55 50  1  0  0  0  0
M  END
>  <MODEL>
4

>  <REMARK>
 VINA RESULT:      -5.8      1.712      2.760
  Name = 
  19 active torsions:
  status: ('A' for Active; 'I' for Inactive)
    1  A    between atoms: C_1  and  C_30
    2  A    between atoms: C_2  and  O_28
    3  A    between atoms: C_2  and  C_44
    4  A    between atoms: C_6  and  O_8
    5  A    between atoms: C_6  and  C_46
    6  A    between atoms: C_7  and  O_8
    7  A    between atoms: C_7  and  C_23
    8  A    between atoms: C_7  and  C_43
    9  A    between atoms: N_10  and  C_32
   10  A    between atoms: C_11  and  C_29
   11  A    between atoms: C_12  and  O_14
   12  A    between atoms: O_14  and  C_46
   13  A    between atoms: C_17  and  C_23
   14  A    between atoms: C_19  and  C_49
   15  A    between atoms: C_20  and  C_30
   16  A    between atoms: O_28  and  C_33
   17  A    between atoms: C_33  and  C_49
   18  A    between atoms: C_33  and  C_52
   19  A    between atoms: C_35  and  C_43
                            x       y       z     vdW  Elec       q    Type
                         _______ _______ _______ _____ _____    ______ ____

>  <TORSDO>
F 19

$$$$
=
 OpenBabel10272401423D

 55 58  0  0  1  0  0  0  0  0999 V2000
  186.9290  177.2260  137.8130 C   0  0  0  0  0  1  0  0  0  0  0  0
  184.5100  178.0660  142.7480 O   0  0  0  0  0  1  0  0  0  0  0  0
  183.9130  178.2300  140.4280 C   0  0  1  0  0  3  0  0  0  0  0  0
  184.3820  177.9600  138.9900 C   0  0  2  0  0  3  0  0  0  0  0  0
  187.1240  178.1400  140.1720 C   0  0  2  0  0  3  0  0  0  0  0  0
  185.0000  177.9020  141.4530 C   0  0  1  0  0  3  0  0  0  0  0  0
  183.3750  179.6500  140.6000 C   0  0  0  0  0  1  0  0  0  0  0  0
  185.3320  178.9290  138.6080 O   0  0  0  0  0  0  0  0  0  0  0  0
  186.6400  178.4020  138.7350 C   0  0  2  0  0  3  0  0  0  0  0  0
  186.2500  178.7500  141.2620 C   0  0  0  0  0  2  0  0  0  0  0  0
  182.3490  179.0890  138.3240 O   0  0  0  0  0  1  0  0  0  0  0  0
  183.1680  177.9910  138.0440 C   0  0  2  0  0  3  0  0  0  0  0  0
  182.3380  176.6930  137.9710 C   0  0  2  0  0  3  0  0  0  0  0  0
  180.3930  177.7630  139.2010 C   0  0  0  0  0  1  0  0  0  0  0  0
  181.3270  176.5640  139.1270 C   0  0  1  0  0  3  0  0  0  0  0  0
  180.4040  174.4970  140.1670 O   0  0  0  0  0  1  0  0  0  0  0  0
  180.5260  175.3040  139.0440 C   0  0  0  0  0  0  0  0  0  0  0  0
  179.9820  174.9550  137.9630 O   0  0  0  0  0  0  0  0  0  0  0  0
  183.2150  175.5830  137.9420 O   0  0  0  0  0  0  0  0  0  0  0  0
  184.7960  174.4610  134.8920 O   0  0  0  0  0  1  0  0  0  0  0  0
  183.2090  174.9490  136.6660 C   0  0  2  0  0  0  0  0  0  0  0  0
  185.3260  173.8380  137.1430 C   0  0  2  0  0  3  0  0  0  0  0  0
  182.7350  173.4830  136.8360 C   0  0  2  0  0  3  0  0  0  0  0  0
  184.1520  172.4700  137.3970 S   0  0  0  0  0  0  0  0  0  0  0  0
  184.6770  174.8660  136.2270 C   0  0  1  0  0  3  0  0  0  0  0  0
  187.6770  174.0810  136.8290 O   0  0  0  0  0  1  0  0  0  0  0  0
  186.6590  173.3650  136.6530 C   0  0  0  0  0  0  0  0  0  0  0  0
  186.7720  172.1700  135.9490 O   0  0  0  0  0  0  0  0  0  0  0  0
  182.3770  175.8090  135.6690 C   0  0  0  0  0  2  0  0  0  0  0  0
  183.1380  176.7370  134.9530 O   0  0  0  0  0  0  0  0  0  0  0  0
  182.1960  177.5670  134.3470 C   0  0  0  0  0  2  0  0  0  0  0  0
  180.8040  177.0550  134.6480 C   0  0  0  0  0  1  0  0  0  0  0  0
  182.1300  172.8470  135.5880 C   0  0  0  0  0  2  0  0  0  0  0  0
  181.6530  171.4590  135.8700 C   0  0  0  0  0  3  0  0  0  0  0  0
  180.3780  171.2170  136.1690 C   0  0  0  0  0  2  0  0  0  0  0  0
  188.5860  178.5460  140.3490 C   0  0  0  0  0  2  0  0  0  0  0  0
  189.5180  177.3450  140.5970 C   0  0  1  0  0  3  0  0  0  0  0  0
  189.8750  176.7810  138.1890 C   0  0  0  0  0  3  0  0  0  0  0  0
  192.0920  176.3820  137.2700 C   0  0  0  0  0  0  0  0  0  0  0  0
  191.8200  176.9450  139.6180 C   0  0  0  0  0  3  0  0  0  0  0  0
  192.6440  176.6240  138.5360 C   0  0  0  0  0  3  0  0  0  0  0  0
  190.6990  176.4610  137.1050 C   0  0  0  0  0  3  0  0  0  0  0  0
  190.4310  177.0300  139.4460 C   0  0  0  0  0  0  0  0  0  0  0  0
  192.9470  176.0540  136.1640 N   0  0  0  0  0  0  0  0  0  0  0  0
  192.4260  175.9120  134.9210 O   0  0  0  0  0  1  0  0  0  0  0  0
  194.3800  175.8710  136.3380 C   0  0  0  0  0  1  0  0  0  0  0  0
  190.1780  177.3640  141.8480 O   0  0  0  0  0  0  0  0  0  0  0  0
  189.6760  178.4290  142.6170 C   0  0  0  0  0  2  0  0  0  0  0  0
  190.3390  177.4430  144.8160 C   0  0  0  0  0  3  0  0  0  0  0  0
  187.7270  177.5730  145.7360 C   0  0  0  0  0  0  0  0  0  0  0  0
  188.0230  178.0240  144.4470 C   0  0  0  0  0  3  0  0  0  0  0  0
  190.0030  177.0030  146.0980 C   0  0  0  0  0  3  0  0  0  0  0  0
  189.3390  177.9500  143.9840 C   0  0  0  0  0  0  0  0  0  0  0  0
  186.3320  177.6400  146.2420 C   0  0  0  0  0  1  0  0  0  0  0  0
  188.7150  177.0730  146.5270 N   0  0  0  0  0  0  0  0  0  0  0  0
  3  7  1  6  0  0  0
  3  6  1  0  0  0  0
  4 12  1  6  0  0  0
  4  3  1  0  0  0  0
  5 36  1  6  0  0  0
  5 10  1  0  0  0  0
  6  2  1  1  0  0  0
  8  9  1  0  0  0  0
  8  4  1  0  0  0  0
  9  1  1  6  0  0  0
  9  5  1  0  0  0  0
 10  6  1  0  0  0  0
 12 11  1  1  0  0  0
 13 19  1  1  0  0  0
 13 12  1  0  0  0  0
 13 15  1  0  0  0  0
 15 14  1  6  0  0  0
 17 15  1  0  0  0  0
 17 16  1  0  0  0  0
 18 17  2  0  0  0  0
 21 29  1  6  0  0  0
 21 23  1  0  0  0  0
 21 19  1  0  0  0  0
 22 27  1  6  0  0  0
 22 24  1  0  0  0  0
 23 33  1  6  0  0  0
 23 24  1  0  0  0  0
 25 20  1  6  0  0  0
 25 21  1  0  0  0  0
 25 22  1  0  0  0  0
 27 26  1  0  0  0  0
 28 27  2  0  0  0  0
 30 29  1  0  0  0  0
 31 32  1  0  0  0  0
 31 30  1  0  0  0  0
 33 34  1  0  0  0  0
 34 35  2  0  0  0  0
 37 36  1  6  0  0  0
 37 47  1  0  0  0  0
 38 43  1  0  0  0  0
 39 41  2  0  0  0  0
 41 40  1  0  0  0  0
 42 39  1  0  0  0  0
 42 38  2  0  0  0  0
 43 40  2  0  0  0  0
 43 37  1  0  0  0  0
 44 46  1  0  0  0  0
 44 39  1  0  0  0  0
 45 44  1  0  0  0  0
 47 48  1  0  0  0  0
 48 53  1  0  0  0  0
 49 52  1  0  0  0  0
 50 54  1  0  0  0  0
 50 55  1  0  0  0  0
 51 50  2  0  0  0  0
 52 55  2  0  0  0  0
 53 51  1  0  0  0  0
 53 49  2  0  0  0  0
M  END
>  <MODEL>
5

>  <REMARK>
 VINA RESULT:      -5.4      2.469      5.565
  Name = 
  19 active torsions:
  status: ('A' for Active; 'I' for Inactive)
    1  A    between atoms: C_1  and  C_30
    2  A    between atoms: C_2  and  O_28
    3  A    between atoms: C_2  and  C_44
    4  A    between atoms: C_6  and  O_8
    5  A    between atoms: C_6  and  C_46
    6  A    between atoms: C_7  and  O_8
    7  A    between atoms: C_7  and  C_23
    8  A    between atoms: C_7  and  C_43
    9  A    between atoms: N_10  and  C_32
   10  A    between atoms: C_11  and  C_29
   11  A    between atoms: C_12  and  O_14
   12  A    between atoms: O_14  and  C_46
   13  A    between atoms: C_17  and  C_23
   14  A    between atoms: C_19  and  C_49
   15  A    between atoms: C_20  and  C_30
   16  A    between atoms: O_28  and  C_33
   17  A    between atoms: C_33  and  C_49
   18  A    between atoms: C_33  and  C_52
   19  A    between atoms: C_35  and  C_43
                            x       y       z     vdW  Elec       q    Type
                         _______ _______ _______ _____ _____    ______ ____

>  <TORSDO>
F 19

$$$$
=
 OpenBabel10272401423D

 55 58  0  0  1  0  0  0  0  0999 V2000
  187.0660  177.4210  138.2460 C   0  0  0  0  0  1  0  0  0  0  0  0
  183.5850  178.1390  142.5230 O   0  0  0  0  0  1  0  0  0  0  0  0
  183.5030  178.2710  140.1260 C   0  0  1  0  0  3  0  0  0  0  0  0
  184.2890  178.0250  138.8280 C   0  0  2  0  0  3  0  0  0  0  0  0
  186.6930  178.3450  140.5800 C   0  0  2  0  0  3  0  0  0  0  0  0
  184.3550  177.9990  141.3670 C   0  0  1  0  0  3  0  0  0  0  0  0
  182.8720  179.6620  140.1610 C   0  0  0  0  0  1  0  0  0  0  0  0
  185.2510  179.0410  138.6530 O   0  0  0  0  0  0  0  0  0  0  0  0
  186.5240  178.5820  139.0690 C   0  0  2  0  0  3  0  0  0  0  0  0
  185.5730  178.9100  141.4450 C   0  0  0  0  0  2  0  0  0  0  0  0
  182.4330  179.0800  137.6920 O   0  0  0  0  0  1  0  0  0  0  0  0
  183.3120  177.9950  137.6400 C   0  0  2  0  0  3  0  0  0  0  0  0
  182.5410  176.6740  137.4370 C   0  0  2  0  0  3  0  0  0  0  0  0
  180.1070  175.9850  137.2280 C   0  0  0  0  0  1  0  0  0  0  0  0
  181.1450  176.6910  138.0880 C   0  0  1  0  0  3  0  0  0  0  0  0
  180.1600  176.4560  140.3660 O   0  0  0  0  0  1  0  0  0  0  0  0
  181.1510  176.0980  139.4610 C   0  0  0  0  0  0  0  0  0  0  0  0
  182.0570  175.2970  139.8150 O   0  0  0  0  0  0  0  0  0  0  0  0
  183.3180  175.6020  137.9340 O   0  0  0  0  0  0  0  0  0  0  0  0
  184.1420  174.6380  134.5500 O   0  0  0  0  0  1  0  0  0  0  0  0
  183.5930  174.6430  136.9170 C   0  0  2  0  0  0  0  0  0  0  0  0
  185.4180  176.0050  136.0460 C   0  0  2  0  0  3  0  0  0  0  0  0
  184.8190  173.7950  137.3460 C   0  0  2  0  0  3  0  0  0  0  0  0
  186.3430  174.7310  136.9580 S   0  0  0  0  0  0  0  0  0  0  0  0
  184.0480  175.4450  135.6910 C   0  0  1  0  0  3  0  0  0  0  0  0
  187.0930  175.8290  134.3580 O   0  0  0  0  0  1  0  0  0  0  0  0
  186.1720  176.5220  134.8600 C   0  0  0  0  0  0  0  0  0  0  0  0
  185.9060  177.7880  134.3480 O   0  0  0  0  0  0  0  0  0  0  0  0
  182.2980  173.8360  136.6080 C   0  0  0  0  0  2  0  0  0  0  0  0
  181.9030  172.9850  137.6420 O   0  0  0  0  0  0  0  0  0  0  0  0
  180.8950  172.2000  137.0840 C   0  0  0  0  0  2  0  0  0  0  0  0
  180.5920  172.6910  135.6840 C   0  0  0  0  0  1  0  0  0  0  0  0
  184.9060  172.4120  136.7080 C   0  0  0  0  0  2  0  0  0  0  0  0
  186.1710  172.2590  135.9270 C   0  0  0  0  0  3  0  0  0  0  0  0
  187.2940  171.8420  136.5090 C   0  0  0  0  0  2  0  0  0  0  0  0
  188.0590  178.8240  141.0680 C   0  0  0  0  0  2  0  0  0  0  0  0
  188.9330  177.6850  141.6240 C   0  0  1  0  0  3  0  0  0  0  0  0
  189.8270  176.5900  139.5630 C   0  0  0  0  0  3  0  0  0  0  0  0
  192.2070  176.5240  139.0620 C   0  0  0  0  0  0  0  0  0  0  0  0
  191.4060  177.6240  141.0760 C   0  0  0  0  0  3  0  0  0  0  0  0
  192.4600  177.2360  140.2430 C   0  0  0  0  0  3  0  0  0  0  0  0
  190.8810  176.2020  138.7290 C   0  0  0  0  0  3  0  0  0  0  0  0
  190.0840  177.3070  140.7340 C   0  0  0  0  0  0  0  0  0  0  0  0
  193.2960  176.1310  138.2120 N   0  0  0  0  0  0  0  0  0  0  0  0
  194.4310  175.6250  138.7520 O   0  0  0  0  0  1  0  0  0  0  0  0
  193.2150  176.2580  136.7650 C   0  0  0  0  0  1  0  0  0  0  0  0
  189.3000  177.8360  142.9810 O   0  0  0  0  0  0  0  0  0  0  0  0
  188.7650  176.7690  143.7250 C   0  0  0  0  0  2  0  0  0  0  0  0
  188.6070  177.2700  146.1680 C   0  0  0  0  0  3  0  0  0  0  0  0
  186.0620  178.3260  145.8520 C   0  0  0  0  0  0  0  0  0  0  0  0
  186.7430  177.8330  144.7360 C   0  0  0  0  0  3  0  0  0  0  0  0
  187.8940  177.7740  147.2590 C   0  0  0  0  0  3  0  0  0  0  0  0
  188.0210  177.2950  144.9000 C   0  0  0  0  0  0  0  0  0  0  0  0
  184.7000  178.8970  145.6970 C   0  0  0  0  0  1  0  0  0  0  0  0
  186.6470  178.2840  147.0810 N   0  0  0  0  0  0  0  0  0  0  0  0
  3  7  1  1  0  0  0
  3  6  1  0  0  0  0
  4 12  1  6  0  0  0
  4  3  1  0  0  0  0
  5 36  1  1  0  0  0
  5 10  1  0  0  0  0
  6 10  1  0  0  0  0
  6  2  1  1  0  0  0
  8  4  1  0  0  0  0
  8  9  1  0  0  0  0
  9  1  1  6  0  0  0
  9  5  1  0  0  0  0
 12 11  1  1  0  0  0
 13 12  1  0  0  0  0
 13 19  1  1  0  0  0
 13 15  1  0  0  0  0
 15 14  1  6  0  0  0
 15 17  1  0  0  0  0
 17 18  2  0  0  0  0
 17 16  1  0  0  0  0
 21 29  1  6  0  0  0
 21 23  1  0  0  0  0
 21 19  1  0  0  0  0
 22 27  1  6  0  0  0
 22 24  1  0  0  0  0
 23 33  1  6  0  0  0
 24 23  1  0  0  0  0
 25 20  1  6  0  0  0
 25 22  1  0  0  0  0
 25 21  1  0  0  0  0
 26 27  1  0  0  0  0
 28 27  2  0  0  0  0
 29 30  1  0  0  0  0
 31 30  1  0  0  0  0
 32 31  1  0  0  0  0
 34 35  2  0  0  0  0
 34 33  1  0  0  0  0
 37 36  1  6  0  0  0
 37 47  1  0  0  0  0
 38 43  1  0  0  0  0
 39 41  2  0  0  0  0
 41 40  1  0  0  0  0
 42 39  1  0  0  0  0
 42 38  2  0  0  0  0
 43 40  2  0  0  0  0
 43 37  1  0  0  0  0
 44 45  1  0  0  0  0
 44 39  1  0  0  0  0
 46 44  1  0  0  0  0
 47 48  1  0  0  0  0
 48 53  1  0  0  0  0
 49 52  1  0  0  0  0
 50 55  1  0  0  0  0
 51 53  1  0  0  0  0
 51 50  2  0  0  0  0
 53 49  2  0  0  0  0
 54 50  1  0  0  0  0
 55 52  2  0  0  0  0
M  END
>  <MODEL>
6

>  <REMARK>
 VINA RESULT:      -5.4      2.391      5.128
  Name = 
  19 active torsions:
  status: ('A' for Active; 'I' for Inactive)
    1  A    between atoms: C_1  and  C_30
    2  A    between atoms: C_2  and  O_28
    3  A    between atoms: C_2  and  C_44
    4  A    between atoms: C_6  and  O_8
    5  A    between atoms: C_6  and  C_46
    6  A    between atoms: C_7  and  O_8
    7  A    between atoms: C_7  and  C_23
    8  A    between atoms: C_7  and  C_43
    9  A    between atoms: N_10  and  C_32
   10  A    between atoms: C_11  and  C_29
   11  A    between atoms: C_12  and  O_14
   12  A    between atoms: O_14  and  C_46
   13  A    between atoms: C_17  and  C_23
   14  A    between atoms: C_19  and  C_49
   15  A    between atoms: C_20  and  C_30
   16  A    between atoms: O_28  and  C_33
   17  A    between atoms: C_33  and  C_49
   18  A    between atoms: C_33  and  C_52
   19  A    between atoms: C_35  and  C_43
                            x       y       z     vdW  Elec       q    Type
                         _______ _______ _______ _____ _____    ______ ____

>  <TORSDO>
F 19

$$$$
=
 OpenBabel10272401423D

 55 58  0  0  1  0  0  0  0  0999 V2000
  185.6930  178.0930  139.3960 C   0  0  0  0  0  1  0  0  0  0  0  0
  180.6820  177.9980  141.8030 O   0  0  0  0  0  1  0  0  0  0  0  0
  181.5930  178.3900  139.6150 C   0  0  1  0  0  3  0  0  0  0  0  0
  182.8750  178.3660  138.7670 C   0  0  2  0  0  3  0  0  0  0  0  0
  184.2600  178.7100  141.3960 C   0  0  2  0  0  3  0  0  0  0  0  0
  181.8750  178.0610  141.0830 C   0  0  1  0  0  3  0  0  0  0  0  0
  180.8270  179.7030  139.4610 C   0  0  0  0  0  1  0  0  0  0  0  0
  183.6780  179.4800  139.0840 O   0  0  0  0  0  0  0  0  0  0  0  0
  184.7080  179.0980  139.9770 C   0  0  2  0  0  3  0  0  0  0  0  0
  182.8170  179.0670  141.7310 C   0  0  0  0  0  2  0  0  0  0  0  0
  181.4570  179.2770  137.0330 O   0  0  0  0  0  1  0  0  0  0  0  0
  182.4980  178.3770  137.2750 C   0  0  2  0  0  3  0  0  0  0  0  0
  182.1900  177.0020  136.6490 C   0  0  2  0  0  3  0  0  0  0  0  0
  180.2940  176.0010  135.2890 C   0  0  0  0  0  1  0  0  0  0  0  0
  180.6810  176.6990  136.5850 C   0  0  1  0  0  3  0  0  0  0  0  0
  180.0020  174.5260  137.6000 O   0  0  0  0  0  0  0  0  0  0  0  0
  180.2120  175.8900  137.7520 C   0  0  0  0  0  0  0  0  0  0  0  0
  179.9820  176.4360  138.8650 O   0  0  0  0  0  1  0  0  0  0  0  0
  182.8760  175.9980  137.3720 O   0  0  0  0  0  0  0  0  0  0  0  0
  184.7590  175.1970  134.3940 O   0  0  0  0  0  1  0  0  0  0  0  0
  183.5500  175.0960  136.4990 C   0  0  2  0  0  0  0  0  0  0  0  0
  185.3680  176.6880  136.1670 C   0  0  2  0  0  3  0  0  0  0  0  0
  184.6930  174.4000  137.2830 C   0  0  2  0  0  3  0  0  0  0  0  0
  186.1370  175.5230  137.3340 S   0  0  0  0  0  0  0  0  0  0  0  0
  184.2400  175.9680  135.4410 C   0  0  1  0  0  3  0  0  0  0  0  0
  187.5650  176.9400  135.2750 O   0  0  0  0  0  1  0  0  0  0  0  0
  186.3640  177.3130  135.2400 C   0  0  0  0  0  0  0  0  0  0  0  0
  185.9880  178.3430  134.3850 O   0  0  0  0  0  0  0  0  0  0  0  0
  182.5100  174.1410  135.8440 C   0  0  0  0  0  2  0  0  0  0  0  0
  182.6100  172.8160  136.2780 O   0  0  0  0  0  0  0  0  0  0  0  0
  181.4890  172.1870  135.7380 C   0  0  0  0  0  2  0  0  0  0  0  0
  181.8310  170.7530  135.3980 C   0  0  0  0  0  1  0  0  0  0  0  0
  185.1310  173.0480  136.7270 C   0  0  0  0  0  2  0  0  0  0  0  0
  186.5970  173.0370  136.4340 C   0  0  0  0  0  3  0  0  0  0  0  0
  187.4490  172.3720  137.2110 C   0  0  0  0  0  2  0  0  0  0  0  0
  185.2200  179.2580  142.4510 C   0  0  0  0  0  2  0  0  0  0  0  0
  186.0820  178.1630  143.1060 C   0  0  1  0  0  3  0  0  0  0  0  0
  188.0910  176.7320  142.7000 C   0  0  0  0  0  3  0  0  0  0  0  0
  189.8280  177.3620  141.1170 C   0  0  0  0  0  0  0  0  0  0  0  0
  187.8910  178.7920  141.4480 C   0  0  0  0  0  3  0  0  0  0  0  0
  189.1090  178.5270  140.8160 C   0  0  0  0  0  3  0  0  0  0  0  0
  189.3090  176.4660  142.0670 C   0  0  0  0  0  3  0  0  0  0  0  0
  187.3750  177.8910  142.3890 C   0  0  0  0  0  0  0  0  0  0  0  0
  191.0780  177.0980  140.4610 N   0  0  0  0  0  0  0  0  0  0  0  0
  191.0990  176.4300  139.2830 O   0  0  0  0  0  1  0  0  0  0  0  0
  192.3430  177.5360  141.0320 C   0  0  0  0  0  1  0  0  0  0  0  0
  186.2340  178.2950  144.5060 O   0  0  0  0  0  0  0  0  0  0  0  0
  186.8210  177.1240  145.0180 C   0  0  0  0  0  2  0  0  0  0  0  0
  187.0650  178.1410  147.2890 C   0  0  0  0  0  3  0  0  0  0  0  0
  189.7230  177.3640  147.4210 C   0  0  0  0  0  0  0  0  0  0  0  0
  188.9740  177.0520  146.2840 C   0  0  0  0  0  3  0  0  0  0  0  0
  187.8470  178.4340  148.4080 C   0  0  0  0  0  3  0  0  0  0  0  0
  187.6370  177.4510  146.2180 C   0  0  0  0  0  0  0  0  0  0  0  0
  191.1480  176.9520  147.5070 C   0  0  0  0  0  1  0  0  0  0  0  0
  189.1490  178.0460  148.4500 N   0  0  0  0  0  0  0  0  0  0  0  0
  3  7  1  1  0  0  0
  3  6  1  0  0  0  0
  4 12  1  6  0  0  0
  4  8  1  0  0  0  0
  4  3  1  0  0  0  0
  5 10  1  0  0  0  0
  5 36  1  1  0  0  0
  6 10  1  0  0  0  0
  6  2  1  1  0  0  0
  8  9  1  0  0  0  0
  9  1  1  6  0  0  0
  9  5  1  0  0  0  0
 12 11  1  1  0  0  0
 13 12  1  0  0  0  0
 13 19  1  1  0  0  0
 15 14  1  6  0  0  0
 15 13  1  0  0  0  0
 15 17  1  0  0  0  0
 16 17  2  0  0  0  0
 17 18  1  0  0  0  0
 21 29  1  6  0  0  0
 21 23  1  0  0  0  0
 21 19  1  0  0  0  0
 22 27  1  6  0  0  0
 22 24  1  0  0  0  0
 23 33  1  6  0  0  0
 23 24  1  0  0  0  0
 25 20  1  6  0  0  0
 25 22  1  0  0  0  0
 25 21  1  0  0  0  0
 27 26  1  0  0  0  0
 28 27  2  0  0  0  0
 29 30  1  0  0  0  0
 31 30  1  0  0  0  0
 32 31  1  0  0  0  0
 34 33  1  0  0  0  0
 34 35  2  0  0  0  0
 37 36  1  6  0  0  0
 37 47  1  0  0  0  0
 39 42  1  0  0  0  0
 40 43  2  0  0  0  0
 41 39  2  0  0  0  0
 41 40  1  0  0  0  0
 42 38  2  0  0  0  0
 43 38  1  0  0  0  0
 43 37  1  0  0  0  0
 44 46  1  0  0  0  0
 44 39  1  0  0  0  0
 45 44  1  0  0  0  0
 47 48  1  0  0  0  0
 48 53  1  0  0  0  0
 49 52  1  0  0  0  0
 50 54  1  0  0  0  0
 50 55  1  0  0  0  0
 51 50  2  0  0  0  0
 52 55  2  0  0  0  0
 53 51  1  0  0  0  0
 53 49  2  0  0  0  0
M  END
>  <MODEL>
7

>  <REMARK>
 VINA RESULT:      -4.6      2.419      5.429
  Name = 
  19 active torsions:
  status: ('A' for Active; 'I' for Inactive)
    1  A    between atoms: C_1  and  C_30
    2  A    between atoms: C_2  and  O_28
    3  A    between atoms: C_2  and  C_44
    4  A    between atoms: C_6  and  O_8
    5  A    between atoms: C_6  and  C_46
    6  A    between atoms: C_7  and  O_8
    7  A    between atoms: C_7  and  C_23
    8  A    between atoms: C_7  and  C_43
    9  A    between atoms: N_10  and  C_32
   10  A    between atoms: C_11  and  C_29
   11  A    between atoms: C_12  and  O_14
   12  A    between atoms: O_14  and  C_46
   13  A    between atoms: C_17  and  C_23
   14  A    between atoms: C_19  and  C_49
   15  A    between atoms: C_20  and  C_30
   16  A    between atoms: O_28  and  C_33
   17  A    between atoms: C_33  and  C_49
   18  A    between atoms: C_33  and  C_52
   19  A    between atoms: C_35  and  C_43
                            x       y       z     vdW  Elec       q    Type
                         _______ _______ _______ _____ _____    ______ ____

>  <TORSDO>
F 19

$$$$
=
 OpenBabel10272401423D

 55 58  0  0  1  0  0  0  0  0999 V2000
  193.8590  177.2750  138.9270 C   0  0  0  0  0  1  0  0  0  0  0  0
  190.0180  173.5290  137.4670 O   0  0  0  0  0  1  0  0  0  0  0  0
  191.8740  174.6600  136.4440 C   0  0  1  0  0  3  0  0  0  0  0  0
  193.0580  175.6070  136.6940 C   0  0  2  0  0  3  0  0  0  0  0  0
  191.4350  176.5340  139.0290 C   0  0  2  0  0  3  0  0  0  0  0  0
  191.0260  174.4650  137.7020 C   0  0  1  0  0  3  0  0  0  0  0  0
  191.0290  175.1000  135.2480 C   0  0  0  0  0  1  0  0  0  0  0  0
  192.5900  176.9290  136.8410 O   0  0  0  0  0  0  0  0  0  0  0  0
  192.5140  177.2660  138.2140 C   0  0  2  0  0  3  0  0  0  0  0  0
  190.4130  175.7690  138.1950 C   0  0  0  0  0  2  0  0  0  0  0  0
  193.3830  175.1250  134.3470 O   0  0  0  0  0  1  0  0  0  0  0  0
  194.0440  175.5110  135.5160 C   0  0  2  0  0  3  0  0  0  0  0  0
  195.2930  174.6380  135.7540 C   0  0  2  0  0  3  0  0  0  0  0  0
  196.2890  176.5180  134.3700 C   0  0  0  0  0  1  0  0  0  0  0  0
  196.5380  175.1620  135.0130 C   0  0  1  0  0  3  0  0  0  0  0  0
  198.7560  174.3030  135.7580 O   0  0  0  0  0  0  0  0  0  0  0  0
  197.7390  175.2370  135.9010 C   0  0  0  0  0  0  0  0  0  0  0  0
  197.8270  176.1220  136.7940 O   0  0  0  0  0  1  0  0  0  0  0  0
  195.0060  173.3040  135.3780 O   0  0  0  0  0  0  0  0  0  0  0  0
  194.6880  170.3150  137.3840 O   0  0  0  0  0  1  0  0  0  0  0  0
  195.4620  172.3780  136.3590 C   0  0  2  0  0  0  0  0  0  0  0  0
  194.7400  170.4890  134.9960 C   0  0  2  0  0  3  0  0  0  0  0  0
  196.8310  171.8040  135.9100 C   0  0  2  0  0  3  0  0  0  0  0  0
  196.5350  170.4640  134.6980 S   0  0  0  0  0  0  0  0  0  0  0  0
  194.4810  171.1990  136.3180 C   0  0  1  0  0  3  0  0  0  0  0  0
  192.8860  169.0050  134.7810 O   0  0  0  0  0  0  0  0  0  0  0  0
  194.1290  169.1240  134.9270 C   0  0  0  0  0  0  0  0  0  0  0  0
  194.9150  167.9870  135.0840 O   0  0  0  0  0  1  0  0  0  0  0  0
  195.4520  173.0630  137.7570 C   0  0  0  0  0  2  0  0  0  0  0  0
  196.6060  172.8300  138.5090 O   0  0  0  0  0  0  0  0  0  0  0  0
  196.8610  174.0450  139.1440 C   0  0  0  0  0  2  0  0  0  0  0  0
  195.5500  174.7210  139.4820 C   0  0  0  0  0  1  0  0  0  0  0  0
  197.7140  171.2730  137.0360 C   0  0  0  0  0  2  0  0  0  0  0  0
  198.3660  169.9860  136.6450 C   0  0  0  0  0  3  0  0  0  0  0  0
  198.7540  169.1050  137.5650 C   0  0  0  0  0  2  0  0  0  0  0  0
  190.7450  177.4780  140.0130 C   0  0  0  0  0  2  0  0  0  0  0  0
  189.4620  176.8810  140.6210 C   0  0  1  0  0  3  0  0  0  0  0  0
  190.5600  177.2580  142.8340 C   0  0  0  0  0  3  0  0  0  0  0  0
  189.3320  177.1070  144.9280 C   0  0  0  0  0  0  0  0  0  0  0  0
  188.1960  176.7470  142.8110 C   0  0  0  0  0  3  0  0  0  0  0  0
  188.1660  176.8150  144.2060 C   0  0  0  0  0  3  0  0  0  0  0  0
  190.5310  177.3260  144.2300 C   0  0  0  0  0  3  0  0  0  0  0  0
  189.3940  176.9750  142.1190 C   0  0  0  0  0  0  0  0  0  0  0  0
  189.2920  177.1750  146.3630 N   0  0  0  0  0  0  0  0  0  0  0  0
  190.3100  176.6660  147.0960 O   0  0  0  0  0  1  0  0  0  0  0  0
  188.1730  177.7880  147.0630 C   0  0  0  0  0  1  0  0  0  0  0  0
  188.2670  177.2810  139.9780 O   0  0  0  0  0  0  0  0  0  0  0  0
  188.4980  178.4830  139.2850 C   0  0  0  0  0  2  0  0  0  0  0  0
  189.1580  178.9530  136.9210 C   0  0  0  0  0  3  0  0  0  0  0  0
  187.2880  177.1390  135.9700 C   0  0  0  0  0  0  0  0  0  0  0  0
  187.4100  177.3390  137.3480 C   0  0  0  0  0  3  0  0  0  0  0  0
  189.0060  178.7250  135.5510 C   0  0  0  0  0  3  0  0  0  0  0  0
  188.3480  178.2590  137.8230 C   0  0  0  0  0  0  0  0  0  0  0  0
  186.2930  176.1690  135.4480 C   0  0  0  0  0  1  0  0  0  0  0  0
  188.0800  177.8340  135.1080 N   0  0  0  0  0  0  0  0  0  0  0  0
  3  7  1  6  0  0  0
  3  4  1  0  0  0  0
  3  6  1  0  0  0  0
  4 12  1  6  0  0  0
  4  8  1  0  0  0  0
  5 36  1  6  0  0  0
  6  2  1  6  0  0  0
  6 10  1  0  0  0  0
  8  9  1  0  0  0  0
  9  1  1  1  0  0  0
  9  5  1  0  0  0  0
 10  5  1  0  0  0  0
 12 11  1  6  0  0  0
 12 13  1  0  0  0  0
 13 19  1  6  0  0  0
 15 14  1  1  0  0  0
 15 13  1  0  0  0  0
 15 17  1  0  0  0  0
 16 17  2  0  0  0  0
 17 18  1  0  0  0  0
 19 21  1  0  0  0  0
 21 29  1  1  0  0  0
 22 27  1  1  0  0  0
 22 25  1  0  0  0  0
 23 21  1  0  0  0  0
 23 33  1  1  0  0  0
 24 22  1  0  0  0  0
 24 23  1  0  0  0  0
 25 21  1  0  0  0  0
 25 20  1  1  0  0  0
 26 27  2  0  0  0  0
 27 28  1  0  0  0  0
 29 30  1  0  0  0  0
 30 31  1  0  0  0  0
 31 32  1  0  0  0  0
 34 33  1  0  0  0  0
 34 35  2  0  0  0  0
 37 36  1  6  0  0  0
 37 43  1  0  0  0  0
 38 42  1  0  0  0  0
 39 44  1  0  0  0  0
 40 41  2  0  0  0  0
 41 39  1  0  0  0  0
 42 39  2  0  0  0  0
 43 40  1  0  0  0  0
 43 38  2  0  0  0  0
 44 46  1  0  0  0  0
 44 45  1  0  0  0  0
 47 37  1  0  0  0  0
 48 47  1  0  0  0  0
 49 53  1  0  0  0  0
 50 51  1  0  0  0  0
 51 53  2  0  0  0  0
 52 49  2  0  0  0  0
 53 48  1  0  0  0  0
 54 50  1  0  0  0  0
 55 52  1  0  0  0  0
 55 50  2  0  0  0  0
M  END
>  <MODEL>
8

>  <REMARK>
 VINA RESULT:      -4.4      5.908     10.585
  Name = 
  19 active torsions:
  status: ('A' for Active; 'I' for Inactive)
    1  A    between atoms: C_1  and  C_30
    2  A    between atoms: C_2  and  O_28
    3  A    between atoms: C_2  and  C_44
    4  A    between atoms: C_6  and  O_8
    5  A    between atoms: C_6  and  C_46
    6  A    between atoms: C_7  and  O_8
    7  A    between atoms: C_7  and  C_23
    8  A    between atoms: C_7  and  C_43
    9  A    between atoms: N_10  and  C_32
   10  A    between atoms: C_11  and  C_29
   11  A    between atoms: C_12  and  O_14
   12  A    between atoms: O_14  and  C_46
   13  A    between atoms: C_17  and  C_23
   14  A    between atoms: C_19  and  C_49
   15  A    between atoms: C_20  and  C_30
   16  A    between atoms: O_28  and  C_33
   17  A    between atoms: C_33  and  C_49
   18  A    between atoms: C_33  and  C_52
   19  A    between atoms: C_35  and  C_43
                            x       y       z     vdW  Elec       q    Type
                         _______ _______ _______ _____ _____    ______ ____

>  <TORSDO>
F 19

$$$$
=
 OpenBabel10272401423D

 55 58  0  0  1  0  0  0  0  0999 V2000
  185.8110  177.2880  138.3710 C   0  0  0  0  0  1  0  0  0  0  0  0
  181.0450  174.4390  138.6650 O   0  0  0  0  0  1  0  0  0  0  0  0
  183.2210  174.1630  137.6850 C   0  0  1  0  0  3  0  0  0  0  0  0
  184.6330  174.7580  137.5790 C   0  0  2  0  0  3  0  0  0  0  0  0
  183.2750  177.3300  138.2830 C   0  0  2  0  0  3  0  0  0  0  0  0
  182.2880  175.0530  138.5090 C   0  0  1  0  0  3  0  0  0  0  0  0
  182.6320  173.8330  136.3140 C   0  0  0  0  0  1  0  0  0  0  0  0
  184.6140  175.8860  136.7320 O   0  0  0  0  0  0  0  0  0  0  0  0
  184.5770  177.0720  137.5050 C   0  0  2  0  0  3  0  0  0  0  0  0
  182.1080  176.4330  137.8890 C   0  0  0  0  0  2  0  0  0  0  0  0
  186.0750  172.8790  138.0670 O   0  0  0  0  0  1  0  0  0  0  0  0
  185.5970  173.6890  137.0340 C   0  0  2  0  0  3  0  0  0  0  0  0
  186.7580  174.2120  136.1640 C   0  0  2  0  0  3  0  0  0  0  0  0
  188.5850  172.4800  135.8370 C   0  0  0  0  0  1  0  0  0  0  0  0
  187.3460  173.1290  135.2390 C   0  0  1  0  0  3  0  0  0  0  0  0
  184.9960  172.4060  134.8260 O   0  0  0  0  0  1  0  0  0  0  0  0
  186.3440  172.0760  134.8870 C   0  0  0  0  0  0  0  0  0  0  0  0
  186.7050  170.8880  134.6680 O   0  0  0  0  0  0  0  0  0  0  0  0
  187.7590  174.7560  137.0030 O   0  0  0  0  0  0  0  0  0  0  0  0
  189.6540  177.8090  136.6140 O   0  0  0  0  0  1  0  0  0  0  0  0
  188.6190  175.6350  136.2840 C   0  0  2  0  0  0  0  0  0  0  0  0
  189.8990  176.1250  138.3010 C   0  0  2  0  0  3  0  0  0  0  0  0
  189.9450  174.8950  135.9730 C   0  0  2  0  0  3  0  0  0  0  0  0
  191.0170  174.9650  137.4550 S   0  0  0  0  0  0  0  0  0  0  0  0
  188.9870  176.7610  137.2600 C   0  0  1  0  0  3  0  0  0  0  0  0
  191.8730  176.9960  139.3160 O   0  0  0  0  0  0  0  0  0  0  0  0
  190.6370  177.1280  139.1330 C   0  0  0  0  0  0  0  0  0  0  0  0
  189.9570  178.1700  139.7550 O   0  0  0  0  0  1  0  0  0  0  0  0
  187.8610  176.1970  135.0450 C   0  0  0  0  0  2  0  0  0  0  0  0
  188.3540  177.4230  134.5910 O   0  0  0  0  0  0  0  0  0  0  0  0
  187.2770  178.3000  134.7150 C   0  0  0  0  0  2  0  0  0  0  0  0
  185.9820  177.5180  134.6740 C   0  0  0  0  0  1  0  0  0  0  0  0
  190.7200  175.4290  134.7710 C   0  0  0  0  0  2  0  0  0  0  0  0
  192.0530  175.9630  135.1860 C   0  0  0  0  0  3  0  0  0  0  0  0
  193.0880  175.9560  134.3480 C   0  0  0  0  0  2  0  0  0  0  0  0
  182.8780  178.8040  138.2290 C   0  0  0  0  0  2  0  0  0  0  0  0
  182.0150  179.2390  139.4270 C   0  0  1  0  0  3  0  0  0  0  0  0
  181.8920  178.8360  141.8910 C   0  0  0  0  0  3  0  0  0  0  0  0
  183.8820  178.7650  143.2890 C   0  0  0  0  0  0  0  0  0  0  0  0
  184.0760  179.1420  140.8970 C   0  0  0  0  0  3  0  0  0  0  0  0
  184.6700  178.9950  142.1530 C   0  0  0  0  0  3  0  0  0  0  0  0
  182.4860  178.6890  143.1480 C   0  0  0  0  0  3  0  0  0  0  0  0
  182.6840  179.0560  140.7610 C   0  0  0  0  0  0  0  0  0  0  0  0
  184.5010  178.6140  144.5760 N   0  0  0  0  0  0  0  0  0  0  0  0
  183.7630  178.7450  145.7050 O   0  0  0  0  0  1  0  0  0  0  0  0
  185.9200  178.3170  144.7080 C   0  0  0  0  0  1  0  0  0  0  0  0
  181.3960  180.5020  139.2780 O   0  0  0  0  0  0  0  0  0  0  0  0
  181.1340  180.7270  137.9140 C   0  0  0  0  0  2  0  0  0  0  0  0
  181.9820  183.0090  138.4780 C   0  0  0  0  0  3  0  0  0  0  0  0
  180.9040  184.0550  136.1470 C   0  0  0  0  0  0  0  0  0  0  0  0
  180.7480  182.6950  136.4240 C   0  0  0  0  0  3  0  0  0  0  0  0
  182.1180  184.3640  138.1650 C   0  0  0  0  0  3  0  0  0  0  0  0
  181.2850  182.1730  137.6030 C   0  0  0  0  0  0  0  0  0  0  0  0
  180.3350  184.6280  134.9000 C   0  0  0  0  0  1  0  0  0  0  0  0
  181.5780  184.8550  137.0170 N   0  0  0  0  0  0  0  0  0  0  0  0
  3  7  1  6  0  0  0
  3  6  1  0  0  0  0
  4 12  1  6  0  0  0
  4  3  1  0  0  0  0
  5 36  1  6  0  0  0
  6  2  1  6  0  0  0
  8  9  1  0  0  0  0
  8  4  1  0  0  0  0
  9  5  1  0  0  0  0
  9  1  1  1  0  0  0
 10  5  1  0  0  0  0
 10  6  1  0  0  0  0
 12 11  1  1  0  0  0
 13 19  1  1  0  0  0
 13 12  1  0  0  0  0
 15 14  1  1  0  0  0
 15 13  1  0  0  0  0
 16 17  1  0  0  0  0
 17 15  1  0  0  0  0
 18 17  2  0  0  0  0
 21 29  1  6  0  0  0
 21 19  1  0  0  0  0
 21 25  1  0  0  0  0
 22 27  1  6  0  0  0
 23 33  1  6  0  0  0
 23 21  1  0  0  0  0
 23 24  1  0  0  0  0
 24 22  1  0  0  0  0
 25 20  1  6  0  0  0
 25 22  1  0  0  0  0
 27 26  2  0  0  0  0
 27 28  1  0  0  0  0
 30 31  1  0  0  0  0
 30 29  1  0  0  0  0
 32 31  1  0  0  0  0
 33 34  1  0  0  0  0
 35 34  2  0  0  0  0
 37 36  1  6  0  0  0
 37 43  1  0  0  0  0
 38 42  1  0  0  0  0
 39 44  1  0  0  0  0
 40 41  2  0  0  0  0
 41 39  1  0  0  0  0
 42 39  2  0  0  0  0
 43 40  1  0  0  0  0
 43 38  2  0  0  0  0
 44 46  1  0  0  0  0
 44 45  1  0  0  0  0
 47 37  1  0  0  0  0
 48 47  1  0  0  0  0
 50 51  2  0  0  0  0
 50 55  1  0  0  0  0
 51 53  1  0  0  0  0
 52 49  1  0  0  0  0
 53 48  1  0  0  0  0
 53 49  2  0  0  0  0
 54 50  1  0  0  0  0
 55 52  2  0  0  0  0
M  END
>  <MODEL>
9

>  <REMARK>
 VINA RESULT:      -4.0      3.234      7.791
  Name = 
  19 active torsions:
  status: ('A' for Active; 'I' for Inactive)
    1  A    between atoms: C_1  and  C_30
    2  A    between atoms: C_2  and  O_28
    3  A    between atoms: C_2  and  C_44
    4  A    between atoms: C_6  and  O_8
    5  A    between atoms: C_6  and  C_46
    6  A    between atoms: C_7  and  O_8
    7  A    between atoms: C_7  and  C_23
    8  A    between atoms: C_7  and  C_43
    9  A    between atoms: N_10  and  C_32
   10  A    between atoms: C_11  and  C_29
   11  A    between atoms: C_12  and  O_14
   12  A    between atoms: O_14  and  C_46
   13  A    between atoms: C_17  and  C_23
   14  A    between atoms: C_19  and  C_49
   15  A    between atoms: C_20  and  C_30
   16  A    between atoms: O_28  and  C_33
   17  A    between atoms: C_33  and  C_49
   18  A    between atoms: C_33  and  C_52
   19  A    between atoms: C_35  and  C_43
                            x       y       z     vdW  Elec       q    Type
                         _______ _______ _______ _____ _____    ______ ____

>  <TORSDO>
F 19

$$$$
