=
 OpenBabel10272400143D

 31 35  0  0  1  0  0  0  0  0999 V2000
  184.8630  178.9690  138.9410 C   0  0  2  0  0  3  0  0  0  0  0  0
  183.4570  179.2620  138.4670 C   0  0  0  0  0  0  0  0  0  0  0  0
  181.5530  180.7440  138.4560 C   0  0  0  0  0  3  0  0  0  0  0  0
  182.8650  180.4720  138.8390 C   0  0  0  0  0  3  0  0  0  0  0  0
  183.3500  177.0630  137.1970 C   0  0  0  0  0  2  0  0  0  0  0  0
  180.8540  179.8360  137.7260 N   0  0  0  0  0  0  0  0  0  0  0  0
  185.5320  177.7910  138.2230 C   0  0  1  0  0  3  0  0  0  0  0  0
  181.3960  178.6490  137.3450 C   0  0  0  0  0  0  0  0  0  0  0  0
  184.5550  176.6320  138.0270 C   0  0  0  0  0  2  0  0  0  0  0  0
  182.7140  178.3270  137.7120 C   0  0  0  0  0  0  0  0  0  0  0  0
  180.4180  177.5490  136.3830 Cl  0  0  0  0  0  0  0  0  0  0  0  0
  183.8670  178.4910  142.5880 C   0  0  0  0  0  0  0  0  0  0  0  0
  184.9350  178.7890  140.4280 C   0  0  0  0  0  0  0  0  0  0  0  0
  185.1220  178.3870  143.1950 C   0  0  0  0  0  3  0  0  0  0  0  0
  182.7420  178.3980  143.3360 F   0  0  0  0  0  0  0  0  0  0  0  0
  183.7730  178.6900  141.2080 C   0  0  0  0  0  3  0  0  0  0  0  0
  186.1890  178.6790  141.0400 C   0  0  0  0  0  3  0  0  0  0  0  0
  186.2820  178.4800  142.4210 C   0  0  0  0  0  3  0  0  0  0  0  0
  186.1660  178.2170  136.8970 C   0  0  1  0  0  3  0  0  0  0  0  0
  187.1000  179.2500  137.1140 O   0  0  0  0  0  0  0  0  0  0  0  0
  187.6420  177.9900  136.7960 C   0  0  1  0  0  3  0  0  0  0  0  0
  188.9550  178.5430  138.8490 C   0  0  0  0  0  1  0  0  0  0  0  0
  188.3380  177.4200  138.0350 C   0  0  2  0  0  3  0  0  0  0  0  0
  191.3280  174.4770  137.0520 C   0  0  0  0  0  0  0  0  0  0  0  0
  190.7430  176.6940  137.8190 C   0  0  0  0  0  3  0  0  0  0  0  0
  187.3060  174.6580  137.0810 Cl  0  0  0  0  0  0  0  0  0  0  0  0
  192.5430  173.2830  136.6510 Cl  0  0  0  0  0  0  0  0  0  0  0  0
  191.7140  175.7420  137.5020 C   0  0  0  0  0  3  0  0  0  0  0  0
  188.9960  175.1110  137.2430 C   0  0  0  0  0  0  0  0  0  0  0  0
  189.3790  176.3940  137.6840 C   0  0  0  0  0  0  0  0  0  0  0  0
  189.9740  174.1620  136.9260 C   0  0  0  0  0  3  0  0  0  0  0  0
  1 13  1  1  0  0  0
  2  4  1  0  0  0  0
  2  1  1  0  0  0  0
  3  4  2  0  0  0  0
  5 10  1  0  0  0  0
  5  9  1  0  0  0  0
  6  3  1  0  0  0  0
  7  9  1  6  0  0  0
  7  1  1  0  0  0  0
  8 10  1  0  0  0  0
  8  6  2  0  0  0  0
 10  2  2  0  0  0  0
 11  8  1  0  0  0  0
 12 14  1  0  0  0  0
 12 15  1  0  0  0  0
 13 17  2  0  0  0  0
 13 16  1  0  0  0  0
 16 12  2  0  0  0  0
 17 18  1  0  0  0  0
 18 14  2  0  0  0  0
 19 20  1  1  0  0  0
 19  7  1  0  0  0  0
 21 19  1  0  0  0  0
 21 20  1  0  0  0  0
 21 23  1  1  0  0  0
 23 22  1  6  0  0  0
 24 28  1  0  0  0  0
 26 29  1  0  0  0  0
 27 24  1  0  0  0  0
 28 25  2  0  0  0  0
 29 30  2  0  0  0  0
 30 25  1  0  0  0  0
 30 23  1  0  0  0  0
 31 24  2  0  0  0  0
 31 29  1  0  0  0  0
M  END
>  <MODEL>
1

>  <REMARK>
 VINA RESULT:      -6.5      0.000      0.000
  Name = 
  4 active torsions:
  status: ('A' for Active; 'I' for Inactive)
    1  A    between atoms: C_4  and  C_12
    2  A    between atoms: C_9  and  C_22
    3  A    between atoms: C_9  and  C_23
    4  A    between atoms: C_15  and  C_21
                            x       y       z     vdW  Elec       q    Type
                         _______ _______ _______ _____ _____    ______ ____

>  <TORSDO>
F 4

$$$$
=
 OpenBabel10272400143D

 31 35  0  0  1  0  0  0  0  0999 V2000
  189.1350  176.5520  137.3670 C   0  0  2  0  0  3  0  0  0  0  0  0
  190.3910  176.4290  136.5330 C   0  0  0  0  0  0  0  0  0  0  0  0
  191.4190  176.3810  134.3500 C   0  0  0  0  0  3  0  0  0  0  0  0
  190.2850  176.5380  135.1440 C   0  0  0  0  0  3  0  0  0  0  0  0
  191.8280  176.1410  138.6090 C   0  0  0  0  0  2  0  0  0  0  0  0
  192.6220  176.1210  134.9250 N   0  0  0  0  0  0  0  0  0  0  0  0
  189.3960  176.7440  138.8650 C   0  0  1  0  0  3  0  0  0  0  0  0
  192.7660  176.0100  136.2730 C   0  0  0  0  0  0  0  0  0  0  0  0
  190.5300  175.8430  139.3530 C   0  0  0  0  0  2  0  0  0  0  0  0
  191.6490  176.1550  137.1140 C   0  0  0  0  0  0  0  0  0  0  0  0
  194.3680  175.6930  136.9230 Cl  0  0  0  0  0  0  0  0  0  0  0  0
  187.7530  173.0460  136.7980 C   0  0  0  0  0  0  0  0  0  0  0  0
  188.1900  175.4100  137.1390 C   0  0  0  0  0  0  0  0  0  0  0  0
  186.3790  173.3020  136.7820 C   0  0  0  0  0  3  0  0  0  0  0  0
  188.2090  171.7810  136.6420 F   0  0  0  0  0  0  0  0  0  0  0  0
  188.6570  174.0970  136.9780 C   0  0  0  0  0  3  0  0  0  0  0  0
  186.8130  175.6600  137.1280 C   0  0  0  0  0  3  0  0  0  0  0  0
  185.9090  174.6080  136.9470 C   0  0  0  0  0  3  0  0  0  0  0  0
  189.6600  178.2110  139.2130 C   0  0  1  0  0  3  0  0  0  0  0  0
  188.7180  179.0410  138.5730 O   0  0  0  0  0  0  0  0  0  0  0  0
  188.5600  178.8940  139.9640 C   0  0  1  0  0  3  0  0  0  0  0  0
  186.2050  178.4480  139.2550 C   0  0  0  0  0  1  0  0  0  0  0  0
  187.2980  178.0700  140.2390 C   0  0  2  0  0  3  0  0  0  0  0  0
  185.8770  178.5100  144.2830 C   0  0  0  0  0  0  0  0  0  0  0  0
  185.6480  178.9710  141.9200 C   0  0  0  0  0  3  0  0  0  0  0  0
  188.9360  176.6410  142.4480 Cl  0  0  0  0  0  0  0  0  0  0  0  0
  185.3010  178.6900  145.9250 Cl  0  0  0  0  0  0  0  0  0  0  0  0
  185.1860  179.1140  143.2300 C   0  0  0  0  0  3  0  0  0  0  0  0
  187.4940  177.6100  142.7160 C   0  0  0  0  0  0  0  0  0  0  0  0
  186.8100  178.2280  141.6510 C   0  0  0  0  0  0  0  0  0  0  0  0
  187.0260  177.7590  144.0260 C   0  0  0  0  0  3  0  0  0  0  0  0
  1 13  1  1  0  0  0
  1  7  1  0  0  0  0
  2 10  1  0  0  0  0
  2  1  1  0  0  0  0
  3  6  2  0  0  0  0
  3  4  1  0  0  0  0
  4  2  2  0  0  0  0
  5  9  1  0  0  0  0
  6  8  1  0  0  0  0
  7 19  1  0  0  0  0
  7  9  1  6  0  0  0
  8 11  1  0  0  0  0
  8 10  2  0  0  0  0
 10  5  1  0  0  0  0
 12 16  1  0  0  0  0
 14 12  2  0  0  0  0
 14 18  1  0  0  0  0
 15 12  1  0  0  0  0
 16 13  2  0  0  0  0
 17 13  1  0  0  0  0
 18 17  2  0  0  0  0
 19 20  1  6  0  0  0
 19 21  1  0  0  0  0
 20 21  1  0  0  0  0
 21 23  1  6  0  0  0
 23 22  1  6  0  0  0
 23 30  1  0  0  0  0
 24 27  1  0  0  0  0
 25 28  1  0  0  0  0
 26 29  1  0  0  0  0
 28 24  2  0  0  0  0
 29 31  2  0  0  0  0
 30 25  2  0  0  0  0
 30 29  1  0  0  0  0
 31 24  1  0  0  0  0
M  END
>  <MODEL>
2

>  <REMARK>
 VINA RESULT:      -6.5      4.352      8.162
  Name = 
  4 active torsions:
  status: ('A' for Active; 'I' for Inactive)
    1  A    between atoms: C_4  and  C_12
    2  A    between atoms: C_9  and  C_22
    3  A    between atoms: C_9  and  C_23
    4  A    between atoms: C_15  and  C_21
                            x       y       z     vdW  Elec       q    Type
                         _______ _______ _______ _____ _____    ______ ____

>  <TORSDO>
F 4

$$$$
=
 OpenBabel10272400143D

 31 35  0  0  1  0  0  0  0  0999 V2000
  184.4880  175.3680  136.4980 C   0  0  2  0  0  3  0  0  0  0  0  0
  183.5750  174.3530  135.8480 C   0  0  0  0  0  0  0  0  0  0  0  0
  181.5850  173.8950  134.5630 C   0  0  0  0  0  3  0  0  0  0  0  0
  182.4680  174.8120  135.1300 C   0  0  0  0  0  3  0  0  0  0  0  0
  185.0200  172.4260  136.6620 C   0  0  0  0  0  2  0  0  0  0  0  0
  181.8000  172.5620  134.7090 N   0  0  0  0  0  0  0  0  0  0  0  0
  185.8270  174.7920  136.9730 C   0  0  1  0  0  3  0  0  0  0  0  0
  182.8670  172.0770  135.3980 C   0  0  0  0  0  0  0  0  0  0  0  0
  185.6420  173.4260  137.6320 C   0  0  0  0  0  2  0  0  0  0  0  0
  183.7820  172.9630  135.9930 C   0  0  0  0  0  0  0  0  0  0  0  0
  183.0700  170.3340  135.5140 Cl  0  0  0  0  0  0  0  0  0  0  0  0
  183.2050  178.1790  138.7300 C   0  0  0  0  0  0  0  0  0  0  0  0
  183.8100  176.1100  137.6110 C   0  0  0  0  0  0  0  0  0  0  0  0
  182.4700  177.4550  139.6720 C   0  0  0  0  0  3  0  0  0  0  0  0
  183.2690  179.5290  138.8120 F   0  0  0  0  0  0  0  0  0  0  0  0
  183.8720  177.5090  137.7000 C   0  0  0  0  0  3  0  0  0  0  0  0
  183.0670  175.3910  138.5540 C   0  0  0  0  0  3  0  0  0  0  0  0
  182.4000  176.0610  139.5840 C   0  0  0  0  0  3  0  0  0  0  0  0
  186.8540  174.7310  135.8400 C   0  0  1  0  0  3  0  0  0  0  0  0
  186.6450  175.7910  134.9350 O   0  0  0  0  0  0  0  0  0  0  0  0
  187.7820  175.9030  135.7580 C   0  0  1  0  0  3  0  0  0  0  0  0
  187.3930  178.3560  136.0430 C   0  0  0  0  0  1  0  0  0  0  0  0
  187.5560  177.0320  136.7690 C   0  0  2  0  0  3  0  0  0  0  0  0
  190.7420  177.3040  139.6570 C   0  0  0  0  0  0  0  0  0  0  0  0
  189.9550  176.6770  137.4580 C   0  0  0  0  0  3  0  0  0  0  0  0
  186.8380  178.2800  139.5130 Cl  0  0  0  0  0  0  0  0  0  0  0  0
  192.0360  177.4130  140.8290 Cl  0  0  0  0  0  0  0  0  0  0  0  0
  190.9890  176.7660  138.3920 C   0  0  0  0  0  3  0  0  0  0  0  0
  188.4240  177.6770  139.0530 C   0  0  0  0  0  0  0  0  0  0  0  0
  188.6630  177.1210  137.7810 C   0  0  0  0  0  0  0  0  0  0  0  0
  189.4640  177.7610  139.9850 C   0  0  0  0  0  3  0  0  0  0  0  0
  1  7  1  0  0  0  0
  1 13  1  1  0  0  0
  2 10  1  0  0  0  0
  2  1  1  0  0  0  0
  3  6  2  0  0  0  0
  3  4  1  0  0  0  0
  4  2  2  0  0  0  0
  5  9  1  0  0  0  0
  6  8  1  0  0  0  0
  7  9  1  6  0  0  0
  8 11  1  0  0  0  0
  8 10  2  0  0  0  0
 10  5  1  0  0  0  0
 12 15  1  0  0  0  0
 12 14  1  0  0  0  0
 13 16  1  0  0  0  0
 13 17  2  0  0  0  0
 16 12  2  0  0  0  0
 17 18  1  0  0  0  0
 18 14  2  0  0  0  0
 19 20  1  6  0  0  0
 19  7  1  0  0  0  0
 20 21  1  0  0  0  0
 21 19  1  0  0  0  0
 21 23  1  1  0  0  0
 23 22  1  6  0  0  0
 23 30  1  0  0  0  0
 24 31  1  0  0  0  0
 24 27  1  0  0  0  0
 25 30  2  0  0  0  0
 25 28  1  0  0  0  0
 28 24  2  0  0  0  0
 29 26  1  0  0  0  0
 29 31  2  0  0  0  0
 30 29  1  0  0  0  0
M  END
>  <MODEL>
3

>  <REMARK>
 VINA RESULT:      -6.1      3.418      4.779
  Name = 
  4 active torsions:
  status: ('A' for Active; 'I' for Inactive)
    1  A    between atoms: C_4  and  C_12
    2  A    between atoms: C_9  and  C_22
    3  A    between atoms: C_9  and  C_23
    4  A    between atoms: C_15  and  C_21
                            x       y       z     vdW  Elec       q    Type
                         _______ _______ _______ _____ _____    ______ ____

>  <TORSDO>
F 4

$$$$
=
 OpenBabel10272400143D

 31 35  0  0  1  0  0  0  0  0999 V2000
  189.1530  176.6010  137.2780 C   0  0  2  0  0  3  0  0  0  0  0  0
  190.4260  176.3860  136.4900 C   0  0  0  0  0  0  0  0  0  0  0  0
  191.5070  176.1460  134.3460 C   0  0  0  0  0  3  0  0  0  0  0  0
  190.3580  176.3900  135.0940 C   0  0  0  0  0  3  0  0  0  0  0  0
  191.8020  176.2250  138.6210 C   0  0  0  0  0  2  0  0  0  0  0  0
  192.6890  175.9040  134.9720 N   0  0  0  0  0  0  0  0  0  0  0  0
  189.3800  176.9020  138.7630 C   0  0  1  0  0  3  0  0  0  0  0  0
  192.7950  175.8930  136.3270 C   0  0  0  0  0  0  0  0  0  0  0  0
  190.4780  176.0150  139.3490 C   0  0  0  0  0  2  0  0  0  0  0  0
  191.6620  176.1280  137.1240 C   0  0  0  0  0  0  0  0  0  0  0  0
  194.3720  175.5900  137.0430 Cl  0  0  0  0  0  0  0  0  0  0  0  0
  187.7030  173.0980  136.8950 C   0  0  0  0  0  0  0  0  0  0  0  0
  188.1850  175.4680  137.1120 C   0  0  0  0  0  0  0  0  0  0  0  0
  186.3330  173.3780  136.8700 C   0  0  0  0  0  3  0  0  0  0  0  0
  188.1340  171.8170  136.8020 F   0  0  0  0  0  0  0  0  0  0  0  0
  188.6270  174.1390  137.0170 C   0  0  0  0  0  3  0  0  0  0  0  0
  186.8130  175.7420  137.0930 C   0  0  0  0  0  3  0  0  0  0  0  0
  185.8890  174.7000  136.9700 C   0  0  0  0  0  3  0  0  0  0  0  0
  189.6720  178.3850  139.0060 C   0  0  1  0  0  3  0  0  0  0  0  0
  188.5240  179.1570  138.7380 O   0  0  0  0  0  0  0  0  0  0  0  0
  188.8680  179.0210  140.0960 C   0  0  1  0  0  3  0  0  0  0  0  0
  186.4560  178.7890  140.7080 C   0  0  0  0  0  1  0  0  0  0  0  0
  187.8250  178.1380  140.7880 C   0  0  2  0  0  3  0  0  0  0  0  0
  188.8630  177.3220  144.8900 C   0  0  0  0  0  0  0  0  0  0  0  0
  189.5300  177.7940  142.6140 C   0  0  0  0  0  3  0  0  0  0  0  0
  185.4700  177.7300  142.7610 Cl  0  0  0  0  0  0  0  0  0  0  0  0
  189.2860  176.9900  146.5550 Cl  0  0  0  0  0  0  0  0  0  0  0  0
  189.8690  177.5310  143.9430 C   0  0  0  0  0  3  0  0  0  0  0  0
  187.1750  177.6490  143.1820 C   0  0  0  0  0  0  0  0  0  0  0  0
  188.1840  177.8460  142.2180 C   0  0  0  0  0  0  0  0  0  0  0  0
  187.5210  177.3840  144.5110 C   0  0  0  0  0  3  0  0  0  0  0  0
  1 13  1  1  0  0  0
  1  7  1  0  0  0  0
  2 10  1  0  0  0  0
  2  1  1  0  0  0  0
  3  6  2  0  0  0  0
  3  4  1  0  0  0  0
  4  2  2  0  0  0  0
  5  9  1  0  0  0  0
  6  8  1  0  0  0  0
  7 19  1  0  0  0  0
  7  9  1  6  0  0  0
  8 11  1  0  0  0  0
  8 10  2  0  0  0  0
 10  5  1  0  0  0  0
 12 16  1  0  0  0  0
 14 12  2  0  0  0  0
 14 18  1  0  0  0  0
 15 12  1  0  0  0  0
 16 13  2  0  0  0  0
 17 13  1  0  0  0  0
 18 17  2  0  0  0  0
 19 20  1  6  0  0  0
 19 21  1  0  0  0  0
 20 21  1  0  0  0  0
 21 23  1  1  0  0  0
 23 22  1  1  0  0  0
 23 30  1  0  0  0  0
 24 27  1  0  0  0  0
 25 28  1  0  0  0  0
 26 29  1  0  0  0  0
 28 24  2  0  0  0  0
 29 31  2  0  0  0  0
 30 25  2  0  0  0  0
 30 29  1  0  0  0  0
 31 24  1  0  0  0  0
M  END
>  <MODEL>
4

>  <REMARK>
 VINA RESULT:      -6.1      4.430      7.949
  Name = 
  4 active torsions:
  status: ('A' for Active; 'I' for Inactive)
    1  A    between atoms: C_4  and  C_12
    2  A    between atoms: C_9  and  C_22
    3  A    between atoms: C_9  and  C_23
    4  A    between atoms: C_15  and  C_21
                            x       y       z     vdW  Elec       q    Type
                         _______ _______ _______ _____ _____    ______ ____

>  <TORSDO>
F 4

$$$$
=
 OpenBabel10272400143D

 31 35  0  0  1  0  0  0  0  0999 V2000
  190.7120  176.5590  137.1330 C   0  0  2  0  0  3  0  0  0  0  0  0
  189.2800  176.9570  136.8560 C   0  0  0  0  0  0  0  0  0  0  0  0
  187.6270  178.7050  136.6650 C   0  0  0  0  0  3  0  0  0  0  0  0
  188.9490  178.3150  136.8690 C   0  0  0  0  0  3  0  0  0  0  0  0
  188.5980  174.5340  136.5070 C   0  0  0  0  0  2  0  0  0  0  0  0
  186.6650  177.7690  136.4550 N   0  0  0  0  0  0  0  0  0  0  0  0
  191.0360  175.1030  136.7780 C   0  0  1  0  0  3  0  0  0  0  0  0
  186.9480  176.4390  136.4330 C   0  0  0  0  0  0  0  0  0  0  0  0
  189.9060  174.1630  137.1980 C   0  0  0  0  0  2  0  0  0  0  0  0
  188.2670  175.9970  136.6400 C   0  0  0  0  0  0  0  0  0  0  0  0
  185.6380  175.3060  136.1340 Cl  0  0  0  0  0  0  0  0  0  0  0  0
  190.5840  177.2120  140.8850 C   0  0  0  0  0  0  0  0  0  0  0  0
  191.1220  176.8600  138.5440 C   0  0  0  0  0  0  0  0  0  0  0  0
  191.9430  177.3600  141.1760 C   0  0  0  0  0  3  0  0  0  0  0  0
  189.6650  177.3090  141.8760 F   0  0  0  0  0  0  0  0  0  0  0  0
  190.1740  176.9600  139.5730 C   0  0  0  0  0  3  0  0  0  0  0  0
  192.4820  177.0040  138.8420 C   0  0  0  0  0  3  0  0  0  0  0  0
  192.8920  177.2560  140.1550 C   0  0  0  0  0  3  0  0  0  0  0  0
  191.3750  174.9410  135.2940 C   0  0  1  0  0  3  0  0  0  0  0  0
  192.2070  175.9950  134.8670 O   0  0  0  0  0  0  0  0  0  0  0  0
  192.8270  174.7380  134.9920 C   0  0  1  0  0  3  0  0  0  0  0  0
  194.9660  175.6830  135.8740 C   0  0  0  0  0  1  0  0  0  0  0  0
  193.7900  174.7740  136.1830 C   0  0  2  0  0  3  0  0  0  0  0  0
  195.1930  170.8460  137.2660 C   0  0  0  0  0  0  0  0  0  0  0  0
  194.0730  172.3140  135.7040 C   0  0  0  0  0  3  0  0  0  0  0  0
  195.2700  174.5270  138.8950 Cl  0  0  0  0  0  0  0  0  0  0  0  0
  195.7600  169.2500  137.7050 Cl  0  0  0  0  0  0  0  0  0  0  0  0
  194.5280  171.0410  136.0530 C   0  0  0  0  0  3  0  0  0  0  0  0
  194.9580  173.2030  137.7820 C   0  0  0  0  0  0  0  0  0  0  0  0
  194.2740  173.4030  136.5670 C   0  0  0  0  0  0  0  0  0  0  0  0
  195.4090  171.9240  138.1260 C   0  0  0  0  0  3  0  0  0  0  0  0
  1 13  1  1  0  0  0
  2  4  1  0  0  0  0
  2  1  1  0  0  0  0
  3  4  2  0  0  0  0
  5 10  1  0  0  0  0
  5  9  1  0  0  0  0
  6  3  1  0  0  0  0
  7  1  1  0  0  0  0
  7  9  1  6  0  0  0
  8  6  2  0  0  0  0
  8 10  1  0  0  0  0
 10  2  2  0  0  0  0
 11  8  1  0  0  0  0
 12 14  1  0  0  0  0
 12 15  1  0  0  0  0
 13 17  2  0  0  0  0
 13 16  1  0  0  0  0
 16 12  2  0  0  0  0
 17 18  1  0  0  0  0
 18 14  2  0  0  0  0
 19 20  1  6  0  0  0
 19  7  1  0  0  0  0
 20 21  1  0  0  0  0
 21 19  1  0  0  0  0
 21 23  1  1  0  0  0
 23 22  1  6  0  0  0
 23 30  1  0  0  0  0
 24 27  1  0  0  0  0
 24 31  1  0  0  0  0
 25 28  1  0  0  0  0
 25 30  2  0  0  0  0
 28 24  2  0  0  0  0
 29 31  2  0  0  0  0
 29 26  1  0  0  0  0
 30 29  1  0  0  0  0
M  END
>  <MODEL>
5

>  <REMARK>
 VINA RESULT:      -6.0      4.329      6.446
  Name = 
  4 active torsions:
  status: ('A' for Active; 'I' for Inactive)
    1  A    between atoms: C_4  and  C_12
    2  A    between atoms: C_9  and  C_22
    3  A    between atoms: C_9  and  C_23
    4  A    between atoms: C_15  and  C_21
                            x       y       z     vdW  Elec       q    Type
                         _______ _______ _______ _____ _____    ______ ____

>  <TORSDO>
F 4

$$$$
=
 OpenBabel10272400143D

 31 35  0  0  1  0  0  0  0  0999 V2000
  188.1960  177.3020  137.6800 C   0  0  2  0  0  3  0  0  0  0  0  0
  189.2680  177.0750  136.6380 C   0  0  0  0  0  0  0  0  0  0  0  0
  189.9920  177.2840  134.3460 C   0  0  0  0  0  3  0  0  0  0  0  0
  189.0400  177.5240  135.3350 C   0  0  0  0  0  3  0  0  0  0  0  0
  190.7950  175.9720  138.3460 C   0  0  0  0  0  2  0  0  0  0  0  0
  191.1340  176.6140  134.6480 N   0  0  0  0  0  0  0  0  0  0  0  0
  188.6660  177.0730  139.1210 C   0  0  1  0  0  3  0  0  0  0  0  0
  191.3920  176.1620  135.9040 C   0  0  0  0  0  0  0  0  0  0  0  0
  189.5570  175.8360  139.2260 C   0  0  0  0  0  2  0  0  0  0  0  0
  190.4600  176.3760  136.9340 C   0  0  0  0  0  0  0  0  0  0  0  0
  192.9090  175.3230  136.2000 Cl  0  0  0  0  0  0  0  0  0  0  0  0
  185.8310  174.4040  136.9540 C   0  0  0  0  0  0  0  0  0  0  0  0
  186.9540  176.5100  137.3990 C   0  0  0  0  0  0  0  0  0  0  0  0
  184.5990  175.0630  136.9440 C   0  0  0  0  0  3  0  0  0  0  0  0
  185.8870  173.0670  136.7450 F   0  0  0  0  0  0  0  0  0  0  0  0
  187.0070  175.1240  137.1840 C   0  0  0  0  0  3  0  0  0  0  0  0
  185.7170  177.1630  137.3930 C   0  0  0  0  0  3  0  0  0  0  0  0
  184.5410  176.4420  137.1630 C   0  0  0  0  0  3  0  0  0  0  0  0
  189.3600  178.3100  139.6970 C   0  0  1  0  0  3  0  0  0  0  0  0
  188.4180  179.3330  139.9280 O   0  0  0  0  0  0  0  0  0  0  0  0
  188.9260  178.6980  141.0770 C   0  0  1  0  0  3  0  0  0  0  0  0
  186.4620  178.4880  141.4410 C   0  0  0  0  0  1  0  0  0  0  0  0
  187.8160  177.8560  141.7120 C   0  0  2  0  0  3  0  0  0  0  0  0
  188.3790  177.2910  145.9470 C   0  0  0  0  0  0  0  0  0  0  0  0
  187.0130  178.0370  144.0960 C   0  0  0  0  0  3  0  0  0  0  0  0
  190.4920  176.5660  142.5960 Cl  0  0  0  0  0  0  0  0  0  0  0  0
  188.6080  177.0630  147.6660 Cl  0  0  0  0  0  0  0  0  0  0  0  0
  187.1940  177.8540  145.4680 C   0  0  0  0  0  3  0  0  0  0  0  0
  189.2060  177.0840  143.6770 C   0  0  0  0  0  0  0  0  0  0  0  0
  188.0190  177.6650  143.1890 C   0  0  0  0  0  0  0  0  0  0  0  0
  189.3800  176.9050  145.0530 C   0  0  0  0  0  3  0  0  0  0  0  0
  1 13  1  6  0  0  0
  1  7  1  0  0  0  0
  2 10  1  0  0  0  0
  2  1  1  0  0  0  0
  3  6  2  0  0  0  0
  3  4  1  0  0  0  0
  4  2  2  0  0  0  0
  5  9  1  0  0  0  0
  6  8  1  0  0  0  0
  7  9  1  6  0  0  0
  7 19  1  0  0  0  0
  8 11  1  0  0  0  0
  8 10  2  0  0  0  0
 10  5  1  0  0  0  0
 12 16  1  0  0  0  0
 14 12  2  0  0  0  0
 14 18  1  0  0  0  0
 15 12  1  0  0  0  0
 16 13  2  0  0  0  0
 17 13  1  0  0  0  0
 18 17  2  0  0  0  0
 19 20  1  6  0  0  0
 19 21  1  0  0  0  0
 20 21  1  0  0  0  0
 21 23  1  6  0  0  0
 23 22  1  1  0  0  0
 23 30  1  0  0  0  0
 24 27  1  0  0  0  0
 25 28  2  0  0  0  0
 26 29  1  0  0  0  0
 28 24  1  0  0  0  0
 29 31  1  0  0  0  0
 30 29  2  0  0  0  0
 30 25  1  0  0  0  0
 31 24  2  0  0  0  0
M  END
>  <MODEL>
6

>  <REMARK>
 VINA RESULT:      -6.0      4.151      7.465
  Name = 
  4 active torsions:
  status: ('A' for Active; 'I' for Inactive)
    1  A    between atoms: C_4  and  C_12
    2  A    between atoms: C_9  and  C_22
    3  A    between atoms: C_9  and  C_23
    4  A    between atoms: C_15  and  C_21
                            x       y       z     vdW  Elec       q    Type
                         _______ _______ _______ _____ _____    ______ ____

>  <TORSDO>
F 4

$$$$
=
 OpenBabel10272400143D

 31 35  0  0  1  0  0  0  0  0999 V2000
  181.5750  178.2610  139.4190 C   0  0  2  0  0  3  0  0  0  0  0  0
  181.4210  178.5320  140.8990 C   0  0  0  0  0  0  0  0  0  0  0  0
  179.9820  179.0980  142.7510 C   0  0  0  0  0  3  0  0  0  0  0  0
  180.1440  178.7980  141.4010 C   0  0  0  0  0  3  0  0  0  0  0  0
  183.9080  178.1860  141.2950 C   0  0  0  0  0  2  0  0  0  0  0  0
  181.0610  179.1320  143.5760 N   0  0  0  0  0  0  0  0  0  0  0  0
  182.9340  177.6680  139.0310 C   0  0  1  0  0  3  0  0  0  0  0  0
  182.3180  178.8770  143.1260 C   0  0  0  0  0  0  0  0  0  0  0  0
  184.0750  178.3470  139.7880 C   0  0  0  0  0  2  0  0  0  0  0  0
  182.5320  178.5750  141.7700 C   0  0  0  0  0  0  0  0  0  0  0  0
  183.6480  178.9260  144.2760 Cl  0  0  0  0  0  0  0  0  0  0  0  0
  181.5610  181.8270  138.0740 C   0  0  0  0  0  0  0  0  0  0  0  0
  181.2720  179.4710  138.5870 C   0  0  0  0  0  0  0  0  0  0  0  0
  180.7260  181.6880  136.9620 C   0  0  0  0  0  3  0  0  0  0  0  0
  182.1070  183.0320  138.3660 F   0  0  0  0  0  0  0  0  0  0  0  0
  181.8360  180.7210  138.8840 C   0  0  0  0  0  3  0  0  0  0  0  0
  180.4410  179.3370  137.4690 C   0  0  0  0  0  3  0  0  0  0  0  0
  180.1670  180.4440  136.6590 C   0  0  0  0  0  3  0  0  0  0  0  0
  182.9670  176.1490  139.2180 C   0  0  1  0  0  3  0  0  0  0  0  0
  182.1860  175.5200  138.2280 O   0  0  0  0  0  0  0  0  0  0  0  0
  183.5800  175.3820  138.0880 C   0  0  1  0  0  3  0  0  0  0  0  0
  183.5900  175.5180  135.5920 C   0  0  0  0  0  1  0  0  0  0  0  0
  184.0420  176.1950  136.8740 C   0  0  2  0  0  3  0  0  0  0  0  0
  188.3070  176.8070  136.8580 C   0  0  0  0  0  0  0  0  0  0  0  0
  186.0620  177.7010  136.7700 C   0  0  0  0  0  3  0  0  0  0  0  0
  185.8090  173.6600  137.1160 Cl  0  0  0  0  0  0  0  0  0  0  0  0
  190.0390  177.0570  136.8490 Cl  0  0  0  0  0  0  0  0  0  0  0  0
  187.4430  177.9010  136.7650 C   0  0  0  0  0  3  0  0  0  0  0  0
  186.4070  175.3060  136.9690 C   0  0  0  0  0  0  0  0  0  0  0  0
  185.5300  176.4040  136.8610 C   0  0  0  0  0  0  0  0  0  0  0  0
  187.7900  175.5150  136.9620 C   0  0  0  0  0  3  0  0  0  0  0  0
  1 13  1  6  0  0  0
  1  2  1  0  0  0  0
  2  4  2  0  0  0  0
  2 10  1  0  0  0  0
  3  6  2  0  0  0  0
  4  3  1  0  0  0  0
  5 10  1  0  0  0  0
  7 19  1  0  0  0  0
  7  1  1  0  0  0  0
  7  9  1  1  0  0  0
  8  6  1  0  0  0  0
  8 11  1  0  0  0  0
  9  5  1  0  0  0  0
 10  8  2  0  0  0  0
 12 15  1  0  0  0  0
 12 16  1  0  0  0  0
 13 16  2  0  0  0  0
 14 12  2  0  0  0  0
 17 13  1  0  0  0  0
 18 14  1  0  0  0  0
 18 17  2  0  0  0  0
 19 20  1  6  0  0  0
 21 23  1  6  0  0  0
 21 20  1  0  0  0  0
 21 19  1  0  0  0  0
 23 22  1  6  0  0  0
 24 31  1  0  0  0  0
 25 30  2  0  0  0  0
 27 24  1  0  0  0  0
 28 25  1  0  0  0  0
 28 24  2  0  0  0  0
 29 26  1  0  0  0  0
 30 23  1  0  0  0  0
 30 29  1  0  0  0  0
 31 29  2  0  0  0  0
M  END
>  <MODEL>
7

>  <REMARK>
 VINA RESULT:      -5.9      3.101      5.166
  Name = 
  4 active torsions:
  status: ('A' for Active; 'I' for Inactive)
    1  A    between atoms: C_4  and  C_12
    2  A    between atoms: C_9  and  C_22
    3  A    between atoms: C_9  and  C_23
    4  A    between atoms: C_15  and  C_21
                            x       y       z     vdW  Elec       q    Type
                         _______ _______ _______ _____ _____    ______ ____

>  <TORSDO>
F 4

$$$$
=
 OpenBabel10272400143D

 31 35  0  0  1  0  0  0  0  0999 V2000
  190.7120  177.1430  137.9880 C   0  0  2  0  0  3  0  0  0  0  0  0
  189.4620  177.4720  137.2040 C   0  0  0  0  0  0  0  0  0  0  0  0
  187.7720  179.0860  136.6010 C   0  0  0  0  0  3  0  0  0  0  0  0
  188.9500  178.7710  137.2750 C   0  0  0  0  0  3  0  0  0  0  0  0
  189.3490  175.1160  136.2570 C   0  0  0  0  0  2  0  0  0  0  0  0
  187.1250  178.1350  135.8790 N   0  0  0  0  0  0  0  0  0  0  0  0
  191.3670  175.8150  137.5920 C   0  0  1  0  0  3  0  0  0  0  0  0
  187.5920  176.8620  135.7840 C   0  0  0  0  0  0  0  0  0  0  0  0
  190.3200  174.7240  137.3660 C   0  0  0  0  0  2  0  0  0  0  0  0
  188.7740  176.4940  136.4510 C   0  0  0  0  0  0  0  0  0  0  0  0
  186.6940  175.7070  134.8080 Cl  0  0  0  0  0  0  0  0  0  0  0  0
  191.3170  177.2920  141.7480 C   0  0  0  0  0  0  0  0  0  0  0  0
  190.4830  177.1970  139.4690 C   0  0  0  0  0  0  0  0  0  0  0  0
  190.0050  177.3650  142.2250 C   0  0  0  0  0  3  0  0  0  0  0  0
  192.3560  177.3040  142.6160 F   0  0  0  0  0  0  0  0  0  0  0  0
  191.5570  177.2110  140.3730 C   0  0  0  0  0  3  0  0  0  0  0  0
  189.1720  177.2750  139.9520 C   0  0  0  0  0  3  0  0  0  0  0  0
  188.9330  177.3570  141.3280 C   0  0  0  0  0  3  0  0  0  0  0  0
  192.2820  175.9710  136.3750 C   0  0  1  0  0  3  0  0  0  0  0  0
  193.5140  176.5360  136.7620 O   0  0  0  0  0  0  0  0  0  0  0  0
  193.5460  175.1700  136.4230 C   0  0  1  0  0  3  0  0  0  0  0  0
  194.6170  175.1520  138.6810 C   0  0  0  0  0  1  0  0  0  0  0  0
  193.7930  174.3480  137.6910 C   0  0  2  0  0  3  0  0  0  0  0  0
  195.7060  170.5740  136.8750 C   0  0  0  0  0  0  0  0  0  0  0  0
  195.7010  172.7250  137.9810 C   0  0  0  0  0  3  0  0  0  0  0  0
  192.2740  172.3970  135.8230 Cl  0  0  0  0  0  0  0  0  0  0  0  0
  196.4850  169.0430  136.5420 Cl  0  0  0  0  0  0  0  0  0  0  0  0
  196.3220  171.5030  137.7180 C   0  0  0  0  0  3  0  0  0  0  0  0
  193.8390  172.0880  136.5600 C   0  0  0  0  0  0  0  0  0  0  0  0
  194.4620  173.0340  137.3980 C   0  0  0  0  0  0  0  0  0  0  0  0
  194.4680  170.8660  136.3000 C   0  0  0  0  0  3  0  0  0  0  0  0
  1 13  1  1  0  0  0
  2  4  1  0  0  0  0
  2  1  1  0  0  0  0
  3  4  2  0  0  0  0
  5 10  1  0  0  0  0
  5  9  1  0  0  0  0
  6  3  1  0  0  0  0
  7  9  1  6  0  0  0
  7  1  1  0  0  0  0
  8  6  2  0  0  0  0
  8 10  1  0  0  0  0
 10  2  2  0  0  0  0
 11  8  1  0  0  0  0
 12 14  1  0  0  0  0
 12 15  1  0  0  0  0
 13 17  2  0  0  0  0
 13 16  1  0  0  0  0
 16 12  2  0  0  0  0
 17 18  1  0  0  0  0
 18 14  2  0  0  0  0
 19 21  1  0  0  0  0
 19 20  1  1  0  0  0
 19  7  1  0  0  0  0
 21 20  1  0  0  0  0
 21 23  1  1  0  0  0
 23 22  1  1  0  0  0
 24 28  1  0  0  0  0
 26 29  1  0  0  0  0
 27 24  1  0  0  0  0
 28 25  2  0  0  0  0
 29 30  2  0  0  0  0
 30 23  1  0  0  0  0
 30 25  1  0  0  0  0
 31 29  1  0  0  0  0
 31 24  2  0  0  0  0
M  END
>  <MODEL>
8

>  <REMARK>
 VINA RESULT:      -5.7      4.377      6.361
  Name = 
  4 active torsions:
  status: ('A' for Active; 'I' for Inactive)
    1  A    between atoms: C_4  and  C_12
    2  A    between atoms: C_9  and  C_22
    3  A    between atoms: C_9  and  C_23
    4  A    between atoms: C_15  and  C_21
                            x       y       z     vdW  Elec       q    Type
                         _______ _______ _______ _____ _____    ______ ____

>  <TORSDO>
F 4

$$$$
=
 OpenBabel10272400143D

 31 35  0  0  1  0  0  0  0  0999 V2000
  188.5100  178.7270  141.1010 C   0  0  2  0  0  3  0  0  0  0  0  0
  188.9860  178.3470  139.7160 C   0  0  0  0  0  0  0  0  0  0  0  0
  188.9880  178.7890  137.3440 C   0  0  0  0  0  3  0  0  0  0  0  0
  188.6030  179.1450  138.6350 C   0  0  0  0  0  3  0  0  0  0  0  0
  190.2830  176.3610  140.6300 C   0  0  0  0  0  2  0  0  0  0  0  0
  189.7310  177.6700  137.1390 N   0  0  0  0  0  0  0  0  0  0  0  0
  189.2390  177.9970  142.2350 C   0  0  1  0  0  3  0  0  0  0  0  0
  190.1250  176.8700  138.1650 C   0  0  0  0  0  0  0  0  0  0  0  0
  189.4530  176.5220  141.8990 C   0  0  0  0  0  2  0  0  0  0  0  0
  189.7560  177.1850  139.4850 C   0  0  0  0  0  0  0  0  0  0  0  0
  191.1030  175.4550  137.8000 Cl  0  0  0  0  0  0  0  0  0  0  0  0
  185.0470  178.2570  142.6190 C   0  0  0  0  0  0  0  0  0  0  0  0
  187.0250  178.5830  141.2490 C   0  0  0  0  0  0  0  0  0  0  0  0
  184.2400  178.3850  141.4850 C   0  0  0  0  0  3  0  0  0  0  0  0
  184.4820  178.0380  143.8310 F   0  0  0  0  0  0  0  0  0  0  0  0
  186.4360  178.3580  142.5030 C   0  0  0  0  0  3  0  0  0  0  0  0
  186.2120  178.7160  140.1180 C   0  0  0  0  0  3  0  0  0  0  0  0
  184.8220  178.6150  140.2350 C   0  0  0  0  0  3  0  0  0  0  0  0
  190.5570  178.6840  142.5990 C   0  0  1  0  0  3  0  0  0  0  0  0
  190.3620  179.5720  143.6760 O   0  0  0  0  0  0  0  0  0  0  0  0
  191.0670  178.3910  143.9760 C   0  0  1  0  0  3  0  0  0  0  0  0
  188.9890  178.2810  145.3600 C   0  0  0  0  0  1  0  0  0  0  0  0
  190.1900  177.4990  144.8600 C   0  0  2  0  0  3  0  0  0  0  0  0
  192.3570  175.8140  148.1820 C   0  0  0  0  0  0  0  0  0  0  0  0
  190.8170  177.4580  147.3020 C   0  0  0  0  0  3  0  0  0  0  0  0
  191.9820  175.0450  144.2470 Cl  0  0  0  0  0  0  0  0  0  0  0  0
  193.2380  175.1320  149.5310 Cl  0  0  0  0  0  0  0  0  0  0  0  0
  191.5180  176.9130  148.3800 C   0  0  0  0  0  3  0  0  0  0  0  0
  191.7900  175.7960  145.8250 C   0  0  0  0  0  0  0  0  0  0  0  0
  190.9530  176.9130  146.0150 C   0  0  0  0  0  0  0  0  0  0  0  0
  192.4900  175.2560  146.9090 C   0  0  0  0  0  3  0  0  0  0  0  0
  1 13  1  6  0  0  0
  1  7  1  0  0  0  0
  2  1  1  0  0  0  0
  3  4  1  0  0  0  0
  4  2  2  0  0  0  0
  5  9  1  0  0  0  0
  6  3  2  0  0  0  0
  6  8  1  0  0  0  0
  7  9  1  6  0  0  0
  7 19  1  0  0  0  0
  8 10  2  0  0  0  0
 10  2  1  0  0  0  0
 10  5  1  0  0  0  0
 11  8  1  0  0  0  0
 12 15  1  0  0  0  0
 13 16  2  0  0  0  0
 14 12  2  0  0  0  0
 16 12  1  0  0  0  0
 17 18  2  0  0  0  0
 17 13  1  0  0  0  0
 18 14  1  0  0  0  0
 19 20  1  1  0  0  0
 19 21  1  0  0  0  0
 20 21  1  0  0  0  0
 21 23  1  1  0  0  0
 23 22  1  1  0  0  0
 23 30  1  0  0  0  0
 24 28  1  0  0  0  0
 24 27  1  0  0  0  0
 25 28  2  0  0  0  0
 26 29  1  0  0  0  0
 29 30  2  0  0  0  0
 29 31  1  0  0  0  0
 30 25  1  0  0  0  0
 31 24  2  0  0  0  0
M  END
>  <MODEL>
9

>  <REMARK>
 VINA RESULT:      -5.7      5.234      7.507
  Name = 
  4 active torsions:
  status: ('A' for Active; 'I' for Inactive)
    1  A    between atoms: C_4  and  C_12
    2  A    between atoms: C_9  and  C_22
    3  A    between atoms: C_9  and  C_23
    4  A    between atoms: C_15  and  C_21
                            x       y       z     vdW  Elec       q    Type
                         _______ _______ _______ _____ _____    ______ ____

>  <TORSDO>
F 4

$$$$
