=
 OpenBabel10272413563D

 30 30  0  0  1  0  0  0  0  0999 V2000
  185.1790  178.3960  145.9500 C   0  0  0  0  0  2  0  0  0  0  0  0
  186.4440  177.5740  145.7720 C   0  0  0  0  0  2  0  0  0  0  0  0
  187.0850  177.8750  144.4290 C   0  0  0  0  0  2  0  0  0  0  0  0
  187.3670  176.6840  143.7550 O   0  0  0  0  0  0  0  0  0  0  0  0
  188.7400  176.4920  143.9320 C   0  0  0  0  0  2  0  0  0  0  0  0
  189.5220  177.7870  143.6840 C   0  0  2  0  0  3  0  0  0  0  0  0
  189.9260  177.9250  142.2500 C   0  0  0  0  0  3  0  0  0  0  0  0
  189.8810  176.9620  141.5000 O   0  0  0  0  0  0  0  0  0  0  0  0
  190.7260  177.9760  144.6160 C   0  0  2  0  0  3  0  0  0  0  0  0
  191.8210  178.5050  143.9280 O   0  0  0  0  0  1  0  0  0  0  0  0
  191.1080  176.6670  145.2970 C   0  0  0  0  0  2  0  0  0  0  0  0
  191.0880  176.8010  146.8180 C   0  0  2  0  0  3  0  0  0  0  0  0
  191.8040  175.6490  147.5220 C   0  0  0  0  0  2  0  0  0  0  0  0
  193.1130  176.0010  147.8560 O   0  0  0  0  0  1  0  0  0  0  0  0
  189.6850  176.9650  147.3200 C   0  0  0  0  0  3  0  0  0  0  0  0
  189.3240  177.9970  147.8630 O   0  0  0  0  0  0  0  0  0  0  0  0
  184.9630  179.2950  144.7450 C   0  0  0  0  0  2  0  0  0  0  0  0
  183.5220  179.2310  144.2740 C   0  0  0  0  0  2  0  0  0  0  0  0
  183.4870  178.6840  142.8590 C   0  0  0  0  0  2  0  0  0  0  0  0
  184.7630  179.0380  142.1050 C   0  0  0  0  0  2  0  0  0  0  0  0
  184.6170  178.8300  140.5980 C   0  0  0  0  0  2  0  0  0  0  0  0
  185.9660  178.7270  139.8970 C   0  0  0  0  0  2  0  0  0  0  0  0
  185.8060  178.2400  138.4680 C   0  0  2  0  0  3  0  0  0  0  0  0
  186.9960  177.4540  138.0850 C   0  0  2  0  0  3  0  0  0  0  0  0
  186.8290  178.7880  137.6730 O   0  0  0  0  0  0  0  0  0  0  0  0
  186.6530  176.5270  136.9370 C   0  0  0  0  0  2  0  0  0  0  0  0
  187.7360  175.0680  136.9640 S   0  0  0  0  0  0  0  0  0  0  0  0
  190.1040  175.2380  138.1000 O   0  0  0  0  0  1  0  0  0  0  0  0
  189.2070  176.0420  137.3980 C   0  0  1  0  0  3  0  0  0  0  0  0
  190.0020  176.6480  135.8840 S   0  0  0  0  0  1  0  0  0  0  0  0
  2  1  1  0  0  0  0
  3  2  1  0  0  0  0
  4  5  1  0  0  0  0
  4  3  1  0  0  0  0
  6  7  1  6  0  0  0
  6  5  1  0  0  0  0
  6  9  1  0  0  0  0
  8  7  2  0  0  0  0
  9 10  1  6  0  0  0
  9 11  1  0  0  0  0
 12 11  1  6  0  0  0
 12 15  1  0  0  0  0
 12 13  1  0  0  0  0
 13 14  1  0  0  0  0
 15 16  2  0  0  0  0
 17  1  1  0  0  0  0
 18 17  1  0  0  0  0
 19 18  1  0  0  0  0
 20 19  1  0  0  0  0
 21 20  1  0  0  0  0
 22 21  1  0  0  0  0
 23 22  1  1  0  0  0
 24 26  1  6  0  0  0
 24 23  1  0  0  0  0
 25 24  1  0  0  0  0
 25 23  1  0  0  0  0
 26 27  1  0  0  0  0
 27 29  1  0  0  0  0
 29 30  1  6  0  0  0
 29 28  1  0  0  0  0
M  END
>  <MODEL>
1

>  <REMARK>
 VINA RESULT:      -5.7      0.000      0.000
  Name = 
  21 active torsions:
  status: ('A' for Active; 'I' for Inactive)
    1  A    between atoms: C_1  and  C_4
    2  A    between atoms: C_1  and  C_8
    3  A    between atoms: C_2  and  C_18
    4  A    between atoms: C_3  and  C_11
    5  A    between atoms: C_3  and  C_19
    6  A    between atoms: C_3  and  C_25
    7  A    between atoms: C_4  and  C_13
    8  A    between atoms: C_5  and  S_9
    9  A    between atoms: C_5  and  C_12
   10  A    between atoms: C_7  and  C_16
   11  A    between atoms: C_7  and  C_26
   12  A    between atoms: S_9  and  C_17
   13  A    between atoms: O_10  and  C_15
   14  A    between atoms: O_10  and  C_25
   15  A    between atoms: C_13  and  C_27
   16  A    between atoms: C_15  and  C_26
   17  A    between atoms: C_16  and  C_30
   18  A    between atoms: C_18  and  C_20
   19  A    between atoms: C_18  and  C_22
   20  A    between atoms: C_19  and  C_20
   21  A    between atoms: C_27  and  C_30
                            x       y       z     vdW  Elec       q    Type
                         _______ _______ _______ _____ _____    ______ ____

>  <TORSDO>
F 21

$$$$
=
 OpenBabel10272413563D

 30 30  0  0  1  0  0  0  0  0999 V2000
  189.8120  178.1260  144.9670 C   0  0  0  0  0  2  0  0  0  0  0  0
  191.2610  177.7470  144.7130 C   0  0  0  0  0  2  0  0  0  0  0  0
  191.3480  176.6930  143.6230 C   0  0  0  0  0  2  0  0  0  0  0  0
  191.3870  177.3050  142.3670 O   0  0  0  0  0  0  0  0  0  0  0  0
  190.5370  176.5310  141.5700 C   0  0  0  0  0  2  0  0  0  0  0  0
  189.9410  177.3550  140.4240 C   0  0  2  0  0  3  0  0  0  0  0  0
  188.6120  177.9370  140.7920 C   0  0  0  0  0  3  0  0  0  0  0  0
  188.0340  177.5660  141.8020 O   0  0  0  0  0  0  0  0  0  0  0  0
  189.8620  176.6020  139.0900 C   0  0  2  0  0  3  0  0  0  0  0  0
  190.8300  175.5970  139.0190 O   0  0  0  0  0  1  0  0  0  0  0  0
  190.0000  177.5560  137.9090 C   0  0  0  0  0  2  0  0  0  0  0  0
  188.8310  177.4130  136.9360 C   0  0  2  0  0  3  0  0  0  0  0  0
  188.0130  178.6970  136.8030 C   0  0  0  0  0  2  0  0  0  0  0  0
  187.0790  178.8060  137.8360 O   0  0  0  0  0  1  0  0  0  0  0  0
  187.9670  176.2470  137.3110 C   0  0  0  0  0  3  0  0  0  0  0  0
  188.0900  175.1650  136.7580 O   0  0  0  0  0  0  0  0  0  0  0  0
  189.1750  177.1470  145.9370 C   0  0  0  0  0  2  0  0  0  0  0  0
  188.1290  177.8360  146.7930 C   0  0  0  0  0  2  0  0  0  0  0  0
  186.7520  177.5320  146.2340 C   0  0  0  0  0  2  0  0  0  0  0  0
  185.8180  178.7220  146.4040 C   0  0  0  0  0  2  0  0  0  0  0  0
  184.7690  178.7940  145.2950 C   0  0  0  0  0  2  0  0  0  0  0  0
  185.3680  178.5510  143.9160 C   0  0  0  0  0  2  0  0  0  0  0  0
  184.5500  179.2300  142.8340 C   0  0  2  0  0  3  0  0  0  0  0  0
  184.6030  178.4190  141.6010 C   0  0  2  0  0  3  0  0  0  0  0  0
  185.3910  179.5730  141.7590 O   0  0  0  0  0  0  0  0  0  0  0  0
  183.4130  178.7410  140.7200 C   0  0  0  0  0  2  0  0  0  0  0  0
  183.9730  179.4750  139.1540 S   0  0  0  0  0  0  0  0  0  0  0  0
  181.5630  178.4220  139.0780 O   0  0  0  0  0  1  0  0  0  0  0  0
  182.3230  179.3720  138.3990 C   0  0  1  0  0  3  0  0  0  0  0  0
  181.5040  180.9880  138.5100 S   0  0  0  0  0  1  0  0  0  0  0  0
  1 17  1  0  0  0  0
  2  1  1  0  0  0  0
  3  2  1  0  0  0  0
  4  3  1  0  0  0  0
  5  4  1  0  0  0  0
  6  7  1  1  0  0  0
  6  5  1  0  0  0  0
  7  8  2  0  0  0  0
  9 10  1  1  0  0  0
  9  6  1  0  0  0  0
 11  9  1  0  0  0  0
 12 13  1  1  0  0  0
 12 15  1  0  0  0  0
 12 11  1  0  0  0  0
 13 14  1  0  0  0  0
 16 15  2  0  0  0  0
 17 18  1  0  0  0  0
 19 20  1  0  0  0  0
 19 18  1  0  0  0  0
 21 20  1  0  0  0  0
 22 21  1  0  0  0  0
 23 22  1  1  0  0  0
 24 26  1  6  0  0  0
 24 25  1  0  0  0  0
 24 23  1  0  0  0  0
 25 23  1  0  0  0  0
 27 26  1  0  0  0  0
 29 30  1  1  0  0  0
 29 28  1  0  0  0  0
 29 27  1  0  0  0  0
M  END
>  <MODEL>
2

>  <REMARK>
 VINA RESULT:      -5.6      2.810      6.743
  Name = 
  21 active torsions:
  status: ('A' for Active; 'I' for Inactive)
    1  A    between atoms: C_1  and  C_4
    2  A    between atoms: C_1  and  C_8
    3  A    between atoms: C_2  and  C_18
    4  A    between atoms: C_3  and  C_11
    5  A    between atoms: C_3  and  C_19
    6  A    between atoms: C_3  and  C_25
    7  A    between atoms: C_4  and  C_13
    8  A    between atoms: C_5  and  S_9
    9  A    between atoms: C_5  and  C_12
   10  A    between atoms: C_7  and  C_16
   11  A    between atoms: C_7  and  C_26
   12  A    between atoms: S_9  and  C_17
   13  A    between atoms: O_10  and  C_15
   14  A    between atoms: O_10  and  C_25
   15  A    between atoms: C_13  and  C_27
   16  A    between atoms: C_15  and  C_26
   17  A    between atoms: C_16  and  C_30
   18  A    between atoms: C_18  and  C_20
   19  A    between atoms: C_18  and  C_22
   20  A    between atoms: C_19  and  C_20
   21  A    between atoms: C_27  and  C_30
                            x       y       z     vdW  Elec       q    Type
                         _______ _______ _______ _____ _____    ______ ____

>  <TORSDO>
F 21

$$$$
=
 OpenBabel10272413563D

 30 30  0  0  1  0  0  0  0  0999 V2000
  188.0190  176.5080  143.0050 C   0  0  0  0  0  2  0  0  0  0  0  0
  189.5310  176.3710  143.0870 C   0  0  0  0  0  2  0  0  0  0  0  0
  190.1900  177.0900  141.9220 C   0  0  0  0  0  2  0  0  0  0  0  0
  190.2240  176.2550  140.8020 O   0  0  0  0  0  0  0  0  0  0  0  0
  190.9980  176.9480  139.8670 C   0  0  0  0  0  2  0  0  0  0  0  0
  191.4200  176.0400  138.7070 C   0  0  2  0  0  3  0  0  0  0  0  0
  192.4530  176.6920  137.8410 C   0  0  0  0  0  3  0  0  0  0  0  0
  193.6350  176.6310  138.1370 O   0  0  0  0  0  0  0  0  0  0  0  0
  190.2490  175.5140  137.8680 C   0  0  2  0  0  3  0  0  0  0  0  0
  190.4320  174.1710  137.5300 O   0  0  0  0  0  1  0  0  0  0  0  0
  190.0480  176.3550  136.6130 C   0  0  0  0  0  2  0  0  0  0  0  0
  188.8110  177.2430  136.7260 C   0  0  2  0  0  3  0  0  0  0  0  0
  189.1510  178.6880  137.0880 C   0  0  0  0  0  2  0  0  0  0  0  0
  188.6570  179.0190  138.3520 O   0  0  0  0  0  1  0  0  0  0  0  0
  187.8210  176.6550  137.6860 C   0  0  0  0  0  3  0  0  0  0  0  0
  186.9210  175.9260  137.2990 O   0  0  0  0  0  0  0  0  0  0  0  0
  187.6240  177.9740  142.9900 C   0  0  0  0  0  2  0  0  0  0  0  0
  186.9480  178.3390  141.6820 C   0  0  0  0  0  2  0  0  0  0  0  0
  185.4710  178.5700  141.9360 C   0  0  0  0  0  2  0  0  0  0  0  0
  185.2460  179.2440  143.2830 C   0  0  0  0  0  2  0  0  0  0  0  0
  183.9920  178.7250  143.9850 C   0  0  0  0  0  2  0  0  0  0  0  0
  184.1920  178.5740  145.4880 C   0  0  0  0  0  2  0  0  0  0  0  0
  185.5250  179.1500  145.9250 C   0  0  2  0  0  3  0  0  0  0  0  0
  186.1120  178.2850  146.9680 C   0  0  2  0  0  3  0  0  0  0  0  0
  185.4610  179.4890  147.2890 O   0  0  0  0  0  0  0  0  0  0  0  0
  187.6120  178.4940  147.0270 C   0  0  0  0  0  2  0  0  0  0  0  0
  188.4070  177.0920  147.8680 S   0  0  0  0  0  0  0  0  0  0  0  0
  189.7740  178.1080  145.8620 O   0  0  0  0  0  1  0  0  0  0  0  0
  189.6900  176.9240  146.5920 C   0  0  1  0  0  3  0  0  0  0  0  0
  191.2900  176.5890  147.3800 S   0  0  0  0  0  1  0  0  0  0  0  0
  1  2  1  0  0  0  0
  3  2  1  0  0  0  0
  4  3  1  0  0  0  0
  5  4  1  0  0  0  0
  6  7  1  6  0  0  0
  6  5  1  0  0  0  0
  7  8  2  0  0  0  0
  9 10  1  6  0  0  0
  9  6  1  0  0  0  0
 11  9  1  0  0  0  0
 12 11  1  1  0  0  0
 12 13  1  0  0  0  0
 12 15  1  0  0  0  0
 13 14  1  0  0  0  0
 16 15  2  0  0  0  0
 17  1  1  0  0  0  0
 18 19  1  0  0  0  0
 18 17  1  0  0  0  0
 19 20  1  0  0  0  0
 20 21  1  0  0  0  0
 21 22  1  0  0  0  0
 23 22  1  1  0  0  0
 23 24  1  0  0  0  0
 23 25  1  0  0  0  0
 24 26  1  6  0  0  0
 24 25  1  0  0  0  0
 26 27  1  0  0  0  0
 29 28  1  1  0  0  0
 29 30  1  0  0  0  0
 29 27  1  0  0  0  0
M  END
>  <MODEL>
3

>  <REMARK>
 VINA RESULT:      -5.6      3.466      7.685
  Name = 
  21 active torsions:
  status: ('A' for Active; 'I' for Inactive)
    1  A    between atoms: C_1  and  C_4
    2  A    between atoms: C_1  and  C_8
    3  A    between atoms: C_2  and  C_18
    4  A    between atoms: C_3  and  C_11
    5  A    between atoms: C_3  and  C_19
    6  A    between atoms: C_3  and  C_25
    7  A    between atoms: C_4  and  C_13
    8  A    between atoms: C_5  and  S_9
    9  A    between atoms: C_5  and  C_12
   10  A    between atoms: C_7  and  C_16
   11  A    between atoms: C_7  and  C_26
   12  A    between atoms: S_9  and  C_17
   13  A    between atoms: O_10  and  C_15
   14  A    between atoms: O_10  and  C_25
   15  A    between atoms: C_13  and  C_27
   16  A    between atoms: C_15  and  C_26
   17  A    between atoms: C_16  and  C_30
   18  A    between atoms: C_18  and  C_20
   19  A    between atoms: C_18  and  C_22
   20  A    between atoms: C_19  and  C_20
   21  A    between atoms: C_27  and  C_30
                            x       y       z     vdW  Elec       q    Type
                         _______ _______ _______ _____ _____    ______ ____

>  <TORSDO>
F 21

$$$$
=
 OpenBabel10272413563D

 30 30  0  0  1  0  0  0  0  0999 V2000
  186.3670  178.9860  147.0660 C   0  0  0  0  0  2  0  0  0  0  0  0
  187.3170  178.1290  147.8870 C   0  0  0  0  0  2  0  0  0  0  0  0
  188.2100  177.3070  146.9750 C   0  0  0  0  0  2  0  0  0  0  0  0
  189.3980  176.9820  147.6350 O   0  0  0  0  0  0  0  0  0  0  0  0
  190.4080  177.5250  146.8350 C   0  0  0  0  0  2  0  0  0  0  0  0
  190.7250  176.6180  145.6410 C   0  0  2  0  0  3  0  0  0  0  0  0
  191.9530  175.7980  145.8780 C   0  0  0  0  0  3  0  0  0  0  0  0
  192.4520  175.7400  146.9910 O   0  0  0  0  0  0  0  0  0  0  0  0
  190.8070  177.3590  144.3000 C   0  0  2  0  0  3  0  0  0  0  0  0
  191.0130  178.7290  144.4910 O   0  0  0  0  0  1  0  0  0  0  0  0
  189.5580  177.1220  143.4600 C   0  0  0  0  0  2  0  0  0  0  0  0
  189.9080  176.8780  141.9940 C   0  0  2  0  0  3  0  0  0  0  0  0
  191.2330  177.5230  141.5880 C   0  0  0  0  0  2  0  0  0  0  0  0
  191.5920  177.1560  140.2890 O   0  0  0  0  0  1  0  0  0  0  0  0
  188.7870  177.3150  141.1000 C   0  0  0  0  0  3  0  0  0  0  0  0
  188.6730  178.4810  140.7540 O   0  0  0  0  0  0  0  0  0  0  0  0
  185.5920  178.1200  146.0880 C   0  0  0  0  0  2  0  0  0  0  0  0
  184.2300  178.7220  145.7960 C   0  0  0  0  0  2  0  0  0  0  0  0
  184.2890  179.4620  144.4740 C   0  0  0  0  0  2  0  0  0  0  0  0
  183.9830  178.5280  143.3100 C   0  0  0  0  0  2  0  0  0  0  0  0
  185.2400  178.1550  142.5250 C   0  0  0  0  0  2  0  0  0  0  0  0
  185.4980  179.1060  141.3630 C   0  0  0  0  0  2  0  0  0  0  0  0
  184.5220  178.8630  140.2270 C   0  0  2  0  0  3  0  0  0  0  0  0
  185.2740  178.6200  138.9800 C   0  0  2  0  0  3  0  0  0  0  0  0
  184.6810  179.8650  139.2530 O   0  0  0  0  0  0  0  0  0  0  0  0
  184.4090  177.8580  137.9970 C   0  0  0  0  0  2  0  0  0  0  0  0
  185.4420  177.1110  136.7010 S   0  0  0  0  0  0  0  0  0  0  0  0
  187.6810  176.3090  137.8270 O   0  0  0  0  0  1  0  0  0  0  0  0
  186.9900  177.4930  137.5740 C   0  0  1  0  0  3  0  0  0  0  0  0
  188.0150  178.5790  136.5440 S   0  0  0  0  0  1  0  0  0  0  0  0
  1  2  1  0  0  0  0
  3  4  1  0  0  0  0
  3  2  1  0  0  0  0
  5  4  1  0  0  0  0
  6  7  1  1  0  0  0
  6  5  1  0  0  0  0
  7  8  2  0  0  0  0
  9 10  1  1  0  0  0
  9  6  1  0  0  0  0
 11  9  1  0  0  0  0
 12 15  1  6  0  0  0
 12 11  1  0  0  0  0
 13 12  1  0  0  0  0
 14 13  1  0  0  0  0
 16 15  2  0  0  0  0
 17  1  1  0  0  0  0
 18 17  1  0  0  0  0
 19 18  1  0  0  0  0
 20 19  1  0  0  0  0
 21 20  1  0  0  0  0
 22 21  1  0  0  0  0
 23 22  1  1  0  0  0
 24 26  1  6  0  0  0
 24 25  1  0  0  0  0
 24 23  1  0  0  0  0
 25 23  1  0  0  0  0
 27 29  1  0  0  0  0
 27 26  1  0  0  0  0
 29 30  1  6  0  0  0
 29 28  1  0  0  0  0
M  END
>  <MODEL>
4

>  <REMARK>
 VINA RESULT:      -5.6      1.652      3.723
  Name = 
  21 active torsions:
  status: ('A' for Active; 'I' for Inactive)
    1  A    between atoms: C_1  and  C_4
    2  A    between atoms: C_1  and  C_8
    3  A    between atoms: C_2  and  C_18
    4  A    between atoms: C_3  and  C_11
    5  A    between atoms: C_3  and  C_19
    6  A    between atoms: C_3  and  C_25
    7  A    between atoms: C_4  and  C_13
    8  A    between atoms: C_5  and  S_9
    9  A    between atoms: C_5  and  C_12
   10  A    between atoms: C_7  and  C_16
   11  A    between atoms: C_7  and  C_26
   12  A    between atoms: S_9  and  C_17
   13  A    between atoms: O_10  and  C_15
   14  A    between atoms: O_10  and  C_25
   15  A    between atoms: C_13  and  C_27
   16  A    between atoms: C_15  and  C_26
   17  A    between atoms: C_16  and  C_30
   18  A    between atoms: C_18  and  C_20
   19  A    between atoms: C_18  and  C_22
   20  A    between atoms: C_19  and  C_20
   21  A    between atoms: C_27  and  C_30
                            x       y       z     vdW  Elec       q    Type
                         _______ _______ _______ _____ _____    ______ ____

>  <TORSDO>
F 21

$$$$
=
 OpenBabel10272413563D

 30 30  0  0  1  0  0  0  0  0999 V2000
  184.8310  178.3230  143.8110 C   0  0  0  0  0  2  0  0  0  0  0  0
  184.2650  179.1350  144.9650 C   0  0  0  0  0  2  0  0  0  0  0  0
  184.8300  178.6410  146.2860 C   0  0  0  0  0  2  0  0  0  0  0  0
  186.2220  178.7620  146.2850 O   0  0  0  0  0  0  0  0  0  0  0  0
  186.6560  177.8620  147.2640 C   0  0  0  0  0  2  0  0  0  0  0  0
  188.0440  177.3030  146.9340 C   0  0  2  0  0  3  0  0  0  0  0  0
  189.0430  177.6410  147.9960 C   0  0  0  0  0  3  0  0  0  0  0  0
  188.7840  178.4790  148.8450 O   0  0  0  0  0  0  0  0  0  0  0  0
  188.5610  177.6970  145.5450 C   0  0  2  0  0  3  0  0  0  0  0  0
  188.0280  176.8690  144.5530 O   0  0  0  0  0  1  0  0  0  0  0  0
  190.0840  177.6710  145.4960 C   0  0  0  0  0  2  0  0  0  0  0  0
  190.5930  177.3600  144.0900 C   0  0  2  0  0  3  0  0  0  0  0  0
  191.4940  176.1260  144.0470 C   0  0  0  0  0  2  0  0  0  0  0  0
  191.9230  175.7730  145.3280 O   0  0  0  0  0  1  0  0  0  0  0  0
  191.2720  178.5560  143.4930 C   0  0  0  0  0  3  0  0  0  0  0  0
  191.0250  179.6860  143.8880 O   0  0  0  0  0  0  0  0  0  0  0  0
  185.2590  179.2440  142.6820 C   0  0  0  0  0  2  0  0  0  0  0  0
  185.1250  178.5510  141.3390 C   0  0  0  0  0  2  0  0  0  0  0  0
  186.4270  178.6970  140.5740 C   0  0  0  0  0  2  0  0  0  0  0  0
  187.6260  178.4790  141.4880 C   0  0  0  0  0  2  0  0  0  0  0  0
  188.7200  177.6510  140.8150 C   0  0  0  0  0  2  0  0  0  0  0  0
  188.8170  177.9280  139.3200 C   0  0  0  0  0  2  0  0  0  0  0  0
  189.2390  176.6860  138.5570 C   0  0  2  0  0  3  0  0  0  0  0  0
  190.4020  177.0080  137.7070 C   0  0  2  0  0  3  0  0  0  0  0  0
  189.1030  176.9190  137.1770 O   0  0  0  0  0  0  0  0  0  0  0  0
  191.1660  175.7400  137.3780 C   0  0  0  0  0  2  0  0  0  0  0  0
  192.0050  175.9130  135.7760 S   0  0  0  0  0  0  0  0  0  0  0  0
  193.9060  176.8530  137.3340 O   0  0  0  0  0  1  0  0  0  0  0  0
  193.6600  175.7550  136.5110 C   0  0  1  0  0  3  0  0  0  0  0  0
  193.7430  174.2340  137.4970 S   0  0  0  0  0  1  0  0  0  0  0  0
  1  2  1  0  0  0  0
  2  3  1  0  0  0  0
  4  3  1  0  0  0  0
  4  5  1  0  0  0  0
  6  5  1  1  0  0  0
  6  7  1  0  0  0  0
  7  8  2  0  0  0  0
  9 10  1  6  0  0  0
  9  6  1  0  0  0  0
 11  9  1  0  0  0  0
 12 15  1  1  0  0  0
 12 11  1  0  0  0  0
 13 12  1  0  0  0  0
 13 14  1  0  0  0  0
 15 16  2  0  0  0  0
 17  1  1  0  0  0  0
 18 17  1  0  0  0  0
 19 18  1  0  0  0  0
 19 20  1  0  0  0  0
 21 20  1  0  0  0  0
 22 21  1  0  0  0  0
 23 22  1  1  0  0  0
 24 26  1  6  0  0  0
 24 23  1  0  0  0  0
 25 24  1  0  0  0  0
 25 23  1  0  0  0  0
 27 29  1  0  0  0  0
 27 26  1  0  0  0  0
 29 28  1  1  0  0  0
 29 30  1  0  0  0  0
M  END
>  <MODEL>
5

>  <REMARK>
 VINA RESULT:      -5.5      2.141      3.888
  Name = 
  21 active torsions:
  status: ('A' for Active; 'I' for Inactive)
    1  A    between atoms: C_1  and  C_4
    2  A    between atoms: C_1  and  C_8
    3  A    between atoms: C_2  and  C_18
    4  A    between atoms: C_3  and  C_11
    5  A    between atoms: C_3  and  C_19
    6  A    between atoms: C_3  and  C_25
    7  A    between atoms: C_4  and  C_13
    8  A    between atoms: C_5  and  S_9
    9  A    between atoms: C_5  and  C_12
   10  A    between atoms: C_7  and  C_16
   11  A    between atoms: C_7  and  C_26
   12  A    between atoms: S_9  and  C_17
   13  A    between atoms: O_10  and  C_15
   14  A    between atoms: O_10  and  C_25
   15  A    between atoms: C_13  and  C_27
   16  A    between atoms: C_15  and  C_26
   17  A    between atoms: C_16  and  C_30
   18  A    between atoms: C_18  and  C_20
   19  A    between atoms: C_18  and  C_22
   20  A    between atoms: C_19  and  C_20
   21  A    between atoms: C_27  and  C_30
                            x       y       z     vdW  Elec       q    Type
                         _______ _______ _______ _____ _____    ______ ____

>  <TORSDO>
F 21

$$$$
=
 OpenBabel10272413563D

 30 30  0  0  1  0  0  0  0  0999 V2000
  186.1170  178.0150  145.0500 C   0  0  0  0  0  2  0  0  0  0  0  0
  184.9770  178.4250  144.1320 C   0  0  0  0  0  2  0  0  0  0  0  0
  183.8550  179.0600  144.9350 C   0  0  0  0  0  2  0  0  0  0  0  0
  182.9630  179.7120  144.0790 O   0  0  0  0  0  0  0  0  0  0  0  0
  182.6570  178.7640  143.0980 C   0  0  0  0  0  2  0  0  0  0  0  0
  181.3950  179.1530  142.3190 C   0  0  2  0  0  3  0  0  0  0  0  0
  180.1500  178.8070  143.0730 C   0  0  0  0  0  3  0  0  0  0  0  0
  180.2060  178.1060  144.0720 O   0  0  0  0  0  0  0  0  0  0  0  0
  181.3470  178.5950  140.8910 C   0  0  2  0  0  3  0  0  0  0  0  0
  180.4060  177.5680  140.7800 O   0  0  0  0  0  1  0  0  0  0  0  0
  182.7200  178.1090  140.4420 C   0  0  0  0  0  2  0  0  0  0  0  0
  183.1070  178.6970  139.0870 C   0  0  2  0  0  3  0  0  0  0  0  0
  184.5490  179.2020  139.0520 C   0  0  0  0  0  2  0  0  0  0  0  0
  184.9810  179.5730  140.3280 O   0  0  0  0  0  1  0  0  0  0  0  0
  182.1400  179.7650  138.6760 C   0  0  0  0  0  3  0  0  0  0  0  0
  181.5280  179.6930  137.6210 O   0  0  0  0  0  0  0  0  0  0  0  0
  186.0230  178.7600  146.3690 C   0  0  0  0  0  2  0  0  0  0  0  0
  187.0900  178.2840  147.3370 C   0  0  0  0  0  2  0  0  0  0  0  0
  187.9300  177.2170  146.6620 C   0  0  0  0  0  2  0  0  0  0  0  0
  189.3870  177.6500  146.5630 C   0  0  0  0  0  2  0  0  0  0  0  0
  189.7430  178.1620  145.1670 C   0  0  0  0  0  2  0  0  0  0  0  0
  189.7300  177.0520  144.1240 C   0  0  0  0  0  2  0  0  0  0  0  0
  189.8990  177.6110  142.7240 C   0  0  2  0  0  3  0  0  0  0  0  0
  188.7490  177.2020  141.8930 C   0  0  2  0  0  3  0  0  0  0  0  0
  189.9920  176.5490  141.8060 O   0  0  0  0  0  0  0  0  0  0  0  0
  188.5980  178.1490  140.7200 C   0  0  0  0  0  2  0  0  0  0  0  0
  189.2920  177.4010  139.2160 S   0  0  0  0  0  0  0  0  0  0  0  0
  188.9190  179.4010  137.5460 O   0  0  0  0  0  1  0  0  0  0  0  0
  188.2000  178.3520  138.1170 C   0  0  1  0  0  3  0  0  0  0  0  0
  187.5690  177.2700  136.8040 S   0  0  0  0  0  1  0  0  0  0  0  0
  1 17  1  0  0  0  0
  2  3  1  0  0  0  0
  2  1  1  0  0  0  0
  4  3  1  0  0  0  0
  5  4  1  0  0  0  0
  6  7  1  1  0  0  0
  6  5  1  0  0  0  0
  7  8  2  0  0  0  0
  9 10  1  1  0  0  0
  9  6  1  0  0  0  0
 11  9  1  0  0  0  0
 12 15  1  1  0  0  0
 12 11  1  0  0  0  0
 13 12  1  0  0  0  0
 13 14  1  0  0  0  0
 16 15  2  0  0  0  0
 17 18  1  0  0  0  0
 19 18  1  0  0  0  0
 20 19  1  0  0  0  0
 21 20  1  0  0  0  0
 22 21  1  0  0  0  0
 23 22  1  1  0  0  0
 24 26  1  6  0  0  0
 24 23  1  0  0  0  0
 25 24  1  0  0  0  0
 25 23  1  0  0  0  0
 27 26  1  0  0  0  0
 28 29  1  0  0  0  0
 29 30  1  6  0  0  0
 29 27  1  0  0  0  0
M  END
>  <MODEL>
6

>  <REMARK>
 VINA RESULT:      -5.5      2.977      7.631
  Name = 
  21 active torsions:
  status: ('A' for Active; 'I' for Inactive)
    1  A    between atoms: C_1  and  C_4
    2  A    between atoms: C_1  and  C_8
    3  A    between atoms: C_2  and  C_18
    4  A    between atoms: C_3  and  C_11
    5  A    between atoms: C_3  and  C_19
    6  A    between atoms: C_3  and  C_25
    7  A    between atoms: C_4  and  C_13
    8  A    between atoms: C_5  and  S_9
    9  A    between atoms: C_5  and  C_12
   10  A    between atoms: C_7  and  C_16
   11  A    between atoms: C_7  and  C_26
   12  A    between atoms: S_9  and  C_17
   13  A    between atoms: O_10  and  C_15
   14  A    between atoms: O_10  and  C_25
   15  A    between atoms: C_13  and  C_27
   16  A    between atoms: C_15  and  C_26
   17  A    between atoms: C_16  and  C_30
   18  A    between atoms: C_18  and  C_20
   19  A    between atoms: C_18  and  C_22
   20  A    between atoms: C_19  and  C_20
   21  A    between atoms: C_27  and  C_30
                            x       y       z     vdW  Elec       q    Type
                         _______ _______ _______ _____ _____    ______ ____

>  <TORSDO>
F 21

$$$$
=
 OpenBabel10272413563D

 30 30  0  0  1  0  0  0  0  0999 V2000
  187.2990  177.7590  146.6730 C   0  0  0  0  0  2  0  0  0  0  0  0
  186.1140  178.5810  147.1550 C   0  0  0  0  0  2  0  0  0  0  0  0
  185.0610  178.6790  146.0650 C   0  0  0  0  0  2  0  0  0  0  0  0
  185.6650  178.9860  144.8430 O   0  0  0  0  0  0  0  0  0  0  0  0
  185.0190  178.1660  143.9130 C   0  0  0  0  0  2  0  0  0  0  0  0
  184.5050  178.9730  142.7160 C   0  0  2  0  0  3  0  0  0  0  0  0
  183.0110  178.9610  142.6400 C   0  0  0  0  0  3  0  0  0  0  0  0
  182.3420  178.8130  143.6500 O   0  0  0  0  0  0  0  0  0  0  0  0
  185.1290  178.5650  141.3750 C   0  0  2  0  0  3  0  0  0  0  0  0
  186.5130  178.7590  141.3810 O   0  0  0  0  0  1  0  0  0  0  0  0
  184.4920  179.3240  140.2170 C   0  0  0  0  0  2  0  0  0  0  0  0
  184.1490  178.3900  139.0580 C   0  0  2  0  0  3  0  0  0  0  0  0
  183.3780  177.1490  139.5080 C   0  0  0  0  0  2  0  0  0  0  0  0
  183.0150  176.3600  138.4140 O   0  0  0  0  0  1  0  0  0  0  0  0
  185.3820  178.0210  138.2890 C   0  0  0  0  0  3  0  0  0  0  0  0
  186.2530  178.8450  138.0580 O   0  0  0  0  0  0  0  0  0  0  0  0
  188.2130  177.4230  147.8380 C   0  0  0  0  0  2  0  0  0  0  0  0
  189.6670  177.4340  147.4050 C   0  0  0  0  0  2  0  0  0  0  0  0
  189.7430  177.1510  145.9170 C   0  0  0  0  0  2  0  0  0  0  0  0
  191.1810  177.2190  145.4200 C   0  0  0  0  0  2  0  0  0  0  0  0
  191.3520  178.2290  144.2860 C   0  0  0  0  0  2  0  0  0  0  0  0
  190.3430  178.0150  143.1650 C   0  0  0  0  0  2  0  0  0  0  0  0
  190.9180  177.1380  142.0690 C   0  0  2  0  0  3  0  0  0  0  0  0
  189.9250  176.9970  140.9860 C   0  0  2  0  0  3  0  0  0  0  0  0
  190.1300  175.9810  141.9360 O   0  0  0  0  0  0  0  0  0  0  0  0
  190.6210  176.6220  139.6930 C   0  0  0  0  0  2  0  0  0  0  0  0
  189.4170  176.5360  138.3340 S   0  0  0  0  0  0  0  0  0  0  0  0
  191.5210  174.9680  138.1370 O   0  0  0  0  0  1  0  0  0  0  0  0
  190.4430  175.3950  137.3620 C   0  0  1  0  0  3  0  0  0  0  0  0
  189.4520  173.9580  136.8680 S   0  0  0  0  0  1  0  0  0  0  0  0
  1  2  1  0  0  0  0
  1 17  1  0  0  0  0
  3  2  1  0  0  0  0
  4  3  1  0  0  0  0
  5  4  1  0  0  0  0
  6  7  1  6  0  0  0
  6  5  1  0  0  0  0
  7  8  2  0  0  0  0
  9 10  1  1  0  0  0
  9  6  1  0  0  0  0
 11  9  1  0  0  0  0
 12 15  1  1  0  0  0
 12 13  1  0  0  0  0
 12 11  1  0  0  0  0
 14 13  1  0  0  0  0
 16 15  2  0  0  0  0
 18 17  1  0  0  0  0
 19 18  1  0  0  0  0
 20 19  1  0  0  0  0
 21 20  1  0  0  0  0
 22 21  1  0  0  0  0
 23 22  1  1  0  0  0
 24 26  1  6  0  0  0
 24 25  1  0  0  0  0
 24 23  1  0  0  0  0
 25 23  1  0  0  0  0
 27 26  1  0  0  0  0
 29 30  1  1  0  0  0
 29 28  1  0  0  0  0
 29 27  1  0  0  0  0
M  END
>  <MODEL>
7

>  <REMARK>
 VINA RESULT:      -5.5      2.223      6.811
  Name = 
  21 active torsions:
  status: ('A' for Active; 'I' for Inactive)
    1  A    between atoms: C_1  and  C_4
    2  A    between atoms: C_1  and  C_8
    3  A    between atoms: C_2  and  C_18
    4  A    between atoms: C_3  and  C_11
    5  A    between atoms: C_3  and  C_19
    6  A    between atoms: C_3  and  C_25
    7  A    between atoms: C_4  and  C_13
    8  A    between atoms: C_5  and  S_9
    9  A    between atoms: C_5  and  C_12
   10  A    between atoms: C_7  and  C_16
   11  A    between atoms: C_7  and  C_26
   12  A    between atoms: S_9  and  C_17
   13  A    between atoms: O_10  and  C_15
   14  A    between atoms: O_10  and  C_25
   15  A    between atoms: C_13  and  C_27
   16  A    between atoms: C_15  and  C_26
   17  A    between atoms: C_16  and  C_30
   18  A    between atoms: C_18  and  C_20
   19  A    between atoms: C_18  and  C_22
   20  A    between atoms: C_19  and  C_20
   21  A    between atoms: C_27  and  C_30
                            x       y       z     vdW  Elec       q    Type
                         _______ _______ _______ _____ _____    ______ ____

>  <TORSDO>
F 21

$$$$
=
 OpenBabel10272413563D

 30 30  0  0  1  0  0  0  0  0999 V2000
  185.2220  178.4160  144.0510 C   0  0  0  0  0  2  0  0  0  0  0  0
  184.7860  179.2970  142.8910 C   0  0  0  0  0  2  0  0  0  0  0  0
  185.7410  179.1400  141.7210 C   0  0  0  0  0  2  0  0  0  0  0  0
  185.1620  179.6530  140.5580 O   0  0  0  0  0  0  0  0  0  0  0  0
  184.1730  178.7260  140.2160 C   0  0  0  0  0  2  0  0  0  0  0  0
  183.7400  178.8830  138.7540 C   0  0  2  0  0  3  0  0  0  0  0  0
  182.2740  179.1620  138.6390 C   0  0  0  0  0  3  0  0  0  0  0  0
  181.7360  179.9610  139.3880 O   0  0  0  0  0  0  0  0  0  0  0  0
  184.1510  177.7130  137.8520 C   0  0  2  0  0  3  0  0  0  0  0  0
  183.6170  176.5060  138.3130 O   0  0  0  0  0  1  0  0  0  0  0  0
  185.6680  177.6120  137.7370 C   0  0  0  0  0  2  0  0  0  0  0  0
  186.0810  176.7020  136.5820 C   0  0  2  0  0  3  0  0  0  0  0  0
  186.9940  175.5600  137.0280 C   0  0  0  0  0  2  0  0  0  0  0  0
  188.0710  176.0410  137.7750 O   0  0  0  0  0  1  0  0  0  0  0  0
  186.7000  177.4980  135.4730 C   0  0  0  0  0  3  0  0  0  0  0  0
  187.1880  178.5980  135.6800 O   0  0  0  0  0  0  0  0  0  0  0  0
  184.4910  178.8180  145.3200 C   0  0  0  0  0  2  0  0  0  0  0  0
  185.4070  178.7230  146.5250 C   0  0  0  0  0  2  0  0  0  0  0  0
  186.3910  177.5880  146.3110 C   0  0  0  0  0  2  0  0  0  0  0  0
  187.7990  178.0000  146.7200 C   0  0  0  0  0  2  0  0  0  0  0  0
  188.4070  177.0400  147.7420 C   0  0  0  0  0  2  0  0  0  0  0  0
  189.7300  176.4540  147.2680 C   0  0  0  0  0  2  0  0  0  0  0  0
  190.5260  177.4700  146.4700 C   0  0  2  0  0  3  0  0  0  0  0  0
  191.1470  176.8010  145.3090 C   0  0  2  0  0  3  0  0  0  0  0  0
  191.8840  177.1010  146.4690 O   0  0  0  0  0  0  0  0  0  0  0  0
  191.4650  177.8220  144.2350 C   0  0  0  0  0  2  0  0  0  0  0  0
  191.2130  177.0970  142.5880 S   0  0  0  0  0  0  0  0  0  0  0  0
  189.2150  177.9620  141.1100 O   0  0  0  0  0  1  0  0  0  0  0  0
  189.5190  177.7400  142.4520 C   0  0  1  0  0  3  0  0  0  0  0  0
  188.3540  176.5300  143.1400 S   0  0  0  0  0  1  0  0  0  0  0  0
  1 17  1  0  0  0  0
  2  1  1  0  0  0  0
  3  2  1  0  0  0  0
  4  3  1  0  0  0  0
  5  4  1  0  0  0  0
  6  7  1  1  0  0  0
  6  5  1  0  0  0  0
  7  8  2  0  0  0  0
  9 10  1  1  0  0  0
  9  6  1  0  0  0  0
 11  9  1  0  0  0  0
 12 15  1  6  0  0  0
 12 13  1  0  0  0  0
 12 11  1  0  0  0  0
 13 14  1  0  0  0  0
 15 16  2  0  0  0  0
 17 18  1  0  0  0  0
 19 18  1  0  0  0  0
 19 20  1  0  0  0  0
 20 21  1  0  0  0  0
 22 21  1  0  0  0  0
 23 22  1  1  0  0  0
 24 26  1  6  0  0  0
 24 25  1  0  0  0  0
 24 23  1  0  0  0  0
 25 23  1  0  0  0  0
 27 26  1  0  0  0  0
 29 28  1  6  0  0  0
 29 27  1  0  0  0  0
 29 30  1  0  0  0  0
M  END
>  <MODEL>
8

>  <REMARK>
 VINA RESULT:      -5.5      2.550      8.106
  Name = 
  21 active torsions:
  status: ('A' for Active; 'I' for Inactive)
    1  A    between atoms: C_1  and  C_4
    2  A    between atoms: C_1  and  C_8
    3  A    between atoms: C_2  and  C_18
    4  A    between atoms: C_3  and  C_11
    5  A    between atoms: C_3  and  C_19
    6  A    between atoms: C_3  and  C_25
    7  A    between atoms: C_4  and  C_13
    8  A    between atoms: C_5  and  S_9
    9  A    between atoms: C_5  and  C_12
   10  A    between atoms: C_7  and  C_16
   11  A    between atoms: C_7  and  C_26
   12  A    between atoms: S_9  and  C_17
   13  A    between atoms: O_10  and  C_15
   14  A    between atoms: O_10  and  C_25
   15  A    between atoms: C_13  and  C_27
   16  A    between atoms: C_15  and  C_26
   17  A    between atoms: C_16  and  C_30
   18  A    between atoms: C_18  and  C_20
   19  A    between atoms: C_18  and  C_22
   20  A    between atoms: C_19  and  C_20
   21  A    between atoms: C_27  and  C_30
                            x       y       z     vdW  Elec       q    Type
                         _______ _______ _______ _____ _____    ______ ____

>  <TORSDO>
F 21

$$$$
=
 OpenBabel10272413563D

 30 30  0  0  1  0  0  0  0  0999 V2000
  186.6780  178.5660  142.4270 C   0  0  0  0  0  2  0  0  0  0  0  0
  187.6760  177.4310  142.5810 C   0  0  0  0  0  2  0  0  0  0  0  0
  188.9290  177.7150  141.7710 C   0  0  0  0  0  2  0  0  0  0  0  0
  188.7730  177.2430  140.4660 O   0  0  0  0  0  0  0  0  0  0  0  0
  189.7190  177.9500  139.7180 C   0  0  0  0  0  2  0  0  0  0  0  0
  189.2990  178.0630  138.2480 C   0  0  2  0  0  3  0  0  0  0  0  0
  187.8250  177.8690  138.0770 C   0  0  0  0  0  3  0  0  0  0  0  0
  187.0400  178.7170  138.4710 O   0  0  0  0  0  0  0  0  0  0  0  0
  190.0890  177.1510  137.3020 C   0  0  2  0  0  3  0  0  0  0  0  0
  189.4930  177.0950  136.0380 O   0  0  0  0  0  1  0  0  0  0  0  0
  190.2370  175.7490  137.8820 C   0  0  0  0  0  2  0  0  0  0  0  0
  191.7050  175.3630  138.0420 C   0  0  2  0  0  3  0  0  0  0  0  0
  192.6570  176.5190  137.7400 C   0  0  0  0  0  2  0  0  0  0  0  0
  193.6730  176.5950  138.6950 O   0  0  0  0  0  1  0  0  0  0  0  0
  192.0300  174.1540  137.2170 C   0  0  0  0  0  3  0  0  0  0  0  0
  191.1650  173.5700  136.5830 O   0  0  0  0  0  0  0  0  0  0  0  0
  185.2590  178.0260  142.4610 C   0  0  0  0  0  2  0  0  0  0  0  0
  184.2580  179.1480  142.6660 C   0  0  0  0  0  2  0  0  0  0  0  0
  184.4450  179.7310  144.0530 C   0  0  0  0  0  2  0  0  0  0  0  0
  183.9370  178.7730  145.1220 C   0  0  0  0  0  2  0  0  0  0  0  0
  184.9170  178.6360  146.2870 C   0  0  0  0  0  2  0  0  0  0  0  0
  186.0580  177.6770  145.9720 C   0  0  0  0  0  2  0  0  0  0  0  0
  187.4000  178.2790  146.3420 C   0  0  2  0  0  3  0  0  0  0  0  0
  188.4350  177.2270  146.3000 C   0  0  2  0  0  3  0  0  0  0  0  0
  187.8790  177.6660  147.5140 O   0  0  0  0  0  0  0  0  0  0  0  0
  189.8020  177.8560  146.1180 C   0  0  0  0  0  2  0  0  0  0  0  0
  191.1030  176.6130  146.3760 S   0  0  0  0  0  0  0  0  0  0  0  0
  190.9150  175.8500  143.8650 O   0  0  0  0  0  1  0  0  0  0  0  0
  191.6780  176.7090  144.6550 C   0  0  1  0  0  3  0  0  0  0  0  0
  191.4920  178.4080  144.0470 S   0  0  0  0  0  1  0  0  0  0  0  0
  1 17  1  0  0  0  0
  1  2  1  0  0  0  0
  3  2  1  0  0  0  0
  4  3  1  0  0  0  0
  5  4  1  0  0  0  0
  6  7  1  1  0  0  0
  6  5  1  0  0  0  0
  7  8  2  0  0  0  0
  9 10  1  6  0  0  0
  9 11  1  0  0  0  0
  9  6  1  0  0  0  0
 11 12  1  0  0  0  0
 12 15  1  6  0  0  0
 13 12  1  0  0  0  0
 13 14  1  0  0  0  0
 16 15  2  0  0  0  0
 17 18  1  0  0  0  0
 18 19  1  0  0  0  0
 19 20  1  0  0  0  0
 20 21  1  0  0  0  0
 22 21  1  0  0  0  0
 23 22  1  6  0  0  0
 23 25  1  0  0  0  0
 24 26  1  1  0  0  0
 24 23  1  0  0  0  0
 24 25  1  0  0  0  0
 26 27  1  0  0  0  0
 29 28  1  6  0  0  0
 29 27  1  0  0  0  0
 30 29  1  0  0  0  0
M  END
>  <MODEL>
9

>  <REMARK>
 VINA RESULT:      -5.4      3.078      7.168
  Name = 
  21 active torsions:
  status: ('A' for Active; 'I' for Inactive)
    1  A    between atoms: C_1  and  C_4
    2  A    between atoms: C_1  and  C_8
    3  A    between atoms: C_2  and  C_18
    4  A    between atoms: C_3  and  C_11
    5  A    between atoms: C_3  and  C_19
    6  A    between atoms: C_3  and  C_25
    7  A    between atoms: C_4  and  C_13
    8  A    between atoms: C_5  and  S_9
    9  A    between atoms: C_5  and  C_12
   10  A    between atoms: C_7  and  C_16
   11  A    between atoms: C_7  and  C_26
   12  A    between atoms: S_9  and  C_17
   13  A    between atoms: O_10  and  C_15
   14  A    between atoms: O_10  and  C_25
   15  A    between atoms: C_13  and  C_27
   16  A    between atoms: C_15  and  C_26
   17  A    between atoms: C_16  and  C_30
   18  A    between atoms: C_18  and  C_20
   19  A    between atoms: C_18  and  C_22
   20  A    between atoms: C_19  and  C_20
   21  A    between atoms: C_27  and  C_30
                            x       y       z     vdW  Elec       q    Type
                         _______ _______ _______ _____ _____    ______ ____

>  <TORSDO>
F 21

$$$$
