=
 OpenBabel10272415053D

 37 40  0  0  1  0  0  0  0  0999 V2000
  189.3990  178.2410  137.3580 C   0  0  0  0  0  2  0  0  0  0  0  0
  188.2270  177.3350  139.4840 C   0  0  2  0  0  3  0  0  0  0  0  0
  186.2370  177.8750  137.1520 C   0  0  0  0  0  0  0  0  0  0  0  0
  188.8480  177.0270  138.1080 C   0  0  2  0  0  3  0  0  0  0  0  0
  188.3320  179.2810  137.0340 C   0  0  0  0  0  2  0  0  0  0  0  0
  186.9150  178.0800  139.5320 C   0  0  0  0  0  3  0  0  0  0  0  0
  187.1510  178.6810  136.2720 C   0  0  0  0  0  2  0  0  0  0  0  0
  185.3420  177.1020  136.5530 C   0  0  0  0  0  2  0  0  0  0  0  0
  186.0130  178.2690  138.5590 C   0  0  0  0  0  0  0  0  0  0  0  0
  190.1160  175.7420  138.2190 S   0  0  2  0  0  0  0  0  0  0  0  0
  191.4210  176.5070  138.0450 O   0  0  0  0  0  0  0  0  0  0  0  0
  189.9830  174.7490  136.7080 C   0  0  0  0  0  2  0  0  0  0  0  0
  188.4700  175.5720  134.9140 C   0  0  0  0  0  1  0  0  0  0  0  0
  188.5600  174.7220  136.1670 C   0  0  1  0  0  3  0  0  0  0  0  0
  188.1650  173.2850  135.8290 C   0  0  1  0  0  3  0  0  0  0  0  0
  186.1680  173.8120  137.3760 C   0  0  0  0  0  1  0  0  0  0  0  0
  188.1880  172.4210  137.0770 C   0  0  0  0  0  2  0  0  0  0  0  0
  186.8540  172.8030  136.4690 C   0  0  2  0  0  3  0  0  0  0  0  0
  184.7580  179.0010  138.9200 C   0  0  0  0  0  2  0  0  0  0  0  0
  183.7860  178.1160  139.6920 C   0  0  2  0  0  0  0  0  0  0  0  0
  182.8350  178.8880  140.5950 C   0  0  2  0  0  3  0  0  0  0  0  0
  183.9890  178.0850  141.1880 C   0  0  0  0  0  2  0  0  0  0  0  0
  183.2720  176.8230  139.0690 C   0  0  0  0  0  1  0  0  0  0  0  0
  180.6470  179.1720  140.7090 C   0  0  0  0  0  1  0  0  0  0  0  0
  181.6380  178.1930  140.7920 O   0  0  0  0  0  0  0  0  0  0  0  0
  189.2030  177.8120  140.5620 C   0  0  0  0  0  2  0  0  0  0  0  0
  188.5290  177.9990  141.9170 C   0  0  2  0  0  3  0  0  0  0  0  0
  189.2960  178.8870  142.6750 O   0  0  0  0  0  1  0  0  0  0  0  0
  188.3690  176.6640  142.6580 C   0  0  1  0  0  3  0  0  0  0  0  0
  190.0620  176.6070  144.5080 O   0  0  0  0  0  1  0  0  0  0  0  0
  189.6740  176.2090  143.2330 C   0  0  0  0  0  0  0  0  0  0  0  0
  190.3990  175.4170  142.5790 O   0  0  0  0  0  0  0  0  0  0  0  0
  187.3640  176.7790  143.7980 C   0  0  0  0  0  2  0  0  0  0  0  0
  186.4900  178.0070  143.6240 C   0  0  0  0  0  2  0  0  0  0  0  0
  185.6480  178.9470  145.7410 C   0  0  0  0  0  2  0  0  0  0  0  0
  184.6570  179.3030  144.6540 C   0  0  0  0  0  2  0  0  0  0  0  0
  185.3580  177.9590  144.6290 C   0  0  0  0  0  3  0  0  0  0  0  0
  1  4  1  0  0  0  0
  2  6  1  0  0  0  0
  2 26  1  1  0  0  0
  3  9  1  0  0  0  0
  4 10  1  1  0  0  0
  4  2  1  0  0  0  0
  5  1  1  0  0  0  0
  7  5  1  0  0  0  0
  7  3  1  0  0  0  0
  8  3  2  0  0  0  0
  9 19  1  0  0  0  0
  9  6  2  0  0  0  0
 10 11  2  6  0  0  0
 12 10  1  0  0  0  0
 14 13  1  6  0  0  0
 14 12  1  0  0  0  0
 15 14  1  1  0  0  0
 15 18  1  0  0  0  0
 15 17  1  0  0  0  0
 18 17  1  0  0  0  0
 18 16  1  1  0  0  0
 19 20  1  0  0  0  0
 20 23  1  6  0  0  0
 20 21  1  0  0  0  0
 20 22  1  0  0  0  0
 21 25  1  1  0  0  0
 21 22  1  0  0  0  0
 24 25  1  0  0  0  0
 26 27  1  0  0  0  0
 27 29  1  0  0  0  0
 27 28  1  1  0  0  0
 29 31  1  0  0  0  0
 29 33  1  1  0  0  0
 31 30  1  0  0  0  0
 32 31  2  0  0  0  0
 34 33  1  0  0  0  0
 34 37  1  0  0  0  0
 36 35  1  0  0  0  0
 37 36  1  0  0  0  0
 37 35  1  0  0  0  0
M  END
>  <MODEL>
1

>  <REMARK>
 VINA RESULT:      -6.1      0.000      0.000
  Name = 
  14 active torsions:
  status: ('A' for Active; 'I' for Inactive)
    1  A    between atoms: C_1  and  C_26
    2  A    between atoms: C_2  and  C_35
    3  A    between atoms: C_4  and  C_13
    4  A    between atoms: C_4  and  C_28
    5  A    between atoms: C_5  and  O_23
    6  A    between atoms: C_6  and  S_31
    7  A    between atoms: C_6  and  C_35
    8  A    between atoms: C_10  and  C_28
    9  A    between atoms: C_13  and  C_16
   10  A    between atoms: C_13  and  C_20
   11  A    between atoms: C_14  and  S_31
   12  A    between atoms: C_20  and  C_25
   13  A    between atoms: C_25  and  C_32
   14  A    between atoms: C_26  and  C_36
                            x       y       z     vdW  Elec       q    Type
                         _______ _______ _______ _____ _____    ______ ____

>  <TORSDO>
F 14

$$$$
=
 OpenBabel10272415053D

 37 40  0  0  1  0  0  0  0  0999 V2000
  189.2590  178.8160  137.8970 C   0  0  0  0  0  2  0  0  0  0  0  0
  187.5300  177.4150  139.2230 C   0  0  2  0  0  3  0  0  0  0  0  0
  188.3480  176.0800  136.5320 C   0  0  0  0  0  0  0  0  0  0  0  0
  189.0090  177.6680  138.8760 C   0  0  2  0  0  3  0  0  0  0  0  0
  188.6150  178.5920  136.5320 C   0  0  0  0  0  2  0  0  0  0  0  0
  186.6300  176.8310  138.1600 C   0  0  0  0  0  3  0  0  0  0  0  0
  189.0340  177.2630  135.9060 C   0  0  0  0  0  2  0  0  0  0  0  0
  188.8310  174.8780  136.2490 C   0  0  0  0  0  2  0  0  0  0  0  0
  186.9610  176.1950  137.0270 C   0  0  0  0  0  0  0  0  0  0  0  0
  190.0150  177.8940  140.3620 S   0  0  2  0  0  0  0  0  0  0  0  0
  191.4380  177.6520  139.8750 O   0  0  0  0  0  0  0  0  0  0  0  0
  189.6720  176.4790  141.4420 C   0  0  0  0  0  2  0  0  0  0  0  0
  188.0050  176.2920  143.2790 C   0  0  0  0  0  1  0  0  0  0  0  0
  189.3230  176.9150  142.8580 C   0  0  1  0  0  3  0  0  0  0  0  0
  190.4210  176.4650  143.8220 C   0  0  1  0  0  3  0  0  0  0  0  0
  190.8730  179.0010  143.9810 C   0  0  0  0  0  1  0  0  0  0  0  0
  191.7900  176.8190  143.2680 C   0  0  0  0  0  2  0  0  0  0  0  0
  191.2440  177.6010  144.4460 C   0  0  2  0  0  3  0  0  0  0  0  0
  185.8410  175.6610  136.1900 C   0  0  0  0  0  2  0  0  0  0  0  0
  185.0980  174.5290  136.8910 C   0  0  2  0  0  0  0  0  0  0  0  0
  183.7370  174.2170  136.2840 C   0  0  2  0  0  3  0  0  0  0  0  0
  183.8430  174.9380  137.6250 C   0  0  0  0  0  2  0  0  0  0  0  0
  185.8740  173.3720  137.5080 C   0  0  0  0  0  1  0  0  0  0  0  0
  183.1140  172.3810  135.2270 C   0  0  0  0  0  1  0  0  0  0  0  0
  183.3710  172.8860  136.5010 O   0  0  0  0  0  0  0  0  0  0  0  0
  186.8360  178.5180  140.0250 C   0  0  0  0  0  2  0  0  0  0  0  0
  185.3330  178.5640  139.7740 C   0  0  2  0  0  3  0  0  0  0  0  0
  185.0750  179.5450  138.8120 O   0  0  0  0  0  1  0  0  0  0  0  0
  184.5530  178.8630  141.0620 C   0  0  1  0  0  3  0  0  0  0  0  0
  182.1770  178.6600  141.8380 O   0  0  0  0  0  1  0  0  0  0  0  0
  183.2230  178.1790  141.0560 C   0  0  0  0  0  0  0  0  0  0  0  0
  183.0330  177.1940  140.2980 O   0  0  0  0  0  0  0  0  0  0  0  0
  185.3200  178.3980  142.2950 C   0  0  0  0  0  2  0  0  0  0  0  0
  185.1230  179.3630  143.4490 C   0  0  0  0  0  2  0  0  0  0  0  0
  185.9710  177.9630  145.2900 C   0  0  0  0  0  2  0  0  0  0  0  0
  185.3820  179.2160  145.9010 C   0  0  0  0  0  2  0  0  0  0  0  0
  184.7290  178.5860  144.6870 C   0  0  0  0  0  3  0  0  0  0  0  0
  1  4  1  0  0  0  0
  2 26  1  6  0  0  0
  3  9  1  0  0  0  0
  4  2  1  0  0  0  0
  4 10  1  1  0  0  0
  5  1  1  0  0  0  0
  6  2  1  0  0  0  0
  7  3  1  0  0  0  0
  7  5  1  0  0  0  0
  8  3  2  0  0  0  0
  9  6  2  0  0  0  0
 10 11  2  6  0  0  0
 10 12  1  0  0  0  0
 12 14  1  0  0  0  0
 14 13  1  1  0  0  0
 15 14  1  6  0  0  0
 15 18  1  0  0  0  0
 17 15  1  0  0  0  0
 17 18  1  0  0  0  0
 18 16  1  6  0  0  0
 19 20  1  0  0  0  0
 19  9  1  0  0  0  0
 20 23  1  1  0  0  0
 20 22  1  0  0  0  0
 21 25  1  1  0  0  0
 21 20  1  0  0  0  0
 21 22  1  0  0  0  0
 24 25  1  0  0  0  0
 27 28  1  6  0  0  0
 27 26  1  0  0  0  0
 27 29  1  0  0  0  0
 29 33  1  1  0  0  0
 31 29  1  0  0  0  0
 31 30  1  0  0  0  0
 32 31  2  0  0  0  0
 33 34  1  0  0  0  0
 34 37  1  0  0  0  0
 35 36  1  0  0  0  0
 37 35  1  0  0  0  0
 37 36  1  0  0  0  0
M  END
>  <MODEL>
2

>  <REMARK>
 VINA RESULT:      -6.0      2.135      5.434
  Name = 
  14 active torsions:
  status: ('A' for Active; 'I' for Inactive)
    1  A    between atoms: C_1  and  C_26
    2  A    between atoms: C_2  and  C_35
    3  A    between atoms: C_4  and  C_13
    4  A    between atoms: C_4  and  C_28
    5  A    between atoms: C_5  and  O_23
    6  A    between atoms: C_6  and  S_31
    7  A    between atoms: C_6  and  C_35
    8  A    between atoms: C_10  and  C_28
    9  A    between atoms: C_13  and  C_16
   10  A    between atoms: C_13  and  C_20
   11  A    between atoms: C_14  and  S_31
   12  A    between atoms: C_20  and  C_25
   13  A    between atoms: C_25  and  C_32
   14  A    between atoms: C_26  and  C_36
                            x       y       z     vdW  Elec       q    Type
                         _______ _______ _______ _____ _____    ______ ____

>  <TORSDO>
F 14

$$$$
=
 OpenBabel10272415053D

 37 40  0  0  1  0  0  0  0  0999 V2000
  189.2990  178.1840  137.9960 C   0  0  0  0  0  2  0  0  0  0  0  0
  187.0120  176.9700  137.9140 C   0  0  2  0  0  3  0  0  0  0  0  0
  189.3260  175.2540  136.7360 C   0  0  0  0  0  0  0  0  0  0  0  0
  188.3400  177.1960  138.6610 C   0  0  2  0  0  3  0  0  0  0  0  0
  189.7510  177.7400  136.6080 C   0  0  0  0  0  2  0  0  0  0  0  0
  187.0400  176.2130  136.6080 C   0  0  0  0  0  3  0  0  0  0  0  0
  190.3600  176.3390  136.6190 C   0  0  0  0  0  2  0  0  0  0  0  0
  189.7570  174.0320  137.0180 C   0  0  0  0  0  2  0  0  0  0  0  0
  187.9970  175.4160  136.1110 C   0  0  0  0  0  0  0  0  0  0  0  0
  188.0660  177.6670  140.3850 S   0  0  2  0  0  0  0  0  0  0  0  0
  188.2750  179.1760  140.3850 O   0  0  0  0  0  0  0  0  0  0  0  0
  189.4750  177.0270  141.3300 C   0  0  0  0  0  2  0  0  0  0  0  0
  188.0460  176.3810  143.2610 C   0  0  0  0  0  1  0  0  0  0  0  0
  189.2670  177.1720  142.8310 C   0  0  1  0  0  3  0  0  0  0  0  0
  190.4950  176.6450  143.5740 C   0  0  1  0  0  3  0  0  0  0  0  0
  190.9410  179.1580  143.9580 C   0  0  0  0  0  1  0  0  0  0  0  0
  191.7690  177.0940  142.8790 C   0  0  0  0  0  2  0  0  0  0  0  0
  191.3870  177.7250  144.2030 C   0  0  2  0  0  3  0  0  0  0  0  0
  187.7150  174.7380  134.8070 C   0  0  0  0  0  2  0  0  0  0  0  0
  186.4870  173.8390  134.8890 C   0  0  2  0  0  0  0  0  0  0  0  0
  186.4910  172.8970  136.0840 C   0  0  2  0  0  3  0  0  0  0  0  0
  186.7490  172.3660  134.6770 C   0  0  0  0  0  2  0  0  0  0  0  0
  185.1360  174.3440  134.3970 C   0  0  0  0  0  1  0  0  0  0  0  0
  185.1010  172.9940  137.7980 C   0  0  0  0  0  1  0  0  0  0  0  0
  185.1930  172.5590  136.4770 O   0  0  0  0  0  0  0  0  0  0  0  0
  186.0630  178.1700  137.8660 C   0  0  0  0  0  2  0  0  0  0  0  0
  184.7250  177.8820  138.5380 C   0  0  2  0  0  3  0  0  0  0  0  0
  183.7170  177.9790  137.5750 O   0  0  0  0  0  1  0  0  0  0  0  0
  184.4530  178.8530  139.6950 C   0  0  1  0  0  3  0  0  0  0  0  0
  183.2370  180.8620  138.8160 O   0  0  0  0  0  0  0  0  0  0  0  0
  183.1960  179.6310  139.4610 C   0  0  0  0  0  0  0  0  0  0  0  0
  182.0900  179.1420  139.8040 O   0  0  0  0  0  1  0  0  0  0  0  0
  184.3120  178.1120  141.0200 C   0  0  0  0  0  2  0  0  0  0  0  0
  184.8340  178.9540  142.1680 C   0  0  0  0  0  2  0  0  0  0  0  0
  185.2850  178.4030  144.5270 C   0  0  0  0  0  2  0  0  0  0  0  0
  184.3210  179.5690  144.5050 C   0  0  0  0  0  2  0  0  0  0  0  0
  184.2100  178.4760  143.4610 C   0  0  0  0  0  3  0  0  0  0  0  0
  1  4  1  0  0  0  0
  2 26  1  6  0  0  0
  2  4  1  0  0  0  0
  3  8  2  0  0  0  0
  4 10  1  1  0  0  0
  5  7  1  0  0  0  0
  5  1  1  0  0  0  0
  6  2  1  0  0  0  0
  7  3  1  0  0  0  0
  9  6  2  0  0  0  0
  9  3  1  0  0  0  0
 10 11  2  6  0  0  0
 10 12  1  0  0  0  0
 12 14  1  0  0  0  0
 14 13  1  1  0  0  0
 15 14  1  6  0  0  0
 15 18  1  0  0  0  0
 17 15  1  0  0  0  0
 17 18  1  0  0  0  0
 18 16  1  6  0  0  0
 19 20  1  0  0  0  0
 19  9  1  0  0  0  0
 20 23  1  6  0  0  0
 20 21  1  0  0  0  0
 21 25  1  6  0  0  0
 22 20  1  0  0  0  0
 22 21  1  0  0  0  0
 25 24  1  0  0  0  0
 26 27  1  0  0  0  0
 27 28  1  6  0  0  0
 27 29  1  0  0  0  0
 29 33  1  1  0  0  0
 30 31  2  0  0  0  0
 31 29  1  0  0  0  0
 31 32  1  0  0  0  0
 33 34  1  0  0  0  0
 34 37  1  0  0  0  0
 36 35  1  0  0  0  0
 37 36  1  0  0  0  0
 37 35  1  0  0  0  0
M  END
>  <MODEL>
3

>  <REMARK>
 VINA RESULT:      -6.0      2.175      6.260
  Name = 
  14 active torsions:
  status: ('A' for Active; 'I' for Inactive)
    1  A    between atoms: C_1  and  C_26
    2  A    between atoms: C_2  and  C_35
    3  A    between atoms: C_4  and  C_13
    4  A    between atoms: C_4  and  C_28
    5  A    between atoms: C_5  and  O_23
    6  A    between atoms: C_6  and  S_31
    7  A    between atoms: C_6  and  C_35
    8  A    between atoms: C_10  and  C_28
    9  A    between atoms: C_13  and  C_16
   10  A    between atoms: C_13  and  C_20
   11  A    between atoms: C_14  and  S_31
   12  A    between atoms: C_20  and  C_25
   13  A    between atoms: C_25  and  C_32
   14  A    between atoms: C_26  and  C_36
                            x       y       z     vdW  Elec       q    Type
                         _______ _______ _______ _____ _____    ______ ____

>  <TORSDO>
F 14

$$$$
=
 OpenBabel10272415053D

 37 40  0  0  1  0  0  0  0  0999 V2000
  187.7350  178.4570  136.7720 C   0  0  0  0  0  2  0  0  0  0  0  0
  185.8910  177.3930  138.2500 C   0  0  2  0  0  3  0  0  0  0  0  0
  187.1690  175.3580  136.2710 C   0  0  0  0  0  0  0  0  0  0  0  0
  187.3930  177.6600  138.0320 C   0  0  2  0  0  3  0  0  0  0  0  0
  187.3160  177.7540  135.4850 C   0  0  0  0  0  2  0  0  0  0  0  0
  185.1910  176.4230  137.3300 C   0  0  0  0  0  3  0  0  0  0  0  0
  187.8860  176.3390  135.3860 C   0  0  0  0  0  2  0  0  0  0  0  0
  187.7440  174.1780  136.4600 C   0  0  0  0  0  2  0  0  0  0  0  0
  185.7180  175.4940  136.5190 C   0  0  0  0  0  0  0  0  0  0  0  0
  188.1510  178.4370  139.4790 S   0  0  2  0  0  0  0  0  0  0  0  0
  189.2350  179.3260  138.8850 O   0  0  0  0  0  0  0  0  0  0  0  0
  189.0720  177.1370  140.3440 C   0  0  0  0  0  2  0  0  0  0  0  0
  187.9760  177.0400  142.5750 C   0  0  0  0  0  1  0  0  0  0  0  0
  189.2330  177.4420  141.8270 C   0  0  1  0  0  3  0  0  0  0  0  0
  190.4230  176.6640  142.3870 C   0  0  1  0  0  3  0  0  0  0  0  0
  190.9040  178.8950  143.5910 C   0  0  0  0  0  1  0  0  0  0  0  0
  191.7290  177.2780  141.9150 C   0  0  0  0  0  2  0  0  0  0  0  0
  191.3130  177.4490  143.3620 C   0  0  2  0  0  3  0  0  0  0  0  0
  184.7640  174.6210  135.7660 C   0  0  0  0  0  2  0  0  0  0  0  0
  184.0400  173.6450  136.6860 C   0  0  2  0  0  0  0  0  0  0  0  0
  182.8770  172.9200  136.0230 C   0  0  2  0  0  3  0  0  0  0  0  0
  182.6230  174.0260  137.0440 C   0  0  0  0  0  2  0  0  0  0  0  0
  184.8130  172.8950  137.7640 C   0  0  0  0  0  1  0  0  0  0  0  0
  182.1970  170.8680  135.5710 C   0  0  0  0  0  1  0  0  0  0  0  0
  182.6410  171.6770  136.6160 O   0  0  0  0  0  0  0  0  0  0  0  0
  185.0340  178.6250  138.5520 C   0  0  0  0  0  2  0  0  0  0  0  0
  183.6120  178.2580  138.9590 C   0  0  2  0  0  3  0  0  0  0  0  0
  182.7240  178.8910  138.0840 O   0  0  0  0  0  1  0  0  0  0  0  0
  183.3140  178.6690  140.4080 C   0  0  1  0  0  3  0  0  0  0  0  0
  181.2630  178.8200  141.8430 O   0  0  0  0  0  1  0  0  0  0  0  0
  181.9780  178.1610  140.8480 C   0  0  0  0  0  0  0  0  0  0  0  0
  181.4730  177.1610  140.2770 O   0  0  0  0  0  0  0  0  0  0  0  0
  184.3680  178.1240  141.3660 C   0  0  0  0  0  2  0  0  0  0  0  0
  184.6160  179.0950  142.5040 C   0  0  0  0  0  2  0  0  0  0  0  0
  185.0170  179.2760  144.9290 C   0  0  0  0  0  2  0  0  0  0  0  0
  183.5470  178.9810  144.7280 C   0  0  0  0  0  2  0  0  0  0  0  0
  184.5780  178.3440  143.8180 C   0  0  0  0  0  3  0  0  0  0  0  0
  1  4  1  0  0  0  0
  2 26  1  6  0  0  0
  3  8  2  0  0  0  0
  3  9  1  0  0  0  0
  4  2  1  0  0  0  0
  4 10  1  1  0  0  0
  5  1  1  0  0  0  0
  6  2  1  0  0  0  0
  7  5  1  0  0  0  0
  7  3  1  0  0  0  0
  9  6  2  0  0  0  0
 10 11  2  6  0  0  0
 10 12  1  0  0  0  0
 12 14  1  0  0  0  0
 14 13  1  1  0  0  0
 15 14  1  6  0  0  0
 15 18  1  0  0  0  0
 17 15  1  0  0  0  0
 17 18  1  0  0  0  0
 18 16  1  6  0  0  0
 19  9  1  0  0  0  0
 19 20  1  0  0  0  0
 20 22  1  0  0  0  0
 20 23  1  1  0  0  0
 21 25  1  1  0  0  0
 21 20  1  0  0  0  0
 21 22  1  0  0  0  0
 24 25  1  0  0  0  0
 26 27  1  0  0  0  0
 27 28  1  6  0  0  0
 27 29  1  0  0  0  0
 29 31  1  0  0  0  0
 29 33  1  1  0  0  0
 31 30  1  0  0  0  0
 32 31  2  0  0  0  0
 33 34  1  0  0  0  0
 34 37  1  0  0  0  0
 36 35  1  0  0  0  0
 37 36  1  0  0  0  0
 37 35  1  0  0  0  0
M  END
>  <MODEL>
4

>  <REMARK>
 VINA RESULT:      -5.8      2.382      5.852
  Name = 
  14 active torsions:
  status: ('A' for Active; 'I' for Inactive)
    1  A    between atoms: C_1  and  C_26
    2  A    between atoms: C_2  and  C_35
    3  A    between atoms: C_4  and  C_13
    4  A    between atoms: C_4  and  C_28
    5  A    between atoms: C_5  and  O_23
    6  A    between atoms: C_6  and  S_31
    7  A    between atoms: C_6  and  C_35
    8  A    between atoms: C_10  and  C_28
    9  A    between atoms: C_13  and  C_16
   10  A    between atoms: C_13  and  C_20
   11  A    between atoms: C_14  and  S_31
   12  A    between atoms: C_20  and  C_25
   13  A    between atoms: C_25  and  C_32
   14  A    between atoms: C_26  and  C_36
                            x       y       z     vdW  Elec       q    Type
                         _______ _______ _______ _____ _____    ______ ____

>  <TORSDO>
F 14

$$$$
=
 OpenBabel10272415053D

 37 40  0  0  1  0  0  0  0  0999 V2000
  189.5150  176.3350  141.4060 C   0  0  0  0  0  2  0  0  0  0  0  0
  188.1150  178.2640  142.4220 C   0  0  2  0  0  3  0  0  0  0  0  0
  191.0010  178.1330  143.5820 C   0  0  0  0  0  0  0  0  0  0  0  0
  189.1450  177.8190  141.3670 C   0  0  2  0  0  3  0  0  0  0  0  0
  190.1600  175.9120  142.7220 C   0  0  0  0  0  2  0  0  0  0  0  0
  188.5410  178.3100  143.8700 C   0  0  0  0  0  3  0  0  0  0  0  0
  191.3750  176.7690  143.0730 C   0  0  0  0  0  2  0  0  0  0  0  0
  191.9670  179.0370  143.6620 C   0  0  0  0  0  2  0  0  0  0  0  0
  189.7770  178.3210  144.3890 C   0  0  0  0  0  0  0  0  0  0  0  0
  188.6340  178.2840  139.6950 S   0  0  2  0  0  0  0  0  0  0  0  0
  187.7070  177.1520  139.2730 O   0  0  0  0  0  0  0  0  0  0  0  0
  190.0880  178.0840  138.6320 C   0  0  0  0  0  2  0  0  0  0  0  0
  189.2640  178.0350  136.2850 C   0  0  0  0  0  1  0  0  0  0  0  0
  189.7980  177.1950  137.4300 C   0  0  1  0  0  3  0  0  0  0  0  0
  191.0810  176.4950  136.9850 C   0  0  1  0  0  3  0  0  0  0  0  0
  189.6160  174.3800  137.1890 C   0  0  0  0  0  1  0  0  0  0  0  0
  191.5900  175.5720  138.0790 C   0  0  0  0  0  2  0  0  0  0  0  0
  190.9710  174.9700  136.8330 C   0  0  2  0  0  3  0  0  0  0  0  0
  189.8940  178.4390  145.8760 C   0  0  0  0  0  2  0  0  0  0  0  0
  190.0290  177.0760  146.5450 C   0  0  2  0  0  0  0  0  0  0  0  0
  191.4690  176.6630  146.8170 C   0  0  2  0  0  3  0  0  0  0  0  0
  190.6690  176.0010  145.6980 C   0  0  0  0  0  2  0  0  0  0  0  0
  188.9650  176.5960  147.5240 C   0  0  0  0  0  1  0  0  0  0  0  0
  192.9000  175.8260  148.2760 C   0  0  0  0  0  1  0  0  0  0  0  0
  191.5570  175.7890  147.9040 O   0  0  0  0  0  0  0  0  0  0  0  0
  186.7020  177.7000  142.2520 C   0  0  0  0  0  2  0  0  0  0  0  0
  185.7440  178.7070  141.6260 C   0  0  2  0  0  3  0  0  0  0  0  0
  186.4270  179.9130  141.4430 O   0  0  0  0  0  1  0  0  0  0  0  0
  184.5020  178.9260  142.5020 C   0  0  1  0  0  3  0  0  0  0  0  0
  183.3660  177.5290  140.7560 O   0  0  0  0  0  0  0  0  0  0  0  0
  183.2700  178.4150  141.8250 C   0  0  0  0  0  0  0  0  0  0  0  0
  182.1380  178.7470  142.2600 O   0  0  0  0  0  1  0  0  0  0  0  0
  184.6370  178.2130  143.8430 C   0  0  0  0  0  2  0  0  0  0  0  0
  184.7020  179.2140  144.9810 C   0  0  0  0  0  2  0  0  0  0  0  0
  186.0860  177.6420  146.2790 C   0  0  0  0  0  2  0  0  0  0  0  0
  186.0470  178.9510  147.0360 C   0  0  0  0  0  2  0  0  0  0  0  0
  184.8170  178.4690  146.2940 C   0  0  0  0  0  3  0  0  0  0  0  0
  1  5  1  0  0  0  0
  2 26  1  1  0  0  0
  2  6  1  0  0  0  0
  3  8  2  0  0  0  0
  3  9  1  0  0  0  0
  4 10  1  6  0  0  0
  4  1  1  0  0  0  0
  4  2  1  0  0  0  0
  5  7  1  0  0  0  0
  6  9  2  0  0  0  0
  7  3  1  0  0  0  0
  9 19  1  0  0  0  0
 10 11  2  6  0  0  0
 12 10  1  0  0  0  0
 14 13  1  6  0  0  0
 14 12  1  0  0  0  0
 15 14  1  1  0  0  0
 15 17  1  0  0  0  0
 18 15  1  0  0  0  0
 18 16  1  1  0  0  0
 18 17  1  0  0  0  0
 19 20  1  0  0  0  0
 20 21  1  0  0  0  0
 20 23  1  1  0  0  0
 21 25  1  1  0  0  0
 22 20  1  0  0  0  0
 22 21  1  0  0  0  0
 25 24  1  0  0  0  0
 27 28  1  1  0  0  0
 27 26  1  0  0  0  0
 27 29  1  0  0  0  0
 29 33  1  1  0  0  0
 30 31  2  0  0  0  0
 31 32  1  0  0  0  0
 31 29  1  0  0  0  0
 33 34  1  0  0  0  0
 34 37  1  0  0  0  0
 35 37  1  0  0  0  0
 35 36  1  0  0  0  0
 37 36  1  0  0  0  0
M  END
>  <MODEL>
5

>  <REMARK>
 VINA RESULT:      -5.7      2.470      6.607
  Name = 
  14 active torsions:
  status: ('A' for Active; 'I' for Inactive)
    1  A    between atoms: C_1  and  C_26
    2  A    between atoms: C_2  and  C_35
    3  A    between atoms: C_4  and  C_13
    4  A    between atoms: C_4  and  C_28
    5  A    between atoms: C_5  and  O_23
    6  A    between atoms: C_6  and  S_31
    7  A    between atoms: C_6  and  C_35
    8  A    between atoms: C_10  and  C_28
    9  A    between atoms: C_13  and  C_16
   10  A    between atoms: C_13  and  C_20
   11  A    between atoms: C_14  and  S_31
   12  A    between atoms: C_20  and  C_25
   13  A    between atoms: C_25  and  C_32
   14  A    between atoms: C_26  and  C_36
                            x       y       z     vdW  Elec       q    Type
                         _______ _______ _______ _____ _____    ______ ____

>  <TORSDO>
F 14

$$$$
=
 OpenBabel10272415053D

 37 40  0  0  1  0  0  0  0  0999 V2000
  189.4450  178.2920  137.3630 C   0  0  0  0  0  2  0  0  0  0  0  0
  188.2500  177.3180  139.4450 C   0  0  2  0  0  3  0  0  0  0  0  0
  186.2930  177.8880  137.0930 C   0  0  0  0  0  0  0  0  0  0  0  0
  188.8990  177.0530  138.0730 C   0  0  2  0  0  3  0  0  0  0  0  0
  188.3690  179.3250  137.0450 C   0  0  0  0  0  2  0  0  0  0  0  0
  186.9270  178.0440  139.4880 C   0  0  0  0  0  3  0  0  0  0  0  0
  187.2100  178.7280  136.2480 C   0  0  0  0  0  2  0  0  0  0  0  0
  185.4190  177.1180  136.4590 C   0  0  0  0  0  2  0  0  0  0  0  0
  186.0390  178.2440  138.5040 C   0  0  0  0  0  0  0  0  0  0  0  0
  190.1820  175.7830  138.1740 S   0  0  2  0  0  0  0  0  0  0  0  0
  191.3860  176.5290  138.7340 O   0  0  0  0  0  0  0  0  0  0  0  0
  190.6610  175.3900  136.4710 C   0  0  0  0  0  2  0  0  0  0  0  0
  190.7370  172.9790  135.8610 C   0  0  0  0  0  1  0  0  0  0  0  0
  191.5400  174.1490  136.3970 C   0  0  1  0  0  3  0  0  0  0  0  0
  192.7260  174.4120  135.4690 C   0  0  1  0  0  3  0  0  0  0  0  0
  194.0700  174.2440  137.6660 C   0  0  0  0  0  1  0  0  0  0  0  0
  193.3880  175.7340  135.8150 C   0  0  0  0  0  2  0  0  0  0  0  0
  194.0980  174.4400  136.1580 C   0  0  2  0  0  3  0  0  0  0  0  0
  184.7690  178.9500  138.8620 C   0  0  0  0  0  2  0  0  0  0  0  0
  183.8030  178.0380  139.6100 C   0  0  2  0  0  0  0  0  0  0  0  0
  182.7610  178.7850  140.4300 C   0  0  2  0  0  3  0  0  0  0  0  0
  183.9210  178.0680  141.1150 C   0  0  0  0  0  2  0  0  0  0  0  0
  183.3960  176.6990  139.0080 C   0  0  0  0  0  1  0  0  0  0  0  0
  180.5630  178.9100  140.2540 C   0  0  0  0  0  1  0  0  0  0  0  0
  181.5940  178.0320  140.5860 O   0  0  0  0  0  0  0  0  0  0  0  0
  189.2010  177.7810  140.5520 C   0  0  0  0  0  2  0  0  0  0  0  0
  188.4880  177.9850  141.8840 C   0  0  2  0  0  3  0  0  0  0  0  0
  189.1830  178.9530  142.6140 O   0  0  0  0  0  1  0  0  0  0  0  0
  188.3980  176.6770  142.6830 C   0  0  1  0  0  3  0  0  0  0  0  0
  190.1900  176.7640  144.4350 O   0  0  0  0  0  1  0  0  0  0  0  0
  189.7390  176.2770  143.2130 C   0  0  0  0  0  0  0  0  0  0  0  0
  190.4400  175.4520  142.5730 O   0  0  0  0  0  0  0  0  0  0  0  0
  187.4430  176.8130  143.8630 C   0  0  0  0  0  2  0  0  0  0  0  0
  186.2660  177.7020  143.5050 C   0  0  0  0  0  2  0  0  0  0  0  0
  185.0260  179.6660  144.3260 C   0  0  0  0  0  2  0  0  0  0  0  0
  184.2830  178.4300  144.7840 C   0  0  0  0  0  2  0  0  0  0  0  0
  185.7980  178.4320  144.7460 C   0  0  0  0  0  3  0  0  0  0  0  0
  1  4  1  0  0  0  0
  2  6  1  0  0  0  0
  2 26  1  1  0  0  0
  3  9  1  0  0  0  0
  4 10  1  1  0  0  0
  4  2  1  0  0  0  0
  5  1  1  0  0  0  0
  7  5  1  0  0  0  0
  7  3  1  0  0  0  0
  8  3  2  0  0  0  0
  9 19  1  0  0  0  0
  9  6  2  0  0  0  0
 10 11  2  1  0  0  0
 12 10  1  0  0  0  0
 14 13  1  6  0  0  0
 14 12  1  0  0  0  0
 15 17  1  0  0  0  0
 15 18  1  0  0  0  0
 15 14  1  1  0  0  0
 17 18  1  0  0  0  0
 18 16  1  1  0  0  0
 19 20  1  0  0  0  0
 20 23  1  6  0  0  0
 20 21  1  0  0  0  0
 20 22  1  0  0  0  0
 21 25  1  1  0  0  0
 21 22  1  0  0  0  0
 24 25  1  0  0  0  0
 26 27  1  0  0  0  0
 27 28  1  1  0  0  0
 27 29  1  0  0  0  0
 29 31  1  0  0  0  0
 29 33  1  1  0  0  0
 31 30  1  0  0  0  0
 32 31  2  0  0  0  0
 34 33  1  0  0  0  0
 34 37  1  0  0  0  0
 35 37  1  0  0  0  0
 35 36  1  0  0  0  0
 37 36  1  0  0  0  0
M  END
>  <MODEL>
6

>  <REMARK>
 VINA RESULT:      -5.4      1.365      2.372
  Name = 
  14 active torsions:
  status: ('A' for Active; 'I' for Inactive)
    1  A    between atoms: C_1  and  C_26
    2  A    between atoms: C_2  and  C_35
    3  A    between atoms: C_4  and  C_13
    4  A    between atoms: C_4  and  C_28
    5  A    between atoms: C_5  and  O_23
    6  A    between atoms: C_6  and  S_31
    7  A    between atoms: C_6  and  C_35
    8  A    between atoms: C_10  and  C_28
    9  A    between atoms: C_13  and  C_16
   10  A    between atoms: C_13  and  C_20
   11  A    between atoms: C_14  and  S_31
   12  A    between atoms: C_20  and  C_25
   13  A    between atoms: C_25  and  C_32
   14  A    between atoms: C_26  and  C_36
                            x       y       z     vdW  Elec       q    Type
                         _______ _______ _______ _____ _____    ______ ____

>  <TORSDO>
F 14

$$$$
=
 OpenBabel10272415053D

 37 40  0  0  1  0  0  0  0  0999 V2000
  186.7050  176.5400  134.8920 C   0  0  0  0  0  2  0  0  0  0  0  0
  186.8490  176.5580  137.4790 C   0  0  2  0  0  3  0  0  0  0  0  0
  183.9150  176.5820  136.4380 C   0  0  0  0  0  0  0  0  0  0  0  0
  186.6840  175.7310  136.1900 C   0  0  2  0  0  3  0  0  0  0  0  0
  185.5720  177.5570  134.8000 C   0  0  0  0  0  2  0  0  0  0  0  0
  185.7140  177.4570  137.9080 C   0  0  0  0  0  3  0  0  0  0  0  0
  184.2000  176.9150  135.0000 C   0  0  0  0  0  2  0  0  0  0  0  0
  182.8800  175.7900  136.6850 C   0  0  0  0  0  2  0  0  0  0  0  0
  184.4300  177.4430  137.5220 C   0  0  0  0  0  0  0  0  0  0  0  0
  187.8900  174.3870  136.0990 S   0  0  2  0  0  0  0  0  0  0  0  0
  188.8950  174.8720  135.0640 O   0  0  0  0  0  0  0  0  0  0  0  0
  187.0580  172.9950  135.2870 C   0  0  0  0  0  2  0  0  0  0  0  0
  186.1980  172.7820  137.6120 C   0  0  0  0  0  1  0  0  0  0  0  0
  185.9690  172.3920  136.1640 C   0  0  1  0  0  3  0  0  0  0  0  0
  184.6020  172.9050  135.7140 C   0  0  1  0  0  3  0  0  0  0  0  0
  183.9780  170.4040  135.8470 C   0  0  0  0  0  1  0  0  0  0  0  0
  184.2500  172.3490  134.3460 C   0  0  0  0  0  2  0  0  0  0  0  0
  183.5180  171.8270  135.5660 C   0  0  2  0  0  3  0  0  0  0  0  0
  183.5080  178.4250  138.1760 C   0  0  0  0  0  2  0  0  0  0  0  0
  183.2120  178.0490  139.6230 C   0  0  2  0  0  0  0  0  0  0  0  0
  182.5910  179.1760  140.4360 C   0  0  2  0  0  3  0  0  0  0  0  0
  184.0440  178.7660  140.6590 C   0  0  0  0  0  2  0  0  0  0  0  0
  182.8070  176.6230  139.9740 C   0  0  0  0  0  1  0  0  0  0  0  0
  180.5180  179.1390  141.1970 C   0  0  0  0  0  1  0  0  0  0  0  0
  181.8040  178.6820  141.4810 O   0  0  0  0  0  0  0  0  0  0  0  0
  188.2150  177.2180  137.6750 C   0  0  0  0  0  2  0  0  0  0  0  0
  188.2870  178.0390  138.9580 C   0  0  2  0  0  3  0  0  0  0  0  0
  189.0660  179.1740  138.7140 O   0  0  0  0  0  1  0  0  0  0  0  0
  188.8780  177.2260  140.1180 C   0  0  1  0  0  3  0  0  0  0  0  0
  191.3550  177.5090  140.3950 O   0  0  0  0  0  1  0  0  0  0  0  0
  190.2890  176.8190  139.8260 C   0  0  0  0  0  0  0  0  0  0  0  0
  190.5100  175.8140  139.1040 O   0  0  0  0  0  0  0  0  0  0  0  0
  188.8740  178.0260  141.4150 C   0  0  0  0  0  2  0  0  0  0  0  0
  187.5850  177.8010  142.1830 C   0  0  0  0  0  2  0  0  0  0  0  0
  189.0630  177.4410  144.1220 C   0  0  0  0  0  2  0  0  0  0  0  0
  187.6670  177.6940  144.6490 C   0  0  0  0  0  2  0  0  0  0  0  0
  187.8620  176.9040  143.3700 C   0  0  0  0  0  3  0  0  0  0  0  0
  1  4  1  0  0  0  0
  2 26  1  6  0  0  0
  2  6  1  0  0  0  0
  3  8  2  0  0  0  0
  3  9  1  0  0  0  0
  4 10  1  6  0  0  0
  4  2  1  0  0  0  0
  5  1  1  0  0  0  0
  5  7  1  0  0  0  0
  7  3  1  0  0  0  0
  9  6  2  0  0  0  0
  9 19  1  0  0  0  0
 10 11  2  6  0  0  0
 12 10  1  0  0  0  0
 12 14  1  0  0  0  0
 14 13  1  1  0  0  0
 15 14  1  1  0  0  0
 17 18  1  0  0  0  0
 17 15  1  0  0  0  0
 18 15  1  0  0  0  0
 18 16  1  1  0  0  0
 19 20  1  0  0  0  0
 20 23  1  1  0  0  0
 20 21  1  0  0  0  0
 20 22  1  0  0  0  0
 21 22  1  0  0  0  0
 21 25  1  1  0  0  0
 24 25  1  0  0  0  0
 26 27  1  0  0  0  0
 27 28  1  6  0  0  0
 27 29  1  0  0  0  0
 29 33  1  1  0  0  0
 31 29  1  0  0  0  0
 31 30  1  0  0  0  0
 32 31  2  0  0  0  0
 33 34  1  0  0  0  0
 34 37  1  0  0  0  0
 35 36  1  0  0  0  0
 37 35  1  0  0  0  0
 37 36  1  0  0  0  0
M  END
>  <MODEL>
7

>  <REMARK>
 VINA RESULT:      -5.3      1.982      3.161
  Name = 
  14 active torsions:
  status: ('A' for Active; 'I' for Inactive)
    1  A    between atoms: C_1  and  C_26
    2  A    between atoms: C_2  and  C_35
    3  A    between atoms: C_4  and  C_13
    4  A    between atoms: C_4  and  C_28
    5  A    between atoms: C_5  and  O_23
    6  A    between atoms: C_6  and  S_31
    7  A    between atoms: C_6  and  C_35
    8  A    between atoms: C_10  and  C_28
    9  A    between atoms: C_13  and  C_16
   10  A    between atoms: C_13  and  C_20
   11  A    between atoms: C_14  and  S_31
   12  A    between atoms: C_20  and  C_25
   13  A    between atoms: C_25  and  C_32
   14  A    between atoms: C_26  and  C_36
                            x       y       z     vdW  Elec       q    Type
                         _______ _______ _______ _____ _____    ______ ____

>  <TORSDO>
F 14

$$$$
=
 OpenBabel10272415053D

 37 40  0  0  1  0  0  0  0  0999 V2000
  186.8590  176.7390  135.3640 C   0  0  0  0  0  2  0  0  0  0  0  0
  185.5940  176.1940  137.5590 C   0  0  2  0  0  3  0  0  0  0  0  0
  187.1840  173.7580  136.4520 C   0  0  0  0  0  0  0  0  0  0  0  0
  186.9140  176.6190  136.8880 C   0  0  2  0  0  3  0  0  0  0  0  0
  186.5240  175.4220  134.6710 C   0  0  0  0  0  2  0  0  0  0  0  0
  185.1130  174.7760  137.3690 C   0  0  0  0  0  3  0  0  0  0  0  0
  187.4730  174.2950  135.0780 C   0  0  0  0  0  2  0  0  0  0  0  0
  188.1000  172.9730  137.0020 C   0  0  0  0  0  2  0  0  0  0  0  0
  185.7960  173.6980  136.9570 C   0  0  0  0  0  0  0  0  0  0  0  0
  187.5660  178.1460  137.6040 S   0  0  2  0  0  0  0  0  0  0  0  0
  187.1170  179.2240  136.6270 O   0  0  0  0  0  0  0  0  0  0  0  0
  189.3670  178.0890  137.4000 C   0  0  0  0  0  2  0  0  0  0  0  0
  189.2080  177.3600  139.7730 C   0  0  0  0  0  1  0  0  0  0  0  0
  190.0410  177.2920  138.5080 C   0  0  1  0  0  3  0  0  0  0  0  0
  190.1850  175.8320  138.0780 C   0  0  1  0  0  3  0  0  0  0  0  0
  192.6870  176.4510  137.9490 C   0  0  0  0  0  1  0  0  0  0  0  0
  190.7030  175.7460  136.6540 C   0  0  0  0  0  2  0  0  0  0  0  0
  191.6240  175.3740  137.7990 C   0  0  2  0  0  3  0  0  0  0  0  0
  185.0650  172.3930  136.9290 C   0  0  0  0  0  2  0  0  0  0  0  0
  184.5780  172.0440  135.5270 C   0  0  2  0  0  0  0  0  0  0  0  0
  184.2260  170.5750  135.3450 C   0  0  2  0  0  3  0  0  0  0  0  0
  185.4970  171.1520  134.7270 C   0  0  0  0  0  2  0  0  0  0  0  0
  183.7820  173.0630  134.7200 C   0  0  0  0  0  1  0  0  0  0  0  0
  182.1290  169.9580  135.0270 C   0  0  0  0  0  1  0  0  0  0  0  0
  183.2650  170.3970  134.3460 O   0  0  0  0  0  0  0  0  0  0  0  0
  184.4500  177.2080  137.4780 C   0  0  0  0  0  2  0  0  0  0  0  0
  183.6060  177.2370  138.7470 C   0  0  2  0  0  3  0  0  0  0  0  0
  182.2730  177.4540  138.3870 O   0  0  0  0  0  1  0  0  0  0  0  0
  184.0810  178.3280  139.7170 C   0  0  1  0  0  3  0  0  0  0  0  0
  184.1050  180.6790  138.8460 O   0  0  0  0  0  0  0  0  0  0  0  0
  183.4040  179.6320  139.4340 C   0  0  0  0  0  0  0  0  0  0  0  0
  182.1790  179.7630  139.6810 O   0  0  0  0  0  1  0  0  0  0  0  0
  183.7910  177.9470  141.1640 C   0  0  0  0  0  2  0  0  0  0  0  0
  184.6210  178.7840  142.1190 C   0  0  0  0  0  2  0  0  0  0  0  0
  185.5420  178.1400  144.3120 C   0  0  0  0  0  2  0  0  0  0  0  0
  184.8270  179.4620  144.4850 C   0  0  0  0  0  2  0  0  0  0  0  0
  184.2660  178.4150  143.5440 C   0  0  0  0  0  3  0  0  0  0  0  0
  1  4  1  0  0  0  0
  2 26  1  6  0  0  0
  3  9  1  0  0  0  0
  3  8  2  0  0  0  0
  4  2  1  0  0  0  0
  4 10  1  1  0  0  0
  5  7  1  0  0  0  0
  5  1  1  0  0  0  0
  6  2  1  0  0  0  0
  7  3  1  0  0  0  0
  9  6  2  0  0  0  0
 10 11  2  6  0  0  0
 12 10  1  0  0  0  0
 12 14  1  0  0  0  0
 14 13  1  1  0  0  0
 15 14  1  1  0  0  0
 17 18  1  0  0  0  0
 17 15  1  0  0  0  0
 18 16  1  1  0  0  0
 18 15  1  0  0  0  0
 19  9  1  0  0  0  0
 20 23  1  6  0  0  0
 20 19  1  0  0  0  0
 21 25  1  6  0  0  0
 21 20  1  0  0  0  0
 22 21  1  0  0  0  0
 22 20  1  0  0  0  0
 25 24  1  0  0  0  0
 26 27  1  0  0  0  0
 27 28  1  6  0  0  0
 27 29  1  0  0  0  0
 29 33  1  1  0  0  0
 30 31  2  0  0  0  0
 31 32  1  0  0  0  0
 31 29  1  0  0  0  0
 33 34  1  0  0  0  0
 34 37  1  0  0  0  0
 35 36  1  0  0  0  0
 37 35  1  0  0  0  0
 37 36  1  0  0  0  0
M  END
>  <MODEL>
8

>  <REMARK>
 VINA RESULT:      -5.2      2.900      6.070
  Name = 
  14 active torsions:
  status: ('A' for Active; 'I' for Inactive)
    1  A    between atoms: C_1  and  C_26
    2  A    between atoms: C_2  and  C_35
    3  A    between atoms: C_4  and  C_13
    4  A    between atoms: C_4  and  C_28
    5  A    between atoms: C_5  and  O_23
    6  A    between atoms: C_6  and  S_31
    7  A    between atoms: C_6  and  C_35
    8  A    between atoms: C_10  and  C_28
    9  A    between atoms: C_13  and  C_16
   10  A    between atoms: C_13  and  C_20
   11  A    between atoms: C_14  and  S_31
   12  A    between atoms: C_20  and  C_25
   13  A    between atoms: C_25  and  C_32
   14  A    between atoms: C_26  and  C_36
                            x       y       z     vdW  Elec       q    Type
                         _______ _______ _______ _____ _____    ______ ____

>  <TORSDO>
F 14

$$$$
=
 OpenBabel10272415053D

 37 40  0  0  1  0  0  0  0  0999 V2000
  190.0750  176.1510  141.2240 C   0  0  0  0  0  2  0  0  0  0  0  0
  188.5380  178.2000  141.6200 C   0  0  2  0  0  3  0  0  0  0  0  0
  190.8290  177.9910  143.7180 C   0  0  0  0  0  0  0  0  0  0  0  0
  189.8390  177.6470  141.0070 C   0  0  2  0  0  3  0  0  0  0  0  0
  190.1950  175.7700  142.6960 C   0  0  0  0  0  2  0  0  0  0  0  0
  188.4390  178.3050  143.1230 C   0  0  0  0  0  3  0  0  0  0  0  0
  191.2670  176.5850  143.4190 C   0  0  0  0  0  2  0  0  0  0  0  0
  191.7640  178.8510  144.0990 C   0  0  0  0  0  2  0  0  0  0  0  0
  189.4160  178.2830  144.0400 C   0  0  0  0  0  0  0  0  0  0  0  0
  189.9700  178.0430  139.2470 S   0  0  2  0  0  0  0  0  0  0  0  0
  189.0370  179.2350  139.0750 O   0  0  0  0  0  0  0  0  0  0  0  0
  189.1420  176.7040  138.3490 C   0  0  0  0  0  2  0  0  0  0  0  0
  191.4890  176.1330  137.7570 C   0  0  0  0  0  1  0  0  0  0  0  0
  190.0460  176.0800  137.2950 C   0  0  1  0  0  3  0  0  0  0  0  0
  189.6430  174.6230  137.0680 C   0  0  1  0  0  3  0  0  0  0  0  0
  189.0080  175.5000  134.7250 C   0  0  0  0  0  1  0  0  0  0  0  0
  188.1480  174.5170  136.8240 C   0  0  0  0  0  2  0  0  0  0  0  0
  189.1030  174.3080  135.6650 C   0  0  2  0  0  3  0  0  0  0  0  0
  189.0180  178.4780  145.4700 C   0  0  0  0  0  2  0  0  0  0  0  0
  187.7390  177.7230  145.8110 C   0  0  2  0  0  0  0  0  0  0  0  0
  186.6820  178.5790  146.4940 C   0  0  2  0  0  3  0  0  0  0  0  0
  187.4710  177.5400  147.2860 C   0  0  0  0  0  2  0  0  0  0  0  0
  187.2540  176.5950  144.9090 C   0  0  0  0  0  1  0  0  0  0  0  0
  184.8060  179.0620  145.4340 C   0  0  0  0  0  1  0  0  0  0  0  0
  185.3940  178.0960  146.2500 O   0  0  0  0  0  0  0  0  0  0  0  0
  187.2380  177.6980  140.9880 C   0  0  0  0  0  2  0  0  0  0  0  0
  186.2770  178.8320  140.6520 C   0  0  2  0  0  3  0  0  0  0  0  0
  185.6440  179.2390  141.8300 O   0  0  0  0  0  1  0  0  0  0  0  0
  185.2370  178.4020  139.6080 C   0  0  1  0  0  3  0  0  0  0  0  0
  182.8750  179.0420  140.1580 O   0  0  0  0  0  1  0  0  0  0  0  0
  184.0910  179.3620  139.5630 C   0  0  0  0  0  0  0  0  0  0  0  0
  184.2450  180.4900  139.0280 O   0  0  0  0  0  0  0  0  0  0  0  0
  185.8490  178.3260  138.2140 C   0  0  0  0  0  2  0  0  0  0  0  0
  185.5220  177.0010  137.5520 C   0  0  0  0  0  2  0  0  0  0  0  0
  185.4080  176.4520  135.1530 C   0  0  0  0  0  2  0  0  0  0  0  0
  184.1270  175.9680  135.7950 C   0  0  0  0  0  2  0  0  0  0  0  0
  184.7690  177.2580  136.2650 C   0  0  0  0  0  3  0  0  0  0  0  0
  1  5  1  0  0  0  0
  2 26  1  1  0  0  0
  2  6  1  0  0  0  0
  3  9  1  0  0  0  0
  3  8  2  0  0  0  0
  4 10  1  6  0  0  0
  4  1  1  0  0  0  0
  4  2  1  0  0  0  0
  5  7  1  0  0  0  0
  6  9  2  0  0  0  0
  7  3  1  0  0  0  0
  9 19  1  0  0  0  0
 10 11  2  1  0  0  0
 12 10  1  0  0  0  0
 14 13  1  1  0  0  0
 14 12  1  0  0  0  0
 15 14  1  6  0  0  0
 17 15  1  0  0  0  0
 18 16  1  6  0  0  0
 18 17  1  0  0  0  0
 18 15  1  0  0  0  0
 19 20  1  0  0  0  0
 20 23  1  6  0  0  0
 20 21  1  0  0  0  0
 20 22  1  0  0  0  0
 21 25  1  6  0  0  0
 21 22  1  0  0  0  0
 24 25  1  0  0  0  0
 27 26  1  0  0  0  0
 27 28  1  1  0  0  0
 29 33  1  6  0  0  0
 29 27  1  0  0  0  0
 31 29  1  0  0  0  0
 31 30  1  0  0  0  0
 32 31  2  0  0  0  0
 34 33  1  0  0  0  0
 35 36  1  0  0  0  0
 35 37  1  0  0  0  0
 36 37  1  0  0  0  0
 37 34  1  0  0  0  0
M  END
>  <MODEL>
9

>  <REMARK>
 VINA RESULT:      -5.2      2.186      6.196
  Name = 
  14 active torsions:
  status: ('A' for Active; 'I' for Inactive)
    1  A    between atoms: C_1  and  C_26
    2  A    between atoms: C_2  and  C_35
    3  A    between atoms: C_4  and  C_13
    4  A    between atoms: C_4  and  C_28
    5  A    between atoms: C_5  and  O_23
    6  A    between atoms: C_6  and  S_31
    7  A    between atoms: C_6  and  C_35
    8  A    between atoms: C_10  and  C_28
    9  A    between atoms: C_13  and  C_16
   10  A    between atoms: C_13  and  C_20
   11  A    between atoms: C_14  and  S_31
   12  A    between atoms: C_20  and  C_25
   13  A    between atoms: C_25  and  C_32
   14  A    between atoms: C_26  and  C_36
                            x       y       z     vdW  Elec       q    Type
                         _______ _______ _______ _____ _____    ______ ____

>  <TORSDO>
F 14

$$$$
