=
 OpenBabel10272415243D

 34 39  0  0  0  0  0  0  0  0999 V2000
  184.6020  178.0390  142.1460 C   0  0  0  0  0  3  0  0  0  0  0  0
  183.1890  177.7100  138.6620 C   0  0  0  0  0  0  0  0  0  0  0  0
  180.9240  177.8870  139.6170 C   0  0  0  0  0  3  0  0  0  0  0  0
  183.2410  179.0270  143.8510 C   0  0  0  0  0  3  0  0  0  0  0  0
  183.5910  178.1930  141.1760 C   0  0  0  0  0  0  0  0  0  0  0  0
  182.2050  179.1820  142.9340 C   0  0  0  0  0  0  0  0  0  0  0  0
  179.9830  179.9060  142.5450 C   0  0  0  0  0  3  0  0  0  0  0  0
  181.0660  179.7940  143.3490 N   0  0  0  0  0  0  0  0  0  0  0  0
  184.4340  178.4130  143.4790 C   0  0  0  0  0  0  0  0  0  0  0  0
  181.1620  178.7190  140.7960 C   0  0  0  0  0  0  0  0  0  0  0  0
  182.3270  178.6890  141.5990 C   0  0  0  0  0  0  0  0  0  0  0  0
  180.0080  179.3430  141.2760 C   0  0  0  0  0  3  0  0  0  0  0  0
  183.7440  177.5510  137.3850 C   0  0  0  0  0  3  0  0  0  0  0  0
  185.1030  177.7460  137.1530 C   0  0  0  0  0  0  0  0  0  0  0  0
  185.9320  178.1120  138.2060 C   0  0  0  0  0  3  0  0  0  0  0  0
  181.7890  177.4640  138.7560 N   0  0  0  0  0  0  0  0  0  0  0  0
  185.3970  178.2540  139.4840 C   0  0  0  0  0  3  0  0  0  0  0  0
  184.0260  178.0490  139.7540 C   0  0  0  0  0  0  0  0  0  0  0  0
  186.3710  178.4180  146.7620 C   0  0  0  0  0  3  0  0  0  0  0  0
  186.7640  177.6710  144.0590 C   0  0  0  0  0  3  0  0  0  0  0  0
  189.7460  177.0450  146.1650 N   0  0  0  0  0  0  0  0  0  0  0  0
  191.0880  176.6310  146.4540 C   0  0  0  0  0  0  0  0  0  0  0  0
  188.8110  177.6070  147.1470 C   0  0  0  0  0  2  0  0  0  0  0  0
  191.8240  176.1710  145.5410 O   0  0  0  0  0  0  0  0  0  0  0  0
  187.5800  177.8760  146.3320 C   0  0  0  0  0  0  0  0  0  0  0  0
  191.6330  176.7370  147.8370 C   0  0  0  0  0  1  0  0  0  0  0  0
  189.0990  176.9960  144.8950 C   0  0  0  0  0  0  0  0  0  0  0  0
  187.7620  177.5150  145.0160 C   0  0  0  0  0  0  0  0  0  0  0  0
  189.6270  176.5630  143.8360 O   0  0  0  0  0  0  0  0  0  0  0  0
  185.5260  178.2180  144.4630 C   0  0  0  0  0  0  0  0  0  0  0  0
  185.3450  178.5870  145.8190 C   0  0  0  0  0  3  0  0  0  0  0  0
  185.6570  177.6030  135.7800 C   0  0  0  0  0  2  0  0  0  0  0  0
  187.0490  178.0210  135.7630 N   0  0  0  0  0  2  0  0  0  0  0  0
  187.7840  176.9880  135.0570 C   0  0  0  0  0  1  0  0  0  0  0  0
  1  9  1  0  0  0  0
  2 16  1  0  0  0  0
  2 18  1  0  0  0  0
  3 10  1  0  0  0  0
  5 11  1  0  0  0  0
  5  1  2  0  0  0  0
  6  8  1  0  0  0  0
  6  4  1  0  0  0  0
  7  8  2  0  0  0  0
  9  4  2  0  0  0  0
  9 30  1  0  0  0  0
 10 12  2  0  0  0  0
 10 11  1  0  0  0  0
 11  6  2  0  0  0  0
 12  7  1  0  0  0  0
 13  2  2  0  0  0  0
 14 13  1  0  0  0  0
 14 15  2  0  0  0  0
 15 17  1  0  0  0  0
 16  3  2  0  0  0  0
 17 18  2  0  0  0  0
 18  5  1  0  0  0  0
 20 30  2  0  0  0  0
 20 28  1  0  0  0  0
 21 22  1  0  0  0  0
 21 23  1  0  0  0  0
 22 26  1  0  0  0  0
 24 22  2  0  0  0  0
 25 19  1  0  0  0  0
 25 23  1  0  0  0  0
 27 28  1  0  0  0  0
 27 21  1  0  0  0  0
 28 25  2  0  0  0  0
 29 27  2  0  0  0  0
 30 31  1  0  0  0  0
 31 19  2  0  0  0  0
 32 14  1  0  0  0  0
 33 32  1  0  0  0  0
 34 33  1  0  0  0  0
M  END
>  <MODEL>
1

>  <REMARK>
 VINA RESULT:     -10.8      0.000      0.000
  Name = 
  3 active torsions:
  status: ('A' for Active; 'I' for Inactive)
    1  A    between atoms: C_3  and  N_13
    2  A    between atoms: C_3  and  C_25
    3  A    between atoms: C_18  and  C_30
                            x       y       z     vdW  Elec       q    Type
                         _______ _______ _______ _____ _____    ______ ____

>  <TORSDO>
F 3

$$$$
=
 OpenBabel10272415243D

 34 39  0  0  0  0  0  0  0  0999 V2000
  190.5260  176.6190  139.5940 C   0  0  0  0  0  3  0  0  0  0  0  0
  191.8340  175.3540  136.2870 C   0  0  0  0  0  0  0  0  0  0  0  0
  189.6270  175.8170  135.2940 C   0  0  0  0  0  3  0  0  0  0  0  0
  188.6120  178.0590  139.5990 C   0  0  0  0  0  3  0  0  0  0  0  0
  190.5060  176.5110  138.1890 C   0  0  0  0  0  0  0  0  0  0  0  0
  188.5390  177.9660  138.2120 C   0  0  0  0  0  0  0  0  0  0  0  0
  187.3890  178.5810  136.2340 C   0  0  0  0  0  3  0  0  0  0  0  0
  187.5810  178.6830  137.5700 N   0  0  0  0  0  0  0  0  0  0  0  0
  189.5780  177.3510  140.3090 C   0  0  0  0  0  0  0  0  0  0  0  0
  189.1630  176.9410  136.1070 C   0  0  0  0  0  0  0  0  0  0  0  0
  189.4310  177.1210  137.4850 C   0  0  0  0  0  0  0  0  0  0  0  0
  188.1540  177.6880  135.4960 C   0  0  0  0  0  3  0  0  0  0  0  0
  193.0600  174.8400  135.8450 C   0  0  0  0  0  3  0  0  0  0  0  0
  194.2140  174.9460  136.6170 C   0  0  0  0  0  0  0  0  0  0  0  0
  194.1560  175.5800  137.8520 C   0  0  0  0  0  3  0  0  0  0  0  0
  190.7350  175.1610  135.4030 N   0  0  0  0  0  0  0  0  0  0  0  0
  192.9400  176.0780  138.3130 C   0  0  0  0  0  3  0  0  0  0  0  0
  191.7500  175.9720  137.5600 C   0  0  0  0  0  0  0  0  0  0  0  0
  190.9490  177.3370  143.8660 C   0  0  0  0  0  3  0  0  0  0  0  0
  188.4600  177.6220  142.5440 C   0  0  0  0  0  3  0  0  0  0  0  0
  188.1560  177.8310  146.2290 N   0  0  0  0  0  0  0  0  0  0  0  0
  187.4810  177.9690  147.4870 C   0  0  0  0  0  0  0  0  0  0  0  0
  189.6000  177.6250  146.0700 C   0  0  0  0  0  2  0  0  0  0  0  0
  186.2330  178.1300  147.5260 O   0  0  0  0  0  0  0  0  0  0  0  0
  189.7710  177.5350  144.5810 C   0  0  0  0  0  0  0  0  0  0  0  0
  188.2450  177.9230  148.7660 C   0  0  0  0  0  1  0  0  0  0  0  0
  187.5530  177.8590  144.9370 C   0  0  0  0  0  0  0  0  0  0  0  0
  188.5650  177.6720  143.9310 C   0  0  0  0  0  0  0  0  0  0  0  0
  186.3220  178.0230  144.7220 O   0  0  0  0  0  0  0  0  0  0  0  0
  189.6370  177.4220  141.7890 C   0  0  0  0  0  0  0  0  0  0  0  0
  190.8750  177.2810  142.4640 C   0  0  0  0  0  3  0  0  0  0  0  0
  195.5090  174.4200  136.1050 C   0  0  0  0  0  2  0  0  0  0  0  0
  196.6030  175.2460  136.5900 N   0  0  0  0  0  2  0  0  0  0  0  0
  197.2230  175.8410  135.4210 C   0  0  0  0  0  1  0  0  0  0  0  0
  1  9  1  0  0  0  0
  2 18  1  0  0  0  0
  3 16  2  0  0  0  0
  3 10  1  0  0  0  0
  4  9  2  0  0  0  0
  5  1  2  0  0  0  0
  6  4  1  0  0  0  0
  7  8  2  0  0  0  0
  8  6  1  0  0  0  0
  9 30  1  0  0  0  0
 10 11  1  0  0  0  0
 11  5  1  0  0  0  0
 11  6  2  0  0  0  0
 12 10  2  0  0  0  0
 12  7  1  0  0  0  0
 13  2  2  0  0  0  0
 13 14  1  0  0  0  0
 14 15  2  0  0  0  0
 15 17  1  0  0  0  0
 16  2  1  0  0  0  0
 18  5  1  0  0  0  0
 18 17  2  0  0  0  0
 19 25  1  0  0  0  0
 20 28  1  0  0  0  0
 21 22  1  0  0  0  0
 22 24  2  0  0  0  0
 22 26  1  0  0  0  0
 23 21  1  0  0  0  0
 25 23  1  0  0  0  0
 27 21  1  0  0  0  0
 28 25  2  0  0  0  0
 28 27  1  0  0  0  0
 29 27  2  0  0  0  0
 30 31  1  0  0  0  0
 30 20  2  0  0  0  0
 31 19  2  0  0  0  0
 32 33  1  0  0  0  0
 32 14  1  0  0  0  0
 34 33  1  0  0  0  0
M  END
>  <MODEL>
2

>  <REMARK>
 VINA RESULT:      -9.9      4.463      7.405
  Name = 
  3 active torsions:
  status: ('A' for Active; 'I' for Inactive)
    1  A    between atoms: C_3  and  N_13
    2  A    between atoms: C_3  and  C_25
    3  A    between atoms: C_18  and  C_30
                            x       y       z     vdW  Elec       q    Type
                         _______ _______ _______ _____ _____    ______ ____

>  <TORSDO>
F 3

$$$$
=
 OpenBabel10272415243D

 34 39  0  0  0  0  0  0  0  0999 V2000
  188.5100  177.3210  142.3670 C   0  0  0  0  0  3  0  0  0  0  0  0
  185.9420  177.8750  145.0770 C   0  0  0  0  0  0  0  0  0  0  0  0
  187.5360  176.9480  146.7100 C   0  0  0  0  0  3  0  0  0  0  0  0
  190.8130  177.1120  142.9910 C   0  0  0  0  0  3  0  0  0  0  0  0
  188.1080  177.4920  143.7080 C   0  0  0  0  0  0  0  0  0  0  0  0
  190.4630  177.2560  144.3310 C   0  0  0  0  0  0  0  0  0  0  0  0
  191.1940  177.3180  146.5830 C   0  0  0  0  0  3  0  0  0  0  0  0
  191.4570  177.2690  145.2560 N   0  0  0  0  0  0  0  0  0  0  0  0
  189.8370  177.0990  141.9980 C   0  0  0  0  0  0  0  0  0  0  0  0
  188.8210  177.3120  146.1120 C   0  0  0  0  0  0  0  0  0  0  0  0
  189.0940  177.3610  144.7240 C   0  0  0  0  0  0  0  0  0  0  0  0
  189.8780  177.3070  147.0250 C   0  0  0  0  0  3  0  0  0  0  0  0
  184.6380  178.3890  145.1080 C   0  0  0  0  0  3  0  0  0  0  0  0
  184.1030  179.0820  144.0250 C   0  0  0  0  0  0  0  0  0  0  0  0
  184.8760  179.2760  142.8870 C   0  0  0  0  0  3  0  0  0  0  0  0
  186.3520  177.1770  146.2480 N   0  0  0  0  0  0  0  0  0  0  0  0
  186.1650  178.7530  142.8340 C   0  0  0  0  0  3  0  0  0  0  0  0
  186.7300  178.0340  143.9110 C   0  0  0  0  0  0  0  0  0  0  0  0
  189.5340  176.7420  138.2150 C   0  0  0  0  0  3  0  0  0  0  0  0
  191.5520  176.7130  140.2030 C   0  0  0  0  0  3  0  0  0  0  0  0
  192.8940  176.1840  136.7910 N   0  0  0  0  0  0  0  0  0  0  0  0
  193.8980  175.9430  135.7960 C   0  0  0  0  0  0  0  0  0  0  0  0
  191.4590  176.3290  136.5180 C   0  0  0  0  0  2  0  0  0  0  0  0
  195.1070  175.8190  136.1270 O   0  0  0  0  0  0  0  0  0  0  0  0
  190.8720  176.5470  137.8820 C   0  0  0  0  0  0  0  0  0  0  0  0
  193.5280  175.8340  134.3570 C   0  0  0  0  0  1  0  0  0  0  0  0
  193.1070  176.3130  138.1960 C   0  0  0  0  0  0  0  0  0  0  0  0
  191.8470  176.5340  138.8540 C   0  0  0  0  0  0  0  0  0  0  0  0
  194.2310  176.2410  138.7620 O   0  0  0  0  0  0  0  0  0  0  0  0
  190.2040  176.9140  140.5740 C   0  0  0  0  0  0  0  0  0  0  0  0
  189.2060  176.9250  139.5690 C   0  0  0  0  0  3  0  0  0  0  0  0
  182.7280  179.6450  144.1000 C   0  0  0  0  0  2  0  0  0  0  0  0
  181.9240  179.1320  143.0030 N   0  0  0  0  0  2  0  0  0  0  0  0
  180.6310  178.7860  143.5630 C   0  0  0  0  0  1  0  0  0  0  0  0
  1  5  1  0  0  0  0
  2 13  1  0  0  0  0
  2 16  1  0  0  0  0
  4  6  2  0  0  0  0
  5 18  1  0  0  0  0
  5 11  2  0  0  0  0
  6 11  1  0  0  0  0
  6  8  1  0  0  0  0
  7 12  1  0  0  0  0
  8  7  2  0  0  0  0
  9  1  2  0  0  0  0
  9  4  1  0  0  0  0
 10  3  1  0  0  0  0
 10 12  2  0  0  0  0
 11 10  1  0  0  0  0
 14 32  1  0  0  0  0
 14 13  2  0  0  0  0
 15 14  1  0  0  0  0
 16  3  2  0  0  0  0
 17 15  2  0  0  0  0
 17 18  1  0  0  0  0
 18  2  2  0  0  0  0
 19 31  1  0  0  0  0
 20 30  1  0  0  0  0
 21 27  1  0  0  0  0
 22 24  2  0  0  0  0
 22 21  1  0  0  0  0
 23 21  1  0  0  0  0
 23 25  1  0  0  0  0
 25 19  2  0  0  0  0
 25 28  1  0  0  0  0
 26 22  1  0  0  0  0
 27 29  2  0  0  0  0
 27 28  1  0  0  0  0
 28 20  2  0  0  0  0
 30  9  1  0  0  0  0
 31 30  2  0  0  0  0
 33 34  1  0  0  0  0
 33 32  1  0  0  0  0
M  END
>  <MODEL>
3

>  <REMARK>
 VINA RESULT:      -9.8      3.776      8.638
  Name = 
  3 active torsions:
  status: ('A' for Active; 'I' for Inactive)
    1  A    between atoms: C_3  and  N_13
    2  A    between atoms: C_3  and  C_25
    3  A    between atoms: C_18  and  C_30
                            x       y       z     vdW  Elec       q    Type
                         _______ _______ _______ _____ _____    ______ ____

>  <TORSDO>
F 3

$$$$
=
 OpenBabel10272415243D

 34 39  0  0  0  0  0  0  0  0999 V2000
  187.6000  178.0670  142.6710 C   0  0  0  0  0  3  0  0  0  0  0  0
  191.3620  177.7810  142.7640 C   0  0  0  0  0  0  0  0  0  0  0  0
  191.2780  178.1180  145.2030 C   0  0  0  0  0  3  0  0  0  0  0  0
  186.3670  177.6720  144.6850 C   0  0  0  0  0  3  0  0  0  0  0  0
  188.8310  177.8290  143.3160 C   0  0  0  0  0  0  0  0  0  0  0  0
  187.5580  177.4490  145.3710 C   0  0  0  0  0  0  0  0  0  0  0  0
  188.6000  176.9490  147.4380 C   0  0  0  0  0  3  0  0  0  0  0  0
  187.4880  177.0980  146.6810 N   0  0  0  0  0  0  0  0  0  0  0  0
  186.3760  178.0270  143.3390 C   0  0  0  0  0  0  0  0  0  0  0  0
  189.9730  177.5490  145.5380 C   0  0  0  0  0  0  0  0  0  0  0  0
  188.8190  177.6080  144.7210 C   0  0  0  0  0  0  0  0  0  0  0  0
  189.8480  177.2030  146.8860 C   0  0  0  0  0  3  0  0  0  0  0  0
  192.3590  177.5750  141.8000 C   0  0  0  0  0  3  0  0  0  0  0  0
  192.0460  177.1590  140.5090 C   0  0  0  0  0  0  0  0  0  0  0  0
  190.7190  176.9360  140.1630 C   0  0  0  0  0  3  0  0  0  0  0  0
  191.8250  178.2200  144.0370 N   0  0  0  0  0  0  0  0  0  0  0  0
  189.7170  177.1560  141.1050 C   0  0  0  0  0  3  0  0  0  0  0  0
  190.0020  177.5920  142.4180 C   0  0  0  0  0  0  0  0  0  0  0  0
  182.7040  178.7910  142.6630 C   0  0  0  0  0  3  0  0  0  0  0  0
  185.0810  178.3010  141.2030 C   0  0  0  0  0  3  0  0  0  0  0  0
  182.1520  178.8940  139.0140 N   0  0  0  0  0  0  0  0  0  0  0  0
  181.4410  179.0230  137.7750 C   0  0  0  0  0  0  0  0  0  0  0  0
  181.5480  179.0220  140.3460 C   0  0  0  0  0  2  0  0  0  0  0  0
  182.0430  178.8830  136.6780 O   0  0  0  0  0  0  0  0  0  0  0  0
  182.7070  178.7880  141.2710 C   0  0  0  0  0  0  0  0  0  0  0  0
  179.9820  179.3230  137.7670 C   0  0  0  0  0  1  0  0  0  0  0  0
  183.5430  178.6130  139.1680 C   0  0  0  0  0  0  0  0  0  0  0  0
  183.8670  178.5500  140.5690 C   0  0  0  0  0  0  0  0  0  0  0  0
  184.3520  178.4480  138.2160 O   0  0  0  0  0  0  0  0  0  0  0  0
  185.1110  178.2970  142.6150 C   0  0  0  0  0  0  0  0  0  0  0  0
  183.9130  178.5430  143.3320 C   0  0  0  0  0  3  0  0  0  0  0  0
  193.1290  176.9160  139.5170 C   0  0  0  0  0  2  0  0  0  0  0  0
  192.5500  176.5500  138.2340 N   0  0  0  0  0  2  0  0  0  0  0  0
  193.5060  175.6730  137.5830 C   0  0  0  0  0  1  0  0  0  0  0  0
  1  5  2  0  0  0  0
  1  9  1  0  0  0  0
  2 16  1  0  0  0  0
  3 10  1  0  0  0  0
  4  6  1  0  0  0  0
  5 11  1  0  0  0  0
  6  8  1  0  0  0  0
  8  7  2  0  0  0  0
  9  4  2  0  0  0  0
 10 12  2  0  0  0  0
 11  6  2  0  0  0  0
 11 10  1  0  0  0  0
 12  7  1  0  0  0  0
 13  2  2  0  0  0  0
 14 13  1  0  0  0  0
 15 14  2  0  0  0  0
 15 17  1  0  0  0  0
 16  3  2  0  0  0  0
 17 18  2  0  0  0  0
 18  2  1  0  0  0  0
 18  5  1  0  0  0  0
 19 31  1  0  0  0  0
 20 30  1  0  0  0  0
 21 27  1  0  0  0  0
 21 23  1  0  0  0  0
 22 21  1  0  0  0  0
 23 25  1  0  0  0  0
 24 22  2  0  0  0  0
 25 19  2  0  0  0  0
 26 22  1  0  0  0  0
 27 28  1  0  0  0  0
 28 20  2  0  0  0  0
 28 25  1  0  0  0  0
 29 27  2  0  0  0  0
 30 31  2  0  0  0  0
 30  9  1  0  0  0  0
 32 14  1  0  0  0  0
 33 32  1  0  0  0  0
 34 33  1  0  0  0  0
M  END
>  <MODEL>
4

>  <REMARK>
 VINA RESULT:      -9.8      3.665      8.365
  Name = 
  3 active torsions:
  status: ('A' for Active; 'I' for Inactive)
    1  A    between atoms: C_3  and  N_13
    2  A    between atoms: C_3  and  C_25
    3  A    between atoms: C_18  and  C_30
                            x       y       z     vdW  Elec       q    Type
                         _______ _______ _______ _____ _____    ______ ____

>  <TORSDO>
F 3

$$$$
=
 OpenBabel10272415243D

 34 39  0  0  0  0  0  0  0  0999 V2000
  184.4880  178.0500  140.3740 C   0  0  0  0  0  3  0  0  0  0  0  0
  184.8840  177.3640  136.6840 C   0  0  0  0  0  0  0  0  0  0  0  0
  182.4310  177.2420  136.4930 C   0  0  0  0  0  3  0  0  0  0  0  0
  182.3940  178.8970  141.1680 C   0  0  0  0  0  3  0  0  0  0  0  0
  184.0270  178.0100  139.0420 C   0  0  0  0  0  0  0  0  0  0  0  0
  181.8860  178.8550  139.8720 C   0  0  0  0  0  0  0  0  0  0  0  0
  180.0260  179.2210  138.4510 C   0  0  0  0  0  3  0  0  0  0  0  0
  180.6230  179.3080  139.6630 N   0  0  0  0  0  0  0  0  0  0  0  0
  183.6850  178.4530  141.4410 C   0  0  0  0  0  0  0  0  0  0  0  0
  182.0030  178.1500  137.5570 C   0  0  0  0  0  0  0  0  0  0  0  0
  182.6630  178.3300  138.7960 C   0  0  0  0  0  0  0  0  0  0  0  0
  180.6960  178.6150  137.3970 C   0  0  0  0  0  3  0  0  0  0  0  0
  185.9780  177.2350  135.8170 C   0  0  0  0  0  3  0  0  0  0  0  0
  187.2600  177.6210  136.2020 C   0  0  0  0  0  0  0  0  0  0  0  0
  187.4640  178.1520  137.4700 C   0  0  0  0  0  3  0  0  0  0  0  0
  183.6370  176.9160  136.1640 N   0  0  0  0  0  0  0  0  0  0  0  0
  186.3890  178.2680  138.3480 C   0  0  0  0  0  3  0  0  0  0  0  0
  185.0810  177.8710  137.9920 C   0  0  0  0  0  0  0  0  0  0  0  0
  183.9070  178.9660  145.2110 C   0  0  0  0  0  3  0  0  0  0  0  0
  185.5280  178.0160  143.0910 C   0  0  0  0  0  3  0  0  0  0  0  0
  187.2480  177.9060  146.3700 N   0  0  0  0  0  0  0  0  0  0  0  0
  188.3290  177.6640  147.2810 C   0  0  0  0  0  0  0  0  0  0  0  0
  185.9400  178.4550  146.7480 C   0  0  0  0  0  2  0  0  0  0  0  0
  189.4230  177.2020  146.8610 O   0  0  0  0  0  0  0  0  0  0  0  0
  185.2040  178.5170  145.4410 C   0  0  0  0  0  0  0  0  0  0  0  0
  188.1770  177.9550  148.7340 C   0  0  0  0  0  1  0  0  0  0  0  0
  187.2550  177.6720  144.9630 C   0  0  0  0  0  0  0  0  0  0  0  0
  185.9860  178.0560  144.4060 C   0  0  0  0  0  0  0  0  0  0  0  0
  188.2310  177.2000  144.3190 O   0  0  0  0  0  0  0  0  0  0  0  0
  184.2160  178.4650  142.8240 C   0  0  0  0  0  0  0  0  0  0  0  0
  183.4170  178.9380  143.8950 C   0  0  0  0  0  3  0  0  0  0  0  0
  188.3960  177.5030  135.2480 C   0  0  0  0  0  2  0  0  0  0  0  0
  189.5090  176.8220  135.8890 N   0  0  0  0  0  2  0  0  0  0  0  0
  189.3180  175.4030  135.6520 C   0  0  0  0  0  1  0  0  0  0  0  0
  1  9  1  0  0  0  0
  2 18  1  0  0  0  0
  3 10  1  0  0  0  0
  4  9  2  0  0  0  0
  5  1  2  0  0  0  0
  6  4  1  0  0  0  0
  7  8  2  0  0  0  0
  8  6  1  0  0  0  0
  9 30  1  0  0  0  0
 10 11  1  0  0  0  0
 11  5  1  0  0  0  0
 11  6  2  0  0  0  0
 12 10  2  0  0  0  0
 12  7  1  0  0  0  0
 13 14  1  0  0  0  0
 13  2  2  0  0  0  0
 14 15  2  0  0  0  0
 15 17  1  0  0  0  0
 16  3  2  0  0  0  0
 16  2  1  0  0  0  0
 18 17  2  0  0  0  0
 18  5  1  0  0  0  0
 19 25  1  0  0  0  0
 20 28  1  0  0  0  0
 21 23  1  0  0  0  0
 21 22  1  0  0  0  0
 22 26  1  0  0  0  0
 24 22  2  0  0  0  0
 25 23  1  0  0  0  0
 27 21  1  0  0  0  0
 28 27  1  0  0  0  0
 28 25  2  0  0  0  0
 29 27  2  0  0  0  0
 30 20  2  0  0  0  0
 30 31  1  0  0  0  0
 31 19  2  0  0  0  0
 32 33  1  0  0  0  0
 32 14  1  0  0  0  0
 34 33  1  0  0  0  0
M  END
>  <MODEL>
5

>  <REMARK>
 VINA RESULT:      -9.8      1.734      2.758
  Name = 
  3 active torsions:
  status: ('A' for Active; 'I' for Inactive)
    1  A    between atoms: C_3  and  N_13
    2  A    between atoms: C_3  and  C_25
    3  A    between atoms: C_18  and  C_30
                            x       y       z     vdW  Elec       q    Type
                         _______ _______ _______ _____ _____    ______ ____

>  <TORSDO>
F 3

$$$$
=
 OpenBabel10272415243D

 34 39  0  0  0  0  0  0  0  0999 V2000
  189.2280  177.5470  143.9080 C   0  0  0  0  0  3  0  0  0  0  0  0
  190.0080  177.6160  147.6000 C   0  0  0  0  0  0  0  0  0  0  0  0
  187.8710  178.7810  147.9800 C   0  0  0  0  0  3  0  0  0  0  0  0
  186.9500  177.7880  143.2090 C   0  0  0  0  0  3  0  0  0  0  0  0
  188.8760  177.6510  145.2690 C   0  0  0  0  0  0  0  0  0  0  0  0
  186.5560  177.9170  144.5380 C   0  0  0  0  0  0  0  0  0  0  0  0
  184.7750  178.2620  146.0610 C   0  0  0  0  0  3  0  0  0  0  0  0
  185.2310  178.0450  144.8050 N   0  0  0  0  0  0  0  0  0  0  0  0
  188.2950  177.6460  142.8760 C   0  0  0  0  0  0  0  0  0  0  0  0
  187.0500  178.2630  146.8850 C   0  0  0  0  0  0  0  0  0  0  0  0
  187.5210  177.9390  145.5900 C   0  0  0  0  0  0  0  0  0  0  0  0
  185.6780  178.4050  147.1060 C   0  0  0  0  0  3  0  0  0  0  0  0
  191.0740  177.1650  148.3900 C   0  0  0  0  0  3  0  0  0  0  0  0
  192.0390  176.2980  147.8840 C   0  0  0  0  0  0  0  0  0  0  0  0
  191.9450  175.8610  146.5680 C   0  0  0  0  0  3  0  0  0  0  0  0
  189.1060  178.5110  148.2430 N   0  0  0  0  0  0  0  0  0  0  0  0
  190.9020  176.3170  145.7660 C   0  0  0  0  0  3  0  0  0  0  0  0
  189.9170  177.2090  146.2460 C   0  0  0  0  0  0  0  0  0  0  0  0
  190.4520  177.0100  139.7990 C   0  0  0  0  0  3  0  0  0  0  0  0
  187.8290  177.8820  140.4180 C   0  0  0  0  0  3  0  0  0  0  0  0
  188.4860  177.7950  136.7740 N   0  0  0  0  0  0  0  0  0  0  0  0
  188.1910  177.9610  135.3800 C   0  0  0  0  0  0  0  0  0  0  0  0
  189.7720  177.3340  137.3100 C   0  0  0  0  0  2  0  0  0  0  0  0
  187.0590  178.3750  135.0130 O   0  0  0  0  0  0  0  0  0  0  0  0
  189.5500  177.3540  138.7940 C   0  0  0  0  0  0  0  0  0  0  0  0
  189.2160  177.6480  134.3460 C   0  0  0  0  0  1  0  0  0  0  0  0
  187.6020  178.0520  137.8640 C   0  0  0  0  0  0  0  0  0  0  0  0
  188.2770  177.7760  139.1040 C   0  0  0  0  0  0  0  0  0  0  0  0
  186.4150  178.4590  137.7450 O   0  0  0  0  0  0  0  0  0  0  0  0
  188.7190  177.5410  141.4600 C   0  0  0  0  0  0  0  0  0  0  0  0
  190.0290  177.1070  141.1340 C   0  0  0  0  0  3  0  0  0  0  0  0
  193.1400  175.8100  148.7570 C   0  0  0  0  0  2  0  0  0  0  0  0
  193.8600  176.9400  149.3220 N   0  0  0  0  0  2  0  0  0  0  0  0
  193.9890  176.6800  150.7440 C   0  0  0  0  0  1  0  0  0  0  0  0
  1  5  1  0  0  0  0
  2 16  1  0  0  0  0
  2 13  1  0  0  0  0
  3 16  2  0  0  0  0
  4  6  2  0  0  0  0
  5 11  2  0  0  0  0
  5 18  1  0  0  0  0
  6  8  1  0  0  0  0
  6 11  1  0  0  0  0
  7 12  1  0  0  0  0
  8  7  2  0  0  0  0
  9  4  1  0  0  0  0
  9  1  2  0  0  0  0
 10 12  2  0  0  0  0
 10  3  1  0  0  0  0
 11 10  1  0  0  0  0
 14 13  2  0  0  0  0
 14 32  1  0  0  0  0
 15 14  1  0  0  0  0
 17 18  1  0  0  0  0
 17 15  2  0  0  0  0
 18  2  2  0  0  0  0
 19 31  1  0  0  0  0
 20 30  1  0  0  0  0
 21 23  1  0  0  0  0
 21 27  1  0  0  0  0
 22 21  1  0  0  0  0
 23 25  1  0  0  0  0
 24 22  2  0  0  0  0
 25 28  1  0  0  0  0
 25 19  2  0  0  0  0
 26 22  1  0  0  0  0
 27 28  1  0  0  0  0
 28 20  2  0  0  0  0
 29 27  2  0  0  0  0
 30  9  1  0  0  0  0
 31 30  2  0  0  0  0
 32 33  1  0  0  0  0
 33 34  1  0  0  0  0
M  END
>  <MODEL>
6

>  <REMARK>
 VINA RESULT:      -9.5      4.059      9.547
  Name = 
  3 active torsions:
  status: ('A' for Active; 'I' for Inactive)
    1  A    between atoms: C_3  and  N_13
    2  A    between atoms: C_3  and  C_25
    3  A    between atoms: C_18  and  C_30
                            x       y       z     vdW  Elec       q    Type
                         _______ _______ _______ _____ _____    ______ ____

>  <TORSDO>
F 3

$$$$
=
 OpenBabel10272415243D

 34 39  0  0  0  0  0  0  0  0999 V2000
  186.4530  178.2080  141.4190 C   0  0  0  0  0  3  0  0  0  0  0  0
  185.9160  178.5550  145.1380 C   0  0  0  0  0  0  0  0  0  0  0  0
  183.7310  179.5950  144.6760 C   0  0  0  0  0  3  0  0  0  0  0  0
  184.5450  178.2520  139.9720 C   0  0  0  0  0  3  0  0  0  0  0  0
  185.6520  178.3710  142.5670 C   0  0  0  0  0  0  0  0  0  0  0  0
  183.7140  178.4360  141.0740 C   0  0  0  0  0  0  0  0  0  0  0  0
  181.5060  178.7530  141.8700 C   0  0  0  0  0  3  0  0  0  0  0  0
  182.3730  178.4910  140.8650 N   0  0  0  0  0  0  0  0  0  0  0  0
  185.9270  178.1810  140.1270 C   0  0  0  0  0  0  0  0  0  0  0  0
  183.3580  178.9570  143.4130 C   0  0  0  0  0  0  0  0  0  0  0  0
  184.2580  178.5860  142.3860 C   0  0  0  0  0  0  0  0  0  0  0  0
  181.9890  179.0200  143.1440 C   0  0  0  0  0  3  0  0  0  0  0  0
  186.6640  178.2260  146.2770 C   0  0  0  0  0  3  0  0  0  0  0  0
  187.7800  177.3950  146.1990 C   0  0  0  0  0  0  0  0  0  0  0  0
  188.1610  176.8740  144.9690 C   0  0  0  0  0  3  0  0  0  0  0  0
  184.8110  179.4250  145.3630 N   0  0  0  0  0  0  0  0  0  0  0  0
  187.4380  177.2090  143.8270 C   0  0  0  0  0  3  0  0  0  0  0  0
  186.3120  178.0600  143.8710 C   0  0  0  0  0  0  0  0  0  0  0  0
  187.3240  178.4930  136.5940 C   0  0  0  0  0  3  0  0  0  0  0  0
  187.9840  177.2300  139.0420 C   0  0  0  0  0  3  0  0  0  0  0  0
  190.4480  176.5390  136.3640 N   0  0  0  0  0  0  0  0  0  0  0  0
  191.6200  175.9620  135.7720 C   0  0  0  0  0  0  0  0  0  0  0  0
  189.4910  177.4020  135.6610 C   0  0  0  0  0  2  0  0  0  0  0  0
  192.3770  175.2210  136.4520 O   0  0  0  0  0  0  0  0  0  0  0  0
  188.4680  177.7090  136.7150 C   0  0  0  0  0  0  0  0  0  0  0  0
  191.9580  176.2290  134.3460 C   0  0  0  0  0  1  0  0  0  0  0  0
  190.0070  176.3710  137.7100 C   0  0  0  0  0  0  0  0  0  0  0  0
  188.7820  177.0990  137.9090 C   0  0  0  0  0  0  0  0  0  0  0  0
  190.6080  175.6870  138.5820 O   0  0  0  0  0  0  0  0  0  0  0  0
  186.8160  178.0180  138.9520 C   0  0  0  0  0  0  0  0  0  0  0  0
  186.4980  178.6440  137.7210 C   0  0  0  0  0  3  0  0  0  0  0  0
  188.5340  177.0370  147.4300 C   0  0  0  0  0  2  0  0  0  0  0  0
  189.8550  177.6440  147.3940 N   0  0  0  0  0  2  0  0  0  0  0  0
  190.8130  176.5540  147.4010 C   0  0  0  0  0  1  0  0  0  0  0  0
  1  5  1  0  0  0  0
  2 16  1  0  0  0  0
  2 13  1  0  0  0  0
  3 16  2  0  0  0  0
  4  9  1  0  0  0  0
  4  6  2  0  0  0  0
  5 18  1  0  0  0  0
  6 11  1  0  0  0  0
  7 12  1  0  0  0  0
  8  6  1  0  0  0  0
  8  7  2  0  0  0  0
  9  1  2  0  0  0  0
 10  3  1  0  0  0  0
 11  5  2  0  0  0  0
 11 10  1  0  0  0  0
 12 10  2  0  0  0  0
 14 13  2  0  0  0  0
 14 32  1  0  0  0  0
 15 14  1  0  0  0  0
 17 18  1  0  0  0  0
 17 15  2  0  0  0  0
 18  2  2  0  0  0  0
 19 25  2  0  0  0  0
 19 31  1  0  0  0  0
 21 27  1  0  0  0  0
 22 21  1  0  0  0  0
 22 24  2  0  0  0  0
 23 21  1  0  0  0  0
 23 25  1  0  0  0  0
 25 28  1  0  0  0  0
 26 22  1  0  0  0  0
 27 28  1  0  0  0  0
 27 29  2  0  0  0  0
 28 20  2  0  0  0  0
 30 20  1  0  0  0  0
 30  9  1  0  0  0  0
 31 30  2  0  0  0  0
 33 34  1  0  0  0  0
 33 32  1  0  0  0  0
M  END
>  <MODEL>
7

>  <REMARK>
 VINA RESULT:      -9.2      2.559      7.709
  Name = 
  3 active torsions:
  status: ('A' for Active; 'I' for Inactive)
    1  A    between atoms: C_3  and  N_13
    2  A    between atoms: C_3  and  C_25
    3  A    between atoms: C_18  and  C_30
                            x       y       z     vdW  Elec       q    Type
                         _______ _______ _______ _____ _____    ______ ____

>  <TORSDO>
F 3

$$$$
=
 OpenBabel10272415243D

 34 39  0  0  0  0  0  0  0  0999 V2000
  188.7230  177.6790  143.4270 C   0  0  0  0  0  3  0  0  0  0  0  0
  189.5760  177.6430  147.1040 C   0  0  0  0  0  0  0  0  0  0  0  0
  187.4450  178.7930  147.5590 C   0  0  0  0  0  3  0  0  0  0  0  0
  186.4310  177.9360  142.7810 C   0  0  0  0  0  3  0  0  0  0  0  0
  188.3980  177.7430  144.7980 C   0  0  0  0  0  0  0  0  0  0  0  0
  186.0630  178.0260  144.1210 C   0  0  0  0  0  0  0  0  0  0  0  0
  184.3130  178.3230  145.6880 C   0  0  0  0  0  3  0  0  0  0  0  0
  184.7440  178.1440  144.4180 N   0  0  0  0  0  0  0  0  0  0  0  0
  187.7690  177.8060  142.4180 C   0  0  0  0  0  0  0  0  0  0  0  0
  186.6030  178.3050  146.4660 C   0  0  0  0  0  0  0  0  0  0  0  0
  187.0490  178.0180  145.1540 C   0  0  0  0  0  0  0  0  0  0  0  0
  185.2360  178.4380  146.7190 C   0  0  0  0  0  3  0  0  0  0  0  0
  190.6580  177.1710  147.8590 C   0  0  0  0  0  3  0  0  0  0  0  0
  191.6140  176.3200  147.3090 C   0  0  0  0  0  0  0  0  0  0  0  0
  191.4940  175.9220  145.9840 C   0  0  0  0  0  3  0  0  0  0  0  0
  188.6860  178.5170  147.7900 N   0  0  0  0  0  0  0  0  0  0  0  0
  190.4340  176.3980  145.2150 C   0  0  0  0  0  3  0  0  0  0  0  0
  189.4580  177.2740  145.7410 C   0  0  0  0  0  0  0  0  0  0  0  0
  187.7620  178.3650  138.6470 C   0  0  0  0  0  3  0  0  0  0  0  0
  189.2980  176.9970  140.5950 C   0  0  0  0  0  3  0  0  0  0  0  0
  190.6140  176.5500  137.1610 N   0  0  0  0  0  0  0  0  0  0  0  0
  191.4950  176.0520  136.1450 C   0  0  0  0  0  0  0  0  0  0  0  0
  189.4510  177.4130  136.9160 C   0  0  0  0  0  2  0  0  0  0  0  0
  192.4620  175.3050  136.4510 O   0  0  0  0  0  0  0  0  0  0  0  0
  188.8840  177.6210  138.2890 C   0  0  0  0  0  0  0  0  0  0  0  0
  191.2810  176.4100  134.7150 C   0  0  0  0  0  1  0  0  0  0  0  0
  190.7020  176.2920  138.5620 C   0  0  0  0  0  0  0  0  0  0  0  0
  189.6250  176.9590  139.2420 C   0  0  0  0  0  0  0  0  0  0  0  0
  191.5930  175.5850  139.1060 O   0  0  0  0  0  0  0  0  0  0  0  0
  188.1660  177.7430  140.9910 C   0  0  0  0  0  0  0  0  0  0  0  0
  187.4070  178.4220  140.0050 C   0  0  0  0  0  3  0  0  0  0  0  0
  192.7330  175.8090  148.1460 C   0  0  0  0  0  2  0  0  0  0  0  0
  193.2250  176.8680  149.0110 N   0  0  0  0  0  2  0  0  0  0  0  0
  193.7650  176.2210  150.1930 C   0  0  0  0  0  1  0  0  0  0  0  0
  1  5  1  0  0  0  0
  2 16  1  0  0  0  0
  2 13  1  0  0  0  0
  3 16  2  0  0  0  0
  4  6  2  0  0  0  0
  5 11  2  0  0  0  0
  5 18  1  0  0  0  0
  6  8  1  0  0  0  0
  6 11  1  0  0  0  0
  7 12  1  0  0  0  0
  8  7  2  0  0  0  0
  9  4  1  0  0  0  0
  9  1  2  0  0  0  0
 10 12  2  0  0  0  0
 10  3  1  0  0  0  0
 11 10  1  0  0  0  0
 14 13  2  0  0  0  0
 14 32  1  0  0  0  0
 15 14  1  0  0  0  0
 17 18  1  0  0  0  0
 17 15  2  0  0  0  0
 18  2  2  0  0  0  0
 19 31  1  0  0  0  0
 20 30  1  0  0  0  0
 21 27  1  0  0  0  0
 22 24  2  0  0  0  0
 22 21  1  0  0  0  0
 23 21  1  0  0  0  0
 23 25  1  0  0  0  0
 25 19  2  0  0  0  0
 25 28  1  0  0  0  0
 26 22  1  0  0  0  0
 27 29  2  0  0  0  0
 27 28  1  0  0  0  0
 28 20  2  0  0  0  0
 30  9  1  0  0  0  0
 31 30  2  0  0  0  0
 32 33  1  0  0  0  0
 33 34  1  0  0  0  0
M  END
>  <MODEL>
8

>  <REMARK>
 VINA RESULT:      -9.2      3.604      8.968
  Name = 
  3 active torsions:
  status: ('A' for Active; 'I' for Inactive)
    1  A    between atoms: C_3  and  N_13
    2  A    between atoms: C_3  and  C_25
    3  A    between atoms: C_18  and  C_30
                            x       y       z     vdW  Elec       q    Type
                         _______ _______ _______ _____ _____    ______ ____

>  <TORSDO>
F 3

$$$$
=
 OpenBabel10272415243D

 34 39  0  0  0  0  0  0  0  0999 V2000
  188.6330  177.4150  142.5380 C   0  0  0  0  0  3  0  0  0  0  0  0
  185.5590  177.9050  144.6730 C   0  0  0  0  0  0  0  0  0  0  0  0
  186.8570  177.1520  146.6280 C   0  0  0  0  0  3  0  0  0  0  0  0
  190.7790  177.3850  143.6010 C   0  0  0  0  0  3  0  0  0  0  0  0
  187.9690  177.6120  143.7660 C   0  0  0  0  0  0  0  0  0  0  0  0
  190.1670  177.5580  144.8400 C   0  0  0  0  0  0  0  0  0  0  0  0
  190.4430  177.7590  147.1840 C   0  0  0  0  0  3  0  0  0  0  0  0
  190.9600  177.6750  145.9360 N   0  0  0  0  0  0  0  0  0  0  0  0
  190.0160  177.2660  142.4420 C   0  0  0  0  0  0  0  0  0  0  0  0
  188.2110  177.5760  146.2680 C   0  0  0  0  0  0  0  0  0  0  0  0
  188.7450  177.5880  144.9580 C   0  0  0  0  0  0  0  0  0  0  0  0
  189.0690  177.6780  147.3660 C   0  0  0  0  0  3  0  0  0  0  0  0
  184.2470  178.3320  144.4280 C   0  0  0  0  0  3  0  0  0  0  0  0
  183.8940  178.9430  143.2280 C   0  0  0  0  0  0  0  0  0  0  0  0
  184.8600  179.1420  142.2500 C   0  0  0  0  0  3  0  0  0  0  0  0
  185.7740  177.2830  145.9360 N   0  0  0  0  0  0  0  0  0  0  0  0
  186.1640  178.7050  142.4720 C   0  0  0  0  0  3  0  0  0  0  0  0
  186.5490  178.0690  143.6730 C   0  0  0  0  0  0  0  0  0  0  0  0
  192.6460  177.2190  139.6830 C   0  0  0  0  0  3  0  0  0  0  0  0
  189.9340  176.4910  140.0530 C   0  0  0  0  0  3  0  0  0  0  0  0
  191.1440  175.8110  136.6190 N   0  0  0  0  0  0  0  0  0  0  0  0
  191.0540  175.3790  135.2540 C   0  0  0  0  0  0  0  0  0  0  0  0
  192.3470  176.3750  137.2430 C   0  0  0  0  0  2  0  0  0  0  0  0
  189.9730  174.9190  134.8020 O   0  0  0  0  0  0  0  0  0  0  0  0
  191.9000  176.6670  138.6450 C   0  0  0  0  0  0  0  0  0  0  0  0
  192.2360  175.4670  134.3520 C   0  0  0  0  0  1  0  0  0  0  0  0
  190.0980  175.7810  137.5880 C   0  0  0  0  0  0  0  0  0  0  0  0
  190.5830  176.3150  138.8330 C   0  0  0  0  0  0  0  0  0  0  0  0
  188.9330  175.3510  137.3740 O   0  0  0  0  0  0  0  0  0  0  0  0
  190.6630  177.0490  141.1260 C   0  0  0  0  0  0  0  0  0  0  0  0
  192.0200  177.4090  140.9260 C   0  0  0  0  0  3  0  0  0  0  0  0
  182.5000  179.4160  143.0090 C   0  0  0  0  0  2  0  0  0  0  0  0
  181.5940  178.7090  143.8990 N   0  0  0  0  0  2  0  0  0  0  0  0
  180.2910  178.7220  143.2610 C   0  0  0  0  0  1  0  0  0  0  0  0
  1  5  1  0  0  0  0
  2 16  1  0  0  0  0
  4  6  2  0  0  0  0
  5 11  2  0  0  0  0
  6 11  1  0  0  0  0
  6  8  1  0  0  0  0
  7 12  1  0  0  0  0
  8  7  2  0  0  0  0
  9  1  2  0  0  0  0
  9  4  1  0  0  0  0
 10  3  1  0  0  0  0
 10 12  2  0  0  0  0
 11 10  1  0  0  0  0
 13  2  1  0  0  0  0
 14 13  2  0  0  0  0
 15 17  2  0  0  0  0
 15 14  1  0  0  0  0
 16  3  2  0  0  0  0
 17 18  1  0  0  0  0
 18  5  1  0  0  0  0
 18  2  2  0  0  0  0
 19 31  1  0  0  0  0
 20 30  1  0  0  0  0
 21 23  1  0  0  0  0
 21 27  1  0  0  0  0
 22 21  1  0  0  0  0
 23 25  1  0  0  0  0
 24 22  2  0  0  0  0
 25 28  1  0  0  0  0
 25 19  2  0  0  0  0
 26 22  1  0  0  0  0
 27 28  1  0  0  0  0
 28 20  2  0  0  0  0
 29 27  2  0  0  0  0
 30  9  1  0  0  0  0
 31 30  2  0  0  0  0
 32 14  1  0  0  0  0
 32 33  1  0  0  0  0
 34 33  1  0  0  0  0
M  END
>  <MODEL>
9

>  <REMARK>
 VINA RESULT:      -9.0      3.573      8.439
  Name = 
  3 active torsions:
  status: ('A' for Active; 'I' for Inactive)
    1  A    between atoms: C_3  and  N_13
    2  A    between atoms: C_3  and  C_25
    3  A    between atoms: C_18  and  C_30
                            x       y       z     vdW  Elec       q    Type
                         _______ _______ _______ _____ _____    ______ ____

>  <TORSDO>
F 3

$$$$
