=
 OpenBabel10272413223D

 32 38  0  0  1  0  0  0  0  0999 V2000
  186.1950  177.7190  144.4930 C   0  0  0  0  0  2  0  0  0  0  0  0
  189.1930  177.5830  140.1330 C   0  0  0  0  0  0  0  0  0  0  0  0
  184.9710  177.1790  137.7200 C   0  0  0  0  0  3  0  0  0  0  0  0
  185.5700  176.2630  136.9590 C   0  0  0  0  0  3  0  0  0  0  0  0
  191.3110  176.8440  139.1150 C   0  0  0  0  0  0  0  0  0  0  0  0
  191.9930  176.2290  138.0590 C   0  0  0  0  0  0  0  0  0  0  0  0
  188.5890  177.6060  142.5690 C   0  0  1  0  0  3  0  0  0  0  0  0
  187.1870  178.9230  140.9820 C   0  0  0  0  0  2  0  0  0  0  0  0
  192.1160  175.1650  135.8840 C   0  0  2  0  0  3  0  0  0  0  0  0
  186.3220  178.5800  143.2460 C   0  0  0  0  0  2  0  0  0  0  0  0
  185.7690  178.1420  138.5520 C   0  0  0  0  0  2  0  0  0  0  0  0
  187.9680  178.3910  139.7720 C   0  0  2  0  0  3  0  0  0  0  0  0
  187.1250  177.6460  138.8290 N   0  0  0  0  0  0  0  0  0  0  0  0
  189.2450  176.5800  137.9360 C   0  0  0  0  0  0  0  0  0  0  0  0
  193.8130  174.9970  136.5410 S   0  0  0  0  0  0  0  0  0  0  0  0
  188.5410  176.8790  145.0100 C   0  0  0  0  0  2  0  0  0  0  0  0
  187.1470  177.9290  142.1350 C   0  0  2  0  0  3  0  0  0  0  0  0
  193.4570  175.9980  138.0280 C   0  0  0  0  0  2  0  0  0  0  0  0
  188.5910  176.4380  143.5470 C   0  0  0  0  0  2  0  0  0  0  0  0
  187.4480  177.8960  145.3440 C   0  0  2  0  0  3  0  0  0  0  0  0
  187.0300  176.1090  136.9780 C   0  0  0  0  0  3  0  0  0  0  0  0
  187.7720  176.7740  137.8720 C   0  0  0  0  0  0  0  0  0  0  0  0
  189.9230  175.9650  136.8710 C   0  0  0  0  0  3  0  0  0  0  0  0
  189.4230  177.1880  141.3940 C   0  0  0  0  0  3  0  0  0  0  0  0
  191.9610  177.2580  140.1150 O   0  0  0  0  0  0  0  0  0  0  0  0
  192.1460  176.0460  134.6490 C   0  0  0  0  0  1  0  0  0  0  0  0
  189.9450  177.0000  139.0460 N   0  0  0  0  0  0  0  0  0  0  0  0
  191.3020  175.8010  136.9490 C   0  0  0  0  0  0  0  0  0  0  0  0
  187.1080  177.7900  146.8200 C   0  0  0  0  0  2  0  0  0  0  0  0
  188.3080  177.3000  147.6090 C   0  0  0  0  0  3  0  0  0  0  0  0
  188.1580  177.6410  148.9340 O   0  0  0  0  0  0  0  0  0  0  0  0
  188.9670  178.3770  148.1570 O   0  0  0  0  0  0  0  0  0  0  0  0
  1 20  1  0  0  0  0
  2 24  2  0  0  0  0
  3 11  1  0  0  0  0
  4 21  1  0  0  0  0
  4  3  2  0  0  0  0
  5 25  2  0  0  0  0
  6  5  1  0  0  0  0
  7 24  1  6  0  0  0
  7 19  1  0  0  0  0
  9 26  1  6  0  0  0
  9 15  1  0  0  0  0
  9 28  1  0  0  0  0
 10  1  1  0  0  0  0
 11 13  1  0  0  0  0
 12  2  1  0  0  0  0
 12  8  1  1  0  0  0
 13 12  1  0  0  0  0
 14 27  1  0  0  0  0
 15 18  1  0  0  0  0
 16 20  1  0  0  0  0
 17  8  1  6  0  0  0
 17  7  1  0  0  0  0
 17 10  1  0  0  0  0
 18  6  1  0  0  0  0
 19 16  1  0  0  0  0
 20 29  1  1  0  0  0
 21 22  2  0  0  0  0
 22 14  1  0  0  0  0
 22 13  1  0  0  0  0
 23 28  1  0  0  0  0
 23 14  2  0  0  0  0
 27  5  1  0  0  0  0
 27  2  1  0  0  0  0
 28  6  2  0  0  0  0
 29 30  1  0  0  0  0
 30 32  1  0  0  0  0
 30 31  1  0  0  0  0
 32 31  1  0  0  0  0
M  END
>  <MODEL>
1

>  <REMARK>
 VINA RESULT:      -9.5      0.000      0.000
  Name = 
  2 active torsions:
  status: ('A' for Active; 'I' for Inactive)
    1  A    between atoms: C_1  and  C_10
    2  A    between atoms: C_10  and  C_24
                            x       y       z     vdW  Elec       q    Type
                         _______ _______ _______ _____ _____    ______ ____

>  <TORSDO>
F 2

$$$$
=
 OpenBabel10272413223D

 32 38  0  0  1  0  0  0  0  0999 V2000
  186.6280  177.7830  146.6070 C   0  0  0  0  0  2  0  0  0  0  0  0
  184.8600  178.6590  141.6950 C   0  0  0  0  0  0  0  0  0  0  0  0
  180.4130  178.5580  143.7020 C   0  0  0  0  0  3  0  0  0  0  0  0
  180.0260  177.8410  142.6470 C   0  0  0  0  0  3  0  0  0  0  0  0
  185.1750  178.2340  139.2890 C   0  0  0  0  0  0  0  0  0  0  0  0
  184.6400  177.8750  138.0460 C   0  0  0  0  0  0  0  0  0  0  0  0
  186.4640  178.1650  143.5610 C   0  0  1  0  0  3  0  0  0  0  0  0
  184.5580  179.7100  144.0070 C   0  0  0  0  0  2  0  0  0  0  0  0
  182.8230  177.2750  136.5580 C   0  0  2  0  0  3  0  0  0  0  0  0
  185.8210  178.8810  145.9330 C   0  0  0  0  0  2  0  0  0  0  0  0
  181.6770  179.3700  143.6700 C   0  0  0  0  0  2  0  0  0  0  0  0
  183.9690  179.4670  142.6100 C   0  0  2  0  0  3  0  0  0  0  0  0
  182.6200  178.8890  142.6490 N   0  0  0  0  0  0  0  0  0  0  0  0
  182.9910  178.1200  140.2620 C   0  0  0  0  0  0  0  0  0  0  0  0
  184.3150  177.0550  135.5250 S   0  0  0  0  0  0  0  0  0  0  0  0
  188.2920  176.9620  144.8650 C   0  0  0  0  0  2  0  0  0  0  0  0
  185.3210  178.5040  144.5370 C   0  0  2  0  0  3  0  0  0  0  0  0
  185.4370  177.7210  136.8050 C   0  0  0  0  0  2  0  0  0  0  0  0
  187.0880  176.8260  143.9330 C   0  0  0  0  0  2  0  0  0  0  0  0
  188.0630  177.8410  146.0960 C   0  0  2  0  0  3  0  0  0  0  0  0
  180.8700  177.7520  141.4490 C   0  0  0  0  0  3  0  0  0  0  0  0
  182.1090  178.2570  141.4510 C   0  0  0  0  0  0  0  0  0  0  0  0
  182.4470  177.7620  139.0180 C   0  0  0  0  0  3  0  0  0  0  0  0
  185.9500  178.0300  142.1580 C   0  0  0  0  0  3  0  0  0  0  0  0
  186.4120  178.4680  139.3880 O   0  0  0  0  0  0  0  0  0  0  0  0
  181.9720  178.3870  135.9730 C   0  0  0  0  0  1  0  0  0  0  0  0
  184.3460  178.3400  140.3840 N   0  0  0  0  0  0  0  0  0  0  0  0
  183.2900  177.6470  137.9170 C   0  0  0  0  0  0  0  0  0  0  0  0
  189.0340  177.4260  147.1880 C   0  0  0  0  0  2  0  0  0  0  0  0
  190.3310  176.9200  146.5830 C   0  0  0  0  0  3  0  0  0  0  0  0
  190.9330  176.0430  147.4550 O   0  0  0  0  0  0  0  0  0  0  0  0
  191.3870  177.3020  147.3770 O   0  0  0  0  0  0  0  0  0  0  0  0
  2 24  2  0  0  0  0
  2 12  1  0  0  0  0
  4  3  2  0  0  0  0
  5 25  2  0  0  0  0
  5 27  1  0  0  0  0
  6  5  1  0  0  0  0
  7 24  1  6  0  0  0
  7 19  1  0  0  0  0
  7 17  1  0  0  0  0
  9 26  1  6  0  0  0
  9 28  1  0  0  0  0
 10  1  1  0  0  0  0
 11  3  1  0  0  0  0
 12 13  1  0  0  0  0
 12  8  1  1  0  0  0
 13 11  1  0  0  0  0
 14 27  1  0  0  0  0
 14 22  1  0  0  0  0
 15  9  1  0  0  0  0
 15 18  1  0  0  0  0
 16 20  1  0  0  0  0
 17  8  1  6  0  0  0
 17 10  1  0  0  0  0
 18  6  1  0  0  0  0
 19 16  1  0  0  0  0
 20  1  1  0  0  0  0
 20 29  1  1  0  0  0
 21 22  2  0  0  0  0
 21  4  1  0  0  0  0
 22 13  1  0  0  0  0
 23 14  2  0  0  0  0
 27  2  1  0  0  0  0
 28  6  2  0  0  0  0
 28 23  1  0  0  0  0
 30 29  1  0  0  0  0
 30 32  1  0  0  0  0
 30 31  1  0  0  0  0
 32 31  1  0  0  0  0
M  END
>  <MODEL>
2

>  <REMARK>
 VINA RESULT:      -9.5      4.325      6.021
  Name = 
  2 active torsions:
  status: ('A' for Active; 'I' for Inactive)
    1  A    between atoms: C_1  and  C_10
    2  A    between atoms: C_10  and  C_24
                            x       y       z     vdW  Elec       q    Type
                         _______ _______ _______ _____ _____    ______ ____

>  <TORSDO>
F 2

$$$$
=
 OpenBabel10272413223D

 32 38  0  0  1  0  0  0  0  0999 V2000
  185.7250  177.6910  145.9340 C   0  0  0  0  0  2  0  0  0  0  0  0
  186.3010  178.5860  140.7480 C   0  0  0  0  0  0  0  0  0  0  0  0
  181.5280  177.6130  140.4520 C   0  0  0  0  0  3  0  0  0  0  0  0
  181.8070  176.9130  139.3520 C   0  0  0  0  0  3  0  0  0  0  0  0
  187.7620  178.3810  138.7760 C   0  0  0  0  0  0  0  0  0  0  0  0
  187.9350  178.0220  137.4340 C   0  0  0  0  0  0  0  0  0  0  0  0
  186.9210  178.2430  143.1560 C   0  0  1  0  0  3  0  0  0  0  0  0
  184.7830  179.4150  142.6320 C   0  0  0  0  0  2  0  0  0  0  0  0
  187.1510  177.2290  135.2820 C   0  0  2  0  0  3  0  0  0  0  0  0
  185.1390  178.6820  144.9400 C   0  0  0  0  0  2  0  0  0  0  0  0
  182.4970  178.6240  140.9970 C   0  0  0  0  0  2  0  0  0  0  0  0
  184.9600  179.1710  141.1270 C   0  0  2  0  0  3  0  0  0  0  0  0
  183.8730  178.3760  140.5440 N   0  0  0  0  0  0  0  0  0  0  0  0
  185.4350  177.8410  138.6200 C   0  0  0  0  0  0  0  0  0  0  0  0
  188.9630  177.3300  135.0680 S   0  0  0  0  0  0  0  0  0  0  0  0
  188.1210  177.2770  145.1840 C   0  0  0  0  0  2  0  0  0  0  0  0
  185.4170  178.3210  143.4800 C   0  0  2  0  0  3  0  0  0  0  0  0
  189.2280  178.0860  136.7100 C   0  0  0  0  0  2  0  0  0  0  0  0
  187.5300  177.0050  143.8010 C   0  0  0  0  0  2  0  0  0  0  0  0
  187.1970  178.0220  146.1500 C   0  0  2  0  0  3  0  0  0  0  0  0
  183.1100  177.0460  138.6870 C   0  0  0  0  0  3  0  0  0  0  0  0
  184.0950  177.7490  139.2580 C   0  0  0  0  0  0  0  0  0  0  0  0
  185.6020  177.4810  137.2720 C   0  0  0  0  0  3  0  0  0  0  0  0
  187.1460  178.1180  141.6780 C   0  0  0  0  0  3  0  0  0  0  0  0
  188.7480  178.8110  139.4360 O   0  0  0  0  0  0  0  0  0  0  0  0
  186.4830  178.2200  134.3460 C   0  0  0  0  0  1  0  0  0  0  0  0
  186.5170  178.2750  139.3550 N   0  0  0  0  0  0  0  0  0  0  0  0
  186.8620  177.5820  136.6940 C   0  0  0  0  0  0  0  0  0  0  0  0
  187.6100  177.7020  147.5760 C   0  0  0  0  0  2  0  0  0  0  0  0
  188.8990  178.4210  147.9300 C   0  0  0  0  0  3  0  0  0  0  0  0
  189.8800  177.4960  148.2080 O   0  0  0  0  0  0  0  0  0  0  0  0
  189.2560  178.1130  149.2230 O   0  0  0  0  0  0  0  0  0  0  0  0
  1 20  1  0  0  0  0
  2 12  1  0  0  0  0
  2 24  2  0  0  0  0
  3 11  1  0  0  0  0
  4  3  2  0  0  0  0
  5 27  1  0  0  0  0
  5 25  2  0  0  0  0
  6  5  1  0  0  0  0
  7 24  1  6  0  0  0
  7 17  1  0  0  0  0
  7 19  1  0  0  0  0
  9 26  1  6  0  0  0
  9 28  1  0  0  0  0
 10  1  1  0  0  0  0
 12  8  1  1  0  0  0
 13 11  1  0  0  0  0
 13 12  1  0  0  0  0
 14 22  1  0  0  0  0
 14 27  1  0  0  0  0
 15  9  1  0  0  0  0
 15 18  1  0  0  0  0
 16 20  1  0  0  0  0
 17  8  1  6  0  0  0
 17 10  1  0  0  0  0
 18  6  1  0  0  0  0
 19 16  1  0  0  0  0
 20 29  1  1  0  0  0
 21 22  2  0  0  0  0
 21  4  1  0  0  0  0
 22 13  1  0  0  0  0
 23 14  2  0  0  0  0
 27  2  1  0  0  0  0
 28 23  1  0  0  0  0
 28  6  2  0  0  0  0
 29 30  1  0  0  0  0
 30 31  1  0  0  0  0
 30 32  1  0  0  0  0
 31 32  1  0  0  0  0
M  END
>  <MODEL>
3

>  <REMARK>
 VINA RESULT:      -9.3      2.448      3.585
  Name = 
  2 active torsions:
  status: ('A' for Active; 'I' for Inactive)
    1  A    between atoms: C_1  and  C_10
    2  A    between atoms: C_10  and  C_24
                            x       y       z     vdW  Elec       q    Type
                         _______ _______ _______ _____ _____    ______ ____

>  <TORSDO>
F 2

$$$$
=
 OpenBabel10272413223D

 32 38  0  0  1  0  0  0  0  0999 V2000
  187.4480  177.5420  143.4090 C   0  0  0  0  0  2  0  0  0  0  0  0
  190.7550  176.8930  139.3260 C   0  0  0  0  0  0  0  0  0  0  0  0
  186.7340  175.9310  136.7330 C   0  0  0  0  0  3  0  0  0  0  0  0
  187.4190  174.9400  136.1620 C   0  0  0  0  0  3  0  0  0  0  0  0
  192.9660  176.1100  138.5740 C   0  0  0  0  0  0  0  0  0  0  0  0
  193.7440  175.3770  137.6700 C   0  0  0  0  0  0  0  0  0  0  0  0
  189.9770  177.2540  141.6840 C   0  0  1  0  0  3  0  0  0  0  0  0
  188.6450  178.2490  139.8270 C   0  0  0  0  0  2  0  0  0  0  0  0
  194.0620  174.0040  135.6980 C   0  0  2  0  0  3  0  0  0  0  0  0
  187.6320  178.2100  142.0550 C   0  0  0  0  0  2  0  0  0  0  0  0
  187.4350  177.0450  137.4570 C   0  0  0  0  0  2  0  0  0  0  0  0
  189.5290  177.5790  138.7660 C   0  0  2  0  0  3  0  0  0  0  0  0
  188.7840  176.6610  137.8950 N   0  0  0  0  0  0  0  0  0  0  0  0
  191.0010  175.5750  137.3160 C   0  0  0  0  0  0  0  0  0  0  0  0
  195.7130  174.0180  136.4820 S   0  0  0  0  0  0  0  0  0  0  0  0
  189.7810  176.9010  144.1990 C   0  0  0  0  0  2  0  0  0  0  0  0
  188.5590  177.4390  141.1130 C   0  0  2  0  0  3  0  0  0  0  0  0
  195.2140  175.2140  137.7710 C   0  0  0  0  0  2  0  0  0  0  0  0
  189.9520  176.2480  142.8280 C   0  0  0  0  0  2  0  0  0  0  0  0
  188.6300  177.9040  144.3020 C   0  0  2  0  0  3  0  0  0  0  0  0
  188.8790  174.8600  136.3000 C   0  0  0  0  0  3  0  0  0  0  0  0
  189.5300  175.6870  137.1270 C   0  0  0  0  0  0  0  0  0  0  0  0
  191.7750  174.8390  136.4050 C   0  0  0  0  0  3  0  0  0  0  0  0
  190.9080  176.7040  140.6440 C   0  0  0  0  0  3  0  0  0  0  0  0
  193.5260  176.7000  139.5380 O   0  0  0  0  0  0  0  0  0  0  0  0
  194.1480  174.6900  134.3460 C   0  0  0  0  0  1  0  0  0  0  0  0
  191.6030  176.1900  138.3920 N   0  0  0  0  0  0  0  0  0  0  0  0
  193.1500  174.7540  136.5970 C   0  0  0  0  0  0  0  0  0  0  0  0
  188.1890  178.0050  145.7510 C   0  0  0  0  0  2  0  0  0  0  0  0
  186.6890  177.8090  145.8670 C   0  0  0  0  0  3  0  0  0  0  0  0
  186.1010  178.9860  146.2690 O   0  0  0  0  0  0  0  0  0  0  0  0
  186.2980  178.0130  147.1700 O   0  0  0  0  0  0  0  0  0  0  0  0
  1 20  1  0  0  0  0
  2 24  2  0  0  0  0
  3 11  1  0  0  0  0
  4 21  1  0  0  0  0
  4  3  2  0  0  0  0
  5 25  2  0  0  0  0
  6 18  1  0  0  0  0
  6  5  1  0  0  0  0
  7 24  1  6  0  0  0
  7 19  1  0  0  0  0
  9 26  1  6  0  0  0
  9 15  1  0  0  0  0
  9 28  1  0  0  0  0
 10  1  1  0  0  0  0
 11 13  1  0  0  0  0
 12  2  1  0  0  0  0
 12  8  1  1  0  0  0
 13 12  1  0  0  0  0
 14 27  1  0  0  0  0
 15 18  1  0  0  0  0
 16 20  1  0  0  0  0
 17  8  1  6  0  0  0
 17  7  1  0  0  0  0
 17 10  1  0  0  0  0
 19 16  1  0  0  0  0
 20 29  1  1  0  0  0
 21 22  2  0  0  0  0
 22 14  1  0  0  0  0
 22 13  1  0  0  0  0
 23 28  1  0  0  0  0
 23 14  2  0  0  0  0
 27  5  1  0  0  0  0
 27  2  1  0  0  0  0
 28  6  2  0  0  0  0
 29 30  1  0  0  0  0
 30 31  1  0  0  0  0
 30 32  1  0  0  0  0
 31 32  1  0  0  0  0
M  END
>  <MODEL>
4

>  <REMARK>
 VINA RESULT:      -8.4      1.516      2.113
  Name = 
  2 active torsions:
  status: ('A' for Active; 'I' for Inactive)
    1  A    between atoms: C_1  and  C_10
    2  A    between atoms: C_10  and  C_24
                            x       y       z     vdW  Elec       q    Type
                         _______ _______ _______ _____ _____    ______ ____

>  <TORSDO>
F 2

$$$$
=
 OpenBabel10272413223D

 32 38  0  0  1  0  0  0  0  0999 V2000
  192.3680  174.8570  137.3070 C   0  0  0  0  0  2  0  0  0  0  0  0
  188.8550  177.7360  140.0270 C   0  0  0  0  0  0  0  0  0  0  0  0
  191.5710  176.6390  143.9300 C   0  0  0  0  0  3  0  0  0  0  0  0
  190.4280  176.4430  144.5880 C   0  0  0  0  0  3  0  0  0  0  0  0
  186.5000  178.4130  140.2710 C   0  0  0  0  0  0  0  0  0  0  0  0
  185.3810  178.6170  141.0870 C   0  0  0  0  0  0  0  0  0  0  0  0
  189.9090  176.5250  138.0980 C   0  0  1  0  0  3  0  0  0  0  0  0
  191.3960  177.6630  139.7450 C   0  0  0  0  0  2  0  0  0  0  0  0
  184.2340  178.6740  143.2220 C   0  0  2  0  0  3  0  0  0  0  0  0
  192.4350  176.1150  138.1590 C   0  0  0  0  0  2  0  0  0  0  0  0
  191.6070  177.4200  142.6470 C   0  0  0  0  0  2  0  0  0  0  0  0
  190.2050  178.0370  140.6380 C   0  0  2  0  0  3  0  0  0  0  0  0
  190.2950  177.4610  141.9850 N   0  0  0  0  0  0  0  0  0  0  0  0
  187.7950  177.8220  142.1960 C   0  0  0  0  0  0  0  0  0  0  0  0
  182.8990  178.9710  142.0090 S   0  0  0  0  0  0  0  0  0  0  0  0
  190.1150  174.9280  136.1250 C   0  0  0  0  0  2  0  0  0  0  0  0
  191.1660  176.3700  138.9750 C   0  0  2  0  0  3  0  0  0  0  0  0
  184.0500  179.0440  140.5910 C   0  0  0  0  0  2  0  0  0  0  0  0
  189.5150  175.1770  137.5080 C   0  0  0  0  0  2  0  0  0  0  0  0
  191.6220  175.1740  136.0170 C   0  0  2  0  0  3  0  0  0  0  0  0
  189.1530  176.9110  144.0310 C   0  0  0  0  0  3  0  0  0  0  0  0
  189.0920  177.4000  142.7870 C   0  0  0  0  0  0  0  0  0  0  0  0
  186.6760  178.0270  143.0200 C   0  0  0  0  0  3  0  0  0  0  0  0
  188.7420  177.0000  138.9120 C   0  0  0  0  0  3  0  0  0  0  0  0
  186.4070  178.6170  139.0290 O   0  0  0  0  0  0  0  0  0  0  0  0
  184.3950  179.9040  144.0960 C   0  0  0  0  0  1  0  0  0  0  0  0
  187.6890  178.0070  140.8340 N   0  0  0  0  0  0  0  0  0  0  0  0
  185.4750  178.4290  142.4460 C   0  0  0  0  0  0  0  0  0  0  0  0
  192.1760  174.3530  134.8660 C   0  0  0  0  0  2  0  0  0  0  0  0
  192.9220  173.1400  135.3890 C   0  0  0  0  0  3  0  0  0  0  0  0
  193.1440  172.2570  134.3570 O   0  0  0  0  0  0  0  0  0  0  0  0
  192.1460  172.0160  135.2200 O   0  0  0  0  0  0  0  0  0  0  0  0
  1 10  1  0  0  0  0
  2 12  1  0  0  0  0
  2 27  1  0  0  0  0
  3  4  2  0  0  0  0
  5 27  1  0  0  0  0
  5  6  1  0  0  0  0
  6 28  2  0  0  0  0
  7 19  1  1  0  0  0
  7 24  1  0  0  0  0
  7 17  1  0  0  0  0
  9 26  1  1  0  0  0
 11  3  1  0  0  0  0
 12  8  1  6  0  0  0
 12 13  1  0  0  0  0
 13 11  1  0  0  0  0
 13 22  1  0  0  0  0
 14 22  1  0  0  0  0
 14 23  2  0  0  0  0
 15  9  1  0  0  0  0
 16 19  1  0  0  0  0
 17 10  1  6  0  0  0
 17  8  1  0  0  0  0
 18  6  1  0  0  0  0
 18 15  1  0  0  0  0
 20 29  1  6  0  0  0
 20 16  1  0  0  0  0
 20  1  1  0  0  0  0
 21  4  1  0  0  0  0
 22 21  2  0  0  0  0
 24  2  2  0  0  0  0
 25  5  2  0  0  0  0
 27 14  1  0  0  0  0
 28 23  1  0  0  0  0
 28  9  1  0  0  0  0
 29 30  1  0  0  0  0
 31 32  1  0  0  0  0
 31 30  1  0  0  0  0
 32 30  1  0  0  0  0
M  END
>  <MODEL>
5

>  <REMARK>
 VINA RESULT:      -8.0      3.922      8.827
  Name = 
  2 active torsions:
  status: ('A' for Active; 'I' for Inactive)
    1  A    between atoms: C_1  and  C_10
    2  A    between atoms: C_10  and  C_24
                            x       y       z     vdW  Elec       q    Type
                         _______ _______ _______ _____ _____    ______ ____

>  <TORSDO>
F 2

$$$$
=
 OpenBabel10272413223D

 32 38  0  0  1  0  0  0  0  0999 V2000
  190.1560  176.7560  145.5410 C   0  0  0  0  0  2  0  0  0  0  0  0
  188.9270  177.9470  140.5310 C   0  0  0  0  0  0  0  0  0  0  0  0
  184.5220  179.0850  142.2980 C   0  0  0  0  0  3  0  0  0  0  0  0
  184.0090  178.4700  141.2320 C   0  0  0  0  0  3  0  0  0  0  0  0
  189.2340  177.3930  138.1510 C   0  0  0  0  0  0  0  0  0  0  0  0
  188.6840  177.1580  136.8850 C   0  0  0  0  0  0  0  0  0  0  0  0
  190.2480  177.0910  142.4860 C   0  0  1  0  0  3  0  0  0  0  0  0
  188.8040  179.0990  142.8110 C   0  0  0  0  0  2  0  0  0  0  0  0
  186.8470  177.0270  135.3090 C   0  0  2  0  0  3  0  0  0  0  0  0
  189.7050  178.0120  144.8110 C   0  0  0  0  0  2  0  0  0  0  0  0
  185.9580  179.5290  142.3240 C   0  0  0  0  0  2  0  0  0  0  0  0
  188.2410  178.9860  141.3880 C   0  0  2  0  0  3  0  0  0  0  0  0
  186.7860  178.7900  141.3610 N   0  0  0  0  0  0  0  0  0  0  0  0
  187.0540  177.8900  139.0060 C   0  0  0  0  0  0  0  0  0  0  0  0
  188.2740  176.3920  134.3600 S   0  0  0  0  0  0  0  0  0  0  0  0
  191.6220  175.4780  143.9000 C   0  0  0  0  0  2  0  0  0  0  0  0
  189.1910  177.7460  143.3950 C   0  0  2  0  0  3  0  0  0  0  0  0
  189.4690  176.7670  135.6900 C   0  0  0  0  0  2  0  0  0  0  0  0
  190.4720  175.6440  142.9060 C   0  0  0  0  0  2  0  0  0  0  0  0
  191.5770  176.4170  145.1060 C   0  0  2  0  0  3  0  0  0  0  0  0
  184.8560  178.1290  140.0820 C   0  0  0  0  0  3  0  0  0  0  0  0
  186.1840  178.2860  140.1450 C   0  0  0  0  0  0  0  0  0  0  0  0
  186.4960  177.6580  137.7380 C   0  0  0  0  0  3  0  0  0  0  0  0
  189.7850  177.0620  141.0590 C   0  0  0  0  0  3  0  0  0  0  0  0
  190.4810  177.2920  138.3130 O   0  0  0  0  0  0  0  0  0  0  0  0
  186.3530  178.3100  134.6660 C   0  0  0  0  0  1  0  0  0  0  0  0
  188.4110  177.7440  139.1980 N   0  0  0  0  0  0  0  0  0  0  0  0
  187.3290  177.2950  136.6860 C   0  0  0  0  0  0  0  0  0  0  0  0
  192.3470  175.7860  146.2530 C   0  0  0  0  0  2  0  0  0  0  0  0
  191.6650  176.0770  147.5770 C   0  0  0  0  0  3  0  0  0  0  0  0
  192.4800  176.8730  148.3490 O   0  0  0  0  0  0  0  0  0  0  0  0
  192.4180  175.5580  148.6050 O   0  0  0  0  0  0  0  0  0  0  0  0
  2 24  2  0  0  0  0
  2 12  1  0  0  0  0
  3 11  1  0  0  0  0
  4  3  2  0  0  0  0
  5 25  2  0  0  0  0
  5 27  1  0  0  0  0
  6  5  1  0  0  0  0
  7 24  1  6  0  0  0
  7 19  1  0  0  0  0
  7 17  1  0  0  0  0
  9 26  1  6  0  0  0
  9 28  1  0  0  0  0
 10  1  1  0  0  0  0
 12  8  1  1  0  0  0
 13 12  1  0  0  0  0
 13 11  1  0  0  0  0
 14 27  1  0  0  0  0
 14 22  1  0  0  0  0
 15  9  1  0  0  0  0
 15 18  1  0  0  0  0
 16 20  1  0  0  0  0
 17  8  1  6  0  0  0
 17 10  1  0  0  0  0
 18  6  1  0  0  0  0
 19 16  1  0  0  0  0
 20  1  1  0  0  0  0
 20 29  1  1  0  0  0
 21 22  2  0  0  0  0
 21  4  1  0  0  0  0
 22 13  1  0  0  0  0
 23 14  2  0  0  0  0
 27  2  1  0  0  0  0
 28  6  2  0  0  0  0
 28 23  1  0  0  0  0
 29 30  1  0  0  0  0
 30 31  1  0  0  0  0
 30 32  1  0  0  0  0
 31 32  1  0  0  0  0
M  END
>  <MODEL>
6

>  <REMARK>
 VINA RESULT:      -7.7      2.504      3.840
  Name = 
  2 active torsions:
  status: ('A' for Active; 'I' for Inactive)
    1  A    between atoms: C_1  and  C_10
    2  A    between atoms: C_10  and  C_24
                            x       y       z     vdW  Elec       q    Type
                         _______ _______ _______ _____ _____    ______ ____

>  <TORSDO>
F 2

$$$$
=
 OpenBabel10272413223D

 32 38  0  0  1  0  0  0  0  0999 V2000
  192.1780  176.0580  138.8180 C   0  0  0  0  0  2  0  0  0  0  0  0
  187.7710  178.3370  140.6630 C   0  0  0  0  0  0  0  0  0  0  0  0
  189.4740  177.1420  145.0780 C   0  0  0  0  0  3  0  0  0  0  0  0
  188.2280  176.7810  145.3880 C   0  0  0  0  0  3  0  0  0  0  0  0
  185.3720  178.7670  140.3040 C   0  0  0  0  0  0  0  0  0  0  0  0
  184.0630  178.7910  140.7970 C   0  0  0  0  0  0  0  0  0  0  0  0
  189.4250  177.4110  139.0190 C   0  0  1  0  0  3  0  0  0  0  0  0
  190.2880  178.5270  141.0760 C   0  0  0  0  0  2  0  0  0  0  0  0
  182.3970  178.5440  142.5410 C   0  0  2  0  0  3  0  0  0  0  0  0
  191.8760  177.2340  139.7350 C   0  0  0  0  0  2  0  0  0  0  0  0
  189.7550  178.0380  143.9050 C   0  0  0  0  0  2  0  0  0  0  0  0
  188.8690  178.7040  141.6350 C   0  0  2  0  0  3  0  0  0  0  0  0
  188.6680  178.0180  142.9160 N   0  0  0  0  0  0  0  0  0  0  0  0
  186.1750  178.1240  142.4650 C   0  0  0  0  0  0  0  0  0  0  0  0
  181.4020  178.8260  141.0330 S   0  0  0  0  0  0  0  0  0  0  0  0
  190.3230  176.0290  137.0770 C   0  0  0  0  0  2  0  0  0  0  0  0
  190.4170  177.2940  140.1920 C   0  0  2  0  0  3  0  0  0  0  0  0
  182.8690  179.1360  139.9880 C   0  0  0  0  0  2  0  0  0  0  0  0
  189.3560  176.0930  138.2590 C   0  0  0  0  0  2  0  0  0  0  0  0
  191.7660  176.4230  137.3970 C   0  0  2  0  0  3  0  0  0  0  0  0
  187.0980  177.1770  144.5380 C   0  0  0  0  0  3  0  0  0  0  0  0
  187.3110  177.7720  143.3580 C   0  0  0  0  0  0  0  0  0  0  0  0
  184.8640  178.1480  142.9670 C   0  0  0  0  0  3  0  0  0  0  0  0
  188.0390  177.7000  139.5150 C   0  0  0  0  0  3  0  0  0  0  0  0
  185.5870  179.0750  139.0980 O   0  0  0  0  0  0  0  0  0  0  0  0
  182.1810  179.6980  143.5020 C   0  0  0  0  0  1  0  0  0  0  0  0
  186.4100  178.4230  141.1410 N   0  0  0  0  0  0  0  0  0  0  0  0
  183.8180  178.4880  142.1160 C   0  0  0  0  0  0  0  0  0  0  0  0
  192.6930  175.7660  136.3890 C   0  0  0  0  0  2  0  0  0  0  0  0
  193.9840  175.3310  137.0580 C   0  0  0  0  0  3  0  0  0  0  0  0
  195.0320  176.0690  136.5590 O   0  0  0  0  0  0  0  0  0  0  0  0
  194.8410  174.8190  136.1110 O   0  0  0  0  0  0  0  0  0  0  0  0
  1 10  1  0  0  0  0
  2 27  1  0  0  0  0
  2 12  1  0  0  0  0
  3  4  2  0  0  0  0
  5  6  1  0  0  0  0
  5 27  1  0  0  0  0
  6 28  2  0  0  0  0
  7 19  1  1  0  0  0
  7 24  1  0  0  0  0
  7 17  1  0  0  0  0
  9 26  1  1  0  0  0
 11  3  1  0  0  0  0
 12  8  1  6  0  0  0
 12 13  1  0  0  0  0
 13 22  1  0  0  0  0
 13 11  1  0  0  0  0
 14 23  2  0  0  0  0
 14 22  1  0  0  0  0
 15  9  1  0  0  0  0
 16 20  1  0  0  0  0
 16 19  1  0  0  0  0
 17 10  1  6  0  0  0
 17  8  1  0  0  0  0
 18  6  1  0  0  0  0
 18 15  1  0  0  0  0
 20 29  1  6  0  0  0
 20  1  1  0  0  0  0
 21  4  1  0  0  0  0
 22 21  2  0  0  0  0
 24  2  2  0  0  0  0
 25  5  2  0  0  0  0
 27 14  1  0  0  0  0
 28  9  1  0  0  0  0
 28 23  1  0  0  0  0
 29 30  1  0  0  0  0
 31 30  1  0  0  0  0
 32 31  1  0  0  0  0
 32 30  1  0  0  0  0
M  END
>  <MODEL>
7

>  <REMARK>
 VINA RESULT:      -7.4      3.982      8.598
  Name = 
  2 active torsions:
  status: ('A' for Active; 'I' for Inactive)
    1  A    between atoms: C_1  and  C_10
    2  A    between atoms: C_10  and  C_24
                            x       y       z     vdW  Elec       q    Type
                         _______ _______ _______ _____ _____    ______ ____

>  <TORSDO>
F 2

$$$$
=
 OpenBabel10272413223D

 32 38  0  0  1  0  0  0  0  0999 V2000
  182.9750  177.4940  137.8590 C   0  0  0  0  0  2  0  0  0  0  0  0
  185.8660  178.4360  142.1920 C   0  0  0  0  0  0  0  0  0  0  0  0
  189.6930  177.2020  139.4270 C   0  0  0  0  0  3  0  0  0  0  0  0
  190.1490  176.5220  140.4790 C   0  0  0  0  0  3  0  0  0  0  0  0
  185.9870  178.3190  144.6500 C   0  0  0  0  0  0  0  0  0  0  0  0
  186.6930  177.9750  145.8090 C   0  0  0  0  0  0  0  0  0  0  0  0
  183.8430  178.1200  140.7410 C   0  0  1  0  0  3  0  0  0  0  0  0
  185.8710  179.1740  139.7440 C   0  0  0  0  0  2  0  0  0  0  0  0
  188.6340  177.1460  147.0010 C   0  0  2  0  0  3  0  0  0  0  0  0
  184.0990  178.4540  138.2170 C   0  0  0  0  0  2  0  0  0  0  0  0
  188.6400  178.2630  139.5830 C   0  0  0  0  0  2  0  0  0  0  0  0
  186.6820  178.9460  141.0260 C   0  0  2  0  0  3  0  0  0  0  0  0
  187.8590  178.0940  140.8160 N   0  0  0  0  0  0  0  0  0  0  0  0
  187.8570  177.6510  143.3130 C   0  0  0  0  0  0  0  0  0  0  0  0
  187.3780  177.3480  148.3130 S   0  0  0  0  0  0  0  0  0  0  0  0
  181.5890  177.2150  139.9750 C   0  0  0  0  0  2  0  0  0  0  0  0
  184.7990  178.1140  139.5330 C   0  0  2  0  0  3  0  0  0  0  0  0
  186.1600  178.1120  147.1850 C   0  0  0  0  0  2  0  0  0  0  0  0
  182.9130  176.9160  140.6770 C   0  0  0  0  0  2  0  0  0  0  0  0
  181.7160  177.9040  138.6150 C   0  0  2  0  0  3  0  0  0  0  0  0
  189.5740  176.7290  141.8140 C   0  0  0  0  0  3  0  0  0  0  0  0
  188.4800  177.4840  141.9730 C   0  0  0  0  0  0  0  0  0  0  0  0
  188.5720  177.3060  144.4720 C   0  0  0  0  0  3  0  0  0  0  0  0
  184.6040  178.0120  142.0290 C   0  0  0  0  0  3  0  0  0  0  0  0
  184.8250  178.8000  144.7510 O   0  0  0  0  0  0  0  0  0  0  0  0
  189.7840  178.1020  147.2610 C   0  0  0  0  0  1  0  0  0  0  0  0
  186.5740  178.1420  143.4160 N   0  0  0  0  0  0  0  0  0  0  0  0
  187.9720  177.4780  145.7150 C   0  0  0  0  0  0  0  0  0  0  0  0
  180.4780  177.6030  137.7900 C   0  0  0  0  0  2  0  0  0  0  0  0
  179.9820  178.8590  137.0970 C   0  0  0  0  0  3  0  0  0  0  0  0
  180.2220  178.7630  135.7450 O   0  0  0  0  0  0  0  0  0  0  0  0
  181.0420  179.5050  136.5040 O   0  0  0  0  0  0  0  0  0  0  0  0
  1 10  1  0  0  0  0
  1 20  1  0  0  0  0
  2 27  1  0  0  0  0
  3 11  1  0  0  0  0
  3  4  2  0  0  0  0
  4 21  1  0  0  0  0
  5 25  2  0  0  0  0
  5  6  1  0  0  0  0
  6 18  1  0  0  0  0
  7 19  1  6  0  0  0
  7 24  1  0  0  0  0
  9 26  1  1  0  0  0
  9 15  1  0  0  0  0
 11 13  1  0  0  0  0
 12  8  1  6  0  0  0
 12  2  1  0  0  0  0
 13 12  1  0  0  0  0
 13 22  1  0  0  0  0
 14 27  1  0  0  0  0
 14 23  2  0  0  0  0
 16 19  1  0  0  0  0
 17 10  1  6  0  0  0
 17  8  1  0  0  0  0
 17  7  1  0  0  0  0
 18 15  1  0  0  0  0
 20 29  1  6  0  0  0
 20 16  1  0  0  0  0
 21 22  2  0  0  0  0
 22 14  1  0  0  0  0
 23 28  1  0  0  0  0
 24  2  2  0  0  0  0
 27  5  1  0  0  0  0
 28  6  2  0  0  0  0
 28  9  1  0  0  0  0
 30 29  1  0  0  0  0
 31 32  1  0  0  0  0
 31 30  1  0  0  0  0
 32 30  1  0  0  0  0
M  END
>  <MODEL>
8

>  <REMARK>
 VINA RESULT:      -7.2      4.559      8.493
  Name = 
  2 active torsions:
  status: ('A' for Active; 'I' for Inactive)
    1  A    between atoms: C_1  and  C_10
    2  A    between atoms: C_10  and  C_24
                            x       y       z     vdW  Elec       q    Type
                         _______ _______ _______ _____ _____    ______ ____

>  <TORSDO>
F 2

$$$$
=
 OpenBabel10272413223D

 32 38  0  0  1  0  0  0  0  0999 V2000
  184.6790  176.8130  134.4390 C   0  0  0  0  0  2  0  0  0  0  0  0
  187.7610  177.9110  138.6000 C   0  0  0  0  0  0  0  0  0  0  0  0
  191.3420  175.8740  135.9850 C   0  0  0  0  0  3  0  0  0  0  0  0
  191.7350  175.2770  137.1100 C   0  0  0  0  0  3  0  0  0  0  0  0
  187.9220  178.0830  141.0520 C   0  0  0  0  0  0  0  0  0  0  0  0
  188.6060  177.7980  142.2400 C   0  0  0  0  0  0  0  0  0  0  0  0
  185.6830  177.6760  137.2140 C   0  0  1  0  0  3  0  0  0  0  0  0
  187.8030  178.3350  136.0780 C   0  0  0  0  0  2  0  0  0  0  0  0
  190.4560  176.8850  143.5130 C   0  0  2  0  0  3  0  0  0  0  0  0
  185.9210  177.6610  134.6660 C   0  0  0  0  0  2  0  0  0  0  0  0
  190.4330  177.0700  136.0140 C   0  0  0  0  0  2  0  0  0  0  0  0
  188.6080  178.1660  137.3740 C   0  0  2  0  0  3  0  0  0  0  0  0
  189.6650  177.1530  137.2640 N   0  0  0  0  0  0  0  0  0  0  0  0
  189.6650  177.0260  139.7960 C   0  0  0  0  0  0  0  0  0  0  0  0
  189.2640  177.4040  144.7980 S   0  0  0  0  0  0  0  0  0  0  0  0
  183.3170  176.9740  136.5830 C   0  0  0  0  0  2  0  0  0  0  0  0
  186.6030  177.4000  136.0100 C   0  0  2  0  0  3  0  0  0  0  0  0
  188.1250  178.1700  143.5920 C   0  0  0  0  0  2  0  0  0  0  0  0
  184.6090  176.5990  137.3070 C   0  0  0  0  0  2  0  0  0  0  0  0
  183.4980  177.4690  135.1460 C   0  0  2  0  0  3  0  0  0  0  0  0
  191.2190  175.7170  138.4120 C   0  0  0  0  0  3  0  0  0  0  0  0
  190.2310  176.6170  138.4840 C   0  0  0  0  0  0  0  0  0  0  0  0
  190.3570  176.7390  140.9840 C   0  0  0  0  0  3  0  0  0  0  0  0
  186.4540  177.6330  138.5000 C   0  0  0  0  0  3  0  0  0  0  0  0
  186.8310  178.7160  141.1000 O   0  0  0  0  0  0  0  0  0  0  0  0
  191.7210  177.7140  143.6440 C   0  0  0  0  0  1  0  0  0  0  0  0
  188.4540  177.6830  139.8460 N   0  0  0  0  0  0  0  0  0  0  0  0
  189.8110  177.1370  142.2000 C   0  0  0  0  0  0  0  0  0  0  0  0
  182.2140  177.2270  134.3730 C   0  0  0  0  0  2  0  0  0  0  0  0
  181.0690  176.9300  135.3240 C   0  0  0  0  0  3  0  0  0  0  0  0
  179.9840  176.4750  134.6090 O   0  0  0  0  0  0  0  0  0  0  0  0
  180.0030  177.7490  135.0290 O   0  0  0  0  0  0  0  0  0  0  0  0
  1 10  1  0  0  0  0
  1 20  1  0  0  0  0
  2 27  1  0  0  0  0
  3 11  1  0  0  0  0
  3  4  2  0  0  0  0
  4 21  1  0  0  0  0
  5 25  2  0  0  0  0
  5  6  1  0  0  0  0
  6 18  1  0  0  0  0
  7 19  1  1  0  0  0
  7 24  1  0  0  0  0
  9 26  1  6  0  0  0
  9 15  1  0  0  0  0
 11 13  1  0  0  0  0
 12  8  1  6  0  0  0
 12  2  1  0  0  0  0
 13 12  1  0  0  0  0
 13 22  1  0  0  0  0
 14 27  1  0  0  0  0
 14 23  2  0  0  0  0
 16 19  1  0  0  0  0
 17 10  1  6  0  0  0
 17  8  1  0  0  0  0
 17  7  1  0  0  0  0
 18 15  1  0  0  0  0
 20 29  1  6  0  0  0
 20 16  1  0  0  0  0
 21 22  2  0  0  0  0
 22 14  1  0  0  0  0
 23 28  1  0  0  0  0
 24  2  2  0  0  0  0
 27  5  1  0  0  0  0
 28  6  2  0  0  0  0
 28  9  1  0  0  0  0
 29 30  1  0  0  0  0
 31 32  1  0  0  0  0
 31 30  1  0  0  0  0
 32 30  1  0  0  0  0
M  END
>  <MODEL>
9

>  <REMARK>
 VINA RESULT:      -6.7      4.266      8.059
  Name = 
  2 active torsions:
  status: ('A' for Active; 'I' for Inactive)
    1  A    between atoms: C_1  and  C_10
    2  A    between atoms: C_10  and  C_24
                            x       y       z     vdW  Elec       q    Type
                         _______ _______ _______ _____ _____    ______ ____

>  <TORSDO>
F 2

$$$$
