=
 OpenBabel10272400053D

 34 39  0  0  1  0  0  0  0  0999 V2000
  190.3150  175.6360  142.9690 C   0  0  2  0  0  3  0  0  0  0  0  0
  190.5600  177.7810  144.2530 C   0  0  1  0  0  3  0  0  0  0  0  0
  188.5060  177.3750  142.7850 C   0  0  0  0  0  0  0  0  0  0  0  0
  186.3620  178.4550  142.4220 C   0  0  0  0  0  0  0  0  0  0  0  0
  191.9670  175.7560  144.8410 C   0  0  0  0  0  3  0  0  0  0  0  0
  191.4580  177.1030  145.2880 C   0  0  0  0  0  2  0  0  0  0  0  0
  186.9690  177.7490  144.6630 C   0  0  0  0  0  3  0  0  0  0  0  0
  189.5480  176.7570  143.6990 C   0  0  1  0  0  3  0  0  0  0  0  0
  185.7530  178.2380  145.1460 C   0  0  0  0  0  3  0  0  0  0  0  0
  185.1470  178.9440  142.9100 C   0  0  0  0  0  3  0  0  0  0  0  0
  191.4190  175.0730  143.8240 C   0  0  0  0  0  3  0  0  0  0  0  0
  188.7470  177.4530  141.3960 C   0  0  0  0  0  0  0  0  0  0  0  0
  190.9240  176.1810  141.6780 C   0  0  0  0  0  2  0  0  0  0  0  0
  189.8920  178.9750  144.9100 C   0  0  0  0  0  1  0  0  0  0  0  0
  186.6390  178.5470  141.0980 N   0  0  0  0  0  0  0  0  0  0  0  0
  187.7940  178.0720  140.5530 C   0  0  0  0  0  0  0  0  0  0  0  0
  184.8440  178.8430  144.2720 C   0  0  0  0  0  0  0  0  0  0  0  0
  187.2900  177.8590  143.3010 C   0  0  0  0  0  0  0  0  0  0  0  0
  189.8940  176.7880  140.8460 N   0  0  0  0  0  2  0  0  0  0  0  0
  187.1220  177.9070  136.8290 C   0  0  0  0  0  0  0  0  0  0  0  0
  188.2590  178.5260  136.3030 C   0  0  0  0  0  3  0  0  0  0  0  0
  187.9830  178.2180  139.0850 C   0  0  0  0  0  0  0  0  0  0  0  0
  189.2550  178.9960  137.1600 C   0  0  0  0  0  3  0  0  0  0  0  0
  186.9840  177.7590  138.2110 C   0  0  0  0  0  3  0  0  0  0  0  0
  189.1160  178.8480  138.5430 C   0  0  0  0  0  3  0  0  0  0  0  0
  185.8690  177.3220  135.7570 Cl  0  0  0  0  0  0  0  0  0  0  0  0
  183.5410  179.3480  144.7840 C   0  0  0  0  0  2  0  0  0  0  0  0
  182.4210  178.4010  144.3860 C   0  0  0  0  0  2  0  0  0  0  0  0
  180.0500  178.4330  143.5710 C   0  0  0  0  0  2  0  0  0  0  0  0
  179.9820  177.3920  142.6260 O   0  0  0  0  0  0  0  0  0  0  0  0
  180.7910  179.1310  141.1850 O   0  0  0  0  0  0  0  0  0  0  0  0
  181.8970  179.0350  142.0480 C   0  0  0  0  0  2  0  0  0  0  0  0
  181.4190  179.1110  143.4940 C   0  0  0  0  0  3  0  0  0  0  0  0
  179.9990  177.9570  141.3190 C   0  0  0  0  0  2  0  0  0  0  0  0
  1 13  1  6  0  0  0
  1  8  1  0  0  0  0
  1 11  1  0  0  0  0
  2 14  1  1  0  0  0
  2  6  1  0  0  0  0
  3 18  1  0  0  0  0
  4 10  2  0  0  0  0
  4 18  1  0  0  0  0
  5  6  1  0  0  0  0
  7  9  1  0  0  0  0
  8  3  1  6  0  0  0
  8  2  1  0  0  0  0
 10 17  1  0  0  0  0
 11  5  2  0  0  0  0
 12  3  2  0  0  0  0
 15  4  1  0  0  0  0
 16 15  2  0  0  0  0
 16 12  1  0  0  0  0
 17 27  1  0  0  0  0
 17  9  2  0  0  0  0
 18  7  2  0  0  0  0
 19 12  1  0  0  0  0
 19 13  1  0  0  0  0
 20 24  1  0  0  0  0
 21 20  2  0  0  0  0
 21 23  1  0  0  0  0
 22 16  1  0  0  0  0
 23 25  2  0  0  0  0
 24 22  2  0  0  0  0
 25 22  1  0  0  0  0
 26 20  1  0  0  0  0
 28 27  1  0  0  0  0
 30 29  1  0  0  0  0
 31 34  1  0  0  0  0
 31 32  1  0  0  0  0
 32 33  1  0  0  0  0
 33 29  1  0  0  0  0
 33 28  1  0  0  0  0
 34 30  1  0  0  0  0
M  END
>  <MODEL>
1

>  <REMARK>
 VINA RESULT:      -9.4      0.000      0.000
  Name = 
  4 active torsions:
  status: ('A' for Active; 'I' for Inactive)
    1  A    between atoms: C_3  and  C_13
    2  A    between atoms: C_3  and  C_29
    3  A    between atoms: C_12  and  C_28
    4  A    between atoms: C_13  and  C_33
                            x       y       z     vdW  Elec       q    Type
                         _______ _______ _______ _____ _____    ______ ____

>  <TORSDO>
F 4

$$$$
=
 OpenBabel10272400053D

 34 39  0  0  1  0  0  0  0  0999 V2000
  190.0790  178.0770  145.3500 C   0  0  2  0  0  3  0  0  0  0  0  0
  190.3640  175.8230  144.2810 C   0  0  1  0  0  3  0  0  0  0  0  0
  189.0450  177.6640  143.0940 C   0  0  0  0  0  0  0  0  0  0  0  0
  188.0990  178.0050  140.8840 C   0  0  0  0  0  0  0  0  0  0  0  0
  191.8520  176.5360  146.2050 C   0  0  0  0  0  3  0  0  0  0  0  0
  191.6540  175.5730  145.0620 C   0  0  0  0  0  2  0  0  0  0  0  0
  190.4700  177.5330  141.0980 C   0  0  0  0  0  3  0  0  0  0  0  0
  190.2120  177.3330  144.0060 C   0  0  1  0  0  3  0  0  0  0  0  0
  190.6080  177.6000  139.7090 C   0  0  0  0  0  3  0  0  0  0  0  0
  188.2420  178.0710  139.4950 C   0  0  0  0  0  3  0  0  0  0  0  0
  191.1750  177.6900  146.3080 C   0  0  0  0  0  3  0  0  0  0  0  0
  187.7750  177.9320  143.6470 C   0  0  0  0  0  0  0  0  0  0  0  0
  188.7310  177.7540  145.9910 C   0  0  0  0  0  2  0  0  0  0  0  0
  190.4070  174.9930  143.0100 C   0  0  0  0  0  1  0  0  0  0  0  0
  186.8840  178.2220  141.4450 N   0  0  0  0  0  0  0  0  0  0  0  0
  186.6780  178.1950  142.7910 C   0  0  0  0  0  0  0  0  0  0  0  0
  189.4930  177.8610  138.9060 C   0  0  0  0  0  0  0  0  0  0  0  0
  189.2150  177.7250  141.6980 C   0  0  0  0  0  0  0  0  0  0  0  0
  187.6440  178.0610  145.0710 N   0  0  0  0  0  2  0  0  0  0  0  0
  182.9280  178.7160  142.8290 C   0  0  0  0  0  0  0  0  0  0  0  0
  182.6740  178.8940  144.1910 C   0  0  0  0  0  3  0  0  0  0  0  0
  185.3040  178.4600  143.2920 C   0  0  0  0  0  0  0  0  0  0  0  0
  183.7260  178.8490  145.1060 C   0  0  0  0  0  3  0  0  0  0  0  0
  184.2330  178.4960  142.3840 C   0  0  0  0  0  3  0  0  0  0  0  0
  185.0330  178.6290  144.6600 C   0  0  0  0  0  3  0  0  0  0  0  0
  181.6090  178.7650  141.6790 Cl  0  0  0  0  0  0  0  0  0  0  0  0
  189.6450  177.9510  137.4290 C   0  0  0  0  0  2  0  0  0  0  0  0
  188.7840  176.8980  136.7500 C   0  0  0  0  0  2  0  0  0  0  0  0
  189.5870  174.5350  136.9940 C   0  0  0  0  0  2  0  0  0  0  0  0
  190.5560  174.5890  138.0130 O   0  0  0  0  0  0  0  0  0  0  0  0
  191.9590  175.1640  136.1550 O   0  0  0  0  0  0  0  0  0  0  0  0
  191.1040  176.2800  136.1320 C   0  0  0  0  0  2  0  0  0  0  0  0
  189.6550  175.8090  136.1500 C   0  0  0  0  0  3  0  0  0  0  0  0
  191.8480  174.5250  137.4210 C   0  0  0  0  0  2  0  0  0  0  0  0
  1 13  1  1  0  0  0
  1 11  1  0  0  0  0
  2 14  1  6  0  0  0
  2  6  1  0  0  0  0
  3 12  1  0  0  0  0
  4 15  2  0  0  0  0
  4 18  1  0  0  0  0
  5 11  2  0  0  0  0
  6  5  1  0  0  0  0
  7 18  1  0  0  0  0
  8  3  1  6  0  0  0
  8  2  1  0  0  0  0
  8  1  1  0  0  0  0
  9  7  2  0  0  0  0
 10  4  1  0  0  0  0
 12 19  1  0  0  0  0
 15 16  1  0  0  0  0
 16 22  1  0  0  0  0
 16 12  2  0  0  0  0
 17 10  2  0  0  0  0
 17  9  1  0  0  0  0
 18  3  2  0  0  0  0
 19 13  1  0  0  0  0
 20 21  1  0  0  0  0
 21 23  2  0  0  0  0
 22 25  2  0  0  0  0
 24 20  2  0  0  0  0
 24 22  1  0  0  0  0
 25 23  1  0  0  0  0
 26 20  1  0  0  0  0
 27 17  1  0  0  0  0
 28 27  1  0  0  0  0
 29 30  1  0  0  0  0
 31 34  1  0  0  0  0
 32 33  1  0  0  0  0
 32 31  1  0  0  0  0
 33 28  1  0  0  0  0
 33 29  1  0  0  0  0
 34 30  1  0  0  0  0
M  END
>  <MODEL>
2

>  <REMARK>
 VINA RESULT:      -8.9      3.658      7.197
  Name = 
  4 active torsions:
  status: ('A' for Active; 'I' for Inactive)
    1  A    between atoms: C_3  and  C_13
    2  A    between atoms: C_3  and  C_29
    3  A    between atoms: C_12  and  C_28
    4  A    between atoms: C_13  and  C_33
                            x       y       z     vdW  Elec       q    Type
                         _______ _______ _______ _____ _____    ______ ____

>  <TORSDO>
F 4

$$$$
=
 OpenBabel10272400053D

 34 39  0  0  1  0  0  0  0  0999 V2000
  190.0880  178.0390  145.4200 C   0  0  2  0  0  3  0  0  0  0  0  0
  190.3550  175.8210  144.2720 C   0  0  1  0  0  3  0  0  0  0  0  0
  189.0220  177.7030  143.1660 C   0  0  0  0  0  0  0  0  0  0  0  0
  188.0470  178.1190  140.9820 C   0  0  0  0  0  0  0  0  0  0  0  0
  191.8700  176.4680  146.1990 C   0  0  0  0  0  3  0  0  0  0  0  0
  191.6550  175.5440  145.0270 C   0  0  0  0  0  2  0  0  0  0  0  0
  190.4200  177.6370  141.1470 C   0  0  0  0  0  3  0  0  0  0  0  0
  190.2010  177.3400  144.0500 C   0  0  1  0  0  3  0  0  0  0  0  0
  190.5390  177.7510  139.7600 C   0  0  0  0  0  3  0  0  0  0  0  0
  188.1710  178.2310  139.5940 C   0  0  0  0  0  3  0  0  0  0  0  0
  191.1960  177.6190  146.3500 C   0  0  0  0  0  3  0  0  0  0  0  0
  187.7600  177.9530  143.7450 C   0  0  0  0  0  0  0  0  0  0  0  0
  188.7480  177.6950  146.0680 C   0  0  0  0  0  2  0  0  0  0  0  0
  190.3800  175.0350  142.9730 C   0  0  0  0  0  1  0  0  0  0  0  0
  186.8400  178.3180  141.5660 N   0  0  0  0  0  0  0  0  0  0  0  0
  186.6530  178.2450  142.9130 C   0  0  0  0  0  0  0  0  0  0  0  0
  189.4130  178.0400  138.9810 C   0  0  0  0  0  0  0  0  0  0  0  0
  189.1740  177.8110  141.7710 C   0  0  0  0  0  0  0  0  0  0  0  0
  187.6490  178.0340  145.1740 N   0  0  0  0  0  2  0  0  0  0  0  0
  182.9020  178.7610  143.0210 C   0  0  0  0  0  0  0  0  0  0  0  0
  182.6690  178.9000  144.3910 C   0  0  0  0  0  3  0  0  0  0  0  0
  185.2850  178.4940  143.4420 C   0  0  0  0  0  0  0  0  0  0  0  0
  183.7350  178.8310  145.2890 C   0  0  0  0  0  3  0  0  0  0  0  0
  184.2020  178.5540  142.5500 C   0  0  0  0  0  3  0  0  0  0  0  0
  185.0340  178.6250  144.8180 C   0  0  0  0  0  3  0  0  0  0  0  0
  181.5670  178.8400  141.8930 Cl  0  0  0  0  0  0  0  0  0  0  0  0
  189.5450  178.1790  137.5060 C   0  0  0  0  0  2  0  0  0  0  0  0
  188.2810  178.7900  136.9230 C   0  0  0  0  0  2  0  0  0  0  0  0
  186.3920  177.2050  136.4700 C   0  0  0  0  0  2  0  0  0  0  0  0
  186.7290  176.0340  137.1740 O   0  0  0  0  0  0  0  0  0  0  0  0
  187.9450  175.5980  135.1530 O   0  0  0  0  0  0  0  0  0  0  0  0
  188.6480  176.7360  135.5850 C   0  0  0  0  0  2  0  0  0  0  0  0
  187.6590  177.8510  135.9060 C   0  0  0  0  0  3  0  0  0  0  0  0
  187.2120  175.0650  136.2500 C   0  0  0  0  0  2  0  0  0  0  0  0
  1 13  1  1  0  0  0
  1 11  1  0  0  0  0
  2 14  1  6  0  0  0
  2  6  1  0  0  0  0
  3 12  1  0  0  0  0
  4 15  2  0  0  0  0
  4 18  1  0  0  0  0
  5 11  2  0  0  0  0
  6  5  1  0  0  0  0
  7 18  1  0  0  0  0
  8  3  1  6  0  0  0
  8  2  1  0  0  0  0
  8  1  1  0  0  0  0
  9  7  2  0  0  0  0
 10  4  1  0  0  0  0
 12 19  1  0  0  0  0
 15 16  1  0  0  0  0
 16 22  1  0  0  0  0
 16 12  2  0  0  0  0
 17 10  2  0  0  0  0
 17  9  1  0  0  0  0
 18  3  2  0  0  0  0
 19 13  1  0  0  0  0
 20 21  1  0  0  0  0
 21 23  2  0  0  0  0
 22 25  2  0  0  0  0
 24 20  2  0  0  0  0
 24 22  1  0  0  0  0
 25 23  1  0  0  0  0
 26 20  1  0  0  0  0
 27 17  1  0  0  0  0
 28 27  1  0  0  0  0
 29 30  1  0  0  0  0
 31 32  1  0  0  0  0
 31 34  1  0  0  0  0
 32 33  1  0  0  0  0
 33 29  1  0  0  0  0
 33 28  1  0  0  0  0
 34 30  1  0  0  0  0
M  END
>  <MODEL>
3

>  <REMARK>
 VINA RESULT:      -8.9      2.870      6.468
  Name = 
  4 active torsions:
  status: ('A' for Active; 'I' for Inactive)
    1  A    between atoms: C_3  and  C_13
    2  A    between atoms: C_3  and  C_29
    3  A    between atoms: C_12  and  C_28
    4  A    between atoms: C_13  and  C_33
                            x       y       z     vdW  Elec       q    Type
                         _______ _______ _______ _____ _____    ______ ____

>  <TORSDO>
F 4

$$$$
=
 OpenBabel10272400053D

 34 39  0  0  1  0  0  0  0  0999 V2000
  183.0240  180.1040  139.0910 C   0  0  2  0  0  3  0  0  0  0  0  0
  181.9960  178.0170  140.0370 C   0  0  1  0  0  3  0  0  0  0  0  0
  184.2050  178.9110  140.9640 C   0  0  0  0  0  0  0  0  0  0  0  0
  185.6340  178.4360  142.8690 C   0  0  0  0  0  0  0  0  0  0  0  0
  180.6190  179.6070  138.6230 C   0  0  0  0  0  3  0  0  0  0  0  0
  180.5990  178.4630  139.6040 C   0  0  0  0  0  2  0  0  0  0  0  0
  183.3120  179.0270  143.2490 C   0  0  0  0  0  3  0  0  0  0  0  0
  182.8540  179.2560  140.3670 C   0  0  1  0  0  3  0  0  0  0  0  0
  183.5050  178.9000  144.6260 C   0  0  0  0  0  3  0  0  0  0  0  0
  185.8230  178.3080  144.2480 C   0  0  0  0  0  3  0  0  0  0  0  0
  181.7000  180.3790  138.4270 C   0  0  0  0  0  3  0  0  0  0  0  0
  185.3200  178.7240  140.1190 C   0  0  0  0  0  0  0  0  0  0  0  0
  183.9270  179.3730  138.0990 C   0  0  0  0  0  2  0  0  0  0  0  0
  181.8510  177.0690  141.2140 C   0  0  0  0  0  1  0  0  0  0  0  0
  186.6770  178.2290  142.0270 N   0  0  0  0  0  0  0  0  0  0  0  0
  186.5680  178.3570  140.6750 C   0  0  0  0  0  0  0  0  0  0  0  0
  184.7580  178.5320  145.1270 C   0  0  0  0  0  0  0  0  0  0  0  0
  184.3690  178.7890  142.3570 C   0  0  0  0  0  0  0  0  0  0  0  0
  185.2000  179.0370  138.7230 N   0  0  0  0  0  2  0  0  0  0  0  0
  190.1710  177.6530  139.7430 C   0  0  0  0  0  0  0  0  0  0  0  0
  190.1020  177.5930  138.3500 C   0  0  0  0  0  3  0  0  0  0  0  0
  187.7830  178.1160  139.8530 C   0  0  0  0  0  0  0  0  0  0  0  0
  188.8810  177.7870  137.7030 C   0  0  0  0  0  3  0  0  0  0  0  0
  189.0180  177.9080  140.4900 C   0  0  0  0  0  3  0  0  0  0  0  0
  187.7270  178.0420  138.4500 C   0  0  0  0  0  3  0  0  0  0  0  0
  191.7010  177.4050  140.5560 Cl  0  0  0  0  0  0  0  0  0  0  0  0
  184.9680  178.4140  146.5950 C   0  0  0  0  0  2  0  0  0  0  0  0
  186.3790  178.8440  146.9580 C   0  0  0  0  0  2  0  0  0  0  0  0
  187.8580  177.6940  148.6250 C   0  0  0  0  0  2  0  0  0  0  0  0
  189.0670  178.4130  148.5880 O   0  0  0  0  0  0  0  0  0  0  0  0
  189.4880  176.9110  146.7660 O   0  0  0  0  0  0  0  0  0  0  0  0
  188.3990  177.6130  146.2180 C   0  0  0  0  0  2  0  0  0  0  0  0
  187.2520  177.6310  147.2220 C   0  0  0  0  0  3  0  0  0  0  0  0
  190.0240  177.6630  147.8470 C   0  0  0  0  0  2  0  0  0  0  0  0
  1 13  1  6  0  0  0
  1  8  1  0  0  0  0
  2  8  1  0  0  0  0
  2 14  1  1  0  0  0
  3 18  1  0  0  0  0
  4 10  1  0  0  0  0
  5  6  1  0  0  0  0
  6  2  1  0  0  0  0
  7  9  2  0  0  0  0
  8  3  1  6  0  0  0
  9 17  1  0  0  0  0
 10 17  2  0  0  0  0
 11  5  2  0  0  0  0
 11  1  1  0  0  0  0
 12 16  1  0  0  0  0
 12  3  2  0  0  0  0
 13 19  1  0  0  0  0
 15  4  1  0  0  0  0
 16 15  2  0  0  0  0
 17 27  1  0  0  0  0
 18  4  2  0  0  0  0
 18  7  1  0  0  0  0
 19 12  1  0  0  0  0
 20 24  1  0  0  0  0
 20 26  1  0  0  0  0
 21 20  2  0  0  0  0
 22 24  2  0  0  0  0
 22 16  1  0  0  0  0
 23 21  1  0  0  0  0
 23 25  2  0  0  0  0
 25 22  1  0  0  0  0
 27 28  1  0  0  0  0
 28 33  1  0  0  0  0
 30 29  1  0  0  0  0
 31 34  1  0  0  0  0
 32 31  1  0  0  0  0
 32 33  1  0  0  0  0
 33 29  1  0  0  0  0
 34 30  1  0  0  0  0
M  END
>  <MODEL>
4

>  <REMARK>
 VINA RESULT:      -8.8      3.558      7.053
  Name = 
  4 active torsions:
  status: ('A' for Active; 'I' for Inactive)
    1  A    between atoms: C_3  and  C_13
    2  A    between atoms: C_3  and  C_29
    3  A    between atoms: C_12  and  C_28
    4  A    between atoms: C_13  and  C_33
                            x       y       z     vdW  Elec       q    Type
                         _______ _______ _______ _____ _____    ______ ____

>  <TORSDO>
F 4

$$$$
=
 OpenBabel10272400053D

 34 39  0  0  1  0  0  0  0  0999 V2000
  186.6420  176.2440  136.3370 C   0  0  2  0  0  3  0  0  0  0  0  0
  188.3660  178.0680  136.2340 C   0  0  1  0  0  3  0  0  0  0  0  0
  187.0660  177.6310  138.3930 C   0  0  0  0  0  0  0  0  0  0  0  0
  187.1960  178.3640  140.7040 C   0  0  0  0  0  0  0  0  0  0  0  0
  188.3060  176.2470  134.4710 C   0  0  0  0  0  3  0  0  0  0  0  0
  189.1110  177.3520  135.1070 C   0  0  0  0  0  2  0  0  0  0  0  0
  189.1290  177.3080  139.6850 C   0  0  0  0  0  3  0  0  0  0  0  0
  187.6930  177.0250  137.1510 C   0  0  1  0  0  3  0  0  0  0  0  0
  189.8390  177.4560  140.8790 C   0  0  0  0  0  3  0  0  0  0  0  0
  187.9110  178.5110  141.8960 C   0  0  0  0  0  3  0  0  0  0  0  0
  187.2190  175.7140  135.0500 C   0  0  0  0  0  3  0  0  0  0  0  0
  185.7190  178.0500  138.3660 C   0  0  0  0  0  0  0  0  0  0  0  0
  185.4610  177.1550  136.0060 C   0  0  0  0  0  2  0  0  0  0  0  0
  189.3540  178.9520  136.9730 C   0  0  0  0  0  1  0  0  0  0  0  0
  185.9110  178.7890  140.6350 N   0  0  0  0  0  0  0  0  0  0  0  0
  185.1510  178.6570  139.5120 C   0  0  0  0  0  0  0  0  0  0  0  0
  189.2330  178.0650  141.9830 C   0  0  0  0  0  0  0  0  0  0  0  0
  187.8060  177.7670  139.5820 C   0  0  0  0  0  0  0  0  0  0  0  0
  184.9100  177.7360  137.2230 N   0  0  0  0  0  2  0  0  0  0  0  0
  181.4950  178.9490  140.4570 C   0  0  0  0  0  0  0  0  0  0  0  0
  181.0980  180.0760  139.7320 C   0  0  0  0  0  3  0  0  0  0  0  0
  183.7480  179.1500  139.5580 C   0  0  0  0  0  0  0  0  0  0  0  0
  182.0200  180.7450  138.9260 C   0  0  0  0  0  3  0  0  0  0  0  0
  182.8130  178.4930  140.3740 C   0  0  0  0  0  3  0  0  0  0  0  0
  183.3380  180.2880  138.8430 C   0  0  0  0  0  3  0  0  0  0  0  0
  180.3420  178.1120  141.4730 Cl  0  0  0  0  0  0  0  0  0  0  0  0
  189.9840  178.2060  143.2600 C   0  0  0  0  0  2  0  0  0  0  0  0
  189.4100  177.2680  144.3100 C   0  0  0  0  0  2  0  0  0  0  0  0
  189.9620  177.6630  146.7240 C   0  0  0  0  0  2  0  0  0  0  0  0
  189.4430  176.5420  147.3980 O   0  0  0  0  0  0  0  0  0  0  0  0
  187.4540  177.8810  147.3480 O   0  0  0  0  0  0  0  0  0  0  0  0
  187.6130  177.6820  145.9660 C   0  0  0  0  0  2  0  0  0  0  0  0
  189.0390  178.0400  145.5630 C   0  0  0  0  0  3  0  0  0  0  0  0
  188.2320  176.9160  148.0460 C   0  0  0  0  0  2  0  0  0  0  0  0
  1 11  1  6  0  0  0
  1  8  1  0  0  0  0
  2 14  1  1  0  0  0
  2  8  1  0  0  0  0
  3 18  1  0  0  0  0
  4 10  1  0  0  0  0
  5 11  2  0  0  0  0
  5  6  1  0  0  0  0
  6  2  1  0  0  0  0
  7  9  2  0  0  0  0
  8  3  1  1  0  0  0
  9 17  1  0  0  0  0
 10 17  2  0  0  0  0
 12  3  2  0  0  0  0
 12 16  1  0  0  0  0
 13  1  1  0  0  0  0
 13 19  1  0  0  0  0
 15  4  1  0  0  0  0
 16 22  1  0  0  0  0
 16 15  2  0  0  0  0
 17 27  1  0  0  0  0
 18  7  1  0  0  0  0
 18  4  2  0  0  0  0
 19 12  1  0  0  0  0
 20 26  1  0  0  0  0
 21 20  2  0  0  0  0
 22 24  2  0  0  0  0
 23 21  1  0  0  0  0
 24 20  1  0  0  0  0
 25 23  2  0  0  0  0
 25 22  1  0  0  0  0
 27 28  1  0  0  0  0
 28 33  1  0  0  0  0
 29 30  1  0  0  0  0
 30 34  1  0  0  0  0
 31 34  1  0  0  0  0
 32 31  1  0  0  0  0
 33 32  1  0  0  0  0
 33 29  1  0  0  0  0
M  END
>  <MODEL>
5

>  <REMARK>
 VINA RESULT:      -8.5      3.402      7.214
  Name = 
  4 active torsions:
  status: ('A' for Active; 'I' for Inactive)
    1  A    between atoms: C_3  and  C_13
    2  A    between atoms: C_3  and  C_29
    3  A    between atoms: C_12  and  C_28
    4  A    between atoms: C_13  and  C_33
                            x       y       z     vdW  Elec       q    Type
                         _______ _______ _______ _____ _____    ______ ____

>  <TORSDO>
F 4

$$$$
=
 OpenBabel10272400053D

 34 39  0  0  1  0  0  0  0  0999 V2000
  181.7390  177.7360  140.2860 C   0  0  2  0  0  3  0  0  0  0  0  0
  182.3700  179.9330  139.2470 C   0  0  1  0  0  3  0  0  0  0  0  0
  184.1540  178.4410  140.3120 C   0  0  0  0  0  0  0  0  0  0  0  0
  186.5800  178.3880  140.4010 C   0  0  0  0  0  0  0  0  0  0  0  0
  180.1330  178.8580  138.7330 C   0  0  0  0  0  3  0  0  0  0  0  0
  181.1540  179.8890  138.3230 C   0  0  0  0  0  2  0  0  0  0  0  0
  185.4730  178.3730  138.2410 C   0  0  0  0  0  3  0  0  0  0  0  0
  182.8510  178.4950  139.5360 C   0  0  1  0  0  3  0  0  0  0  0  0
  186.7160  178.3390  137.6050 C   0  0  0  0  0  3  0  0  0  0  0  0
  187.8210  178.3550  139.7600 C   0  0  0  0  0  3  0  0  0  0  0  0
  180.4130  177.8570  139.5820 C   0  0  0  0  0  3  0  0  0  0  0  0
  184.1300  178.4060  141.7230 C   0  0  0  0  0  0  0  0  0  0  0  0
  181.5950  178.2910  141.7010 C   0  0  0  0  0  2  0  0  0  0  0  0
  183.4380  180.7910  138.5910 C   0  0  0  0  0  1  0  0  0  0  0  0
  186.5230  178.3920  141.7560 N   0  0  0  0  0  0  0  0  0  0  0  0
  185.3480  178.4020  142.4440 C   0  0  0  0  0  0  0  0  0  0  0  0
  187.8920  178.3380  138.3640 C   0  0  0  0  0  0  0  0  0  0  0  0
  185.3910  178.4070  139.6430 C   0  0  0  0  0  0  0  0  0  0  0  0
  182.8740  178.2450  142.3980 N   0  0  0  0  0  2  0  0  0  0  0  0
  186.6590  177.9110  145.9630 C   0  0  0  0  0  0  0  0  0  0  0  0
  185.6090  178.4110  146.7350 C   0  0  0  0  0  3  0  0  0  0  0  0
  185.4100  178.3930  143.9300 C   0  0  0  0  0  0  0  0  0  0  0  0
  184.4620  178.9080  146.1130 C   0  0  0  0  0  3  0  0  0  0  0  0
  186.5620  177.9070  144.5690 C   0  0  0  0  0  3  0  0  0  0  0  0
  184.3650  178.9030  144.7190 C   0  0  0  0  0  3  0  0  0  0  0  0
  188.1000  177.2930  146.7400 Cl  0  0  0  0  0  0  0  0  0  0  0  0
  189.2150  178.2830  137.6850 C   0  0  0  0  0  2  0  0  0  0  0  0
  189.3720  176.9600  136.9540 C   0  0  0  0  0  2  0  0  0  0  0  0
  191.2520  176.4820  138.5430 C   0  0  0  0  0  2  0  0  0  0  0  0
  192.3730  176.2680  137.7190 O   0  0  0  0  0  0  0  0  0  0  0  0
  191.4720  174.0450  137.6820 O   0  0  0  0  0  0  0  0  0  0  0  0
  190.4180  174.7140  137.0350 C   0  0  0  0  0  2  0  0  0  0  0  0
  189.9990  175.9220  137.8660 C   0  0  0  0  0  3  0  0  0  0  0  0
  192.6310  174.8700  137.6490 C   0  0  0  0  0  2  0  0  0  0  0  0
  1 11  1  6  0  0  0
  1 13  1  0  0  0  0
  2 14  1  6  0  0  0
  2  8  1  0  0  0  0
  3 12  1  0  0  0  0
  4 15  2  0  0  0  0
  5 11  2  0  0  0  0
  6  5  1  0  0  0  0
  6  2  1  0  0  0  0
  7 18  1  0  0  0  0
  8  1  1  0  0  0  0
  8  3  1  1  0  0  0
  9  7  2  0  0  0  0
  9 17  1  0  0  0  0
 10  4  1  0  0  0  0
 12 19  1  0  0  0  0
 12 16  2  0  0  0  0
 13 19  1  0  0  0  0
 15 16  1  0  0  0  0
 16 22  1  0  0  0  0
 17 10  2  0  0  0  0
 18  3  2  0  0  0  0
 18  4  1  0  0  0  0
 20 21  1  0  0  0  0
 20 26  1  0  0  0  0
 22 24  1  0  0  0  0
 22 25  2  0  0  0  0
 23 21  2  0  0  0  0
 24 20  2  0  0  0  0
 25 23  1  0  0  0  0
 27 17  1  0  0  0  0
 28 27  1  0  0  0  0
 28 33  1  0  0  0  0
 30 29  1  0  0  0  0
 32 31  1  0  0  0  0
 32 33  1  0  0  0  0
 33 29  1  0  0  0  0
 34 31  1  0  0  0  0
 34 30  1  0  0  0  0
M  END
>  <MODEL>
6

>  <REMARK>
 VINA RESULT:      -8.2      4.414      9.182
  Name = 
  4 active torsions:
  status: ('A' for Active; 'I' for Inactive)
    1  A    between atoms: C_3  and  C_13
    2  A    between atoms: C_3  and  C_29
    3  A    between atoms: C_12  and  C_28
    4  A    between atoms: C_13  and  C_33
                            x       y       z     vdW  Elec       q    Type
                         _______ _______ _______ _____ _____    ______ ____

>  <TORSDO>
F 4

$$$$
=
 OpenBabel10272400053D

 34 39  0  0  1  0  0  0  0  0999 V2000
  183.0920  179.9680  138.8920 C   0  0  2  0  0  3  0  0  0  0  0  0
  182.0850  177.8960  139.8920 C   0  0  1  0  0  3  0  0  0  0  0  0
  184.2860  178.8340  140.7940 C   0  0  0  0  0  0  0  0  0  0  0  0
  185.7210  178.4220  142.7090 C   0  0  0  0  0  0  0  0  0  0  0  0
  180.6910  179.4360  138.4390 C   0  0  0  0  0  3  0  0  0  0  0  0
  180.6840  178.3170  139.4490 C   0  0  0  0  0  2  0  0  0  0  0  0
  183.3930  179.0000  143.0760 C   0  0  0  0  0  3  0  0  0  0  0  0
  182.9310  179.1510  140.1900 C   0  0  1  0  0  3  0  0  0  0  0  0
  183.5890  178.9090  144.4560 C   0  0  0  0  0  3  0  0  0  0  0  0
  185.9120  178.3310  144.0910 C   0  0  0  0  0  3  0  0  0  0  0  0
  181.7650  180.2130  138.2230 C   0  0  0  0  0  3  0  0  0  0  0  0
  185.4020  178.6370  139.9530 C   0  0  0  0  0  0  0  0  0  0  0  0
  184.0010  179.2210  137.9190 C   0  0  0  0  0  2  0  0  0  0  0  0
  181.9500  176.9770  141.0930 C   0  0  0  0  0  1  0  0  0  0  0  0
  186.7650  178.2030  141.8720 N   0  0  0  0  0  0  0  0  0  0  0  0
  186.6540  178.2960  140.5170 C   0  0  0  0  0  0  0  0  0  0  0  0
  184.8460  178.5670  144.9650 C   0  0  0  0  0  0  0  0  0  0  0  0
  184.4520  178.7500  142.1890 C   0  0  0  0  0  0  0  0  0  0  0  0
  185.2780  178.9140  138.5490 N   0  0  0  0  0  2  0  0  0  0  0  0
  188.9110  177.8730  137.5060 C   0  0  0  0  0  0  0  0  0  0  0  0
  190.1520  177.6440  138.1050 C   0  0  0  0  0  3  0  0  0  0  0  0
  187.8710  178.0460  139.7000 C   0  0  0  0  0  0  0  0  0  0  0  0
  190.2600  177.6210  139.4960 C   0  0  0  0  0  3  0  0  0  0  0  0
  187.7800  178.0780  138.2990 C   0  0  0  0  0  3  0  0  0  0  0  0
  189.1280  177.8260  140.2890 C   0  0  0  0  0  3  0  0  0  0  0  0
  188.7750  177.9090  135.7610 Cl  0  0  0  0  0  0  0  0  0  0  0  0
  185.0570  178.4880  146.4350 C   0  0  0  0  0  2  0  0  0  0  0  0
  186.1930  177.5290  146.7490 C   0  0  0  0  0  2  0  0  0  0  0  0
  188.5640  177.9570  146.0530 C   0  0  0  0  0  2  0  0  0  0  0  0
  189.2760  176.8250  146.4910 O   0  0  0  0  0  0  0  0  0  0  0  0
  189.3510  178.1010  148.5200 O   0  0  0  0  0  0  0  0  0  0  0  0
  187.9620  177.8980  148.4460 C   0  0  0  0  0  2  0  0  0  0  0  0
  187.4640  178.2970  147.0620 C   0  0  0  0  0  3  0  0  0  0  0  0
  190.0000  177.1660  147.6680 C   0  0  0  0  0  2  0  0  0  0  0  0
  1 13  1  6  0  0  0
  1  8  1  0  0  0  0
  2  8  1  0  0  0  0
  2 14  1  1  0  0  0
  3 18  1  0  0  0  0
  4 10  1  0  0  0  0
  5  6  1  0  0  0  0
  6  2  1  0  0  0  0
  7  9  2  0  0  0  0
  8  3  1  6  0  0  0
  9 17  1  0  0  0  0
 10 17  2  0  0  0  0
 11  5  2  0  0  0  0
 11  1  1  0  0  0  0
 12 16  1  0  0  0  0
 12  3  2  0  0  0  0
 13 19  1  0  0  0  0
 15  4  1  0  0  0  0
 16 15  2  0  0  0  0
 17 27  1  0  0  0  0
 18  4  2  0  0  0  0
 18  7  1  0  0  0  0
 19 12  1  0  0  0  0
 20 21  2  0  0  0  0
 20 24  1  0  0  0  0
 21 23  1  0  0  0  0
 22 25  1  0  0  0  0
 22 16  1  0  0  0  0
 23 25  2  0  0  0  0
 24 22  2  0  0  0  0
 26 20  1  0  0  0  0
 27 28  1  0  0  0  0
 28 33  1  0  0  0  0
 29 30  1  0  0  0  0
 29 33  1  0  0  0  0
 30 34  1  0  0  0  0
 32 31  1  0  0  0  0
 33 32  1  0  0  0  0
 34 31  1  0  0  0  0
M  END
>  <MODEL>
7

>  <REMARK>
 VINA RESULT:      -8.1      3.350      6.911
  Name = 
  4 active torsions:
  status: ('A' for Active; 'I' for Inactive)
    1  A    between atoms: C_3  and  C_13
    2  A    between atoms: C_3  and  C_29
    3  A    between atoms: C_12  and  C_28
    4  A    between atoms: C_13  and  C_33
                            x       y       z     vdW  Elec       q    Type
                         _______ _______ _______ _____ _____    ______ ____

>  <TORSDO>
F 4

$$$$
=
 OpenBabel10272400053D

 34 39  0  0  1  0  0  0  0  0999 V2000
  187.9010  176.6530  146.6200 C   0  0  2  0  0  3  0  0  0  0  0  0
  187.2860  179.0420  147.0920 C   0  0  1  0  0  3  0  0  0  0  0  0
  186.5580  177.9210  144.9120 C   0  0  0  0  0  0  0  0  0  0  0  0
  185.0660  178.4540  143.0720 C   0  0  0  0  0  0  0  0  0  0  0  0
  188.0690  177.5180  148.9600 C   0  0  0  0  0  3  0  0  0  0  0  0
  187.3760  178.8070  148.6000 C   0  0  0  0  0  2  0  0  0  0  0  0
  184.1900  178.4150  145.3350 C   0  0  0  0  0  3  0  0  0  0  0  0
  186.8340  177.7430  146.3930 C   0  0  1  0  0  3  0  0  0  0  0  0
  182.9250  178.7590  144.8510 C   0  0  0  0  0  3  0  0  0  0  0  0
  183.7990  178.8000  142.5930 C   0  0  0  0  0  3  0  0  0  0  0  0
  188.2620  176.5260  148.0770 C   0  0  0  0  0  3  0  0  0  0  0  0
  187.5940  177.7210  143.9750 C   0  0  0  0  0  0  0  0  0  0  0  0
  189.1640  176.9920  145.8300 C   0  0  0  0  0  2  0  0  0  0  0  0
  186.3410  180.2040  146.8450 C   0  0  0  0  0  1  0  0  0  0  0  0
  186.0910  178.2900  142.2010 N   0  0  0  0  0  0  0  0  0  0  0  0
  187.3450  177.9330  142.5980 C   0  0  0  0  0  0  0  0  0  0  0  0
  182.7300  178.9600  143.4800 C   0  0  0  0  0  0  0  0  0  0  0  0
  185.2730  178.2670  144.4540 C   0  0  0  0  0  0  0  0  0  0  0  0
  188.8470  177.1810  144.4210 N   0  0  0  0  0  2  0  0  0  0  0  0
  189.2030  178.3000  139.3190 C   0  0  0  0  0  0  0  0  0  0  0  0
  190.3580  177.5500  139.5550 C   0  0  0  0  0  3  0  0  0  0  0  0
  188.3880  177.7710  141.5500 C   0  0  0  0  0  0  0  0  0  0  0  0
  190.5360  176.9150  140.7850 C   0  0  0  0  0  3  0  0  0  0  0  0
  188.2270  178.4130  140.3120 C   0  0  0  0  0  3  0  0  0  0  0  0
  189.5590  177.0290  141.7790 C   0  0  0  0  0  3  0  0  0  0  0  0
  188.9810  179.1020  137.7790 Cl  0  0  0  0  0  0  0  0  0  0  0  0
  181.3790  179.3080  142.9650 C   0  0  0  0  0  2  0  0  0  0  0  0
  180.7630  178.1100  142.2620 C   0  0  0  0  0  2  0  0  0  0  0  0
  181.1440  177.8790  139.7940 C   0  0  0  0  0  2  0  0  0  0  0  0
  182.2320  178.7270  139.5180 O   0  0  0  0  0  0  0  0  0  0  0  0
  180.4710  180.3480  139.3740 O   0  0  0  0  0  0  0  0  0  0  0  0
  180.3460  180.0170  140.7340 C   0  0  0  0  0  2  0  0  0  0  0  0
  180.2670  178.5020  140.8820 C   0  0  0  0  0  3  0  0  0  0  0  0
  181.7440  179.9170  138.9090 C   0  0  0  0  0  2  0  0  0  0  0  0
  1 13  1  6  0  0  0
  1 11  1  0  0  0  0
  2 14  1  1  0  0  0
  2  6  1  0  0  0  0
  4 18  1  0  0  0  0
  6  5  1  0  0  0  0
  8  3  1  6  0  0  0
  8  1  1  0  0  0  0
  8  2  1  0  0  0  0
  9  7  1  0  0  0  0
 10  4  2  0  0  0  0
 10 17  1  0  0  0  0
 11  5  2  0  0  0  0
 12 19  1  0  0  0  0
 12  3  2  0  0  0  0
 15 16  2  0  0  0  0
 15  4  1  0  0  0  0
 16 12  1  0  0  0  0
 17  9  2  0  0  0  0
 18  3  1  0  0  0  0
 18  7  2  0  0  0  0
 19 13  1  0  0  0  0
 20 21  2  0  0  0  0
 20 24  1  0  0  0  0
 21 23  1  0  0  0  0
 22 25  1  0  0  0  0
 22 16  1  0  0  0  0
 23 25  2  0  0  0  0
 24 22  2  0  0  0  0
 26 20  1  0  0  0  0
 27 17  1  0  0  0  0
 28 27  1  0  0  0  0
 29 33  1  0  0  0  0
 30 29  1  0  0  0  0
 31 32  1  0  0  0  0
 32 33  1  0  0  0  0
 33 28  1  0  0  0  0
 34 31  1  0  0  0  0
 34 30  1  0  0  0  0
M  END
>  <MODEL>
8

>  <REMARK>
 VINA RESULT:      -8.1      2.146      3.546
  Name = 
  4 active torsions:
  status: ('A' for Active; 'I' for Inactive)
    1  A    between atoms: C_3  and  C_13
    2  A    between atoms: C_3  and  C_29
    3  A    between atoms: C_12  and  C_28
    4  A    between atoms: C_13  and  C_33
                            x       y       z     vdW  Elec       q    Type
                         _______ _______ _______ _____ _____    ______ ____

>  <TORSDO>
F 4

$$$$
=
 OpenBabel10272400053D

 34 39  0  0  1  0  0  0  0  0999 V2000
  190.7820  176.8670  137.2390 C   0  0  2  0  0  3  0  0  0  0  0  0
  188.9370  175.1650  137.1550 C   0  0  1  0  0  3  0  0  0  0  0  0
  188.7700  177.1840  138.7160 C   0  0  0  0  0  0  0  0  0  0  0  0
  187.0570  178.1960  140.1080 C   0  0  0  0  0  0  0  0  0  0  0  0
  190.6670  175.2840  135.3070 C   0  0  0  0  0  3  0  0  0  0  0  0
  189.3140  174.7700  135.7280 C   0  0  0  0  0  2  0  0  0  0  0  0
  186.6300  177.8860  137.7390 C   0  0  0  0  0  3  0  0  0  0  0  0
  189.2610  176.6570  137.3810 C   0  0  1  0  0  3  0  0  0  0  0  0
  185.3610  178.4490  137.8950 C   0  0  0  0  0  3  0  0  0  0  0  0
  185.7860  178.7570  140.2590 C   0  0  0  0  0  3  0  0  0  0  0  0
  191.3080  176.2650  135.9620 C   0  0  0  0  0  3  0  0  0  0  0  0
  189.6140  177.1290  139.8470 C   0  0  0  0  0  0  0  0  0  0  0  0
  191.5060  176.2230  138.4190 C   0  0  0  0  0  2  0  0  0  0  0  0
  187.4680  174.8420  137.3680 C   0  0  0  0  0  1  0  0  0  0  0  0
  187.8780  178.0950  141.1810 N   0  0  0  0  0  0  0  0  0  0  0  0
  189.1360  177.5790  141.1000 C   0  0  0  0  0  0  0  0  0  0  0  0
  184.9340  178.8780  139.1560 C   0  0  0  0  0  0  0  0  0  0  0  0
  187.4860  177.7460  138.8420 C   0  0  0  0  0  0  0  0  0  0  0  0
  190.9850  176.7370  139.6790 N   0  0  0  0  0  2  0  0  0  0  0  0
  191.3470  176.2520  143.8740 C   0  0  0  0  0  0  0  0  0  0  0  0
  191.5540  177.3950  144.6500 C   0  0  0  0  0  3  0  0  0  0  0  0
  189.9510  177.5300  142.3440 C   0  0  0  0  0  0  0  0  0  0  0  0
  190.9690  178.6060  144.2770 C   0  0  0  0  0  3  0  0  0  0  0  0
  190.5550  176.3210  142.7260 C   0  0  0  0  0  3  0  0  0  0  0  0
  190.1760  178.6740  143.1280 C   0  0  0  0  0  3  0  0  0  0  0  0
  192.0850  174.7340  144.3380 Cl  0  0  0  0  0  0  0  0  0  0  0  0
  183.5890  179.4930  139.3170 C   0  0  0  0  0  2  0  0  0  0  0  0
  182.5160  178.5430  138.8130 C   0  0  0  0  0  2  0  0  0  0  0  0
  182.4810  176.1460  139.5480 C   0  0  0  0  0  2  0  0  0  0  0  0
  181.4470  175.5560  138.7980 O   0  0  0  0  0  0  0  0  0  0  0  0
  180.1290  176.4170  140.6070 O   0  0  0  0  0  0  0  0  0  0  0  0
  180.5850  177.6360  140.0750 C   0  0  0  0  0  2  0  0  0  0  0  0
  182.0990  177.5830  139.9120 C   0  0  0  0  0  3  0  0  0  0  0  0
  180.3080  175.3940  139.6350 C   0  0  0  0  0  2  0  0  0  0  0  0
  1 11  1  6  0  0  0
  1  8  1  0  0  0  0
  1 13  1  0  0  0  0
  2 14  1  6  0  0  0
  2  8  1  0  0  0  0
  3 18  2  0  0  0  0
  3 12  1  0  0  0  0
  4 10  1  0  0  0  0
  4 15  2  0  0  0  0
  5  6  1  0  0  0  0
  5 11  2  0  0  0  0
  6  2  1  0  0  0  0
  7  9  2  0  0  0  0
  7 18  1  0  0  0  0
  8  3  1  1  0  0  0
  9 17  1  0  0  0  0
 12 16  2  0  0  0  0
 13 19  1  0  0  0  0
 16 15  1  0  0  0  0
 16 22  1  0  0  0  0
 17 27  1  0  0  0  0
 17 10  2  0  0  0  0
 18  4  1  0  0  0  0
 19 12  1  0  0  0  0
 20 26  1  0  0  0  0
 20 21  1  0  0  0  0
 22 24  1  0  0  0  0
 22 25  2  0  0  0  0
 23 21  2  0  0  0  0
 24 20  2  0  0  0  0
 25 23  1  0  0  0  0
 28 27  1  0  0  0  0
 28 33  1  0  0  0  0
 29 33  1  0  0  0  0
 30 29  1  0  0  0  0
 30 34  1  0  0  0  0
 32 31  1  0  0  0  0
 33 32  1  0  0  0  0
 34 31  1  0  0  0  0
M  END
>  <MODEL>
9

>  <REMARK>
 VINA RESULT:      -7.8      3.084      5.980
  Name = 
  4 active torsions:
  status: ('A' for Active; 'I' for Inactive)
    1  A    between atoms: C_3  and  C_13
    2  A    between atoms: C_3  and  C_29
    3  A    between atoms: C_12  and  C_28
    4  A    between atoms: C_13  and  C_33
                            x       y       z     vdW  Elec       q    Type
                         _______ _______ _______ _____ _____    ______ ____

>  <TORSDO>
F 4

$$$$
