=
 OpenBabel10272400583D

 27 31  0  0  0  0  0  0  0  0999 V2000
  187.6460  178.5110  140.9400 C   0  0  0  0  0  3  0  0  0  0  0  0
  189.6050  177.6120  142.1840 C   0  0  0  0  0  0  0  0  0  0  0  0
  187.6280  177.4090  143.7240 N   0  0  0  0  0  0  0  0  0  0  0  0
  191.9130  177.2600  145.5780 N   0  0  0  0  0  0  0  0  0  0  0  0
  191.0690  176.9480  147.8460 N   0  0  0  0  0  1  0  0  0  0  0  0
  191.0160  177.6830  142.0460 C   0  0  0  0  0  3  0  0  0  0  0  0
  189.6620  177.1500  145.8580 N   0  0  0  0  0  0  0  0  0  0  0  0
  184.2760  178.5740  143.3090 C   0  0  0  0  0  0  0  0  0  0  0  0
  188.3720  177.0310  146.5200 C   0  0  0  0  0  1  0  0  0  0  0  0
  182.7760  178.5270  144.2080 Cl  0  0  0  0  0  0  0  0  0  0  0  0
  189.9250  177.3210  144.5500 C   0  0  0  0  0  0  0  0  0  0  0  0
  188.7890  177.6540  141.0070 N   0  0  0  0  0  0  0  0  0  0  0  0
  190.8800  177.1160  146.4440 C   0  0  0  0  0  0  0  0  0  0  0  0
  191.2830  177.3880  144.3940 C   0  0  0  0  0  0  0  0  0  0  0  0
  186.6780  178.6150  141.8510 C   0  0  0  0  0  0  0  0  0  0  0  0
  189.0380  177.4530  143.4690 C   0  0  0  0  0  0  0  0  0  0  0  0
  185.3900  177.8750  143.7730 C   0  0  0  0  0  3  0  0  0  0  0  0
  191.8710  177.5770  143.1530 C   0  0  0  0  0  3  0  0  0  0  0  0
  184.3760  179.3480  142.1570 C   0  0  0  0  0  3  0  0  0  0  0  0
  185.5660  179.3570  141.4320 C   0  0  0  0  0  3  0  0  0  0  0  0
  186.6110  177.9090  143.0860 C   0  0  0  0  0  0  0  0  0  0  0  0
  190.0980  175.7940  137.4380 C   0  0  0  0  0  3  0  0  0  0  0  0
  189.2200  177.0050  139.7890 C   0  0  0  0  0  0  0  0  0  0  0  0
  190.4360  176.3060  139.7310 C   0  0  0  0  0  3  0  0  0  0  0  0
  190.8420  175.7200  138.5740 N   0  0  0  0  0  0  0  0  0  0  0  0
  188.8870  176.4860  137.4400 C   0  0  0  0  0  3  0  0  0  0  0  0
  188.4510  177.0940  138.6170 C   0  0  0  0  0  3  0  0  0  0  0  0
  1 12  1  0  0  0  0
  1 15  2  0  0  0  0
  2 16  1  0  0  0  0
  4 13  2  0  0  0  0
  6  2  2  0  0  0  0
  6 18  1  0  0  0  0
  7 13  1  0  0  0  0
  7  9  1  0  0  0  0
  8 17  2  0  0  0  0
  8 10  1  0  0  0  0
 11  7  1  0  0  0  0
 12  2  1  0  0  0  0
 13  5  1  0  0  0  0
 14 11  1  0  0  0  0
 14  4  1  0  0  0  0
 15 21  1  0  0  0  0
 16  3  1  0  0  0  0
 16 11  2  0  0  0  0
 18 14  2  0  0  0  0
 19  8  1  0  0  0  0
 20 15  1  0  0  0  0
 20 19  2  0  0  0  0
 21  3  2  0  0  0  0
 21 17  1  0  0  0  0
 22 26  2  0  0  0  0
 22 25  1  0  0  0  0
 23 12  1  0  0  0  0
 24 23  1  0  0  0  0
 25 24  2  0  0  0  0
 26 27  1  0  0  0  0
 27 23  2  0  0  0  0
M  END
>  <MODEL>
1

>  <REMARK>
 VINA RESULT:      -9.2      0.000      0.000
  Name = 
  1 active torsions:
  status: ('A' for Active; 'I' for Inactive)
    1  A    between atoms: C_9  and  N_15
                            x       y       z     vdW  Elec       q    Type
                         _______ _______ _______ _____ _____    ______ ____

>  <TORSDO>
F 1

$$$$
=
 OpenBabel10272400583D

 27 31  0  0  0  0  0  0  0  0999 V2000
  184.9760  177.7580  143.2580 C   0  0  0  0  0  3  0  0  0  0  0  0
  187.4300  177.4020  143.0450 C   0  0  0  0  0  0  0  0  0  0  0  0
  186.7030  178.6150  140.9670 N   0  0  0  0  0  0  0  0  0  0  0  0
  190.7820  176.3400  140.8990 N   0  0  0  0  0  0  0  0  0  0  0  0
  191.2700  177.0030  138.6010 N   0  0  0  0  0  1  0  0  0  0  0  0
  188.3950  176.5730  143.6750 C   0  0  0  0  0  3  0  0  0  0  0  0
  189.2670  177.6590  139.8390 N   0  0  0  0  0  0  0  0  0  0  0  0
  183.4200  179.4900  139.8580 C   0  0  0  0  0  0  0  0  0  0  0  0
  188.6390  178.4480  138.7910 C   0  0  0  0  0  1  0  0  0  0  0  0
  182.7000  180.3270  138.5020 Cl  0  0  0  0  0  0  0  0  0  0  0  0
  188.8220  177.4060  141.0840 C   0  0  0  0  0  0  0  0  0  0  0  0
  186.2960  177.8460  143.8000 N   0  0  0  0  0  0  0  0  0  0  0  0
  190.4480  177.0040  139.7650 C   0  0  0  0  0  0  0  0  0  0  0  0
  189.7410  176.6100  141.7110 C   0  0  0  0  0  0  0  0  0  0  0  0
  184.5840  178.1770  142.0550 C   0  0  0  0  0  0  0  0  0  0  0  0
  187.6310  177.8120  141.7070 C   0  0  0  0  0  0  0  0  0  0  0  0
  184.8070  179.4510  139.9980 C   0  0  0  0  0  3  0  0  0  0  0  0
  189.5600  176.1630  143.0110 C   0  0  0  0  0  3  0  0  0  0  0  0
  182.6140  178.8190  140.7730 C   0  0  0  0  0  3  0  0  0  0  0  0
  183.1950  178.1780  141.8660 C   0  0  0  0  0  3  0  0  0  0  0  0
  185.4150  178.7710  141.0620 C   0  0  0  0  0  0  0  0  0  0  0  0
  186.7030  178.8950  147.8800 C   0  0  0  0  0  3  0  0  0  0  0  0
  186.4310  178.1840  145.2000 C   0  0  0  0  0  0  0  0  0  0  0  0
  185.5620  179.1030  145.8100 C   0  0  0  0  0  3  0  0  0  0  0  0
  185.7120  179.4320  147.1200 N   0  0  0  0  0  0  0  0  0  0  0  0
  187.6000  177.9850  147.3190 C   0  0  0  0  0  3  0  0  0  0  0  0
  187.4620  177.6340  145.9760 C   0  0  0  0  0  3  0  0  0  0  0  0
  1 12  1  0  0  0  0
  2  6  1  0  0  0  0
  2 12  1  0  0  0  0
  3 21  2  0  0  0  0
  3 16  1  0  0  0  0
  4 14  1  0  0  0  0
  5 13  1  0  0  0  0
  7 11  1  0  0  0  0
  8 17  2  0  0  0  0
  8 19  1  0  0  0  0
  9  7  1  0  0  0  0
 10  8  1  0  0  0  0
 11 16  1  0  0  0  0
 11 14  2  0  0  0  0
 12 23  1  0  0  0  0
 13  7  1  0  0  0  0
 13  4  2  0  0  0  0
 14 18  1  0  0  0  0
 15  1  2  0  0  0  0
 16  2  2  0  0  0  0
 17 21  1  0  0  0  0
 18  6  2  0  0  0  0
 19 20  2  0  0  0  0
 20 15  1  0  0  0  0
 21 15  1  0  0  0  0
 23 24  2  0  0  0  0
 23 27  1  0  0  0  0
 24 25  1  0  0  0  0
 25 22  2  0  0  0  0
 26 22  1  0  0  0  0
 27 26  2  0  0  0  0
M  END
>  <MODEL>
2

>  <REMARK>
 VINA RESULT:      -9.1      2.559      5.897
  Name = 
  1 active torsions:
  status: ('A' for Active; 'I' for Inactive)
    1  A    between atoms: C_9  and  N_15
                            x       y       z     vdW  Elec       q    Type
                         _______ _______ _______ _____ _____    ______ ____

>  <TORSDO>
F 1

$$$$
=
 OpenBabel10272400583D

 27 31  0  0  0  0  0  0  0  0999 V2000
  184.8500  179.0880  143.6160 C   0  0  0  0  0  3  0  0  0  0  0  0
  185.9810  178.4160  141.5030 C   0  0  0  0  0  0  0  0  0  0  0  0
  187.3500  177.4570  143.3810 N   0  0  0  0  0  0  0  0  0  0  0  0
  189.3430  177.8960  139.1790 N   0  0  0  0  0  0  0  0  0  0  0  0
  191.4580  176.9390  139.9310 N   0  0  0  0  0  1  0  0  0  0  0  0
  185.9290  178.8300  140.1460 C   0  0  0  0  0  3  0  0  0  0  0  0
  189.4850  177.2260  141.3450 N   0  0  0  0  0  0  0  0  0  0  0  0
  187.0160  177.8970  146.9110 C   0  0  0  0  0  0  0  0  0  0  0  0
  190.0450  176.6860  142.5730 C   0  0  0  0  0  1  0  0  0  0  0  0
  187.8130  177.3280  148.3610 Cl  0  0  0  0  0  0  0  0  0  0  0  0
  188.2530  177.7200  141.1270 C   0  0  0  0  0  0  0  0  0  0  0  0
  184.7990  178.5160  142.3060 N   0  0  0  0  0  0  0  0  0  0  0  0
  190.1110  177.3470  140.1520 C   0  0  0  0  0  0  0  0  0  0  0  0
  188.1790  178.1220  139.8210 C   0  0  0  0  0  0  0  0  0  0  0  0
  185.7150  178.7800  144.5820 C   0  0  0  0  0  0  0  0  0  0  0  0
  187.1790  177.8700  142.0190 C   0  0  0  0  0  0  0  0  0  0  0  0
  187.3830  177.3870  145.6670 C   0  0  0  0  0  3  0  0  0  0  0  0
  187.0320  178.6920  139.2910 C   0  0  0  0  0  3  0  0  0  0  0  0
  186.0500  178.8960  146.9920 C   0  0  0  0  0  3  0  0  0  0  0  0
  185.4010  179.3230  145.8350 C   0  0  0  0  0  3  0  0  0  0  0  0
  186.7770  177.8370  144.4860 C   0  0  0  0  0  0  0  0  0  0  0  0
  180.9720  177.7040  140.6890 C   0  0  0  0  0  3  0  0  0  0  0  0
  183.4970  178.2490  141.7360 C   0  0  0  0  0  0  0  0  0  0  0  0
  182.3340  178.8050  142.2920 C   0  0  0  0  0  3  0  0  0  0  0  0
  181.1130  178.5270  141.7620 N   0  0  0  0  0  0  0  0  0  0  0  0
  182.0960  177.1170  140.1070 C   0  0  0  0  0  3  0  0  0  0  0  0
  183.3580  177.3900  140.6350 C   0  0  0  0  0  3  0  0  0  0  0  0
  1 15  2  0  0  0  0
  2 16  1  0  0  0  0
  2 12  1  0  0  0  0
  3 21  2  0  0  0  0
  4 14  1  0  0  0  0
  4 13  2  0  0  0  0
  5 13  1  0  0  0  0
  6  2  2  0  0  0  0
  7  9  1  0  0  0  0
  8 19  1  0  0  0  0
  8 10  1  0  0  0  0
 11  7  1  0  0  0  0
 11 16  2  0  0  0  0
 12  1  1  0  0  0  0
 13  7  1  0  0  0  0
 14 11  1  0  0  0  0
 15 20  1  0  0  0  0
 16  3  1  0  0  0  0
 17  8  2  0  0  0  0
 18 14  2  0  0  0  0
 18  6  1  0  0  0  0
 20 19  2  0  0  0  0
 21 15  1  0  0  0  0
 21 17  1  0  0  0  0
 22 25  1  0  0  0  0
 23 24  1  0  0  0  0
 23 12  1  0  0  0  0
 25 24  2  0  0  0  0
 26 27  1  0  0  0  0
 26 22  2  0  0  0  0
 27 23  2  0  0  0  0
M  END
>  <MODEL>
3

>  <REMARK>
 VINA RESULT:      -8.9      2.665      5.771
  Name = 
  1 active torsions:
  status: ('A' for Active; 'I' for Inactive)
    1  A    between atoms: C_9  and  N_15
                            x       y       z     vdW  Elec       q    Type
                         _______ _______ _______ _____ _____    ______ ____

>  <TORSDO>
F 1

$$$$
=
 OpenBabel10272400583D

 27 31  0  0  0  0  0  0  0  0999 V2000
  184.4200  179.1100  142.1650 C   0  0  0  0  0  3  0  0  0  0  0  0
  185.8020  178.3730  140.2300 C   0  0  0  0  0  0  0  0  0  0  0  0
  187.0280  177.6460  142.3000 N   0  0  0  0  0  0  0  0  0  0  0  0
  189.4090  177.9300  138.2910 N   0  0  0  0  0  0  0  0  0  0  0  0
  191.4920  177.1770  139.3160 N   0  0  0  0  0  1  0  0  0  0  0  0
  185.8630  178.6870  138.8470 C   0  0  0  0  0  3  0  0  0  0  0  0
  189.3710  177.4240  140.5050 N   0  0  0  0  0  0  0  0  0  0  0  0
  186.3080  178.3060  145.7370 C   0  0  0  0  0  0  0  0  0  0  0  0
  189.8350  177.0100  141.8200 C   0  0  0  0  0  1  0  0  0  0  0  0
  186.9860  177.8960  147.2970 Cl  0  0  0  0  0  0  0  0  0  0  0  0
  188.1390  177.8140  140.1310 C   0  0  0  0  0  0  0  0  0  0  0  0
  184.5390  178.4460  140.9040 N   0  0  0  0  0  0  0  0  0  0  0  0
  190.1070  177.5040  139.3730 C   0  0  0  0  0  0  0  0  0  0  0  0
  188.1740  178.1180  138.7970 C   0  0  0  0  0  0  0  0  0  0  0  0
  185.1990  178.9310  143.2310 C   0  0  0  0  0  0  0  0  0  0  0  0
  186.9720  177.9490  140.9000 C   0  0  0  0  0  0  0  0  0  0  0  0
  186.8310  177.7370  144.5770 C   0  0  0  0  0  3  0  0  0  0  0  0
  187.0540  178.5670  138.1160 C   0  0  0  0  0  3  0  0  0  0  0  0
  185.2780  179.2380  145.6460 C   0  0  0  0  0  3  0  0  0  0  0  0
  184.7250  179.5370  144.4030 C   0  0  0  0  0  3  0  0  0  0  0  0
  186.3230  178.0600  143.3110 C   0  0  0  0  0  0  0  0  0  0  0  0
  180.9440  177.3040  138.9840 C   0  0  0  0  0  3  0  0  0  0  0  0
  183.3220  178.0490  140.2310 C   0  0  0  0  0  0  0  0  0  0  0  0
  182.3720  179.0010  139.8300 C   0  0  0  0  0  3  0  0  0  0  0  0
  181.2200  178.6150  139.2200 N   0  0  0  0  0  0  0  0  0  0  0  0
  181.8500  176.3180  139.3730 C   0  0  0  0  0  3  0  0  0  0  0  0
  183.0380  176.6940  140.0000 C   0  0  0  0  0  3  0  0  0  0  0  0
  1 15  2  0  0  0  0
  2 16  1  0  0  0  0
  2 12  1  0  0  0  0
  3 21  2  0  0  0  0
  4 14  1  0  0  0  0
  4 13  2  0  0  0  0
  5 13  1  0  0  0  0
  6  2  2  0  0  0  0
  7  9  1  0  0  0  0
  8 10  1  0  0  0  0
 11  7  1  0  0  0  0
 11 16  2  0  0  0  0
 12  1  1  0  0  0  0
 13  7  1  0  0  0  0
 14 11  1  0  0  0  0
 15 21  1  0  0  0  0
 15 20  1  0  0  0  0
 16  3  1  0  0  0  0
 17  8  2  0  0  0  0
 18 14  2  0  0  0  0
 18  6  1  0  0  0  0
 19  8  1  0  0  0  0
 20 19  2  0  0  0  0
 21 17  1  0  0  0  0
 22 25  2  0  0  0  0
 22 26  1  0  0  0  0
 23 12  1  0  0  0  0
 24 23  2  0  0  0  0
 25 24  1  0  0  0  0
 26 27  2  0  0  0  0
 27 23  1  0  0  0  0
M  END
>  <MODEL>
4

>  <REMARK>
 VINA RESULT:      -8.0      2.950      5.780
  Name = 
  1 active torsions:
  status: ('A' for Active; 'I' for Inactive)
    1  A    between atoms: C_9  and  N_15
                            x       y       z     vdW  Elec       q    Type
                         _______ _______ _______ _____ _____    ______ ____

>  <TORSDO>
F 1

$$$$
=
 OpenBabel10272400583D

 27 31  0  0  0  0  0  0  0  0999 V2000
  183.6210  178.1800  137.7170 C   0  0  0  0  0  3  0  0  0  0  0  0
  183.3160  178.8560  140.0930 C   0  0  0  0  0  0  0  0  0  0  0  0
  185.7920  178.6080  139.7350 N   0  0  0  0  0  0  0  0  0  0  0  0
  184.1600  178.5220  144.1110 N   0  0  0  0  0  0  0  0  0  0  0  0
  186.3850  178.2630  145.0800 N   0  0  0  0  0  1  0  0  0  0  0  0
  182.2330  178.8840  141.0100 C   0  0  0  0  0  3  0  0  0  0  0  0
  185.9290  178.4600  142.6870 N   0  0  0  0  0  0  0  0  0  0  0  0
  187.5820  177.4170  136.8810 C   0  0  0  0  0  0  0  0  0  0  0  0
  187.3030  178.3640  142.2180 C   0  0  0  0  0  1  0  0  0  0  0  0
  189.2520  177.1860  136.4120 Cl  0  0  0  0  0  0  0  0  0  0  0  0
  184.8020  178.6080  141.9680 C   0  0  0  0  0  0  0  0  0  0  0  0
  183.0500  179.0490  138.6980 N   0  0  0  0  0  0  0  0  0  0  0  0
  185.5040  178.4140  143.9700 C   0  0  0  0  0  0  0  0  0  0  0  0
  183.7440  178.6410  142.8350 C   0  0  0  0  0  0  0  0  0  0  0  0
  184.9020  177.8240  137.6230 C   0  0  0  0  0  0  0  0  0  0  0  0
  184.6340  178.6890  140.5750 C   0  0  0  0  0  0  0  0  0  0  0  0
  187.2760  178.0410  138.0900 C   0  0  0  0  0  3  0  0  0  0  0  0
  182.4360  178.7710  142.3930 C   0  0  0  0  0  3  0  0  0  0  0  0
  186.5580  176.9350  136.0730 C   0  0  0  0  0  3  0  0  0  0  0  0
  185.2300  177.1480  136.4400 C   0  0  0  0  0  3  0  0  0  0  0  0
  185.9490  178.2220  138.5020 C   0  0  0  0  0  0  0  0  0  0  0  0
  180.0860  181.7640  137.3710 C   0  0  0  0  0  3  0  0  0  0  0  0
  182.0320  179.9810  138.2650 C   0  0  0  0  0  0  0  0  0  0  0  0
  180.9210  179.5470  137.5240 C   0  0  0  0  0  3  0  0  0  0  0  0
  179.9820  180.4350  137.1020 N   0  0  0  0  0  0  0  0  0  0  0  0
  181.1770  182.2470  138.0940 C   0  0  0  0  0  3  0  0  0  0  0  0
  182.1500  181.3520  138.5380 C   0  0  0  0  0  3  0  0  0  0  0  0
  1 12  1  0  0  0  0
  2 16  2  0  0  0  0
  2  6  1  0  0  0  0
  3 16  1  0  0  0  0
  6 18  2  0  0  0  0
  7 13  1  0  0  0  0
  8 17  2  0  0  0  0
  9  7  1  0  0  0  0
 10  8  1  0  0  0  0
 11  7  1  0  0  0  0
 11 14  2  0  0  0  0
 12  2  1  0  0  0  0
 13  4  2  0  0  0  0
 13  5  1  0  0  0  0
 14  4  1  0  0  0  0
 15  1  2  0  0  0  0
 15 21  1  0  0  0  0
 16 11  1  0  0  0  0
 17 21  1  0  0  0  0
 18 14  1  0  0  0  0
 19 20  2  0  0  0  0
 19  8  1  0  0  0  0
 20 15  1  0  0  0  0
 21  3  2  0  0  0  0
 22 26  1  0  0  0  0
 23 27  1  0  0  0  0
 23 12  1  0  0  0  0
 24 23  2  0  0  0  0
 25 22  2  0  0  0  0
 25 24  1  0  0  0  0
 26 27  2  0  0  0  0
M  END
>  <MODEL>
5

>  <REMARK>
 VINA RESULT:      -7.7      4.417      7.503
  Name = 
  1 active torsions:
  status: ('A' for Active; 'I' for Inactive)
    1  A    between atoms: C_9  and  N_15
                            x       y       z     vdW  Elec       q    Type
                         _______ _______ _______ _____ _____    ______ ____

>  <TORSDO>
F 1

$$$$
=
 OpenBabel10272400583D

 27 31  0  0  0  0  0  0  0  0999 V2000
  183.7080  178.2860  138.1610 C   0  0  0  0  0  3  0  0  0  0  0  0
  182.6950  178.9920  140.3230 C   0  0  0  0  0  0  0  0  0  0  0  0
  185.1780  178.8850  140.7010 N   0  0  0  0  0  0  0  0  0  0  0  0
  182.3580  178.7910  144.4230 N   0  0  0  0  0  0  0  0  0  0  0  0
  184.2180  178.6850  146.0000 N   0  0  0  0  0  1  0  0  0  0  0  0
  181.3930  178.9740  140.8890 C   0  0  0  0  0  3  0  0  0  0  0  0
  184.4640  178.8060  143.5710 N   0  0  0  0  0  0  0  0  0  0  0  0
  187.7750  177.7440  138.5280 C   0  0  0  0  0  0  0  0  0  0  0  0
  185.9170  178.7820  143.5210 C   0  0  0  0  0  1  0  0  0  0  0  0
  189.5190  177.6040  138.5670 Cl  0  0  0  0  0  0  0  0  0  0  0  0
  183.5870  178.8710  142.5530 C   0  0  0  0  0  0  0  0  0  0  0  0
  182.8340  179.1400  138.9040 N   0  0  0  0  0  0  0  0  0  0  0  0
  183.6890  178.7610  144.6790 C   0  0  0  0  0  0  0  0  0  0  0  0
  182.3230  178.8590  143.0780 C   0  0  0  0  0  0  0  0  0  0  0  0
  184.9780  178.0060  138.4530 C   0  0  0  0  0  0  0  0  0  0  0  0
  183.8240  178.9130  141.1700 C   0  0  0  0  0  0  0  0  0  0  0  0
  187.1020  178.3730  139.5740 C   0  0  0  0  0  3  0  0  0  0  0  0
  181.1940  178.9020  142.2750 C   0  0  0  0  0  3  0  0  0  0  0  0
  187.0540  177.1850  137.4770 C   0  0  0  0  0  3  0  0  0  0  0  0
  185.6680  177.3260  137.4390 C   0  0  0  0  0  3  0  0  0  0  0  0
  185.7040  178.4830  139.5800 C   0  0  0  0  0  0  0  0  0  0  0  0
  180.2470  181.6480  136.6830 C   0  0  0  0  0  3  0  0  0  0  0  0
  181.9380  180.0000  138.1630 C   0  0  0  0  0  0  0  0  0  0  0  0
  181.1490  179.4950  137.1170 C   0  0  0  0  0  3  0  0  0  0  0  0
  180.3280  180.3180  136.4110 N   0  0  0  0  0  0  0  0  0  0  0  0
  181.0190  182.2010  137.7050 C   0  0  0  0  0  3  0  0  0  0  0  0
  181.8660  181.3740  138.4420 C   0  0  0  0  0  3  0  0  0  0  0  0
  1 15  2  0  0  0  0
  1 12  1  0  0  0  0
  2  6  2  0  0  0  0
  2 16  1  0  0  0  0
  3 16  1  0  0  0  0
  4 13  2  0  0  0  0
  6 18  1  0  0  0  0
  7 13  1  0  0  0  0
  8 10  1  0  0  0  0
  8 17  2  0  0  0  0
  9  7  1  0  0  0  0
 11 14  1  0  0  0  0
 11  7  1  0  0  0  0
 12  2  1  0  0  0  0
 13  5  1  0  0  0  0
 14  4  1  0  0  0  0
 15 21  1  0  0  0  0
 16 11  2  0  0  0  0
 17 21  1  0  0  0  0
 18 14  2  0  0  0  0
 19  8  1  0  0  0  0
 20 19  2  0  0  0  0
 20 15  1  0  0  0  0
 21  3  2  0  0  0  0
 22 26  1  0  0  0  0
 23 27  1  0  0  0  0
 23 12  1  0  0  0  0
 24 23  2  0  0  0  0
 25 22  2  0  0  0  0
 25 24  1  0  0  0  0
 26 27  2  0  0  0  0
M  END
>  <MODEL>
6

>  <REMARK>
 VINA RESULT:      -7.7      4.523      7.653
  Name = 
  1 active torsions:
  status: ('A' for Active; 'I' for Inactive)
    1  A    between atoms: C_9  and  N_15
                            x       y       z     vdW  Elec       q    Type
                         _______ _______ _______ _____ _____    ______ ____

>  <TORSDO>
F 1

$$$$
=
 OpenBabel10272400583D

 27 31  0  0  0  0  0  0  0  0999 V2000
  190.1010  177.7530  137.6920 C   0  0  0  0  0  3  0  0  0  0  0  0
  190.8780  177.2940  140.0110 C   0  0  0  0  0  0  0  0  0  0  0  0
  188.3650  177.2910  140.0870 N   0  0  0  0  0  0  0  0  0  0  0  0
  190.7070  177.8640  144.0880 N   0  0  0  0  0  0  0  0  0  0  0  0
  188.6680  177.9970  145.4220 N   0  0  0  0  0  1  0  0  0  0  0  0
  192.0990  177.4350  140.7200 C   0  0  0  0  0  3  0  0  0  0  0  0
  188.7230  177.6550  143.0020 N   0  0  0  0  0  0  0  0  0  0  0  0
  185.9980  178.0900  137.5320 C   0  0  0  0  0  0  0  0  0  0  0  0
  187.2870  177.5910  142.7810 C   0  0  0  0  0  1  0  0  0  0  0  0
  184.2580  178.1330  137.3560 Cl  0  0  0  0  0  0  0  0  0  0  0  0
  189.7190  177.5540  142.1030 C   0  0  0  0  0  0  0  0  0  0  0  0
  190.9180  177.0180  138.6060 N   0  0  0  0  0  0  0  0  0  0  0  0
  189.3550  177.8390  144.1830 C   0  0  0  0  0  0  0  0  0  0  0  0
  190.9070  177.6830  142.7670 C   0  0  0  0  0  0  0  0  0  0  0  0
  188.7930  177.9840  137.8070 C   0  0  0  0  0  0  0  0  0  0  0  0
  189.6520  177.3800  140.7110 C   0  0  0  0  0  0  0  0  0  0  0  0
  186.5690  177.5920  138.7020 C   0  0  0  0  0  3  0  0  0  0  0  0
  192.1260  177.6370  142.1080 C   0  0  0  0  0  3  0  0  0  0  0  0
  186.8140  178.5980  136.5260 C   0  0  0  0  0  3  0  0  0  0  0  0
  188.1990  178.5340  136.6620 C   0  0  0  0  0  3  0  0  0  0  0  0
  187.9590  177.5640  138.8810 C   0  0  0  0  0  0  0  0  0  0  0  0
  193.8950  174.5110  136.9420 C   0  0  0  0  0  3  0  0  0  0  0  0
  191.9360  176.1500  138.0550 C   0  0  0  0  0  0  0  0  0  0  0  0
  193.2050  176.6460  137.7180 C   0  0  0  0  0  3  0  0  0  0  0  0
  194.1470  175.8260  137.1790 N   0  0  0  0  0  0  0  0  0  0  0  0
  192.6460  173.9720  137.2500 C   0  0  0  0  0  3  0  0  0  0  0  0
  191.6670  174.7960  137.8040 C   0  0  0  0  0  3  0  0  0  0  0  0
  1 15  2  0  0  0  0
  1 12  1  0  0  0  0
  2 16  2  0  0  0  0
  2  6  1  0  0  0  0
  3 16  1  0  0  0  0
  4 13  2  0  0  0  0
  6 18  2  0  0  0  0
  7 13  1  0  0  0  0
  8 17  2  0  0  0  0
  9  7  1  0  0  0  0
 10  8  1  0  0  0  0
 11 14  2  0  0  0  0
 11  7  1  0  0  0  0
 12  2  1  0  0  0  0
 13  5  1  0  0  0  0
 14  4  1  0  0  0  0
 15 21  1  0  0  0  0
 16 11  1  0  0  0  0
 17 21  1  0  0  0  0
 18 14  1  0  0  0  0
 19 20  2  0  0  0  0
 19  8  1  0  0  0  0
 20 15  1  0  0  0  0
 21  3  2  0  0  0  0
 22 25  2  0  0  0  0
 22 26  1  0  0  0  0
 23 12  1  0  0  0  0
 24 23  2  0  0  0  0
 25 24  1  0  0  0  0
 26 27  2  0  0  0  0
 27 23  1  0  0  0  0
M  END
>  <MODEL>
7

>  <REMARK>
 VINA RESULT:      -7.6      2.413      3.991
  Name = 
  1 active torsions:
  status: ('A' for Active; 'I' for Inactive)
    1  A    between atoms: C_9  and  N_15
                            x       y       z     vdW  Elec       q    Type
                         _______ _______ _______ _____ _____    ______ ____

>  <TORSDO>
F 1

$$$$
=
 OpenBabel10272400583D

 27 31  0  0  0  0  0  0  0  0999 V2000
  191.8210  176.9130  139.4810 C   0  0  0  0  0  3  0  0  0  0  0  0
  189.3520  177.2160  139.3950 C   0  0  0  0  0  0  0  0  0  0  0  0
  189.9150  175.4630  137.6830 N   0  0  0  0  0  0  0  0  0  0  0  0
  185.8080  177.6610  137.3430 N   0  0  0  0  0  0  0  0  0  0  0  0
  185.1330  176.3850  135.3760 N   0  0  0  0  0  1  0  0  0  0  0  0
  188.4330  178.1970  139.8500 C   0  0  0  0  0  3  0  0  0  0  0  0
  187.2470  176.0850  136.5650 N   0  0  0  0  0  0  0  0  0  0  0  0
  193.1030  174.2850  136.5790 C   0  0  0  0  0  0  0  0  0  0  0  0
  187.7940  175.0290  135.7280 C   0  0  0  0  0  1  0  0  0  0  0  0
  193.7170  173.0940  135.4530 Cl  0  0  0  0  0  0  0  0  0  0  0  0
  187.7940  176.6730  137.6440 C   0  0  0  0  0  0  0  0  0  0  0  0
  190.5560  176.9930  140.1400 N   0  0  0  0  0  0  0  0  0  0  0  0
  186.0530  176.7040  136.4160 C   0  0  0  0  0  0  0  0  0  0  0  0
  186.9200  177.6210  138.1030 C   0  0  0  0  0  0  0  0  0  0  0  0
  192.1140  176.1700  138.4130 C   0  0  0  0  0  0  0  0  0  0  0  0
  189.0430  176.4490  138.2480 C   0  0  0  0  0  0  0  0  0  0  0  0
  191.7340  174.3730  136.8240 C   0  0  0  0  0  3  0  0  0  0  0  0
  187.2070  178.4130  139.2040 C   0  0  0  0  0  3  0  0  0  0  0  0
  193.9750  175.1790  137.1930 C   0  0  0  0  0  3  0  0  0  0  0  0
  193.4810  176.1050  138.1100 C   0  0  0  0  0  3  0  0  0  0  0  0
  191.2100  175.3290  137.7050 C   0  0  0  0  0  0  0  0  0  0  0  0
  190.5880  177.1580  144.3700 C   0  0  0  0  0  3  0  0  0  0  0  0
  190.5500  177.0620  141.5850 C   0  0  0  0  0  0  0  0  0  0  0  0
  191.6070  177.6630  142.2860 C   0  0  0  0  0  3  0  0  0  0  0  0
  191.6020  177.7010  143.6450 N   0  0  0  0  0  0  0  0  0  0  0  0
  189.5190  176.5380  143.7210 C   0  0  0  0  0  3  0  0  0  0  0  0
  189.5050  176.4900  142.3270 C   0  0  0  0  0  3  0  0  0  0  0  0
  1 12  1  0  0  0  0
  2  6  1  0  0  0  0
  2 12  1  0  0  0  0
  3 21  2  0  0  0  0
  3 16  1  0  0  0  0
  4 14  1  0  0  0  0
  5 13  1  0  0  0  0
  7 11  1  0  0  0  0
  8 17  2  0  0  0  0
  8 19  1  0  0  0  0
  9  7  1  0  0  0  0
 10  8  1  0  0  0  0
 11 14  2  0  0  0  0
 11 16  1  0  0  0  0
 12 23  1  0  0  0  0
 13  7  1  0  0  0  0
 13  4  2  0  0  0  0
 14 18  1  0  0  0  0
 15  1  2  0  0  0  0
 16  2  2  0  0  0  0
 17 21  1  0  0  0  0
 18  6  2  0  0  0  0
 19 20  2  0  0  0  0
 20 15  1  0  0  0  0
 21 15  1  0  0  0  0
 23 24  2  0  0  0  0
 23 27  1  0  0  0  0
 24 25  1  0  0  0  0
 25 22  2  0  0  0  0
 26 22  1  0  0  0  0
 27 26  2  0  0  0  0
M  END
>  <MODEL>
8

>  <REMARK>
 VINA RESULT:      -7.5      3.854      8.266
  Name = 
  1 active torsions:
  status: ('A' for Active; 'I' for Inactive)
    1  A    between atoms: C_9  and  N_15
                            x       y       z     vdW  Elec       q    Type
                         _______ _______ _______ _____ _____    ______ ____

>  <TORSDO>
F 1

$$$$
=
 OpenBabel10272400583D

 27 31  0  0  0  0  0  0  0  0999 V2000
  191.3250  177.7490  141.2930 C   0  0  0  0  0  3  0  0  0  0  0  0
  188.8550  177.9100  141.0380 C   0  0  0  0  0  0  0  0  0  0  0  0
  189.6880  176.5710  139.0800 N   0  0  0  0  0  0  0  0  0  0  0  0
  185.4600  178.5350  138.7900 N   0  0  0  0  0  0  0  0  0  0  0  0
  185.0460  177.6370  136.5580 N   0  0  0  0  0  1  0  0  0  0  0  0
  187.8270  178.7220  141.5860 C   0  0  0  0  0  3  0  0  0  0  0  0
  187.0760  177.2380  137.8590 N   0  0  0  0  0  0  0  0  0  0  0  0
  193.0360  175.8360  138.0710 C   0  0  0  0  0  0  0  0  0  0  0  0
  187.7690  176.4050  136.8890 C   0  0  0  0  0  1  0  0  0  0  0  0
  193.8290  174.9330  136.7990 Cl  0  0  0  0  0  0  0  0  0  0  0  0
  187.4880  177.6320  139.0780 C   0  0  0  0  0  0  0  0  0  0  0  0
  190.0090  177.6170  141.8350 N   0  0  0  0  0  0  0  0  0  0  0  0
  185.8530  177.7980  137.7210 C   0  0  0  0  0  0  0  0  0  0  0  0
  186.5090  178.4130  139.6270 C   0  0  0  0  0  0  0  0  0  0  0  0
  191.7590  177.2530  140.1340 C   0  0  0  0  0  0  0  0  0  0  0  0
  188.6980  177.3690  139.7410 C   0  0  0  0  0  0  0  0  0  0  0  0
  191.6490  175.7880  138.2000 C   0  0  0  0  0  3  0  0  0  0  0  0
  186.6430  178.9860  140.8820 C   0  0  0  0  0  3  0  0  0  0  0  0
  193.7830  176.6410  138.9250 C   0  0  0  0  0  3  0  0  0  0  0  0
  193.1470  177.3340  139.9530 C   0  0  0  0  0  3  0  0  0  0  0  0
  190.9830  176.5150  139.1960 C   0  0  0  0  0  0  0  0  0  0  0  0
  189.6630  176.9130  145.9940 C   0  0  0  0  0  3  0  0  0  0  0  0
  189.8830  177.3960  143.2590 C   0  0  0  0  0  0  0  0  0  0  0  0
  191.0150  177.1790  144.0610 C   0  0  0  0  0  3  0  0  0  0  0  0
  190.8830  176.9480  145.3950 N   0  0  0  0  0  0  0  0  0  0  0  0
  188.5070  177.1130  145.2400 C   0  0  0  0  0  3  0  0  0  0  0  0
  188.6210  177.3510  143.8700 C   0  0  0  0  0  3  0  0  0  0  0  0
  1 12  1  0  0  0  0
  2  6  1  0  0  0  0
  2 12  1  0  0  0  0
  3 21  2  0  0  0  0
  3 16  1  0  0  0  0
  4 14  1  0  0  0  0
  5 13  1  0  0  0  0
  7 11  1  0  0  0  0
  8 17  2  0  0  0  0
  8 19  1  0  0  0  0
  9  7  1  0  0  0  0
 10  8  1  0  0  0  0
 11 14  2  0  0  0  0
 11 16  1  0  0  0  0
 12 23  1  0  0  0  0
 13  7  1  0  0  0  0
 13  4  2  0  0  0  0
 14 18  1  0  0  0  0
 15  1  2  0  0  0  0
 16  2  2  0  0  0  0
 17 21  1  0  0  0  0
 18  6  2  0  0  0  0
 19 20  2  0  0  0  0
 20 15  1  0  0  0  0
 21 15  1  0  0  0  0
 23 27  2  0  0  0  0
 23 24  1  0  0  0  0
 24 25  2  0  0  0  0
 25 22  1  0  0  0  0
 26 22  2  0  0  0  0
 27 26  1  0  0  0  0
M  END
>  <MODEL>
9

>  <REMARK>
 VINA RESULT:      -7.2      3.434      7.612
  Name = 
  1 active torsions:
  status: ('A' for Active; 'I' for Inactive)
    1  A    between atoms: C_9  and  N_15
                            x       y       z     vdW  Elec       q    Type
                         _______ _______ _______ _____ _____    ______ ____

>  <TORSDO>
F 1

$$$$
