=
 OpenBabel10262423423D

 34 39  0  0  1  0  0  0  0  0999 V2000
  182.4420  177.8140  139.1770 C   0  0  1  0  0  3  0  0  0  0  0  0
  183.8660  178.3040  141.1890 C   0  0  1  0  0  3  0  0  0  0  0  0
  184.8440  177.9650  138.8900 C   0  0  1  0  0  3  0  0  0  0  0  0
  187.4190  178.6690  137.1940 C   0  0  0  0  0  2  0  0  0  0  0  0
  180.7530  178.2510  137.9800 C   0  0  0  0  0  2  0  0  0  0  0  0
  182.7900  178.7980  141.9260 O   0  0  0  0  0  1  0  0  0  0  0  0
  186.3210  178.4330  140.8600 C   0  0  0  0  0  2  0  0  0  0  0  0
  183.6500  178.5500  139.6970 C   0  0  1  0  0  3  0  0  0  0  0  0
  187.4060  178.1070  138.6010 C   0  0  2  0  0  3  0  0  0  0  0  0
  180.9880  178.0930  139.4860 C   0  0  0  0  0  2  0  0  0  0  0  0
  184.5900  177.9170  137.3260 C   0  0  1  0  0  3  0  0  0  0  0  0
  182.2510  178.3780  137.8120 C   0  0  2  0  0  3  0  0  0  0  0  0
  185.1390  179.0080  141.6240 C   0  0  0  0  0  2  0  0  0  0  0  0
  186.9080  177.6520  136.1850 C   0  0  0  0  0  2  0  0  0  0  0  0
  185.5630  177.0210  136.5420 C   0  0  1  0  0  3  0  0  0  0  0  0
  186.1600  178.6310  139.3470 C   0  0  1  0  0  3  0  0  0  0  0  0
  183.1360  177.5400  136.9310 C   0  0  0  0  0  2  0  0  0  0  0  0
  186.9580  173.5280  137.2460 C   0  0  0  0  0  0  0  0  0  0  0  0
  185.7940  172.8620  137.6380 C   0  0  0  0  0  3  0  0  0  0  0  0
  185.6810  175.5780  136.9530 C   0  0  0  0  0  0  0  0  0  0  0  0
  184.5780  173.5440  137.6790 C   0  0  0  0  0  3  0  0  0  0  0  0
  186.9000  174.8820  136.9030 C   0  0  0  0  0  3  0  0  0  0  0  0
  184.5200  174.8980  137.3360 C   0  0  0  0  0  3  0  0  0  0  0  0
  188.1440  172.8730  137.2310 F   0  0  0  0  0  0  0  0  0  0  0  0
  188.6420  178.5120  139.2640 N   0  0  0  0  0  2  0  0  0  0  0  0
  189.4270  177.3070  139.4720 C   0  0  0  0  0  2  0  0  0  0  0  0
  190.3200  177.4590  140.6930 C   0  0  0  0  0  2  0  0  0  0  0  0
  189.9890  175.3890  142.7810 O   0  0  0  0  0  1  0  0  0  0  0  0
  189.5060  177.6120  141.9720 C   0  0  1  0  0  3  0  0  0  0  0  0
  188.9470  176.2690  142.4750 C   0  0  2  0  0  3  0  0  0  0  0  0
  188.3400  177.7460  144.4920 C   0  0  0  0  0  2  0  0  0  0  0  0
  189.8290  178.0670  144.4790 C   0  0  0  0  0  2  0  0  0  0  0  0
  190.3260  178.3420  143.0520 C   0  0  0  0  0  2  0  0  0  0  0  0
  188.0490  176.4540  143.7120 C   0  0  0  0  0  2  0  0  0  0  0  0
  1 10  1  1  0  0  0
  1  8  1  0  0  0  0
  2 13  1  0  0  0  0
  2  6  1  1  0  0  0
  3 16  1  0  0  0  0
  3  8  1  0  0  0  0
  4  9  1  0  0  0  0
  5 10  1  0  0  0  0
  7 13  1  0  0  0  0
  8  2  1  0  0  0  0
  9 25  1  0  0  0  0
  9 16  1  0  0  0  0
 11  3  1  0  0  0  0
 12  5  1  0  0  0  0
 12  1  1  0  0  0  0
 14 15  1  0  0  0  0
 14  4  1  0  0  0  0
 15 20  1  0  0  0  0
 15 11  1  0  0  0  0
 16  7  1  0  0  0  0
 17 11  1  0  0  0  0
 17 12  1  0  0  0  0
 18 19  1  0  0  0  0
 19 21  2  0  0  0  0
 20 23  2  0  0  0  0
 22 20  1  0  0  0  0
 22 18  2  0  0  0  0
 23 21  1  0  0  0  0
 24 18  1  0  0  0  0
 25 26  1  0  0  0  0
 26 27  1  0  0  0  0
 27 29  1  0  0  0  0
 29 30  1  0  0  0  0
 29 33  1  0  0  0  0
 30 28  1  0  0  0  0
 30 34  1  0  0  0  0
 32 31  1  0  0  0  0
 33 32  1  0  0  0  0
 34 31  1  0  0  0  0
M  END
>  <MODEL>
1

>  <REMARK>
 VINA RESULT:      -7.7      0.000      0.000
  Name = 
  5 active torsions:
  status: ('A' for Active; 'I' for Inactive)
    1  A    between atoms: C_3  and  C_13
    2  A    between atoms: C_3  and  C_17
    3  A    between atoms: C_12  and  C_28
    4  A    between atoms: C_17  and  N_29
    5  A    between atoms: C_18  and  N_29
                            x       y       z     vdW  Elec       q    Type
                         _______ _______ _______ _____ _____    ______ ____

>  <TORSDO>
F 5

$$$$
=
 OpenBabel10262423423D

 34 39  0  0  1  0  0  0  0  0999 V2000
  192.1380  174.7820  137.7210 C   0  0  1  0  0  3  0  0  0  0  0  0
  190.2270  173.3730  136.8980 C   0  0  1  0  0  3  0  0  0  0  0  0
  189.9110  175.7380  137.7120 C   0  0  1  0  0  3  0  0  0  0  0  0
  187.9160  178.1770  137.4400 C   0  0  0  0  0  2  0  0  0  0  0  0
  194.0990  175.5340  137.4670 C   0  0  0  0  0  2  0  0  0  0  0  0
  191.0690  172.4820  136.2330 O   0  0  0  0  0  1  0  0  0  0  0  0
  187.9590  174.3780  136.9200 C   0  0  0  0  0  2  0  0  0  0  0  0
  190.8490  174.7670  136.9390 C   0  0  1  0  0  3  0  0  0  0  0  0
  187.5310  176.7380  137.7170 C   0  0  2  0  0  3  0  0  0  0  0  0
  193.4570  174.1490  137.3360 C   0  0  0  0  0  2  0  0  0  0  0  0
  190.5840  177.1320  138.0530 C   0  0  1  0  0  3  0  0  0  0  0  0
  192.7080  176.1260  137.4270 C   0  0  2  0  0  3  0  0  0  0  0  0
  188.8980  173.4490  136.1680 C   0  0  0  0  0  2  0  0  0  0  0  0
  188.6630  178.7880  138.6160 C   0  0  0  0  0  2  0  0  0  0  0  0
  189.8450  177.9600  139.1180 C   0  0  1  0  0  3  0  0  0  0  0  0
  188.5340  175.7980  137.0150 C   0  0  1  0  0  3  0  0  0  0  0  0
  192.0820  177.0330  138.4500 C   0  0  0  0  0  2  0  0  0  0  0  0
  188.1890  176.9050  142.4030 C   0  0  0  0  0  0  0  0  0  0  0  0
  189.2310  176.1850  142.9950 C   0  0  0  0  0  3  0  0  0  0  0  0
  189.5890  177.3210  140.4570 C   0  0  0  0  0  0  0  0  0  0  0  0
  190.4470  176.0420  142.3290 C   0  0  0  0  0  3  0  0  0  0  0  0
  188.3690  177.4720  141.1380 C   0  0  0  0  0  3  0  0  0  0  0  0
  190.6280  176.6090  141.0640 C   0  0  0  0  0  3  0  0  0  0  0  0
  186.9980  177.0220  143.0370 F   0  0  0  0  0  0  0  0  0  0  0  0
  186.1690  176.5310  137.2340 N   0  0  0  0  0  2  0  0  0  0  0  0
  185.5180  177.8310  137.2260 C   0  0  0  0  0  2  0  0  0  0  0  0
  184.1210  177.7290  137.8160 C   0  0  0  0  0  2  0  0  0  0  0  0
  184.4300  180.2480  139.3390 O   0  0  0  0  0  1  0  0  0  0  0  0
  184.1390  177.8510  139.3350 C   0  0  1  0  0  3  0  0  0  0  0  0
  184.9730  179.0510  139.8170 C   0  0  2  0  0  3  0  0  0  0  0  0
  183.9110  178.3650  142.0570 C   0  0  0  0  0  2  0  0  0  0  0  0
  182.6070  178.5230  141.2840 C   0  0  0  0  0  2  0  0  0  0  0  0
  182.7040  177.8760  139.8940 C   0  0  0  0  0  2  0  0  0  0  0  0
  185.0600  179.1030  141.3540 C   0  0  0  0  0  2  0  0  0  0  0  0
  1 10  1  6  0  0  0
  2  6  1  6  0  0  0
  2  8  1  0  0  0  0
  3 11  1  0  0  0  0
  4  9  1  0  0  0  0
  4 14  1  0  0  0  0
  7 16  1  0  0  0  0
  8  3  1  0  0  0  0
  8  1  1  0  0  0  0
 10  5  1  0  0  0  0
 11 17  1  0  0  0  0
 11 15  1  0  0  0  0
 12  5  1  0  0  0  0
 12  1  1  0  0  0  0
 12 17  1  0  0  0  0
 13  2  1  0  0  0  0
 13  7  1  0  0  0  0
 14 15  1  0  0  0  0
 15 20  1  0  0  0  0
 16  3  1  0  0  0  0
 16  9  1  0  0  0  0
 18 19  1  0  0  0  0
 18 24  1  0  0  0  0
 20 23  2  0  0  0  0
 20 22  1  0  0  0  0
 21 19  2  0  0  0  0
 22 18  2  0  0  0  0
 23 21  1  0  0  0  0
 25  9  1  0  0  0  0
 26 25  1  0  0  0  0
 26 27  1  0  0  0  0
 27 29  1  0  0  0  0
 28 30  1  0  0  0  0
 29 30  1  0  0  0  0
 29 33  1  0  0  0  0
 30 34  1  0  0  0  0
 32 31  1  0  0  0  0
 33 32  1  0  0  0  0
 34 31  1  0  0  0  0
M  END
>  <MODEL>
2

>  <REMARK>
 VINA RESULT:      -7.6      2.950      7.492
  Name = 
  5 active torsions:
  status: ('A' for Active; 'I' for Inactive)
    1  A    between atoms: C_3  and  C_13
    2  A    between atoms: C_3  and  C_17
    3  A    between atoms: C_12  and  C_28
    4  A    between atoms: C_17  and  N_29
    5  A    between atoms: C_18  and  N_29
                            x       y       z     vdW  Elec       q    Type
                         _______ _______ _______ _____ _____    ______ ____

>  <TORSDO>
F 5

$$$$
=
 OpenBabel10262423423D

 34 39  0  0  1  0  0  0  0  0999 V2000
  182.2470  177.5720  138.3360 C   0  0  1  0  0  3  0  0  0  0  0  0
  183.3460  178.1270  140.5270 C   0  0  1  0  0  3  0  0  0  0  0  0
  184.6590  177.8070  138.3980 C   0  0  1  0  0  3  0  0  0  0  0  0
  187.4260  178.5930  137.0830 C   0  0  0  0  0  2  0  0  0  0  0  0
  180.7350  177.9380  136.9020 C   0  0  0  0  0  2  0  0  0  0  0  0
  182.1590  178.5870  141.0950 O   0  0  0  0  0  1  0  0  0  0  0  0
  185.8170  178.3430  140.5550 C   0  0  0  0  0  2  0  0  0  0  0  0
  183.3400  178.3550  139.0160 C   0  0  1  0  0  3  0  0  0  0  0  0
  187.2290  178.0400  138.4800 C   0  0  2  0  0  3  0  0  0  0  0  0
  180.7550  177.8000  138.4280 C   0  0  0  0  0  2  0  0  0  0  0  0
  184.6360  177.7400  136.8140 C   0  0  1  0  0  3  0  0  0  0  0  0
  182.2370  178.1190  136.9520 C   0  0  2  0  0  3  0  0  0  0  0  0
  184.5180  178.8800  141.1330 C   0  0  0  0  0  2  0  0  0  0  0  0
  187.1030  177.5500  136.0230 C   0  0  0  0  0  2  0  0  0  0  0  0
  185.7430  176.8740  136.1900 C   0  0  1  0  0  3  0  0  0  0  0  0
  185.8700  178.5240  139.0320 C   0  0  1  0  0  3  0  0  0  0  0  0
  183.2690  177.3080  136.2180 C   0  0  0  0  0  2  0  0  0  0  0  0
  184.8650  173.3520  137.4030 C   0  0  0  0  0  0  0  0  0  0  0  0
  186.1430  172.8060  137.5480 C   0  0  0  0  0  3  0  0  0  0  0  0
  185.8500  175.4390  136.6320 C   0  0  0  0  0  0  0  0  0  0  0  0
  187.2690  173.5710  137.2480 C   0  0  0  0  0  3  0  0  0  0  0  0
  184.7200  174.6660  136.9480 C   0  0  0  0  0  3  0  0  0  0  0  0
  187.1240  174.8850  136.7920 C   0  0  0  0  0  3  0  0  0  0  0  0
  183.7700  172.6000  137.6700 F   0  0  0  0  0  0  0  0  0  0  0  0
  188.3410  178.4950  139.3100 N   0  0  0  0  0  2  0  0  0  0  0  0
  189.1760  177.3350  139.5730 C   0  0  0  0  0  2  0  0  0  0  0  0
  190.0910  177.5970  140.7590 C   0  0  0  0  0  2  0  0  0  0  0  0
  189.7660  175.4560  142.7760 O   0  0  0  0  0  1  0  0  0  0  0  0
  189.3070  177.7150  142.0600 C   0  0  1  0  0  3  0  0  0  0  0  0
  188.7340  176.3650  142.5250 C   0  0  2  0  0  3  0  0  0  0  0  0
  188.1960  177.7760  144.6080 C   0  0  0  0  0  2  0  0  0  0  0  0
  189.6910  178.0710  144.5750 C   0  0  0  0  0  2  0  0  0  0  0  0
  190.1620  178.3910  143.1480 C   0  0  0  0  0  2  0  0  0  0  0  0
  187.8650  176.5200  143.7880 C   0  0  0  0  0  2  0  0  0  0  0  0
  1 10  1  1  0  0  0
  1  8  1  0  0  0  0
  2  6  1  1  0  0  0
  2 13  1  0  0  0  0
  3  8  1  0  0  0  0
  3 16  1  0  0  0  0
  4  9  1  0  0  0  0
  5 12  1  0  0  0  0
  5 10  1  0  0  0  0
  7 13  1  0  0  0  0
  8  2  1  0  0  0  0
  9 16  1  0  0  0  0
  9 25  1  0  0  0  0
 11  3  1  0  0  0  0
 12  1  1  0  0  0  0
 14 15  1  0  0  0  0
 14  4  1  0  0  0  0
 15 20  1  0  0  0  0
 15 11  1  0  0  0  0
 16  7  1  0  0  0  0
 17 11  1  0  0  0  0
 17 12  1  0  0  0  0
 18 19  1  0  0  0  0
 18 24  1  0  0  0  0
 20 23  2  0  0  0  0
 20 22  1  0  0  0  0
 21 19  2  0  0  0  0
 22 18  2  0  0  0  0
 23 21  1  0  0  0  0
 25 26  1  0  0  0  0
 26 27  1  0  0  0  0
 27 29  1  0  0  0  0
 29 30  1  0  0  0  0
 29 33  1  0  0  0  0
 30 28  1  0  0  0  0
 30 34  1  0  0  0  0
 32 31  1  0  0  0  0
 33 32  1  0  0  0  0
 34 31  1  0  0  0  0
M  END
>  <MODEL>
3

>  <REMARK>
 VINA RESULT:      -7.3      0.928      1.252
  Name = 
  5 active torsions:
  status: ('A' for Active; 'I' for Inactive)
    1  A    between atoms: C_3  and  C_13
    2  A    between atoms: C_3  and  C_17
    3  A    between atoms: C_12  and  C_28
    4  A    between atoms: C_17  and  N_29
    5  A    between atoms: C_18  and  N_29
                            x       y       z     vdW  Elec       q    Type
                         _______ _______ _______ _____ _____    ______ ____

>  <TORSDO>
F 5

$$$$
=
 OpenBabel10262423423D

 34 39  0  0  1  0  0  0  0  0999 V2000
  190.7990  174.2110  136.9710 C   0  0  1  0  0  3  0  0  0  0  0  0
  188.4380  173.4130  136.6480 C   0  0  1  0  0  3  0  0  0  0  0  0
  188.9910  175.8070  137.2120 C   0  0  1  0  0  3  0  0  0  0  0  0
  187.7850  178.7220  136.9810 C   0  0  0  0  0  2  0  0  0  0  0  0
  192.8080  174.3000  136.3110 C   0  0  0  0  0  2  0  0  0  0  0  0
  188.8380  172.2640  135.9660 O   0  0  0  0  0  1  0  0  0  0  0  0
  186.6130  175.0710  136.9200 C   0  0  0  0  0  2  0  0  0  0  0  0
  189.4370  174.5450  136.4190 C   0  0  1  0  0  3  0  0  0  0  0  0
  187.0560  177.4940  137.4880 C   0  0  2  0  0  3  0  0  0  0  0  0
  191.7750  173.1770  136.4550 C   0  0  0  0  0  2  0  0  0  0  0  0
  190.0960  176.9430  137.2690 C   0  0  1  0  0  3  0  0  0  0  0  0
  191.6690  175.2900  136.4290 C   0  0  2  0  0  3  0  0  0  0  0  0
  187.0750  173.8500  136.1410 C   0  0  0  0  0  2  0  0  0  0  0  0
  188.8890  179.1460  137.9360 C   0  0  0  0  0  2  0  0  0  0  0  0
  189.8510  178.0260  138.3340 C   0  0  1  0  0  3  0  0  0  0  0  0
  187.5860  176.2460  136.7490 C   0  0  1  0  0  3  0  0  0  0  0  0
  191.5460  176.4110  137.4240 C   0  0  0  0  0  2  0  0  0  0  0  0
  188.4240  177.4880  141.8440 C   0  0  0  0  0  0  0  0  0  0  0  0
  189.4900  176.8210  142.4530 C   0  0  0  0  0  3  0  0  0  0  0  0
  189.6820  177.5860  139.7630 C   0  0  0  0  0  0  0  0  0  0  0  0
  190.6490  176.5460  141.7290 C   0  0  0  0  0  3  0  0  0  0  0  0
  188.5220  177.8700  140.5020 C   0  0  0  0  0  3  0  0  0  0  0  0
  190.7470  176.9280  140.3870 C   0  0  0  0  0  3  0  0  0  0  0  0
  187.2880  177.7320  142.5390 F   0  0  0  0  0  0  0  0  0  0  0  0
  185.6270  177.6880  137.2620 N   0  0  0  0  0  2  0  0  0  0  0  0
  185.1650  178.6390  138.2600 C   0  0  0  0  0  2  0  0  0  0  0  0
  183.6550  178.5520  138.4180 C   0  0  0  0  0  2  0  0  0  0  0  0
  182.3070  176.5940  140.1810 O   0  0  0  0  0  1  0  0  0  0  0  0
  183.2230  178.8050  139.8560 C   0  0  1  0  0  3  0  0  0  0  0  0
  182.0030  177.9560  140.2600 C   0  0  2  0  0  3  0  0  0  0  0  0
  182.6110  178.9230  142.5660 C   0  0  0  0  0  2  0  0  0  0  0  0
  183.9750  178.3150  142.2630 C   0  0  0  0  0  2  0  0  0  0  0  0
  184.4090  178.6150  140.8200 C   0  0  0  0  0  2  0  0  0  0  0  0
  181.5210  178.2950  141.6840 C   0  0  0  0  0  2  0  0  0  0  0  0
  1 10  1  6  0  0  0
  2  6  1  6  0  0  0
  3 11  1  0  0  0  0
  4  9  1  0  0  0  0
  4 14  1  0  0  0  0
  5 12  1  0  0  0  0
  5 10  1  0  0  0  0
  8  2  1  0  0  0  0
  8  1  1  0  0  0  0
  8  3  1  0  0  0  0
 11 17  1  0  0  0  0
 11 15  1  0  0  0  0
 12  1  1  0  0  0  0
 12 17  1  0  0  0  0
 13  2  1  0  0  0  0
 13  7  1  0  0  0  0
 14 15  1  0  0  0  0
 15 20  1  0  0  0  0
 16  7  1  0  0  0  0
 16  3  1  0  0  0  0
 16  9  1  0  0  0  0
 18 19  1  0  0  0  0
 18 24  1  0  0  0  0
 20 23  2  0  0  0  0
 20 22  1  0  0  0  0
 21 19  2  0  0  0  0
 22 18  2  0  0  0  0
 23 21  1  0  0  0  0
 25  9  1  0  0  0  0
 25 26  1  0  0  0  0
 26 27  1  0  0  0  0
 27 29  1  0  0  0  0
 28 30  1  0  0  0  0
 29 30  1  0  0  0  0
 29 33  1  0  0  0  0
 30 34  1  0  0  0  0
 32 31  1  0  0  0  0
 33 32  1  0  0  0  0
 34 31  1  0  0  0  0
M  END
>  <MODEL>
4

>  <REMARK>
 VINA RESULT:      -7.0      2.880      7.150
  Name = 
  5 active torsions:
  status: ('A' for Active; 'I' for Inactive)
    1  A    between atoms: C_3  and  C_13
    2  A    between atoms: C_3  and  C_17
    3  A    between atoms: C_12  and  C_28
    4  A    between atoms: C_17  and  N_29
    5  A    between atoms: C_18  and  N_29
                            x       y       z     vdW  Elec       q    Type
                         _______ _______ _______ _____ _____    ______ ____

>  <TORSDO>
F 5

$$$$
=
 OpenBabel10262423423D

 34 39  0  0  1  0  0  0  0  0999 V2000
  190.2170  173.8510  135.7630 C   0  0  1  0  0  3  0  0  0  0  0  0
  188.1610  172.5520  136.3940 C   0  0  1  0  0  3  0  0  0  0  0  0
  188.2350  175.0710  136.4370 C   0  0  1  0  0  3  0  0  0  0  0  0
  186.3170  177.5830  136.3020 C   0  0  0  0  0  2  0  0  0  0  0  0
  191.8220  174.2040  134.4280 C   0  0  0  0  0  2  0  0  0  0  0  0
  188.6030  171.3930  135.7560 O   0  0  0  0  0  1  0  0  0  0  0  0
  186.1570  173.8350  137.0960 C   0  0  0  0  0  2  0  0  0  0  0  0
  188.7130  173.7920  135.6930 C   0  0  1  0  0  3  0  0  0  0  0  0
  186.1240  176.3610  137.1760 C   0  0  2  0  0  3  0  0  0  0  0  0
  191.2100  172.9490  135.0610 C   0  0  0  0  0  2  0  0  0  0  0  0
  188.9730  176.3930  135.9630 C   0  0  1  0  0  3  0  0  0  0  0  0
  190.5670  174.9520  134.8230 C   0  0  2  0  0  3  0  0  0  0  0  0
  186.6440  172.6000  136.3550 C   0  0  0  0  0  2  0  0  0  0  0  0
  187.5210  178.3990  136.7460 C   0  0  0  0  0  2  0  0  0  0  0  0
  188.8110  177.5950  136.9080 C   0  0  1  0  0  3  0  0  0  0  0  0
  186.6920  175.1210  136.4520 C   0  0  1  0  0  3  0  0  0  0  0  0
  190.4830  176.2000  135.6560 C   0  0  0  0  0  2  0  0  0  0  0  0
  188.8520  177.7230  140.7320 C   0  0  0  0  0  0  0  0  0  0  0  0
  190.1040  177.1610  140.9930 C   0  0  0  0  0  3  0  0  0  0  0  0
  189.2200  177.4230  138.3460 C   0  0  0  0  0  0  0  0  0  0  0  0
  190.9160  176.7420  139.9400 C   0  0  0  0  0  3  0  0  0  0  0  0
  188.4130  177.8550  139.4110 C   0  0  0  0  0  3  0  0  0  0  0  0
  190.4770  176.8730  138.6190 C   0  0  0  0  0  3  0  0  0  0  0  0
  188.0520  178.1070  141.7560 F   0  0  0  0  0  0  0  0  0  0  0  0
  184.6970  176.2190  137.4500 N   0  0  0  0  0  2  0  0  0  0  0  0
  184.0500  177.4270  136.9670 C   0  0  0  0  0  2  0  0  0  0  0  0
  182.9720  177.8780  137.9400 C   0  0  0  0  0  2  0  0  0  0  0  0
  184.1120  180.2880  139.2250 O   0  0  0  0  0  1  0  0  0  0  0  0
  183.4990  177.9570  139.3680 C   0  0  1  0  0  3  0  0  0  0  0  0
  184.6050  179.0160  139.5270 C   0  0  2  0  0  3  0  0  0  0  0  0
  184.2410  178.4290  142.0050 C   0  0  0  0  0  2  0  0  0  0  0  0
  182.7930  178.7880  141.6930 C   0  0  0  0  0  2  0  0  0  0  0  0
  182.3420  178.1700  140.3610 C   0  0  0  0  0  2  0  0  0  0  0  0
  185.1920  179.0150  140.9510 C   0  0  0  0  0  2  0  0  0  0  0  0
  1 10  1  6  0  0  0
  2  6  1  6  0  0  0
  3 16  1  0  0  0  0
  4 14  1  0  0  0  0
  4  9  1  0  0  0  0
  5 12  1  0  0  0  0
  5 10  1  0  0  0  0
  8  1  1  0  0  0  0
  8  2  1  0  0  0  0
  8  3  1  0  0  0  0
  9 25  1  0  0  0  0
 11  3  1  0  0  0  0
 11 15  1  0  0  0  0
 12 17  1  0  0  0  0
 12  1  1  0  0  0  0
 13  2  1  0  0  0  0
 13  7  1  0  0  0  0
 14 15  1  0  0  0  0
 15 20  1  0  0  0  0
 16  7  1  0  0  0  0
 16  9  1  0  0  0  0
 17 11  1  0  0  0  0
 18 19  1  0  0  0  0
 18 24  1  0  0  0  0
 20 23  2  0  0  0  0
 20 22  1  0  0  0  0
 21 19  2  0  0  0  0
 22 18  2  0  0  0  0
 23 21  1  0  0  0  0
 26 25  1  0  0  0  0
 26 27  1  0  0  0  0
 27 29  1  0  0  0  0
 28 30  1  0  0  0  0
 29 30  1  0  0  0  0
 29 33  1  0  0  0  0
 30 34  1  0  0  0  0
 32 31  1  0  0  0  0
 33 32  1  0  0  0  0
 34 31  1  0  0  0  0
M  END
>  <MODEL>
5

>  <REMARK>
 VINA RESULT:      -7.0      2.922      7.087
  Name = 
  5 active torsions:
  status: ('A' for Active; 'I' for Inactive)
    1  A    between atoms: C_3  and  C_13
    2  A    between atoms: C_3  and  C_17
    3  A    between atoms: C_12  and  C_28
    4  A    between atoms: C_17  and  N_29
    5  A    between atoms: C_18  and  N_29
                            x       y       z     vdW  Elec       q    Type
                         _______ _______ _______ _____ _____    ______ ____

>  <TORSDO>
F 5

$$$$
=
 OpenBabel10262423423D

 34 39  0  0  1  0  0  0  0  0999 V2000
  183.2730  176.1840  135.9290 C   0  0  1  0  0  3  0  0  0  0  0  0
  185.5840  177.1580  136.0770 C   0  0  1  0  0  3  0  0  0  0  0  0
  183.8540  177.5010  137.8780 C   0  0  1  0  0  3  0  0  0  0  0  0
  183.6250  178.1910  140.9560 C   0  0  0  0  0  2  0  0  0  0  0  0
  182.0020  174.5340  135.5510 C   0  0  0  0  0  2  0  0  0  0  0  0
  186.0980  176.2850  135.1180 O   0  0  0  0  0  1  0  0  0  0  0  0
  186.1380  178.5150  138.0780 C   0  0  0  0  0  2  0  0  0  0  0  0
  184.4330  176.5010  136.8360 C   0  0  1  0  0  3  0  0  0  0  0  0
  184.4790  178.9230  139.9410 C   0  0  2  0  0  3  0  0  0  0  0  0
  183.2150  175.1390  134.8360 C   0  0  0  0  0  2  0  0  0  0  0  0
  182.4860  177.0240  138.5220 C   0  0  1  0  0  3  0  0  0  0  0  0
  182.3910  175.3330  136.7760 C   0  0  2  0  0  3  0  0  0  0  0  0
  186.6800  177.5210  137.0630 C   0  0  0  0  0  2  0  0  0  0  0  0
  182.1420  178.4070  140.6940 C   0  0  0  0  0  2  0  0  0  0  0  0
  181.7030  178.1230  139.2580 C   0  0  1  0  0  3  0  0  0  0  0  0
  184.9620  177.9240  138.8670 C   0  0  1  0  0  3  0  0  0  0  0  0
  181.5310  176.3120  137.5260 C   0  0  0  0  0  2  0  0  0  0  0  0
  180.7530  180.5330  136.4400 C   0  0  0  0  0  0  0  0  0  0  0  0
  180.8090  181.7540  137.1190 C   0  0  0  0  0  3  0  0  0  0  0  0
  181.3500  179.3710  138.4930 C   0  0  0  0  0  0  0  0  0  0  0  0
  181.1430  181.7870  138.4710 C   0  0  0  0  0  3  0  0  0  0  0  0
  181.0250  179.3450  137.1270 C   0  0  0  0  0  3  0  0  0  0  0  0
  181.4140  180.6000  139.1580 C   0  0  0  0  0  3  0  0  0  0  0  0
  180.4030  180.4970  135.1320 F   0  0  0  0  0  0  0  0  0  0  0  0
  185.5980  179.5380  140.6470 N   0  0  0  0  0  2  0  0  0  0  0  0
  185.9870  178.6230  141.7070 C   0  0  0  0  0  2  0  0  0  0  0  0
  187.4460  178.2240  141.5570 C   0  0  0  0  0  2  0  0  0  0  0  0
  187.8570  175.9030  143.3460 O   0  0  0  0  0  1  0  0  0  0  0  0
  188.1790  178.2520  142.8930 C   0  0  1  0  0  3  0  0  0  0  0  0
  187.6580  177.1830  143.8700 C   0  0  2  0  0  3  0  0  0  0  0  0
  189.7110  177.9860  145.1970 C   0  0  0  0  0  2  0  0  0  0  0  0
  190.4540  177.6380  143.9130 C   0  0  0  0  0  2  0  0  0  0  0  0
  189.7010  178.1530  142.6780 C   0  0  0  0  0  2  0  0  0  0  0  0
  188.3420  177.2890  145.2460 C   0  0  0  0  0  2  0  0  0  0  0  0
  1 10  1  6  0  0  0
  1 12  1  0  0  0  0
  1  8  1  0  0  0  0
  2  6  1  6  0  0  0
  2  8  1  0  0  0  0
  2 13  1  0  0  0  0
  3 11  1  0  0  0  0
  3 16  1  0  0  0  0
  5 12  1  0  0  0  0
  7 16  1  0  0  0  0
  8  3  1  0  0  0  0
  9 25  1  0  0  0  0
  9  4  1  0  0  0  0
 10  5  1  0  0  0  0
 11 15  1  0  0  0  0
 12 17  1  0  0  0  0
 13  7  1  0  0  0  0
 14  4  1  0  0  0  0
 15 14  1  0  0  0  0
 16  9  1  0  0  0  0
 17 11  1  0  0  0  0
 18 19  2  0  0  0  0
 18 22  1  0  0  0  0
 19 21  1  0  0  0  0
 20 23  1  0  0  0  0
 20 15  1  0  0  0  0
 21 23  2  0  0  0  0
 22 20  2  0  0  0  0
 24 18  1  0  0  0  0
 25 26  1  0  0  0  0
 27 26  1  0  0  0  0
 27 29  1  0  0  0  0
 28 30  1  0  0  0  0
 29 30  1  0  0  0  0
 30 34  1  0  0  0  0
 31 34  1  0  0  0  0
 32 31  1  0  0  0  0
 33 29  1  0  0  0  0
 33 32  1  0  0  0  0
M  END
>  <MODEL>
6

>  <REMARK>
 VINA RESULT:      -6.9      2.956      5.242
  Name = 
  5 active torsions:
  status: ('A' for Active; 'I' for Inactive)
    1  A    between atoms: C_3  and  C_13
    2  A    between atoms: C_3  and  C_17
    3  A    between atoms: C_12  and  C_28
    4  A    between atoms: C_17  and  N_29
    5  A    between atoms: C_18  and  N_29
                            x       y       z     vdW  Elec       q    Type
                         _______ _______ _______ _____ _____    ______ ____

>  <TORSDO>
F 5

$$$$
=
 OpenBabel10262423423D

 34 39  0  0  1  0  0  0  0  0999 V2000
  184.0280  176.4420  135.5300 C   0  0  1  0  0  3  0  0  0  0  0  0
  186.1330  177.5200  136.3790 C   0  0  1  0  0  3  0  0  0  0  0  0
  183.9530  177.6330  137.6390 C   0  0  1  0  0  3  0  0  0  0  0  0
  182.8320  178.0710  140.5650 C   0  0  0  0  0  2  0  0  0  0  0  0
  183.0330  174.7620  134.7130 C   0  0  0  0  0  2  0  0  0  0  0  0
  186.9530  176.7520  135.5520 O   0  0  0  0  0  1  0  0  0  0  0  0
  186.0130  178.7460  138.5320 C   0  0  0  0  0  2  0  0  0  0  0  0
  184.8670  176.7480  136.7440 C   0  0  1  0  0  3  0  0  0  0  0  0
  183.8790  178.9220  139.8750 C   0  0  2  0  0  3  0  0  0  0  0  0
  184.3500  175.4830  134.4050 C   0  0  0  0  0  2  0  0  0  0  0  0
  182.4970  177.0370  137.8440 C   0  0  1  0  0  3  0  0  0  0  0  0
  183.0100  175.4840  136.0430 C   0  0  2  0  0  3  0  0  0  0  0  0
  186.8850  177.8640  137.6530 C   0  0  0  0  0  2  0  0  0  0  0  0
  181.4690  178.2290  139.9100 C   0  0  0  0  0  2  0  0  0  0  0  0
  181.4650  178.0340  138.3940 C   0  0  1  0  0  3  0  0  0  0  0  0
  184.7100  178.0350  138.9230 C   0  0  1  0  0  3  0  0  0  0  0  0
  181.9080  176.3560  136.5790 C   0  0  0  0  0  2  0  0  0  0  0  0
  181.0550  181.7400  137.5330 C   0  0  0  0  0  0  0  0  0  0  0  0
  180.7320  181.6530  136.1760 C   0  0  0  0  0  3  0  0  0  0  0  0
  181.2490  179.3170  137.6370 C   0  0  0  0  0  0  0  0  0  0  0  0
  180.6570  180.4080  135.5540 C   0  0  0  0  0  3  0  0  0  0  0  0
  181.3120  180.5740  138.2610 C   0  0  0  0  0  3  0  0  0  0  0  0
  180.9130  179.2420  136.2810 C   0  0  0  0  0  3  0  0  0  0  0  0
  181.1540  182.9510  138.1320 F   0  0  0  0  0  0  0  0  0  0  0  0
  184.7130  179.5380  140.9030 N   0  0  0  0  0  2  0  0  0  0  0  0
  184.6420  178.6830  142.0770 C   0  0  0  0  0  2  0  0  0  0  0  0
  184.6260  179.5220  143.3450 C   0  0  0  0  0  2  0  0  0  0  0  0
  184.1080  178.4130  146.0390 O   0  0  0  0  0  1  0  0  0  0  0  0
  185.6900  179.0650  144.3360 C   0  0  1  0  0  3  0  0  0  0  0  0
  185.2300  179.2100  145.7980 C   0  0  2  0  0  3  0  0  0  0  0  0
  187.4130  177.9050  146.1830 C   0  0  0  0  0  2  0  0  0  0  0  0
  186.7810  176.9130  145.2140 C   0  0  0  0  0  2  0  0  0  0  0  0
  186.1550  177.6340  144.0110 C   0  0  0  0  0  2  0  0  0  0  0  0
  186.3500  178.8370  146.7870 C   0  0  0  0  0  2  0  0  0  0  0  0
  1 10  1  6  0  0  0
  1 12  1  0  0  0  0
  1  8  1  0  0  0  0
  2  6  1  6  0  0  0
  2  8  1  0  0  0  0
  2 13  1  0  0  0  0
  3 11  1  0  0  0  0
  3 16  1  0  0  0  0
  5 12  1  0  0  0  0
  7 16  1  0  0  0  0
  8  3  1  0  0  0  0
  9  4  1  0  0  0  0
  9 25  1  0  0  0  0
 10  5  1  0  0  0  0
 11 15  1  0  0  0  0
 12 17  1  0  0  0  0
 13  7  1  0  0  0  0
 14  4  1  0  0  0  0
 15 14  1  0  0  0  0
 16  9  1  0  0  0  0
 17 11  1  0  0  0  0
 18 24  1  0  0  0  0
 18 22  1  0  0  0  0
 19 18  2  0  0  0  0
 20 22  2  0  0  0  0
 20 15  1  0  0  0  0
 21 19  1  0  0  0  0
 21 23  2  0  0  0  0
 23 20  1  0  0  0  0
 25 26  1  0  0  0  0
 26 27  1  0  0  0  0
 27 29  1  0  0  0  0
 29 30  1  0  0  0  0
 30 28  1  0  0  0  0
 30 34  1  0  0  0  0
 31 34  1  0  0  0  0
 32 31  1  0  0  0  0
 33 29  1  0  0  0  0
 33 32  1  0  0  0  0
M  END
>  <MODEL>
7

>  <REMARK>
 VINA RESULT:      -6.7      3.465      5.873
  Name = 
  5 active torsions:
  status: ('A' for Active; 'I' for Inactive)
    1  A    between atoms: C_3  and  C_13
    2  A    between atoms: C_3  and  C_17
    3  A    between atoms: C_12  and  C_28
    4  A    between atoms: C_17  and  N_29
    5  A    between atoms: C_18  and  N_29
                            x       y       z     vdW  Elec       q    Type
                         _______ _______ _______ _____ _____    ______ ____

>  <TORSDO>
F 5

$$$$
=
 OpenBabel10262423423D

 34 39  0  0  1  0  0  0  0  0999 V2000
  186.3890  177.9330  141.9020 C   0  0  1  0  0  3  0  0  0  0  0  0
  188.6950  176.9900  142.2270 C   0  0  1  0  0  3  0  0  0  0  0  0
  187.8520  177.7560  139.9780 C   0  0  1  0  0  3  0  0  0  0  0  0
  188.9170  178.7570  137.1730 C   0  0  0  0  0  2  0  0  0  0  0  0
  184.8490  179.2530  142.5050 C   0  0  0  0  0  2  0  0  0  0  0  0
  188.6730  177.2050  143.6050 O   0  0  0  0  0  1  0  0  0  0  0  0
  190.1590  176.8080  140.2330 C   0  0  0  0  0  2  0  0  0  0  0  0
  187.8400  178.0320  141.5090 C   0  0  1  0  0  3  0  0  0  0  0  0
  189.4130  177.5440  137.9320 C   0  0  2  0  0  3  0  0  0  0  0  0
  185.7700  178.2720  143.2400 C   0  0  0  0  0  2  0  0  0  0  0  0
  186.7810  178.6030  139.1730 C   0  0  1  0  0  3  0  0  0  0  0  0
  185.7860  179.1630  141.3200 C   0  0  2  0  0  3  0  0  0  0  0  0
  190.1240  177.0950  141.7250 C   0  0  0  0  0  2  0  0  0  0  0  0
  187.4940  178.5560  136.6750 C   0  0  0  0  0  2  0  0  0  0  0  0
  186.5030  178.1000  137.7460 C   0  0  1  0  0  3  0  0  0  0  0  0
  189.3020  177.8110  139.4490 C   0  0  1  0  0  3  0  0  0  0  0  0
  185.4270  178.7790  139.9120 C   0  0  0  0  0  2  0  0  0  0  0  0
  186.5360  174.3220  137.1390 C   0  0  0  0  0  0  0  0  0  0  0  0
  185.1660  174.0480  137.1580 C   0  0  0  0  0  3  0  0  0  0  0  0
  186.0680  176.6700  137.5730 C   0  0  0  0  0  0  0  0  0  0  0  0
  184.2510  175.0770  137.3720 C   0  0  0  0  0  3  0  0  0  0  0  0
  186.9850  175.6300  137.3440 C   0  0  0  0  0  3  0  0  0  0  0  0
  184.6980  176.3850  137.5790 C   0  0  0  0  0  3  0  0  0  0  0  0
  187.4280  173.3190  136.9560 F   0  0  0  0  0  0  0  0  0  0  0  0
  190.7930  177.2890  137.5300 N   0  0  0  0  0  2  0  0  0  0  0  0
  190.8130  175.9860  136.8850 C   0  0  0  0  0  2  0  0  0  0  0  0
  191.7240  176.0100  135.6680 C   0  0  0  0  0  2  0  0  0  0  0  0
  194.2320  176.9130  136.9530 O   0  0  0  0  0  1  0  0  0  0  0  0
  192.9690  175.1580  135.8780 C   0  0  1  0  0  3  0  0  0  0  0  0
  194.2590  175.9990  135.8960 C   0  0  2  0  0  3  0  0  0  0  0  0
  195.2360  173.7360  136.6340 C   0  0  0  0  0  2  0  0  0  0  0  0
  194.1720  173.8330  137.7210 C   0  0  0  0  0  2  0  0  0  0  0  0
  192.8250  174.2880  137.1400 C   0  0  0  0  0  2  0  0  0  0  0  0
  195.5140  175.1130  136.0120 C   0  0  0  0  0  2  0  0  0  0  0  0
  1 10  1  1  0  0  0
  2  6  1  1  0  0  0
  3  8  1  0  0  0  0
  4  9  1  0  0  0  0
  5 10  1  0  0  0  0
  7 13  1  0  0  0  0
  8  1  1  0  0  0  0
  8  2  1  0  0  0  0
  9 16  1  0  0  0  0
 11 17  1  0  0  0  0
 11  3  1  0  0  0  0
 12  1  1  0  0  0  0
 12  5  1  0  0  0  0
 13  2  1  0  0  0  0
 14  4  1  0  0  0  0
 14 15  1  0  0  0  0
 15 11  1  0  0  0  0
 16  3  1  0  0  0  0
 16  7  1  0  0  0  0
 17 12  1  0  0  0  0
 18 19  2  0  0  0  0
 18 22  1  0  0  0  0
 19 21  1  0  0  0  0
 20 23  1  0  0  0  0
 20 15  1  0  0  0  0
 21 23  2  0  0  0  0
 22 20  2  0  0  0  0
 24 18  1  0  0  0  0
 25  9  1  0  0  0  0
 26 25  1  0  0  0  0
 27 29  1  0  0  0  0
 27 26  1  0  0  0  0
 29 30  1  0  0  0  0
 29 33  1  0  0  0  0
 30 34  1  0  0  0  0
 30 28  1  0  0  0  0
 31 32  1  0  0  0  0
 33 32  1  0  0  0  0
 34 31  1  0  0  0  0
M  END
>  <MODEL>
8

>  <REMARK>
 VINA RESULT:      -6.5      3.290      5.251
  Name = 
  5 active torsions:
  status: ('A' for Active; 'I' for Inactive)
    1  A    between atoms: C_3  and  C_13
    2  A    between atoms: C_3  and  C_17
    3  A    between atoms: C_12  and  C_28
    4  A    between atoms: C_17  and  N_29
    5  A    between atoms: C_18  and  N_29
                            x       y       z     vdW  Elec       q    Type
                         _______ _______ _______ _____ _____    ______ ____

>  <TORSDO>
F 5

$$$$
=
 OpenBabel10262423423D

 34 39  0  0  1  0  0  0  0  0999 V2000
  191.0120  174.2790  137.1430 C   0  0  1  0  0  3  0  0  0  0  0  0
  188.6950  173.4520  136.6330 C   0  0  1  0  0  3  0  0  0  0  0  0
  189.1730  175.8550  137.2260 C   0  0  1  0  0  3  0  0  0  0  0  0
  187.9560  178.7540  136.8790 C   0  0  0  0  0  2  0  0  0  0  0  0
  193.0670  174.3890  136.6500 C   0  0  0  0  0  2  0  0  0  0  0  0
  189.1620  172.3040  135.9920 O   0  0  0  0  0  1  0  0  0  0  0  0
  186.8350  175.0890  136.7450 C   0  0  0  0  0  2  0  0  0  0  0  0
  189.6970  174.5950  136.4790 C   0  0  1  0  0  3  0  0  0  0  0  0
  187.2020  177.5200  137.3320 C   0  0  2  0  0  3  0  0  0  0  0  0
  192.0390  173.2540  136.7150 C   0  0  0  0  0  2  0  0  0  0  0  0
  190.2560  177.0050  137.3670 C   0  0  1  0  0  3  0  0  0  0  0  0
  191.9120  175.3660  136.6680 C   0  0  2  0  0  3  0  0  0  0  0  0
  187.3730  173.8700  136.0130 C   0  0  0  0  0  2  0  0  0  0  0  0
  188.9740  179.1960  137.9190 C   0  0  0  0  0  2  0  0  0  0  0  0
  189.9130  178.0900  138.4010 C   0  0  1  0  0  3  0  0  0  0  0  0
  187.8050  176.2740  136.6460 C   0  0  1  0  0  3  0  0  0  0  0  0
  191.6940  176.4900  137.6430 C   0  0  0  0  0  2  0  0  0  0  0  0
  188.2540  177.6340  141.8190 C   0  0  0  0  0  0  0  0  0  0  0  0
  189.2340  176.8900  142.4820 C   0  0  0  0  0  3  0  0  0  0  0  0
  189.6320  177.6550  139.8140 C   0  0  0  0  0  0  0  0  0  0  0  0
  190.4100  176.5390  141.8220 C   0  0  0  0  0  3  0  0  0  0  0  0
  188.4540  178.0160  140.4890 C   0  0  0  0  0  3  0  0  0  0  0  0
  190.6110  176.9200  140.4910 C   0  0  0  0  0  3  0  0  0  0  0  0
  187.0990  177.9530  142.4520 F   0  0  0  0  0  0  0  0  0  0  0  0
  185.7940  177.6960  136.9890 N   0  0  0  0  0  2  0  0  0  0  0  0
  185.1700  178.3940  138.1010 C   0  0  0  0  0  2  0  0  0  0  0  0
  183.8540  177.7300  138.4730 C   0  0  0  0  0  2  0  0  0  0  0  0
  182.1080  175.4300  139.1220 O   0  0  0  0  0  1  0  0  0  0  0  0
  183.5170  176.5790  137.5330 C   0  0  1  0  0  3  0  0  0  0  0  0
  183.2200  175.2720  138.2900 C   0  0  2  0  0  3  0  0  0  0  0  0
  182.5270  174.5410  135.9230 C   0  0  0  0  0  2  0  0  0  0  0  0
  181.6220  175.7650  136.0030 C   0  0  0  0  0  2  0  0  0  0  0  0
  182.3730  176.9730  136.5810 C   0  0  0  0  0  2  0  0  0  0  0  0
  182.9770  174.0970  137.3230 C   0  0  0  0  0  2  0  0  0  0  0  0
  1 10  1  6  0  0  0
  2  6  1  6  0  0  0
  3 11  1  0  0  0  0
  4  9  1  0  0  0  0
  4 14  1  0  0  0  0
  5 12  1  0  0  0  0
  5 10  1  0  0  0  0
  8  2  1  0  0  0  0
  8  1  1  0  0  0  0
  8  3  1  0  0  0  0
 11 17  1  0  0  0  0
 11 15  1  0  0  0  0
 12  1  1  0  0  0  0
 12 17  1  0  0  0  0
 13  2  1  0  0  0  0
 13  7  1  0  0  0  0
 14 15  1  0  0  0  0
 15 20  1  0  0  0  0
 16  7  1  0  0  0  0
 16  3  1  0  0  0  0
 16  9  1  0  0  0  0
 18 24  1  0  0  0  0
 18 19  1  0  0  0  0
 20 22  1  0  0  0  0
 20 23  2  0  0  0  0
 21 19  2  0  0  0  0
 22 18  2  0  0  0  0
 23 21  1  0  0  0  0
 25  9  1  0  0  0  0
 25 26  1  0  0  0  0
 26 27  1  0  0  0  0
 29 30  1  0  0  0  0
 29 27  1  0  0  0  0
 30 28  1  0  0  0  0
 31 32  1  0  0  0  0
 31 34  1  0  0  0  0
 32 33  1  0  0  0  0
 33 29  1  0  0  0  0
 34 30  1  0  0  0  0
M  END
>  <MODEL>
9

>  <REMARK>
 VINA RESULT:      -6.5      3.012      7.776
  Name = 
  5 active torsions:
  status: ('A' for Active; 'I' for Inactive)
    1  A    between atoms: C_3  and  C_13
    2  A    between atoms: C_3  and  C_17
    3  A    between atoms: C_12  and  C_28
    4  A    between atoms: C_17  and  N_29
    5  A    between atoms: C_18  and  N_29
                            x       y       z     vdW  Elec       q    Type
                         _______ _______ _______ _____ _____    ______ ____

>  <TORSDO>
F 5

$$$$
