=
 OpenBabel10272415283D

 34 39  0  0  0  0  0  0  0  0999 V2000
  190.0250  177.0100  137.6470 C   0  0  0  0  0  0  0  0  0  0  0  0
  192.0370  175.2970  134.7740 C   0  0  0  0  0  2  0  0  0  0  0  0
  189.8670  176.5920  134.8290 C   0  0  0  0  0  3  0  0  0  0  0  0
  188.5790  177.8360  139.4830 C   0  0  0  0  0  0  0  0  0  0  0  0
  189.7820  177.0830  138.9670 C   0  0  0  0  0  3  0  0  0  0  0  0
  187.9150  178.2190  137.1900 C   0  0  0  0  0  0  0  0  0  0  0  0
  187.0870  178.3310  136.1440 C   0  0  0  0  0  3  0  0  0  0  0  0
  187.6590  178.3490  138.6280 C   0  0  0  0  0  3  0  0  0  0  0  0
  188.9800  177.3680  135.4480 C   0  0  0  0  0  0  0  0  0  0  0  0
  189.1400  177.6870  136.7880 N   0  0  0  0  0  0  0  0  0  0  0  0
  187.7510  177.8370  134.9970 O   0  0  0  0  0  0  0  0  0  0  0  0
  193.1870  174.6110  135.5000 C   0  0  0  0  0  2  0  0  0  0  0  0
  194.0030  175.6000  136.2050 N   0  0  0  0  0  0  0  0  0  0  0  0
  193.5350  176.1460  137.4810 C   0  0  0  0  0  2  0  0  0  0  0  0
  191.0210  176.0390  135.6180 C   0  0  0  0  0  0  0  0  0  0  0  0
  192.1580  175.6120  137.8560 C   0  0  0  0  0  2  0  0  0  0  0  0
  191.0880  176.2110  136.9870 C   0  0  0  0  0  0  0  0  0  0  0  0
  191.3350  176.9200  142.8680 C   0  0  0  0  0  3  0  0  0  0  0  0
  188.6920  177.6530  143.2490 N   0  0  0  0  0  0  0  0  0  0  0  0
  191.0490  176.7140  146.5560 C   0  0  0  0  0  0  0  0  0  0  0  0
  191.5930  176.6570  145.2650 C   0  0  0  0  0  3  0  0  0  0  0  0
  190.8040  176.9700  144.1550 C   0  0  0  0  0  0  0  0  0  0  0  0
  188.3220  177.9560  140.8890 N   0  0  0  0  0  2  0  0  0  0  0  0
  188.9130  177.4060  145.6160 C   0  0  0  0  0  3  0  0  0  0  0  0
  189.4560  177.3480  144.3310 C   0  0  0  0  0  0  0  0  0  0  0  0
  189.7060  177.0910  146.7240 C   0  0  0  0  0  3  0  0  0  0  0  0
  189.1860  177.6010  141.9800 C   0  0  0  0  0  0  0  0  0  0  0  0
  190.5250  177.2380  141.7760 C   0  0  0  0  0  3  0  0  0  0  0  0
  191.8820  176.3830  147.7230 C   0  0  0  0  0  0  0  0  0  0  0  0
  192.2420  175.1940  147.9340 O   0  0  0  0  0  0  0  0  0  0  0  0
  192.2820  177.3820  148.6030 O   0  0  0  0  0  1  0  0  0  0  0  0
  195.2350  176.0810  135.6330 C   0  0  0  0  0  0  0  0  0  0  0  0
  196.5980  175.1680  135.6480 S   0  0  0  0  0  0  0  0  0  0  0  0
  195.3100  177.4350  135.0130 C   0  0  0  0  0  1  0  0  0  0  0  0
  1  5  2  0  0  0  0
  2 12  1  0  0  0  0
  2 15  1  0  0  0  0
  3  9  2  0  0  0  0
  3 15  1  0  0  0  0
  4 23  1  0  0  0  0
  5  4  1  0  0  0  0
  6  8  1  0  0  0  0
  7  6  2  0  0  0  0
  8  4  2  0  0  0  0
  9 10  1  0  0  0  0
 10  6  1  0  0  0  0
 10  1  1  0  0  0  0
 11  9  1  0  0  0  0
 11  7  1  0  0  0  0
 12 13  1  0  0  0  0
 13 14  1  0  0  0  0
 14 16  1  0  0  0  0
 15 17  2  0  0  0  0
 17  1  1  0  0  0  0
 17 16  1  0  0  0  0
 18 22  1  0  0  0  0
 19 25  1  0  0  0  0
 20 26  1  0  0  0  0
 20 29  1  0  0  0  0
 21 20  2  0  0  0  0
 22 25  2  0  0  0  0
 22 21  1  0  0  0  0
 23 27  1  0  0  0  0
 24 26  2  0  0  0  0
 25 24  1  0  0  0  0
 27 19  2  0  0  0  0
 28 27  1  0  0  0  0
 28 18  2  0  0  0  0
 29 30  2  0  0  0  0
 29 31  1  0  0  0  0
 32 33  2  0  0  0  0
 32 13  1  0  0  0  0
 34 32  1  0  0  0  0
M  END
>  <MODEL>
1

>  <REMARK>
 VINA RESULT:      -9.7      0.000      0.000
  Name = 
  3 active torsions:
  status: ('A' for Active; 'I' for Inactive)
    1  A    between atoms: C_3  and  N_25
    2  A    between atoms: C_7  and  C_11
    3  A    between atoms: C_8  and  N_18
                            x       y       z     vdW  Elec       q    Type
                         _______ _______ _______ _____ _____    ______ ____

>  <TORSDO>
F 3

$$$$
=
 OpenBabel10272415283D

 34 39  0  0  0  0  0  0  0  0999 V2000
  183.3360  178.4160  141.3570 C   0  0  0  0  0  0  0  0  0  0  0  0
  179.9850  178.3100  139.3590 C   0  0  0  0  0  2  0  0  0  0  0  0
  180.5330  178.7270  141.7900 C   0  0  0  0  0  3  0  0  0  0  0  0
  185.4060  178.1870  142.7010 C   0  0  0  0  0  0  0  0  0  0  0  0
  184.6280  178.0520  141.4130 C   0  0  0  0  0  3  0  0  0  0  0  0
  183.3680  178.9100  143.7810 C   0  0  0  0  0  0  0  0  0  0  0  0
  182.4460  179.0050  144.7470 C   0  0  0  0  0  3  0  0  0  0  0  0
  184.7900  178.5620  143.8500 C   0  0  0  0  0  3  0  0  0  0  0  0
  181.4000  178.9620  142.7730 C   0  0  0  0  0  0  0  0  0  0  0  0
  182.7640  178.9520  142.5250 N   0  0  0  0  0  0  0  0  0  0  0  0
  181.1720  179.0870  144.1390 O   0  0  0  0  0  0  0  0  0  0  0  0
  180.4140  177.8900  137.9580 C   0  0  0  0  0  2  0  0  0  0  0  0
  181.3380  178.8750  137.3950 N   0  0  0  0  0  0  0  0  0  0  0  0
  182.7410  178.8730  137.8160 C   0  0  0  0  0  2  0  0  0  0  0  0
  181.0620  178.4120  140.4180 C   0  0  0  0  0  0  0  0  0  0  0  0
  183.0100  177.8240  138.8890 C   0  0  0  0  0  2  0  0  0  0  0  0
  182.4150  178.2300  140.2070 C   0  0  0  0  0  0  0  0  0  0  0  0
  187.8220  177.2530  146.3320 C   0  0  0  0  0  3  0  0  0  0  0  0
  188.9330  177.4280  143.8030 N   0  0  0  0  0  0  0  0  0  0  0  0
  191.4050  176.6730  147.0720 C   0  0  0  0  0  0  0  0  0  0  0  0
  190.0250  176.8380  147.2560 C   0  0  0  0  0  3  0  0  0  0  0  0
  189.1950  177.0910  146.1620 C   0  0  0  0  0  0  0  0  0  0  0  0
  186.7960  177.8380  142.7720 N   0  0  0  0  0  2  0  0  0  0  0  0
  191.1180  177.0180  144.6800 C   0  0  0  0  0  3  0  0  0  0  0  0
  189.7440  177.1820  144.8660 C   0  0  0  0  0  0  0  0  0  0  0  0
  191.9450  176.7640  145.7790 C   0  0  0  0  0  3  0  0  0  0  0  0
  187.5890  177.5990  143.9460 C   0  0  0  0  0  0  0  0  0  0  0  0
  187.0150  177.5060  145.2220 C   0  0  0  0  0  3  0  0  0  0  0  0
  192.2760  176.4060  148.2280 C   0  0  0  0  0  0  0  0  0  0  0  0
  192.6800  175.2360  148.4660 O   0  0  0  0  0  0  0  0  0  0  0  0
  192.6640  177.4440  149.0670 O   0  0  0  0  0  1  0  0  0  0  0  0
  180.8730  179.8790  136.4730 C   0  0  0  0  0  0  0  0  0  0  0  0
  180.6090  179.5290  134.8910 S   0  0  0  0  0  0  0  0  0  0  0  0
  180.6220  181.2760  136.9280 C   0  0  0  0  0  1  0  0  0  0  0  0
  1  5  2  0  0  0  0
  1 10  1  0  0  0  0
  2 15  1  0  0  0  0
  3  9  2  0  0  0  0
  4 23  1  0  0  0  0
  4  8  2  0  0  0  0
  5  4  1  0  0  0  0
  6  8  1  0  0  0  0
  6  7  2  0  0  0  0
  9 11  1  0  0  0  0
 10  9  1  0  0  0  0
 10  6  1  0  0  0  0
 11  7  1  0  0  0  0
 12  2  1  0  0  0  0
 13 14  1  0  0  0  0
 13 12  1  0  0  0  0
 14 16  1  0  0  0  0
 15  3  1  0  0  0  0
 16 17  1  0  0  0  0
 17 15  2  0  0  0  0
 17  1  1  0  0  0  0
 19 27  2  0  0  0  0
 19 25  1  0  0  0  0
 20 21  1  0  0  0  0
 20 29  1  0  0  0  0
 22 18  1  0  0  0  0
 22 21  2  0  0  0  0
 23 27  1  0  0  0  0
 24 25  2  0  0  0  0
 24 26  1  0  0  0  0
 25 22  1  0  0  0  0
 26 20  2  0  0  0  0
 27 28  1  0  0  0  0
 28 18  2  0  0  0  0
 29 30  2  0  0  0  0
 29 31  1  0  0  0  0
 32 34  1  0  0  0  0
 32 13  1  0  0  0  0
 33 32  2  0  0  0  0
M  END
>  <MODEL>
2

>  <REMARK>
 VINA RESULT:      -9.2      6.609      8.654
  Name = 
  3 active torsions:
  status: ('A' for Active; 'I' for Inactive)
    1  A    between atoms: C_3  and  N_25
    2  A    between atoms: C_7  and  C_11
    3  A    between atoms: C_8  and  N_18
                            x       y       z     vdW  Elec       q    Type
                         _______ _______ _______ _____ _____    ______ ____

>  <TORSDO>
F 3

$$$$
=
 OpenBabel10272415283D

 34 39  0  0  0  0  0  0  0  0999 V2000
  182.4490  177.2820  138.3770 C   0  0  0  0  0  0  0  0  0  0  0  0
  182.0940  174.8250  135.3640 C   0  0  0  0  0  2  0  0  0  0  0  0
  181.5320  177.2690  135.6740 C   0  0  0  0  0  3  0  0  0  0  0  0
  182.3770  178.7770  140.3520 C   0  0  0  0  0  0  0  0  0  0  0  0
  182.5760  177.4260  139.7060 C   0  0  0  0  0  3  0  0  0  0  0  0
  181.7740  179.6540  138.1820 C   0  0  0  0  0  0  0  0  0  0  0  0
  181.0950  180.3820  137.2870 C   0  0  0  0  0  3  0  0  0  0  0  0
  181.9530  179.8400  139.6250 C   0  0  0  0  0  3  0  0  0  0  0  0
  181.5840  178.4070  136.3660 C   0  0  0  0  0  0  0  0  0  0  0  0
  182.1640  178.4370  137.6250 N   0  0  0  0  0  0  0  0  0  0  0  0
  180.9920  179.6340  136.0920 O   0  0  0  0  0  0  0  0  0  0  0  0
  182.5300  173.4840  135.9400 C   0  0  0  0  0  2  0  0  0  0  0  0
  183.9150  173.5590  136.4050 N   0  0  0  0  0  0  0  0  0  0  0  0
  184.2130  174.1980  137.6890 C   0  0  0  0  0  2  0  0  0  0  0  0
  182.0760  176.0150  136.3010 C   0  0  0  0  0  0  0  0  0  0  0  0
  182.9620  174.7760  138.3390 C   0  0  0  0  0  2  0  0  0  0  0  0
  182.4930  176.0070  137.6170 C   0  0  0  0  0  0  0  0  0  0  0  0
  186.0200  178.0180  142.8120 C   0  0  0  0  0  3  0  0  0  0  0  0
  183.5950  178.7610  143.9220 N   0  0  0  0  0  0  0  0  0  0  0  0
  186.8330  177.9760  146.4260 C   0  0  0  0  0  0  0  0  0  0  0  0
  186.9740  177.8620  145.0350 C   0  0  0  0  0  3  0  0  0  0  0  0
  185.8900  178.1250  144.1950 C   0  0  0  0  0  0  0  0  0  0  0  0
  182.5430  178.9590  141.7650 N   0  0  0  0  0  2  0  0  0  0  0  0
  184.5060  178.6200  146.1270 C   0  0  0  0  0  3  0  0  0  0  0  0
  184.6480  178.5060  144.7430 C   0  0  0  0  0  0  0  0  0  0  0  0
  185.5940  178.3570  146.9650 C   0  0  0  0  0  3  0  0  0  0  0  0
  183.6940  178.6550  142.5680 C   0  0  0  0  0  0  0  0  0  0  0  0
  184.9200  178.2850  141.9940 C   0  0  0  0  0  3  0  0  0  0  0  0
  187.9780  177.6990  147.3080 C   0  0  0  0  0  0  0  0  0  0  0  0
  188.9240  176.9640  146.9160 O   0  0  0  0  0  0  0  0  0  0  0  0
  188.0270  178.2480  148.5840 O   0  0  0  0  0  1  0  0  0  0  0  0
  184.9930  173.0600  135.5910 C   0  0  0  0  0  0  0  0  0  0  0  0
  186.0080  174.0780  134.7990 S   0  0  0  0  0  0  0  0  0  0  0  0
  185.2170  171.5930  135.4350 C   0  0  0  0  0  1  0  0  0  0  0  0
  1  5  2  0  0  0  0
  2 12  1  0  0  0  0
  2 15  1  0  0  0  0
  3 15  1  0  0  0  0
  3  9  2  0  0  0  0
  4 23  1  0  0  0  0
  5  4  1  0  0  0  0
  6  8  1  0  0  0  0
  7  6  2  0  0  0  0
  8  4  2  0  0  0  0
  9 10  1  0  0  0  0
 10  6  1  0  0  0  0
 10  1  1  0  0  0  0
 11  9  1  0  0  0  0
 11  7  1  0  0  0  0
 12 13  1  0  0  0  0
 13 14  1  0  0  0  0
 14 16  1  0  0  0  0
 15 17  2  0  0  0  0
 17 16  1  0  0  0  0
 17  1  1  0  0  0  0
 18 22  1  0  0  0  0
 19 25  1  0  0  0  0
 20 26  1  0  0  0  0
 20 29  1  0  0  0  0
 21 20  2  0  0  0  0
 22 25  2  0  0  0  0
 22 21  1  0  0  0  0
 23 27  1  0  0  0  0
 24 26  2  0  0  0  0
 25 24  1  0  0  0  0
 27 19  2  0  0  0  0
 28 27  1  0  0  0  0
 28 18  2  0  0  0  0
 29 31  1  0  0  0  0
 30 29  2  0  0  0  0
 32 13  1  0  0  0  0
 33 32  2  0  0  0  0
 34 32  1  0  0  0  0
M  END
>  <MODEL>
3

>  <REMARK>
 VINA RESULT:      -8.8      6.379      7.379
  Name = 
  3 active torsions:
  status: ('A' for Active; 'I' for Inactive)
    1  A    between atoms: C_3  and  N_25
    2  A    between atoms: C_7  and  C_11
    3  A    between atoms: C_8  and  N_18
                            x       y       z     vdW  Elec       q    Type
                         _______ _______ _______ _____ _____    ______ ____

>  <TORSDO>
F 3

$$$$
=
 OpenBabel10272415283D

 34 39  0  0  0  0  0  0  0  0999 V2000
  189.7880  176.9230  137.4650 C   0  0  0  0  0  0  0  0  0  0  0  0
  187.5100  177.5030  134.3480 C   0  0  0  0  0  2  0  0  0  0  0  0
  189.9170  176.7830  134.6170 C   0  0  0  0  0  3  0  0  0  0  0  0
  191.3380  176.8450  139.3970 C   0  0  0  0  0  0  0  0  0  0  0  0
  190.0060  177.1790  138.7650 C   0  0  0  0  0  3  0  0  0  0  0  0
  192.1300  176.1670  137.2160 C   0  0  0  0  0  0  0  0  0  0  0  0
  192.9880  176.0390  136.1970 C   0  0  0  0  0  3  0  0  0  0  0  0
  192.3720  176.3960  138.6440 C   0  0  0  0  0  3  0  0  0  0  0  0
  190.9440  176.3760  135.3620 C   0  0  0  0  0  0  0  0  0  0  0  0
  190.8270  176.3090  136.7420 N   0  0  0  0  0  0  0  0  0  0  0  0
  192.2580  176.1220  134.9890 O   0  0  0  0  0  0  0  0  0  0  0  0
  186.2140  178.0380  134.9440 C   0  0  0  0  0  2  0  0  0  0  0  0
  185.6300  177.0530  135.8540 N   0  0  0  0  0  0  0  0  0  0  0  0
  186.1780  176.9010  137.2040 C   0  0  0  0  0  2  0  0  0  0  0  0
  188.6470  177.2040  135.3030 C   0  0  0  0  0  0  0  0  0  0  0  0
  187.3860  177.8030  137.4310 C   0  0  0  0  0  2  0  0  0  0  0  0
  188.5860  177.3030  136.6790 C   0  0  0  0  0  0  0  0  0  0  0  0
  188.3820  176.8240  142.7380 C   0  0  0  0  0  3  0  0  0  0  0  0
  191.0380  177.5170  143.0970 N   0  0  0  0  0  0  0  0  0  0  0  0
  188.4250  177.6940  146.3380 C   0  0  0  0  0  0  0  0  0  0  0  0
  187.9590  177.2880  145.0800 C   0  0  0  0  0  3  0  0  0  0  0  0
  188.8330  177.2290  143.9920 C   0  0  0  0  0  0  0  0  0  0  0  0
  191.5790  177.0770  140.7920 N   0  0  0  0  0  2  0  0  0  0  0  0
  190.6560  177.9800  145.4100 C   0  0  0  0  0  3  0  0  0  0  0  0
  190.1900  177.5760  144.1570 C   0  0  0  0  0  0  0  0  0  0  0  0
  189.7770  178.0380  146.4960 C   0  0  0  0  0  3  0  0  0  0  0  0
  190.6190  177.1330  141.8590 C   0  0  0  0  0  0  0  0  0  0  0  0
  189.2770  176.7730  141.6670 C   0  0  0  0  0  3  0  0  0  0  0  0
  187.5010  177.7550  147.4820 C   0  0  0  0  0  0  0  0  0  0  0  0
  187.8400  177.2910  148.6040 O   0  0  0  0  0  1  0  0  0  0  0  0
  186.2420  178.3280  147.3360 O   0  0  0  0  0  0  0  0  0  0  0  0
  184.5580  176.1940  135.4200 C   0  0  0  0  0  0  0  0  0  0  0  0
  183.0840  176.7990  135.0270 S   0  0  0  0  0  0  0  0  0  0  0  0
  184.7540  174.7190  135.3220 C   0  0  0  0  0  1  0  0  0  0  0  0
  1  5  2  0  0  0  0
  2 12  1  0  0  0  0
  2 15  1  0  0  0  0
  3 15  1  0  0  0  0
  3  9  2  0  0  0  0
  4 23  1  0  0  0  0
  5  4  1  0  0  0  0
  6  8  1  0  0  0  0
  7  6  2  0  0  0  0
  8  4  2  0  0  0  0
  9 10  1  0  0  0  0
 10  6  1  0  0  0  0
 10  1  1  0  0  0  0
 11  9  1  0  0  0  0
 11  7  1  0  0  0  0
 12 13  1  0  0  0  0
 13 14  1  0  0  0  0
 14 16  1  0  0  0  0
 15 17  2  0  0  0  0
 17 16  1  0  0  0  0
 17  1  1  0  0  0  0
 18 22  1  0  0  0  0
 19 25  1  0  0  0  0
 20 26  1  0  0  0  0
 20 29  1  0  0  0  0
 21 20  2  0  0  0  0
 22 25  2  0  0  0  0
 22 21  1  0  0  0  0
 23 27  1  0  0  0  0
 24 26  2  0  0  0  0
 25 24  1  0  0  0  0
 27 19  2  0  0  0  0
 28 27  1  0  0  0  0
 28 18  2  0  0  0  0
 29 30  1  0  0  0  0
 31 29  2  0  0  0  0
 32 13  1  0  0  0  0
 33 32  2  0  0  0  0
 34 32  1  0  0  0  0
M  END
>  <MODEL>
4

>  <REMARK>
 VINA RESULT:      -8.5      3.288      5.283
  Name = 
  3 active torsions:
  status: ('A' for Active; 'I' for Inactive)
    1  A    between atoms: C_3  and  N_25
    2  A    between atoms: C_7  and  C_11
    3  A    between atoms: C_8  and  N_18
                            x       y       z     vdW  Elec       q    Type
                         _______ _______ _______ _____ _____    ______ ____

>  <TORSDO>
F 3

$$$$
=
 OpenBabel10272415283D

 34 39  0  0  0  0  0  0  0  0999 V2000
  184.8550  178.4610  142.4740 C   0  0  0  0  0  0  0  0  0  0  0  0
  181.0040  178.7470  141.9000 C   0  0  0  0  0  2  0  0  0  0  0  0
  182.4510  178.8120  143.9710 C   0  0  0  0  0  3  0  0  0  0  0  0
  187.2480  177.9770  142.8970 C   0  0  0  0  0  0  0  0  0  0  0  0
  186.0390  178.0450  141.9940 C   0  0  0  0  0  3  0  0  0  0  0  0
  185.8270  178.6220  144.7430 C   0  0  0  0  0  0  0  0  0  0  0  0
  185.3430  178.6190  145.9910 C   0  0  0  0  0  3  0  0  0  0  0  0
  187.1380  178.2160  144.2280 C   0  0  0  0  0  3  0  0  0  0  0  0
  183.6380  178.8820  144.5710 C   0  0  0  0  0  0  0  0  0  0  0  0
  184.8050  178.8550  143.8230 N   0  0  0  0  0  0  0  0  0  0  0  0
  183.9460  178.8290  145.9250 O   0  0  0  0  0  0  0  0  0  0  0  0
  180.8450  178.5050  140.4040 C   0  0  0  0  0  2  0  0  0  0  0  0
  181.5730  179.5220  139.6450 N   0  0  0  0  0  0  0  0  0  0  0  0
  183.0260  179.4120  139.4990 C   0  0  0  0  0  2  0  0  0  0  0  0
  182.4030  178.6660  142.4750 C   0  0  0  0  0  0  0  0  0  0  0  0
  183.5850  178.2190  140.2660 C   0  0  0  0  0  2  0  0  0  0  0  0
  183.5590  178.4650  141.7470 C   0  0  0  0  0  0  0  0  0  0  0  0
  188.5410  177.5930  138.6460 C   0  0  0  0  0  3  0  0  0  0  0  0
  190.1520  176.8470  140.7700 N   0  0  0  0  0  0  0  0  0  0  0  0
  191.5170  176.2760  136.8740 C   0  0  0  0  0  0  0  0  0  0  0  0
  190.2530  176.8400  137.1020 C   0  0  0  0  0  3  0  0  0  0  0  0
  189.7940  177.0310  138.4070 C   0  0  0  0  0  0  0  0  0  0  0  0
  188.5300  177.5710  142.3960 N   0  0  0  0  0  2  0  0  0  0  0  0
  191.8610  176.0990  139.2770 C   0  0  0  0  0  3  0  0  0  0  0  0
  190.6020  176.6590  139.5020 C   0  0  0  0  0  0  0  0  0  0  0  0
  192.3170  175.9090  137.9680 C   0  0  0  0  0  3  0  0  0  0  0  0
  188.9270  177.3860  141.0290 C   0  0  0  0  0  0  0  0  0  0  0  0
  188.1060  177.7730  139.9600 C   0  0  0  0  0  3  0  0  0  0  0  0
  191.9980  176.0760  135.4980 C   0  0  0  0  0  0  0  0  0  0  0  0
  191.2510  176.3370  134.5160 O   0  0  0  0  0  0  0  0  0  0  0  0
  193.2820  175.5980  135.2670 O   0  0  0  0  0  1  0  0  0  0  0  0
  180.8850  180.6570  139.0860 C   0  0  0  0  0  0  0  0  0  0  0  0
  181.0670  181.0750  137.5100 S   0  0  0  0  0  0  0  0  0  0  0  0
  179.9870  181.4980  139.9300 C   0  0  0  0  0  1  0  0  0  0  0  0
  1 10  1  0  0  0  0
  2 15  1  0  0  0  0
  3  9  2  0  0  0  0
  4  8  2  0  0  0  0
  5  1  2  0  0  0  0
  5  4  1  0  0  0  0
  6  7  2  0  0  0  0
  8  6  1  0  0  0  0
  9 11  1  0  0  0  0
 10  9  1  0  0  0  0
 10  6  1  0  0  0  0
 11  7  1  0  0  0  0
 12  2  1  0  0  0  0
 13 12  1  0  0  0  0
 14 13  1  0  0  0  0
 14 16  1  0  0  0  0
 15  3  1  0  0  0  0
 16 17  1  0  0  0  0
 17  1  1  0  0  0  0
 17 15  2  0  0  0  0
 18 28  2  0  0  0  0
 19 27  2  0  0  0  0
 20 21  2  0  0  0  0
 20 26  1  0  0  0  0
 21 22  1  0  0  0  0
 22 18  1  0  0  0  0
 22 25  2  0  0  0  0
 23  4  1  0  0  0  0
 24 25  1  0  0  0  0
 25 19  1  0  0  0  0
 26 24  2  0  0  0  0
 27 23  1  0  0  0  0
 28 27  1  0  0  0  0
 29 20  1  0  0  0  0
 30 29  2  0  0  0  0
 31 29  1  0  0  0  0
 32 13  1  0  0  0  0
 32 34  1  0  0  0  0
 33 32  2  0  0  0  0
M  END
>  <MODEL>
5

>  <REMARK>
 VINA RESULT:      -8.5      5.343     10.058
  Name = 
  3 active torsions:
  status: ('A' for Active; 'I' for Inactive)
    1  A    between atoms: C_3  and  N_25
    2  A    between atoms: C_7  and  C_11
    3  A    between atoms: C_8  and  N_18
                            x       y       z     vdW  Elec       q    Type
                         _______ _______ _______ _____ _____    ______ ____

>  <TORSDO>
F 3

$$$$
=
 OpenBabel10272415283D

 34 39  0  0  0  0  0  0  0  0999 V2000
  188.7920  176.8180  137.4880 C   0  0  0  0  0  0  0  0  0  0  0  0
  191.2310  174.4960  135.5130 C   0  0  0  0  0  2  0  0  0  0  0  0
  189.1340  175.7480  134.8650 C   0  0  0  0  0  3  0  0  0  0  0  0
  187.0670  178.0380  138.7820 C   0  0  0  0  0  0  0  0  0  0  0  0
  188.3170  177.1960  138.6860 C   0  0  0  0  0  3  0  0  0  0  0  0
  186.8440  177.8660  136.3820 C   0  0  0  0  0  0  0  0  0  0  0  0
  186.2240  177.7210  135.2040 C   0  0  0  0  0  3  0  0  0  0  0  0
  186.3360  178.3270  137.6770 C   0  0  0  0  0  3  0  0  0  0  0  0
  188.1760  176.6400  135.1120 C   0  0  0  0  0  0  0  0  0  0  0  0
  188.1020  177.2660  136.3470 N   0  0  0  0  0  0  0  0  0  0  0  0
  187.0670  176.9790  134.3460 O   0  0  0  0  0  0  0  0  0  0  0  0
  192.2070  174.0100  136.5780 C   0  0  0  0  0  2  0  0  0  0  0  0
  192.9150  175.1440  137.1720 N   0  0  0  0  0  0  0  0  0  0  0  0
  192.2430  175.9700  138.1780 C   0  0  0  0  0  2  0  0  0  0  0  0
  190.1060  175.4060  135.9600 C   0  0  0  0  0  0  0  0  0  0  0  0
  190.8020  175.5270  138.4050 C   0  0  0  0  0  2  0  0  0  0  0  0
  189.9300  175.8950  137.2390 C   0  0  0  0  0  0  0  0  0  0  0  0
  188.6920  177.1660  142.8430 C   0  0  0  0  0  3  0  0  0  0  0  0
  186.3330  178.5590  142.4460 N   0  0  0  0  0  0  0  0  0  0  0  0
  187.5930  177.7450  146.3340 C   0  0  0  0  0  0  0  0  0  0  0  0
  188.3590  177.3150  145.2410 C   0  0  0  0  0  3  0  0  0  0  0  0
  187.9380  177.5860  143.9370 C   0  0  0  0  0  0  0  0  0  0  0  0
  186.5640  178.4830  140.0500 N   0  0  0  0  0  2  0  0  0  0  0  0
  185.9760  178.7260  144.8030 C   0  0  0  0  0  3  0  0  0  0  0  0
  186.7400  178.2960  143.7160 C   0  0  0  0  0  0  0  0  0  0  0  0
  186.4020  178.4520  146.1060 C   0  0  0  0  0  3  0  0  0  0  0  0
  187.0480  178.1510  141.3600 C   0  0  0  0  0  0  0  0  0  0  0  0
  188.2480  177.4500  141.5510 C   0  0  0  0  0  3  0  0  0  0  0  0
  188.0400  177.4570  147.7060 C   0  0  0  0  0  0  0  0  0  0  0  0
  187.9750  178.3450  148.5980 O   0  0  0  0  0  1  0  0  0  0  0  0
  188.5390  176.2020  148.0310 O   0  0  0  0  0  0  0  0  0  0  0  0
  194.2460  175.4890  136.7410 C   0  0  0  0  0  0  0  0  0  0  0  0
  195.5580  174.6620  137.2760 S   0  0  0  0  0  0  0  0  0  0  0  0
  194.4730  176.6190  135.7960 C   0  0  0  0  0  1  0  0  0  0  0  0
  1  5  2  0  0  0  0
  2 15  1  0  0  0  0
  2 12  1  0  0  0  0
  3  9  2  0  0  0  0
  3 15  1  0  0  0  0
  4 23  1  0  0  0  0
  5  4  1  0  0  0  0
  6  8  1  0  0  0  0
  7  6  2  0  0  0  0
  8  4  2  0  0  0  0
  9 10  1  0  0  0  0
 10  6  1  0  0  0  0
 10  1  1  0  0  0  0
 11  9  1  0  0  0  0
 11  7  1  0  0  0  0
 12 13  1  0  0  0  0
 13 14  1  0  0  0  0
 14 16  1  0  0  0  0
 15 17  2  0  0  0  0
 17  1  1  0  0  0  0
 17 16  1  0  0  0  0
 18 22  1  0  0  0  0
 19 25  1  0  0  0  0
 20 29  1  0  0  0  0
 21 20  2  0  0  0  0
 22 21  1  0  0  0  0
 23 27  1  0  0  0  0
 24 26  2  0  0  0  0
 25 22  2  0  0  0  0
 25 24  1  0  0  0  0
 26 20  1  0  0  0  0
 27 28  1  0  0  0  0
 27 19  2  0  0  0  0
 28 18  2  0  0  0  0
 29 31  2  0  0  0  0
 29 30  1  0  0  0  0
 32 13  1  0  0  0  0
 32 33  2  0  0  0  0
 34 32  1  0  0  0  0
M  END
>  <MODEL>
6

>  <REMARK>
 VINA RESULT:      -8.3      1.986      2.398
  Name = 
  3 active torsions:
  status: ('A' for Active; 'I' for Inactive)
    1  A    between atoms: C_3  and  N_25
    2  A    between atoms: C_7  and  C_11
    3  A    between atoms: C_8  and  N_18
                            x       y       z     vdW  Elec       q    Type
                         _______ _______ _______ _____ _____    ______ ____

>  <TORSDO>
F 3

$$$$
=
 OpenBabel10272415283D

 34 39  0  0  0  0  0  0  0  0999 V2000
  191.7720  175.9490  137.5400 C   0  0  0  0  0  0  0  0  0  0  0  0
  193.2160  174.2320  134.3460 C   0  0  0  0  0  2  0  0  0  0  0  0
  191.3130  175.8500  134.7250 C   0  0  0  0  0  3  0  0  0  0  0  0
  190.6450  176.8090  139.5730 C   0  0  0  0  0  0  0  0  0  0  0  0
  191.6550  175.9260  138.8780 C   0  0  0  0  0  3  0  0  0  0  0  0
  189.8700  177.5250  137.3980 C   0  0  0  0  0  0  0  0  0  0  0  0
  188.9900  177.8760  136.4530 C   0  0  0  0  0  3  0  0  0  0  0  0
  189.7600  177.5490  138.8600 C   0  0  0  0  0  3  0  0  0  0  0  0
  190.6260  176.6940  135.4940 C   0  0  0  0  0  0  0  0  0  0  0  0
  190.9480  176.8450  136.8340 N   0  0  0  0  0  0  0  0  0  0  0  0
  189.4630  177.4000  135.2080 O   0  0  0  0  0  0  0  0  0  0  0  0
  194.2880  173.2970  134.8940 C   0  0  0  0  0  2  0  0  0  0  0  0
  195.3170  174.0630  135.5970 N   0  0  0  0  0  0  0  0  0  0  0  0
  195.0560  174.5460  136.9550 C   0  0  0  0  0  2  0  0  0  0  0  0
  192.4160  175.0390  135.3470 C   0  0  0  0  0  0  0  0  0  0  0  0
  193.6430  174.2090  137.4160 C   0  0  0  0  0  2  0  0  0  0  0  0
  192.6250  175.0590  136.7120 C   0  0  0  0  0  0  0  0  0  0  0  0
  187.0720  177.8540  142.0290 C   0  0  0  0  0  3  0  0  0  0  0  0
  189.5460  177.3120  143.1460 N   0  0  0  0  0  0  0  0  0  0  0  0
  186.3770  178.3950  145.6280 C   0  0  0  0  0  0  0  0  0  0  0  0
  186.1880  178.3080  144.2410 C   0  0  0  0  0  3  0  0  0  0  0  0
  187.2490  177.9460  143.4080 C   0  0  0  0  0  0  0  0  0  0  0  0
  190.5300  176.8260  141.0030 N   0  0  0  0  0  2  0  0  0  0  0  0
  188.7060  177.7490  145.3410 C   0  0  0  0  0  3  0  0  0  0  0  0
  188.5160  177.6640  143.9600 C   0  0  0  0  0  0  0  0  0  0  0  0
  187.6410  178.1120  146.1710 C   0  0  0  0  0  3  0  0  0  0  0  0
  189.4000  177.2240  141.7950 C   0  0  0  0  0  0  0  0  0  0  0  0
  188.1490  177.4900  141.2190 C   0  0  0  0  0  3  0  0  0  0  0  0
  185.2570  178.7760  146.5020 C   0  0  0  0  0  0  0  0  0  0  0  0
  185.4640  179.0860  147.7070 O   0  0  0  0  0  1  0  0  0  0  0  0
  183.9590  178.8000  146.0070 O   0  0  0  0  0  0  0  0  0  0  0  0
  196.5610  174.3930  134.9500 C   0  0  0  0  0  0  0  0  0  0  0  0
  196.9750  175.9510  134.6400 S   0  0  0  0  0  0  0  0  0  0  0  0
  197.5130  173.3230  134.5340 C   0  0  0  0  0  1  0  0  0  0  0  0
  1  5  2  0  0  0  0
  2 12  1  0  0  0  0
  2 15  1  0  0  0  0
  3 15  1  0  0  0  0
  3  9  2  0  0  0  0
  4 23  1  0  0  0  0
  5  4  1  0  0  0  0
  6  8  1  0  0  0  0
  7  6  2  0  0  0  0
  8  4  2  0  0  0  0
  9 10  1  0  0  0  0
 10  6  1  0  0  0  0
 10  1  1  0  0  0  0
 11  9  1  0  0  0  0
 11  7  1  0  0  0  0
 12 13  1  0  0  0  0
 13 14  1  0  0  0  0
 14 16  1  0  0  0  0
 15 17  2  0  0  0  0
 17 16  1  0  0  0  0
 17  1  1  0  0  0  0
 18 22  1  0  0  0  0
 19 25  1  0  0  0  0
 20 26  1  0  0  0  0
 20 29  1  0  0  0  0
 21 20  2  0  0  0  0
 22 25  2  0  0  0  0
 22 21  1  0  0  0  0
 23 27  1  0  0  0  0
 24 26  2  0  0  0  0
 25 24  1  0  0  0  0
 27 19  2  0  0  0  0
 28 27  1  0  0  0  0
 28 18  2  0  0  0  0
 29 30  1  0  0  0  0
 31 29  2  0  0  0  0
 32 13  1  0  0  0  0
 33 32  2  0  0  0  0
 34 32  1  0  0  0  0
M  END
>  <MODEL>
7

>  <REMARK>
 VINA RESULT:      -8.2      2.649      3.427
  Name = 
  3 active torsions:
  status: ('A' for Active; 'I' for Inactive)
    1  A    between atoms: C_3  and  N_25
    2  A    between atoms: C_7  and  C_11
    3  A    between atoms: C_8  and  N_18
                            x       y       z     vdW  Elec       q    Type
                         _______ _______ _______ _____ _____    ______ ____

>  <TORSDO>
F 3

$$$$
=
 OpenBabel10272415283D

 34 39  0  0  0  0  0  0  0  0999 V2000
  186.3740  177.2840  137.3380 C   0  0  0  0  0  0  0  0  0  0  0  0
  183.9710  176.5690  134.3460 C   0  0  0  0  0  2  0  0  0  0  0  0
  186.4370  177.1010  134.4910 C   0  0  0  0  0  3  0  0  0  0  0  0
  187.8490  178.0390  139.1810 C   0  0  0  0  0  0  0  0  0  0  0  0
  186.4960  177.6680  138.6200 C   0  0  0  0  0  3  0  0  0  0  0  0
  188.7790  177.7310  136.9710 C   0  0  0  0  0  0  0  0  0  0  0  0
  189.5510  177.9850  135.9070 C   0  0  0  0  0  3  0  0  0  0  0  0
  188.9410  178.1080  138.3790 C   0  0  0  0  0  3  0  0  0  0  0  0
  187.5630  177.2670  135.1840 C   0  0  0  0  0  0  0  0  0  0  0  0
  187.5500  177.2110  136.5690 N   0  0  0  0  0  0  0  0  0  0  0  0
  188.8220  177.6560  134.7410 O   0  0  0  0  0  0  0  0  0  0  0  0
  182.6030  176.4430  135.0050 C   0  0  0  0  0  2  0  0  0  0  0  0
  182.6020  175.3390  135.9640 N   0  0  0  0  0  0  0  0  0  0  0  0
  183.2110  175.5260  137.2830 C   0  0  0  0  0  2  0  0  0  0  0  0
  185.1510  176.8910  135.2400 C   0  0  0  0  0  0  0  0  0  0  0  0
  183.8450  176.9040  137.4250 C   0  0  0  0  0  2  0  0  0  0  0  0
  185.1060  177.0080  136.6150 C   0  0  0  0  0  0  0  0  0  0  0  0
  190.6160  176.2930  142.2120 C   0  0  0  0  0  3  0  0  0  0  0  0
  188.7420  178.2300  142.8410 N   0  0  0  0  0  0  0  0  0  0  0  0
  191.1350  176.6460  145.8630 C   0  0  0  0  0  0  0  0  0  0  0  0
  191.2810  176.1980  144.5420 C   0  0  0  0  0  3  0  0  0  0  0  0
  190.4790  176.7270  143.5280 C   0  0  0  0  0  0  0  0  0  0  0  0
  188.0070  178.4180  140.5560 N   0  0  0  0  0  2  0  0  0  0  0  0
  189.3740  178.1640  145.1450 C   0  0  0  0  0  3  0  0  0  0  0  0
  189.5200  177.7170  143.8300 C   0  0  0  0  0  0  0  0  0  0  0  0
  190.1790  177.6310  146.1570 C   0  0  0  0  0  3  0  0  0  0  0  0
  188.8510  177.8140  141.5480 C   0  0  0  0  0  0  0  0  0  0  0  0
  189.8020  176.8380  141.2170 C   0  0  0  0  0  3  0  0  0  0  0  0
  191.9820  176.0860  146.9280 C   0  0  0  0  0  0  0  0  0  0  0  0
  192.6490  175.0350  146.7280 O   0  0  0  0  0  0  0  0  0  0  0  0
  192.0540  176.7120  148.1670 O   0  0  0  0  0  1  0  0  0  0  0  0
  182.0570  174.0540  135.6070 C   0  0  0  0  0  0  0  0  0  0  0  0
  183.0180  172.7320  135.4520 S   0  0  0  0  0  0  0  0  0  0  0  0
  180.5960  173.8860  135.3580 C   0  0  0  0  0  1  0  0  0  0  0  0
  1  5  2  0  0  0  0
  2 12  1  0  0  0  0
  2 15  1  0  0  0  0
  3  9  2  0  0  0  0
  3 15  1  0  0  0  0
  4 23  1  0  0  0  0
  5  4  1  0  0  0  0
  6  8  1  0  0  0  0
  7  6  2  0  0  0  0
  8  4  2  0  0  0  0
  9 10  1  0  0  0  0
 10  6  1  0  0  0  0
 10  1  1  0  0  0  0
 11  9  1  0  0  0  0
 11  7  1  0  0  0  0
 12 13  1  0  0  0  0
 13 14  1  0  0  0  0
 14 16  1  0  0  0  0
 15 17  2  0  0  0  0
 17  1  1  0  0  0  0
 17 16  1  0  0  0  0
 18 22  1  0  0  0  0
 19 25  1  0  0  0  0
 20 26  1  0  0  0  0
 20 29  1  0  0  0  0
 21 20  2  0  0  0  0
 22 25  2  0  0  0  0
 22 21  1  0  0  0  0
 23 27  1  0  0  0  0
 24 26  2  0  0  0  0
 25 24  1  0  0  0  0
 27 19  2  0  0  0  0
 28 27  1  0  0  0  0
 28 18  2  0  0  0  0
 29 31  1  0  0  0  0
 30 29  2  0  0  0  0
 32 13  1  0  0  0  0
 33 32  2  0  0  0  0
 34 32  1  0  0  0  0
M  END
>  <MODEL>
8

>  <REMARK>
 VINA RESULT:      -8.1      3.709      5.998
  Name = 
  3 active torsions:
  status: ('A' for Active; 'I' for Inactive)
    1  A    between atoms: C_3  and  N_25
    2  A    between atoms: C_7  and  C_11
    3  A    between atoms: C_8  and  N_18
                            x       y       z     vdW  Elec       q    Type
                         _______ _______ _______ _____ _____    ______ ____

>  <TORSDO>
F 3

$$$$
=
 OpenBabel10272415283D

 34 39  0  0  0  0  0  0  0  0999 V2000
  183.5230  177.6370  137.9810 C   0  0  0  0  0  0  0  0  0  0  0  0
  184.5940  175.6380  134.8030 C   0  0  0  0  0  2  0  0  0  0  0  0
  182.6660  177.1950  135.2950 C   0  0  0  0  0  3  0  0  0  0  0  0
  182.6520  178.6680  140.0590 C   0  0  0  0  0  0  0  0  0  0  0  0
  183.6050  177.7610  139.3160 C   0  0  0  0  0  3  0  0  0  0  0  0
  181.5240  179.0930  137.9640 C   0  0  0  0  0  0  0  0  0  0  0  0
  180.4950  179.2910  137.1310 C   0  0  0  0  0  3  0  0  0  0  0  0
  181.6260  179.2780  139.4150 C   0  0  0  0  0  3  0  0  0  0  0  0
  182.0450  178.0870  136.0650 C   0  0  0  0  0  0  0  0  0  0  0  0
  182.5500  178.4050  137.3170 N   0  0  0  0  0  0  0  0  0  0  0  0
  180.8100  178.6990  135.8860 O   0  0  0  0  0  0  0  0  0  0  0  0
  185.7930  174.8240  135.2770 C   0  0  0  0  0  2  0  0  0  0  0  0
  186.8610  175.7140  135.7310 N   0  0  0  0  0  0  0  0  0  0  0  0
  186.7710  176.3350  137.0550 C   0  0  0  0  0  2  0  0  0  0  0  0
  183.8980  176.5150  135.8230 C   0  0  0  0  0  0  0  0  0  0  0  0
  185.4650  175.9860  137.7580 C   0  0  0  0  0  2  0  0  0  0  0  0
  184.3020  176.7000  137.1310 C   0  0  0  0  0  0  0  0  0  0  0  0
  186.2130  178.0580  142.6750 C   0  0  0  0  0  3  0  0  0  0  0  0
  183.7080  178.6720  143.6800 N   0  0  0  0  0  0  0  0  0  0  0  0
  186.8650  178.0160  146.3210 C   0  0  0  0  0  0  0  0  0  0  0  0
  187.0740  177.9240  144.9380 C   0  0  0  0  0  3  0  0  0  0  0  0
  186.0170  178.1430  144.0510 C   0  0  0  0  0  0  0  0  0  0  0  0
  182.7460  178.8420  141.4800 N   0  0  0  0  0  2  0  0  0  0  0  0
  184.5250  178.5520  145.9230 C   0  0  0  0  0  3  0  0  0  0  0  0
  184.7350  178.4590  144.5460 C   0  0  0  0  0  0  0  0  0  0  0  0
  185.5860  178.3320  146.8070 C   0  0  0  0  0  3  0  0  0  0  0  0
  183.8730  178.5850  142.3310 C   0  0  0  0  0  0  0  0  0  0  0  0
  185.1400  178.2810  141.8100 C   0  0  0  0  0  3  0  0  0  0  0  0
  187.9810  177.7850  147.2520 C   0  0  0  0  0  0  0  0  0  0  0  0
  188.9210  177.0050  146.9420 O   0  0  0  0  0  0  0  0  0  0  0  0
  188.0090  178.4270  148.4850 O   0  0  0  0  0  1  0  0  0  0  0  0
  187.9740  176.0280  134.8710 C   0  0  0  0  0  0  0  0  0  0  0  0
  189.0030  174.8620  134.3460 S   0  0  0  0  0  0  0  0  0  0  0  0
  188.2310  177.4310  134.4360 C   0  0  0  0  0  1  0  0  0  0  0  0
  1  5  2  0  0  0  0
  2 12  1  0  0  0  0
  2 15  1  0  0  0  0
  3 15  1  0  0  0  0
  3  9  2  0  0  0  0
  4 23  1  0  0  0  0
  5  4  1  0  0  0  0
  6  8  1  0  0  0  0
  7  6  2  0  0  0  0
  8  4  2  0  0  0  0
  9 10  1  0  0  0  0
 10  6  1  0  0  0  0
 10  1  1  0  0  0  0
 11  9  1  0  0  0  0
 11  7  1  0  0  0  0
 12 13  1  0  0  0  0
 13 14  1  0  0  0  0
 14 16  1  0  0  0  0
 15 17  2  0  0  0  0
 17 16  1  0  0  0  0
 17  1  1  0  0  0  0
 18 22  1  0  0  0  0
 19 25  1  0  0  0  0
 20 26  1  0  0  0  0
 20 29  1  0  0  0  0
 21 20  2  0  0  0  0
 22 25  2  0  0  0  0
 22 21  1  0  0  0  0
 23 27  1  0  0  0  0
 24 26  2  0  0  0  0
 25 24  1  0  0  0  0
 27 19  2  0  0  0  0
 28 27  1  0  0  0  0
 28 18  2  0  0  0  0
 29 31  1  0  0  0  0
 30 29  2  0  0  0  0
 32 13  1  0  0  0  0
 33 32  2  0  0  0  0
 34 32  1  0  0  0  0
M  END
>  <MODEL>
9

>  <REMARK>
 VINA RESULT:      -8.1      4.502      6.129
  Name = 
  3 active torsions:
  status: ('A' for Active; 'I' for Inactive)
    1  A    between atoms: C_3  and  N_25
    2  A    between atoms: C_7  and  C_11
    3  A    between atoms: C_8  and  N_18
                            x       y       z     vdW  Elec       q    Type
                         _______ _______ _______ _____ _____    ______ ____

>  <TORSDO>
F 3

$$$$
