=
 OpenBabel10272414073D

 43 49  0  0  1  0  0  0  0  0999 V2000
  191.0490  176.2380  146.8360 N   0  0  0  0  0  0  0  0  0  0  0  0
  188.9200  177.5560  142.4700 C   0  0  0  0  0  0  0  0  0  0  0  0
  186.1840  177.8390  142.7860 C   0  0  2  0  0  3  0  0  0  0  0  0
  190.6910  176.9560  144.5260 C   0  0  0  0  0  0  0  0  0  0  0  0
  190.0610  177.2310  147.2490 C   0  0  0  0  0  2  0  0  0  0  0  0
  192.0710  176.2110  147.8660 C   0  0  0  0  0  1  0  0  0  0  0  0
  189.3540  177.2710  144.8400 C   0  0  0  0  0  0  0  0  0  0  0  0
  191.6970  176.7180  145.6160 C   0  0  0  0  0  2  0  0  0  0  0  0
  188.8860  177.2220  146.2730 C   0  0  0  0  0  2  0  0  0  0  0  0
  187.0080  177.8730  144.0820 C   0  0  0  0  0  2  0  0  0  0  0  0
  188.4510  177.5430  143.7990 C   0  0  0  0  0  0  0  0  0  0  0  0
  190.2180  177.2420  142.2040 N   0  0  0  0  0  0  0  0  0  0  0  0
  187.9310  177.7830  141.3480 C   0  0  1  0  0  3  0  0  0  0  0  0
  186.8490  178.5730  141.7880 O   0  0  0  0  0  0  0  0  0  0  0  0
  191.1040  176.9590  143.1940 C   0  0  0  0  0  3  0  0  0  0  0  0
  184.7800  178.3970  142.9880 C   0  0  1  0  0  3  0  0  0  0  0  0
  184.6770  179.1350  144.3130 C   0  0  0  0  0  1  0  0  0  0  0  0
  184.4240  179.2580  141.9080 O   0  0  0  0  0  0  0  0  0  0  0  0
  183.9260  178.8010  140.6800 C   0  0  0  0  0  0  0  0  0  0  0  0
  184.2910  179.3600  139.5290 C   0  0  0  0  0  2  0  0  0  0  0  0
  182.9910  177.6340  140.6530 C   0  0  2  0  0  3  0  0  0  0  0  0
  182.5920  177.3240  139.2230 C   0  0  2  0  0  3  0  0  0  0  0  0
  180.6990  175.9250  139.5940 O   0  0  0  0  0  0  0  0  0  0  0  0
  181.6330  178.0500  140.1170 C   0  0  1  0  0  3  0  0  0  0  0  0
  182.0290  175.9220  139.1450 C   0  0  1  0  0  3  0  0  0  0  0  0
  180.5980  177.0100  140.4790 C   0  0  0  0  0  2  0  0  0  0  0  0
  182.1050  175.4090  137.7790 N   0  0  0  0  0  0  0  0  0  0  0  0
  181.3350  176.0730  136.7310 C   0  0  0  0  0  1  0  0  0  0  0  0
  182.9690  174.3010  137.4610 C   0  0  0  0  0  0  0  0  0  0  0  0
  183.2800  172.0380  136.6180 C   0  0  0  0  0  3  0  0  0  0  0  0
  185.1920  173.3110  137.3760 C   0  0  0  0  0  3  0  0  0  0  0  0
  184.6550  172.1370  136.8440 C   0  0  0  0  0  3  0  0  0  0  0  0
  184.3530  174.3860  137.6830 C   0  0  0  0  0  3  0  0  0  0  0  0
  182.4420  173.1130  136.9250 C   0  0  0  0  0  3  0  0  0  0  0  0
  188.5990  178.4600  140.1550 C   0  0  0  0  0  2  0  0  0  0  0  0
  187.0170  177.0120  137.0330 C   0  0  0  0  0  3  0  0  0  0  0  0
  188.0060  176.1170  136.6130 C   0  0  0  0  0  0  0  0  0  0  0  0
  189.3870  176.7590  138.4950 C   0  0  0  0  0  3  0  0  0  0  0  0
  187.2140  177.7800  138.1840 C   0  0  0  0  0  3  0  0  0  0  0  0
  188.4010  177.6580  138.9140 C   0  0  0  0  0  0  0  0  0  0  0  0
  189.1910  175.9900  137.3440 C   0  0  0  0  0  3  0  0  0  0  0  0
  186.4770  175.7190  134.5650 O   0  0  0  0  0  0  0  0  0  0  0  0
  187.7550  175.1420  135.1570 S   0  0  0  0  0  3  0  0  0  0  0  0
  1  5  1  0  0  0  0
  1  6  1  0  0  0  0
  2 11  1  0  0  0  0
  3 16  1  1  0  0  0
  3 10  1  0  0  0  0
  4  7  1  0  0  0  0
  4  8  1  0  0  0  0
  7  9  1  0  0  0  0
  8  1  1  0  0  0  0
  9  5  1  0  0  0  0
 11 10  1  0  0  0  0
 11  7  2  0  0  0  0
 12  2  2  0  0  0  0
 12 15  1  0  0  0  0
 13 35  1  6  0  0  0
 13 14  1  0  0  0  0
 13  2  1  0  0  0  0
 14  3  1  0  0  0  0
 15  4  2  0  0  0  0
 16 17  1  1  0  0  0
 18 16  1  0  0  0  0
 19 18  1  0  0  0  0
 20 19  2  0  0  0  0
 21 19  1  6  0  0  0
 22 24  1  0  0  0  0
 22 21  1  0  0  0  0
 23 26  1  0  0  0  0
 24 26  1  0  0  0  0
 24 21  1  0  0  0  0
 25 22  1  0  0  0  0
 25 23  1  0  0  0  0
 27 25  1  0  0  0  0
 28 27  1  0  0  0  0
 29 33  1  0  0  0  0
 29 27  1  0  0  0  0
 30 32  2  0  0  0  0
 30 34  1  0  0  0  0
 31 33  2  0  0  0  0
 32 31  1  0  0  0  0
 34 29  2  0  0  0  0
 36 39  1  0  0  0  0
 37 36  2  0  0  0  0
 37 41  1  0  0  0  0
 38 40  1  0  0  0  0
 39 40  2  0  0  0  0
 40 35  1  0  0  0  0
 41 38  2  0  0  0  0
 42 43  2  0  0  0  0
 43 37  1  0  0  0  0
M  END
>  <MODEL>
1

>  <REMARK>
 VINA RESULT:      -9.1      0.000      0.000
  Name = 
  9 active torsions:
  status: ('A' for Active; 'I' for Inactive)
    1  A    between atoms: C_1  and  C_34
    2  A    between atoms: C_1  and  C_35
    3  A    between atoms: C_2  and  O_6
    4  A    between atoms: C_2  and  C_13
    5  A    between atoms: C_3  and  C_12
    6  A    between atoms: O_6  and  C_12
    7  A    between atoms: C_11  and  N_14
    8  A    between atoms: N_14  and  C_22
    9  A    between atoms: C_19  and  S_37
                            x       y       z     vdW  Elec       q    Type
                         _______ _______ _______ _____ _____    ______ ____

>  <TORSDO>
F 9

$$$$
=
 OpenBabel10272414073D

 43 49  0  0  1  0  0  0  0  0999 V2000
  191.6110  176.9180  147.0930 N   0  0  0  0  0  0  0  0  0  0  0  0
  187.8140  177.7580  143.8990 C   0  0  0  0  0  0  0  0  0  0  0  0
  188.7830  178.1000  141.3280 C   0  0  2  0  0  3  0  0  0  0  0  0
  189.3850  177.1460  146.1080 C   0  0  0  0  0  0  0  0  0  0  0  0
  191.9980  176.1340  145.9230 C   0  0  0  0  0  2  0  0  0  0  0  0
  192.2880  176.3280  148.2340 C   0  0  0  0  0  1  0  0  0  0  0  0
  189.9580  177.0980  144.8220 C   0  0  0  0  0  0  0  0  0  0  0  0
  190.1780  176.7310  147.3140 C   0  0  0  0  0  2  0  0  0  0  0  0
  191.4230  176.7770  144.6620 C   0  0  0  0  0  2  0  0  0  0  0  0
  189.7430  177.4170  142.3130 C   0  0  0  0  0  2  0  0  0  0  0  0
  189.1730  177.4390  143.7080 C   0  0  0  0  0  0  0  0  0  0  0  0
  187.2950  177.7980  145.1570 N   0  0  0  0  0  0  0  0  0  0  0  0
  186.9890  178.1890  142.7060 C   0  0  1  0  0  3  0  0  0  0  0  0
  187.4810  177.6040  141.5210 O   0  0  0  0  0  0  0  0  0  0  0  0
  188.0410  177.4900  146.2500 C   0  0  0  0  0  3  0  0  0  0  0  0
  189.2060  177.8880  139.8790 C   0  0  1  0  0  3  0  0  0  0  0  0
  190.0170  176.6100  139.7340 C   0  0  0  0  0  1  0  0  0  0  0  0
  188.0650  177.8550  139.0240 O   0  0  0  0  0  0  0  0  0  0  0  0
  188.0180  178.4700  137.7650 C   0  0  0  0  0  0  0  0  0  0  0  0
  189.0180  179.2300  137.3250 C   0  0  0  0  0  2  0  0  0  0  0  0
  186.8380  178.2400  136.8760 C   0  0  2  0  0  3  0  0  0  0  0  0
  186.2550  176.8640  137.1360 C   0  0  2  0  0  3  0  0  0  0  0  0
  184.8900  176.5990  135.2010 O   0  0  0  0  0  0  0  0  0  0  0  0
  187.1040  177.0900  135.9220 C   0  0  1  0  0  3  0  0  0  0  0  0
  184.8450  176.7980  136.5900 C   0  0  1  0  0  3  0  0  0  0  0  0
  186.1160  177.1340  134.7780 C   0  0  0  0  0  2  0  0  0  0  0  0
  184.0910  175.7260  137.2350 N   0  0  0  0  0  0  0  0  0  0  0  0
  184.6640  174.3840  137.2770 C   0  0  0  0  0  1  0  0  0  0  0  0
  182.8260  176.0020  137.8680 C   0  0  0  0  0  0  0  0  0  0  0  0
  180.5240  176.7840  137.7400 C   0  0  0  0  0  3  0  0  0  0  0  0
  181.4200  176.0310  139.8570 C   0  0  0  0  0  3  0  0  0  0  0  0
  180.3590  176.5410  139.1060 C   0  0  0  0  0  3  0  0  0  0  0  0
  182.6460  175.7630  139.2410 C   0  0  0  0  0  3  0  0  0  0  0  0
  181.7500  176.5160  137.1250 C   0  0  0  0  0  3  0  0  0  0  0  0
  185.5230  177.8100  142.8850 C   0  0  0  0  0  2  0  0  0  0  0  0
  182.5220  179.0780  140.9520 C   0  0  0  0  0  3  0  0  0  0  0  0
  183.1140  179.4550  139.7430 C   0  0  0  0  0  0  0  0  0  0  0  0
  185.2780  178.7730  140.5860 C   0  0  0  0  0  3  0  0  0  0  0  0
  183.3090  178.5480  141.9790 C   0  0  0  0  0  3  0  0  0  0  0  0
  184.6890  178.3990  141.7990 C   0  0  0  0  0  0  0  0  0  0  0  0
  184.4910  179.3030  139.5600 C   0  0  0  0  0  3  0  0  0  0  0  0
  180.9170  180.7000  139.1810 O   0  0  0  0  0  0  0  0  0  0  0  0
  182.1170  180.1240  138.4410 S   0  0  0  0  0  3  0  0  0  0  0  0
  1  8  1  0  0  0  0
  1  6  1  0  0  0  0
  2 12  1  0  0  0  0
  3 16  1  6  0  0  0
  3 14  1  0  0  0  0
  3 10  1  0  0  0  0
  4 15  1  0  0  0  0
  4  8  1  0  0  0  0
  5  1  1  0  0  0  0
  7  4  2  0  0  0  0
  9  7  1  0  0  0  0
  9  5  1  0  0  0  0
 10 11  1  0  0  0  0
 11  2  2  0  0  0  0
 11  7  1  0  0  0  0
 12 15  2  0  0  0  0
 13 35  1  1  0  0  0
 13  2  1  0  0  0  0
 14 13  1  0  0  0  0
 16 17  1  1  0  0  0
 18 16  1  0  0  0  0
 19 18  1  0  0  0  0
 20 19  2  0  0  0  0
 21 22  1  0  0  0  0
 21 19  1  1  0  0  0
 23 25  1  0  0  0  0
 24 21  1  0  0  0  0
 24 22  1  0  0  0  0
 25 22  1  0  0  0  0
 25 27  1  0  0  0  0
 26 23  1  0  0  0  0
 26 24  1  0  0  0  0
 27 28  1  0  0  0  0
 27 29  1  0  0  0  0
 29 33  1  0  0  0  0
 30 32  2  0  0  0  0
 32 31  1  0  0  0  0
 33 31  2  0  0  0  0
 34 30  1  0  0  0  0
 34 29  2  0  0  0  0
 36 39  1  0  0  0  0
 37 36  2  0  0  0  0
 38 40  1  0  0  0  0
 40 39  2  0  0  0  0
 40 35  1  0  0  0  0
 41 37  1  0  0  0  0
 41 38  2  0  0  0  0
 43 42  2  0  0  0  0
 43 37  1  0  0  0  0
M  END
>  <MODEL>
2

>  <REMARK>
 VINA RESULT:      -8.9      2.132      4.749
  Name = 
  9 active torsions:
  status: ('A' for Active; 'I' for Inactive)
    1  A    between atoms: C_1  and  C_34
    2  A    between atoms: C_1  and  C_35
    3  A    between atoms: C_2  and  O_6
    4  A    between atoms: C_2  and  C_13
    5  A    between atoms: C_3  and  C_12
    6  A    between atoms: O_6  and  C_12
    7  A    between atoms: C_11  and  N_14
    8  A    between atoms: N_14  and  C_22
    9  A    between atoms: C_19  and  S_37
                            x       y       z     vdW  Elec       q    Type
                         _______ _______ _______ _____ _____    ______ ____

>  <TORSDO>
F 9

$$$$
=
 OpenBabel10272414073D

 43 49  0  0  1  0  0  0  0  0999 V2000
  184.2490  179.4630  139.0210 N   0  0  0  0  0  0  0  0  0  0  0  0
  188.5030  176.9200  138.1460 C   0  0  0  0  0  0  0  0  0  0  0  0
  190.3310  177.3850  140.1740 C   0  0  2  0  0  3  0  0  0  0  0  0
  185.9170  177.9360  138.0910 C   0  0  0  0  0  0  0  0  0  0  0  0
  184.6060  178.9710  140.3480 C   0  0  0  0  0  2  0  0  0  0  0  0
  182.8180  179.7020  139.0340 C   0  0  0  0  0  1  0  0  0  0  0  0
  186.6850  178.0740  139.2640 C   0  0  0  0  0  0  0  0  0  0  0  0
  184.4860  178.3890  138.0570 C   0  0  0  0  0  2  0  0  0  0  0  0
  186.1230  178.8190  140.4490 C   0  0  0  0  0  2  0  0  0  0  0  0
  188.8710  177.7240  140.5070 C   0  0  0  0  0  2  0  0  0  0  0  0
  188.0040  177.5890  139.2810 C   0  0  0  0  0  0  0  0  0  0  0  0
  187.7340  176.8090  137.0290 N   0  0  0  0  0  0  0  0  0  0  0  0
  189.9440  176.4580  138.1450 C   0  0  1  0  0  3  0  0  0  0  0  0
  190.3800  176.1760  139.4570 O   0  0  0  0  0  0  0  0  0  0  0  0
  186.4630  177.2860  136.9840 C   0  0  0  0  0  3  0  0  0  0  0  0
  191.1920  177.2760  141.4270 C   0  0  1  0  0  3  0  0  0  0  0  0
  192.6450  177.5940  141.1130 C   0  0  0  0  0  1  0  0  0  0  0  0
  190.7000  178.1420  142.4480 O   0  0  0  0  0  0  0  0  0  0  0  0
  191.1840  178.1460  143.7640 C   0  0  0  0  0  0  0  0  0  0  0  0
  192.1220  179.0050  144.1580 C   0  0  0  0  0  2  0  0  0  0  0  0
  190.6130  177.1900  144.7610 C   0  0  2  0  0  3  0  0  0  0  0  0
  189.7080  177.9310  145.7280 C   0  0  2  0  0  3  0  0  0  0  0  0
  189.5140  176.3140  147.4680 O   0  0  0  0  0  0  0  0  0  0  0  0
  191.0870  177.5340  146.1620 C   0  0  1  0  0  3  0  0  0  0  0  0
  188.8040  176.9450  146.4350 C   0  0  1  0  0  3  0  0  0  0  0  0
  190.8640  176.3550  147.0830 C   0  0  0  0  0  2  0  0  0  0  0  0
  187.6210  177.6190  146.9670 N   0  0  0  0  0  0  0  0  0  0  0  0
  187.5910  177.9830  148.3800 C   0  0  0  0  0  1  0  0  0  0  0  0
  186.5260  177.9660  146.0980 C   0  0  0  0  0  0  0  0  0  0  0  0
  185.5540  178.0950  143.8690 C   0  0  0  0  0  3  0  0  0  0  0  0
  184.2830  178.8600  145.7800 C   0  0  0  0  0  3  0  0  0  0  0  0
  184.3870  178.6470  144.4040 C   0  0  0  0  0  3  0  0  0  0  0  0
  185.3470  178.5220  146.6210 C   0  0  0  0  0  3  0  0  0  0  0  0
  186.6170  177.7570  144.7110 C   0  0  0  0  0  3  0  0  0  0  0  0
  190.1240  175.2190  137.2750 C   0  0  0  0  0  2  0  0  0  0  0  0
  193.3880  173.5660  136.2960 C   0  0  0  0  0  3  0  0  0  0  0  0
  194.2610  174.6580  136.2970 C   0  0  0  0  0  0  0  0  0  0  0  0
  192.4340  176.1190  136.9230 C   0  0  0  0  0  3  0  0  0  0  0  0
  192.0380  173.7500  136.6090 C   0  0  0  0  0  3  0  0  0  0  0  0
  191.5580  175.0270  136.9180 C   0  0  0  0  0  0  0  0  0  0  0  0
  193.7840  175.9350  136.6100 C   0  0  0  0  0  3  0  0  0  0  0  0
  196.6910  175.0980  137.0640 O   0  0  0  0  0  0  0  0  0  0  0  0
  195.9710  174.4240  135.9030 S   0  0  0  0  0  3  0  0  0  0  0  0
  1  6  1  0  0  0  0
  1  5  1  0  0  0  0
  2 11  1  0  0  0  0
  3 10  1  0  0  0  0
  3 16  1  1  0  0  0
  4  7  1  0  0  0  0
  5  9  1  0  0  0  0
  7 11  2  0  0  0  0
  7  9  1  0  0  0  0
  8  4  1  0  0  0  0
  8  1  1  0  0  0  0
 11 10  1  0  0  0  0
 12  2  2  0  0  0  0
 13 35  1  6  0  0  0
 13  2  1  0  0  0  0
 13 14  1  0  0  0  0
 14  3  1  0  0  0  0
 15 12  1  0  0  0  0
 15  4  2  0  0  0  0
 16 17  1  6  0  0  0
 16 18  1  0  0  0  0
 18 19  1  0  0  0  0
 19 20  2  0  0  0  0
 21 19  1  6  0  0  0
 21 22  1  0  0  0  0
 21 24  1  0  0  0  0
 22 24  1  0  0  0  0
 22 25  1  0  0  0  0
 24 26  1  0  0  0  0
 25 27  1  0  0  0  0
 25 23  1  0  0  0  0
 26 23  1  0  0  0  0
 27 28  1  0  0  0  0
 29 33  1  0  0  0  0
 29 27  1  0  0  0  0
 30 32  2  0  0  0  0
 30 34  1  0  0  0  0
 31 33  2  0  0  0  0
 32 31  1  0  0  0  0
 34 29  2  0  0  0  0
 36 37  2  0  0  0  0
 36 39  1  0  0  0  0
 37 41  1  0  0  0  0
 39 40  2  0  0  0  0
 40 38  1  0  0  0  0
 40 35  1  0  0  0  0
 41 38  2  0  0  0  0
 43 37  1  0  0  0  0
 43 42  2  0  0  0  0
M  END
>  <MODEL>
3

>  <REMARK>
 VINA RESULT:      -8.8      3.631      8.523
  Name = 
  9 active torsions:
  status: ('A' for Active; 'I' for Inactive)
    1  A    between atoms: C_1  and  C_34
    2  A    between atoms: C_1  and  C_35
    3  A    between atoms: C_2  and  O_6
    4  A    between atoms: C_2  and  C_13
    5  A    between atoms: C_3  and  C_12
    6  A    between atoms: O_6  and  C_12
    7  A    between atoms: C_11  and  N_14
    8  A    between atoms: N_14  and  C_22
    9  A    between atoms: C_19  and  S_37
                            x       y       z     vdW  Elec       q    Type
                         _______ _______ _______ _____ _____    ______ ____

>  <TORSDO>
F 9

$$$$
=
 OpenBabel10272414073D

 43 49  0  0  1  0  0  0  0  0999 V2000
  184.6320  177.2060  135.0990 N   0  0  0  0  0  0  0  0  0  0  0  0
  189.0390  175.9930  137.2050 C   0  0  0  0  0  0  0  0  0  0  0  0
  189.4580  177.5040  139.4870 C   0  0  2  0  0  3  0  0  0  0  0  0
  186.7420  176.0970  135.6440 C   0  0  0  0  0  0  0  0  0  0  0  0
  184.3150  177.2020  136.5240 C   0  0  0  0  0  2  0  0  0  0  0  0
  183.3840  176.9780  134.3930 C   0  0  0  0  0  1  0  0  0  0  0  0
  186.7590  176.7610  136.8870 C   0  0  0  0  0  0  0  0  0  0  0  0
  185.4880  176.0540  134.8190 C   0  0  0  0  0  2  0  0  0  0  0  0
  185.5620  177.5650  137.3280 C   0  0  0  0  0  2  0  0  0  0  0  0
  188.0050  177.4400  138.9920 C   0  0  0  0  0  2  0  0  0  0  0  0
  187.9310  176.7350  137.6610 C   0  0  0  0  0  0  0  0  0  0  0  0
  188.9870  175.3680  135.9960 N   0  0  0  0  0  0  0  0  0  0  0  0
  190.3200  176.0230  138.0090 C   0  0  1  0  0  3  0  0  0  0  0  0
  190.0480  176.2320  139.3760 O   0  0  0  0  0  0  0  0  0  0  0  0
  187.8700  175.3950  135.2240 C   0  0  0  0  0  3  0  0  0  0  0  0
  189.5480  177.9900  140.9290 C   0  0  1  0  0  3  0  0  0  0  0  0
  188.2030  178.5160  141.4060 C   0  0  0  0  0  1  0  0  0  0  0  0
  190.0070  176.9440  141.7820 O   0  0  0  0  0  0  0  0  0  0  0  0
  190.9720  177.1250  142.7830 C   0  0  0  0  0  0  0  0  0  0  0  0
  192.0650  177.8550  142.5730 C   0  0  0  0  0  2  0  0  0  0  0  0
  190.7570  176.5160  144.1320 C   0  0  2  0  0  3  0  0  0  0  0  0
  190.1060  177.5270  145.0570 C   0  0  2  0  0  3  0  0  0  0  0  0
  190.4980  176.4960  147.1700 O   0  0  0  0  0  0  0  0  0  0  0  0
  191.5730  177.2460  145.1830 C   0  0  1  0  0  3  0  0  0  0  0  0
  189.4940  176.8110  146.2410 C   0  0  1  0  0  3  0  0  0  0  0  0
  191.6850  176.3940  146.4280 C   0  0  0  0  0  2  0  0  0  0  0  0
  188.4620  177.6350  146.8660 N   0  0  0  0  0  0  0  0  0  0  0  0
  188.7080  178.1900  148.1940 C   0  0  0  0  0  1  0  0  0  0  0  0
  187.2440  177.9410  146.1600 C   0  0  0  0  0  0  0  0  0  0  0  0
  185.0230  178.9380  146.1090 C   0  0  0  0  0  3  0  0  0  0  0  0
  185.8910  177.8380  144.1370 C   0  0  0  0  0  3  0  0  0  0  0  0
  184.8660  178.5360  144.7800 C   0  0  0  0  0  3  0  0  0  0  0  0
  187.0720  177.5420  144.8240 C   0  0  0  0  0  3  0  0  0  0  0  0
  186.2040  178.6420  146.7950 C   0  0  0  0  0  3  0  0  0  0  0  0
  191.1040  174.7250  137.8420 C   0  0  0  0  0  2  0  0  0  0  0  0
  193.9100  176.3120  135.8530 C   0  0  0  0  0  3  0  0  0  0  0  0
  194.9790  175.4670  136.1640 C   0  0  0  0  0  0  0  0  0  0  0  0
  193.5260  174.1460  137.5800 C   0  0  0  0  0  3  0  0  0  0  0  0
  192.6480  176.0730  136.4060 C   0  0  0  0  0  3  0  0  0  0  0  0
  192.4550  174.9930  137.2730 C   0  0  0  0  0  0  0  0  0  0  0  0
  194.7880  174.3840  137.0280 C   0  0  0  0  0  3  0  0  0  0  0  0
  197.4950  175.7830  136.6770 O   0  0  0  0  0  0  0  0  0  0  0  0
  196.5770  175.7670  135.4620 S   0  0  0  0  0  3  0  0  0  0  0  0
  1  5  1  0  0  0  0
  2 11  1  0  0  0  0
  2 13  1  0  0  0  0
  3 16  1  1  0  0  0
  4  7  1  0  0  0  0
  5  9  1  0  0  0  0
  6  1  1  0  0  0  0
  7  9  1  0  0  0  0
  7 11  2  0  0  0  0
  8  1  1  0  0  0  0
  8  4  1  0  0  0  0
 10  3  1  0  0  0  0
 11 10  1  0  0  0  0
 12  2  2  0  0  0  0
 13 35  1  1  0  0  0
 13 14  1  0  0  0  0
 14  3  1  0  0  0  0
 15  4  2  0  0  0  0
 15 12  1  0  0  0  0
 16 17  1  1  0  0  0
 16 18  1  0  0  0  0
 18 19  1  0  0  0  0
 20 19  2  0  0  0  0
 21 19  1  6  0  0  0
 21 22  1  0  0  0  0
 21 24  1  0  0  0  0
 22 24  1  0  0  0  0
 22 25  1  0  0  0  0
 24 26  1  0  0  0  0
 25 27  1  0  0  0  0
 25 23  1  0  0  0  0
 26 23  1  0  0  0  0
 27 28  1  0  0  0  0
 29 34  1  0  0  0  0
 29 27  1  0  0  0  0
 30 34  2  0  0  0  0
 31 32  2  0  0  0  0
 31 33  1  0  0  0  0
 32 30  1  0  0  0  0
 33 29  2  0  0  0  0
 36 37  2  0  0  0  0
 36 39  1  0  0  0  0
 37 41  1  0  0  0  0
 39 40  2  0  0  0  0
 40 38  1  0  0  0  0
 40 35  1  0  0  0  0
 41 38  2  0  0  0  0
 43 37  1  0  0  0  0
 43 42  2  0  0  0  0
M  END
>  <MODEL>
4

>  <REMARK>
 VINA RESULT:      -8.7      3.632      9.144
  Name = 
  9 active torsions:
  status: ('A' for Active; 'I' for Inactive)
    1  A    between atoms: C_1  and  C_34
    2  A    between atoms: C_1  and  C_35
    3  A    between atoms: C_2  and  O_6
    4  A    between atoms: C_2  and  C_13
    5  A    between atoms: C_3  and  C_12
    6  A    between atoms: O_6  and  C_12
    7  A    between atoms: C_11  and  N_14
    8  A    between atoms: N_14  and  C_22
    9  A    between atoms: C_19  and  S_37
                            x       y       z     vdW  Elec       q    Type
                         _______ _______ _______ _____ _____    ______ ____

>  <TORSDO>
F 9

$$$$
=
 OpenBabel10272414073D

 43 49  0  0  1  0  0  0  0  0999 V2000
  191.2650  177.0550  146.7740 N   0  0  0  0  0  0  0  0  0  0  0  0
  187.3810  177.9790  143.7090 C   0  0  0  0  0  0  0  0  0  0  0  0
  188.2850  178.4730  141.1390 C   0  0  2  0  0  3  0  0  0  0  0  0
  189.0130  177.2870  145.8490 C   0  0  0  0  0  0  0  0  0  0  0  0
  191.6410  176.3420  145.5570 C   0  0  0  0  0  2  0  0  0  0  0  0
  191.9790  176.4220  147.8670 C   0  0  0  0  0  1  0  0  0  0  0  0
  189.5590  177.3180  144.5500 C   0  0  0  0  0  0  0  0  0  0  0  0
  189.8410  176.8270  147.0150 C   0  0  0  0  0  2  0  0  0  0  0  0
  191.0250  177.0360  144.3430 C   0  0  0  0  0  2  0  0  0  0  0  0
  189.2810  177.7610  142.0660 C   0  0  0  0  0  2  0  0  0  0  0  0
  188.7420  177.6990  143.4730 C   0  0  0  0  0  0  0  0  0  0  0  0
  186.8900  177.9430  144.9780 N   0  0  0  0  0  0  0  0  0  0  0  0
  186.5220  178.4530  142.5580 C   0  0  1  0  0  3  0  0  0  0  0  0
  186.9990  177.9400  141.3330 O   0  0  0  0  0  0  0  0  0  0  0  0
  187.6660  177.5950  146.0370 C   0  0  0  0  0  3  0  0  0  0  0  0
  188.6800  178.3460  139.6730 C   0  0  1  0  0  3  0  0  0  0  0  0
  189.7970  177.3280  139.5000 C   0  0  0  0  0  1  0  0  0  0  0  0
  187.5500  177.9860  138.8800 O   0  0  0  0  0  0  0  0  0  0  0  0
  187.4330  178.2820  137.5140 C   0  0  0  0  0  0  0  0  0  0  0  0
  188.4320  178.8410  136.8350 C   0  0  0  0  0  2  0  0  0  0  0  0
  186.1730  177.9300  136.7900 C   0  0  2  0  0  3  0  0  0  0  0  0
  185.6470  176.5960  137.2850 C   0  0  2  0  0  3  0  0  0  0  0  0
  184.0980  176.0700  135.5530 O   0  0  0  0  0  0  0  0  0  0  0  0
  186.3630  176.6670  135.9700 C   0  0  1  0  0  3  0  0  0  0  0  0
  184.1910  176.4500  136.9010 C   0  0  1  0  0  3  0  0  0  0  0  0
  185.2640  176.5540  134.9390 C   0  0  0  0  0  2  0  0  0  0  0  0
  183.5280  175.4660  137.7540 N   0  0  0  0  0  0  0  0  0  0  0  0
  182.9480  175.9050  139.0210 C   0  0  0  0  0  1  0  0  0  0  0  0
  183.4010  174.0960  137.3270 C   0  0  0  0  0  0  0  0  0  0  0  0
  182.0500  172.2750  136.4390 C   0  0  0  0  0  3  0  0  0  0  0  0
  184.3810  171.8960  136.9660 C   0  0  0  0  0  3  0  0  0  0  0  0
  183.1540  171.4210  136.4960 C   0  0  0  0  0  3  0  0  0  0  0  0
  184.5020  173.2250  137.3790 C   0  0  0  0  0  3  0  0  0  0  0  0
  182.1730  173.6040  136.8530 C   0  0  0  0  0  3  0  0  0  0  0  0
  185.0680  178.0350  142.7480 C   0  0  0  0  0  2  0  0  0  0  0  0
  184.0310  179.5130  139.4180 C   0  0  0  0  0  3  0  0  0  0  0  0
  182.6390  179.5280  139.5450 C   0  0  0  0  0  0  0  0  0  0  0  0
  182.8290  178.5570  141.7550 C   0  0  0  0  0  3  0  0  0  0  0  0
  184.8220  179.0200  140.4600 C   0  0  0  0  0  3  0  0  0  0  0  0
  184.2220  178.5370  141.6280 C   0  0  0  0  0  0  0  0  0  0  0  0
  182.0380  179.0500  140.7130 C   0  0  0  0  0  3  0  0  0  0  0  0
  181.5010  181.6330  138.5640 O   0  0  0  0  0  0  0  0  0  0  0  0
  181.6380  180.1550  138.2270 S   0  0  0  0  0  3  0  0  0  0  0  0
  1  8  1  0  0  0  0
  1  6  1  0  0  0  0
  2 12  1  0  0  0  0
  3 16  1  6  0  0  0
  3 14  1  0  0  0  0
  3 10  1  0  0  0  0
  4 15  1  0  0  0  0
  4  8  1  0  0  0  0
  5  1  1  0  0  0  0
  7  4  2  0  0  0  0
  9  7  1  0  0  0  0
  9  5  1  0  0  0  0
 10 11  1  0  0  0  0
 11  2  2  0  0  0  0
 11  7  1  0  0  0  0
 12 15  2  0  0  0  0
 13 35  1  1  0  0  0
 13  2  1  0  0  0  0
 14 13  1  0  0  0  0
 16 17  1  1  0  0  0
 18 16  1  0  0  0  0
 19 18  1  0  0  0  0
 20 19  2  0  0  0  0
 21 22  1  0  0  0  0
 21 19  1  1  0  0  0
 23 25  1  0  0  0  0
 24 21  1  0  0  0  0
 24 22  1  0  0  0  0
 25 22  1  0  0  0  0
 25 27  1  0  0  0  0
 26 23  1  0  0  0  0
 26 24  1  0  0  0  0
 27 28  1  0  0  0  0
 29 33  1  0  0  0  0
 29 27  1  0  0  0  0
 30 32  2  0  0  0  0
 30 34  1  0  0  0  0
 31 33  2  0  0  0  0
 32 31  1  0  0  0  0
 34 29  2  0  0  0  0
 36 37  2  0  0  0  0
 36 39  1  0  0  0  0
 37 41  1  0  0  0  0
 39 40  2  0  0  0  0
 40 38  1  0  0  0  0
 40 35  1  0  0  0  0
 41 38  2  0  0  0  0
 43 42  2  0  0  0  0
 43 37  1  0  0  0  0
M  END
>  <MODEL>
5

>  <REMARK>
 VINA RESULT:      -8.6      2.076      4.396
  Name = 
  9 active torsions:
  status: ('A' for Active; 'I' for Inactive)
    1  A    between atoms: C_1  and  C_34
    2  A    between atoms: C_1  and  C_35
    3  A    between atoms: C_2  and  O_6
    4  A    between atoms: C_2  and  C_13
    5  A    between atoms: C_3  and  C_12
    6  A    between atoms: O_6  and  C_12
    7  A    between atoms: C_11  and  N_14
    8  A    between atoms: N_14  and  C_22
    9  A    between atoms: C_19  and  S_37
                            x       y       z     vdW  Elec       q    Type
                         _______ _______ _______ _____ _____    ______ ____

>  <TORSDO>
F 9

$$$$
=
 OpenBabel10272414073D

 43 49  0  0  1  0  0  0  0  0999 V2000
  192.0440  176.4670  147.2100 N   0  0  0  0  0  0  0  0  0  0  0  0
  188.1520  177.6760  144.2560 C   0  0  0  0  0  0  0  0  0  0  0  0
  188.9150  177.6180  141.5960 C   0  0  2  0  0  3  0  0  0  0  0  0
  189.8030  176.9930  146.3850 C   0  0  0  0  0  0  0  0  0  0  0  0
  192.1820  175.5290  146.0990 C   0  0  0  0  0  2  0  0  0  0  0  0
  192.7190  175.8710  148.3470 C   0  0  0  0  0  1  0  0  0  0  0  0
  190.2350  176.7350  145.0690 C   0  0  0  0  0  0  0  0  0  0  0  0
  190.6270  176.5530  147.5610 C   0  0  0  0  0  2  0  0  0  0  0  0
  191.6040  176.1500  144.8280 C   0  0  0  0  0  2  0  0  0  0  0  0
  189.8380  176.8660  142.5660 C   0  0  0  0  0  2  0  0  0  0  0  0
  189.4150  177.1090  143.9920 C   0  0  0  0  0  0  0  0  0  0  0  0
  187.7690  177.9150  145.5410 N   0  0  0  0  0  0  0  0  0  0  0  0
  187.3010  178.1380  143.0940 C   0  0  1  0  0  3  0  0  0  0  0  0
  187.5730  177.3750  141.9400 O   0  0  0  0  0  0  0  0  0  0  0  0
  188.5540  177.5780  146.5970 C   0  0  0  0  0  3  0  0  0  0  0  0
  189.1570  177.2100  140.1470 C   0  0  1  0  0  3  0  0  0  0  0  0
  189.2760  178.4350  139.2540 C   0  0  0  0  0  1  0  0  0  0  0  0
  190.3270  176.4010  140.0440 O   0  0  0  0  0  0  0  0  0  0  0  0
  191.4210  176.7170  139.2270 C   0  0  0  0  0  0  0  0  0  0  0  0
  192.5210  177.2800  139.7230 C   0  0  0  0  0  2  0  0  0  0  0  0
  191.3730  176.3850  137.7700 C   0  0  2  0  0  3  0  0  0  0  0  0
  190.3670  175.2760  137.5250 C   0  0  2  0  0  3  0  0  0  0  0  0
  191.0010  174.5900  135.3330 O   0  0  0  0  0  0  0  0  0  0  0  0
  191.8320  174.9570  137.5320 C   0  0  1  0  0  3  0  0  0  0  0  0
  189.9940  175.2440  136.0590 C   0  0  1  0  0  3  0  0  0  0  0  0
  192.1800  174.7660  136.0740 C   0  0  0  0  0  2  0  0  0  0  0  0
  188.7100  174.5710  135.8690 N   0  0  0  0  0  0  0  0  0  0  0  0
  188.6990  173.1470  135.5460 C   0  0  0  0  0  1  0  0  0  0  0  0
  187.4750  175.2900  136.0500 C   0  0  0  0  0  0  0  0  0  0  0  0
  185.2220  175.4250  136.9660 C   0  0  0  0  0  3  0  0  0  0  0  0
  186.1030  177.2640  135.6640 C   0  0  0  0  0  3  0  0  0  0  0  0
  185.0630  176.6930  136.4020 C   0  0  0  0  0  3  0  0  0  0  0  0
  187.3000  176.5660  135.4890 C   0  0  0  0  0  3  0  0  0  0  0  0
  186.4200  174.7270  136.7900 C   0  0  0  0  0  3  0  0  0  0  0  0
  185.8160  178.0380  143.4270 C   0  0  0  0  0  2  0  0  0  0  0  0
  182.8070  178.7760  141.2470 C   0  0  0  0  0  3  0  0  0  0  0  0
  183.4210  179.1400  140.0450 C   0  0  0  0  0  0  0  0  0  0  0  0
  185.5970  178.7980  141.0510 C   0  0  0  0  0  3  0  0  0  0  0  0
  183.5880  178.4230  142.3510 C   0  0  0  0  0  3  0  0  0  0  0  0
  184.9840  178.4380  142.2560 C   0  0  0  0  0  0  0  0  0  0  0  0
  184.8160  179.1510  139.9460 C   0  0  0  0  0  3  0  0  0  0  0  0
  182.1100  178.2400  138.0040 O   0  0  0  0  0  0  0  0  0  0  0  0
  182.4320  179.5840  138.6450 S   0  0  0  0  0  3  0  0  0  0  0  0
  1  8  1  0  0  0  0
  1  6  1  0  0  0  0
  2 12  1  0  0  0  0
  3 16  1  6  0  0  0
  3 14  1  0  0  0  0
  3 10  1  0  0  0  0
  4 15  1  0  0  0  0
  4  8  1  0  0  0  0
  5  1  1  0  0  0  0
  7  4  2  0  0  0  0
  9  7  1  0  0  0  0
  9  5  1  0  0  0  0
 10 11  1  0  0  0  0
 11  2  2  0  0  0  0
 11  7  1  0  0  0  0
 12 15  2  0  0  0  0
 13 35  1  1  0  0  0
 13  2  1  0  0  0  0
 14 13  1  0  0  0  0
 16 17  1  6  0  0  0
 18 16  1  0  0  0  0
 19 20  2  0  0  0  0
 19 18  1  0  0  0  0
 21 19  1  1  0  0  0
 22 24  1  0  0  0  0
 22 21  1  0  0  0  0
 23 25  1  0  0  0  0
 23 26  1  0  0  0  0
 24 21  1  0  0  0  0
 25 22  1  0  0  0  0
 26 24  1  0  0  0  0
 27 29  1  0  0  0  0
 27 25  1  0  0  0  0
 28 27  1  0  0  0  0
 29 34  1  0  0  0  0
 31 32  2  0  0  0  0
 32 30  1  0  0  0  0
 33 31  1  0  0  0  0
 33 29  2  0  0  0  0
 34 30  2  0  0  0  0
 36 39  1  0  0  0  0
 37 36  2  0  0  0  0
 38 40  1  0  0  0  0
 40 39  2  0  0  0  0
 40 35  1  0  0  0  0
 41 37  1  0  0  0  0
 41 38  2  0  0  0  0
 42 43  2  0  0  0  0
 43 37  1  0  0  0  0
M  END
>  <MODEL>
6

>  <REMARK>
 VINA RESULT:      -8.1      2.659      5.948
  Name = 
  9 active torsions:
  status: ('A' for Active; 'I' for Inactive)
    1  A    between atoms: C_1  and  C_34
    2  A    between atoms: C_1  and  C_35
    3  A    between atoms: C_2  and  O_6
    4  A    between atoms: C_2  and  C_13
    5  A    between atoms: C_3  and  C_12
    6  A    between atoms: O_6  and  C_12
    7  A    between atoms: C_11  and  N_14
    8  A    between atoms: N_14  and  C_22
    9  A    between atoms: C_19  and  S_37
                            x       y       z     vdW  Elec       q    Type
                         _______ _______ _______ _____ _____    ______ ____

>  <TORSDO>
F 9

$$$$
=
 OpenBabel10272414073D

 43 49  0  0  1  0  0  0  0  0999 V2000
  187.8550  177.1880  147.2010 N   0  0  0  0  0  0  0  0  0  0  0  0
  188.1270  178.0380  142.2480 C   0  0  0  0  0  0  0  0  0  0  0  0
  185.5850  178.1870  141.1610 C   0  0  2  0  0  3  0  0  0  0  0  0
  188.6680  177.7030  144.9530 C   0  0  0  0  0  0  0  0  0  0  0  0
  186.7790  178.1510  146.9820 C   0  0  0  0  0  2  0  0  0  0  0  0
  188.2400  177.3000  148.5960 C   0  0  0  0  0  1  0  0  0  0  0  0
  187.3450  177.9640  144.5430 C   0  0  0  0  0  0  0  0  0  0  0  0
  189.0120  177.6090  146.4120 C   0  0  0  0  0  2  0  0  0  0  0  0
  186.2350  177.9990  145.5630 C   0  0  0  0  0  2  0  0  0  0  0  0
  185.6650  178.3680  142.6840 C   0  0  0  0  0  2  0  0  0  0  0  0
  187.0660  178.1020  143.1730 C   0  0  0  0  0  0  0  0  0  0  0  0
  189.3920  177.7800  142.6800 N   0  0  0  0  0  0  0  0  0  0  0  0
  187.8130  178.1210  140.7700 C   0  0  1  0  0  3  0  0  0  0  0  0
  186.6440  178.8790  140.5480 O   0  0  0  0  0  0  0  0  0  0  0  0
  189.6810  177.6260  143.9980 C   0  0  0  0  0  3  0  0  0  0  0  0
  184.2560  178.6770  140.5980 C   0  0  1  0  0  3  0  0  0  0  0  0
  184.4210  179.1630  139.1670 C   0  0  0  0  0  1  0  0  0  0  0  0
  183.2730  177.6450  140.6640 O   0  0  0  0  0  0  0  0  0  0  0  0
  181.8960  177.8720  140.5300 C   0  0  0  0  0  0  0  0  0  0  0  0
  181.2800  178.8350  141.2130 C   0  0  0  0  0  2  0  0  0  0  0  0
  181.1030  177.0430  139.5720 C   0  0  2  0  0  3  0  0  0  0  0  0
  182.0060  176.5180  138.4710 C   0  0  2  0  0  3  0  0  0  0  0  0
  180.3820  175.8370  136.8660 O   0  0  0  0  0  0  0  0  0  0  0  0
  181.0980  177.6780  138.1930 C   0  0  1  0  0  3  0  0  0  0  0  0
  181.3340  175.3540  137.7760 C   0  0  1  0  0  3  0  0  0  0  0  0
  179.9820  177.0880  137.3600 C   0  0  0  0  0  2  0  0  0  0  0  0
  182.3220  174.5240  137.0890 N   0  0  0  0  0  0  0  0  0  0  0  0
  181.9750  173.1470  136.7490 C   0  0  0  0  0  1  0  0  0  0  0  0
  183.5970  175.0730  136.7040 C   0  0  0  0  0  0  0  0  0  0  0  0
  184.9220  176.5650  135.3080 C   0  0  0  0  0  3  0  0  0  0  0  0
  186.0150  175.1900  136.9710 C   0  0  0  0  0  3  0  0  0  0  0  0
  186.0870  176.1430  135.9530 C   0  0  0  0  0  3  0  0  0  0  0  0
  184.7770  174.6580  137.3430 C   0  0  0  0  0  3  0  0  0  0  0  0
  183.6840  176.0330  135.6810 C   0  0  0  0  0  3  0  0  0  0  0  0
  188.9720  178.7400  139.9960 C   0  0  0  0  0  2  0  0  0  0  0  0
  189.2990  177.8270  136.3340 C   0  0  0  0  0  3  0  0  0  0  0  0
  189.7230  176.4980  136.4180 C   0  0  0  0  0  0  0  0  0  0  0  0
  189.6710  176.6330  138.8360 C   0  0  0  0  0  3  0  0  0  0  0  0
  189.0600  178.5600  137.5010 C   0  0  0  0  0  3  0  0  0  0  0  0
  189.2500  177.9650  138.7530 C   0  0  0  0  0  0  0  0  0  0  0  0
  189.9090  175.9010  137.6690 C   0  0  0  0  0  3  0  0  0  0  0  0
  189.0310  174.4180  135.0460 O   0  0  0  0  0  0  0  0  0  0  0  0
  190.0220  175.5690  134.9410 S   0  0  0  0  0  3  0  0  0  0  0  0
  1  6  1  0  0  0  0
  2 12  2  0  0  0  0
  2 11  1  0  0  0  0
  3 16  1  6  0  0  0
  3 10  1  0  0  0  0
  4  8  1  0  0  0  0
  5  1  1  0  0  0  0
  7  4  1  0  0  0  0
  7  9  1  0  0  0  0
  8  1  1  0  0  0  0
  9  5  1  0  0  0  0
 10 11  1  0  0  0  0
 11  7  2  0  0  0  0
 12 15  1  0  0  0  0
 13 35  1  6  0  0  0
 13  2  1  0  0  0  0
 14 13  1  0  0  0  0
 14  3  1  0  0  0  0
 15  4  2  0  0  0  0
 16 17  1  6  0  0  0
 16 18  1  0  0  0  0
 19 18  1  0  0  0  0
 19 20  2  0  0  0  0
 21 19  1  1  0  0  0
 22 21  1  0  0  0  0
 23 26  1  0  0  0  0
 23 25  1  0  0  0  0
 24 22  1  0  0  0  0
 24 21  1  0  0  0  0
 25 22  1  0  0  0  0
 26 24  1  0  0  0  0
 27 25  1  0  0  0  0
 28 27  1  0  0  0  0
 29 27  1  0  0  0  0
 29 33  1  0  0  0  0
 30 34  1  0  0  0  0
 30 32  2  0  0  0  0
 31 33  2  0  0  0  0
 32 31  1  0  0  0  0
 34 29  2  0  0  0  0
 36 37  2  0  0  0  0
 36 39  1  0  0  0  0
 37 41  1  0  0  0  0
 39 40  2  0  0  0  0
 40 38  1  0  0  0  0
 40 35  1  0  0  0  0
 41 38  2  0  0  0  0
 43 42  2  0  0  0  0
 43 37  1  0  0  0  0
M  END
>  <MODEL>
7

>  <REMARK>
 VINA RESULT:      -8.0      1.618      2.509
  Name = 
  9 active torsions:
  status: ('A' for Active; 'I' for Inactive)
    1  A    between atoms: C_1  and  C_34
    2  A    between atoms: C_1  and  C_35
    3  A    between atoms: C_2  and  O_6
    4  A    between atoms: C_2  and  C_13
    5  A    between atoms: C_3  and  C_12
    6  A    between atoms: O_6  and  C_12
    7  A    between atoms: C_11  and  N_14
    8  A    between atoms: N_14  and  C_22
    9  A    between atoms: C_19  and  S_37
                            x       y       z     vdW  Elec       q    Type
                         _______ _______ _______ _____ _____    ______ ____

>  <TORSDO>
F 9

$$$$
=
 OpenBabel10272414073D

 43 49  0  0  1  0  0  0  0  0999 V2000
  187.9990  178.2010  147.2800 N   0  0  0  0  0  0  0  0  0  0  0  0
  184.9690  178.6210  143.2830 C   0  0  0  0  0  0  0  0  0  0  0  0
  186.4500  178.5390  140.9460 C   0  0  2  0  0  3  0  0  0  0  0  0
  186.0310  178.3220  145.8340 C   0  0  0  0  0  0  0  0  0  0  0  0
  188.5710  177.2380  146.3430 C   0  0  0  0  0  2  0  0  0  0  0  0
  188.4010  177.7800  148.6090 C   0  0  0  0  0  1  0  0  0  0  0  0
  186.8470  178.0640  144.7150 C   0  0  0  0  0  0  0  0  0  0  0  0
  186.5430  178.0820  147.2250 C   0  0  0  0  0  2  0  0  0  0  0  0
  188.2950  177.6900  144.9100 C   0  0  0  0  0  2  0  0  0  0  0  0
  187.1570  177.9960  142.1960 C   0  0  0  0  0  2  0  0  0  0  0  0
  186.3200  178.2460  143.4250 C   0  0  0  0  0  0  0  0  0  0  0  0
  184.2120  178.8660  144.3870 N   0  0  0  0  0  0  0  0  0  0  0  0
  184.4250  178.8800  141.8960 C   0  0  1  0  0  3  0  0  0  0  0  0
  185.1130  178.1080  140.9360 O   0  0  0  0  0  0  0  0  0  0  0  0
  184.7060  178.7140  145.6430 C   0  0  0  0  0  3  0  0  0  0  0  0
  187.1440  178.0970  139.6620 C   0  0  1  0  0  3  0  0  0  0  0  0
  186.3310  178.5020  138.4420 C   0  0  0  0  0  1  0  0  0  0  0  0
  188.4590  178.6440  139.5900 O   0  0  0  0  0  0  0  0  0  0  0  0
  189.5910  177.9010  139.2260 C   0  0  0  0  0  0  0  0  0  0  0  0
  190.5570  177.6310  140.1010 C   0  0  0  0  0  2  0  0  0  0  0  0
  189.7040  177.3660  137.8340 C   0  0  2  0  0  3  0  0  0  0  0  0
  189.4200  175.8760  137.8280 C   0  0  2  0  0  3  0  0  0  0  0  0
  190.2890  175.2770  135.6920 O   0  0  0  0  0  0  0  0  0  0  0  0
  190.8360  176.3590  137.7400 C   0  0  1  0  0  3  0  0  0  0  0  0
  189.0990  175.4270  136.4190 C   0  0  1  0  0  3  0  0  0  0  0  0
  191.2140  176.1460  136.2920 C   0  0  0  0  0  2  0  0  0  0  0  0
  188.3500  174.1710  136.4360 N   0  0  0  0  0  0  0  0  0  0  0  0
  189.0380  172.9330  136.0830 C   0  0  0  0  0  1  0  0  0  0  0  0
  186.9690  174.1500  136.8470 C   0  0  0  0  0  0  0  0  0  0  0  0
  185.0550  172.9560  137.7650 C   0  0  0  0  0  3  0  0  0  0  0  0
  184.8310  175.2800  137.1320 C   0  0  0  0  0  3  0  0  0  0  0  0
  184.2740  174.1080  137.6470 C   0  0  0  0  0  3  0  0  0  0  0  0
  186.1710  175.3000  136.7340 C   0  0  0  0  0  3  0  0  0  0  0  0
  186.3950  172.9770  137.3670 C   0  0  0  0  0  3  0  0  0  0  0  0
  182.9340  178.5660  141.8220 C   0  0  0  0  0  2  0  0  0  0  0  0
  181.6090  176.9810  138.6470 C   0  0  0  0  0  3  0  0  0  0  0  0
  181.7340  178.0370  137.7400 C   0  0  0  0  0  0  0  0  0  0  0  0
  182.6290  179.4430  139.4970 C   0  0  0  0  0  3  0  0  0  0  0  0
  181.9940  177.1560  139.9800 C   0  0  0  0  0  3  0  0  0  0  0  0
  182.5000  178.3880  140.4070 C   0  0  0  0  0  0  0  0  0  0  0  0
  182.2430  179.2680  138.1640 C   0  0  0  0  0  3  0  0  0  0  0  0
  182.0190  176.5720  135.6280 O   0  0  0  0  0  0  0  0  0  0  0  0
  181.2490  177.8150  136.0520 S   0  0  0  0  0  3  0  0  0  0  0  0
  1  6  1  0  0  0  0
  2 11  2  0  0  0  0
  2 12  1  0  0  0  0
  3 16  1  6  0  0  0
  3 10  1  0  0  0  0
  4  8  1  0  0  0  0
  5  1  1  0  0  0  0
  7  9  1  0  0  0  0
  7  4  2  0  0  0  0
  8  1  1  0  0  0  0
  9  5  1  0  0  0  0
 10 11  1  0  0  0  0
 11  7  1  0  0  0  0
 12 15  2  0  0  0  0
 13 35  1  1  0  0  0
 13  2  1  0  0  0  0
 14  3  1  0  0  0  0
 14 13  1  0  0  0  0
 15  4  1  0  0  0  0
 16 17  1  6  0  0  0
 18 16  1  0  0  0  0
 19 18  1  0  0  0  0
 19 20  2  0  0  0  0
 21 19  1  1  0  0  0
 22 21  1  0  0  0  0
 23 26  1  0  0  0  0
 23 25  1  0  0  0  0
 24 22  1  0  0  0  0
 24 21  1  0  0  0  0
 25 27  1  0  0  0  0
 25 22  1  0  0  0  0
 26 24  1  0  0  0  0
 27 29  1  0  0  0  0
 28 27  1  0  0  0  0
 29 34  1  0  0  0  0
 31 32  2  0  0  0  0
 32 30  1  0  0  0  0
 33 29  2  0  0  0  0
 33 31  1  0  0  0  0
 34 30  2  0  0  0  0
 36 39  1  0  0  0  0
 37 41  1  0  0  0  0
 37 36  2  0  0  0  0
 38 40  1  0  0  0  0
 39 40  2  0  0  0  0
 40 35  1  0  0  0  0
 41 38  2  0  0  0  0
 42 43  2  0  0  0  0
 43 37  1  0  0  0  0
M  END
>  <MODEL>
8

>  <REMARK>
 VINA RESULT:      -8.0      2.548      5.737
  Name = 
  9 active torsions:
  status: ('A' for Active; 'I' for Inactive)
    1  A    between atoms: C_1  and  C_34
    2  A    between atoms: C_1  and  C_35
    3  A    between atoms: C_2  and  O_6
    4  A    between atoms: C_2  and  C_13
    5  A    between atoms: C_3  and  C_12
    6  A    between atoms: O_6  and  C_12
    7  A    between atoms: C_11  and  N_14
    8  A    between atoms: N_14  and  C_22
    9  A    between atoms: C_19  and  S_37
                            x       y       z     vdW  Elec       q    Type
                         _______ _______ _______ _____ _____    ______ ____

>  <TORSDO>
F 9

$$$$
=
 OpenBabel10272414073D

 43 49  0  0  1  0  0  0  0  0999 V2000
  188.8650  176.9120  146.4100 N   0  0  0  0  0  0  0  0  0  0  0  0
  190.4950  177.0490  141.6500 C   0  0  0  0  0  0  0  0  0  0  0  0
  188.3950  177.6090  139.9350 C   0  0  2  0  0  3  0  0  0  0  0  0
  190.2850  176.9490  144.4200 C   0  0  0  0  0  0  0  0  0  0  0  0
  188.1380  178.0510  145.8560 C   0  0  0  0  0  2  0  0  0  0  0  0
  188.9250  177.1140  147.8460 C   0  0  0  0  0  1  0  0  0  0  0  0
  189.2000  177.4380  143.6650 C   0  0  0  0  0  0  0  0  0  0  0  0
  190.2420  176.9680  145.9210 C   0  0  0  0  0  2  0  0  0  0  0  0
  187.9230  177.8430  144.3570 C   0  0  0  0  0  2  0  0  0  0  0  0
  188.1560  177.9600  141.4110 C   0  0  0  0  0  2  0  0  0  0  0  0
  189.2940  177.4580  142.2630 C   0  0  0  0  0  0  0  0  0  0  0  0
  191.5210  176.5780  142.4110 N   0  0  0  0  0  0  0  0  0  0  0  0
  190.5680  177.0100  140.1400 C   0  0  1  0  0  3  0  0  0  0  0  0
  189.7050  177.9700  139.5720 O   0  0  0  0  0  0  0  0  0  0  0  0
  191.4450  176.5330  143.7670 C   0  0  0  0  0  3  0  0  0  0  0  0
  187.3960  178.3010  139.0150 C   0  0  1  0  0  3  0  0  0  0  0  0
  188.0770  178.7850  137.7440 C   0  0  0  0  0  1  0  0  0  0  0  0
  186.3160  177.4250  138.7000 O   0  0  0  0  0  0  0  0  0  0  0  0
  185.2880  177.7500  137.8030 C   0  0  0  0  0  0  0  0  0  0  0  0
  185.2060  177.1790  136.6030 C   0  0  0  0  0  2  0  0  0  0  0  0
  184.2360  178.7300  138.2110 C   0  0  2  0  0  3  0  0  0  0  0  0
  183.2980  178.0930  139.2190 C   0  0  2  0  0  3  0  0  0  0  0  0
  181.4760  179.6260  139.1470 O   0  0  0  0  0  0  0  0  0  0  0  0
  182.8610  178.2430  137.7940 C   0  0  1  0  0  3  0  0  0  0  0  0
  182.5310  179.1720  139.9520 C   0  0  1  0  0  3  0  0  0  0  0  0
  181.8790  179.3920  137.8230 C   0  0  0  0  0  2  0  0  0  0  0  0
  182.0200  178.6670  141.2250 N   0  0  0  0  0  0  0  0  0  0  0  0
  180.7060  178.0330  141.2580 C   0  0  0  0  0  1  0  0  0  0  0  0
  182.8250  178.7460  142.4180 C   0  0  0  0  0  0  0  0  0  0  0  0
  185.0070  178.8550  143.4930 C   0  0  0  0  0  3  0  0  0  0  0  0
  183.0010  178.8640  144.8440 C   0  0  0  0  0  3  0  0  0  0  0  0
  184.3940  178.8980  144.7470 C   0  0  0  0  0  3  0  0  0  0  0  0
  182.2220  178.7890  143.6860 C   0  0  0  0  0  3  0  0  0  0  0  0
  184.2280  178.7800  142.3350 C   0  0  0  0  0  3  0  0  0  0  0  0
  191.9910  177.2590  139.6520 C   0  0  0  0  0  2  0  0  0  0  0  0
  191.6940  174.5990  136.9700 C   0  0  0  0  0  3  0  0  0  0  0  0
  192.9150  174.7410  136.3060 C   0  0  0  0  0  0  0  0  0  0  0  0
  193.5300  176.5340  137.8130 C   0  0  0  0  0  3  0  0  0  0  0  0
  191.3900  175.4250  138.0570 C   0  0  0  0  0  3  0  0  0  0  0  0
  192.3060  176.3960  138.4770 C   0  0  0  0  0  0  0  0  0  0  0  0
  193.8330  175.7080  136.7260 C   0  0  0  0  0  3  0  0  0  0  0  0
  194.8240  173.6920  134.9100 O   0  0  0  0  0  0  0  0  0  0  0  0
  193.3010  173.6940  134.9310 S   0  0  0  0  0  3  0  0  0  0  0  0
  1  6  1  0  0  0  0
  2 11  2  0  0  0  0
  2 12  1  0  0  0  0
  3 16  1  6  0  0  0
  3 10  1  0  0  0  0
  4  8  1  0  0  0  0
  5  1  1  0  0  0  0
  7  9  1  0  0  0  0
  7  4  2  0  0  0  0
  8  1  1  0  0  0  0
  9  5  1  0  0  0  0
 10 11  1  0  0  0  0
 11  7  1  0  0  0  0
 12 15  2  0  0  0  0
 13 35  1  1  0  0  0
 13  2  1  0  0  0  0
 14  3  1  0  0  0  0
 14 13  1  0  0  0  0
 15  4  1  0  0  0  0
 16 17  1  6  0  0  0
 18 16  1  0  0  0  0
 19 18  1  0  0  0  0
 20 19  2  0  0  0  0
 21 19  1  6  0  0  0
 21 22  1  0  0  0  0
 22 25  1  0  0  0  0
 23 25  1  0  0  0  0
 24 26  1  0  0  0  0
 24 21  1  0  0  0  0
 24 22  1  0  0  0  0
 25 27  1  0  0  0  0
 26 23  1  0  0  0  0
 27 28  1  0  0  0  0
 27 29  1  0  0  0  0
 29 33  1  0  0  0  0
 30 32  2  0  0  0  0
 32 31  1  0  0  0  0
 33 31  2  0  0  0  0
 34 29  2  0  0  0  0
 34 30  1  0  0  0  0
 36 39  1  0  0  0  0
 37 41  1  0  0  0  0
 37 36  2  0  0  0  0
 38 40  1  0  0  0  0
 39 40  2  0  0  0  0
 40 35  1  0  0  0  0
 41 38  2  0  0  0  0
 42 43  2  0  0  0  0
 43 37  1  0  0  0  0
M  END
>  <MODEL>
9

>  <REMARK>
 VINA RESULT:      -7.9      2.732      4.889
  Name = 
  9 active torsions:
  status: ('A' for Active; 'I' for Inactive)
    1  A    between atoms: C_1  and  C_34
    2  A    between atoms: C_1  and  C_35
    3  A    between atoms: C_2  and  O_6
    4  A    between atoms: C_2  and  C_13
    5  A    between atoms: C_3  and  C_12
    6  A    between atoms: O_6  and  C_12
    7  A    between atoms: C_11  and  N_14
    8  A    between atoms: N_14  and  C_22
    9  A    between atoms: C_19  and  S_37
                            x       y       z     vdW  Elec       q    Type
                         _______ _______ _______ _____ _____    ______ ____

>  <TORSDO>
F 9

$$$$
