=
 OpenBabel10272414513D

 37 39  0  0  1  0  0  0  0  0999 V2000
  184.4720  176.0000  137.4950 C   0  0  1  0  0  3  0  0  0  0  0  0
  186.5570  175.4420  134.9880 C   0  0  0  0  0  2  0  0  0  0  0  0
  189.0110  176.5650  138.5280 C   0  0  0  0  0  3  0  0  0  0  0  0
  182.0090  177.3340  136.8900 O   0  0  0  0  0  0  0  0  0  0  0  0
  184.3760  178.9510  141.5920 C   0  0  0  0  0  2  0  0  0  0  0  0
  188.7880  177.6980  135.6730 C   0  0  0  0  0  3  0  0  0  0  0  0
  182.6440  177.8340  140.1220 C   0  0  0  0  0  2  0  0  0  0  0  0
  182.8540  180.0030  139.2090 O   0  0  0  0  0  1  0  0  0  0  0  0
  181.4410  175.1340  136.6470 O   0  0  0  0  0  1  0  0  0  0  0  0
  189.0280  175.8910  137.3770 C   0  0  0  0  0  3  0  0  0  0  0  0
  186.6780  178.1840  141.6380 C   0  0  0  0  0  0  0  0  0  0  0  0
  189.3220  178.8090  136.4850 C   0  0  0  0  0  3  0  0  0  0  0  0
  181.8260  178.4130  137.7880 C   0  0  2  0  0  3  0  0  0  0  0  0
  184.6080  175.2260  136.3380 O   0  0  0  0  0  0  0  0  0  0  0  0
  188.6890  174.0780  135.0810 C   0  0  0  0  0  1  0  0  0  0  0  0
  188.5510  178.4170  140.1120 C   0  0  0  0  0  2  0  0  0  0  0  0
  181.8650  176.1010  137.5570 C   0  0  1  0  0  3  0  0  0  0  0  0
  189.2230  178.9170  137.8100 C   0  0  0  0  0  3  0  0  0  0  0  0
  185.9640  174.8950  136.2790 C   0  0  0  0  0  2  0  0  0  0  0  0
  182.9410  178.6580  138.8500 C   0  0  2  0  0  0  0  0  0  0  0  0
  183.8260  177.6300  141.0700 C   0  0  0  0  0  2  0  0  0  0  0  0
  188.4680  177.9530  138.6640 C   0  0  1  0  0  3  0  0  0  0  0  0
  184.6080  177.4900  137.1510 C   0  0  0  0  0  2  0  0  0  0  0  0
  188.6180  176.4210  136.0520 C   0  0  0  0  0  0  0  0  0  0  0  0
  185.6810  178.7390  142.2860 C   0  0  0  0  0  0  0  0  0  0  0  0
  188.0840  175.4750  135.0110 C   0  0  2  0  0  3  0  0  0  0  0  0
  184.3910  178.4330  138.3360 C   0  0  0  0  0  2  0  0  0  0  0  0
  180.5350  178.4280  138.3320 O   0  0  0  0  0  1  0  0  0  0  0  0
  183.1730  175.6350  138.2220 C   0  0  0  0  0  2  0  0  0  0  0  0
  187.6500  177.6110  140.9880 C   0  0  0  0  0  3  0  0  0  0  0  0
  185.8100  179.1590  143.6170 O   0  0  0  0  0  0  0  0  0  0  0  0
  185.2930  178.4320  144.7310 C   0  0  1  0  0  3  0  0  0  0  0  0
  185.4860  179.5670  146.8320 O   0  0  0  0  0  1  0  0  0  0  0  0
  187.2670  178.2490  146.2420 O   0  0  0  0  0  0  0  0  0  0  0  0
  186.0170  178.7970  145.9880 C   0  0  0  0  0  0  0  0  0  0  0  0
  182.6870  178.9600  145.0040 C   0  0  0  0  0  3  0  0  0  0  0  0
  183.8630  178.7220  144.8820 C   0  0  0  0  0  0  0  0  0  0  0  0
  1 23  1  6  0  0  0
  1 29  1  0  0  0  0
  2 26  1  0  0  0  0
  2 19  1  0  0  0  0
  3 22  1  0  0  0  0
  4 17  1  0  0  0  0
  4 13  1  0  0  0  0
  5 25  1  0  0  0  0
  6 24  2  0  0  0  0
  6 12  1  0  0  0  0
  7 21  1  0  0  0  0
 10  3  2  0  0  0  0
 11 25  2  0  0  0  0
 12 18  2  0  0  0  0
 13 28  1  1  0  0  0
 13 20  1  0  0  0  0
 14  1  1  0  0  0  0
 16 30  1  0  0  0  0
 17  9  1  6  0  0  0
 17 29  1  0  0  0  0
 19 14  1  0  0  0  0
 20  8  1  1  0  0  0
 20  7  1  0  0  0  0
 21  5  1  0  0  0  0
 22 18  1  6  0  0  0
 22 16  1  0  0  0  0
 23 27  1  0  0  0  0
 24 10  1  0  0  0  0
 25 31  1  0  0  0  0
 26 15  1  1  0  0  0
 26 24  1  0  0  0  0
 27 20  1  0  0  0  0
 30 11  2  0  0  0  0
 31 32  1  0  0  0  0
 32 37  1  1  0  0  0
 32 35  1  0  0  0  0
 35 34  2  0  0  0  0
 35 33  1  0  0  0  0
 37 36  3  0  0  0  0
M  END
>  <MODEL>
1

>  <REMARK>
 VINA RESULT:      -7.1      0.000      0.000
  Name = 
  4 active torsions:
  status: ('A' for Active; 'I' for Inactive)
    1  A    between atoms: O_6  and  C_8
    2  A    between atoms: O_6  and  C_31
    3  A    between atoms: C_8  and  C_19
    4  A    between atoms: C_8  and  C_35
                            x       y       z     vdW  Elec       q    Type
                         _______ _______ _______ _____ _____    ______ ____

>  <TORSDO>
F 4

$$$$
=
 OpenBabel10272414513D

 37 39  0  0  1  0  0  0  0  0999 V2000
  184.3150  176.0010  137.8190 C   0  0  1  0  0  3  0  0  0  0  0  0
  185.1290  174.7900  134.8510 C   0  0  0  0  0  2  0  0  0  0  0  0
  188.9020  175.2910  137.1580 C   0  0  0  0  0  3  0  0  0  0  0  0
  182.2230  177.9570  137.9170 O   0  0  0  0  0  0  0  0  0  0  0  0
  186.4660  178.9970  141.2690 C   0  0  0  0  0  2  0  0  0  0  0  0
  187.9470  176.3430  134.4250 C   0  0  0  0  0  3  0  0  0  0  0  0
  184.0960  178.3670  140.6420 C   0  0  0  0  0  2  0  0  0  0  0  0
  184.4990  180.3550  139.4300 O   0  0  0  0  0  1  0  0  0  0  0  0
  181.0700  176.0020  138.1790 O   0  0  0  0  0  1  0  0  0  0  0  0
  188.3280  174.6020  136.1720 C   0  0  0  0  0  3  0  0  0  0  0  0
  188.3530  177.6100  140.6310 C   0  0  0  0  0  0  0  0  0  0  0  0
  189.0020  177.2840  134.8510 C   0  0  0  0  0  3  0  0  0  0  0  0
  182.6590  179.0740  138.6710 C   0  0  2  0  0  3  0  0  0  0  0  0
  183.8190  175.1820  136.8000 O   0  0  0  0  0  0  0  0  0  0  0  0
  186.7300  172.8820  134.3940 C   0  0  0  0  0  1  0  0  0  0  0  0
  189.5350  177.2500  138.5410 C   0  0  0  0  0  2  0  0  0  0  0  0
  182.0260  176.8400  138.7520 C   0  0  1  0  0  3  0  0  0  0  0  0
  189.4240  177.4610  136.1020 C   0  0  0  0  0  3  0  0  0  0  0  0
  184.9300  174.4780  136.3270 C   0  0  0  0  0  2  0  0  0  0  0  0
  184.1060  179.0290  139.2460 C   0  0  2  0  0  0  0  0  0  0  0  0
  185.4500  177.8680  141.1480 C   0  0  0  0  0  2  0  0  0  0  0  0
  188.8160  176.7810  137.2840 C   0  0  1  0  0  3  0  0  0  0  0  0
  184.6870  177.3790  137.2540 C   0  0  0  0  0  2  0  0  0  0  0  0
  187.6110  175.1800  135.0070 C   0  0  0  0  0  0  0  0  0  0  0  0
  187.8360  178.4480  141.4990 C   0  0  0  0  0  0  0  0  0  0  0  0
  186.5140  174.3900  134.3480 C   0  0  2  0  0  3  0  0  0  0  0  0
  185.1620  178.3850  138.3040 C   0  0  0  0  0  2  0  0  0  0  0  0
  181.7040  179.4730  139.6150 O   0  0  0  0  0  1  0  0  0  0  0  0
  183.3230  176.0450  138.9880 C   0  0  0  0  0  2  0  0  0  0  0  0
  188.8440  176.7640  139.7710 C   0  0  0  0  0  3  0  0  0  0  0  0
  188.5430  178.8580  142.6380 O   0  0  0  0  0  0  0  0  0  0  0  0
  189.1120  177.9560  143.5860 C   0  0  1  0  0  3  0  0  0  0  0  0
  190.7770  179.6610  143.8320 O   0  0  0  0  0  0  0  0  0  0  0  0
  191.1320  177.7390  145.0300 O   0  0  0  0  0  1  0  0  0  0  0  0
  190.3900  178.5020  144.1390 C   0  0  0  0  0  0  0  0  0  0  0  0
  187.3720  177.5400  145.5710 C   0  0  0  0  0  3  0  0  0  0  0  0
  188.1580  177.7280  144.6750 C   0  0  0  0  0  0  0  0  0  0  0  0
  1 23  1  6  0  0  0
  1 29  1  0  0  0  0
  2 19  1  0  0  0  0
  3 22  1  0  0  0  0
  4 13  1  0  0  0  0
  4 17  1  0  0  0  0
  5 25  1  0  0  0  0
  6 12  1  0  0  0  0
  6 24  2  0  0  0  0
  7 21  1  0  0  0  0
 10  3  2  0  0  0  0
 11 25  2  0  0  0  0
 12 18  2  0  0  0  0
 13 20  1  0  0  0  0
 13 28  1  1  0  0  0
 14  1  1  0  0  0  0
 16 30  1  0  0  0  0
 17  9  1  6  0  0  0
 17 29  1  0  0  0  0
 19 14  1  0  0  0  0
 20  8  1  1  0  0  0
 20  7  1  0  0  0  0
 21  5  1  0  0  0  0
 22 18  1  6  0  0  0
 22 16  1  0  0  0  0
 23 27  1  0  0  0  0
 24 10  1  0  0  0  0
 25 31  1  0  0  0  0
 26 15  1  1  0  0  0
 26  2  1  0  0  0  0
 26 24  1  0  0  0  0
 27 20  1  0  0  0  0
 30 11  2  0  0  0  0
 31 32  1  0  0  0  0
 32 35  1  0  0  0  0
 32 37  1  1  0  0  0
 33 35  2  0  0  0  0
 35 34  1  0  0  0  0
 37 36  3  0  0  0  0
M  END
>  <MODEL>
2

>  <REMARK>
 VINA RESULT:      -6.6      1.917      2.515
  Name = 
  4 active torsions:
  status: ('A' for Active; 'I' for Inactive)
    1  A    between atoms: O_6  and  C_8
    2  A    between atoms: O_6  and  C_31
    3  A    between atoms: C_8  and  C_19
    4  A    between atoms: C_8  and  C_35
                            x       y       z     vdW  Elec       q    Type
                         _______ _______ _______ _____ _____    ______ ____

>  <TORSDO>
F 4

$$$$
=
 OpenBabel10272414513D

 37 39  0  0  1  0  0  0  0  0999 V2000
  188.8030  174.5780  136.1370 C   0  0  1  0  0  3  0  0  0  0  0  0
  191.2240  173.2100  134.3460 C   0  0  0  0  0  2  0  0  0  0  0  0
  193.0560  174.7330  138.1050 C   0  0  0  0  0  3  0  0  0  0  0  0
  186.8020  176.0690  134.7280 O   0  0  0  0  0  0  0  0  0  0  0  0
  188.4000  178.3360  139.4860 C   0  0  0  0  0  2  0  0  0  0  0  0
  193.6380  175.2370  135.1230 C   0  0  0  0  0  3  0  0  0  0  0  0
  186.8350  177.1710  137.8730 C   0  0  0  0  0  2  0  0  0  0  0  0
  187.6200  179.0400  136.6580 O   0  0  0  0  0  1  0  0  0  0  0  0
  185.9070  173.9670  134.7600 O   0  0  0  0  0  1  0  0  0  0  0  0
  193.1880  173.8300  137.1340 C   0  0  0  0  0  3  0  0  0  0  0  0
  190.4640  177.2920  140.2200 C   0  0  0  0  0  0  0  0  0  0  0  0
  194.1850  176.4150  135.8240 C   0  0  0  0  0  3  0  0  0  0  0  0
  186.6370  177.3330  135.3460 C   0  0  2  0  0  3  0  0  0  0  0  0
  189.0320  173.5590  135.2060 O   0  0  0  0  0  0  0  0  0  0  0  0
  193.0070  171.6230  135.1930 C   0  0  0  0  0  1  0  0  0  0  0  0
  192.6230  176.9310  139.1710 C   0  0  0  0  0  2  0  0  0  0  0  0
  186.3030  175.0430  135.5540 C   0  0  1  0  0  3  0  0  0  0  0  0
  193.8360  176.8220  137.0440 C   0  0  0  0  0  3  0  0  0  0  0  0
  190.2880  173.0430  135.5340 C   0  0  0  0  0  2  0  0  0  0  0  0
  187.5330  177.6500  136.5800 C   0  0  2  0  0  0  0  0  0  0  0  0
  187.7400  177.0200  139.0970 C   0  0  0  0  0  2  0  0  0  0  0  0
  192.7580  176.1790  137.8540 C   0  0  1  0  0  3  0  0  0  0  0  0
  189.2750  175.9250  135.5710 C   0  0  0  0  0  2  0  0  0  0  0  0
  193.1640  174.1080  135.6760 C   0  0  0  0  0  0  0  0  0  0  0  0
  189.4730  178.1060  140.4990 C   0  0  0  0  0  0  0  0  0  0  0  0
  192.6940  173.0400  134.7270 C   0  0  2  0  0  3  0  0  0  0  0  0
  188.9920  177.1240  136.4780 C   0  0  0  0  0  2  0  0  0  0  0  0
  185.2860  177.6410  135.5530 O   0  0  0  0  0  1  0  0  0  0  0  0
  187.3370  174.5600  136.5860 C   0  0  0  0  0  2  0  0  0  0  0  0
  191.4300  176.4660  139.9370 C   0  0  0  0  0  3  0  0  0  0  0  0
  189.3980  178.7840  141.7240 O   0  0  0  0  0  0  0  0  0  0  0  0
  189.2240  178.1320  142.9810 C   0  0  1  0  0  3  0  0  0  0  0  0
  188.4550  175.8630  142.9630 O   0  0  0  0  0  1  0  0  0  0  0  0
  186.8290  177.4690  142.7790 O   0  0  0  0  0  0  0  0  0  0  0  0
  188.1580  177.0860  142.8950 C   0  0  0  0  0  0  0  0  0  0  0  0
  191.5320  177.0140  143.7320 C   0  0  0  0  0  3  0  0  0  0  0  0
  190.4890  177.5180  143.3930 C   0  0  0  0  0  0  0  0  0  0  0  0
  1 23  1  6  0  0  0
  1 29  1  0  0  0  0
  2 26  1  0  0  0  0
  2 19  1  0  0  0  0
  4 13  1  0  0  0  0
  4 17  1  0  0  0  0
  5 25  1  0  0  0  0
  6 24  2  0  0  0  0
  6 12  1  0  0  0  0
  7 21  1  0  0  0  0
 10  3  2  0  0  0  0
 11 25  2  0  0  0  0
 12 18  2  0  0  0  0
 13 28  1  1  0  0  0
 13 20  1  0  0  0  0
 14 19  1  0  0  0  0
 14  1  1  0  0  0  0
 16 30  1  0  0  0  0
 17  9  1  6  0  0  0
 17 29  1  0  0  0  0
 20  8  1  1  0  0  0
 20  7  1  0  0  0  0
 21  5  1  0  0  0  0
 22 18  1  6  0  0  0
 22  3  1  0  0  0  0
 22 16  1  0  0  0  0
 23 27  1  0  0  0  0
 24 10  1  0  0  0  0
 25 31  1  0  0  0  0
 26 15  1  1  0  0  0
 26 24  1  0  0  0  0
 27 20  1  0  0  0  0
 30 11  2  0  0  0  0
 31 32  1  0  0  0  0
 32 37  1  6  0  0  0
 34 35  2  0  0  0  0
 35 33  1  0  0  0  0
 35 32  1  0  0  0  0
 37 36  3  0  0  0  0
M  END
>  <MODEL>
3

>  <REMARK>
 VINA RESULT:      -5.6      3.427      5.106
  Name = 
  4 active torsions:
  status: ('A' for Active; 'I' for Inactive)
    1  A    between atoms: O_6  and  C_8
    2  A    between atoms: O_6  and  C_31
    3  A    between atoms: C_8  and  C_19
    4  A    between atoms: C_8  and  C_35
                            x       y       z     vdW  Elec       q    Type
                         _______ _______ _______ _____ _____    ______ ____

>  <TORSDO>
F 4

$$$$
=
 OpenBabel10272414513D

 37 39  0  0  1  0  0  0  0  0999 V2000
  184.1150  177.2990  139.6120 C   0  0  1  0  0  3  0  0  0  0  0  0
  184.7700  177.5760  136.3820 C   0  0  0  0  0  2  0  0  0  0  0  0
  188.5830  176.5180  138.4210 C   0  0  0  0  0  3  0  0  0  0  0  0
  182.2730  179.1760  140.7500 O   0  0  0  0  0  0  0  0  0  0  0  0
  186.6200  178.0410  143.9340 C   0  0  0  0  0  2  0  0  0  0  0  0
  187.7530  178.8400  136.5760 C   0  0  0  0  0  3  0  0  0  0  0  0
  184.1900  178.0380  143.2260 C   0  0  0  0  0  2  0  0  0  0  0  0
  184.8240  180.3090  143.0800 O   0  0  0  0  0  1  0  0  0  0  0  0
  180.8950  177.4650  140.1220 O   0  0  0  0  0  1  0  0  0  0  0  0
  187.9280  176.4480  137.2620 C   0  0  0  0  0  3  0  0  0  0  0  0
  188.3250  176.9400  142.6040 C   0  0  0  0  0  0  0  0  0  0  0  0
  188.9150  179.3490  137.3320 C   0  0  0  0  0  3  0  0  0  0  0  0
  182.8420  179.7450  141.9150 C   0  0  2  0  0  3  0  0  0  0  0  0
  183.5220  177.1220  138.3580 O   0  0  0  0  0  0  0  0  0  0  0  0
  186.1300  175.9620  134.9810 C   0  0  0  0  0  1  0  0  0  0  0  0
  189.4500  177.5020  140.5270 C   0  0  0  0  0  2  0  0  0  0  0  0
  181.9460  177.8230  140.9650 C   0  0  1  0  0  3  0  0  0  0  0  0
  189.3580  178.8620  138.4910 C   0  0  0  0  0  3  0  0  0  0  0  0
  184.5390  176.6190  137.5430 C   0  0  0  0  0  2  0  0  0  0  0  0
  184.2750  179.2810  142.3130 C   0  0  2  0  0  0  0  0  0  0  0  0
  185.4760  177.2200  143.3540 C   0  0  0  0  0  2  0  0  0  0  0  0
  188.6760  177.7670  139.2430 C   0  0  1  0  0  3  0  0  0  0  0  0
  184.6480  178.7330  139.7460 C   0  0  0  0  0  2  0  0  0  0  0  0
  187.2820  177.5830  136.5560 C   0  0  0  0  0  0  0  0  0  0  0  0
  187.9150  177.3100  143.7940 C   0  0  0  0  0  0  0  0  0  0  0  0
  186.0970  177.3230  135.6680 C   0  0  2  0  0  3  0  0  0  0  0  0
  185.2430  179.0590  141.1170 C   0  0  0  0  0  2  0  0  0  0  0  0
  181.9440  179.7420  142.9910 O   0  0  0  0  0  1  0  0  0  0  0  0
  183.1390  176.8820  140.7190 C   0  0  0  0  0  2  0  0  0  0  0  0
  188.7080  176.5620  141.4180 C   0  0  0  0  0  3  0  0  0  0  0  0
  188.6690  177.0510  144.9470 O   0  0  0  0  0  0  0  0  0  0  0  0
  189.4490  178.0370  145.6220 C   0  0  1  0  0  3  0  0  0  0  0  0
  190.8770  176.6890  146.9950 O   0  0  0  0  0  0  0  0  0  0  0  0
  189.3640  177.9990  148.1130 O   0  0  0  0  0  1  0  0  0  0  0  0
  189.9330  177.5220  146.9400 C   0  0  0  0  0  0  0  0  0  0  0  0
  191.5360  178.7180  144.0960 C   0  0  0  0  0  3  0  0  0  0  0  0
  190.5940  178.4100  144.7850 C   0  0  0  0  0  0  0  0  0  0  0  0
  1 23  1  1  0  0  0
  1 29  1  0  0  0  0
  2 19  1  0  0  0  0
  4 17  1  0  0  0  0
  4 13  1  0  0  0  0
  6 12  1  0  0  0  0
  7 21  1  0  0  0  0
 10  3  2  0  0  0  0
 11 25  2  0  0  0  0
 12 18  2  0  0  0  0
 13 20  1  0  0  0  0
 13 28  1  1  0  0  0
 14  1  1  0  0  0  0
 16 30  1  0  0  0  0
 17  9  1  6  0  0  0
 18 22  1  0  0  0  0
 19 14  1  0  0  0  0
 20  8  1  1  0  0  0
 20  7  1  0  0  0  0
 21  5  1  0  0  0  0
 22  3  1  6  0  0  0
 22 16  1  0  0  0  0
 23 27  1  0  0  0  0
 24  6  2  0  0  0  0
 24 10  1  0  0  0  0
 25  5  1  0  0  0  0
 25 31  1  0  0  0  0
 26 15  1  1  0  0  0
 26  2  1  0  0  0  0
 26 24  1  0  0  0  0
 27 20  1  0  0  0  0
 29 17  1  0  0  0  0
 30 11  2  0  0  0  0
 31 32  1  0  0  0  0
 32 37  1  6  0  0  0
 32 35  1  0  0  0  0
 35 33  2  0  0  0  0
 35 34  1  0  0  0  0
 36 37  3  0  0  0  0
M  END
>  <MODEL>
4

>  <REMARK>
 VINA RESULT:      -5.5      2.246      3.618
  Name = 
  4 active torsions:
  status: ('A' for Active; 'I' for Inactive)
    1  A    between atoms: O_6  and  C_8
    2  A    between atoms: O_6  and  C_31
    3  A    between atoms: C_8  and  C_19
    4  A    between atoms: C_8  and  C_35
                            x       y       z     vdW  Elec       q    Type
                         _______ _______ _______ _____ _____    ______ ____

>  <TORSDO>
F 4

$$$$
=
 OpenBabel10272414513D

 37 39  0  0  1  0  0  0  0  0999 V2000
  190.8300  177.7550  141.3970 C   0  0  1  0  0  3  0  0  0  0  0  0
  192.9530  176.1720  139.4160 C   0  0  0  0  0  2  0  0  0  0  0  0
  189.3750  177.1980  136.9740 C   0  0  0  0  0  3  0  0  0  0  0  0
  190.5900  176.8150  144.0940 O   0  0  0  0  0  0  0  0  0  0  0  0
  185.8160  178.2430  141.7500 C   0  0  0  0  0  2  0  0  0  0  0  0
  190.8220  174.5480  137.5830 C   0  0  0  0  0  3  0  0  0  0  0  0
  187.7700  178.4260  143.3470 C   0  0  0  0  0  2  0  0  0  0  0  0
  187.0430  176.1910  143.5890 O   0  0  0  0  0  1  0  0  0  0  0  0
  192.2370  178.3870  144.2740 O   0  0  0  0  0  1  0  0  0  0  0  0
  190.6830  176.9480  136.9130 C   0  0  0  0  0  3  0  0  0  0  0  0
  186.1230  178.4310  139.3500 C   0  0  0  0  0  0  0  0  0  0  0  0
  189.4490  174.1570  137.2040 C   0  0  0  0  0  3  0  0  0  0  0  0
  189.2210  176.6300  144.4060 C   0  0  2  0  0  3  0  0  0  0  0  0
  192.2000  177.5550  141.2020 O   0  0  0  0  0  0  0  0  0  0  0  0
  193.6230  176.8630  137.0730 C   0  0  0  0  0  1  0  0  0  0  0  0
  187.0040  176.9360  137.6520 C   0  0  0  0  0  2  0  0  0  0  0  0
  190.8920  178.1850  143.9700 C   0  0  1  0  0  3  0  0  0  0  0  0
  188.3810  174.9530  137.2340 C   0  0  0  0  0  3  0  0  0  0  0  0
  192.3680  177.5190  139.8150 C   0  0  0  0  0  2  0  0  0  0  0  0
  188.1820  176.9390  143.2860 C   0  0  2  0  0  0  0  0  0  0  0  0
  187.1050  178.9810  142.0870 C   0  0  0  0  0  2  0  0  0  0  0  0
  188.4080  176.3550  137.7470 C   0  0  1  0  0  3  0  0  0  0  0  0
  190.1150  176.4050  141.5530 C   0  0  0  0  0  2  0  0  0  0  0  0
  191.3730  175.7690  137.4970 C   0  0  0  0  0  0  0  0  0  0  0  0
  185.3380  178.6170  140.3850 C   0  0  0  0  0  0  0  0  0  0  0  0
  192.8110  175.8900  137.9210 C   0  0  2  0  0  3  0  0  0  0  0  0
  188.6200  176.5140  141.8570 C   0  0  0  0  0  2  0  0  0  0  0  0
  188.8850  177.2020  145.6410 O   0  0  0  0  0  1  0  0  0  0  0  0
  190.6010  178.7290  142.5600 C   0  0  0  0  0  2  0  0  0  0  0  0
  186.9220  178.2600  138.3350 C   0  0  0  0  0  3  0  0  0  0  0  0
  184.0480  179.1470  140.2450 O   0  0  0  0  0  0  0  0  0  0  0  0
  182.8640  178.4710  140.6680 C   0  0  1  0  0  3  0  0  0  0  0  0
  181.4180  179.6820  139.1910 O   0  0  0  0  0  0  0  0  0  0  0  0
  180.7460  179.5780  141.3810 O   0  0  0  0  0  1  0  0  0  0  0  0
  181.6480  179.2880  140.3660 C   0  0  0  0  0  0  0  0  0  0  0  0
  182.6950  176.1080  139.4310 C   0  0  0  0  0  3  0  0  0  0  0  0
  182.7720  177.1750  139.9890 C   0  0  0  0  0  0  0  0  0  0  0  0
  1 23  1  1  0  0  0
  1 29  1  0  0  0  0
  2 19  1  0  0  0  0
  4 13  1  0  0  0  0
  5 21  1  0  0  0  0
 10  3  2  0  0  0  0
 10 24  1  0  0  0  0
 11 25  2  0  0  0  0
 12 18  2  0  0  0  0
 12  6  1  0  0  0  0
 13 28  1  1  0  0  0
 14  1  1  0  0  0  0
 16 22  1  0  0  0  0
 16 30  1  0  0  0  0
 17  4  1  0  0  0  0
 17  9  1  6  0  0  0
 18 22  1  0  0  0  0
 19 14  1  0  0  0  0
 20  7  1  0  0  0  0
 20  8  1  1  0  0  0
 20 13  1  0  0  0  0
 21  7  1  0  0  0  0
 22  3  1  6  0  0  0
 23 27  1  0  0  0  0
 24  6  2  0  0  0  0
 24 26  1  0  0  0  0
 25  5  1  0  0  0  0
 26 15  1  6  0  0  0
 26  2  1  0  0  0  0
 27 20  1  0  0  0  0
 29 17  1  0  0  0  0
 30 11  2  0  0  0  0
 31 25  1  0  0  0  0
 31 32  1  0  0  0  0
 32 37  1  6  0  0  0
 33 35  2  0  0  0  0
 35 32  1  0  0  0  0
 35 34  1  0  0  0  0
 36 37  3  0  0  0  0
M  END
>  <MODEL>
5

>  <REMARK>
 VINA RESULT:      -5.4      2.886      6.826
  Name = 
  4 active torsions:
  status: ('A' for Active; 'I' for Inactive)
    1  A    between atoms: O_6  and  C_8
    2  A    between atoms: O_6  and  C_31
    3  A    between atoms: C_8  and  C_19
    4  A    between atoms: C_8  and  C_35
                            x       y       z     vdW  Elec       q    Type
                         _______ _______ _______ _____ _____    ______ ____

>  <TORSDO>
F 4

$$$$
=
 OpenBabel10272414513D

 37 39  0  0  1  0  0  0  0  0999 V2000
  184.4750  175.6750  137.9020 C   0  0  1  0  0  3  0  0  0  0  0  0
  185.2860  174.3960  134.9610 C   0  0  0  0  0  2  0  0  0  0  0  0
  189.0810  175.2910  137.1070 C   0  0  0  0  0  3  0  0  0  0  0  0
  182.2400  177.4660  137.9900 O   0  0  0  0  0  0  0  0  0  0  0  0
  186.4960  178.9810  141.1400 C   0  0  0  0  0  2  0  0  0  0  0  0
  187.9580  176.1400  134.3680 C   0  0  0  0  0  3  0  0  0  0  0  0
  184.1630  178.1440  140.6260 C   0  0  0  0  0  2  0  0  0  0  0  0
  184.3690  180.0990  139.3160 O   0  0  0  0  0  1  0  0  0  0  0  0
  181.2540  175.4420  138.3770 O   0  0  0  0  0  1  0  0  0  0  0  0
  188.5310  174.5150  136.1730 C   0  0  0  0  0  3  0  0  0  0  0  0
  188.4640  177.7170  140.4950 C   0  0  0  0  0  0  0  0  0  0  0  0
  188.9490  177.1780  134.7140 C   0  0  0  0  0  3  0  0  0  0  0  0
  182.6110  178.6470  138.6790 C   0  0  2  0  0  3  0  0  0  0  0  0
  184.0130  174.7740  136.9370 O   0  0  0  0  0  0  0  0  0  0  0  0
  187.0160  172.5980  134.5290 C   0  0  0  0  0  1  0  0  0  0  0  0
  189.6020  177.3540  138.3810 C   0  0  0  0  0  2  0  0  0  0  0  0
  182.1600  176.3760  138.8790 C   0  0  1  0  0  3  0  0  0  0  0  0
  189.3960  177.4440  135.9410 C   0  0  0  0  0  3  0  0  0  0  0  0
  185.1590  174.1370  136.4550 C   0  0  0  0  0  2  0  0  0  0  0  0
  184.0760  178.7400  139.2030 C   0  0  2  0  0  0  0  0  0  0  0  0
  185.5680  177.7740  141.1040 C   0  0  0  0  0  2  0  0  0  0  0  0
  188.8810  176.7740  137.1720 C   0  0  1  0  0  3  0  0  0  0  0  0
  184.7200  177.0500  137.2650 C   0  0  0  0  0  2  0  0  0  0  0  0
  187.7330  174.9830  135.0110 C   0  0  0  0  0  0  0  0  0  0  0  0
  187.9110  178.5510  141.3440 C   0  0  0  0  0  0  0  0  0  0  0  0
  186.6810  174.0810  134.4260 C   0  0  2  0  0  3  0  0  0  0  0  0
  185.1480  178.1360  138.2530 C   0  0  0  0  0  2  0  0  0  0  0  0
  181.6590  179.0130  139.6390 O   0  0  0  0  0  1  0  0  0  0  0  0
  183.5220  175.6950  139.1020 C   0  0  0  0  0  2  0  0  0  0  0  0
  188.9910  176.8730  139.6550 C   0  0  0  0  0  3  0  0  0  0  0  0
  188.6200  179.0660  142.4380 O   0  0  0  0  0  0  0  0  0  0  0  0
  189.0080  178.2880  143.5690 C   0  0  1  0  0  3  0  0  0  0  0  0
  186.8670  177.8410  144.5480 O   0  0  0  0  0  1  0  0  0  0  0  0
  187.9940  176.0160  143.7360 O   0  0  0  0  0  0  0  0  0  0  0  0
  187.9000  177.3770  143.9930 C   0  0  0  0  0  0  0  0  0  0  0  0
  191.1750  176.8470  142.9590 C   0  0  0  0  0  3  0  0  0  0  0  0
  190.1970  177.4980  143.2340 C   0  0  0  0  0  0  0  0  0  0  0  0
  1 23  1  6  0  0  0
  1 29  1  0  0  0  0
  2 19  1  0  0  0  0
  3 22  1  0  0  0  0
  4 13  1  0  0  0  0
  4 17  1  0  0  0  0
  5 25  1  0  0  0  0
  6 12  1  0  0  0  0
  6 24  2  0  0  0  0
  7 21  1  0  0  0  0
 10  3  2  0  0  0  0
 11 25  2  0  0  0  0
 12 18  2  0  0  0  0
 13 20  1  0  0  0  0
 13 28  1  1  0  0  0
 14  1  1  0  0  0  0
 16 30  1  0  0  0  0
 17  9  1  6  0  0  0
 17 29  1  0  0  0  0
 19 14  1  0  0  0  0
 20  8  1  1  0  0  0
 20  7  1  0  0  0  0
 21  5  1  0  0  0  0
 22 18  1  6  0  0  0
 22 16  1  0  0  0  0
 23 27  1  0  0  0  0
 24 10  1  0  0  0  0
 25 31  1  0  0  0  0
 26 15  1  1  0  0  0
 26  2  1  0  0  0  0
 26 24  1  0  0  0  0
 27 20  1  0  0  0  0
 30 11  2  0  0  0  0
 31 32  1  0  0  0  0
 32 37  1  6  0  0  0
 32 35  1  0  0  0  0
 34 35  2  0  0  0  0
 35 33  1  0  0  0  0
 36 37  3  0  0  0  0
M  END
>  <MODEL>
6

>  <REMARK>
 VINA RESULT:      -5.4      1.769      2.721
  Name = 
  4 active torsions:
  status: ('A' for Active; 'I' for Inactive)
    1  A    between atoms: O_6  and  C_8
    2  A    between atoms: O_6  and  C_31
    3  A    between atoms: C_8  and  C_19
    4  A    between atoms: C_8  and  C_35
                            x       y       z     vdW  Elec       q    Type
                         _______ _______ _______ _____ _____    ______ ____

>  <TORSDO>
F 4

$$$$
=
 OpenBabel10272414513D

 37 39  0  0  1  0  0  0  0  0999 V2000
  186.8190  178.0240  136.2570 C   0  0  1  0  0  3  0  0  0  0  0  0
  184.1770  177.1640  134.4630 C   0  0  0  0  0  2  0  0  0  0  0  0
  182.7260  178.2140  138.5370 C   0  0  0  0  0  3  0  0  0  0  0  0
  189.2280  176.5240  135.8600 O   0  0  0  0  0  0  0  0  0  0  0  0
  188.1800  177.7960  141.1150 C   0  0  0  0  0  2  0  0  0  0  0  0
  182.4430  175.6990  136.7830 C   0  0  0  0  0  3  0  0  0  0  0  0
  189.3940  177.8880  138.8960 C   0  0  0  0  0  2  0  0  0  0  0  0
  189.2500  175.5790  139.3710 O   0  0  0  0  0  1  0  0  0  0  0  0
  189.4580  178.2200  134.3460 O   0  0  0  0  0  1  0  0  0  0  0  0
  182.3720  178.1480  137.2540 C   0  0  0  0  0  3  0  0  0  0  0  0
  185.8710  178.5120  141.3230 C   0  0  0  0  0  0  0  0  0  0  0  0
  182.2420  175.2250  138.1670 C   0  0  0  0  0  3  0  0  0  0  0  0
  189.7350  176.1090  137.1160 C   0  0  2  0  0  3  0  0  0  0  0  0
  186.3370  178.0420  134.9440 O   0  0  0  0  0  0  0  0  0  0  0  0
  181.9700  178.4020  134.3470 C   0  0  0  0  0  1  0  0  0  0  0  0
  183.7470  177.5220  140.6890 C   0  0  0  0  0  2  0  0  0  0  0  0
  189.3670  177.9180  135.7040 C   0  0  1  0  0  3  0  0  0  0  0  0
  182.6450  175.8570  139.2680 C   0  0  0  0  0  3  0  0  0  0  0  0
  184.9720  178.3150  135.0620 C   0  0  0  0  0  2  0  0  0  0  0  0
  188.9230  176.5090  138.3840 C   0  0  2  0  0  0  0  0  0  0  0  0
  188.4360  178.6040  139.8490 C   0  0  0  0  0  2  0  0  0  0  0  0
  183.4490  177.1150  139.2530 C   0  0  1  0  0  3  0  0  0  0  0  0
  186.7910  176.5920  136.8110 C   0  0  0  0  0  2  0  0  0  0  0  0
  182.5380  176.9710  136.3640 C   0  0  0  0  0  0  0  0  0  0  0  0
  187.0460  178.3800  141.8920 C   0  0  0  0  0  0  0  0  0  0  0  0
  182.7090  177.1810  134.8850 C   0  0  2  0  0  3  0  0  0  0  0  0
  187.3790  176.4480  138.2150 C   0  0  0  0  0  2  0  0  0  0  0  0
  191.1070  176.3670  137.2370 O   0  0  0  0  0  1  0  0  0  0  0  0
  188.1940  178.7000  136.3210 C   0  0  0  0  0  2  0  0  0  0  0  0
  184.7160  178.6560  140.7380 C   0  0  0  0  0  3  0  0  0  0  0  0
  187.2680  178.7610  143.2220 O   0  0  0  0  0  0  0  0  0  0  0  0
  187.1340  177.8750  144.3330 C   0  0  1  0  0  3  0  0  0  0  0  0
  188.3990  177.3650  146.3030 O   0  0  0  0  0  1  0  0  0  0  0  0
  189.5890  178.2530  144.5560 O   0  0  0  0  0  0  0  0  0  0  0  0
  188.3990  177.8250  145.1300 C   0  0  0  0  0  0  0  0  0  0  0  0
  185.1190  178.6940  145.8860 C   0  0  0  0  0  3  0  0  0  0  0  0
  186.0290  178.3230  145.1850 C   0  0  0  0  0  0  0  0  0  0  0  0
  1 29  1  6  0  0  0
  1 23  1  0  0  0  0
  2 26  1  0  0  0  0
  2 19  1  0  0  0  0
  4 13  1  0  0  0  0
  5 25  1  0  0  0  0
  6 12  1  0  0  0  0
  7 21  1  0  0  0  0
 10  3  2  0  0  0  0
 11 25  2  0  0  0  0
 12 18  2  0  0  0  0
 13 28  1  1  0  0  0
 13 20  1  0  0  0  0
 14 19  1  0  0  0  0
 14  1  1  0  0  0  0
 16 30  1  0  0  0  0
 17  9  1  6  0  0  0
 17  4  1  0  0  0  0
 17 29  1  0  0  0  0
 20  7  1  0  0  0  0
 20  8  1  1  0  0  0
 21  5  1  0  0  0  0
 22  3  1  1  0  0  0
 22 18  1  0  0  0  0
 22 16  1  0  0  0  0
 23 27  1  0  0  0  0
 24  6  2  0  0  0  0
 24 10  1  0  0  0  0
 25 31  1  0  0  0  0
 26 15  1  1  0  0  0
 26 24  1  0  0  0  0
 27 20  1  0  0  0  0
 30 11  2  0  0  0  0
 31 32  1  0  0  0  0
 32 35  1  0  0  0  0
 32 37  1  1  0  0  0
 34 35  2  0  0  0  0
 35 33  1  0  0  0  0
 37 36  3  0  0  0  0
M  END
>  <MODEL>
7

>  <REMARK>
 VINA RESULT:      -5.1      2.508      5.635
  Name = 
  4 active torsions:
  status: ('A' for Active; 'I' for Inactive)
    1  A    between atoms: O_6  and  C_8
    2  A    between atoms: O_6  and  C_31
    3  A    between atoms: C_8  and  C_19
    4  A    between atoms: C_8  and  C_35
                            x       y       z     vdW  Elec       q    Type
                         _______ _______ _______ _____ _____    ______ ____

>  <TORSDO>
F 4

$$$$
=
 OpenBabel10272414513D

 37 39  0  0  1  0  0  0  0  0999 V2000
  189.8030  173.0570  135.9370 C   0  0  1  0  0  3  0  0  0  0  0  0
  192.4810  171.9450  134.3460 C   0  0  0  0  0  2  0  0  0  0  0  0
  193.9010  174.4670  137.7270 C   0  0  0  0  0  3  0  0  0  0  0  0
  187.5420  173.8110  134.3460 O   0  0  0  0  0  0  0  0  0  0  0  0
  188.5620  177.1730  138.5860 C   0  0  0  0  0  2  0  0  0  0  0  0
  194.3910  174.5460  134.6880 C   0  0  0  0  0  3  0  0  0  0  0  0
  187.3030  175.4330  137.2460 C   0  0  0  0  0  2  0  0  0  0  0  0
  187.6780  177.1810  135.7020 O   0  0  0  0  0  1  0  0  0  0  0  0
  187.1220  171.6050  134.7710 O   0  0  0  0  0  1  0  0  0  0  0  0
  194.2350  173.4550  136.9260 C   0  0  0  0  0  3  0  0  0  0  0  0
  190.7950  176.7440  139.4330 C   0  0  0  0  0  0  0  0  0  0  0  0
  194.6630  175.9200  135.1560 C   0  0  0  0  0  3  0  0  0  0  0  0
  187.1010  175.0980  134.7370 C   0  0  2  0  0  3  0  0  0  0  0  0
  190.2560  171.9620  135.1930 O   0  0  0  0  0  0  0  0  0  0  0  0
  194.5560  170.9520  135.4070 C   0  0  0  0  0  1  0  0  0  0  0  0
  192.9920  176.6730  138.4030 C   0  0  0  0  0  2  0  0  0  0  0  0
  187.2670  172.8640  135.3530 C   0  0  1  0  0  3  0  0  0  0  0  0
  194.2220  176.4520  136.2950 C   0  0  0  0  0  3  0  0  0  0  0  0
  191.5900  171.7940  135.5710 C   0  0  0  0  0  2  0  0  0  0  0  0
  187.8950  175.8140  135.8710 C   0  0  2  0  0  0  0  0  0  0  0  0
  188.2060  175.6990  138.4520 C   0  0  0  0  0  2  0  0  0  0  0  0
  193.3000  175.7470  137.2350 C   0  0  1  0  0  3  0  0  0  0  0  0
  189.9780  174.3520  135.1310 C   0  0  0  0  0  2  0  0  0  0  0  0
  194.1670  173.4590  135.4430 C   0  0  0  0  0  0  0  0  0  0  0  0
  189.6490  177.3620  139.5930 C   0  0  0  0  0  0  0  0  0  0  0  0
  193.9480  172.1640  134.7100 C   0  0  2  0  0  3  0  0  0  0  0  0
  189.4340  175.6030  135.8220 C   0  0  0  0  0  2  0  0  0  0  0  0
  185.7130  175.1410  134.9250 O   0  0  0  0  0  1  0  0  0  0  0  0
  188.3710  172.8050  136.4240 C   0  0  0  0  0  2  0  0  0  0  0  0
  191.9200  176.1070  139.2720 C   0  0  0  0  0  3  0  0  0  0  0  0
  189.4170  178.2140  140.6810 O   0  0  0  0  0  0  0  0  0  0  0  0
  188.6990  177.8270  141.8520 C   0  0  1  0  0  3  0  0  0  0  0  0
  188.9580  177.9970  144.2280 O   0  0  0  0  0  1  0  0  0  0  0  0
  190.5720  179.0330  142.9710 O   0  0  0  0  0  0  0  0  0  0  0  0
  189.4010  178.2960  143.0870 C   0  0  0  0  0  0  0  0  0  0  0  0
  186.2340  178.8580  141.7700 C   0  0  0  0  0  3  0  0  0  0  0  0
  187.3470  178.3930  141.8060 C   0  0  0  0  0  0  0  0  0  0  0  0
  1 23  1  6  0  0  0
  1 29  1  0  0  0  0
  2 26  1  0  0  0  0
  2 19  1  0  0  0  0
  4 13  1  0  0  0  0
  4 17  1  0  0  0  0
  5 25  1  0  0  0  0
  6 12  1  0  0  0  0
  6 24  2  0  0  0  0
  7 21  1  0  0  0  0
 10  3  2  0  0  0  0
 11 25  2  0  0  0  0
 12 18  2  0  0  0  0
 13 28  1  1  0  0  0
 13 20  1  0  0  0  0
 14 19  1  0  0  0  0
 14  1  1  0  0  0  0
 16 30  1  0  0  0  0
 17  9  1  6  0  0  0
 17 29  1  0  0  0  0
 20  8  1  6  0  0  0
 20  7  1  0  0  0  0
 21  5  1  0  0  0  0
 22 18  1  6  0  0  0
 22  3  1  0  0  0  0
 22 16  1  0  0  0  0
 23 27  1  0  0  0  0
 24 10  1  0  0  0  0
 25 31  1  0  0  0  0
 26 15  1  1  0  0  0
 26 24  1  0  0  0  0
 27 20  1  0  0  0  0
 30 11  2  0  0  0  0
 31 32  1  0  0  0  0
 32 37  1  6  0  0  0
 32 35  1  0  0  0  0
 34 35  2  0  0  0  0
 35 33  1  0  0  0  0
 36 37  3  0  0  0  0
M  END
>  <MODEL>
8

>  <REMARK>
 VINA RESULT:      -4.7      3.770      5.925
  Name = 
  4 active torsions:
  status: ('A' for Active; 'I' for Inactive)
    1  A    between atoms: O_6  and  C_8
    2  A    between atoms: O_6  and  C_31
    3  A    between atoms: C_8  and  C_19
    4  A    between atoms: C_8  and  C_35
                            x       y       z     vdW  Elec       q    Type
                         _______ _______ _______ _____ _____    ______ ____

>  <TORSDO>
F 4

$$$$
=
 OpenBabel10272414513D

 37 39  0  0  1  0  0  0  0  0999 V2000
  187.3740  177.6990  138.0270 C   0  0  1  0  0  3  0  0  0  0  0  0
  185.6150  178.1080  140.7980 C   0  0  0  0  0  2  0  0  0  0  0  0
  189.9170  178.3300  141.9160 C   0  0  0  0  0  3  0  0  0  0  0  0
  186.4120  175.7830  136.1250 O   0  0  0  0  0  0  0  0  0  0  0  0
  191.8780  175.7730  136.7990 C   0  0  0  0  0  2  0  0  0  0  0  0
  187.5780  176.5730  142.8780 C   0  0  0  0  0  3  0  0  0  0  0  0
  189.6810  176.1530  135.5990 C   0  0  0  0  0  2  0  0  0  0  0  0
  189.5290  173.9280  136.3780 O   0  0  0  0  0  1  0  0  0  0  0  0
  185.3950  177.7080  135.4310 O   0  0  0  0  0  1  0  0  0  0  0  0
  188.6930  178.7210  142.2700 C   0  0  0  0  0  3  0  0  0  0  0  0
  192.4410  176.9920  138.8200 C   0  0  0  0  0  0  0  0  0  0  0  0
  188.7950  175.8040  143.2070 C   0  0  0  0  0  3  0  0  0  0  0  0
  187.4690  174.9160  135.7570 C   0  0  2  0  0  3  0  0  0  0  0  0
  186.1530  178.2090  138.4820 O   0  0  0  0  0  0  0  0  0  0  0  0
  185.9990  179.8710  142.5760 C   0  0  0  0  0  1  0  0  0  0  0  0
  191.7230  176.8210  141.1330 C   0  0  0  0  0  2  0  0  0  0  0  0
  186.6250  177.0750  135.6070 C   0  0  1  0  0  3  0  0  0  0  0  0
  189.9930  175.9740  142.6480 C   0  0  0  0  0  3  0  0  0  0  0  0
  186.4400  178.7920  139.7180 C   0  0  0  0  0  2  0  0  0  0  0  0
  188.8550  175.1480  136.4310 C   0  0  2  0  0  0  0  0  0  0  0  0
  190.8600  176.8030  136.3250 C   0  0  0  0  0  2  0  0  0  0  0  0
  190.2560  176.9250  141.5270 C   0  0  1  0  0  3  0  0  0  0  0  0
  187.5230  176.2310  138.4520 C   0  0  0  0  0  2  0  0  0  0  0  0
  187.5100  177.8380  142.4330 C   0  0  0  0  0  0  0  0  0  0  0  0
  192.8640  176.3990  137.7290 C   0  0  0  0  0  0  0  0  0  0  0  0
  186.1330  178.3980  142.2060 C   0  0  2  0  0  3  0  0  0  0  0  0
  188.7900  175.5500  137.9320 C   0  0  0  0  0  2  0  0  0  0  0  0
  187.5530  174.7540  134.3680 O   0  0  0  0  0  1  0  0  0  0  0  0
  187.5150  177.9380  136.5200 C   0  0  0  0  0  2  0  0  0  0  0  0
  192.0030  177.5950  139.8880 C   0  0  0  0  0  3  0  0  0  0  0  0
  194.2280  176.3210  137.4150 O   0  0  0  0  0  0  0  0  0  0  0  0
  194.8390  175.1770  136.8190 C   0  0  1  0  0  3  0  0  0  0  0  0
  195.8110  175.7340  134.7010 O   0  0  0  0  0  0  0  0  0  0  0  0
  197.2250  175.8290  136.5030 O   0  0  0  0  0  1  0  0  0  0  0  0
  195.9810  175.5810  135.9400 C   0  0  0  0  0  0  0  0  0  0  0  0
  195.7130  173.5330  138.7360 C   0  0  0  0  0  3  0  0  0  0  0  0
  195.3200  174.2760  137.8710 C   0  0  0  0  0  0  0  0  0  0  0  0
  1 29  1  6  0  0  0
  1 23  1  0  0  0  0
  1 14  1  0  0  0  0
  2 26  1  0  0  0  0
  3 10  2  0  0  0  0
  5 25  1  0  0  0  0
  6 12  1  0  0  0  0
  7 21  1  0  0  0  0
  7 20  1  0  0  0  0
 10 24  1  0  0  0  0
 11 30  2  0  0  0  0
 13 28  1  6  0  0  0
 13  4  1  0  0  0  0
 13 20  1  0  0  0  0
 14 19  1  0  0  0  0
 17  9  1  1  0  0  0
 17  4  1  0  0  0  0
 17 29  1  0  0  0  0
 18 12  2  0  0  0  0
 19  2  1  0  0  0  0
 20  8  1  6  0  0  0
 20 27  1  0  0  0  0
 21  5  1  0  0  0  0
 22 16  1  1  0  0  0
 22  3  1  0  0  0  0
 22 18  1  0  0  0  0
 24  6  2  0  0  0  0
 25 11  2  0  0  0  0
 26 24  1  0  0  0  0
 26 15  1  6  0  0  0
 27 23  1  0  0  0  0
 30 16  1  0  0  0  0
 31 25  1  0  0  0  0
 32 31  1  0  0  0  0
 32 37  1  1  0  0  0
 33 35  2  0  0  0  0
 35 34  1  0  0  0  0
 35 32  1  0  0  0  0
 37 36  3  0  0  0  0
M  END
>  <MODEL>
9

>  <REMARK>
 VINA RESULT:      -4.5      4.526      8.544
  Name = 
  4 active torsions:
  status: ('A' for Active; 'I' for Inactive)
    1  A    between atoms: O_6  and  C_8
    2  A    between atoms: O_6  and  C_31
    3  A    between atoms: C_8  and  C_19
    4  A    between atoms: C_8  and  C_35
                            x       y       z     vdW  Elec       q    Type
                         _______ _______ _______ _____ _____    ______ ____

>  <TORSDO>
F 4

$$$$
