=
 OpenBabel10272415013D

 37 41  0  0  1  0  0  0  0  0999 V2000
  184.0640  178.0930  138.5810 C   0  0  1  0  0  3  0  0  0  0  0  0
  184.1880  175.0380  134.8560 C   0  0  0  0  0  1  0  0  0  0  0  0
  181.1460  178.8390  135.7710 C   0  0  0  0  0  1  0  0  0  0  0  0
  182.7660  176.0370  139.2670 C   0  0  0  0  0  1  0  0  0  0  0  0
  182.2870  177.9610  136.2350 C   0  0  1  0  0  3  0  0  0  0  0  0
  183.1780  176.9130  138.0910 C   0  0  1  0  0  0  0  0  0  0  0  0
  183.2180  175.6340  135.8540 C   0  0  0  0  0  0  0  0  0  0  0  0
  181.9870  177.4070  137.4940 O   0  0  0  0  0  0  0  0  0  0  0  0
  182.1710  174.5870  136.1870 C   0  0  0  0  0  1  0  0  0  0  0  0
  182.5380  176.8490  135.2170 C   0  0  0  0  0  2  0  0  0  0  0  0
  183.9910  176.0200  137.1220 C   0  0  0  0  0  2  0  0  0  0  0  0
  182.2660  179.4700  139.5810 C   0  0  0  0  0  3  0  0  0  0  0  0
  183.4960  178.7590  139.7530 N   0  0  0  0  0  0  0  0  0  0  0  0
  184.3300  179.0140  140.9270 C   0  0  0  0  0  2  0  0  0  0  0  0
  181.3280  178.6930  141.7700 C   0  0  0  0  0  2  0  0  0  0  0  0
  181.3000  179.4890  140.5020 C   0  0  0  0  0  3  0  0  0  0  0  0
  183.7630  178.3270  142.1600 C   0  0  2  0  0  3  0  0  0  0  0  0
  182.5150  179.0450  142.6530 C   0  0  0  0  0  2  0  0  0  0  0  0
  186.0630  177.7430  142.9290 C   0  0  0  0  0  3  0  0  0  0  0  0
  184.7980  178.2540  143.2380 C   0  0  0  0  0  0  0  0  0  0  0  0
  184.5320  178.7070  144.5410 C   0  0  0  0  0  3  0  0  0  0  0  0
  185.2590  179.0870  146.8100 O   0  0  0  0  0  1  0  0  0  0  0  0
  186.7850  178.1210  145.2100 C   0  0  0  0  0  3  0  0  0  0  0  0
  185.5230  178.6370  145.5240 C   0  0  0  0  0  0  0  0  0  0  0  0
  187.0540  177.6760  143.9120 C   0  0  0  0  0  3  0  0  0  0  0  0
  186.4450  178.0100  137.9130 C   0  0  0  0  0  3  0  0  0  0  0  0
  185.5070  177.7480  138.8160 C   0  0  0  0  0  3  0  0  0  0  0  0
  187.8830  177.7020  138.0790 C   0  0  0  0  0  0  0  0  0  0  0  0
  188.5550  176.7440  137.4240 C   0  0  0  0  0  3  0  0  0  0  0  0
  188.0240  174.4230  136.9330 C   0  0  2  0  0  3  0  0  0  0  0  0
  187.9700  175.8090  136.4190 C   0  0  2  0  0  3  0  0  0  0  0  0
  188.9560  174.9030  135.9930 O   0  0  0  0  0  0  0  0  0  0  0  0
  186.2600  172.9250  137.2980 C   0  0  0  0  0  2  0  0  0  0  0  0
  187.3210  172.2130  136.6010 C   0  0  0  0  0  2  0  0  0  0  0  0
  187.0320  173.6100  136.2510 N   0  0  0  0  0  0  0  0  0  0  0  0
  188.9360  177.3850  140.4500 C   0  0  0  0  0  1  0  0  0  0  0  0
  188.8060  178.7200  139.2250 S   0  0  0  0  0  0  0  0  0  0  0  0
  1 27  1  1  0  0  0
  1 13  1  0  0  0  0
  2  7  1  0  0  0  0
  5  3  1  6  0  0  0
  5  8  1  0  0  0  0
  6  1  1  0  0  0  0
  6  4  1  1  0  0  0
  7  9  1  0  0  0  0
  7 11  1  0  0  0  0
  8  6  1  0  0  0  0
 10  7  1  0  0  0  0
 10  5  1  0  0  0  0
 11  6  1  0  0  0  0
 12 13  1  0  0  0  0
 12 16  2  0  0  0  0
 13 14  1  0  0  0  0
 14 17  1  0  0  0  0
 15 18  1  0  0  0  0
 16 15  1  0  0  0  0
 17 18  1  0  0  0  0
 17 20  1  1  0  0  0
 19 20  2  0  0  0  0
 19 25  1  0  0  0  0
 20 21  1  0  0  0  0
 21 24  2  0  0  0  0
 23 24  1  0  0  0  0
 24 22  1  0  0  0  0
 25 23  2  0  0  0  0
 26 28  1  0  0  0  0
 26 27  2  0  0  0  0
 28 37  1  0  0  0  0
 29 28  2  0  0  0  0
 30 35  1  6  0  0  0
 31 30  1  0  0  0  0
 31 29  1  1  0  0  0
 32 31  1  0  0  0  0
 32 30  1  0  0  0  0
 34 33  1  0  0  0  0
 35 34  1  0  0  0  0
 35 33  1  0  0  0  0
 37 36  1  0  0  0  0
M  END
>  <MODEL>
1

>  <REMARK>
 VINA RESULT:      -6.8      0.000      0.000
  Name = 
  8 active torsions:
  status: ('A' for Active; 'I' for Inactive)
    1  A    between atoms: C_1  and  C_5
    2  A    between atoms: C_5  and  S_23
    3  A    between atoms: C_6  and  C_31
    4  A    between atoms: N_10  and  C_29
    5  A    between atoms: C_11  and  N_33
    6  A    between atoms: C_17  and  C_26
    7  A    between atoms: C_20  and  C_29
    8  A    between atoms: C_29  and  C_36
                            x       y       z     vdW  Elec       q    Type
                         _______ _______ _______ _____ _____    ______ ____

>  <TORSDO>
F 8

$$$$
=
 OpenBabel10272415013D

 37 41  0  0  1  0  0  0  0  0999 V2000
  186.6010  177.8970  138.3980 C   0  0  1  0  0  3  0  0  0  0  0  0
  188.2880  174.0200  136.0860 C   0  0  0  0  0  1  0  0  0  0  0  0
  187.0540  178.4910  134.3470 C   0  0  0  0  0  1  0  0  0  0  0  0
  184.6160  176.4230  137.8800 C   0  0  0  0  0  1  0  0  0  0  0  0
  187.1290  177.5400  135.5220 C   0  0  1  0  0  3  0  0  0  0  0  0
  186.0020  176.8500  137.4170 C   0  0  1  0  0  0  0  0  0  0  0  0
  187.1830  175.0520  135.9980 C   0  0  0  0  0  0  0  0  0  0  0  0
  185.8610  177.4150  136.1200 O   0  0  0  0  0  0  0  0  0  0  0  0
  185.9460  174.3800  135.4310 C   0  0  0  0  0  1  0  0  0  0  0  0
  187.6300  176.1740  135.0570 C   0  0  0  0  0  2  0  0  0  0  0  0
  186.8890  175.5800  137.4070 C   0  0  0  0  0  2  0  0  0  0  0  0
  184.4880  179.1780  138.5510 C   0  0  0  0  0  3  0  0  0  0  0  0
  185.5720  178.5300  139.2230 N   0  0  0  0  0  0  0  0  0  0  0  0
  185.8400  178.8240  140.6300 C   0  0  0  0  0  2  0  0  0  0  0  0
  182.7740  178.3470  140.1790 C   0  0  0  0  0  2  0  0  0  0  0  0
  183.2300  179.1450  138.9960 C   0  0  0  0  0  3  0  0  0  0  0  0
  184.8520  178.1060  141.5370 C   0  0  2  0  0  3  0  0  0  0  0  0
  183.4780  178.7570  141.4630 C   0  0  0  0  0  2  0  0  0  0  0  0
  186.6690  177.6610  143.1870 C   0  0  0  0  0  3  0  0  0  0  0  0
  185.3570  178.0830  142.9450 C   0  0  0  0  0  0  0  0  0  0  0  0
  184.5520  178.4960  144.0190 C   0  0  0  0  0  3  0  0  0  0  0  0
  184.2600  178.8850  146.3820 O   0  0  0  0  0  1  0  0  0  0  0  0
  186.3670  178.0470  145.5580 C   0  0  0  0  0  3  0  0  0  0  0  0
  185.0560  178.4750  145.3230 C   0  0  0  0  0  0  0  0  0  0  0  0
  187.1730  177.6420  144.4900 C   0  0  0  0  0  3  0  0  0  0  0  0
  188.9940  177.7120  139.0000 C   0  0  0  0  0  3  0  0  0  0  0  0
  187.7290  177.3940  139.2530 C   0  0  0  0  0  3  0  0  0  0  0  0
  190.1520  177.2560  139.8000 C   0  0  0  0  0  0  0  0  0  0  0  0
  191.2930  176.7530  139.3050 C   0  0  0  0  0  3  0  0  0  0  0  0
  192.3850  175.3190  137.6750 C   0  0  2  0  0  3  0  0  0  0  0  0
  191.5920  176.5540  137.8560 C   0  0  2  0  0  3  0  0  0  0  0  0
  192.9830  176.5930  137.6580 O   0  0  0  0  0  0  0  0  0  0  0  0
  192.0670  173.3820  136.3940 C   0  0  0  0  0  2  0  0  0  0  0  0
  193.3700  173.9380  136.0580 C   0  0  0  0  0  2  0  0  0  0  0  0
  192.2380  174.8400  136.3110 N   0  0  0  0  0  0  0  0  0  0  0  0
  191.8320  177.5030  141.7870 C   0  0  0  0  0  1  0  0  0  0  0  0
  190.0300  177.4240  141.5770 S   0  0  0  0  0  0  0  0  0  0  0  0
  1 13  1  0  0  0  0
  1 27  1  1  0  0  0
  5  3  1  6  0  0  0
  5  8  1  0  0  0  0
  6  4  1  1  0  0  0
  6  1  1  0  0  0  0
  7  2  1  0  0  0  0
  7 11  1  0  0  0  0
  8  6  1  0  0  0  0
  9  7  1  0  0  0  0
 10  5  1  0  0  0  0
 10  7  1  0  0  0  0
 11  6  1  0  0  0  0
 12 16  2  0  0  0  0
 12 13  1  0  0  0  0
 13 14  1  0  0  0  0
 14 17  1  0  0  0  0
 15 18  1  0  0  0  0
 16 15  1  0  0  0  0
 17 20  1  1  0  0  0
 18 17  1  0  0  0  0
 19 25  1  0  0  0  0
 20 19  2  0  0  0  0
 20 21  1  0  0  0  0
 21 24  2  0  0  0  0
 24 23  1  0  0  0  0
 24 22  1  0  0  0  0
 25 23  2  0  0  0  0
 26 27  2  0  0  0  0
 26 28  1  0  0  0  0
 28 37  1  0  0  0  0
 29 28  2  0  0  0  0
 30 35  1  6  0  0  0
 30 31  1  0  0  0  0
 31 29  1  1  0  0  0
 32 30  1  0  0  0  0
 32 31  1  0  0  0  0
 34 35  1  0  0  0  0
 34 33  1  0  0  0  0
 35 33  1  0  0  0  0
 37 36  1  0  0  0  0
M  END
>  <MODEL>
2

>  <REMARK>
 VINA RESULT:      -6.5      2.434      3.400
  Name = 
  8 active torsions:
  status: ('A' for Active; 'I' for Inactive)
    1  A    between atoms: C_1  and  C_5
    2  A    between atoms: C_5  and  S_23
    3  A    between atoms: C_6  and  C_31
    4  A    between atoms: N_10  and  C_29
    5  A    between atoms: C_11  and  N_33
    6  A    between atoms: C_17  and  C_26
    7  A    between atoms: C_20  and  C_29
    8  A    between atoms: C_29  and  C_36
                            x       y       z     vdW  Elec       q    Type
                         _______ _______ _______ _____ _____    ______ ____

>  <TORSDO>
F 8

$$$$
=
 OpenBabel10272415013D

 37 41  0  0  1  0  0  0  0  0999 V2000
  184.6550  178.8650  140.4060 C   0  0  1  0  0  3  0  0  0  0  0  0
  182.7500  176.9120  136.4340 C   0  0  0  0  0  1  0  0  0  0  0  0
  181.6810  181.1700  138.7290 C   0  0  0  0  0  1  0  0  0  0  0  0
  182.8660  177.2480  141.1610 C   0  0  0  0  0  1  0  0  0  0  0  0
  182.4760  179.8820  138.7050 C   0  0  1  0  0  3  0  0  0  0  0  0
  183.2990  178.1920  140.0480 C   0  0  1  0  0  0  0  0  0  0  0  0
  182.3370  177.5390  137.7480 C   0  0  0  0  0  0  0  0  0  0  0  0
  182.2840  179.1760  139.9080 O   0  0  0  0  0  0  0  0  0  0  0  0
  181.0760  176.8460  138.2330 C   0  0  0  0  0  1  0  0  0  0  0  0
  182.0440  179.0240  137.5170 C   0  0  0  0  0  2  0  0  0  0  0  0
  183.4660  177.3380  138.7670 C   0  0  0  0  0  2  0  0  0  0  0  0
  183.7450  179.7630  142.5260 C   0  0  0  0  0  3  0  0  0  0  0  0
  184.8010  179.0760  141.8470 N   0  0  0  0  0  0  0  0  0  0  0  0
  186.1140  178.9470  142.4770 C   0  0  0  0  0  2  0  0  0  0  0  0
  183.8460  178.2610  144.5290 C   0  0  0  0  0  2  0  0  0  0  0  0
  183.3370  179.4380  143.7550 C   0  0  0  0  0  3  0  0  0  0  0  0
  186.1030  177.8660  143.5470 C   0  0  2  0  0  3  0  0  0  0  0  0
  185.3430  178.3340  144.7800 C   0  0  0  0  0  2  0  0  0  0  0  0
  188.0430  177.9010  145.1150 C   0  0  0  0  0  3  0  0  0  0  0  0
  187.5010  177.4670  143.9000 C   0  0  0  0  0  0  0  0  0  0  0  0
  188.2670  176.6520  143.0510 C   0  0  0  0  0  3  0  0  0  0  0  0
  190.3200  175.4780  142.5740 O   0  0  0  0  0  1  0  0  0  0  0  0
  190.1030  176.7260  144.6280 C   0  0  0  0  0  3  0  0  0  0  0  0
  189.5660  176.2850  143.4130 C   0  0  0  0  0  0  0  0  0  0  0  0
  189.3410  177.5320  145.4780 C   0  0  0  0  0  3  0  0  0  0  0  0
  186.3830  178.5210  138.6690 C   0  0  0  0  0  3  0  0  0  0  0  0
  185.8700  178.1820  139.8460 C   0  0  0  0  0  3  0  0  0  0  0  0
  187.5770  177.8950  138.0590 C   0  0  0  0  0  0  0  0  0  0  0  0
  187.5640  176.8750  137.1880 C   0  0  0  0  0  3  0  0  0  0  0  0
  186.4770  174.7230  136.8780 C   0  0  2  0  0  3  0  0  0  0  0  0
  186.3400  176.1830  136.6850 C   0  0  2  0  0  3  0  0  0  0  0  0
  186.6890  175.3290  135.6250 O   0  0  0  0  0  0  0  0  0  0  0  0
  185.2360  172.9820  137.8390 C   0  0  0  0  0  2  0  0  0  0  0  0
  185.3330  172.7330  136.4080 C   0  0  0  0  0  2  0  0  0  0  0  0
  185.1610  174.1080  136.8960 N   0  0  0  0  0  0  0  0  0  0  0  0
  189.6090  177.1490  139.5250 C   0  0  0  0  0  1  0  0  0  0  0  0
  189.1700  178.5820  138.4980 S   0  0  0  0  0  0  0  0  0  0  0  0
  1 27  1  1  0  0  0
  1 13  1  0  0  0  0
  2  7  1  0  0  0  0
  5  3  1  1  0  0  0
  5  8  1  0  0  0  0
  6  1  1  0  0  0  0
  6  4  1  1  0  0  0
  7  9  1  0  0  0  0
  7 11  1  0  0  0  0
  8  6  1  0  0  0  0
 10  7  1  0  0  0  0
 10  5  1  0  0  0  0
 11  6  1  0  0  0  0
 12 16  2  0  0  0  0
 13 14  1  0  0  0  0
 13 12  1  0  0  0  0
 14 17  1  0  0  0  0
 15 18  1  0  0  0  0
 16 15  1  0  0  0  0
 17 20  1  1  0  0  0
 17 18  1  0  0  0  0
 19 25  1  0  0  0  0
 20 19  2  0  0  0  0
 21 24  2  0  0  0  0
 21 20  1  0  0  0  0
 22 24  1  0  0  0  0
 23 25  2  0  0  0  0
 24 23  1  0  0  0  0
 26 27  2  0  0  0  0
 28 37  1  0  0  0  0
 28 26  1  0  0  0  0
 29 28  2  0  0  0  0
 30 35  1  6  0  0  0
 31 30  1  0  0  0  0
 31 29  1  1  0  0  0
 32 31  1  0  0  0  0
 32 30  1  0  0  0  0
 34 35  1  0  0  0  0
 34 33  1  0  0  0  0
 35 33  1  0  0  0  0
 37 36  1  0  0  0  0
M  END
>  <MODEL>
3

>  <REMARK>
 VINA RESULT:      -6.4      1.995      2.983
  Name = 
  8 active torsions:
  status: ('A' for Active; 'I' for Inactive)
    1  A    between atoms: C_1  and  C_5
    2  A    between atoms: C_5  and  S_23
    3  A    between atoms: C_6  and  C_31
    4  A    between atoms: N_10  and  C_29
    5  A    between atoms: C_11  and  N_33
    6  A    between atoms: C_17  and  C_26
    7  A    between atoms: C_20  and  C_29
    8  A    between atoms: C_29  and  C_36
                            x       y       z     vdW  Elec       q    Type
                         _______ _______ _______ _____ _____    ______ ____

>  <TORSDO>
F 8

$$$$
=
 OpenBabel10272415013D

 37 41  0  0  1  0  0  0  0  0999 V2000
  183.9130  177.8050  140.1920 C   0  0  1  0  0  3  0  0  0  0  0  0
  186.9380  176.8580  136.5630 C   0  0  0  0  0  1  0  0  0  0  0  0
  187.8660  178.4220  141.1710 C   0  0  0  0  0  1  0  0  0  0  0  0
  184.0250  179.8840  138.7610 C   0  0  0  0  0  1  0  0  0  0  0  0
  186.8460  178.0580  140.1130 C   0  0  1  0  0  3  0  0  0  0  0  0
  184.7950  178.6600  139.2390 C   0  0  1  0  0  0  0  0  0  0  0  0
  186.6350  177.9270  137.5910 C   0  0  0  0  0  0  0  0  0  0  0  0
  185.9490  179.1270  139.9230 O   0  0  0  0  0  0  0  0  0  0  0  0
  186.9170  179.2820  136.9680 C   0  0  0  0  0  1  0  0  0  0  0  0
  187.5520  177.7230  138.8010 C   0  0  0  0  0  2  0  0  0  0  0  0
  185.1550  177.8310  137.9810 C   0  0  0  0  0  2  0  0  0  0  0  0
  182.2830  179.2830  141.3270 C   0  0  0  0  0  3  0  0  0  0  0  0
  183.5110  178.5490  141.3860 N   0  0  0  0  0  0  0  0  0  0  0  0
  184.4910  178.8470  142.4290 C   0  0  0  0  0  2  0  0  0  0  0  0
  181.6130  178.6530  143.6580 C   0  0  0  0  0  2  0  0  0  0  0  0
  181.4410  179.3790  142.3590 C   0  0  0  0  0  3  0  0  0  0  0  0
  184.0710  178.2450  143.7620 C   0  0  2  0  0  3  0  0  0  0  0  0
  182.9080  179.0220  144.3630 C   0  0  0  0  0  2  0  0  0  0  0  0
  185.0860  178.7570  145.9820 C   0  0  0  0  0  3  0  0  0  0  0  0
  185.2310  178.2040  144.7050 C   0  0  0  0  0  0  0  0  0  0  0  0
  186.4480  177.6030  144.3440 C   0  0  0  0  0  3  0  0  0  0  0  0
  188.7110  176.9730  144.8930 O   0  0  0  0  0  1  0  0  0  0  0  0
  187.3600  178.1280  146.5250 C   0  0  0  0  0  3  0  0  0  0  0  0
  187.5110  177.5690  145.2520 C   0  0  0  0  0  0  0  0  0  0  0  0
  186.1480  178.7210  146.8900 C   0  0  0  0  0  3  0  0  0  0  0  0
  182.7590  175.9090  139.0990 C   0  0  0  0  0  3  0  0  0  0  0  0
  182.7210  177.1590  139.5450 C   0  0  0  0  0  3  0  0  0  0  0  0
  181.6240  175.2100  138.4560 C   0  0  0  0  0  0  0  0  0  0  0  0
  181.7220  174.3190  137.4580 C   0  0  0  0  0  3  0  0  0  0  0  0
  182.8560  172.4910  136.3270 C   0  0  2  0  0  3  0  0  0  0  0  0
  182.9930  173.8820  136.8100 C   0  0  2  0  0  3  0  0  0  0  0  0
  183.5330  172.7980  137.5230 O   0  0  0  0  0  0  0  0  0  0  0  0
  183.3350  171.0850  134.5140 C   0  0  0  0  0  2  0  0  0  0  0  0
  184.3710  170.8960  135.5190 C   0  0  0  0  0  2  0  0  0  0  0  0
  183.8290  172.2410  135.2770 N   0  0  0  0  0  0  0  0  0  0  0  0
  179.9820  174.0820  140.1490 C   0  0  0  0  0  1  0  0  0  0  0  0
  179.9890  175.5590  139.0910 S   0  0  0  0  0  0  0  0  0  0  0  0
  1 27  1  6  0  0  0
  1 13  1  0  0  0  0
  2  7  1  0  0  0  0
  5  3  1  1  0  0  0
  6  4  1  6  0  0  0
  6  8  1  0  0  0  0
  6  1  1  0  0  0  0
  7 11  1  0  0  0  0
  7 10  1  0  0  0  0
  8  5  1  0  0  0  0
  9  7  1  0  0  0  0
 10  5  1  0  0  0  0
 11  6  1  0  0  0  0
 12 13  1  0  0  0  0
 12 16  2  0  0  0  0
 13 14  1  0  0  0  0
 14 17  1  0  0  0  0
 15 18  1  0  0  0  0
 16 15  1  0  0  0  0
 17 18  1  0  0  0  0
 17 20  1  1  0  0  0
 19 25  1  0  0  0  0
 20 19  2  0  0  0  0
 21 20  1  0  0  0  0
 21 24  2  0  0  0  0
 22 24  1  0  0  0  0
 23 25  2  0  0  0  0
 24 23  1  0  0  0  0
 26 27  2  0  0  0  0
 28 37  1  0  0  0  0
 28 26  1  0  0  0  0
 29 28  2  0  0  0  0
 30 35  1  6  0  0  0
 30 31  1  0  0  0  0
 30 32  1  0  0  0  0
 31 29  1  1  0  0  0
 31 32  1  0  0  0  0
 33 35  1  0  0  0  0
 33 34  1  0  0  0  0
 35 34  1  0  0  0  0
 37 36  1  0  0  0  0
M  END
>  <MODEL>
4

>  <REMARK>
 VINA RESULT:      -6.3      2.851      4.670
  Name = 
  8 active torsions:
  status: ('A' for Active; 'I' for Inactive)
    1  A    between atoms: C_1  and  C_5
    2  A    between atoms: C_5  and  S_23
    3  A    between atoms: C_6  and  C_31
    4  A    between atoms: N_10  and  C_29
    5  A    between atoms: C_11  and  N_33
    6  A    between atoms: C_17  and  C_26
    7  A    between atoms: C_20  and  C_29
    8  A    between atoms: C_29  and  C_36
                            x       y       z     vdW  Elec       q    Type
                         _______ _______ _______ _____ _____    ______ ____

>  <TORSDO>
F 8

$$$$
=
 OpenBabel10272415013D

 37 41  0  0  1  0  0  0  0  0999 V2000
  188.3600  177.1270  141.1490 C   0  0  1  0  0  3  0  0  0  0  0  0
  191.3120  179.5390  144.0960 C   0  0  0  0  0  1  0  0  0  0  0  0
  192.3150  176.9120  140.0170 C   0  0  0  0  0  1  0  0  0  0  0  0
  188.9080  175.5840  143.0720 C   0  0  0  0  0  1  0  0  0  0  0  0
  191.2910  177.3880  141.0260 C   0  0  1  0  0  3  0  0  0  0  0  0
  189.4220  176.7310  142.2140 C   0  0  1  0  0  0  0  0  0  0  0  0
  191.1660  178.1890  143.4270 C   0  0  0  0  0  0  0  0  0  0  0  0
  190.6120  176.2850  141.5780 O   0  0  0  0  0  0  0  0  0  0  0  0
  191.7160  177.1290  144.3650 C   0  0  0  0  0  1  0  0  0  0  0  0
  191.9790  178.1900  142.1290 C   0  0  0  0  0  2  0  0  0  0  0  0
  189.6780  177.9290  143.1620 C   0  0  0  0  0  2  0  0  0  0  0  0
  186.4660  178.6780  140.7760 C   0  0  0  0  0  3  0  0  0  0  0  0
  187.3280  178.0060  141.7000 N   0  0  0  0  0  0  0  0  0  0  0  0
  187.4270  178.4750  143.0820 C   0  0  0  0  0  2  0  0  0  0  0  0
  184.4250  178.3340  142.1880 C   0  0  0  0  0  2  0  0  0  0  0  0
  185.1660  178.8760  141.0040 C   0  0  0  0  0  3  0  0  0  0  0  0
  186.2180  178.0380  143.8950 C   0  0  2  0  0  3  0  0  0  0  0  0
  184.9850  178.8420  143.5070 C   0  0  0  0  0  2  0  0  0  0  0  0
  185.6170  178.9010  146.1570 C   0  0  0  0  0  3  0  0  0  0  0  0
  186.5000  178.1660  145.3580 C   0  0  0  0  0  0  0  0  0  0  0  0
  187.6150  177.5460  145.9470 C   0  0  0  0  0  3  0  0  0  0  0  0
  188.9460  177.0590  147.8990 O   0  0  0  0  0  1  0  0  0  0  0  0
  186.9600  178.4130  148.1110 C   0  0  0  0  0  3  0  0  0  0  0  0
  187.8450  177.6730  147.3200 C   0  0  0  0  0  0  0  0  0  0  0  0
  185.8460  179.0250  147.5300 C   0  0  0  0  0  3  0  0  0  0  0  0
  188.9320  177.0090  138.7440 C   0  0  0  0  0  3  0  0  0  0  0  0
  188.9190  177.7010  139.8770 C   0  0  0  0  0  3  0  0  0  0  0  0
  189.4620  177.5120  137.4580 C   0  0  0  0  0  0  0  0  0  0  0  0
  190.2490  176.8240  136.6170 C   0  0  0  0  0  3  0  0  0  0  0  0
  192.2070  175.3840  136.6540 C   0  0  2  0  0  3  0  0  0  0  0  0
  190.7400  175.4320  136.8350 C   0  0  2  0  0  3  0  0  0  0  0  0
  191.3200  174.9490  135.6500 O   0  0  0  0  0  0  0  0  0  0  0  0
  194.1310  174.5660  137.7130 C   0  0  0  0  0  2  0  0  0  0  0  0
  193.8750  173.7420  136.5410 C   0  0  0  0  0  2  0  0  0  0  0  0
  192.7470  174.2280  137.3480 N   0  0  0  0  0  0  0  0  0  0  0  0
  187.2780  178.6590  136.5950 C   0  0  0  0  0  1  0  0  0  0  0  0
  188.9820  179.1640  136.9690 S   0  0  0  0  0  0  0  0  0  0  0  0
  1 27  1  6  0  0  0
  1 13  1  0  0  0  0
  1  6  1  0  0  0  0
  5  3  1  6  0  0  0
  5  8  1  0  0  0  0
  5 10  1  0  0  0  0
  6  4  1  1  0  0  0
  6 11  1  0  0  0  0
  7  2  1  0  0  0  0
  7  9  1  0  0  0  0
  8  6  1  0  0  0  0
 10  7  1  0  0  0  0
 11  7  1  0  0  0  0
 12 16  2  0  0  0  0
 12 13  1  0  0  0  0
 13 14  1  0  0  0  0
 14 17  1  0  0  0  0
 15 18  1  0  0  0  0
 16 15  1  0  0  0  0
 17 20  1  1  0  0  0
 18 17  1  0  0  0  0
 19 25  1  0  0  0  0
 20 21  1  0  0  0  0
 20 19  2  0  0  0  0
 21 24  2  0  0  0  0
 24 22  1  0  0  0  0
 24 23  1  0  0  0  0
 25 23  2  0  0  0  0
 26 27  2  0  0  0  0
 28 26  1  0  0  0  0
 29 28  2  0  0  0  0
 30 31  1  0  0  0  0
 30 35  1  1  0  0  0
 31 29  1  6  0  0  0
 32 30  1  0  0  0  0
 32 31  1  0  0  0  0
 34 35  1  0  0  0  0
 34 33  1  0  0  0  0
 35 33  1  0  0  0  0
 36 37  1  0  0  0  0
 37 28  1  0  0  0  0
M  END
>  <MODEL>
5

>  <REMARK>
 VINA RESULT:      -6.2      3.819      6.462
  Name = 
  8 active torsions:
  status: ('A' for Active; 'I' for Inactive)
    1  A    between atoms: C_1  and  C_5
    2  A    between atoms: C_5  and  S_23
    3  A    between atoms: C_6  and  C_31
    4  A    between atoms: N_10  and  C_29
    5  A    between atoms: C_11  and  N_33
    6  A    between atoms: C_17  and  C_26
    7  A    between atoms: C_20  and  C_29
    8  A    between atoms: C_29  and  C_36
                            x       y       z     vdW  Elec       q    Type
                         _______ _______ _______ _____ _____    ______ ____

>  <TORSDO>
F 8

$$$$
=
 OpenBabel10272415013D

 37 41  0  0  1  0  0  0  0  0999 V2000
  190.0580  174.9450  137.2550 C   0  0  1  0  0  3  0  0  0  0  0  0
  192.8160  171.3570  135.5990 C   0  0  0  0  0  1  0  0  0  0  0  0
  194.0420  175.3870  138.2060 C   0  0  0  0  0  1  0  0  0  0  0  0
  190.6480  175.5080  134.8640 C   0  0  0  0  0  1  0  0  0  0  0  0
  192.9730  174.5920  137.4860 C   0  0  1  0  0  3  0  0  0  0  0  0
  191.1170  174.7970  136.1260 C   0  0  1  0  0  0  0  0  0  0  0  0
  192.7560  172.8690  135.6400 C   0  0  0  0  0  0  0  0  0  0  0  0
  192.3430  175.4000  136.5200 O   0  0  0  0  0  0  0  0  0  0  0  0
  193.3410  173.4050  134.3470 C   0  0  0  0  0  1  0  0  0  0  0  0
  193.5940  173.3640  136.8220 C   0  0  0  0  0  2  0  0  0  0  0  0
  191.2900  173.3000  135.7680 C   0  0  0  0  0  2  0  0  0  0  0  0
  190.0420  177.3900  136.8690 C   0  0  0  0  0  3  0  0  0  0  0  0
  190.0190  176.3030  137.7990 N   0  0  0  0  0  0  0  0  0  0  0  0
  190.3350  176.5380  139.2070 C   0  0  0  0  0  2  0  0  0  0  0  0
  188.3570  178.7290  138.1520 C   0  0  0  0  0  2  0  0  0  0  0  0
  189.3350  178.5100  137.0390 C   0  0  0  0  0  3  0  0  0  0  0  0
  189.1620  177.1790  139.9320 C   0  0  2  0  0  3  0  0  0  0  0  0
  189.0050  178.6370  139.5240 C   0  0  0  0  0  2  0  0  0  0  0  0
  188.3290  177.5520  142.2530 C   0  0  0  0  0  3  0  0  0  0  0  0
  189.3310  177.0540  141.4120 C   0  0  0  0  0  0  0  0  0  0  0  0
  190.4580  176.4290  141.9710 C   0  0  0  0  0  3  0  0  0  0  0  0
  191.6960  175.6960  143.9080 O   0  0  0  0  0  1  0  0  0  0  0  0
  189.5790  176.8190  144.1930 C   0  0  0  0  0  3  0  0  0  0  0  0
  190.5820  176.3150  143.3590 C   0  0  0  0  0  0  0  0  0  0  0  0
  188.4530  177.4350  143.6400 C   0  0  0  0  0  3  0  0  0  0  0  0
  187.5920  175.1470  137.2710 C   0  0  0  0  0  3  0  0  0  0  0  0
  188.6760  174.4790  136.8940 C   0  0  0  0  0  3  0  0  0  0  0  0
  186.2040  174.7490  136.9490 C   0  0  0  0  0  0  0  0  0  0  0  0
  185.1700  175.5880  136.7890 C   0  0  0  0  0  3  0  0  0  0  0  0
  184.4520  177.5070  138.0960 C   0  0  2  0  0  3  0  0  0  0  0  0
  185.2330  177.0730  136.9170 C   0  0  2  0  0  3  0  0  0  0  0  0
  183.9400  177.6080  136.7890 O   0  0  0  0  0  0  0  0  0  0  0  0
  185.1050  178.7260  139.9880 C   0  0  0  0  0  2  0  0  0  0  0  0
  183.8930  179.3320  139.4550 C   0  0  0  0  0  2  0  0  0  0  0  0
  184.9130  178.8130  138.5330 N   0  0  0  0  0  0  0  0  0  0  0  0
  184.1960  173.1270  137.3620 C   0  0  0  0  0  1  0  0  0  0  0  0
  185.8910  173.0020  136.7210 S   0  0  0  0  0  0  0  0  0  0  0  0
  1 27  1  6  0  0  0
  1 13  1  0  0  0  0
  2  7  1  0  0  0  0
  5  3  1  6  0  0  0
  6  4  1  6  0  0  0
  6  8  1  0  0  0  0
  6  1  1  0  0  0  0
  7 11  1  0  0  0  0
  7 10  1  0  0  0  0
  8  5  1  0  0  0  0
  9  7  1  0  0  0  0
 10  5  1  0  0  0  0
 11  6  1  0  0  0  0
 12 16  2  0  0  0  0
 12 13  1  0  0  0  0
 13 14  1  0  0  0  0
 14 17  1  0  0  0  0
 15 18  1  0  0  0  0
 16 15  1  0  0  0  0
 17 20  1  1  0  0  0
 18 17  1  0  0  0  0
 19 25  1  0  0  0  0
 20 21  1  0  0  0  0
 20 19  2  0  0  0  0
 21 24  2  0  0  0  0
 24 22  1  0  0  0  0
 24 23  1  0  0  0  0
 25 23  2  0  0  0  0
 27 26  2  0  0  0  0
 28 26  1  0  0  0  0
 29 28  2  0  0  0  0
 30 35  1  6  0  0  0
 31 29  1  1  0  0  0
 31 30  1  0  0  0  0
 32 31  1  0  0  0  0
 32 30  1  0  0  0  0
 34 33  1  0  0  0  0
 35 34  1  0  0  0  0
 35 33  1  0  0  0  0
 37 28  1  0  0  0  0
 37 36  1  0  0  0  0
M  END
>  <MODEL>
6

>  <REMARK>
 VINA RESULT:      -6.1      3.422      7.532
  Name = 
  8 active torsions:
  status: ('A' for Active; 'I' for Inactive)
    1  A    between atoms: C_1  and  C_5
    2  A    between atoms: C_5  and  S_23
    3  A    between atoms: C_6  and  C_31
    4  A    between atoms: N_10  and  C_29
    5  A    between atoms: C_11  and  N_33
    6  A    between atoms: C_17  and  C_26
    7  A    between atoms: C_20  and  C_29
    8  A    between atoms: C_29  and  C_36
                            x       y       z     vdW  Elec       q    Type
                         _______ _______ _______ _____ _____    ______ ____

>  <TORSDO>
F 8

$$$$
=
 OpenBabel10272415013D

 37 41  0  0  1  0  0  0  0  0999 V2000
  183.9980  178.6900  140.4830 C   0  0  1  0  0  3  0  0  0  0  0  0
  183.7780  176.6580  136.1190 C   0  0  0  0  0  1  0  0  0  0  0  0
  181.0880  180.3300  138.0740 C   0  0  0  0  0  1  0  0  0  0  0  0
  182.5490  176.6320  140.6980 C   0  0  0  0  0  1  0  0  0  0  0  0
  182.1630  179.2800  138.2570 C   0  0  1  0  0  3  0  0  0  0  0  0
  183.0050  177.7390  139.7570 C   0  0  1  0  0  0  0  0  0  0  0  0
  182.8860  177.0580  137.2750 C   0  0  0  0  0  0  0  0  0  0  0  0
  181.8460  178.4550  139.3530 O   0  0  0  0  0  0  0  0  0  0  0  0
  181.7630  176.0430  137.3850 C   0  0  0  0  0  1  0  0  0  0  0  0
  182.2950  178.4420  136.9870 C   0  0  0  0  0  2  0  0  0  0  0  0
  183.7180  177.0560  138.5630 C   0  0  0  0  0  2  0  0  0  0  0  0
  182.1980  179.6110  141.9120 C   0  0  0  0  0  3  0  0  0  0  0  0
  183.5210  179.0740  141.8120 N   0  0  0  0  0  0  0  0  0  0  0  0
  184.4730  179.2680  142.9050 C   0  0  0  0  0  2  0  0  0  0  0  0
  181.6860  178.3740  144.0290 C   0  0  0  0  0  2  0  0  0  0  0  0
  181.3780  179.3430  142.9300 C   0  0  0  0  0  3  0  0  0  0  0  0
  184.1790  178.3230  144.0600 C   0  0  2  0  0  3  0  0  0  0  0  0
  182.9310  178.7610  144.8130 C   0  0  0  0  0  2  0  0  0  0  0  0
  185.2310  178.7280  146.2850 C   0  0  0  0  0  3  0  0  0  0  0  0
  185.3560  178.2400  144.9790 C   0  0  0  0  0  0  0  0  0  0  0  0
  186.5690  177.6660  144.5670 C   0  0  0  0  0  3  0  0  0  0  0  0
  188.8450  177.0210  145.0440 O   0  0  0  0  0  1  0  0  0  0  0  0
  187.5180  178.0850  146.7550 C   0  0  0  0  0  3  0  0  0  0  0  0
  187.6480  177.5910  145.4530 C   0  0  0  0  0  0  0  0  0  0  0  0
  186.3090  178.6510  147.1710 C   0  0  0  0  0  3  0  0  0  0  0  0
  186.3960  178.7830  139.8790 C   0  0  0  0  0  3  0  0  0  0  0  0
  185.4150  178.1950  140.5530 C   0  0  0  0  0  3  0  0  0  0  0  0
  187.8110  178.3520  139.9040 C   0  0  0  0  0  0  0  0  0  0  0  0
  188.6110  178.2410  138.8330 C   0  0  0  0  0  3  0  0  0  0  0  0
  188.7590  177.4760  136.5310 C   0  0  2  0  0  3  0  0  0  0  0  0
  188.2120  178.5210  137.4220 C   0  0  2  0  0  3  0  0  0  0  0  0
  189.3630  178.7420  136.6470 O   0  0  0  0  0  0  0  0  0  0  0  0
  187.5390  176.0330  135.1450 C   0  0  0  0  0  2  0  0  0  0  0  0
  188.6910  176.5120  134.3950 C   0  0  0  0  0  2  0  0  0  0  0  0
  187.9830  177.4250  135.3040 N   0  0  0  0  0  0  0  0  0  0  0  0
  190.0390  177.3000  140.7770 C   0  0  0  0  0  1  0  0  0  0  0  0
  188.5210  177.9840  141.5040 S   0  0  0  0  0  0  0  0  0  0  0  0
  1 27  1  1  0  0  0
  1 13  1  0  0  0  0
  2  7  1  0  0  0  0
  5  3  1  6  0  0  0
  5  8  1  0  0  0  0
  6  1  1  0  0  0  0
  6  4  1  1  0  0  0
  7  9  1  0  0  0  0
  7 11  1  0  0  0  0
  8  6  1  0  0  0  0
 10  7  1  0  0  0  0
 10  5  1  0  0  0  0
 11  6  1  0  0  0  0
 12 16  2  0  0  0  0
 13 12  1  0  0  0  0
 13 14  1  0  0  0  0
 14 17  1  0  0  0  0
 15 18  1  0  0  0  0
 16 15  1  0  0  0  0
 17 18  1  0  0  0  0
 17 20  1  1  0  0  0
 19 25  1  0  0  0  0
 20 19  2  0  0  0  0
 21 20  1  0  0  0  0
 21 24  2  0  0  0  0
 22 24  1  0  0  0  0
 23 25  2  0  0  0  0
 24 23  1  0  0  0  0
 26 28  1  0  0  0  0
 26 27  2  0  0  0  0
 28 37  1  0  0  0  0
 29 28  2  0  0  0  0
 30 35  1  6  0  0  0
 30 32  1  0  0  0  0
 30 31  1  0  0  0  0
 31 29  1  1  0  0  0
 32 31  1  0  0  0  0
 33 35  1  0  0  0  0
 34 33  1  0  0  0  0
 34 35  1  0  0  0  0
 36 37  1  0  0  0  0
M  END
>  <MODEL>
7

>  <REMARK>
 VINA RESULT:      -6.1      2.046      2.648
  Name = 
  8 active torsions:
  status: ('A' for Active; 'I' for Inactive)
    1  A    between atoms: C_1  and  C_5
    2  A    between atoms: C_5  and  S_23
    3  A    between atoms: C_6  and  C_31
    4  A    between atoms: N_10  and  C_29
    5  A    between atoms: C_11  and  N_33
    6  A    between atoms: C_17  and  C_26
    7  A    between atoms: C_20  and  C_29
    8  A    between atoms: C_29  and  C_36
                            x       y       z     vdW  Elec       q    Type
                         _______ _______ _______ _____ _____    ______ ____

>  <TORSDO>
F 8

$$$$
=
 OpenBabel10272415013D

 37 41  0  0  1  0  0  0  0  0999 V2000
  185.3550  175.5850  137.0670 C   0  0  1  0  0  3  0  0  0  0  0  0
  183.3500  171.2140  136.7730 C   0  0  0  0  0  1  0  0  0  0  0  0
  188.0240  172.6450  135.9700 C   0  0  0  0  0  1  0  0  0  0  0  0
  184.3250  175.3980  134.7680 C   0  0  0  0  0  1  0  0  0  0  0  0
  186.5960  173.0270  136.2990 C   0  0  1  0  0  3  0  0  0  0  0  0
  184.9720  174.6230  135.9080 C   0  0  1  0  0  0  0  0  0  0  0  0
  184.2380  172.1540  135.9860 C   0  0  0  0  0  0  0  0  0  0  0  0
  186.1350  173.9940  135.3860 O   0  0  0  0  0  0  0  0  0  0  0  0
  183.9340  171.9740  134.5100 C   0  0  0  0  0  1  0  0  0  0  0  0
  185.7010  171.7900  136.2530 C   0  0  0  0  0  2  0  0  0  0  0  0
  183.9280  173.5950  136.4100 C   0  0  0  0  0  2  0  0  0  0  0  0
  186.5640  176.9920  135.4270 C   0  0  0  0  0  3  0  0  0  0  0  0
  186.5160  176.4130  136.7350 N   0  0  0  0  0  0  0  0  0  0  0  0
  187.7310  176.3280  137.5430 C   0  0  0  0  0  2  0  0  0  0  0  0
  187.4710  179.1750  136.2570 C   0  0  0  0  0  2  0  0  0  0  0  0
  187.0370  178.2180  135.1900 C   0  0  0  0  0  3  0  0  0  0  0  0
  188.0750  177.6770  138.1560 C   0  0  2  0  0  3  0  0  0  0  0  0
  188.6140  178.6300  137.0990 C   0  0  0  0  0  2  0  0  0  0  0  0
  190.3930  177.2310  138.9630 C   0  0  0  0  0  3  0  0  0  0  0  0
  189.0570  177.5080  139.2720 C   0  0  0  0  0  0  0  0  0  0  0  0
  188.6690  177.6440  140.6150 C   0  0  0  0  0  3  0  0  0  0  0  0
  189.2280  177.6290  142.9620 O   0  0  0  0  0  1  0  0  0  0  0  0
  190.9460  177.2110  141.3200 C   0  0  0  0  0  3  0  0  0  0  0  0
  189.6120  177.4920  141.6370 C   0  0  0  0  0  0  0  0  0  0  0  0
  191.3360  177.0830  139.9840 C   0  0  0  0  0  3  0  0  0  0  0  0
  184.4280  177.3770  138.5000 C   0  0  0  0  0  3  0  0  0  0  0  0
  184.2300  176.4360  137.5840 C   0  0  0  0  0  3  0  0  0  0  0  0
  183.3690  178.2510  139.0510 C   0  0  0  0  0  0  0  0  0  0  0  0
  183.2780  178.6590  140.3260 C   0  0  0  0  0  3  0  0  0  0  0  0
  183.9220  179.0860  142.6300 C   0  0  2  0  0  3  0  0  0  0  0  0
  184.2250  178.2920  141.4200 C   0  0  2  0  0  3  0  0  0  0  0  0
  184.9890  179.4170  141.7730 O   0  0  0  0  0  0  0  0  0  0  0  0
  183.5970  178.8130  144.9350 C   0  0  0  0  0  2  0  0  0  0  0  0
  184.8890  179.4540  144.7330 C   0  0  0  0  0  2  0  0  0  0  0  0
  184.4430  178.4060  143.8030 N   0  0  0  0  0  0  0  0  0  0  0  0
  182.1340  180.5140  138.6180 C   0  0  0  0  0  1  0  0  0  0  0  0
  182.1260  178.8430  137.9080 S   0  0  0  0  0  0  0  0  0  0  0  0
  1 27  1  6  0  0  0
  5  3  1  6  0  0  0
  6  4  1  6  0  0  0
  6 11  1  0  0  0  0
  6  1  1  0  0  0  0
  7 10  1  0  0  0  0
  7 11  1  0  0  0  0
  7  2  1  0  0  0  0
  8  6  1  0  0  0  0
  8  5  1  0  0  0  0
  9  7  1  0  0  0  0
 10  5  1  0  0  0  0
 12 13  1  0  0  0  0
 13  1  1  0  0  0  0
 13 14  1  0  0  0  0
 14 17  1  0  0  0  0
 15 18  1  0  0  0  0
 16 12  2  0  0  0  0
 16 15  1  0  0  0  0
 17 20  1  1  0  0  0
 18 17  1  0  0  0  0
 19 20  2  0  0  0  0
 19 25  1  0  0  0  0
 20 21  1  0  0  0  0
 21 24  2  0  0  0  0
 23 24  1  0  0  0  0
 24 22  1  0  0  0  0
 25 23  2  0  0  0  0
 26 28  1  0  0  0  0
 27 26  2  0  0  0  0
 28 29  2  0  0  0  0
 30 35  1  1  0  0  0
 31 29  1  6  0  0  0
 31 32  1  0  0  0  0
 31 30  1  0  0  0  0
 32 30  1  0  0  0  0
 34 33  1  0  0  0  0
 35 34  1  0  0  0  0
 35 33  1  0  0  0  0
 37 36  1  0  0  0  0
 37 28  1  0  0  0  0
M  END
>  <MODEL>
8

>  <REMARK>
 VINA RESULT:      -5.9      2.502      6.445
  Name = 
  8 active torsions:
  status: ('A' for Active; 'I' for Inactive)
    1  A    between atoms: C_1  and  C_5
    2  A    between atoms: C_5  and  S_23
    3  A    between atoms: C_6  and  C_31
    4  A    between atoms: N_10  and  C_29
    5  A    between atoms: C_11  and  N_33
    6  A    between atoms: C_17  and  C_26
    7  A    between atoms: C_20  and  C_29
    8  A    between atoms: C_29  and  C_36
                            x       y       z     vdW  Elec       q    Type
                         _______ _______ _______ _____ _____    ______ ____

>  <TORSDO>
F 8

$$$$
=
 OpenBabel10272415013D

 37 41  0  0  1  0  0  0  0  0999 V2000
  185.2770  177.0680  138.4320 C   0  0  1  0  0  3  0  0  0  0  0  0
  189.5800  175.5240  136.9080 C   0  0  0  0  0  1  0  0  0  0  0  0
  188.4020  178.4220  140.7490 C   0  0  0  0  0  1  0  0  0  0  0  0
  186.0340  178.6580  136.6220 C   0  0  0  0  0  1  0  0  0  0  0  0
  187.9480  177.6510  139.5280 C   0  0  1  0  0  3  0  0  0  0  0  0
  186.5000  177.7230  137.7300 C   0  0  1  0  0  0  0  0  0  0  0  0
  188.8690  176.7930  137.3280 C   0  0  0  0  0  0  0  0  0  0  0  0
  187.2400  178.5030  138.6590 O   0  0  0  0  0  0  0  0  0  0  0  0
  189.4130  177.9420  136.5000 C   0  0  0  0  0  1  0  0  0  0  0  0
  189.1560  177.0520  138.8100 C   0  0  0  0  0  2  0  0  0  0  0  0
  187.3670  176.6260  137.0650 C   0  0  0  0  0  2  0  0  0  0  0  0
  183.4990  178.7850  138.2960 C   0  0  0  0  0  3  0  0  0  0  0  0
  184.4310  178.0560  139.1020 N   0  0  0  0  0  0  0  0  0  0  0  0
  184.7900  178.5480  140.4310 C   0  0  0  0  0  2  0  0  0  0  0  0
  181.6840  178.6770  140.0200 C   0  0  0  0  0  2  0  0  0  0  0  0
  182.2760  179.1140  138.7150 C   0  0  0  0  0  3  0  0  0  0  0  0
  183.6900  178.2510  141.4390 C   0  0  2  0  0  3  0  0  0  0  0  0
  182.4900  179.1610  141.2150 C   0  0  0  0  0  2  0  0  0  0  0  0
  183.3490  178.8490  143.8360 C   0  0  0  0  0  3  0  0  0  0  0  0
  184.2100  178.3860  142.8350 C   0  0  0  0  0  0  0  0  0  0  0  0
  185.5310  178.0390  143.1610 C   0  0  0  0  0  3  0  0  0  0  0  0
  187.2890  177.8190  144.7980 O   0  0  0  0  0  1  0  0  0  0  0  0
  185.1200  178.6320  145.4730 C   0  0  0  0  0  3  0  0  0  0  0  0
  185.9850  178.1650  144.4780 C   0  0  0  0  0  0  0  0  0  0  0  0
  183.8030  178.9720  145.1530 C   0  0  0  0  0  3  0  0  0  0  0  0
  183.5930  175.2920  138.0690 C   0  0  0  0  0  3  0  0  0  0  0  0
  184.4500  176.1680  137.5580 C   0  0  0  0  0  3  0  0  0  0  0  0
  182.7460  174.3790  137.2690 C   0  0  0  0  0  0  0  0  0  0  0  0
  183.0870  173.1440  136.8730 C   0  0  0  0  0  3  0  0  0  0  0  0
  185.2460  172.5100  135.9550 C   0  0  2  0  0  3  0  0  0  0  0  0
  184.3890  172.4740  137.1590 C   0  0  2  0  0  3  0  0  0  0  0  0
  184.5320  171.3540  136.3220 O   0  0  0  0  0  0  0  0  0  0  0  0
  187.4420  172.9420  135.2580 C   0  0  0  0  0  2  0  0  0  0  0  0
  187.2640  171.4990  135.3250 C   0  0  0  0  0  2  0  0  0  0  0  0
  186.6380  172.3570  136.3410 N   0  0  0  0  0  0  0  0  0  0  0  0
  180.2930  173.5340  137.5870 C   0  0  0  0  0  1  0  0  0  0  0  0
  181.1140  174.9640  136.8260 S   0  0  0  0  0  0  0  0  0  0  0  0
  1 27  1  6  0  0  0
  1 13  1  0  0  0  0
  2  7  1  0  0  0  0
  5  3  1  1  0  0  0
  6  4  1  6  0  0  0
  6  1  1  0  0  0  0
  6  8  1  0  0  0  0
  7 10  1  0  0  0  0
  8  5  1  0  0  0  0
  9  7  1  0  0  0  0
 10  5  1  0  0  0  0
 11  7  1  0  0  0  0
 11  6  1  0  0  0  0
 12 16  2  0  0  0  0
 12 13  1  0  0  0  0
 13 14  1  0  0  0  0
 14 17  1  0  0  0  0
 15 18  1  0  0  0  0
 16 15  1  0  0  0  0
 17 20  1  1  0  0  0
 18 17  1  0  0  0  0
 19 25  1  0  0  0  0
 20 21  1  0  0  0  0
 20 19  2  0  0  0  0
 21 24  2  0  0  0  0
 24 22  1  0  0  0  0
 24 23  1  0  0  0  0
 25 23  2  0  0  0  0
 27 26  2  0  0  0  0
 28 26  1  0  0  0  0
 29 28  2  0  0  0  0
 30 32  1  0  0  0  0
 30 35  1  1  0  0  0
 30 31  1  0  0  0  0
 31 29  1  6  0  0  0
 32 31  1  0  0  0  0
 33 34  1  0  0  0  0
 33 35  1  0  0  0  0
 34 35  1  0  0  0  0
 37 28  1  0  0  0  0
 37 36  1  0  0  0  0
M  END
>  <MODEL>
9

>  <REMARK>
 VINA RESULT:      -5.7      2.429      4.667
  Name = 
  8 active torsions:
  status: ('A' for Active; 'I' for Inactive)
    1  A    between atoms: C_1  and  C_5
    2  A    between atoms: C_5  and  S_23
    3  A    between atoms: C_6  and  C_31
    4  A    between atoms: N_10  and  C_29
    5  A    between atoms: C_11  and  N_33
    6  A    between atoms: C_17  and  C_26
    7  A    between atoms: C_20  and  C_29
    8  A    between atoms: C_29  and  C_36
                            x       y       z     vdW  Elec       q    Type
                         _______ _______ _______ _____ _____    ______ ____

>  <TORSDO>
F 8

$$$$
