=
 OpenBabel10272415183D

 34 38  0  0  0  0  0  0  0  0999 V2000
  186.7890  178.1620  143.8130 C   0  0  0  0  0  0  0  0  0  0  0  0
  187.9830  177.4670  147.2470 C   0  0  0  0  0  3  0  0  0  0  0  0
  185.9780  178.1520  146.4390 N   0  0  0  0  0  0  0  0  0  0  0  0
  186.2630  178.6440  141.3630 C   0  0  0  0  0  0  0  0  0  0  0  0
  187.2450  178.1070  142.3660 C   0  0  0  0  0  2  0  0  0  0  0  0
  184.6090  178.9280  143.1500 C   0  0  0  0  0  0  0  0  0  0  0  0
  183.2940  179.2950  143.4150 O   0  0  0  0  0  1  0  0  0  0  0  0
  185.0400  178.9920  141.7460 C   0  0  0  0  0  3  0  0  0  0  0  0
  185.0810  178.5190  145.4950 C   0  0  0  0  0  0  0  0  0  0  0  0
  185.4610  178.5440  144.1350 C   0  0  0  0  0  0  0  0  0  0  0  0
  183.7700  178.8780  145.9250 N   0  0  0  0  0  1  0  0  0  0  0  0
  189.3710  177.0300  147.4110 C   0  0  0  0  0  3  0  0  0  0  0  0
  190.3160  176.8290  146.4990 C   0  0  0  0  0  0  0  0  0  0  0  0
  190.1380  177.0170  145.0580 C   0  0  0  0  0  3  0  0  0  0  0  0
  187.2580  177.7900  146.1740 C   0  0  0  0  0  0  0  0  0  0  0  0
  189.0630  177.4080  144.3830 C   0  0  0  0  0  3  0  0  0  0  0  0
  187.7040  177.7830  144.8300 C   0  0  0  0  0  0  0  0  0  0  0  0
  191.6420  176.3830  146.9710 C   0  0  0  0  0  0  0  0  0  0  0  0
  192.2260  176.9620  148.0920 O   0  0  0  0  0  1  0  0  0  0  0  0
  192.2610  175.4700  146.3610 O   0  0  0  0  0  0  0  0  0  0  0  0
  186.5760  178.7360  140.0010 O   0  0  0  0  0  0  0  0  0  0  0  0
  188.7540  177.3720  137.2050 C   0  0  0  0  0  2  0  0  0  0  0  0
  188.8570  178.1750  139.9680 C   0  0  0  0  0  3  0  0  0  0  0  0
  192.3120  176.4120  138.1560 C   0  0  0  0  0  0  0  0  0  0  0  0
  191.1230  176.5650  137.4220 C   0  0  0  0  0  3  0  0  0  0  0  0
  189.9920  177.1300  138.0170 C   0  0  0  0  0  0  0  0  0  0  0  0
  191.2290  177.4320  140.0820 C   0  0  0  0  0  3  0  0  0  0  0  0
  190.0470  177.5700  139.3500 C   0  0  0  0  0  0  0  0  0  0  0  0
  192.3540  176.8530  139.4870 C   0  0  0  0  0  3  0  0  0  0  0  0
  187.6640  178.1250  139.3640 C   0  0  0  0  0  0  0  0  0  0  0  0
  187.5020  177.3260  138.0870 C   0  0  0  0  0  2  0  0  0  0  0  0
  193.5160  175.8080  137.5500 C   0  0  0  0  0  0  0  0  0  0  0  0
  194.3570  176.5810  136.7590 O   0  0  0  0  0  1  0  0  0  0  0  0
  193.8220  174.5290  137.7430 C   0  0  0  0  0  2  0  0  0  0  0  0
  1 10  1  0  0  0  0
  1 17  2  0  0  0  0
  2 12  1  0  0  0  0
  4  8  2  0  0  0  0
  4  5  1  0  0  0  0
  5  1  1  0  0  0  0
  6  7  1  0  0  0  0
  6 10  2  0  0  0  0
  8  6  1  0  0  0  0
  9 11  1  0  0  0  0
  9  3  2  0  0  0  0
 10  9  1  0  0  0  0
 13 18  1  0  0  0  0
 13 12  2  0  0  0  0
 14 13  1  0  0  0  0
 15  3  1  0  0  0  0
 15  2  2  0  0  0  0
 16 17  1  0  0  0  0
 16 14  2  0  0  0  0
 17 15  1  0  0  0  0
 18 19  1  0  0  0  0
 20 18  2  0  0  0  0
 21  4  1  0  0  0  0
 22 26  1  0  0  0  0
 22 31  1  0  0  0  0
 24 29  1  0  0  0  0
 25 26  1  0  0  0  0
 25 24  2  0  0  0  0
 26 28  2  0  0  0  0
 28 23  1  0  0  0  0
 28 27  1  0  0  0  0
 29 27  2  0  0  0  0
 30 23  2  0  0  0  0
 30 21  1  0  0  0  0
 31 30  1  0  0  0  0
 32 34  2  0  0  0  0
 32 24  1  0  0  0  0
 33 32  1  0  0  0  0
M  END
>  <MODEL>
1

>  <REMARK>
 VINA RESULT:     -12.1      0.000      0.000
  Name = 
  4 active torsions:
  status: ('A' for Active; 'I' for Inactive)
    1  A    between atoms: C_3  and  C_25
    2  A    between atoms: C_7  and  C_11
    3  A    between atoms: C_8  and  O_18
    4  A    between atoms: O_18  and  C_30
                            x       y       z     vdW  Elec       q    Type
                         _______ _______ _______ _____ _____    ______ ____

>  <TORSDO>
F 4

$$$$
=
 OpenBabel10272415183D

 34 38  0  0  1  0  0  0  0  0999 V2000
  184.3830  178.7570  141.9320 C   0  0  1  0  0  3  0  0  0  0  0  0
  185.3680  178.2780  138.3970 C   0  0  0  0  0  3  0  0  0  0  0  0
  183.3460  178.4690  139.4030 N   0  0  0  0  0  0  0  0  0  0  0  0
  183.9920  179.0050  144.4410 C   0  0  0  0  0  0  0  0  0  0  0  0
  184.9820  178.9680  143.3110 C   0  0  0  0  0  3  0  0  0  0  0  0
  182.1540  178.8990  142.8230 C   0  0  0  0  0  0  0  0  0  0  0  0
  180.7700  178.9310  142.6910 O   0  0  0  0  0  1  0  0  0  0  0  0
  182.6880  178.9990  144.1880 C   0  0  0  0  0  3  0  0  0  0  0  0
  182.4830  178.6220  140.4340 C   0  0  0  0  0  0  0  0  0  0  0  0
  182.9750  178.7660  141.7490 C   0  0  0  0  0  0  0  0  0  0  0  0
  181.0880  178.6250  140.1410 N   0  0  0  0  0  1  0  0  0  0  0  0
  186.7980  178.1950  138.0920 C   0  0  0  0  0  3  0  0  0  0  0  0
  187.8490  178.2690  138.9020 C   0  0  0  0  0  0  0  0  0  0  0  0
  187.7720  178.4620  140.3520 C   0  0  0  0  0  3  0  0  0  0  0  0
  184.6950  178.4440  139.5370 C   0  0  0  0  0  0  0  0  0  0  0  0
  186.7060  178.5930  141.1330 C   0  0  0  0  0  3  0  0  0  0  0  0
  185.2590  178.5920  140.8270 C   0  0  0  0  0  0  0  0  0  0  0  0
  189.1910  178.1500  138.2990 C   0  0  0  0  0  0  0  0  0  0  0  0
  190.2620  177.6710  139.0450 O   0  0  0  0  0  1  0  0  0  0  0  0
  189.3820  178.4820  137.0980 O   0  0  0  0  0  0  0  0  0  0  0  0
  184.4020  179.1090  145.7770 O   0  0  0  0  0  0  0  0  0  0  0  0
  187.1060  178.2160  148.2880 C   0  0  0  0  0  2  0  0  0  0  0  0
  186.4970  178.0910  145.4780 C   0  0  0  0  0  3  0  0  0  0  0  0
  190.3690  176.8870  146.8500 C   0  0  0  0  0  0  0  0  0  0  0  0
  189.4130  177.3760  147.7570 C   0  0  0  0  0  3  0  0  0  0  0  0
  188.1530  177.7790  147.3070 C   0  0  0  0  0  0  0  0  0  0  0  0
  188.7710  177.1800  145.0390 C   0  0  0  0  0  3  0  0  0  0  0  0
  187.8290  177.6760  145.9440 C   0  0  0  0  0  0  0  0  0  0  0  0
  190.0350  176.7910  145.4910 C   0  0  0  0  0  3  0  0  0  0  0  0
  185.6620  178.7590  146.2800 C   0  0  0  0  0  0  0  0  0  0  0  0
  186.1340  179.2110  147.6470 C   0  0  0  0  0  2  0  0  0  0  0  0
  191.7110  176.4650  147.3020 C   0  0  0  0  0  0  0  0  0  0  0  0
  192.3290  177.1310  148.3550 O   0  0  0  0  0  1  0  0  0  0  0  0
  192.3510  175.4550  146.7240 C   0  0  0  0  0  2  0  0  0  0  0  0
  1  5  1  6  0  0  0
  2 15  1  0  0  0  0
  3 15  2  0  0  0  0
  3  9  1  0  0  0  0
  4 21  1  0  0  0  0
  5  4  2  0  0  0  0
  6  8  2  0  0  0  0
  7  6  1  0  0  0  0
  8  4  1  0  0  0  0
  9 10  2  0  0  0  0
 10  1  1  0  0  0  0
 10  6  1  0  0  0  0
 11  9  1  0  0  0  0
 12  2  2  0  0  0  0
 12 13  1  0  0  0  0
 13 14  2  0  0  0  0
 14 16  1  0  0  0  0
 15 17  1  0  0  0  0
 17 16  2  0  0  0  0
 17  1  1  0  0  0  0
 18 13  1  0  0  0  0
 18 19  1  0  0  0  0
 20 18  2  0  0  0  0
 21 30  1  0  0  0  0
 23 28  1  0  0  0  0
 23 30  2  0  0  0  0
 24 32  1  0  0  0  0
 24 25  1  0  0  0  0
 26 25  2  0  0  0  0
 26 22  1  0  0  0  0
 27 29  1  0  0  0  0
 27 28  2  0  0  0  0
 28 26  1  0  0  0  0
 29 24  2  0  0  0  0
 30 31  1  0  0  0  0
 31 22  1  0  0  0  0
 32 33  1  0  0  0  0
 34 32  2  0  0  0  0
M  END
>  <MODEL>
2

>  <REMARK>
 VINA RESULT:     -11.8      2.818      7.495
  Name = 
  4 active torsions:
  status: ('A' for Active; 'I' for Inactive)
    1  A    between atoms: C_3  and  C_25
    2  A    between atoms: C_7  and  C_11
    3  A    between atoms: C_8  and  O_18
    4  A    between atoms: O_18  and  C_30
                            x       y       z     vdW  Elec       q    Type
                         _______ _______ _______ _____ _____    ______ ____

>  <TORSDO>
F 4

$$$$
=
 OpenBabel10272415183D

 34 38  0  0  1  0  0  0  0  0999 V2000
  188.0040  177.7900  145.0260 C   0  0  1  0  0  3  0  0  0  0  0  0
  184.5300  178.5800  146.0330 C   0  0  0  0  0  3  0  0  0  0  0  0
  186.4140  178.1910  147.2330 N   0  0  0  0  0  0  0  0  0  0  0  0
  190.2830  177.1820  144.0540 C   0  0  0  0  0  0  0  0  0  0  0  0
  188.8710  177.6280  143.7910 C   0  0  0  0  0  3  0  0  0  0  0  0
  189.8830  177.3670  146.4650 C   0  0  0  0  0  0  0  0  0  0  0  0
  190.4850  177.2670  147.7140 O   0  0  0  0  0  1  0  0  0  0  0  0
  190.7350  177.0950  145.2990 C   0  0  0  0  0  3  0  0  0  0  0  0
  187.7210  177.9030  147.4310 C   0  0  0  0  0  0  0  0  0  0  0  0
  188.5700  177.6830  146.3230 C   0  0  0  0  0  0  0  0  0  0  0  0
  188.1910  177.8260  148.7740 N   0  0  0  0  0  1  0  0  0  0  0  0
  183.5400  178.7750  144.9720 C   0  0  0  0  0  3  0  0  0  0  0  0
  183.6810  178.7190  143.6510 C   0  0  0  0  0  0  0  0  0  0  0  0
  184.9400  178.4320  142.9590 C   0  0  0  0  0  3  0  0  0  0  0  0
  185.8340  178.2930  146.0110 C   0  0  0  0  0  0  0  0  0  0  0  0
  186.1420  178.1770  143.4610 C   0  0  0  0  0  3  0  0  0  0  0  0
  186.6270  178.0930  144.8560 C   0  0  0  0  0  0  0  0  0  0  0  0
  182.4860  178.9640  142.8220 C   0  0  0  0  0  0  0  0  0  0  0  0
  182.4920  178.6590  141.4650 O   0  0  0  0  0  0  0  0  0  0  0  0
  181.4430  179.4520  143.3340 O   0  0  0  0  0  1  0  0  0  0  0  0
  191.1760  176.9080  143.0090 O   0  0  0  0  0  0  0  0  0  0  0  0
  191.7070  176.8170  139.2510 C   0  0  0  0  0  2  0  0  0  0  0  0
  189.6530  177.1560  141.2380 C   0  0  0  0  0  3  0  0  0  0  0  0
  188.6870  177.6730  137.1000 C   0  0  0  0  0  0  0  0  0  0  0  0
  190.0040  177.3770  137.4920 C   0  0  0  0  0  3  0  0  0  0  0  0
  190.3210  177.2190  138.8430 C   0  0  0  0  0  0  0  0  0  0  0  0
  188.0020  177.6170  139.4340 C   0  0  0  0  0  3  0  0  0  0  0  0
  189.3160  177.3350  139.8170 C   0  0  0  0  0  0  0  0  0  0  0  0
  187.6920  177.7880  138.0820 C   0  0  0  0  0  3  0  0  0  0  0  0
  190.9260  177.0960  141.6430 C   0  0  0  0  0  0  0  0  0  0  0  0
  192.0430  177.3430  140.6500 C   0  0  0  0  0  2  0  0  0  0  0  0
  188.3320  177.8550  135.6770 C   0  0  0  0  0  0  0  0  0  0  0  0
  189.3170  177.7720  134.7000 O   0  0  0  0  0  1  0  0  0  0  0  0
  187.0810  178.0970  135.3010 C   0  0  0  0  0  2  0  0  0  0  0  0
  1  5  1  6  0  0  0
  1 10  1  0  0  0  0
  3  9  1  0  0  0  0
  4  8  1  0  0  0  0
  5  4  2  0  0  0  0
  6  7  1  0  0  0  0
  8  6  2  0  0  0  0
  9 11  1  0  0  0  0
 10  6  1  0  0  0  0
 10  9  2  0  0  0  0
 12  2  2  0  0  0  0
 13 12  1  0  0  0  0
 14 16  1  0  0  0  0
 14 13  2  0  0  0  0
 15  2  1  0  0  0  0
 15  3  2  0  0  0  0
 16 17  2  0  0  0  0
 17  1  1  0  0  0  0
 17 15  1  0  0  0  0
 18 20  1  0  0  0  0
 18 13  1  0  0  0  0
 19 18  2  0  0  0  0
 21  4  1  0  0  0  0
 22 31  1  0  0  0  0
 23 30  2  0  0  0  0
 24 25  2  0  0  0  0
 24 29  1  0  0  0  0
 25 26  1  0  0  0  0
 26 22  1  0  0  0  0
 26 28  2  0  0  0  0
 27 28  1  0  0  0  0
 28 23  1  0  0  0  0
 29 27  2  0  0  0  0
 30 21  1  0  0  0  0
 31 30  1  0  0  0  0
 32 24  1  0  0  0  0
 33 32  1  0  0  0  0
 34 32  2  0  0  0  0
M  END
>  <MODEL>
3

>  <REMARK>
 VINA RESULT:     -11.4      1.891      5.646
  Name = 
  4 active torsions:
  status: ('A' for Active; 'I' for Inactive)
    1  A    between atoms: C_3  and  C_25
    2  A    between atoms: C_7  and  C_11
    3  A    between atoms: C_8  and  O_18
    4  A    between atoms: O_18  and  C_30
                            x       y       z     vdW  Elec       q    Type
                         _______ _______ _______ _____ _____    ______ ____

>  <TORSDO>
F 4

$$$$
=
 OpenBabel10272415183D

 34 38  0  0  0  0  0  0  0  0999 V2000
  185.4620  178.4310  143.0600 C   0  0  0  0  0  0  0  0  0  0  0  0
  185.5930  178.2800  146.7560 C   0  0  0  0  0  3  0  0  0  0  0  0
  183.8850  178.6120  145.3030 N   0  0  0  0  0  0  0  0  0  0  0  0
  185.6790  178.5660  140.5210 C   0  0  0  0  0  0  0  0  0  0  0  0
  186.3460  178.2720  141.8360 C   0  0  0  0  0  2  0  0  0  0  0  0
  183.5360  178.8370  141.6800 C   0  0  0  0  0  0  0  0  0  0  0  0
  182.1770  179.0610  141.4910 O   0  0  0  0  0  1  0  0  0  0  0  0
  184.3720  178.7970  140.4720 C   0  0  0  0  0  3  0  0  0  0  0  0
  183.2950  178.7550  144.0940 C   0  0  0  0  0  0  0  0  0  0  0  0
  184.0720  178.6760  142.9170 C   0  0  0  0  0  0  0  0  0  0  0  0
  181.8890  178.9910  144.0620 N   0  0  0  0  0  1  0  0  0  0  0  0
  186.8950  178.0440  147.3830 C   0  0  0  0  0  3  0  0  0  0  0  0
  188.0900  177.8620  146.8300 C   0  0  0  0  0  0  0  0  0  0  0  0
  188.3490  177.8640  145.3880 C   0  0  0  0  0  3  0  0  0  0  0  0
  185.2100  178.3870  145.4820 C   0  0  0  0  0  0  0  0  0  0  0  0
  187.5060  178.0380  144.3770 C   0  0  0  0  0  3  0  0  0  0  0  0
  186.0480  178.2870  144.3450 C   0  0  0  0  0  0  0  0  0  0  0  0
  189.2380  177.6430  147.7300 C   0  0  0  0  0  0  0  0  0  0  0  0
  190.2200  176.7110  147.4100 O   0  0  0  0  0  0  0  0  0  0  0  0
  189.3430  178.2980  148.8010 O   0  0  0  0  0  1  0  0  0  0  0  0
  186.3880  178.5440  139.3130 O   0  0  0  0  0  0  0  0  0  0  0  0
  189.9040  177.4280  140.2110 C   0  0  0  0  0  2  0  0  0  0  0  0
  188.0410  177.4910  138.0180 C   0  0  0  0  0  3  0  0  0  0  0  0
  192.0360  176.1040  137.3500 C   0  0  0  0  0  0  0  0  0  0  0  0
  191.6440  176.5620  138.6200 C   0  0  0  0  0  3  0  0  0  0  0  0
  190.3430  177.0250  138.8350 C   0  0  0  0  0  0  0  0  0  0  0  0
  189.7910  176.5490  136.5210 C   0  0  0  0  0  3  0  0  0  0  0  0
  189.4120  177.0130  137.7830 C   0  0  0  0  0  0  0  0  0  0  0  0
  191.0980  176.1000  136.3060 C   0  0  0  0  0  3  0  0  0  0  0  0
  187.7170  178.1310  139.1470 C   0  0  0  0  0  0  0  0  0  0  0  0
  188.7980  178.4860  140.1460 C   0  0  0  0  0  2  0  0  0  0  0  0
  193.4090  175.6210  137.0970 C   0  0  0  0  0  0  0  0  0  0  0  0
  193.9560  174.6340  137.9090 O   0  0  0  0  0  1  0  0  0  0  0  0
  194.1430  176.1080  136.1030 C   0  0  0  0  0  2  0  0  0  0  0  0
  1 17  2  0  0  0  0
  2 12  1  0  0  0  0
  3 15  1  0  0  0  0
  4  5  1  0  0  0  0
  5  1  1  0  0  0  0
  6 10  2  0  0  0  0
  7  6  1  0  0  0  0
  8  4  2  0  0  0  0
  8  6  1  0  0  0  0
  9  3  2  0  0  0  0
 10  1  1  0  0  0  0
 10  9  1  0  0  0  0
 11  9  1  0  0  0  0
 13 12  2  0  0  0  0
 13 18  1  0  0  0  0
 14 13  1  0  0  0  0
 15  2  2  0  0  0  0
 16 14  2  0  0  0  0
 17 16  1  0  0  0  0
 17 15  1  0  0  0  0
 18 20  1  0  0  0  0
 19 18  2  0  0  0  0
 21  4  1  0  0  0  0
 23 30  2  0  0  0  0
 24 25  1  0  0  0  0
 25 26  2  0  0  0  0
 26 22  1  0  0  0  0
 27 28  2  0  0  0  0
 28 23  1  0  0  0  0
 28 26  1  0  0  0  0
 29 27  1  0  0  0  0
 29 24  2  0  0  0  0
 30 21  1  0  0  0  0
 30 31  1  0  0  0  0
 31 22  1  0  0  0  0
 32 24  1  0  0  0  0
 32 33  1  0  0  0  0
 34 32  2  0  0  0  0
M  END
>  <MODEL>
4

>  <REMARK>
 VINA RESULT:     -10.7      1.356      2.267
  Name = 
  4 active torsions:
  status: ('A' for Active; 'I' for Inactive)
    1  A    between atoms: C_3  and  C_25
    2  A    between atoms: C_7  and  C_11
    3  A    between atoms: C_8  and  O_18
    4  A    between atoms: O_18  and  C_30
                            x       y       z     vdW  Elec       q    Type
                         _______ _______ _______ _____ _____    ______ ____

>  <TORSDO>
F 4

$$$$
=
 OpenBabel10272415183D

 34 38  0  0  0  0  0  0  0  0999 V2000
  187.9040  177.9600  143.2530 C   0  0  0  0  0  0  0  0  0  0  0  0
  188.2470  177.3090  146.8810 C   0  0  0  0  0  3  0  0  0  0  0  0
  186.4660  177.8670  145.5940 N   0  0  0  0  0  0  0  0  0  0  0  0
  187.9750  178.4340  140.7470 C   0  0  0  0  0  0  0  0  0  0  0  0
  188.7100  177.9520  141.9670 C   0  0  0  0  0  2  0  0  0  0  0  0
  185.9120  178.5860  142.0620 C   0  0  0  0  0  0  0  0  0  0  0  0
  184.5510  178.8610  141.9890 O   0  0  0  0  0  1  0  0  0  0  0  0
  186.6750  178.6950  140.8100 C   0  0  0  0  0  3  0  0  0  0  0  0
  185.8110  178.1840  144.4540 C   0  0  0  0  0  0  0  0  0  0  0  0
  186.5150  178.2490  143.2310 C   0  0  0  0  0  0  0  0  0  0  0  0
  184.4130  178.4490  144.5400 N   0  0  0  0  0  1  0  0  0  0  0  0
  189.5770  176.9640  147.3890 C   0  0  0  0  0  3  0  0  0  0  0  0
  190.7310  176.8360  146.7440 C   0  0  0  0  0  0  0  0  0  0  0  0
  190.9060  177.0280  145.3020 C   0  0  0  0  0  3  0  0  0  0  0  0
  187.7930  177.5940  145.6590 C   0  0  0  0  0  0  0  0  0  0  0  0
  190.0100  177.3540  144.3780 C   0  0  0  0  0  3  0  0  0  0  0  0
  188.5600  177.6320  144.4690 C   0  0  0  0  0  0  0  0  0  0  0  0
  191.9240  176.4750  147.5340 C   0  0  0  0  0  0  0  0  0  0  0  0
  192.3470  177.2800  148.5860 O   0  0  0  0  0  1  0  0  0  0  0  0
  192.5740  175.4290  147.2640 O   0  0  0  0  0  0  0  0  0  0  0  0
  188.6120  178.5620  139.5050 O   0  0  0  0  0  0  0  0  0  0  0  0
  188.8710  175.9990  136.7160 C   0  0  0  0  0  2  0  0  0  0  0  0
  190.4450  177.3080  138.7390 C   0  0  0  0  0  3  0  0  0  0  0  0
  192.2010  174.1840  136.3980 C   0  0  0  0  0  0  0  0  0  0  0  0
  190.8550  174.5450  136.2090 C   0  0  0  0  0  3  0  0  0  0  0  0
  190.2800  175.5570  136.9810 C   0  0  0  0  0  0  0  0  0  0  0  0
  192.3940  175.8900  138.1220 C   0  0  0  0  0  3  0  0  0  0  0  0
  191.0530  176.2360  137.9370 C   0  0  0  0  0  0  0  0  0  0  0  0
  192.9630  174.8670  137.3570 C   0  0  0  0  0  3  0  0  0  0  0  0
  189.1230  177.5110  138.7310 C   0  0  0  0  0  0  0  0  0  0  0  0
  188.2190  176.5490  137.9890 C   0  0  0  0  0  2  0  0  0  0  0  0
  192.8270  173.1100  135.6000 C   0  0  0  0  0  0  0  0  0  0  0  0
  194.1660  172.7930  135.7930 O   0  0  0  0  0  1  0  0  0  0  0  0
  192.1370  172.4290  134.6910 C   0  0  0  0  0  2  0  0  0  0  0  0
  1 17  2  0  0  0  0
  2 12  1  0  0  0  0
  3 15  1  0  0  0  0
  4  8  2  0  0  0  0
  4  5  1  0  0  0  0
  5  1  1  0  0  0  0
  6 10  2  0  0  0  0
  7  6  1  0  0  0  0
  8  6  1  0  0  0  0
  9 11  1  0  0  0  0
  9  3  2  0  0  0  0
 10  1  1  0  0  0  0
 10  9  1  0  0  0  0
 13 12  2  0  0  0  0
 13 18  1  0  0  0  0
 14 13  1  0  0  0  0
 15  2  2  0  0  0  0
 16 17  1  0  0  0  0
 16 14  2  0  0  0  0
 17 15  1  0  0  0  0
 18 19  1  0  0  0  0
 20 18  2  0  0  0  0
 21  4  1  0  0  0  0
 22 26  1  0  0  0  0
 22 31  1  0  0  0  0
 24 29  1  0  0  0  0
 25 24  2  0  0  0  0
 25 26  1  0  0  0  0
 26 28  2  0  0  0  0
 28 27  1  0  0  0  0
 28 23  1  0  0  0  0
 29 27  2  0  0  0  0
 30 23  2  0  0  0  0
 30 21  1  0  0  0  0
 31 30  1  0  0  0  0
 32 33  1  0  0  0  0
 32 24  1  0  0  0  0
 34 32  2  0  0  0  0
M  END
>  <MODEL>
5

>  <REMARK>
 VINA RESULT:     -10.5      1.547      1.937
  Name = 
  4 active torsions:
  status: ('A' for Active; 'I' for Inactive)
    1  A    between atoms: C_3  and  C_25
    2  A    between atoms: C_7  and  C_11
    3  A    between atoms: C_8  and  O_18
    4  A    between atoms: O_18  and  C_30
                            x       y       z     vdW  Elec       q    Type
                         _______ _______ _______ _____ _____    ______ ____

>  <TORSDO>
F 4

$$$$
=
 OpenBabel10272415183D

 34 38  0  0  0  0  0  0  0  0999 V2000
  189.5150  177.4640  141.2950 C   0  0  0  0  0  0  0  0  0  0  0  0
  188.7100  177.6020  144.9050 C   0  0  0  0  0  3  0  0  0  0  0  0
  187.5190  178.1500  143.0560 N   0  0  0  0  0  0  0  0  0  0  0  0
  190.3640  177.3370  138.8920 C   0  0  0  0  0  0  0  0  0  0  0  0
  190.6120  177.0260  140.3420 C   0  0  0  0  0  2  0  0  0  0  0  0
  188.1160  178.1350  139.4580 C   0  0  0  0  0  0  0  0  0  0  0  0
  186.9260  178.6140  138.9220 O   0  0  0  0  0  1  0  0  0  0  0  0
  189.1910  177.8250  138.5050 C   0  0  0  0  0  3  0  0  0  0  0  0
  187.2860  178.3070  141.7320 C   0  0  0  0  0  0  0  0  0  0  0  0
  188.2880  177.9730  140.7960 C   0  0  0  0  0  0  0  0  0  0  0  0
  186.0160  178.8210  141.3360 N   0  0  0  0  0  1  0  0  0  0  0  0
  189.7370  177.1590  145.8500 C   0  0  0  0  0  3  0  0  0  0  0  0
  190.9610  176.6930  145.6250 C   0  0  0  0  0  0  0  0  0  0  0  0
  191.5560  176.5200  144.2980 C   0  0  0  0  0  3  0  0  0  0  0  0
  188.6800  177.6760  143.5730 C   0  0  0  0  0  0  0  0  0  0  0  0
  191.0420  176.7760  143.1010 C   0  0  0  0  0  3  0  0  0  0  0  0
  189.7260  177.3120  142.6910 C   0  0  0  0  0  0  0  0  0  0  0  0
  191.7810  176.3210  146.7940 C   0  0  0  0  0  0  0  0  0  0  0  0
  191.8220  177.1390  147.9190 O   0  0  0  0  0  1  0  0  0  0  0  0
  192.4550  175.2560  146.7880 O   0  0  0  0  0  0  0  0  0  0  0  0
  191.3230  177.0700  137.9060 O   0  0  0  0  0  0  0  0  0  0  0  0
  192.3000  173.6680  136.5320 C   0  0  0  0  0  2  0  0  0  0  0  0
  193.3210  175.8520  138.1050 C   0  0  0  0  0  3  0  0  0  0  0  0
  195.6680  172.2990  137.6590 C   0  0  0  0  0  0  0  0  0  0  0  0
  194.3920  172.3880  137.0740 C   0  0  0  0  0  3  0  0  0  0  0  0
  193.6220  173.5440  137.2300 C   0  0  0  0  0  0  0  0  0  0  0  0
  195.4030  174.5570  138.5280 C   0  0  0  0  0  3  0  0  0  0  0  0
  194.1320  174.6340  137.9550 C   0  0  0  0  0  0  0  0  0  0  0  0
  196.1650  173.3930  138.3820 C   0  0  0  0  0  3  0  0  0  0  0  0
  192.0310  175.8710  137.7510 C   0  0  0  0  0  0  0  0  0  0  0  0
  191.3550  174.5910  137.3080 C   0  0  0  0  0  2  0  0  0  0  0  0
  196.4950  171.0830  137.5160 C   0  0  0  0  0  0  0  0  0  0  0  0
  197.8450  171.1950  137.2080 O   0  0  0  0  0  1  0  0  0  0  0  0
  195.9770  169.8710  137.6770 C   0  0  0  0  0  2  0  0  0  0  0  0
  1 17  2  0  0  0  0
  2 12  1  0  0  0  0
  3 15  1  0  0  0  0
  4  5  1  0  0  0  0
  5  1  1  0  0  0  0
  6 10  2  0  0  0  0
  7  6  1  0  0  0  0
  8  4  2  0  0  0  0
  8  6  1  0  0  0  0
  9  3  2  0  0  0  0
 10  1  1  0  0  0  0
 10  9  1  0  0  0  0
 11  9  1  0  0  0  0
 13 12  2  0  0  0  0
 13 18  1  0  0  0  0
 14 13  1  0  0  0  0
 15  2  2  0  0  0  0
 16 14  2  0  0  0  0
 17 16  1  0  0  0  0
 17 15  1  0  0  0  0
 18 19  1  0  0  0  0
 20 18  2  0  0  0  0
 21  4  1  0  0  0  0
 22 26  1  0  0  0  0
 22 31  1  0  0  0  0
 24 29  1  0  0  0  0
 25 26  1  0  0  0  0
 25 24  2  0  0  0  0
 26 28  2  0  0  0  0
 28 23  1  0  0  0  0
 28 27  1  0  0  0  0
 29 27  2  0  0  0  0
 30 21  1  0  0  0  0
 30 23  2  0  0  0  0
 31 30  1  0  0  0  0
 32 24  1  0  0  0  0
 32 34  2  0  0  0  0
 33 32  1  0  0  0  0
M  END
>  <MODEL>
6

>  <REMARK>
 VINA RESULT:     -10.3      2.395      4.408
  Name = 
  4 active torsions:
  status: ('A' for Active; 'I' for Inactive)
    1  A    between atoms: C_3  and  C_25
    2  A    between atoms: C_7  and  C_11
    3  A    between atoms: C_8  and  O_18
    4  A    between atoms: O_18  and  C_30
                            x       y       z     vdW  Elec       q    Type
                         _______ _______ _______ _____ _____    ______ ____

>  <TORSDO>
F 4

$$$$
=
 OpenBabel10272415183D

 34 38  0  0  1  0  0  0  0  0999 V2000
  184.0800  178.5850  140.8270 C   0  0  1  0  0  3  0  0  0  0  0  0
  185.2060  177.8990  137.3680 C   0  0  0  0  0  3  0  0  0  0  0  0
  183.1440  178.0890  138.2900 N   0  0  0  0  0  0  0  0  0  0  0  0
  183.5930  178.9910  143.2980 C   0  0  0  0  0  0  0  0  0  0  0  0
  184.6230  178.9110  142.2060 C   0  0  0  0  0  3  0  0  0  0  0  0
  181.8180  178.7110  141.6300 C   0  0  0  0  0  0  0  0  0  0  0  0
  180.4390  178.6860  141.4500 O   0  0  0  0  0  1  0  0  0  0  0  0
  182.3000  178.9230  143.0030 C   0  0  0  0  0  3  0  0  0  0  0  0
  182.2400  178.2830  139.2790 C   0  0  0  0  0  0  0  0  0  0  0  0
  182.6810  178.5330  140.5970 C   0  0  0  0  0  0  0  0  0  0  0  0
  180.8570  178.2170  138.9400 N   0  0  0  0  0  1  0  0  0  0  0  0
  186.6480  177.8460  137.1180 C   0  0  0  0  0  3  0  0  0  0  0  0
  187.6660  178.0110  137.9550 C   0  0  0  0  0  0  0  0  0  0  0  0
  187.5320  178.2990  139.3850 C   0  0  0  0  0  3  0  0  0  0  0  0
  184.4870  178.1200  138.4710 C   0  0  0  0  0  0  0  0  0  0  0  0
  186.4350  178.4470  140.1180 C   0  0  0  0  0  3  0  0  0  0  0  0
  185.0000  178.3750  139.7650 C   0  0  0  0  0  0  0  0  0  0  0  0
  189.0320  177.8970  137.4070 C   0  0  0  0  0  0  0  0  0  0  0  0
  190.1090  177.6230  138.2420 O   0  0  0  0  0  1  0  0  0  0  0  0
  189.2380  178.0470  136.1720 O   0  0  0  0  0  0  0  0  0  0  0  0
  183.9510  179.2010  144.6360 O   0  0  0  0  0  0  0  0  0  0  0  0
  186.4470  178.2250  147.3260 C   0  0  0  0  0  2  0  0  0  0  0  0
  186.0720  178.2050  144.4720 C   0  0  0  0  0  3  0  0  0  0  0  0
  189.8280  176.9690  146.1120 C   0  0  0  0  0  0  0  0  0  0  0  0
  188.7970  177.4170  146.9550 C   0  0  0  0  0  3  0  0  0  0  0  0
  187.5750  177.8310  146.4180 C   0  0  0  0  0  0  0  0  0  0  0  0
  188.3810  177.3230  144.1880 C   0  0  0  0  0  3  0  0  0  0  0  0
  187.3650  177.7790  145.0300 C   0  0  0  0  0  0  0  0  0  0  0  0
  189.6080  176.9230  144.7280 C   0  0  0  0  0  3  0  0  0  0  0  0
  185.1680  178.8380  145.2280 C   0  0  0  0  0  0  0  0  0  0  0  0
  185.5230  179.2400  146.6450 C   0  0  0  0  0  2  0  0  0  0  0  0
  191.1320  176.5360  146.6570 C   0  0  0  0  0  0  0  0  0  0  0  0
  191.9710  175.7330  145.8940 O   0  0  0  0  0  1  0  0  0  0  0  0
  191.5300  176.9000  147.8710 C   0  0  0  0  0  2  0  0  0  0  0  0
  1  5  1  6  0  0  0
  2 15  1  0  0  0  0
  3 15  2  0  0  0  0
  3  9  1  0  0  0  0
  4 21  1  0  0  0  0
  5  4  2  0  0  0  0
  6  8  2  0  0  0  0
  7  6  1  0  0  0  0
  8  4  1  0  0  0  0
  9 10  2  0  0  0  0
 10  1  1  0  0  0  0
 10  6  1  0  0  0  0
 11  9  1  0  0  0  0
 12  2  2  0  0  0  0
 12 13  1  0  0  0  0
 13 14  2  0  0  0  0
 14 16  1  0  0  0  0
 15 17  1  0  0  0  0
 17 16  2  0  0  0  0
 17  1  1  0  0  0  0
 18 13  1  0  0  0  0
 18 19  1  0  0  0  0
 20 18  2  0  0  0  0
 21 30  1  0  0  0  0
 23 28  1  0  0  0  0
 23 30  2  0  0  0  0
 24 32  1  0  0  0  0
 24 25  1  0  0  0  0
 26 25  2  0  0  0  0
 26 22  1  0  0  0  0
 27 29  1  0  0  0  0
 27 28  2  0  0  0  0
 28 26  1  0  0  0  0
 29 24  2  0  0  0  0
 30 31  1  0  0  0  0
 31 22  1  0  0  0  0
 32 34  2  0  0  0  0
 33 32  1  0  0  0  0
M  END
>  <MODEL>
7

>  <REMARK>
 VINA RESULT:     -10.2      3.017      7.629
  Name = 
  4 active torsions:
  status: ('A' for Active; 'I' for Inactive)
    1  A    between atoms: C_3  and  C_25
    2  A    between atoms: C_7  and  C_11
    3  A    between atoms: C_8  and  O_18
    4  A    between atoms: O_18  and  C_30
                            x       y       z     vdW  Elec       q    Type
                         _______ _______ _______ _____ _____    ______ ____

>  <TORSDO>
F 4

$$$$
=
 OpenBabel10272415183D

 34 38  0  0  1  0  0  0  0  0999 V2000
  186.4580  177.8310  138.4360 C   0  0  0  0  0  0  0  0  0  0  0  0
  189.3770  176.6510  136.4900 C   0  0  0  0  0  3  0  0  0  0  0  0
  187.1750  176.8260  135.9800 N   0  0  0  0  0  0  0  0  0  0  0  0
  184.6260  178.6180  140.0270 C   0  0  0  0  0  0  0  0  0  0  0  0
  186.0980  178.4360  139.7810 C   0  0  0  0  0  3  0  0  0  0  0  0
  184.1620  177.9060  137.7280 C   0  0  0  0  0  0  0  0  0  0  0  0
  183.1530  177.7350  136.7870 O   0  0  0  0  0  1  0  0  0  0  0  0
  183.7520  178.3920  139.0530 C   0  0  0  0  0  3  0  0  0  0  0  0
  185.8710  177.1130  136.1980 C   0  0  0  0  0  0  0  0  0  0  0  0
  185.4610  177.6240  137.4480 C   0  0  2  0  0  3  0  0  0  0  0  0
  184.9500  176.8740  135.1360 N   0  0  0  0  0  1  0  0  0  0  0  0
  190.6870  176.6740  137.1430 C   0  0  0  0  0  3  0  0  0  0  0  0
  191.0240  177.0670  138.3670 C   0  0  0  0  0  0  0  0  0  0  0  0
  190.0850  177.5870  139.3640 C   0  0  0  0  0  3  0  0  0  0  0  0
  188.1560  176.9990  136.9010 C   0  0  0  0  0  0  0  0  0  0  0  0
  188.7730  177.7680  139.2760 C   0  0  0  0  0  3  0  0  0  0  0  0
  187.8180  177.5170  138.1740 C   0  0  0  0  0  0  0  0  0  0  0  0
  192.4460  176.9740  138.7520 C   0  0  0  0  0  0  0  0  0  0  0  0
  193.4140  176.6430  137.8100 O   0  0  0  0  0  0  0  0  0  0  0  0
  192.8000  177.1930  139.9420 O   0  0  0  0  0  1  0  0  0  0  0  0
  184.1360  179.0860  141.2540 O   0  0  0  0  0  0  0  0  0  0  0  0
  184.5200  178.8170  145.0220 C   0  0  0  0  0  2  0  0  0  0  0  0
  185.8760  178.1990  142.5590 C   0  0  0  0  0  3  0  0  0  0  0  0
  187.8720  177.5330  146.2880 C   0  0  0  0  0  0  0  0  0  0  0  0
  186.5790  178.0840  146.2610 C   0  0  0  0  0  3  0  0  0  0  0  0
  185.9320  178.3120  145.0430 C   0  0  0  0  0  0  0  0  0  0  0  0
  187.8460  177.4090  143.8570 C   0  0  0  0  0  3  0  0  0  0  0  0
  186.5660  177.9680  143.8380 C   0  0  0  0  0  0  0  0  0  0  0  0
  188.4950  177.1960  145.0770 C   0  0  0  0  0  3  0  0  0  0  0  0
  184.7510  178.9200  142.5020 C   0  0  0  0  0  0  0  0  0  0  0  0
  184.2430  179.6190  143.7460 C   0  0  0  0  0  2  0  0  0  0  0  0
  188.5780  177.2940  147.5630 C   0  0  0  0  0  0  0  0  0  0  0  0
  189.6970  176.4710  147.5920 O   0  0  0  0  0  1  0  0  0  0  0  0
  188.1680  177.8520  148.6970 C   0  0  0  0  0  2  0  0  0  0  0  0
  1  5  1  0  0  0  0
  2 15  2  0  0  0  0
  2 12  1  0  0  0  0
  3  9  2  0  0  0  0
  3 15  1  0  0  0  0
  4 21  1  0  0  0  0
  5  4  2  0  0  0  0
  6  8  2  0  0  0  0
  7  6  1  0  0  0  0
  8  4  1  0  0  0  0
 10  9  1  1  0  0  0
 10  6  1  0  0  0  0
 10  1  1  0  0  0  0
 11  9  1  0  0  0  0
 12 13  2  0  0  0  0
 13 18  1  0  0  0  0
 13 14  1  0  0  0  0
 15 17  1  0  0  0  0
 16 14  2  0  0  0  0
 17  1  2  0  0  0  0
 17 16  1  0  0  0  0
 18 20  1  0  0  0  0
 19 18  2  0  0  0  0
 21 30  1  0  0  0  0
 22 26  1  0  0  0  0
 23 28  1  0  0  0  0
 24 32  1  0  0  0  0
 25 24  1  0  0  0  0
 26 25  2  0  0  0  0
 27 29  1  0  0  0  0
 28 27  2  0  0  0  0
 28 26  1  0  0  0  0
 29 24  2  0  0  0  0
 30 23  2  0  0  0  0
 30 31  1  0  0  0  0
 31 22  1  0  0  0  0
 32 33  1  0  0  0  0
 32 34  2  0  0  0  0
M  END
>  <MODEL>
8

>  <REMARK>
 VINA RESULT:     -10.2      3.159      7.971
  Name = 
  4 active torsions:
  status: ('A' for Active; 'I' for Inactive)
    1  A    between atoms: C_3  and  C_25
    2  A    between atoms: C_7  and  C_11
    3  A    between atoms: C_8  and  O_18
    4  A    between atoms: O_18  and  C_30
                            x       y       z     vdW  Elec       q    Type
                         _______ _______ _______ _____ _____    ______ ____

>  <TORSDO>
F 4

$$$$
=
 OpenBabel10272415183D

 34 38  0  0  0  0  0  0  0  0999 V2000
  188.5220  177.7820  141.3860 C   0  0  0  0  0  0  0  0  0  0  0  0
  188.1870  177.8680  145.0710 C   0  0  0  0  0  3  0  0  0  0  0  0
  189.9600  177.4890  143.7100 N   0  0  0  0  0  0  0  0  0  0  0  0
  188.4440  177.7040  138.8360 C   0  0  0  0  0  0  0  0  0  0  0  0
  187.7160  178.0020  140.1180 C   0  0  0  0  0  2  0  0  0  0  0  0
  190.5040  177.3170  140.1080 C   0  0  0  0  0  0  0  0  0  0  0  0
  191.8610  177.0370  139.9900 O   0  0  0  0  0  1  0  0  0  0  0  0
  189.7410  177.4160  138.8560 C   0  0  0  0  0  3  0  0  0  0  0  0
  190.6110  177.3430  142.5320 C   0  0  0  0  0  0  0  0  0  0  0  0
  189.9060  177.4780  141.3160 C   0  0  0  0  0  0  0  0  0  0  0  0
  192.0040  177.0460  142.5740 N   0  0  0  0  0  1  0  0  0  0  0  0
  186.8630  178.1500  145.6290 C   0  0  0  0  0  3  0  0  0  0  0  0
  185.7110  178.3950  145.0140 C   0  0  0  0  0  0  0  0  0  0  0  0
  185.5340  178.4320  143.5600 C   0  0  0  0  0  3  0  0  0  0  0  0
  188.6370  177.7690  143.8180 C   0  0  0  0  0  0  0  0  0  0  0  0
  186.4250  178.2390  142.5940 C   0  0  0  0  0  3  0  0  0  0  0  0
  187.8700  177.9270  142.6390 C   0  0  0  0  0  0  0  0  0  0  0  0
  184.5230  178.6480  145.8520 C   0  0  0  0  0  0  0  0  0  0  0  0
  183.3540  179.1480  145.2900 O   0  0  0  0  0  0  0  0  0  0  0  0
  184.5550  178.4130  147.0900 O   0  0  0  0  0  1  0  0  0  0  0  0
  187.8060  177.7800  137.5910 O   0  0  0  0  0  0  0  0  0  0  0  0
  185.0060  176.4200  135.4170 C   0  0  0  0  0  2  0  0  0  0  0  0
  186.9510  175.6020  137.3750 C   0  0  0  0  0  3  0  0  0  0  0  0
  184.0540  172.7780  135.9770 C   0  0  0  0  0  0  0  0  0  0  0  0
  184.0350  174.1060  135.5140 C   0  0  0  0  0  3  0  0  0  0  0  0
  184.9740  175.0300  135.9790 C   0  0  0  0  0  0  0  0  0  0  0  0
  185.9890  173.3080  137.3530 C   0  0  0  0  0  3  0  0  0  0  0  0
  185.9580  174.6280  136.8980 C   0  0  0  0  0  0  0  0  0  0  0  0
  185.0390  172.3890  136.8960 C   0  0  0  0  0  3  0  0  0  0  0  0
  186.8140  176.9090  137.1210 C   0  0  0  0  0  0  0  0  0  0  0  0
  185.5580  177.4150  136.4440 C   0  0  0  0  0  2  0  0  0  0  0  0
  183.0640  171.7870  135.5070 C   0  0  0  0  0  0  0  0  0  0  0  0
  182.0040  172.1930  134.7040 O   0  0  0  0  0  1  0  0  0  0  0  0
  183.1600  170.5030  135.8340 C   0  0  0  0  0  2  0  0  0  0  0  0
  1 17  2  0  0  0  0
  2 12  1  0  0  0  0
  3 15  1  0  0  0  0
  4  8  2  0  0  0  0
  4  5  1  0  0  0  0
  5  1  1  0  0  0  0
  6 10  2  0  0  0  0
  7  6  1  0  0  0  0
  8  6  1  0  0  0  0
  9 11  1  0  0  0  0
  9  3  2  0  0  0  0
 10  1  1  0  0  0  0
 10  9  1  0  0  0  0
 13 12  2  0  0  0  0
 13 18  1  0  0  0  0
 14 13  1  0  0  0  0
 15  2  2  0  0  0  0
 16 17  1  0  0  0  0
 16 14  2  0  0  0  0
 17 15  1  0  0  0  0
 18 20  1  0  0  0  0
 19 18  2  0  0  0  0
 21  4  1  0  0  0  0
 22 26  1  0  0  0  0
 22 31  1  0  0  0  0
 24 29  1  0  0  0  0
 25 24  2  0  0  0  0
 25 26  1  0  0  0  0
 26 28  2  0  0  0  0
 28 27  1  0  0  0  0
 28 23  1  0  0  0  0
 29 27  2  0  0  0  0
 30 23  2  0  0  0  0
 30 21  1  0  0  0  0
 31 30  1  0  0  0  0
 32 34  2  0  0  0  0
 32 24  1  0  0  0  0
 33 32  1  0  0  0  0
M  END
>  <MODEL>
9

>  <REMARK>
 VINA RESULT:      -9.8      3.942      6.683
  Name = 
  4 active torsions:
  status: ('A' for Active; 'I' for Inactive)
    1  A    between atoms: C_3  and  C_25
    2  A    between atoms: C_7  and  C_11
    3  A    between atoms: C_8  and  O_18
    4  A    between atoms: O_18  and  C_30
                            x       y       z     vdW  Elec       q    Type
                         _______ _______ _______ _____ _____    ______ ____

>  <TORSDO>
F 4

$$$$
