=
 OpenBabel10272414443D

 37 43  0  0  1  0  0  0  0  0999 V2000
  189.4140  176.2390  140.8930 C   0  0  0  0  0  2  0  0  0  0  0  0
  191.5960  175.0240  145.8190 C   0  0  0  0  0  2  0  0  0  0  0  0
  188.2550  177.8680  145.1280 C   0  0  0  0  0  0  0  0  0  0  0  0
  190.5780  176.8570  140.1030 C   0  0  2  0  0  3  0  0  0  0  0  0
  186.1930  178.8570  142.2100 N   0  0  0  0  0  0  0  0  0  0  0  0
  190.2850  177.0880  146.2210 C   0  0  0  0  0  0  0  0  0  0  0  0
  187.7720  177.9370  143.8240 C   0  0  0  0  0  0  0  0  0  0  0  0
  189.5230  177.3190  145.0550 C   0  0  0  0  0  0  0  0  0  0  0  0
  186.4280  178.3490  143.3860 C   0  0  0  0  0  0  0  0  0  0  0  0
  189.7160  177.4260  147.4560 C   0  0  0  0  0  3  0  0  0  0  0  0
  190.2890  178.2210  139.4370 C   0  0  0  0  0  2  0  0  0  0  0  0
  189.8480  177.0490  143.7690 N   0  0  0  0  0  0  0  0  0  0  0  0
  191.2270  175.0340  143.6150 C   0  0  0  0  0  2  0  0  0  0  0  0
  186.3870  178.8240  146.5180 N   0  0  0  0  0  2  0  0  0  0  0  0
  188.4330  177.9890  147.5270 C   0  0  0  0  0  3  0  0  0  0  0  0
  191.1110  176.5130  143.2680 C   0  0  0  0  0  2  0  0  0  0  0  0
  188.8080  178.6260  139.4440 C   0  0  2  0  0  3  0  0  0  0  0  0
  187.0510  179.0350  141.0720 C   0  0  0  0  0  3  0  0  0  0  0  0
  187.6830  178.2300  146.3680 C   0  0  0  0  0  0  0  0  0  0  0  0
  188.7760  177.4230  143.0210 C   0  0  0  0  0  0  0  0  0  0  0  0
  191.6550  176.4920  146.2200 C   0  0  0  0  0  2  0  0  0  0  0  0
  185.3200  178.3070  144.3980 C   0  0  1  0  0  3  0  0  0  0  0  0
  192.2250  174.8540  144.5800 O   0  0  0  0  0  0  0  0  0  0  0  0
  188.1660  178.3580  140.7820 C   0  0  0  0  0  0  0  0  0  0  0  0
  188.6850  177.2920  141.5930 N   0  0  0  0  0  0  0  0  0  0  0  0
  185.5610  179.3660  145.4510 C   0  0  0  0  0  2  0  0  0  0  0  0
  182.7560  178.7280  144.7060 C   0  0  0  0  0  2  0  0  0  0  0  0
  183.9400  178.4020  143.8140 C   0  0  0  0  0  0  0  0  0  0  0  0
  183.8070  178.2640  142.4920 C   0  0  0  0  0  3  0  0  0  0  0  0
  182.3810  178.2590  140.6060 O   0  0  0  0  0  0  0  0  0  0  0  0
  181.3010  178.5800  142.6830 C   0  0  0  0  0  3  0  0  0  0  0  0
  182.4890  178.3660  141.8550 C   0  0  0  0  0  0  0  0  0  0  0  0
  181.4200  178.7340  144.0020 C   0  0  0  0  0  3  0  0  0  0  0  0
  188.0790  177.9250  138.3370 C   0  0  0  0  0  3  0  0  0  0  0  0
  187.2760  178.5270  137.6430 O   0  0  0  0  0  0  0  0  0  0  0  0
  191.6690  176.6190  138.1080 C   0  0  0  0  0  1  0  0  0  0  0  0
  191.2480  175.9420  139.2630 O   0  0  0  0  0  0  0  0  0  0  0  0
  1 25  1  0  0  0  0
  2 21  1  0  0  0  0
  3 19  1  0  0  0  0
  4 37  1  6  0  0  0
  4  1  1  0  0  0  0
  5  9  2  0  0  0  0
  6 10  2  0  0  0  0
  7  3  1  0  0  0  0
  8  3  2  0  0  0  0
  8  6  1  0  0  0  0
  9  7  1  0  0  0  0
  9 22  1  0  0  0  0
 10 15  1  0  0  0  0
 11 17  1  0  0  0  0
 11  4  1  0  0  0  0
 12  8  1  0  0  0  0
 13 23  1  0  0  0  0
 16 13  1  0  0  0  0
 16 12  1  0  0  0  0
 17 34  1  6  0  0  0
 17 24  1  0  0  0  0
 18  5  1  0  0  0  0
 19 14  1  0  0  0  0
 19 15  2  0  0  0  0
 20 12  1  0  0  0  0
 20  7  2  0  0  0  0
 21  6  1  0  0  0  0
 22 28  1  6  0  0  0
 22 26  1  0  0  0  0
 23  2  1  0  0  0  0
 24 18  2  0  0  0  0
 24 25  1  0  0  0  0
 25 20  1  0  0  0  0
 26 14  1  0  0  0  0
 28 27  1  0  0  0  0
 29 28  2  0  0  0  0
 30 32  2  0  0  0  0
 31 33  2  0  0  0  0
 32 29  1  0  0  0  0
 32 31  1  0  0  0  0
 33 27  1  0  0  0  0
 35 34  2  0  0  0  0
 36 37  1  0  0  0  0
M  END
>  <MODEL>
1

>  <REMARK>
 VINA RESULT:      -9.5      0.000      0.000
  Name = 
  3 active torsions:
  status: ('A' for Active; 'I' for Inactive)
    1  A    between atoms: C_5  and  O_23
    2  A    between atoms: C_6  and  C_31
    3  A    between atoms: C_11  and  C_26
                            x       y       z     vdW  Elec       q    Type
                         _______ _______ _______ _____ _____    ______ ____

>  <TORSDO>
F 3

$$$$
=
 OpenBabel10272414443D

 37 43  0  0  1  0  0  0  0  0999 V2000
  188.6670  176.8560  143.7540 C   0  0  0  0  0  2  0  0  0  0  0  0
  183.7860  178.0280  141.4530 C   0  0  0  0  0  2  0  0  0  0  0  0
  187.6820  177.9950  139.3200 C   0  0  0  0  0  0  0  0  0  0  0  0
  188.8550  177.9430  144.8240 C   0  0  2  0  0  3  0  0  0  0  0  0
  191.1540  177.0230  140.1830 N   0  0  0  0  0  0  0  0  0  0  0  0
  185.4500  178.8380  139.8060 C   0  0  0  0  0  0  0  0  0  0  0  0
  188.7770  177.5510  140.0570 C   0  0  0  0  0  0  0  0  0  0  0  0
  186.7090  178.3640  140.2340 C   0  0  0  0  0  0  0  0  0  0  0  0
  190.0220  176.9570  139.5430 C   0  0  0  0  0  0  0  0  0  0  0  0
  185.2130  178.9210  138.4280 C   0  0  0  0  0  3  0  0  0  0  0  0
  190.1990  178.7030  144.7810 C   0  0  0  0  0  2  0  0  0  0  0  0
  187.1530  178.1710  141.4980 N   0  0  0  0  0  0  0  0  0  0  0  0
  185.3280  177.4780  142.9730 C   0  0  0  0  0  2  0  0  0  0  0  0
  188.4230  177.7560  136.9270 N   0  0  0  0  0  2  0  0  0  0  0  0
  186.2020  178.5540  137.5030 C   0  0  0  0  0  3  0  0  0  0  0  0
  186.4490  178.4830  142.7400 C   0  0  0  0  0  2  0  0  0  0  0  0
  191.2460  178.0820  143.8460 C   0  0  2  0  0  3  0  0  0  0  0  0
  191.4690  177.5300  141.4890 C   0  0  0  0  0  3  0  0  0  0  0  0
  187.4560  178.0950  137.9290 C   0  0  0  0  0  0  0  0  0  0  0  0
  188.4130  177.6730  141.3870 C   0  0  0  0  0  0  0  0  0  0  0  0
  184.3510  179.2440  140.7330 C   0  0  0  0  0  2  0  0  0  0  0  0
  189.9980  176.3770  138.1580 C   0  0  1  0  0  3  0  0  0  0  0  0
  184.0890  178.1100  142.8170 O   0  0  0  0  0  0  0  0  0  0  0  0
  190.6390  177.6710  142.5280 C   0  0  0  0  0  0  0  0  0  0  0  0
  189.2510  177.3040  142.4940 N   0  0  0  0  0  0  0  0  0  0  0  0
  189.8350  177.4930  137.1490 C   0  0  0  0  0  2  0  0  0  0  0  0
  190.9490  174.1450  137.1760 C   0  0  0  0  0  2  0  0  0  0  0  0
  191.1700  175.4960  137.8340 C   0  0  0  0  0  0  0  0  0  0  0  0
  192.3970  175.9660  138.0740 C   0  0  0  0  0  3  0  0  0  0  0  0
  194.7340  175.6300  137.9710 O   0  0  0  0  0  0  0  0  0  0  0  0
  193.4220  173.8140  137.2200 C   0  0  0  0  0  3  0  0  0  0  0  0
  193.5840  175.1640  137.7630 C   0  0  0  0  0  0  0  0  0  0  0  0
  192.2050  173.3360  136.9600 C   0  0  0  0  0  3  0  0  0  0  0  0
  191.9170  176.9260  144.5230 C   0  0  0  0  0  3  0  0  0  0  0  0
  191.9330  176.8420  145.7400 O   0  0  0  0  0  0  0  0  0  0  0  0
  187.0840  177.7360  146.2550 C   0  0  0  0  0  1  0  0  0  0  0  0
  188.4680  177.5410  146.1200 O   0  0  0  0  0  0  0  0  0  0  0  0
  1  4  1  0  0  0  0
  2 23  1  0  0  0  0
  3  7  1  0  0  0  0
  3  8  1  0  0  0  0
  4 37  1  1  0  0  0
  5 18  1  0  0  0  0
  6  8  2  0  0  0  0
  6 21  1  0  0  0  0
  7 20  2  0  0  0  0
  8 12  1  0  0  0  0
  9  7  1  0  0  0  0
  9  5  2  0  0  0  0
 10  6  1  0  0  0  0
 11  4  1  0  0  0  0
 12 16  1  0  0  0  0
 14 26  1  0  0  0  0
 14 19  1  0  0  0  0
 15 19  1  0  0  0  0
 15 10  2  0  0  0  0
 16 13  1  0  0  0  0
 17 34  1  1  0  0  0
 17 11  1  0  0  0  0
 18 24  2  0  0  0  0
 19  3  2  0  0  0  0
 20 12  1  0  0  0  0
 20 25  1  0  0  0  0
 21  2  1  0  0  0  0
 22 28  1  6  0  0  0
 22  9  1  0  0  0  0
 23 13  1  0  0  0  0
 24 17  1  0  0  0  0
 25 24  1  0  0  0  0
 25  1  1  0  0  0  0
 26 22  1  0  0  0  0
 27 28  1  0  0  0  0
 28 29  2  0  0  0  0
 31 32  1  0  0  0  0
 32 30  2  0  0  0  0
 32 29  1  0  0  0  0
 33 27  1  0  0  0  0
 33 31  2  0  0  0  0
 34 35  2  0  0  0  0
 37 36  1  0  0  0  0
M  END
>  <MODEL>
2

>  <REMARK>
 VINA RESULT:      -9.2      2.262      8.305
  Name = 
  3 active torsions:
  status: ('A' for Active; 'I' for Inactive)
    1  A    between atoms: C_5  and  O_23
    2  A    between atoms: C_6  and  C_31
    3  A    between atoms: C_11  and  C_26
                            x       y       z     vdW  Elec       q    Type
                         _______ _______ _______ _____ _____    ______ ____

>  <TORSDO>
F 3

$$$$
=
 OpenBabel10272414443D

 37 43  0  0  1  0  0  0  0  0999 V2000
  187.3310  175.9210  137.3450 C   0  0  0  0  0  2  0  0  0  0  0  0
  192.5800  174.4650  136.4350 C   0  0  0  0  0  2  0  0  0  0  0  0
  191.1860  177.0990  139.7280 C   0  0  0  0  0  0  0  0  0  0  0  0
  186.9230  176.6870  136.0770 C   0  0  2  0  0  3  0  0  0  0  0  0
  187.8850  178.1720  141.0310 N   0  0  0  0  0  0  0  0  0  0  0  0
  192.7370  176.3840  137.9940 C   0  0  0  0  0  0  0  0  0  0  0  0
  189.8060  177.2400  139.8550 C   0  0  0  0  0  0  0  0  0  0  0  0
  191.4250  176.6540  138.4400 C   0  0  0  0  0  0  0  0  0  0  0  0
  189.0470  177.5870  141.0680 C   0  0  0  0  0  0  0  0  0  0  0  0
  193.7910  176.5750  138.8980 C   0  0  0  0  0  3  0  0  0  0  0  0
  186.2870  178.0760  136.3070 C   0  0  0  0  0  2  0  0  0  0  0  0
  190.2600  176.5180  137.7640 N   0  0  0  0  0  0  0  0  0  0  0  0
  190.3630  174.6310  136.2090 C   0  0  0  0  0  2  0  0  0  0  0  0
  192.0750  177.7940  141.9780 N   0  0  0  0  0  2  0  0  0  0  0  0
  193.5470  177.0330  140.2010 C   0  0  0  0  0  3  0  0  0  0  0  0
  190.0880  176.1210  136.3690 C   0  0  0  0  0  2  0  0  0  0  0  0
  185.9190  178.3680  137.7690 C   0  0  2  0  0  3  0  0  0  0  0  0
  187.0340  178.5080  139.9240 C   0  0  0  0  0  3  0  0  0  0  0  0
  192.2450  177.3130  140.6390 C   0  0  0  0  0  0  0  0  0  0  0  0
  189.2750  176.8720  138.6300 C   0  0  0  0  0  0  0  0  0  0  0  0
  193.0700  175.8940  136.6230 C   0  0  0  0  0  2  0  0  0  0  0  0
  189.7190  177.3780  142.3940 C   0  0  1  0  0  3  0  0  0  0  0  0
  191.5490  174.4460  135.4890 O   0  0  0  0  0  0  0  0  0  0  0  0
  187.0150  177.9420  138.7130 C   0  0  0  0  0  0  0  0  0  0  0  0
  187.8700  176.8540  138.3290 N   0  0  0  0  0  0  0  0  0  0  0  0
  190.8600  178.3600  142.5400 C   0  0  0  0  0  2  0  0  0  0  0  0
  187.3110  177.1290  143.3890 C   0  0  0  0  0  2  0  0  0  0  0  0
  188.7900  177.4190  143.5740 C   0  0  0  0  0  0  0  0  0  0  0  0
  189.3160  177.6430  144.7810 C   0  0  0  0  0  3  0  0  0  0  0  0
  188.9780  177.8640  147.1100 O   0  0  0  0  0  0  0  0  0  0  0  0
  187.0190  177.5020  145.8390 C   0  0  0  0  0  3  0  0  0  0  0  0
  188.4670  177.6760  145.9760 C   0  0  0  0  0  0  0  0  0  0  0  0
  186.4810  177.2630  144.6420 C   0  0  0  0  0  3  0  0  0  0  0  0
  184.6160  177.7100  138.1110 C   0  0  0  0  0  3  0  0  0  0  0  0
  183.7290  177.6180  137.2780 O   0  0  0  0  0  0  0  0  0  0  0  0
  185.5410  174.8870  135.8040 C   0  0  0  0  0  1  0  0  0  0  0  0
  186.2410  175.8980  135.1270 O   0  0  0  0  0  0  0  0  0  0  0  0
  1 25  1  0  0  0  0
  2 21  1  0  0  0  0
  3  7  1  0  0  0  0
  3 19  1  0  0  0  0
  4 37  1  1  0  0  0
  4 11  1  0  0  0  0
  4  1  1  0  0  0  0
  5  9  2  0  0  0  0
  6  8  1  0  0  0  0
  6 10  2  0  0  0  0
  7  9  1  0  0  0  0
  8  3  2  0  0  0  0
  9 22  1  0  0  0  0
 10 15  1  0  0  0  0
 11 17  1  0  0  0  0
 12  8  1  0  0  0  0
 12 20  1  0  0  0  0
 13 16  1  0  0  0  0
 14 26  1  0  0  0  0
 15 19  2  0  0  0  0
 16 12  1  0  0  0  0
 17 34  1  1  0  0  0
 17 24  1  0  0  0  0
 18  5  1  0  0  0  0
 19 14  1  0  0  0  0
 20  7  2  0  0  0  0
 21  6  1  0  0  0  0
 22 26  1  0  0  0  0
 22 28  1  1  0  0  0
 23 13  1  0  0  0  0
 23  2  1  0  0  0  0
 24 18  2  0  0  0  0
 25 20  1  0  0  0  0
 25 24  1  0  0  0  0
 27 28  1  0  0  0  0
 27 33  1  0  0  0  0
 28 29  2  0  0  0  0
 29 32  1  0  0  0  0
 31 32  1  0  0  0  0
 32 30  2  0  0  0  0
 33 31  2  0  0  0  0
 35 34  2  0  0  0  0
 37 36  1  0  0  0  0
M  END
>  <MODEL>
3

>  <REMARK>
 VINA RESULT:      -8.9      2.866      6.326
  Name = 
  3 active torsions:
  status: ('A' for Active; 'I' for Inactive)
    1  A    between atoms: C_5  and  O_23
    2  A    between atoms: C_6  and  C_31
    3  A    between atoms: C_11  and  C_26
                            x       y       z     vdW  Elec       q    Type
                         _______ _______ _______ _____ _____    ______ ____

>  <TORSDO>
F 3

$$$$
=
 OpenBabel10272414443D

 37 43  0  0  1  0  0  0  0  0999 V2000
  187.0880  175.3370  136.9850 C   0  0  0  0  0  2  0  0  0  0  0  0
  191.5240  172.7530  134.9490 C   0  0  0  0  0  2  0  0  0  0  0  0
  191.6190  176.0300  137.9460 C   0  0  0  0  0  0  0  0  0  0  0  0
  186.4330  175.9930  135.7590 C   0  0  2  0  0  3  0  0  0  0  0  0
  189.0770  177.9070  139.8850 N   0  0  0  0  0  0  0  0  0  0  0  0
  192.4390  174.7930  136.0160 C   0  0  0  0  0  0  0  0  0  0  0  0
  190.3820  176.4600  138.4190 C   0  0  0  0  0  0  0  0  0  0  0  0
  191.3830  175.3780  136.7480 C   0  0  0  0  0  0  0  0  0  0  0  0
  190.0920  177.1110  139.7080 C   0  0  0  0  0  0  0  0  0  0  0  0
  193.7340  174.8890  136.5410 C   0  0  0  0  0  3  0  0  0  0  0  0
  186.1160  177.4990  135.8910 C   0  0  0  0  0  2  0  0  0  0  0  0
  190.0600  175.3870  136.4580 N   0  0  0  0  0  0  0  0  0  0  0  0
  189.3960  173.3270  135.3180 C   0  0  0  0  0  2  0  0  0  0  0  0
  193.2480  176.8290  139.6900 N   0  0  0  0  0  2  0  0  0  0  0  0
  193.9730  175.5570  137.7510 C   0  0  0  0  0  3  0  0  0  0  0  0
  189.4110  174.8490  135.2650 C   0  0  0  0  0  2  0  0  0  0  0  0
  186.2610  178.0520  137.3170 C   0  0  2  0  0  3  0  0  0  0  0  0
  187.9890  178.2540  139.0140 C   0  0  0  0  0  3  0  0  0  0  0  0
  192.9250  176.1480  138.4710 C   0  0  0  0  0  0  0  0  0  0  0  0
  189.4520  176.0450  137.4810 C   0  0  0  0  0  0  0  0  0  0  0  0
  192.2580  174.0670  134.7230 C   0  0  0  0  0  2  0  0  0  0  0  0
  191.0970  176.9520  140.8120 C   0  0  1  0  0  3  0  0  0  0  0  0
  190.2620  172.8130  134.3460 O   0  0  0  0  0  0  0  0  0  0  0  0
  187.5150  177.5460  137.9830 C   0  0  0  0  0  0  0  0  0  0  0  0
  188.0370  176.2680  137.5890 N   0  0  0  0  0  0  0  0  0  0  0  0
  192.3630  177.6970  140.4500 C   0  0  0  0  0  2  0  0  0  0  0  0
  191.3070  178.4050  142.9780 C   0  0  0  0  0  2  0  0  0  0  0  0
  190.5910  177.3350  142.1720 C   0  0  0  0  0  0  0  0  0  0  0  0
  189.4650  176.7640  142.6090 C   0  0  0  0  0  3  0  0  0  0  0  0
  187.8320  176.5820  144.3080 O   0  0  0  0  0  0  0  0  0  0  0  0
  189.6140  178.0610  144.7790 C   0  0  0  0  0  3  0  0  0  0  0  0
  188.9060  177.1090  143.9200 C   0  0  0  0  0  0  0  0  0  0  0  0
  190.7310  178.6510  144.3510 C   0  0  0  0  0  3  0  0  0  0  0  0
  185.0410  177.7200  138.1220 C   0  0  0  0  0  3  0  0  0  0  0  0
  184.4540  178.5880  138.7470 O   0  0  0  0  0  0  0  0  0  0  0  0
  184.7570  174.5110  136.2260 C   0  0  0  0  0  1  0  0  0  0  0  0
  185.3830  175.2350  135.2000 O   0  0  0  0  0  0  0  0  0  0  0  0
  1 25  1  0  0  0  0
  3  7  1  0  0  0  0
  3 19  1  0  0  0  0
  4 37  1  1  0  0  0
  4 11  1  0  0  0  0
  4  1  1  0  0  0  0
  6 10  2  0  0  0  0
  6  8  1  0  0  0  0
  7  9  1  0  0  0  0
  8  3  2  0  0  0  0
  9  5  2  0  0  0  0
  9 22  1  0  0  0  0
 10 15  1  0  0  0  0
 11 17  1  0  0  0  0
 12  8  1  0  0  0  0
 12 20  1  0  0  0  0
 14 26  1  0  0  0  0
 15 19  2  0  0  0  0
 16 13  1  0  0  0  0
 16 12  1  0  0  0  0
 17 24  1  0  0  0  0
 17 34  1  1  0  0  0
 18  5  1  0  0  0  0
 19 14  1  0  0  0  0
 20 25  1  0  0  0  0
 20  7  2  0  0  0  0
 21  2  1  0  0  0  0
 21  6  1  0  0  0  0
 22 28  1  1  0  0  0
 23  2  1  0  0  0  0
 23 13  1  0  0  0  0
 24 18  2  0  0  0  0
 25 24  1  0  0  0  0
 26 22  1  0  0  0  0
 27 33  1  0  0  0  0
 28 29  2  0  0  0  0
 28 27  1  0  0  0  0
 29 32  1  0  0  0  0
 32 30  2  0  0  0  0
 32 31  1  0  0  0  0
 33 31  2  0  0  0  0
 34 35  2  0  0  0  0
 37 36  1  0  0  0  0
M  END
>  <MODEL>
4

>  <REMARK>
 VINA RESULT:      -8.7      3.582      7.719
  Name = 
  3 active torsions:
  status: ('A' for Active; 'I' for Inactive)
    1  A    between atoms: C_5  and  O_23
    2  A    between atoms: C_6  and  C_31
    3  A    between atoms: C_11  and  C_26
                            x       y       z     vdW  Elec       q    Type
                         _______ _______ _______ _____ _____    ______ ____

>  <TORSDO>
F 3

$$$$
=
 OpenBabel10272414443D

 37 43  0  0  1  0  0  0  0  0999 V2000
  188.7070  176.8430  138.8490 C   0  0  0  0  0  2  0  0  0  0  0  0
  189.9640  176.4450  144.2120 C   0  0  0  0  0  2  0  0  0  0  0  0
  186.2030  178.1570  142.5820 C   0  0  0  0  0  0  0  0  0  0  0  0
  189.7970  177.7580  138.2690 C   0  0  2  0  0  3  0  0  0  0  0  0
  184.6660  178.4230  139.2180 N   0  0  0  0  0  0  0  0  0  0  0  0
  188.0670  178.0390  144.1430 C   0  0  0  0  0  0  0  0  0  0  0  0
  186.0300  178.0490  141.2040 C   0  0  0  0  0  0  0  0  0  0  0  0
  187.5570  178.0070  142.8270 C   0  0  0  0  0  0  0  0  0  0  0  0
  184.7610  178.0360  140.4580 C   0  0  0  0  0  0  0  0  0  0  0  0
  187.1600  178.2230  145.1950 C   0  0  0  0  0  3  0  0  0  0  0  0
  189.2940  178.9590  137.4380 C   0  0  0  0  0  2  0  0  0  0  0  0
  188.2280  177.8140  141.6670 N   0  0  0  0  0  0  0  0  0  0  0  0
  190.1180  176.2930  141.9880 C   0  0  0  0  0  2  0  0  0  0  0  0
  183.8760  178.5520  143.4560 N   0  0  0  0  0  2  0  0  0  0  0  0
  185.7900  178.3830  144.9440 C   0  0  0  0  0  3  0  0  0  0  0  0
  189.6710  177.6630  141.4930 C   0  0  0  0  0  2  0  0  0  0  0  0
  187.7980  178.9090  137.0970 C   0  0  2  0  0  3  0  0  0  0  0  0
  185.6740  178.8190  138.2750 C   0  0  0  0  0  3  0  0  0  0  0  0
  185.2860  178.3640  143.6360 C   0  0  0  0  0  0  0  0  0  0  0  0
  187.2940  177.8370  140.6790 C   0  0  0  0  0  0  0  0  0  0  0  0
  189.5130  177.8740  144.4830 C   0  0  0  0  0  2  0  0  0  0  0  0
  183.5110  177.6920  141.2140 C   0  0  1  0  0  3  0  0  0  0  0  0
  190.8790  176.4390  143.1540 O   0  0  0  0  0  0  0  0  0  0  0  0
  186.9710  178.4950  138.2880 C   0  0  0  0  0  0  0  0  0  0  0  0
  187.5710  177.6500  139.2820 N   0  0  0  0  0  0  0  0  0  0  0  0
  183.1970  178.8000  142.1950 C   0  0  0  0  0  2  0  0  0  0  0  0
  181.2110  178.3710  140.1670 C   0  0  0  0  0  2  0  0  0  0  0  0
  182.3310  177.3620  140.3460 C   0  0  0  0  0  0  0  0  0  0  0  0
  182.3390  176.1980  139.6910 C   0  0  0  0  0  3  0  0  0  0  0  0
  181.2580  174.7350  138.1810 O   0  0  0  0  0  0  0  0  0  0  0  0
  180.0740  176.7170  138.6820 C   0  0  0  0  0  3  0  0  0  0  0  0
  181.2260  175.8230  138.8110 C   0  0  0  0  0  0  0  0  0  0  0  0
  180.0590  177.8890  139.3190 C   0  0  0  0  0  3  0  0  0  0  0  0
  187.5690  177.9980  135.9280 C   0  0  0  0  0  3  0  0  0  0  0  0
  186.8520  178.3430  135.0030 O   0  0  0  0  0  0  0  0  0  0  0  0
  191.0210  175.8290  138.3270 C   0  0  0  0  0  1  0  0  0  0  0  0
  190.8700  177.0620  137.6740 O   0  0  0  0  0  0  0  0  0  0  0  0
  1 25  1  0  0  0  0
  2 21  1  0  0  0  0
  3  8  2  0  0  0  0
  3 19  1  0  0  0  0
  4 37  1  6  0  0  0
  4  1  1  0  0  0  0
  5  9  2  0  0  0  0
  6 21  1  0  0  0  0
  6 10  2  0  0  0  0
  7  3  1  0  0  0  0
  8  6  1  0  0  0  0
  9  7  1  0  0  0  0
  9 22  1  0  0  0  0
 11  4  1  0  0  0  0
 12  8  1  0  0  0  0
 13 23  1  0  0  0  0
 14 19  1  0  0  0  0
 15 10  1  0  0  0  0
 16 12  1  0  0  0  0
 16 13  1  0  0  0  0
 17 34  1  6  0  0  0
 17 11  1  0  0  0  0
 17 24  1  0  0  0  0
 18 24  2  0  0  0  0
 18  5  1  0  0  0  0
 19 15  2  0  0  0  0
 20  7  2  0  0  0  0
 20 12  1  0  0  0  0
 22 28  1  6  0  0  0
 22 26  1  0  0  0  0
 23  2  1  0  0  0  0
 24 25  1  0  0  0  0
 25 20  1  0  0  0  0
 26 14  1  0  0  0  0
 27 28  1  0  0  0  0
 29 28  2  0  0  0  0
 30 32  2  0  0  0  0
 31 32  1  0  0  0  0
 31 33  2  0  0  0  0
 32 29  1  0  0  0  0
 33 27  1  0  0  0  0
 35 34  2  0  0  0  0
 37 36  1  0  0  0  0
M  END
>  <MODEL>
5

>  <REMARK>
 VINA RESULT:      -8.6      2.175      3.283
  Name = 
  3 active torsions:
  status: ('A' for Active; 'I' for Inactive)
    1  A    between atoms: C_5  and  O_23
    2  A    between atoms: C_6  and  C_31
    3  A    between atoms: C_11  and  C_26
                            x       y       z     vdW  Elec       q    Type
                         _______ _______ _______ _____ _____    ______ ____

>  <TORSDO>
F 3

$$$$
=
 OpenBabel10272414443D

 37 43  0  0  1  0  0  0  0  0999 V2000
  182.7170  176.9430  139.3180 C   0  0  0  0  0  2  0  0  0  0  0  0
  185.1150  175.7130  134.4980 C   0  0  0  0  0  2  0  0  0  0  0  0
  187.0440  177.9330  137.8260 C   0  0  0  0  0  0  0  0  0  0  0  0
  181.5270  177.8370  138.9350 C   0  0  2  0  0  3  0  0  0  0  0  0
  186.1220  178.7820  141.3160 N   0  0  0  0  0  0  0  0  0  0  0  0
  186.5800  177.4500  135.4860 C   0  0  0  0  0  0  0  0  0  0  0  0
  186.3070  178.0290  139.0040 C   0  0  0  0  0  0  0  0  0  0  0  0
  186.1450  177.6400  136.8150 C   0  0  0  0  0  0  0  0  0  0  0  0
  186.8210  178.2220  140.3700 C   0  0  0  0  0  0  0  0  0  0  0  0
  187.9510  177.5620  135.2210 C   0  0  0  0  0  3  0  0  0  0  0  0
  181.4210  179.1780  139.6950 C   0  0  0  0  0  2  0  0  0  0  0  0
  184.8890  177.5540  137.3120 N   0  0  0  0  0  0  0  0  0  0  0  0
  183.5890  175.8550  136.1240 C   0  0  0  0  0  2  0  0  0  0  0  0
  189.4100  178.3920  138.5520 N   0  0  0  0  0  2  0  0  0  0  0  0
  188.8600  177.8660  136.2450 C   0  0  0  0  0  3  0  0  0  0  0  0
  183.6570  177.3110  136.5660 C   0  0  0  0  0  2  0  0  0  0  0  0
  182.3660  179.2960  140.9000 C   0  0  2  0  0  3  0  0  0  0  0  0
  184.7550  179.2200  141.3420 C   0  0  0  0  0  3  0  0  0  0  0  0
  188.4260  178.0670  137.5620 C   0  0  0  0  0  0  0  0  0  0  0  0
  184.9910  177.7880  138.6470 C   0  0  0  0  0  0  0  0  0  0  0  0
  185.6690  177.1230  134.3470 C   0  0  0  0  0  2  0  0  0  0  0  0
  188.2600  177.8810  140.6290 C   0  0  1  0  0  3  0  0  0  0  0  0
  183.7370  175.7770  134.7340 O   0  0  0  0  0  0  0  0  0  0  0  0
  183.7490  178.7920  140.5730 C   0  0  0  0  0  0  0  0  0  0  0  0
  183.8910  177.7730  139.5710 N   0  0  0  0  0  0  0  0  0  0  0  0
  189.1480  178.8650  139.9010 C   0  0  0  0  0  2  0  0  0  0  0  0
  187.7970  176.8890  143.0060 C   0  0  0  0  0  2  0  0  0  0  0  0
  188.6200  177.7700  142.0830 C   0  0  0  0  0  0  0  0  0  0  0  0
  189.7140  178.4050  142.5100 C   0  0  0  0  0  3  0  0  0  0  0  0
  191.1780  178.9050  144.2970 O   0  0  0  0  0  0  0  0  0  0  0  0
  189.3160  177.5660  144.8660 C   0  0  0  0  0  3  0  0  0  0  0  0
  190.1320  178.3220  143.9140 C   0  0  0  0  0  0  0  0  0  0  0  0
  188.2290  176.9140  144.4520 C   0  0  0  0  0  3  0  0  0  0  0  0
  181.7860  178.5760  142.0800 C   0  0  0  0  0  3  0  0  0  0  0  0
  181.6000  179.1600  143.1350 O   0  0  0  0  0  0  0  0  0  0  0  0
  180.4150  175.9280  139.5200 C   0  0  0  0  0  1  0  0  0  0  0  0
  180.3040  177.1440  138.8270 O   0  0  0  0  0  0  0  0  0  0  0  0
  1 25  1  0  0  0  0
  2 23  1  0  0  0  0
  3  7  1  0  0  0  0
  4 37  1  1  0  0  0
  4  1  1  0  0  0  0
  4 11  1  0  0  0  0
  5 18  1  0  0  0  0
  6  8  1  0  0  0  0
  7  9  1  0  0  0  0
  8 12  1  0  0  0  0
  8  3  2  0  0  0  0
  9 22  1  0  0  0  0
  9  5  2  0  0  0  0
 10  6  2  0  0  0  0
 10 15  1  0  0  0  0
 11 17  1  0  0  0  0
 12 20  1  0  0  0  0
 13 16  1  0  0  0  0
 14 26  1  0  0  0  0
 15 19  2  0  0  0  0
 16 12  1  0  0  0  0
 17 34  1  1  0  0  0
 19  3  1  0  0  0  0
 19 14  1  0  0  0  0
 20  7  2  0  0  0  0
 20 25  1  0  0  0  0
 21  2  1  0  0  0  0
 21  6  1  0  0  0  0
 22 28  1  1  0  0  0
 23 13  1  0  0  0  0
 24 17  1  0  0  0  0
 24 18  2  0  0  0  0
 25 24  1  0  0  0  0
 26 22  1  0  0  0  0
 27 33  1  0  0  0  0
 28 29  2  0  0  0  0
 28 27  1  0  0  0  0
 29 32  1  0  0  0  0
 32 30  2  0  0  0  0
 32 31  1  0  0  0  0
 33 31  2  0  0  0  0
 34 35  2  0  0  0  0
 37 36  1  0  0  0  0
M  END
>  <MODEL>
6

>  <REMARK>
 VINA RESULT:      -8.2      2.965      8.499
  Name = 
  3 active torsions:
  status: ('A' for Active; 'I' for Inactive)
    1  A    between atoms: C_5  and  O_23
    2  A    between atoms: C_6  and  C_31
    3  A    between atoms: C_11  and  C_26
                            x       y       z     vdW  Elec       q    Type
                         _______ _______ _______ _____ _____    ______ ____

>  <TORSDO>
F 3

$$$$
=
 OpenBabel10272414443D

 37 43  0  0  1  0  0  0  0  0999 V2000
  184.9120  177.0800  138.6500 C   0  0  0  0  0  2  0  0  0  0  0  0
  189.3560  175.1570  135.9950 C   0  0  0  0  0  2  0  0  0  0  0  0
  189.4360  177.4360  139.8070 C   0  0  0  0  0  0  0  0  0  0  0  0
  184.2720  178.0640  137.6590 C   0  0  2  0  0  3  0  0  0  0  0  0
  186.8830  178.6940  142.1820 N   0  0  0  0  0  0  0  0  0  0  0  0
  190.2700  176.7990  137.6100 C   0  0  0  0  0  0  0  0  0  0  0  0
  188.1960  177.7200  140.3740 C   0  0  0  0  0  0  0  0  0  0  0  0
  189.2090  177.1560  138.4700 C   0  0  0  0  0  0  0  0  0  0  0  0
  187.8960  177.9760  141.7920 C   0  0  0  0  0  0  0  0  0  0  0  0
  191.5600  176.7310  138.1510 C   0  0  0  0  0  3  0  0  0  0  0  0
  183.9610  179.4710  138.2150 C   0  0  0  0  0  2  0  0  0  0  0  0
  187.8900  177.2580  138.1840 N   0  0  0  0  0  0  0  0  0  0  0  0
  187.2280  175.6170  136.4950 C   0  0  0  0  0  2  0  0  0  0  0  0
  191.0510  177.6880  141.7210 N   0  0  0  0  0  2  0  0  0  0  0  0
  191.7900  177.0220  139.5040 C   0  0  0  0  0  3  0  0  0  0  0  0
  187.2500  177.0900  136.8820 C   0  0  0  0  0  2  0  0  0  0  0  0
  184.0940  179.5910  139.7410 C   0  0  2  0  0  3  0  0  0  0  0  0
  185.8060  179.2850  141.4380 C   0  0  0  0  0  3  0  0  0  0  0  0
  190.7370  177.3880  140.3540 C   0  0  0  0  0  0  0  0  0  0  0  0
  187.2740  177.5980  139.3480 C   0  0  0  0  0  0  0  0  0  0  0  0
  190.0990  176.4760  136.1610 C   0  0  0  0  0  2  0  0  0  0  0  0
  188.8900  177.4990  142.8120 C   0  0  1  0  0  3  0  0  0  0  0  0
  188.1020  175.3980  135.4230 O   0  0  0  0  0  0  0  0  0  0  0  0
  185.3390  178.9060  140.2440 C   0  0  0  0  0  0  0  0  0  0  0  0
  185.8590  177.7910  139.5030 N   0  0  0  0  0  0  0  0  0  0  0  0
  190.1620  178.3070  142.6900 C   0  0  0  0  0  2  0  0  0  0  0  0
  186.8860  177.3100  144.4840 C   0  0  0  0  0  2  0  0  0  0  0  0
  188.3720  177.4790  144.2210 C   0  0  0  0  0  0  0  0  0  0  0  0
  189.2580  177.5410  145.2190 C   0  0  0  0  0  3  0  0  0  0  0  0
  189.6670  177.5410  147.5470 O   0  0  0  0  0  0  0  0  0  0  0  0
  187.3890  177.4450  146.9250 C   0  0  0  0  0  3  0  0  0  0  0  0
  188.8190  177.5070  146.6180 C   0  0  0  0  0  0  0  0  0  0  0  0
  186.4930  177.3680  145.9400 C   0  0  0  0  0  3  0  0  0  0  0  0
  182.8640  179.0500  140.4060 C   0  0  0  0  0  3  0  0  0  0  0  0
  181.7630  179.2180  139.9080 O   0  0  0  0  0  0  0  0  0  0  0  0
  182.6310  176.4730  137.6380 C   0  0  0  0  0  1  0  0  0  0  0  0
  183.2240  177.5070  136.8970 O   0  0  0  0  0  0  0  0  0  0  0  0
  1 25  1  0  0  0  0
  2 21  1  0  0  0  0
  3 19  1  0  0  0  0
  3  7  1  0  0  0  0
  4 37  1  1  0  0  0
  4 11  1  0  0  0  0
  4  1  1  0  0  0  0
  6 10  2  0  0  0  0
  6  8  1  0  0  0  0
  7  9  1  0  0  0  0
  8  3  2  0  0  0  0
  9  5  2  0  0  0  0
  9 22  1  0  0  0  0
 10 15  1  0  0  0  0
 11 17  1  0  0  0  0
 12  8  1  0  0  0  0
 12 20  1  0  0  0  0
 13 16  1  0  0  0  0
 14 26  1  0  0  0  0
 15 19  2  0  0  0  0
 16 12  1  0  0  0  0
 17 24  1  0  0  0  0
 17 34  1  1  0  0  0
 18  5  1  0  0  0  0
 19 14  1  0  0  0  0
 20 25  1  0  0  0  0
 20  7  2  0  0  0  0
 21  6  1  0  0  0  0
 22 28  1  1  0  0  0
 23  2  1  0  0  0  0
 23 13  1  0  0  0  0
 24 18  2  0  0  0  0
 25 24  1  0  0  0  0
 26 22  1  0  0  0  0
 27 33  1  0  0  0  0
 28 27  1  0  0  0  0
 28 29  2  0  0  0  0
 29 32  1  0  0  0  0
 32 31  1  0  0  0  0
 32 30  2  0  0  0  0
 33 31  2  0  0  0  0
 35 34  2  0  0  0  0
 37 36  1  0  0  0  0
M  END
>  <MODEL>
7

>  <REMARK>
 VINA RESULT:      -8.1      2.443      6.711
  Name = 
  3 active torsions:
  status: ('A' for Active; 'I' for Inactive)
    1  A    between atoms: C_5  and  O_23
    2  A    between atoms: C_6  and  C_31
    3  A    between atoms: C_11  and  C_26
                            x       y       z     vdW  Elec       q    Type
                         _______ _______ _______ _____ _____    ______ ____

>  <TORSDO>
F 3

$$$$
=
 OpenBabel10272414443D

 37 43  0  0  1  0  0  0  0  0999 V2000
  189.2800  176.4700  139.9440 C   0  0  0  0  0  2  0  0  0  0  0  0
  190.8380  175.8070  145.2010 C   0  0  0  0  0  2  0  0  0  0  0  0
  187.3080  178.1390  143.8500 C   0  0  0  0  0  0  0  0  0  0  0  0
  190.4620  177.1970  139.2850 C   0  0  2  0  0  3  0  0  0  0  0  0
  185.5960  178.6960  140.6080 N   0  0  0  0  0  0  0  0  0  0  0  0
  189.2340  177.6950  145.2700 C   0  0  0  0  0  0  0  0  0  0  0  0
  187.0200  178.0770  142.4890 C   0  0  0  0  0  0  0  0  0  0  0  0
  188.6320  177.7630  143.9950 C   0  0  0  0  0  0  0  0  0  0  0  0
  185.7150  178.2830  141.8380 C   0  0  0  0  0  0  0  0  0  0  0  0
  188.4490  178.0150  146.3860 C   0  0  0  0  0  3  0  0  0  0  0  0
  190.1070  178.4740  138.4920 C   0  0  0  0  0  2  0  0  0  0  0  0
  189.1750  177.4740  142.7890 N   0  0  0  0  0  0  0  0  0  0  0  0
  190.8030  175.6570  142.9720 C   0  0  0  0  0  2  0  0  0  0  0  0
  185.1490  178.9060  144.8930 N   0  0  0  0  0  2  0  0  0  0  0  0
  187.1100  178.4040  146.2360 C   0  0  0  0  0  3  0  0  0  0  0  0
  190.5560  177.0880  142.5100 C   0  0  0  0  0  2  0  0  0  0  0  0
  188.6030  178.6770  138.2620 C   0  0  2  0  0  3  0  0  0  0  0  0
  186.5850  178.9290  139.5940 C   0  0  0  0  0  3  0  0  0  0  0  0
  186.5160  178.4830  144.9690 C   0  0  0  0  0  0  0  0  0  0  0  0
  188.1890  177.6630  141.8730 C   0  0  0  0  0  0  0  0  0  0  0  0
  190.6530  177.2880  145.5030 C   0  0  0  0  0  2  0  0  0  0  0  0
  184.4830  178.1440  142.6850 C   0  0  1  0  0  3  0  0  0  0  0  0
  191.6610  175.6610  144.0780 O   0  0  0  0  0  0  0  0  0  0  0  0
  187.8070  178.3930  139.5110 C   0  0  0  0  0  0  0  0  0  0  0  0
  188.3280  177.4490  140.4590 N   0  0  0  0  0  0  0  0  0  0  0  0
  184.4300  179.2770  143.6850 C   0  0  0  0  0  2  0  0  0  0  0  0
  181.9690  178.7880  142.3470 C   0  0  0  0  0  2  0  0  0  0  0  0
  183.2050  178.0240  141.9060 C   0  0  0  0  0  0  0  0  0  0  0  0
  183.2150  177.2920  140.7890 C   0  0  0  0  0  3  0  0  0  0  0  0
  182.0360  176.4780  138.9090 O   0  0  0  0  0  0  0  0  0  0  0  0
  180.7600  177.7850  140.4080 C   0  0  0  0  0  3  0  0  0  0  0  0
  182.0060  177.1500  139.9710 C   0  0  0  0  0  0  0  0  0  0  0  0
  180.7380  178.5320  141.5130 C   0  0  0  0  0  3  0  0  0  0  0  0
  188.1400  177.8310  137.1140 C   0  0  0  0  0  3  0  0  0  0  0  0
  187.6340  178.3420  136.1290 O   0  0  0  0  0  0  0  0  0  0  0  0
  190.6160  175.4250  137.8500 C   0  0  0  0  0  1  0  0  0  0  0  0
  191.3580  176.3390  138.6140 O   0  0  0  0  0  0  0  0  0  0  0  0
  1 25  1  0  0  0  0
  2 21  1  0  0  0  0
  3  8  2  0  0  0  0
  3 19  1  0  0  0  0
  4 37  1  6  0  0  0
  4  1  1  0  0  0  0
  5  9  2  0  0  0  0
  6 21  1  0  0  0  0
  6 10  2  0  0  0  0
  7  3  1  0  0  0  0
  8  6  1  0  0  0  0
  9  7  1  0  0  0  0
  9 22  1  0  0  0  0
 11  4  1  0  0  0  0
 12  8  1  0  0  0  0
 13 23  1  0  0  0  0
 14 19  1  0  0  0  0
 15 10  1  0  0  0  0
 16 12  1  0  0  0  0
 16 13  1  0  0  0  0
 17 34  1  6  0  0  0
 17 11  1  0  0  0  0
 17 24  1  0  0  0  0
 18  5  1  0  0  0  0
 19 15  2  0  0  0  0
 20  7  2  0  0  0  0
 20 12  1  0  0  0  0
 22 28  1  6  0  0  0
 22 26  1  0  0  0  0
 23  2  1  0  0  0  0
 24 18  2  0  0  0  0
 24 25  1  0  0  0  0
 25 20  1  0  0  0  0
 26 14  1  0  0  0  0
 28 27  1  0  0  0  0
 29 28  2  0  0  0  0
 30 32  2  0  0  0  0
 31 33  2  0  0  0  0
 32 31  1  0  0  0  0
 32 29  1  0  0  0  0
 33 27  1  0  0  0  0
 35 34  2  0  0  0  0
 36 37  1  0  0  0  0
M  END
>  <MODEL>
8

>  <REMARK>
 VINA RESULT:      -8.1      1.316      1.676
  Name = 
  3 active torsions:
  status: ('A' for Active; 'I' for Inactive)
    1  A    between atoms: C_5  and  O_23
    2  A    between atoms: C_6  and  C_31
    3  A    between atoms: C_11  and  C_26
                            x       y       z     vdW  Elec       q    Type
                         _______ _______ _______ _____ _____    ______ ____

>  <TORSDO>
F 3

$$$$
=
 OpenBabel10272414443D

 37 43  0  0  1  0  0  0  0  0999 V2000
  188.4850  176.8850  140.0170 C   0  0  0  0  0  2  0  0  0  0  0  0
  188.5170  176.9260  145.5400 C   0  0  0  0  0  2  0  0  0  0  0  0
  185.1970  178.4050  142.9860 C   0  0  0  0  0  0  0  0  0  0  0  0
  189.6680  177.7840  139.6230 C   0  0  2  0  0  3  0  0  0  0  0  0
  184.4470  178.3750  139.3550 N   0  0  0  0  0  0  0  0  0  0  0  0
  186.6670  178.4560  144.9260 C   0  0  0  0  0  0  0  0  0  0  0  0
  185.3380  178.1890  141.6170 C   0  0  0  0  0  0  0  0  0  0  0  0
  186.4640  178.3110  143.5360 C   0  0  0  0  0  0  0  0  0  0  0  0
  184.2670  178.0850  140.6110 C   0  0  0  0  0  0  0  0  0  0  0  0
  185.5460  178.6940  145.7320 C   0  0  0  0  0  3  0  0  0  0  0  0
  189.3500  178.9050  138.6080 C   0  0  0  0  0  2  0  0  0  0  0  0
  187.3790  178.0510  142.5730 N   0  0  0  0  0  0  0  0  0  0  0  0
  189.1650  176.6110  143.4250 C   0  0  0  0  0  2  0  0  0  0  0  0
  182.7300  178.8000  143.2880 N   0  0  0  0  0  2  0  0  0  0  0  0
  184.2650  178.7960  145.1720 C   0  0  0  0  0  3  0  0  0  0  0  0
  188.8250  177.9270  142.7360 C   0  0  0  0  0  2  0  0  0  0  0  0
  187.9680  178.7870  137.9490 C   0  0  2  0  0  3  0  0  0  0  0  0
  185.6360  178.7280  138.6310 C   0  0  0  0  0  3  0  0  0  0  0  0
  184.0660  178.6650  143.7910 C   0  0  0  0  0  0  0  0  0  0  0  0
  186.6890  177.9730  141.4050 C   0  0  0  0  0  0  0  0  0  0  0  0
  188.0020  178.3580  145.5900 C   0  0  0  0  0  2  0  0  0  0  0  0
  182.8830  177.7640  141.0970 C   0  0  1  0  0  3  0  0  0  0  0  0
  189.6450  176.8650  144.7150 O   0  0  0  0  0  0  0  0  0  0  0  0
  186.9010  178.4410  138.9560 C   0  0  0  0  0  0  0  0  0  0  0  0
  187.2720  177.6900  140.1230 N   0  0  0  0  0  0  0  0  0  0  0  0
  182.3460  178.9330  141.8930 C   0  0  0  0  0  2  0  0  0  0  0  0
  180.9900  178.3490  139.3880 C   0  0  0  0  0  2  0  0  0  0  0  0
  181.9300  177.3370  140.0180 C   0  0  0  0  0  0  0  0  0  0  0  0
  181.9910  176.0730  139.5890 C   0  0  0  0  0  3  0  0  0  0  0  0
  181.1870  174.4110  138.1130 O   0  0  0  0  0  0  0  0  0  0  0  0
  180.1070  176.5070  137.9530 C   0  0  0  0  0  3  0  0  0  0  0  0
  181.1020  175.5970  138.5240 C   0  0  0  0  0  0  0  0  0  0  0  0
  180.0450  177.7750  138.3600 C   0  0  0  0  0  3  0  0  0  0  0  0
  188.0150  177.7850  136.8350 C   0  0  0  0  0  3  0  0  0  0  0  0
  189.0090  177.6800  136.1350 O   0  0  0  0  0  0  0  0  0  0  0  0
  191.7640  177.2870  140.3850 C   0  0  0  0  0  1  0  0  0  0  0  0
  190.8530  177.0750  139.3380 O   0  0  0  0  0  0  0  0  0  0  0  0
  1 25  1  0  0  0  0
  2 21  1  0  0  0  0
  3  8  2  0  0  0  0
  3 19  1  0  0  0  0
  4 37  1  6  0  0  0
  4  1  1  0  0  0  0
  5  9  2  0  0  0  0
  6 21  1  0  0  0  0
  6 10  2  0  0  0  0
  7  3  1  0  0  0  0
  8  6  1  0  0  0  0
  9 22  1  0  0  0  0
  9  7  1  0  0  0  0
 11  4  1  0  0  0  0
 12 16  1  0  0  0  0
 12  8  1  0  0  0  0
 13 23  1  0  0  0  0
 14 19  1  0  0  0  0
 15 10  1  0  0  0  0
 16 13  1  0  0  0  0
 17 34  1  6  0  0  0
 17 11  1  0  0  0  0
 17 24  1  0  0  0  0
 18 24  2  0  0  0  0
 18  5  1  0  0  0  0
 19 15  2  0  0  0  0
 20  7  2  0  0  0  0
 20 12  1  0  0  0  0
 22 28  1  6  0  0  0
 22 26  1  0  0  0  0
 23  2  1  0  0  0  0
 24 25  1  0  0  0  0
 25 20  1  0  0  0  0
 26 14  1  0  0  0  0
 27 28  1  0  0  0  0
 29 28  2  0  0  0  0
 30 32  2  0  0  0  0
 31 33  2  0  0  0  0
 31 32  1  0  0  0  0
 32 29  1  0  0  0  0
 33 27  1  0  0  0  0
 35 34  2  0  0  0  0
 37 36  1  0  0  0  0
M  END
>  <MODEL>
9

>  <REMARK>
 VINA RESULT:      -8.0      2.298      3.655
  Name = 
  3 active torsions:
  status: ('A' for Active; 'I' for Inactive)
    1  A    between atoms: C_5  and  O_23
    2  A    between atoms: C_6  and  C_31
    3  A    between atoms: C_11  and  C_26
                            x       y       z     vdW  Elec       q    Type
                         _______ _______ _______ _____ _____    ______ ____

>  <TORSDO>
F 3

$$$$
