=
 OpenBabel10272400443D

 25 27  0  0  1  0  0  0  0  0999 V2000
  186.4740  178.0610  146.4220 C   0  0  1  0  0  3  0  0  0  0  0  0
  187.7400  177.2500  146.1050 C   0  0  1  0  0  3  0  0  0  0  0  0
  187.9420  179.1840  148.1970 C   0  0  0  0  0  2  0  0  0  0  0  0
  188.1650  177.7270  148.5980 C   0  0  0  0  0  2  0  0  0  0  0  0
  189.9620  176.8660  146.9280 C   0  0  0  0  0  0  0  0  0  0  0  0
  190.4530  175.4360  146.8290 C   0  0  0  0  0  1  0  0  0  0  0  0
  188.6080  177.9730  145.2710 O   0  0  0  0  0  0  0  0  0  0  0  0
  186.7570  179.3330  147.2360 C   0  0  0  0  0  2  0  0  0  0  0  0
  190.8960  177.6230  147.8760 C   0  0  0  0  0  1  0  0  0  0  0  0
  189.8880  177.4500  145.5130 C   0  0  1  0  0  3  0  0  0  0  0  0
  188.5050  176.8490  147.3710 C   0  0  2  0  0  3  0  0  0  0  0  0
  185.6330  178.3390  145.2090 C   0  0  0  0  0  0  0  0  0  0  0  0
  183.7930  178.3910  143.0160 C   0  0  0  0  0  2  0  0  0  0  0  0
  184.3610  179.1590  145.3270 C   0  0  1  0  0  3  0  0  0  0  0  0
  183.7920  179.5760  143.9700 C   0  0  0  0  0  2  0  0  0  0  0  0
  185.2340  177.9630  142.7660 C   0  0  0  0  0  2  0  0  0  0  0  0
  183.4040  178.4460  146.0270 F   0  0  0  0  0  0  0  0  0  0  0  0
  185.9780  177.7400  144.0570 C   0  0  0  0  0  3  0  0  0  0  0  0
  191.2040  178.6350  145.0310 S   0  0  0  0  0  0  0  0  0  0  0  0
  191.8730  177.5930  143.6930 C   0  0  0  0  0  2  0  0  0  0  0  0
  191.0190  177.7180  142.4430 C   0  0  1  0  0  3  0  0  0  0  0  0
  191.8400  177.6930  141.3170 O   0  0  0  0  0  1  0  0  0  0  0  0
  190.0330  176.6010  142.3690 C   0  0  0  0  0  0  0  0  0  0  0  0
  188.7230  176.8430  141.9730 O   0  0  0  0  0  0  0  0  0  0  0  0
  190.3930  175.4300  142.6560 O   0  0  0  0  0  1  0  0  0  0  0  0
  1 12  1  6  0  0  0
  1  8  1  0  0  0  0
  2  7  1  6  0  0  0
  2  1  1  0  0  0  0
  2 11  1  0  0  0  0
  3  4  1  0  0  0  0
  5 11  1  0  0  0  0
  5  9  1  0  0  0  0
  6  5  1  0  0  0  0
  7 10  1  0  0  0  0
  8  3  1  0  0  0  0
 10 19  1  1  0  0  0
 10  5  1  0  0  0  0
 11  4  1  1  0  0  0
 12 14  1  0  0  0  0
 13 15  1  0  0  0  0
 14 17  1  6  0  0  0
 15 14  1  0  0  0  0
 16 13  1  0  0  0  0
 16 18  1  0  0  0  0
 18 12  2  0  0  0  0
 20 19  1  0  0  0  0
 21 22  1  6  0  0  0
 21 20  1  0  0  0  0
 23 21  1  0  0  0  0
 23 25  1  0  0  0  0
 24 23  2  0  0  0  0
M  END
>  <MODEL>
1

>  <REMARK>
 VINA RESULT:      -6.6      0.000      0.000
  Name = 
  5 active torsions:
  status: ('A' for Active; 'I' for Inactive)
    1  A    between atoms: C_1  and  C_5
    2  A    between atoms: C_2  and  C_21
    3  A    between atoms: S_6  and  C_15
    4  A    between atoms: S_6  and  C_23
    5  A    between atoms: C_15  and  C_21
                            x       y       z     vdW  Elec       q    Type
                         _______ _______ _______ _____ _____    ______ ____

>  <TORSDO>
F 5

$$$$
=
 OpenBabel10272400443D

 25 27  0  0  1  0  0  0  0  0999 V2000
  186.1480  178.0100  146.3900 C   0  0  1  0  0  3  0  0  0  0  0  0
  187.4560  177.2580  146.1010 C   0  0  1  0  0  3  0  0  0  0  0  0
  187.5590  179.2950  148.1000 C   0  0  0  0  0  2  0  0  0  0  0  0
  187.8670  177.8740  148.5660 C   0  0  0  0  0  2  0  0  0  0  0  0
  189.7010  177.0400  146.9220 C   0  0  0  0  0  0  0  0  0  0  0  0
  190.2730  175.6370  146.8850 C   0  0  0  0  0  1  0  0  0  0  0  0
  188.2770  177.9910  145.2270 O   0  0  0  0  0  0  0  0  0  0  0  0
  186.3620  179.3320  147.1430 C   0  0  0  0  0  2  0  0  0  0  0  0
  190.5960  177.8920  147.8260 C   0  0  0  0  0  1  0  0  0  0  0  0
  189.5860  177.5530  145.4820 C   0  0  1  0  0  3  0  0  0  0  0  0
  188.2500  176.9600  147.3770 C   0  0  2  0  0  3  0  0  0  0  0  0
  185.2850  178.1830  145.1730 C   0  0  0  0  0  0  0  0  0  0  0  0
  183.8050  179.0320  142.8730 C   0  0  0  0  0  2  0  0  0  0  0  0
  185.8450  177.9100  143.7880 C   0  0  1  0  0  3  0  0  0  0  0  0
  184.7650  177.8620  142.7060 C   0  0  0  0  0  2  0  0  0  0  0  0
  183.0850  178.8890  144.2080 C   0  0  0  0  0  2  0  0  0  0  0  0
  186.7800  178.8760  143.4610 F   0  0  0  0  0  0  0  0  0  0  0  0
  184.0560  178.6970  145.3440 C   0  0  0  0  0  3  0  0  0  0  0  0
  190.8290  178.7870  144.9350 S   0  0  0  0  0  0  0  0  0  0  0  0
  191.6770  177.6580  143.7830 C   0  0  0  0  0  2  0  0  0  0  0  0
  191.0080  177.6870  142.4200 C   0  0  1  0  0  3  0  0  0  0  0  0
  191.9710  177.5130  141.4280 O   0  0  0  0  0  1  0  0  0  0  0  0
  189.9840  176.6070  142.3170 C   0  0  0  0  0  0  0  0  0  0  0  0
  188.7030  176.8930  141.8600 O   0  0  0  0  0  0  0  0  0  0  0  0
  190.2850  175.4280  142.6360 O   0  0  0  0  0  1  0  0  0  0  0  0
  1 12  1  6  0  0  0
  1  8  1  0  0  0  0
  2  7  1  6  0  0  0
  2  1  1  0  0  0  0
  2 11  1  0  0  0  0
  3  4  1  0  0  0  0
  5 11  1  0  0  0  0
  5  9  1  0  0  0  0
  6  5  1  0  0  0  0
  7 10  1  0  0  0  0
  8  3  1  0  0  0  0
 10 19  1  1  0  0  0
 10  5  1  0  0  0  0
 11  4  1  1  0  0  0
 12 18  2  0  0  0  0
 13 16  1  0  0  0  0
 14 17  1  6  0  0  0
 14 12  1  0  0  0  0
 15 13  1  0  0  0  0
 15 14  1  0  0  0  0
 16 18  1  0  0  0  0
 20 19  1  0  0  0  0
 21 22  1  6  0  0  0
 21 20  1  0  0  0  0
 23 21  1  0  0  0  0
 23 25  1  0  0  0  0
 24 23  2  0  0  0  0
M  END
>  <MODEL>
2

>  <REMARK>
 VINA RESULT:      -6.4      0.939      1.353
  Name = 
  5 active torsions:
  status: ('A' for Active; 'I' for Inactive)
    1  A    between atoms: C_1  and  C_5
    2  A    between atoms: C_2  and  C_21
    3  A    between atoms: S_6  and  C_15
    4  A    between atoms: S_6  and  C_23
    5  A    between atoms: C_15  and  C_21
                            x       y       z     vdW  Elec       q    Type
                         _______ _______ _______ _____ _____    ______ ____

>  <TORSDO>
F 5

$$$$
=
 OpenBabel10272400443D

 25 27  0  0  1  0  0  0  0  0999 V2000
  184.1420  178.3840  143.9460 C   0  0  1  0  0  3  0  0  0  0  0  0
  185.3190  177.6010  143.3450 C   0  0  1  0  0  3  0  0  0  0  0  0
  185.9500  179.5290  145.3550 C   0  0  0  0  0  2  0  0  0  0  0  0
  186.2850  178.0750  145.6830 C   0  0  0  0  0  2  0  0  0  0  0  0
  187.6760  177.2590  143.6440 C   0  0  0  0  0  0  0  0  0  0  0  0
  188.1600  175.8400  143.4240 C   0  0  0  0  0  1  0  0  0  0  0  0
  185.9630  178.3450  142.3430 O   0  0  0  0  0  0  0  0  0  0  0  0
  184.5760  179.6580  144.6870 C   0  0  0  0  0  2  0  0  0  0  0  0
  188.7850  178.0310  144.3640 C   0  0  0  0  0  1  0  0  0  0  0  0
  187.2750  177.8470  142.2860 C   0  0  1  0  0  3  0  0  0  0  0  0
  186.3570  177.2100  144.4020 C   0  0  2  0  0  3  0  0  0  0  0  0
  183.0440  178.6500  142.9560 C   0  0  0  0  0  0  0  0  0  0  0  0
  180.8350  178.6270  141.1340 C   0  0  0  0  0  2  0  0  0  0  0  0
  181.6910  179.1530  143.4250 C   0  0  1  0  0  3  0  0  0  0  0  0
  180.8010  179.6330  142.2760 C   0  0  0  0  0  2  0  0  0  0  0  0
  182.2530  178.5590  140.5820 C   0  0  0  0  0  2  0  0  0  0  0  0
  181.0360  178.1570  144.1270 F   0  0  0  0  0  0  0  0  0  0  0  0
  183.2620  178.3140  141.6730 C   0  0  0  0  0  3  0  0  0  0  0  0
  188.4250  179.0620  141.5320 S   0  0  0  0  0  0  0  0  0  0  0  0
  189.1330  177.8840  140.3330 C   0  0  0  0  0  2  0  0  0  0  0  0
  188.3290  177.8900  139.0440 C   0  0  1  0  0  3  0  0  0  0  0  0
  187.1990  178.6890  139.2070 O   0  0  0  0  0  1  0  0  0  0  0  0
  189.1530  178.4130  137.9160 C   0  0  0  0  0  0  0  0  0  0  0  0
  190.1100  177.6070  137.3110 O   0  0  0  0  0  0  0  0  0  0  0  0
  188.9730  179.5870  137.5030 O   0  0  0  0  0  1  0  0  0  0  0  0
  1 12  1  6  0  0  0
  1  8  1  0  0  0  0
  2  7  1  6  0  0  0
  2  1  1  0  0  0  0
  2 11  1  0  0  0  0
  3  4  1  0  0  0  0
  5  9  1  0  0  0  0
  5 11  1  0  0  0  0
  6  5  1  0  0  0  0
  8  3  1  0  0  0  0
 10 19  1  1  0  0  0
 10  7  1  0  0  0  0
 10  5  1  0  0  0  0
 11  4  1  1  0  0  0
 12 14  1  0  0  0  0
 13 15  1  0  0  0  0
 14 17  1  6  0  0  0
 15 14  1  0  0  0  0
 16 13  1  0  0  0  0
 16 18  1  0  0  0  0
 18 12  2  0  0  0  0
 20 19  1  0  0  0  0
 21 22  1  1  0  0  0
 21 20  1  0  0  0  0
 23 21  1  0  0  0  0
 24 23  2  0  0  0  0
 25 23  1  0  0  0  0
M  END
>  <MODEL>
3

>  <REMARK>
 VINA RESULT:      -6.4      2.928      4.099
  Name = 
  5 active torsions:
  status: ('A' for Active; 'I' for Inactive)
    1  A    between atoms: C_1  and  C_5
    2  A    between atoms: C_2  and  C_21
    3  A    between atoms: S_6  and  C_15
    4  A    between atoms: S_6  and  C_23
    5  A    between atoms: C_15  and  C_21
                            x       y       z     vdW  Elec       q    Type
                         _______ _______ _______ _____ _____    ______ ____

>  <TORSDO>
F 5

$$$$
=
 OpenBabel10272400443D

 25 27  0  0  1  0  0  0  0  0999 V2000
  187.0220  177.5920  145.2540 C   0  0  1  0  0  3  0  0  0  0  0  0
  188.0340  176.9460  144.2960 C   0  0  1  0  0  3  0  0  0  0  0  0
  189.0980  178.2260  146.6160 C   0  0  0  0  0  2  0  0  0  0  0  0
  189.3480  176.7240  146.4980 C   0  0  0  0  0  2  0  0  0  0  0  0
  190.3700  176.4260  144.1260 C   0  0  0  0  0  0  0  0  0  0  0  0
  190.6950  175.0970  143.4720 C   0  0  0  0  0  1  0  0  0  0  0  0
  188.5960  177.9020  143.4350 O   0  0  0  0  0  0  0  0  0  0  0  0
  187.6620  178.5960  146.2250 C   0  0  0  0  0  2  0  0  0  0  0  0
  191.6300  176.9200  144.8410 C   0  0  0  0  0  1  0  0  0  0  0  0
  189.8400  177.3770  143.0480 C   0  0  1  0  0  3  0  0  0  0  0  0
  189.1680  176.2350  145.0410 C   0  0  2  0  0  3  0  0  0  0  0  0
  185.8260  178.1670  144.5500 C   0  0  0  0  0  0  0  0  0  0  0  0
  183.3020  178.7980  143.3530 C   0  0  0  0  0  2  0  0  0  0  0  0
  184.8600  179.0740  145.2910 C   0  0  1  0  0  3  0  0  0  0  0  0
  183.8750  179.7840  144.3610 C   0  0  0  0  0  2  0  0  0  0  0  0
  184.4340  178.2820  142.4720 C   0  0  0  0  0  2  0  0  0  0  0  0
  184.1560  178.3430  146.2320 F   0  0  0  0  0  0  0  0  0  0  0  0
  185.5810  177.7560  143.2940 C   0  0  0  0  0  3  0  0  0  0  0  0
  190.9770  178.6950  142.4670 S   0  0  0  0  0  0  0  0  0  0  0  0
  191.7170  177.6890  141.1380 C   0  0  0  0  0  2  0  0  0  0  0  0
  190.6360  177.1200  140.2370 C   0  0  1  0  0  3  0  0  0  0  0  0
  189.8500  178.1600  139.7420 O   0  0  0  0  0  1  0  0  0  0  0  0
  191.2440  176.3690  139.1000 C   0  0  0  0  0  0  0  0  0  0  0  0
  192.4930  176.7270  138.6080 O   0  0  0  0  0  1  0  0  0  0  0  0
  190.6250  175.3990  138.5900 O   0  0  0  0  0  0  0  0  0  0  0  0
  1 12  1  6  0  0  0
  1  8  1  0  0  0  0
  2  7  1  6  0  0  0
  2 11  1  0  0  0  0
  2  1  1  0  0  0  0
  4  3  1  0  0  0  0
  5  9  1  0  0  0  0
  5 11  1  0  0  0  0
  6  5  1  0  0  0  0
  8  3  1  0  0  0  0
 10 19  1  1  0  0  0
 10  7  1  0  0  0  0
 10  5  1  0  0  0  0
 11  4  1  1  0  0  0
 12 14  1  0  0  0  0
 13 15  1  0  0  0  0
 14 17  1  1  0  0  0
 15 14  1  0  0  0  0
 16 18  1  0  0  0  0
 16 13  1  0  0  0  0
 18 12  2  0  0  0  0
 20 19  1  0  0  0  0
 21 22  1  6  0  0  0
 21 20  1  0  0  0  0
 23 21  1  0  0  0  0
 24 23  1  0  0  0  0
 25 23  2  0  0  0  0
M  END
>  <MODEL>
4

>  <REMARK>
 VINA RESULT:      -6.3      1.834      2.434
  Name = 
  5 active torsions:
  status: ('A' for Active; 'I' for Inactive)
    1  A    between atoms: C_1  and  C_5
    2  A    between atoms: C_2  and  C_21
    3  A    between atoms: S_6  and  C_15
    4  A    between atoms: S_6  and  C_23
    5  A    between atoms: C_15  and  C_21
                            x       y       z     vdW  Elec       q    Type
                         _______ _______ _______ _____ _____    ______ ____

>  <TORSDO>
F 5

$$$$
=
 OpenBabel10272400443D

 25 27  0  0  1  0  0  0  0  0999 V2000
  189.5440  177.4500  138.8960 C   0  0  1  0  0  3  0  0  0  0  0  0
  188.8480  176.3800  138.0430 C   0  0  1  0  0  3  0  0  0  0  0  0
  188.8720  179.0390  137.0020 C   0  0  0  0  0  2  0  0  0  0  0  0
  189.5950  177.9810  136.1720 C   0  0  0  0  0  2  0  0  0  0  0  0
  187.8450  176.0800  135.8830 C   0  0  0  0  0  0  0  0  0  0  0  0
  188.1070  174.7400  135.2250 C   0  0  0  0  0  1  0  0  0  0  0  0
  187.4570  176.4040  138.2390 O   0  0  0  0  0  0  0  0  0  0  0  0
  189.1650  178.8850  138.4980 C   0  0  0  0  0  2  0  0  0  0  0  0
  187.3040  177.0330  134.8140 C   0  0  0  0  0  1  0  0  0  0  0  0
  186.9010  175.8590  137.0700 C   0  0  1  0  0  3  0  0  0  0  0  0
  189.1310  176.5540  136.5470 C   0  0  2  0  0  3  0  0  0  0  0  0
  189.4010  177.2130  140.3720 C   0  0  0  0  0  0  0  0  0  0  0  0
  189.4340  177.2100  143.2360 C   0  0  0  0  0  2  0  0  0  0  0  0
  188.2080  177.7710  141.1290 C   0  0  1  0  0  3  0  0  0  0  0  0
  188.0790  177.2020  142.5430 C   0  0  0  0  0  2  0  0  0  0  0  0
  190.3770  176.2810  142.4810 C   0  0  0  0  0  2  0  0  0  0  0  0
  188.2970  179.1500  141.1950 F   0  0  0  0  0  0  0  0  0  0  0  0
  190.4140  176.6030  141.0100 C   0  0  0  0  0  3  0  0  0  0  0  0
  185.1530  176.3710  136.8510 S   0  0  0  0  0  0  0  0  0  0  0  0
  185.3200  177.9140  137.8090 C   0  0  0  0  0  2  0  0  0  0  0  0
  183.9980  178.2810  138.4600 C   0  0  1  0  0  3  0  0  0  0  0  0
  183.5950  177.2480  139.3040 O   0  0  0  0  0  1  0  0  0  0  0  0
  184.1350  179.5430  139.2440 C   0  0  0  0  0  0  0  0  0  0  0  0
  184.9890  179.6030  140.3390 O   0  0  0  0  0  1  0  0  0  0  0  0
  183.4790  180.5630  138.9070 O   0  0  0  0  0  0  0  0  0  0  0  0
  1 12  1  1  0  0  0
  2  7  1  6  0  0  0
  2  1  1  0  0  0  0
  3  8  1  0  0  0  0
  4  3  1  0  0  0  0
  5 11  1  0  0  0  0
  5 10  1  0  0  0  0
  6  5  1  0  0  0  0
  8  1  1  0  0  0  0
  9  5  1  0  0  0  0
 10 19  1  6  0  0  0
 10  7  1  0  0  0  0
 11  4  1  1  0  0  0
 11  2  1  0  0  0  0
 12 18  2  0  0  0  0
 12 14  1  0  0  0  0
 14 17  1  1  0  0  0
 14 15  1  0  0  0  0
 15 13  1  0  0  0  0
 16 13  1  0  0  0  0
 18 16  1  0  0  0  0
 19 20  1  0  0  0  0
 20 21  1  0  0  0  0
 21 23  1  0  0  0  0
 21 22  1  1  0  0  0
 23 24  1  0  0  0  0
 25 23  2  0  0  0  0
M  END
>  <MODEL>
5

>  <REMARK>
 VINA RESULT:      -6.2      5.416      8.794
  Name = 
  5 active torsions:
  status: ('A' for Active; 'I' for Inactive)
    1  A    between atoms: C_1  and  C_5
    2  A    between atoms: C_2  and  C_21
    3  A    between atoms: S_6  and  C_15
    4  A    between atoms: S_6  and  C_23
    5  A    between atoms: C_15  and  C_21
                            x       y       z     vdW  Elec       q    Type
                         _______ _______ _______ _____ _____    ______ ____

>  <TORSDO>
F 5

$$$$
=
 OpenBabel10272400443D

 25 27  0  0  1  0  0  0  0  0999 V2000
  187.9550  177.7430  142.3240 C   0  0  1  0  0  3  0  0  0  0  0  0
  188.9390  178.4600  143.2600 C   0  0  1  0  0  3  0  0  0  0  0  0
  189.3720  175.6700  142.8350 C   0  0  0  0  0  2  0  0  0  0  0  0
  190.4870  176.6050  142.3730 C   0  0  0  0  0  2  0  0  0  0  0  0
  190.9890  178.0840  144.4510 C   0  0  0  0  0  0  0  0  0  0  0  0
  191.9470  179.2580  144.4810 C   0  0  0  0  0  1  0  0  0  0  0  0
  188.5910  178.2630  144.6060 O   0  0  0  0  0  0  0  0  0  0  0  0
  187.9860  176.2130  142.4680 C   0  0  0  0  0  2  0  0  0  0  0  0
  191.7570  176.8350  144.8880 C   0  0  0  0  0  1  0  0  0  0  0  0
  189.7820  178.4250  145.3330 C   0  0  1  0  0  3  0  0  0  0  0  0
  190.3830  177.9890  143.0580 C   0  0  2  0  0  3  0  0  0  0  0  0
  186.5600  178.2920  142.4020 C   0  0  0  0  0  0  0  0  0  0  0  0
  183.7470  178.8190  142.5010 C   0  0  0  0  0  2  0  0  0  0  0  0
  185.8930  178.5100  143.7480 C   0  0  1  0  0  3  0  0  0  0  0  0
  184.6040  179.3280  143.6510 C   0  0  0  0  0  2  0  0  0  0  0  0
  184.4970  179.0390  141.1940 C   0  0  0  0  0  2  0  0  0  0  0  0
  185.6180  177.2900  144.3400 F   0  0  0  0  0  0  0  0  0  0  0  0
  185.8890  178.4660  141.2500 C   0  0  0  0  0  3  0  0  0  0  0  0
  189.6890  177.6060  146.9720 S   0  0  0  0  0  0  0  0  0  0  0  0
  187.9040  177.2490  146.8700 C   0  0  0  0  0  2  0  0  0  0  0  0
  187.1600  177.9300  148.0040 C   0  0  1  0  0  3  0  0  0  0  0  0
  188.0190  178.8100  148.6600 O   0  0  0  0  0  1  0  0  0  0  0  0
  185.9810  178.6800  147.4810 C   0  0  0  0  0  0  0  0  0  0  0  0
  185.9860  180.0700  147.4530 O   0  0  0  0  0  1  0  0  0  0  0  0
  184.9800  178.0500  147.0520 O   0  0  0  0  0  0  0  0  0  0  0  0
  1 12  1  1  0  0  0
  1  8  1  0  0  0  0
  1  2  1  0  0  0  0
  2  7  1  1  0  0  0
  4  3  1  0  0  0  0
  5  6  1  0  0  0  0
  5  9  1  0  0  0  0
  5 10  1  0  0  0  0
  7 10  1  0  0  0  0
  8  3  1  0  0  0  0
 10 19  1  1  0  0  0
 11  4  1  1  0  0  0
 11  2  1  0  0  0  0
 11  5  1  0  0  0  0
 12 14  1  0  0  0  0
 13 15  1  0  0  0  0
 14 17  1  6  0  0  0
 15 14  1  0  0  0  0
 16 18  1  0  0  0  0
 16 13  1  0  0  0  0
 18 12  2  0  0  0  0
 20 19  1  0  0  0  0
 20 21  1  0  0  0  0
 21 22  1  6  0  0  0
 23 21  1  0  0  0  0
 24 23  1  0  0  0  0
 25 23  2  0  0  0  0
M  END
>  <MODEL>
6

>  <REMARK>
 VINA RESULT:      -6.0      2.029      4.711
  Name = 
  5 active torsions:
  status: ('A' for Active; 'I' for Inactive)
    1  A    between atoms: C_1  and  C_5
    2  A    between atoms: C_2  and  C_21
    3  A    between atoms: S_6  and  C_15
    4  A    between atoms: S_6  and  C_23
    5  A    between atoms: C_15  and  C_21
                            x       y       z     vdW  Elec       q    Type
                         _______ _______ _______ _____ _____    ______ ____

>  <TORSDO>
F 5

$$$$
=
 OpenBabel10272400443D

 25 27  0  0  1  0  0  0  0  0999 V2000
  188.8580  177.3730  143.1890 C   0  0  1  0  0  3  0  0  0  0  0  0
  188.9620  176.9140  141.7260 C   0  0  1  0  0  3  0  0  0  0  0  0
  191.1290  178.4700  142.7430 C   0  0  0  0  0  2  0  0  0  0  0  0
  191.4670  177.0490  142.2990 C   0  0  0  0  0  2  0  0  0  0  0  0
  190.5060  176.8810  139.8900 C   0  0  0  0  0  0  0  0  0  0  0  0
  190.4800  175.6240  139.0420 C   0  0  0  0  0  1  0  0  0  0  0  0
  188.5620  177.9340  140.8470 O   0  0  0  0  0  0  0  0  0  0  0  0
  189.8170  178.5220  143.5340 C   0  0  0  0  0  2  0  0  0  0  0  0
  191.7860  177.6500  139.5550 C   0  0  0  0  0  1  0  0  0  0  0  0
  189.2130  177.6620  139.6330 C   0  0  1  0  0  3  0  0  0  0  0  0
  190.3830  176.4800  141.3530 C   0  0  2  0  0  3  0  0  0  0  0  0
  187.4470  177.6620  143.6170 C   0  0  0  0  0  0  0  0  0  0  0  0
  184.9430  178.7210  144.5160 C   0  0  0  0  0  2  0  0  0  0  0  0
  186.3990  178.0580  142.5930 C   0  0  1  0  0  3  0  0  0  0  0  0
  184.9770  178.0380  143.1560 C   0  0  0  0  0  2  0  0  0  0  0  0
  185.8030  177.9220  145.4880 C   0  0  0  0  0  2  0  0  0  0  0  0
  186.6780  179.3190  142.0970 F   0  0  0  0  0  0  0  0  0  0  0  0
  187.1830  177.6760  144.9340 C   0  0  0  0  0  3  0  0  0  0  0  0
  189.3400  179.1630  138.5850 S   0  0  0  0  0  0  0  0  0  0  0  0
  188.8290  178.3280  137.0480 C   0  0  0  0  0  2  0  0  0  0  0  0
  187.4290  178.7600  136.6490 C   0  0  1  0  0  3  0  0  0  0  0  0
  187.2000  178.4130  135.3180 O   0  0  0  0  0  1  0  0  0  0  0  0
  186.4100  178.1040  137.5190 C   0  0  0  0  0  0  0  0  0  0  0  0
  186.1590  176.7410  137.4050 O   0  0  0  0  0  0  0  0  0  0  0  0
  185.7810  178.7870  138.3690 O   0  0  0  0  0  1  0  0  0  0  0  0
  1  8  1  0  0  0  0
  1 12  1  6  0  0  0
  2  7  1  6  0  0  0
  2  1  1  0  0  0  0
  3  8  1  0  0  0  0
  4  3  1  0  0  0  0
  5 11  1  0  0  0  0
  6  5  1  0  0  0  0
  9  5  1  0  0  0  0
 10 19  1  1  0  0  0
 10  5  1  0  0  0  0
 10  7  1  0  0  0  0
 11  2  1  0  0  0  0
 11  4  1  1  0  0  0
 12 18  2  0  0  0  0
 13 16  1  0  0  0  0
 14 17  1  1  0  0  0
 14 15  1  0  0  0  0
 14 12  1  0  0  0  0
 15 13  1  0  0  0  0
 18 16  1  0  0  0  0
 20 19  1  0  0  0  0
 21 22  1  6  0  0  0
 21 20  1  0  0  0  0
 21 23  1  0  0  0  0
 23 25  1  0  0  0  0
 24 23  2  0  0  0  0
M  END
>  <MODEL>
7

>  <REMARK>
 VINA RESULT:      -5.7      3.663      5.706
  Name = 
  5 active torsions:
  status: ('A' for Active; 'I' for Inactive)
    1  A    between atoms: C_1  and  C_5
    2  A    between atoms: C_2  and  C_21
    3  A    between atoms: S_6  and  C_15
    4  A    between atoms: S_6  and  C_23
    5  A    between atoms: C_15  and  C_21
                            x       y       z     vdW  Elec       q    Type
                         _______ _______ _______ _____ _____    ______ ____

>  <TORSDO>
F 5

$$$$
=
 OpenBabel10272400443D

 25 27  0  0  1  0  0  0  0  0999 V2000
  184.5990  177.3660  137.4980 C   0  0  1  0  0  3  0  0  0  0  0  0
  185.9040  178.1480  137.7140 C   0  0  1  0  0  3  0  0  0  0  0  0
  186.1570  175.4040  136.9630 C   0  0  0  0  0  2  0  0  0  0  0  0
  186.7290  176.4280  135.9860 C   0  0  0  0  0  2  0  0  0  0  0  0
  188.2780  177.9190  137.4470 C   0  0  0  0  0  0  0  0  0  0  0  0
  189.0010  179.1630  136.9720 C   0  0  0  0  0  1  0  0  0  0  0  0
  186.4300  177.9090  138.9940 O   0  0  0  0  0  0  0  0  0  0  0  0
  184.7950  175.8420  137.5120 C   0  0  0  0  0  2  0  0  0  0  0  0
  189.2250  176.7280  137.2790 C   0  0  0  0  0  1  0  0  0  0  0  0
  187.8080  178.1560  138.8870 C   0  0  1  0  0  3  0  0  0  0  0  0
  186.9720  177.7920  136.6750 C   0  0  2  0  0  3  0  0  0  0  0  0
  183.4910  177.8040  138.4120 C   0  0  0  0  0  0  0  0  0  0  0  0
  181.7730  178.6830  140.5290 C   0  0  0  0  0  2  0  0  0  0  0  0
  183.0790  179.2640  138.4760 C   0  0  1  0  0  3  0  0  0  0  0  0
  181.7680  179.4820  139.2340 C   0  0  0  0  0  2  0  0  0  0  0  0
  181.8340  177.1980  140.1900 C   0  0  0  0  0  2  0  0  0  0  0  0
  184.0810  180.0110  139.0700 F   0  0  0  0  0  0  0  0  0  0  0  0
  182.9690  176.8900  139.2480 C   0  0  0  0  0  3  0  0  0  0  0  0
  188.7490  177.3130  140.2190 S   0  0  0  0  0  0  0  0  0  0  0  0
  188.2320  178.4680  141.5320 C   0  0  0  0  0  2  0  0  0  0  0  0
  187.1700  177.8330  142.4120 C   0  0  1  0  0  3  0  0  0  0  0  0
  187.5950  177.8540  143.7390 O   0  0  0  0  0  1  0  0  0  0  0  0
  185.8790  178.5700  142.2890 C   0  0  0  0  0  0  0  0  0  0  0  0
  184.7100  178.0360  142.8190 O   0  0  0  0  0  1  0  0  0  0  0  0
  185.8500  179.6870  141.7110 O   0  0  0  0  0  0  0  0  0  0  0  0
  1  8  1  0  0  0  0
  1  2  1  0  0  0  0
  1 12  1  1  0  0  0
  2  7  1  1  0  0  0
  3  8  1  0  0  0  0
  4  3  1  0  0  0  0
  5 10  1  0  0  0  0
  6  5  1  0  0  0  0
  9  5  1  0  0  0  0
 10  7  1  0  0  0  0
 10 19  1  1  0  0  0
 11  4  1  1  0  0  0
 11  5  1  0  0  0  0
 11  2  1  0  0  0  0
 12 14  1  0  0  0  0
 12 18  2  0  0  0  0
 14 17  1  1  0  0  0
 14 15  1  0  0  0  0
 15 13  1  0  0  0  0
 16 13  1  0  0  0  0
 18 16  1  0  0  0  0
 19 20  1  0  0  0  0
 20 21  1  0  0  0  0
 21 22  1  1  0  0  0
 23 21  1  0  0  0  0
 23 24  1  0  0  0  0
 25 23  2  0  0  0  0
M  END
>  <MODEL>
8

>  <REMARK>
 VINA RESULT:      -5.7      4.823      7.786
  Name = 
  5 active torsions:
  status: ('A' for Active; 'I' for Inactive)
    1  A    between atoms: C_1  and  C_5
    2  A    between atoms: C_2  and  C_21
    3  A    between atoms: S_6  and  C_15
    4  A    between atoms: S_6  and  C_23
    5  A    between atoms: C_15  and  C_21
                            x       y       z     vdW  Elec       q    Type
                         _______ _______ _______ _____ _____    ______ ____

>  <TORSDO>
F 5

$$$$
=
 OpenBabel10272400443D

 25 27  0  0  1  0  0  0  0  0999 V2000
  189.2880  177.7430  139.3150 C   0  0  1  0  0  3  0  0  0  0  0  0
  190.0060  176.7660  138.3710 C   0  0  1  0  0  3  0  0  0  0  0  0
  187.7370  178.1410  137.3150 C   0  0  0  0  0  2  0  0  0  0  0  0
  189.0740  178.4160  136.6300 C   0  0  0  0  0  2  0  0  0  0  0  0
  190.0140  176.0560  136.0790 C   0  0  0  0  0  0  0  0  0  0  0  0
  191.3820  175.7720  135.4920 C   0  0  0  0  0  1  0  0  0  0  0  0
  189.3480  175.5250  138.3330 O   0  0  0  0  0  0  0  0  0  0  0  0
  187.8750  178.1160  138.8410 C   0  0  0  0  0  2  0  0  0  0  0  0
  189.0160  176.1630  134.9230 C   0  0  0  0  0  1  0  0  0  0  0  0
  189.6880  174.9550  137.0960 C   0  0  1  0  0  3  0  0  0  0  0  0
  190.1070  177.3070  136.9410 C   0  0  2  0  0  3  0  0  0  0  0  0
  189.3070  177.2990  140.7500 C   0  0  0  0  0  0  0  0  0  0  0  0
  189.6270  176.9120  143.5690 C   0  0  0  0  0  2  0  0  0  0  0  0
  188.1660  177.6620  141.6820 C   0  0  1  0  0  3  0  0  0  0  0  0
  188.2120  176.9000  143.0080 C   0  0  0  0  0  2  0  0  0  0  0  0
  190.5430  176.1640  142.6080 C   0  0  0  0  0  2  0  0  0  0  0  0
  188.1790  179.0220  141.9350 F   0  0  0  0  0  0  0  0  0  0  0  0
  190.4140  176.6840  141.2000 C   0  0  0  0  0  3  0  0  0  0  0  0
  188.4720  173.6810  136.5830 S   0  0  0  0  0  0  0  0  0  0  0  0
  187.0390  174.5190  137.3360 C   0  0  0  0  0  2  0  0  0  0  0  0
  185.7670  173.7280  137.0830 C   0  0  1  0  0  3  0  0  0  0  0  0
  185.5960  172.7880  138.0970 O   0  0  0  0  0  1  0  0  0  0  0  0
  184.5850  174.6380  137.0390 C   0  0  0  0  0  0  0  0  0  0  0  0
  183.6750  174.6600  138.0900 O   0  0  0  0  0  1  0  0  0  0  0  0
  184.4170  175.3970  136.0510 O   0  0  0  0  0  0  0  0  0  0  0  0
  1 12  1  1  0  0  0
  2  7  1  6  0  0  0
  2  1  1  0  0  0  0
  3  8  1  0  0  0  0
  4  3  1  0  0  0  0
  5 11  1  0  0  0  0
  5 10  1  0  0  0  0
  6  5  1  0  0  0  0
  8  1  1  0  0  0  0
  9  5  1  0  0  0  0
 10 19  1  6  0  0  0
 10  7  1  0  0  0  0
 11  4  1  6  0  0  0
 11  2  1  0  0  0  0
 12 18  2  0  0  0  0
 12 14  1  0  0  0  0
 14 17  1  1  0  0  0
 14 15  1  0  0  0  0
 15 13  1  0  0  0  0
 16 13  1  0  0  0  0
 18 16  1  0  0  0  0
 19 20  1  0  0  0  0
 21 20  1  0  0  0  0
 21 22  1  1  0  0  0
 23 21  1  0  0  0  0
 23 24  1  0  0  0  0
 25 23  2  0  0  0  0
M  END
>  <MODEL>
9

>  <REMARK>
 VINA RESULT:      -5.7      5.566      8.633
  Name = 
  5 active torsions:
  status: ('A' for Active; 'I' for Inactive)
    1  A    between atoms: C_1  and  C_5
    2  A    between atoms: C_2  and  C_21
    3  A    between atoms: S_6  and  C_15
    4  A    between atoms: S_6  and  C_23
    5  A    between atoms: C_15  and  C_21
                            x       y       z     vdW  Elec       q    Type
                         _______ _______ _______ _____ _____    ______ ____

>  <TORSDO>
F 5

$$$$
