=
 OpenBabel10272400553D

 25 25  0  0  1  0  0  0  0  0999 V2000
  188.5000  177.5260  144.1800 C   0  0  1  0  0  3  0  0  0  0  0  0
  190.6660  176.3430  144.7180 C   0  0  0  0  0  2  0  0  0  0  0  0
  189.2870  177.3090  146.5650 C   0  0  0  0  0  2  0  0  0  0  0  0
  192.5270  176.0860  148.0310 O   0  0  0  0  0  1  0  0  0  0  0  0
  191.5670  176.4220  147.0870 C   0  0  0  0  0  0  0  0  0  0  0  0
  190.4110  176.9520  147.5000 C   0  0  0  0  0  3  0  0  0  0  0  0
  189.7380  177.5100  145.1090 C   0  0  2  0  0  0  0  0  0  0  0  0
  191.8940  176.2500  145.6280 C   0  0  0  0  0  2  0  0  0  0  0  0
  190.4810  178.8550  145.0010 C   0  0  0  0  0  2  0  0  0  0  0  0
  191.2280  179.0170  143.6850 C   0  0  0  0  0  1  0  0  0  0  0  0
  188.2880  175.4400  143.0390 O   0  0  0  0  0  0  0  0  0  0  0  0
  188.6390  176.6480  142.9680 C   0  0  0  0  0  0  0  0  0  0  0  0
  189.1480  177.1740  141.7790 O   0  0  0  0  0  0  0  0  0  0  0  0
  188.3500  177.9560  140.9040 C   0  0  0  0  0  1  0  0  0  0  0  0
  187.3330  177.1930  144.8800 O   0  0  0  0  0  0  0  0  0  0  0  0
  186.3370  178.0060  144.3310 C   0  0  0  0  0  2  0  0  0  0  0  0
  185.3420  178.4040  145.4060 C   0  0  0  0  0  2  0  0  0  0  0  0
  184.3450  179.4080  144.8530 C   0  0  0  0  0  2  0  0  0  0  0  0
  183.0230  178.7280  144.5350 C   0  0  0  0  0  2  0  0  0  0  0  0
  182.6550  178.8900  143.0680 C   0  0  0  0  0  2  0  0  0  0  0  0
  183.8000  179.1090  142.3030 O   0  0  0  0  0  0  0  0  0  0  0  0
  183.5880  178.3780  141.1320 C   0  0  0  0  0  2  0  0  0  0  0  0
  184.7290  178.6210  140.1610 C   0  0  0  0  0  2  0  0  0  0  0  0
  184.6290  179.9050  139.6240 O   0  0  0  0  0  0  0  0  0  0  0  0
  183.4180  179.8980  138.9310 C   0  0  0  0  0  1  0  0  0  0  0  0
  1 12  1  6  0  0  0
  1 15  1  0  0  0  0
  1  7  1  0  0  0  0
  2  7  1  0  0  0  0
  2  8  1  0  0  0  0
  3  6  1  0  0  0  0
  5  6  2  0  0  0  0
  5  4  1  0  0  0  0
  7  9  1  6  0  0  0
  7  3  1  0  0  0  0
  8  5  1  0  0  0  0
 10  9  1  0  0  0  0
 12 11  2  0  0  0  0
 13 12  1  0  0  0  0
 14 13  1  0  0  0  0
 16 15  1  0  0  0  0
 16 17  1  0  0  0  0
 18 17  1  0  0  0  0
 19 18  1  0  0  0  0
 20 19  1  0  0  0  0
 21 20  1  0  0  0  0
 22 21  1  0  0  0  0
 23 22  1  0  0  0  0
 24 23  1  0  0  0  0
 25 24  1  0  0  0  0
M  END
>  <MODEL>
1

>  <REMARK>
 VINA RESULT:      -6.3      0.000      0.000
  Name = 
  14 active torsions:
  status: ('A' for Active; 'I' for Inactive)
    1  A    between atoms: C_1  and  O_3
    2  A    between atoms: C_1  and  C_18
    3  A    between atoms: C_1  and  C_24
    4  A    between atoms: C_2  and  O_7
    5  A    between atoms: C_2  and  C_25
    6  A    between atoms: O_3  and  C_16
    7  A    between atoms: C_6  and  C_15
    8  A    between atoms: C_6  and  O_21
    9  A    between atoms: O_13  and  C_24
   10  A    between atoms: C_15  and  C_20
   11  A    between atoms: C_16  and  C_23
   12  A    between atoms: C_17  and  C_18
   13  A    between atoms: C_20  and  C_23
   14  A    between atoms: O_21  and  C_25
                            x       y       z     vdW  Elec       q    Type
                         _______ _______ _______ _____ _____    ______ ____

>  <TORSDO>
F 14

$$$$
=
 OpenBabel10272400553D

 25 25  0  0  1  0  0  0  0  0999 V2000
  188.7820  177.2370  146.0700 C   0  0  1  0  0  3  0  0  0  0  0  0
  189.9340  176.0800  144.1430 C   0  0  0  0  0  2  0  0  0  0  0  0
  190.4900  178.4570  144.6730 C   0  0  0  0  0  2  0  0  0  0  0  0
  192.2390  177.5230  141.4780 O   0  0  0  0  0  1  0  0  0  0  0  0
  191.4040  177.4330  142.5820 C   0  0  0  0  0  0  0  0  0  0  0  0
  191.3280  178.4690  143.4230 C   0  0  0  0  0  3  0  0  0  0  0  0
  189.3570  177.4170  144.6440 C   0  0  2  0  0  0  0  0  0  0  0  0
  190.5540  176.2020  142.7480 C   0  0  0  0  0  2  0  0  0  0  0  0
  188.2480  177.9190  143.7000 C   0  0  0  0  0  2  0  0  0  0  0  0
  187.2850  176.8190  143.2780 C   0  0  0  0  0  1  0  0  0  0  0  0
  189.8940  177.8570  148.0900 O   0  0  0  0  0  0  0  0  0  0  0  0
  189.8320  177.0450  147.1270 C   0  0  0  0  0  0  0  0  0  0  0  0
  190.7230  175.9730  147.0420 O   0  0  0  0  0  0  0  0  0  0  0  0
  192.0610  176.0720  147.5040 C   0  0  0  0  0  1  0  0  0  0  0  0
  187.9410  178.3020  146.4190 O   0  0  0  0  0  0  0  0  0  0  0  0
  186.7400  177.7030  146.8090 C   0  0  0  0  0  2  0  0  0  0  0  0
  185.6270  178.7340  146.8250 C   0  0  0  0  0  2  0  0  0  0  0  0
  185.2400  179.1100  145.4060 C   0  0  0  0  0  2  0  0  0  0  0  0
  183.7680  178.8180  145.1590 C   0  0  0  0  0  2  0  0  0  0  0  0
  183.4130  178.9620  143.6870 C   0  0  0  0  0  2  0  0  0  0  0  0
  184.5690  179.1400  142.9260 O   0  0  0  0  0  0  0  0  0  0  0  0
  184.1740  178.8630  141.6140 C   0  0  0  0  0  2  0  0  0  0  0  0
  185.3620  179.0020  140.6810 C   0  0  0  0  0  2  0  0  0  0  0  0
  184.9300  179.4320  139.4250 O   0  0  0  0  0  0  0  0  0  0  0  0
  184.1440  178.3820  138.9500 C   0  0  0  0  0  1  0  0  0  0  0  0
  1 15  1  1  0  0  0
  1 12  1  0  0  0  0
  2  7  1  0  0  0  0
  4  5  1  0  0  0  0
  5  8  1  0  0  0  0
  5  6  2  0  0  0  0
  6  3  1  0  0  0  0
  7  9  1  6  0  0  0
  7  3  1  0  0  0  0
  7  1  1  0  0  0  0
  8  2  1  0  0  0  0
 10  9  1  0  0  0  0
 12 11  2  0  0  0  0
 13 12  1  0  0  0  0
 13 14  1  0  0  0  0
 15 16  1  0  0  0  0
 16 17  1  0  0  0  0
 18 17  1  0  0  0  0
 19 18  1  0  0  0  0
 20 19  1  0  0  0  0
 21 20  1  0  0  0  0
 22 21  1  0  0  0  0
 23 22  1  0  0  0  0
 24 23  1  0  0  0  0
 25 24  1  0  0  0  0
M  END
>  <MODEL>
2

>  <REMARK>
 VINA RESULT:      -6.2      1.642      3.479
  Name = 
  14 active torsions:
  status: ('A' for Active; 'I' for Inactive)
    1  A    between atoms: C_1  and  O_3
    2  A    between atoms: C_1  and  C_18
    3  A    between atoms: C_1  and  C_24
    4  A    between atoms: C_2  and  O_7
    5  A    between atoms: C_2  and  C_25
    6  A    between atoms: O_3  and  C_16
    7  A    between atoms: C_6  and  C_15
    8  A    between atoms: C_6  and  O_21
    9  A    between atoms: O_13  and  C_24
   10  A    between atoms: C_15  and  C_20
   11  A    between atoms: C_16  and  C_23
   12  A    between atoms: C_17  and  C_18
   13  A    between atoms: C_20  and  C_23
   14  A    between atoms: O_21  and  C_25
                            x       y       z     vdW  Elec       q    Type
                         _______ _______ _______ _____ _____    ______ ____

>  <TORSDO>
F 14

$$$$
=
 OpenBabel10272400553D

 25 25  0  0  1  0  0  0  0  0999 V2000
  188.4860  177.2890  145.5480 C   0  0  1  0  0  3  0  0  0  0  0  0
  188.1780  177.7060  143.0750 C   0  0  0  0  0  2  0  0  0  0  0  0
  190.0260  176.2200  143.8620 C   0  0  0  0  0  2  0  0  0  0  0  0
  190.4130  176.7170  140.1550 O   0  0  0  0  0  1  0  0  0  0  0  0
  189.9300  176.8650  141.4480 C   0  0  0  0  0  0  0  0  0  0  0  0
  190.5010  176.1680  142.4350 C   0  0  0  0  0  3  0  0  0  0  0  0
  189.2130  177.4820  144.1940 C   0  0  2  0  0  0  0  0  0  0  0  0
  188.8350  177.8650  141.7010 C   0  0  0  0  0  2  0  0  0  0  0  0
  190.1750  178.6800  144.2920 C   0  0  0  0  0  2  0  0  0  0  0  0
  191.6390  178.2640  144.3340 C   0  0  0  0  0  1  0  0  0  0  0  0
  189.4670  178.3770  147.4330 O   0  0  0  0  0  0  0  0  0  0  0  0
  189.4020  177.3270  146.7380 C   0  0  0  0  0  0  0  0  0  0  0  0
  190.1640  176.2050  147.0690 O   0  0  0  0  0  0  0  0  0  0  0  0
  191.5560  176.2970  147.3330 C   0  0  0  0  0  1  0  0  0  0  0  0
  187.4530  178.2240  145.7080 O   0  0  0  0  0  0  0  0  0  0  0  0
  186.5860  177.6470  146.6410 C   0  0  0  0  0  2  0  0  0  0  0  0
  185.2180  178.2970  146.5470 C   0  0  0  0  0  2  0  0  0  0  0  0
  185.1730  179.2590  145.3720 C   0  0  0  0  0  2  0  0  0  0  0  0
  183.9570  178.9810  144.5020 C   0  0  0  0  0  2  0  0  0  0  0  0
  184.3620  178.4220  143.1470 C   0  0  0  0  0  2  0  0  0  0  0  0
  183.3640  178.6680  142.2040 O   0  0  0  0  0  0  0  0  0  0  0  0
  183.9600  178.3760  140.9740 C   0  0  0  0  0  2  0  0  0  0  0  0
  185.3240  179.0370  140.8950 C   0  0  0  0  0  2  0  0  0  0  0  0
  185.9080  178.7720  139.6550 O   0  0  0  0  0  0  0  0  0  0  0  0
  184.8270  178.6380  138.7840 C   0  0  0  0  0  1  0  0  0  0  0  0
  1 15  1  1  0  0  0
  1 12  1  0  0  0  0
  2  7  1  0  0  0  0
  3  7  1  0  0  0  0
  4  5  1  0  0  0  0
  5  8  1  0  0  0  0
  5  6  2  0  0  0  0
  6  3  1  0  0  0  0
  7  9  1  1  0  0  0
  7  1  1  0  0  0  0
  8  2  1  0  0  0  0
  9 10  1  0  0  0  0
 12 13  1  0  0  0  0
 12 11  2  0  0  0  0
 13 14  1  0  0  0  0
 15 16  1  0  0  0  0
 17 16  1  0  0  0  0
 18 17  1  0  0  0  0
 19 18  1  0  0  0  0
 20 19  1  0  0  0  0
 21 20  1  0  0  0  0
 22 21  1  0  0  0  0
 23 22  1  0  0  0  0
 24 23  1  0  0  0  0
 25 24  1  0  0  0  0
M  END
>  <MODEL>
3

>  <REMARK>
 VINA RESULT:      -6.0      1.502      3.636
  Name = 
  14 active torsions:
  status: ('A' for Active; 'I' for Inactive)
    1  A    between atoms: C_1  and  O_3
    2  A    between atoms: C_1  and  C_18
    3  A    between atoms: C_1  and  C_24
    4  A    between atoms: C_2  and  O_7
    5  A    between atoms: C_2  and  C_25
    6  A    between atoms: O_3  and  C_16
    7  A    between atoms: C_6  and  C_15
    8  A    between atoms: C_6  and  O_21
    9  A    between atoms: O_13  and  C_24
   10  A    between atoms: C_15  and  C_20
   11  A    between atoms: C_16  and  C_23
   12  A    between atoms: C_17  and  C_18
   13  A    between atoms: C_20  and  C_23
   14  A    between atoms: O_21  and  C_25
                            x       y       z     vdW  Elec       q    Type
                         _______ _______ _______ _____ _____    ______ ____

>  <TORSDO>
F 14

$$$$
=
 OpenBabel10272400553D

 25 25  0  0  1  0  0  0  0  0999 V2000
  190.0950  176.6700  145.6480 C   0  0  1  0  0  3  0  0  0  0  0  0
  188.3530  177.0100  143.8500 C   0  0  0  0  0  2  0  0  0  0  0  0
  190.7170  176.5160  143.2090 C   0  0  0  0  0  2  0  0  0  0  0  0
  188.7880  177.3060  140.0790 O   0  0  0  0  0  1  0  0  0  0  0  0
  189.0820  177.1540  141.4270 C   0  0  0  0  0  0  0  0  0  0  0  0
  190.3080  176.7560  141.7800 C   0  0  0  0  0  3  0  0  0  0  0  0
  189.8270  177.2400  144.2330 C   0  0  2  0  0  0  0  0  0  0  0  0
  188.0330  177.5190  142.4420 C   0  0  0  0  0  2  0  0  0  0  0  0
  190.1670  178.7420  144.2100 C   0  0  0  0  0  2  0  0  0  0  0  0
  191.6420  179.0140  143.9520 C   0  0  0  0  0  1  0  0  0  0  0  0
  192.0560  175.4510  145.0400 O   0  0  0  0  0  0  0  0  0  0  0  0
  191.5170  176.2360  145.8660 C   0  0  0  0  0  0  0  0  0  0  0  0
  192.2290  176.7040  146.9720 O   0  0  0  0  0  0  0  0  0  0  0  0
  192.5640  175.8580  148.0610 C   0  0  0  0  0  1  0  0  0  0  0  0
  189.7140  177.5800  146.6430 O   0  0  0  0  0  0  0  0  0  0  0  0
  188.6960  176.9350  147.3520 C   0  0  0  0  0  2  0  0  0  0  0  0
  188.1690  177.8440  148.4460 C   0  0  0  0  0  2  0  0  0  0  0  0
  187.1060  178.7750  147.8890 C   0  0  0  0  0  2  0  0  0  0  0  0
  186.3080  178.0810  146.7960 C   0  0  0  0  0  2  0  0  0  0  0  0
  185.6340  179.0870  145.8770 C   0  0  0  0  0  2  0  0  0  0  0  0
  185.3260  178.4940  144.6530 O   0  0  0  0  0  0  0  0  0  0  0  0
  184.4700  179.4030  144.0250 C   0  0  0  0  0  2  0  0  0  0  0  0
  183.6970  178.7040  142.9230 C   0  0  0  0  0  2  0  0  0  0  0  0
  184.5830  178.0530  142.0630 O   0  0  0  0  0  0  0  0  0  0  0  0
  184.8450  178.9880  141.0620 C   0  0  0  0  0  1  0  0  0  0  0  0
  1 12  1  6  0  0  0
  1 15  1  0  0  0  0
  2  7  1  0  0  0  0
  3  7  1  0  0  0  0
  4  5  1  0  0  0  0
  5  6  2  0  0  0  0
  5  8  1  0  0  0  0
  6  3  1  0  0  0  0
  7  9  1  6  0  0  0
  7  1  1  0  0  0  0
  8  2  1  0  0  0  0
 10  9  1  0  0  0  0
 11 12  2  0  0  0  0
 12 13  1  0  0  0  0
 13 14  1  0  0  0  0
 15 16  1  0  0  0  0
 16 17  1  0  0  0  0
 18 17  1  0  0  0  0
 19 18  1  0  0  0  0
 20 19  1  0  0  0  0
 21 20  1  0  0  0  0
 22 21  1  0  0  0  0
 23 22  1  0  0  0  0
 24 23  1  0  0  0  0
 25 24  1  0  0  0  0
M  END
>  <MODEL>
4

>  <REMARK>
 VINA RESULT:      -6.0      1.640      4.411
  Name = 
  14 active torsions:
  status: ('A' for Active; 'I' for Inactive)
    1  A    between atoms: C_1  and  O_3
    2  A    between atoms: C_1  and  C_18
    3  A    between atoms: C_1  and  C_24
    4  A    between atoms: C_2  and  O_7
    5  A    between atoms: C_2  and  C_25
    6  A    between atoms: O_3  and  C_16
    7  A    between atoms: C_6  and  C_15
    8  A    between atoms: C_6  and  O_21
    9  A    between atoms: O_13  and  C_24
   10  A    between atoms: C_15  and  C_20
   11  A    between atoms: C_16  and  C_23
   12  A    between atoms: C_17  and  C_18
   13  A    between atoms: C_20  and  C_23
   14  A    between atoms: O_21  and  C_25
                            x       y       z     vdW  Elec       q    Type
                         _______ _______ _______ _____ _____    ______ ____

>  <TORSDO>
F 14

$$$$
=
 OpenBabel10272400553D

 25 25  0  0  1  0  0  0  0  0999 V2000
  189.0450  177.2740  142.7580 C   0  0  1  0  0  3  0  0  0  0  0  0
  190.7600  175.6390  143.6320 C   0  0  0  0  0  2  0  0  0  0  0  0
  189.8500  177.4080  145.1440 C   0  0  0  0  0  2  0  0  0  0  0  0
  192.6210  175.6230  146.9540 O   0  0  0  0  0  1  0  0  0  0  0  0
  191.7650  176.0040  145.9310 C   0  0  0  0  0  0  0  0  0  0  0  0
  190.8550  176.9540  146.1680 C   0  0  0  0  0  3  0  0  0  0  0  0
  190.2640  177.0960  143.6960 C   0  0  2  0  0  0  0  0  0  0  0  0
  191.9450  175.3880  144.5700 C   0  0  0  0  0  2  0  0  0  0  0  0
  191.3820  178.0700  143.2790 C   0  0  0  0  0  2  0  0  0  0  0  0
  191.1940  179.4680  143.8510 C   0  0  0  0  0  1  0  0  0  0  0  0
  190.1490  176.3590  140.8490 O   0  0  0  0  0  0  0  0  0  0  0  0
  189.3980  177.2670  141.2980 C   0  0  0  0  0  0  0  0  0  0  0  0
  188.8920  178.2550  140.4510 O   0  0  0  0  0  0  0  0  0  0  0  0
  189.3020  178.3630  139.0960 C   0  0  0  0  0  1  0  0  0  0  0  0
  188.0580  176.3130  143.0160 O   0  0  0  0  0  0  0  0  0  0  0  0
  187.1060  176.9730  143.7990 C   0  0  0  0  0  2  0  0  0  0  0  0
  186.5800  178.1890  143.0590 C   0  0  0  0  0  2  0  0  0  0  0  0
  185.0660  178.1320  142.9650 C   0  0  0  0  0  2  0  0  0  0  0  0
  184.4390  179.2850  143.7340 C   0  0  0  0  0  2  0  0  0  0  0  0
  184.1070  178.8830  145.1630 C   0  0  0  0  0  2  0  0  0  0  0  0
  185.0320  179.4360  146.0480 O   0  0  0  0  0  0  0  0  0  0  0  0
  185.4520  178.3620  146.8370 C   0  0  0  0  0  2  0  0  0  0  0  0
  186.9070  178.5480  147.2250 C   0  0  0  0  0  2  0  0  0  0  0  0
  187.2620  177.6120  148.1980 O   0  0  0  0  0  0  0  0  0  0  0  0
  188.4860  178.0670  148.6870 C   0  0  0  0  0  1  0  0  0  0  0  0
  1 12  1  6  0  0  0
  1 15  1  0  0  0  0
  1  7  1  0  0  0  0
  2  7  1  0  0  0  0
  2  8  1  0  0  0  0
  3  6  1  0  0  0  0
  5  6  2  0  0  0  0
  5  4  1  0  0  0  0
  7  9  1  6  0  0  0
  7  3  1  0  0  0  0
  8  5  1  0  0  0  0
  9 10  1  0  0  0  0
 11 12  2  0  0  0  0
 13 12  1  0  0  0  0
 14 13  1  0  0  0  0
 15 16  1  0  0  0  0
 17 16  1  0  0  0  0
 18 17  1  0  0  0  0
 18 19  1  0  0  0  0
 19 20  1  0  0  0  0
 20 21  1  0  0  0  0
 21 22  1  0  0  0  0
 22 23  1  0  0  0  0
 23 24  1  0  0  0  0
 24 25  1  0  0  0  0
M  END
>  <MODEL>
5

>  <REMARK>
 VINA RESULT:      -5.9      2.068      3.927
  Name = 
  14 active torsions:
  status: ('A' for Active; 'I' for Inactive)
    1  A    between atoms: C_1  and  O_3
    2  A    between atoms: C_1  and  C_18
    3  A    between atoms: C_1  and  C_24
    4  A    between atoms: C_2  and  O_7
    5  A    between atoms: C_2  and  C_25
    6  A    between atoms: O_3  and  C_16
    7  A    between atoms: C_6  and  C_15
    8  A    between atoms: C_6  and  O_21
    9  A    between atoms: O_13  and  C_24
   10  A    between atoms: C_15  and  C_20
   11  A    between atoms: C_16  and  C_23
   12  A    between atoms: C_17  and  C_18
   13  A    between atoms: C_20  and  C_23
   14  A    between atoms: O_21  and  C_25
                            x       y       z     vdW  Elec       q    Type
                         _______ _______ _______ _____ _____    ______ ____

>  <TORSDO>
F 14

$$$$
=
 OpenBabel10272400553D

 25 25  0  0  1  0  0  0  0  0999 V2000
  189.8220  177.6640  141.5940 C   0  0  1  0  0  3  0  0  0  0  0  0
  189.9410  178.3770  144.0140 C   0  0  0  0  0  2  0  0  0  0  0  0
  191.3550  176.4810  143.2090 C   0  0  0  0  0  2  0  0  0  0  0  0
  191.7230  176.7210  146.9440 O   0  0  0  0  0  1  0  0  0  0  0  0
  191.2550  176.9670  145.6600 C   0  0  0  0  0  0  0  0  0  0  0  0
  191.7590  176.2620  144.6420 C   0  0  0  0  0  3  0  0  0  0  0  0
  189.9910  177.1740  143.0530 C   0  0  2  0  0  0  0  0  0  0  0  0
  190.1420  177.9610  145.4740 C   0  0  0  0  0  2  0  0  0  0  0  0
  188.8800  176.1620  143.3890 C   0  0  0  0  0  2  0  0  0  0  0  0
  187.6040  176.8250  143.8870 C   0  0  0  0  0  1  0  0  0  0  0  0
  191.9980  177.7430  140.6160 O   0  0  0  0  0  0  0  0  0  0  0  0
  190.8830  177.1580  140.6580 C   0  0  0  0  0  0  0  0  0  0  0  0
  190.6310  176.0470  139.8500 O   0  0  0  0  0  0  0  0  0  0  0  0
  190.7970  176.0920  138.4410 C   0  0  0  0  0  1  0  0  0  0  0  0
  188.5520  177.3450  141.0940 O   0  0  0  0  0  0  0  0  0  0  0  0
  188.0480  178.5490  140.5930 C   0  0  0  0  0  2  0  0  0  0  0  0
  186.5580  178.4210  140.3380 C   0  0  0  0  0  2  0  0  0  0  0  0
  185.7770  179.1900  141.3890 C   0  0  0  0  0  2  0  0  0  0  0  0
  184.4080  178.5630  141.6030 C   0  0  0  0  0  2  0  0  0  0  0  0
  184.1420  178.3030  143.0780 C   0  0  0  0  0  2  0  0  0  0  0  0
  184.1520  179.5020  143.7900 O   0  0  0  0  0  0  0  0  0  0  0  0
  184.1290  179.1150  145.1330 C   0  0  0  0  0  2  0  0  0  0  0  0
  185.5370  179.1370  145.6970 C   0  0  0  0  0  2  0  0  0  0  0  0
  185.4910  179.0560  147.0900 O   0  0  0  0  0  0  0  0  0  0  0  0
  186.6780  178.4140  147.4400 C   0  0  0  0  0  1  0  0  0  0  0  0
  1 12  1  6  0  0  0
  1  7  1  0  0  0  0
  2  8  1  0  0  0  0
  3  6  1  0  0  0  0
  5  4  1  0  0  0  0
  6  5  2  0  0  0  0
  7  3  1  0  0  0  0
  7  9  1  1  0  0  0
  7  2  1  0  0  0  0
  8  5  1  0  0  0  0
  9 10  1  0  0  0  0
 11 12  2  0  0  0  0
 13 12  1  0  0  0  0
 14 13  1  0  0  0  0
 15  1  1  0  0  0  0
 16 15  1  0  0  0  0
 17 16  1  0  0  0  0
 17 18  1  0  0  0  0
 18 19  1  0  0  0  0
 19 20  1  0  0  0  0
 20 21  1  0  0  0  0
 21 22  1  0  0  0  0
 22 23  1  0  0  0  0
 23 24  1  0  0  0  0
 24 25  1  0  0  0  0
M  END
>  <MODEL>
6

>  <REMARK>
 VINA RESULT:      -5.9      1.871      4.122
  Name = 
  14 active torsions:
  status: ('A' for Active; 'I' for Inactive)
    1  A    between atoms: C_1  and  O_3
    2  A    between atoms: C_1  and  C_18
    3  A    between atoms: C_1  and  C_24
    4  A    between atoms: C_2  and  O_7
    5  A    between atoms: C_2  and  C_25
    6  A    between atoms: O_3  and  C_16
    7  A    between atoms: C_6  and  C_15
    8  A    between atoms: C_6  and  O_21
    9  A    between atoms: O_13  and  C_24
   10  A    between atoms: C_15  and  C_20
   11  A    between atoms: C_16  and  C_23
   12  A    between atoms: C_17  and  C_18
   13  A    between atoms: C_20  and  C_23
   14  A    between atoms: O_21  and  C_25
                            x       y       z     vdW  Elec       q    Type
                         _______ _______ _______ _____ _____    ______ ____

>  <TORSDO>
F 14

$$$$
=
 OpenBabel10272400553D

 25 25  0  0  1  0  0  0  0  0999 V2000
  187.5450  177.7580  142.0220 C   0  0  1  0  0  3  0  0  0  0  0  0
  187.1420  177.5880  144.5100 C   0  0  0  0  0  2  0  0  0  0  0  0
  189.3820  178.2990  143.6620 C   0  0  0  0  0  2  0  0  0  0  0  0
  189.6170  177.8660  147.3910 O   0  0  0  0  0  1  0  0  0  0  0  0
  189.0970  177.8370  146.1040 C   0  0  0  0  0  0  0  0  0  0  0  0
  189.8630  178.2470  145.0870 C   0  0  0  0  0  3  0  0  0  0  0  0
  188.1760  177.3860  143.3860 C   0  0  2  0  0  0  0  0  0  0  0  0
  187.7200  177.2710  145.8930 C   0  0  0  0  0  2  0  0  0  0  0  0
  188.6600  175.9240  143.3480 C   0  0  0  0  0  2  0  0  0  0  0  0
  190.0970  175.7860  142.8650 C   0  0  0  0  0  1  0  0  0  0  0  0
  186.3380  179.8180  142.0190 O   0  0  0  0  0  0  0  0  0  0  0  0
  186.2820  178.5640  142.1390 C   0  0  0  0  0  0  0  0  0  0  0  0
  185.0630  177.9240  142.3710 O   0  0  0  0  0  0  0  0  0  0  0  0
  184.1010  178.4500  143.2720 C   0  0  0  0  0  1  0  0  0  0  0  0
  188.4640  178.4250  141.2010 O   0  0  0  0  0  0  0  0  0  0  0  0
  188.6210  177.5970  140.0860 C   0  0  0  0  0  2  0  0  0  0  0  0
  189.5070  178.2730  139.0570 C   0  0  0  0  0  2  0  0  0  0  0  0
  188.6900  178.6750  137.8420 C   0  0  0  0  0  2  0  0  0  0  0  0
  187.9070  177.4850  137.3080 C   0  0  0  0  0  2  0  0  0  0  0  0
  186.4240  177.8030  137.1950 C   0  0  0  0  0  2  0  0  0  0  0  0
  186.0660  178.7770  138.1270 O   0  0  0  0  0  0  0  0  0  0  0  0
  184.8240  178.3600  138.6140 C   0  0  0  0  0  2  0  0  0  0  0  0
  184.0840  179.5420  139.2100 C   0  0  0  0  0  2  0  0  0  0  0  0
  183.0140  179.0890  139.9840 O   0  0  0  0  0  0  0  0  0  0  0  0
  182.8390  177.7620  139.5930 C   0  0  0  0  0  1  0  0  0  0  0  0
  1 15  1  6  0  0  0
  1 12  1  0  0  0  0
  1  7  1  0  0  0  0
  2  8  1  0  0  0  0
  3  6  1  0  0  0  0
  5  4  1  0  0  0  0
  6  5  2  0  0  0  0
  7  9  1  6  0  0  0
  7  3  1  0  0  0  0
  7  2  1  0  0  0  0
  8  5  1  0  0  0  0
 10  9  1  0  0  0  0
 11 12  2  0  0  0  0
 12 13  1  0  0  0  0
 13 14  1  0  0  0  0
 16 15  1  0  0  0  0
 17 16  1  0  0  0  0
 18 17  1  0  0  0  0
 19 18  1  0  0  0  0
 20 19  1  0  0  0  0
 20 21  1  0  0  0  0
 21 22  1  0  0  0  0
 22 23  1  0  0  0  0
 23 24  1  0  0  0  0
 25 24  1  0  0  0  0
M  END
>  <MODEL>
7

>  <REMARK>
 VINA RESULT:      -5.4      2.014      4.558
  Name = 
  14 active torsions:
  status: ('A' for Active; 'I' for Inactive)
    1  A    between atoms: C_1  and  O_3
    2  A    between atoms: C_1  and  C_18
    3  A    between atoms: C_1  and  C_24
    4  A    between atoms: C_2  and  O_7
    5  A    between atoms: C_2  and  C_25
    6  A    between atoms: O_3  and  C_16
    7  A    between atoms: C_6  and  C_15
    8  A    between atoms: C_6  and  O_21
    9  A    between atoms: O_13  and  C_24
   10  A    between atoms: C_15  and  C_20
   11  A    between atoms: C_16  and  C_23
   12  A    between atoms: C_17  and  C_18
   13  A    between atoms: C_20  and  C_23
   14  A    between atoms: O_21  and  C_25
                            x       y       z     vdW  Elec       q    Type
                         _______ _______ _______ _____ _____    ______ ____

>  <TORSDO>
F 14

$$$$
=
 OpenBabel10272400553D

 25 25  0  0  1  0  0  0  0  0999 V2000
  188.7750  177.4300  143.7950 C   0  0  1  0  0  3  0  0  0  0  0  0
  190.8810  176.3120  144.6300 C   0  0  0  0  0  2  0  0  0  0  0  0
  189.2330  177.2330  146.2660 C   0  0  0  0  0  2  0  0  0  0  0  0
  192.2760  176.1050  148.1670 O   0  0  0  0  0  1  0  0  0  0  0  0
  191.4450  176.4140  147.0990 C   0  0  0  0  0  0  0  0  0  0  0  0
  190.2280  176.9080  147.3480 C   0  0  0  0  0  3  0  0  0  0  0  0
  189.8740  177.4490  144.8860 C   0  0  2  0  0  0  0  0  0  0  0  0
  191.9740  176.2540  145.7000 C   0  0  0  0  0  2  0  0  0  0  0  0
  190.5830  178.8160  144.8780 C   0  0  0  0  0  2  0  0  0  0  0  0
  191.5740  178.9640  143.7320 C   0  0  0  0  0  1  0  0  0  0  0  0
  188.9190  175.3280  142.6720 O   0  0  0  0  0  0  0  0  0  0  0  0
  189.1140  176.5720  142.6090 C   0  0  0  0  0  0  0  0  0  0  0  0
  189.6330  177.1530  141.4510 O   0  0  0  0  0  0  0  0  0  0  0  0
  188.8010  177.8070  140.5030 C   0  0  0  0  0  1  0  0  0  0  0  0
  187.5370  177.0440  144.3260 O   0  0  0  0  0  0  0  0  0  0  0  0
  186.5890  177.5120  143.4100 C   0  0  0  0  0  2  0  0  0  0  0  0
  185.6000  178.4250  144.1090 C   0  0  0  0  0  2  0  0  0  0  0  0
  184.9290  179.3420  143.1010 C   0  0  0  0  0  2  0  0  0  0  0  0
  184.5620  178.5730  141.8420 C   0  0  0  0  0  2  0  0  0  0  0  0
  185.3050  179.1090  140.6280 C   0  0  0  0  0  2  0  0  0  0  0  0
  184.4410  179.8430  139.8160 O   0  0  0  0  0  0  0  0  0  0  0  0
  183.5350  178.8990  139.3220 C   0  0  0  0  0  2  0  0  0  0  0  0
  182.3560  179.6070  138.6800 C   0  0  0  0  0  2  0  0  0  0  0  0
  181.2230  178.7950  138.7470 O   0  0  0  0  0  0  0  0  0  0  0  0
  181.7250  177.5180  138.9970 C   0  0  0  0  0  1  0  0  0  0  0  0
  1 12  1  6  0  0  0
  1 15  1  0  0  0  0
  1  7  1  0  0  0  0
  2  7  1  0  0  0  0
  2  8  1  0  0  0  0
  3  6  1  0  0  0  0
  5  6  2  0  0  0  0
  5  4  1  0  0  0  0
  7  9  1  6  0  0  0
  7  3  1  0  0  0  0
  8  5  1  0  0  0  0
 10  9  1  0  0  0  0
 12 11  2  0  0  0  0
 13 12  1  0  0  0  0
 14 13  1  0  0  0  0
 16 17  1  0  0  0  0
 16 15  1  0  0  0  0
 18 17  1  0  0  0  0
 19 18  1  0  0  0  0
 20 19  1  0  0  0  0
 21 20  1  0  0  0  0
 22 21  1  0  0  0  0
 23 24  1  0  0  0  0
 23 22  1  0  0  0  0
 24 25  1  0  0  0  0
M  END
>  <MODEL>
8

>  <REMARK>
 VINA RESULT:      -5.4      1.184      1.713
  Name = 
  14 active torsions:
  status: ('A' for Active; 'I' for Inactive)
    1  A    between atoms: C_1  and  O_3
    2  A    between atoms: C_1  and  C_18
    3  A    between atoms: C_1  and  C_24
    4  A    between atoms: C_2  and  O_7
    5  A    between atoms: C_2  and  C_25
    6  A    between atoms: O_3  and  C_16
    7  A    between atoms: C_6  and  C_15
    8  A    between atoms: C_6  and  O_21
    9  A    between atoms: O_13  and  C_24
   10  A    between atoms: C_15  and  C_20
   11  A    between atoms: C_16  and  C_23
   12  A    between atoms: C_17  and  C_18
   13  A    between atoms: C_20  and  C_23
   14  A    between atoms: O_21  and  C_25
                            x       y       z     vdW  Elec       q    Type
                         _______ _______ _______ _____ _____    ______ ____

>  <TORSDO>
F 14

$$$$
=
 OpenBabel10272400553D

 25 25  0  0  1  0  0  0  0  0999 V2000
  187.2200  177.9570  142.1090 C   0  0  1  0  0  3  0  0  0  0  0  0
  186.8330  177.7090  144.5930 C   0  0  0  0  0  2  0  0  0  0  0  0
  189.1060  178.3060  143.7460 C   0  0  0  0  0  2  0  0  0  0  0  0
  189.3510  177.7020  147.4500 O   0  0  0  0  0  1  0  0  0  0  0  0
  188.8170  177.7620  146.1700 C   0  0  0  0  0  0  0  0  0  0  0  0
  189.5970  178.1620  145.1610 C   0  0  0  0  0  3  0  0  0  0  0  0
  187.8390  177.4870  143.4480 C   0  0  2  0  0  0  0  0  0  0  0  0
  187.4020  177.2970  145.9530 C   0  0  0  0  0  2  0  0  0  0  0  0
  188.2250  175.9990  143.3430 C   0  0  0  0  0  2  0  0  0  0  0  0
  189.6710  175.7890  142.9180 C   0  0  0  0  0  1  0  0  0  0  0  0
  185.8740  179.9120  142.3680 O   0  0  0  0  0  0  0  0  0  0  0  0
  185.8990  178.6560  142.2650 C   0  0  0  0  0  0  0  0  0  0  0  0
  184.7150  177.9150  142.2870 O   0  0  0  0  0  0  0  0  0  0  0  0
  183.7330  178.0420  141.2700 C   0  0  0  0  0  1  0  0  0  0  0  0
  188.1100  178.7710  141.3940 O   0  0  0  0  0  0  0  0  0  0  0  0
  187.9930  178.3530  140.0650 C   0  0  0  0  0  2  0  0  0  0  0  0
  189.3580  178.3480  139.4020 C   0  0  0  0  0  2  0  0  0  0  0  0
  189.9430  176.9470  139.4160 C   0  0  0  0  0  2  0  0  0  0  0  0
  191.0460  176.8180  138.3770 C   0  0  0  0  0  2  0  0  0  0  0  0
  190.9780  175.4780  137.6600 C   0  0  0  0  0  2  0  0  0  0  0  0
  192.0470  174.6690  138.0440 O   0  0  0  0  0  0  0  0  0  0  0  0
  193.1440  175.5330  138.0920 C   0  0  0  0  0  2  0  0  0  0  0  0
  194.4230  174.7530  137.8500 C   0  0  0  0  0  2  0  0  0  0  0  0
  195.2120  175.4170  136.9100 O   0  0  0  0  0  0  0  0  0  0  0  0
  196.3280  174.5960  136.7510 C   0  0  0  0  0  1  0  0  0  0  0  0
  1 15  1  1  0  0  0
  1 12  1  0  0  0  0
  1  7  1  0  0  0  0
  2  8  1  0  0  0  0
  3  6  1  0  0  0  0
  5  4  1  0  0  0  0
  6  5  2  0  0  0  0
  7  9  1  6  0  0  0
  7  3  1  0  0  0  0
  7  2  1  0  0  0  0
  8  5  1  0  0  0  0
 10  9  1  0  0  0  0
 12 13  1  0  0  0  0
 12 11  2  0  0  0  0
 14 13  1  0  0  0  0
 16 15  1  0  0  0  0
 17 18  1  0  0  0  0
 17 16  1  0  0  0  0
 19 18  1  0  0  0  0
 20 21  1  0  0  0  0
 20 19  1  0  0  0  0
 21 22  1  0  0  0  0
 23 22  1  0  0  0  0
 24 23  1  0  0  0  0
 25 24  1  0  0  0  0
M  END
>  <MODEL>
9

>  <REMARK>
 VINA RESULT:      -5.3      3.826      7.041
  Name = 
  14 active torsions:
  status: ('A' for Active; 'I' for Inactive)
    1  A    between atoms: C_1  and  O_3
    2  A    between atoms: C_1  and  C_18
    3  A    between atoms: C_1  and  C_24
    4  A    between atoms: C_2  and  O_7
    5  A    between atoms: C_2  and  C_25
    6  A    between atoms: O_3  and  C_16
    7  A    between atoms: C_6  and  C_15
    8  A    between atoms: C_6  and  O_21
    9  A    between atoms: O_13  and  C_24
   10  A    between atoms: C_15  and  C_20
   11  A    between atoms: C_16  and  C_23
   12  A    between atoms: C_17  and  C_18
   13  A    between atoms: C_20  and  C_23
   14  A    between atoms: O_21  and  C_25
                            x       y       z     vdW  Elec       q    Type
                         _______ _______ _______ _____ _____    ______ ____

>  <TORSDO>
F 14

$$$$
