=
 OpenBabel10272401533D

 28 32  0  0  1  0  0  0  0  0999 V2000
  187.7200  178.3290  147.8700 C   0  0  0  0  0  2  0  0  0  0  0  0
  188.9460  177.2040  145.2990 C   0  0  2  0  0  3  0  0  0  0  0  0
  188.8920  177.3620  147.8240 C   0  0  0  0  0  2  0  0  0  0  0  0
  185.8380  178.6820  146.3420 C   0  0  1  0  0  3  0  0  0  0  0  0
  187.7450  178.1250  145.1030 C   0  0  0  0  0  2  0  0  0  0  0  0
  186.4860  177.7060  147.2100 C   0  0  1  0  0  3  0  0  0  0  0  0
  189.7160  177.5820  146.5620 C   0  0  0  0  0  2  0  0  0  0  0  0
  186.5540  177.5520  145.7290 N   0  0  1  0  0  0  0  0  0  0  0  0
  191.0180  178.0380  144.1160 C   0  0  0  0  0  3  0  0  0  0  0  0
  189.5800  176.4440  142.9890 C   0  0  0  0  0  0  0  0  0  0  0  0
  191.5770  177.2680  141.8920 C   0  0  0  0  0  0  0  0  0  0  0  0
  189.8600  177.2430  144.1090 C   0  0  0  0  0  0  0  0  0  0  0  0
  190.4360  176.4620  141.8840 C   0  0  0  0  0  3  0  0  0  0  0  0
  188.4850  175.6420  142.9680 F   0  0  0  0  0  0  0  0  0  0  0  0
  192.4030  177.2830  140.8190 F   0  0  0  0  0  0  0  0  0  0  0  0
  191.8700  178.0520  143.0100 C   0  0  0  0  0  3  0  0  0  0  0  0
  184.3460  178.4200  146.2970 C   0  0  0  0  0  2  0  0  0  0  0  0
  183.7260  179.2530  145.1890 C   0  0  0  0  0  2  0  0  0  0  0  0
  182.3970  179.0360  143.1710 C   0  0  0  0  0  2  0  0  0  0  0  0
  183.8010  179.1320  142.7440 N   0  0  0  0  0  0  0  0  0  0  0  0
  183.4370  178.3980  143.9680 C   0  0  1  0  0  3  0  0  0  0  0  0
  183.9680  178.2060  141.7650 O   0  0  0  0  0  0  0  0  0  0  0  0
  183.6640  179.4690  139.6120 C   0  0  2  0  0  0  0  0  0  0  0  0
  185.8250  179.4270  140.8720 O   0  0  0  0  0  1  0  0  0  0  0  0
  184.3900  178.1570  139.3660 C   0  0  0  0  0  2  0  0  0  0  0  0
  184.5490  178.8910  140.6890 C   0  0  1  0  0  0  0  0  0  0  0  0
  182.2940  179.3860  139.7790 F   0  0  0  0  0  0  0  0  0  0  0  0
  184.1880  180.5510  138.9060 O   0  0  0  0  0  1  0  0  0  0  0  0
  2 12  1  6  0  0  0
  2  7  1  0  0  0  0
  3  1  1  0  0  0  0
  4 17  1  1  0  0  0
  4  6  1  0  0  0  0
  5  2  1  0  0  0  0
  6  1  1  6  0  0  0
  7  3  1  0  0  0  0
  8  5  1  6  0  0  0
  8  4  1  0  0  0  0
  8  6  1  0  0  0  0
 10 12  2  0  0  0  0
 11 16  1  0  0  0  0
 12  9  1  0  0  0  0
 13 11  2  0  0  0  0
 13 10  1  0  0  0  0
 14 10  1  0  0  0  0
 15 11  1  0  0  0  0
 16  9  2  0  0  0  0
 18 17  1  0  0  0  0
 19 21  1  0  0  0  0
 20 19  1  0  0  0  0
 20 21  1  0  0  0  0
 21 18  1  1  0  0  0
 22 20  1  0  0  0  0
 23 28  1  6  0  0  0
 23 27  1  0  0  0  0
 23 26  1  0  0  0  0
 25 23  1  0  0  0  0
 25 26  1  0  0  0  0
 26 24  1  1  0  0  0
 26 22  1  0  0  0  0
M  END
>  <MODEL>
1

>  <REMARK>
 VINA RESULT:      -9.0      0.000      0.000
  Name = 
  6 active torsions:
  status: ('A' for Active; 'I' for Inactive)
    1  A    between atoms: O_2  and  N_3
    2  A    between atoms: O_2  and  C_11
    3  A    between atoms: C_10  and  C_13
    4  A    between atoms: C_16  and  C_21
    5  A    between atoms: C_19  and  C_21
    6  A    between atoms: C_19  and  C_26
                            x       y       z     vdW  Elec       q    Type
                         _______ _______ _______ _____ _____    ______ ____

>  <TORSDO>
F 6

$$$$
=
 OpenBabel10272401533D

 28 32  0  0  1  0  0  0  0  0999 V2000
  188.7550  177.1060  147.3830 C   0  0  0  0  0  2  0  0  0  0  0  0
  186.7330  178.4860  145.5420 C   0  0  2  0  0  3  0  0  0  0  0  0
  187.7310  178.1330  147.8400 C   0  0  0  0  0  2  0  0  0  0  0  0
  189.8810  176.7750  145.2330 C   0  0  1  0  0  3  0  0  0  0  0  0
  187.6950  177.5220  144.8520 C   0  0  0  0  0  2  0  0  0  0  0  0
  189.6890  177.7140  146.3320 C   0  0  1  0  0  3  0  0  0  0  0  0
  186.4750  178.0520  146.9830 C   0  0  0  0  0  2  0  0  0  0  0  0
  189.0750  177.9830  145.0000 N   0  0  1  0  0  0  0  0  0  0  0  0
  184.2200  178.7480  145.4790 C   0  0  0  0  0  3  0  0  0  0  0  0
  185.4360  178.5560  143.3910 C   0  0  0  0  0  0  0  0  0  0  0  0
  183.0270  178.8110  143.3760 C   0  0  0  0  0  0  0  0  0  0  0  0
  185.4360  178.5840  144.7950 C   0  0  0  0  0  0  0  0  0  0  0  0
  184.2330  178.6650  142.6870 C   0  0  0  0  0  3  0  0  0  0  0  0
  186.5990  178.4300  142.7020 F   0  0  0  0  0  0  0  0  0  0  0  0
  181.8630  178.9160  142.6900 F   0  0  0  0  0  0  0  0  0  0  0  0
  183.0210  178.8570  144.7720 C   0  0  0  0  0  3  0  0  0  0  0  0
  191.2590  176.9630  144.6310 C   0  0  0  0  0  2  0  0  0  0  0  0
  191.1970  178.0530  143.5750 C   0  0  0  0  0  2  0  0  0  0  0  0
  190.3760  176.3830  142.0190 C   0  0  0  0  0  2  0  0  0  0  0  0
  190.1080  177.6940  141.4100 N   0  0  0  0  0  0  0  0  0  0  0  0
  191.3410  177.4630  142.1830 C   0  0  1  0  0  3  0  0  0  0  0  0
  190.4400  177.5830  140.0990 O   0  0  0  0  0  0  0  0  0  0  0  0
  188.8150  176.9150  138.2980 C   0  0  2  0  0  0  0  0  0  0  0  0
  188.3200  178.6950  139.9860 O   0  0  0  0  0  1  0  0  0  0  0  0
  189.5270  178.2050  137.9260 C   0  0  0  0  0  2  0  0  0  0  0  0
  189.2660  177.8610  139.3850 C   0  0  1  0  0  0  0  0  0  0  0  0
  189.5310  175.7470  138.1120 F   0  0  0  0  0  0  0  0  0  0  0  0
  187.4510  176.9160  138.0150 O   0  0  0  0  0  1  0  0  0  0  0  0
  1  3  1  0  0  0  0
  2 12  1  6  0  0  0
  2  7  1  0  0  0  0
  4 17  1  6  0  0  0
  4  6  1  0  0  0  0
  5  2  1  0  0  0  0
  6  1  1  1  0  0  0
  7  3  1  0  0  0  0
  8  5  1  1  0  0  0
  8  4  1  0  0  0  0
  8  6  1  0  0  0  0
 10 12  2  0  0  0  0
 11 16  1  0  0  0  0
 12  9  1  0  0  0  0
 13 11  2  0  0  0  0
 13 10  1  0  0  0  0
 14 10  1  0  0  0  0
 15 11  1  0  0  0  0
 16  9  2  0  0  0  0
 18 17  1  0  0  0  0
 19 21  1  0  0  0  0
 20 19  1  0  0  0  0
 20 21  1  0  0  0  0
 21 18  1  1  0  0  0
 22 20  1  0  0  0  0
 23 28  1  6  0  0  0
 23 26  1  0  0  0  0
 25 23  1  0  0  0  0
 25 26  1  0  0  0  0
 26 24  1  1  0  0  0
 26 22  1  0  0  0  0
 27 23  1  0  0  0  0
M  END
>  <MODEL>
2

>  <REMARK>
 VINA RESULT:      -8.9      2.590      6.021
  Name = 
  6 active torsions:
  status: ('A' for Active; 'I' for Inactive)
    1  A    between atoms: O_2  and  N_3
    2  A    between atoms: O_2  and  C_11
    3  A    between atoms: C_10  and  C_13
    4  A    between atoms: C_16  and  C_21
    5  A    between atoms: C_19  and  C_21
    6  A    between atoms: C_19  and  C_26
                            x       y       z     vdW  Elec       q    Type
                         _______ _______ _______ _____ _____    ______ ____

>  <TORSDO>
F 6

$$$$
=
 OpenBabel10272401533D

 28 32  0  0  1  0  0  0  0  0999 V2000
  188.5840  177.0530  147.3440 C   0  0  0  0  0  2  0  0  0  0  0  0
  186.6370  178.4400  145.4290 C   0  0  2  0  0  3  0  0  0  0  0  0
  187.5020  178.0320  147.7710 C   0  0  0  0  0  2  0  0  0  0  0  0
  189.8510  176.8350  145.2590 C   0  0  1  0  0  3  0  0  0  0  0  0
  187.6700  177.5320  144.7670 C   0  0  0  0  0  2  0  0  0  0  0  0
  189.5610  177.7260  146.3760 C   0  0  1  0  0  3  0  0  0  0  0  0
  186.3040  177.9460  146.8340 C   0  0  0  0  0  2  0  0  0  0  0  0
  189.0230  178.0270  145.0190 N   0  0  1  0  0  0  0  0  0  0  0  0
  184.1380  178.7430  145.2110 C   0  0  0  0  0  3  0  0  0  0  0  0
  185.4660  178.4390  143.2050 C   0  0  0  0  0  0  0  0  0  0  0  0
  183.0670  178.7350  143.0430 C   0  0  0  0  0  0  0  0  0  0  0  0
  185.3870  178.5290  144.6050 C   0  0  0  0  0  0  0  0  0  0  0  0
  184.3070  178.5370  142.4300 C   0  0  0  0  0  3  0  0  0  0  0  0
  186.6630  178.2620  142.5900 F   0  0  0  0  0  0  0  0  0  0  0  0
  181.9460  178.8300  142.2870 F   0  0  0  0  0  0  0  0  0  0  0  0
  182.9830  178.8430  144.4320 C   0  0  0  0  0  3  0  0  0  0  0  0
  191.2570  177.0860  144.7520 C   0  0  0  0  0  2  0  0  0  0  0  0
  191.4000  176.4930  143.3620 C   0  0  0  0  0  2  0  0  0  0  0  0
  191.9310  177.4720  141.2060 C   0  0  0  0  0  2  0  0  0  0  0  0
  190.6380  176.7880  141.0520 N   0  0  0  0  0  0  0  0  0  0  0  0
  190.9700  177.4930  142.3020 C   0  0  1  0  0  3  0  0  0  0  0  0
  189.8480  177.6220  140.3290 O   0  0  0  0  0  0  0  0  0  0  0  0
  189.4040  177.8950  137.8690 C   0  0  2  0  0  0  0  0  0  0  0  0
  190.3680  175.8070  138.8550 O   0  0  0  0  0  1  0  0  0  0  0  0
  188.3090  177.0690  138.5230 C   0  0  0  0  0  2  0  0  0  0  0  0
  189.7310  177.0320  139.0630 C   0  0  1  0  0  0  0  0  0  0  0  0
  189.3290  179.2630  138.0530 F   0  0  0  0  0  0  0  0  0  0  0  0
  189.8220  177.4090  136.6310 O   0  0  0  0  0  1  0  0  0  0  0  0
  1  3  1  0  0  0  0
  2 12  1  6  0  0  0
  2  7  1  0  0  0  0
  4 17  1  6  0  0  0
  4  6  1  0  0  0  0
  5  2  1  0  0  0  0
  6  1  1  1  0  0  0
  7  3  1  0  0  0  0
  8  5  1  1  0  0  0
  8  4  1  0  0  0  0
  8  6  1  0  0  0  0
 10 12  2  0  0  0  0
 11 16  1  0  0  0  0
 12  9  1  0  0  0  0
 13 11  2  0  0  0  0
 13 10  1  0  0  0  0
 14 10  1  0  0  0  0
 15 11  1  0  0  0  0
 16  9  2  0  0  0  0
 18 17  1  0  0  0  0
 19 21  1  0  0  0  0
 20 19  1  0  0  0  0
 20 21  1  0  0  0  0
 21 18  1  1  0  0  0
 22 20  1  0  0  0  0
 23 28  1  6  0  0  0
 23 27  1  0  0  0  0
 23 25  1  0  0  0  0
 23 26  1  0  0  0  0
 25 26  1  0  0  0  0
 26 24  1  6  0  0  0
 26 22  1  0  0  0  0
M  END
>  <MODEL>
3

>  <REMARK>
 VINA RESULT:      -8.8      2.962      6.196
  Name = 
  6 active torsions:
  status: ('A' for Active; 'I' for Inactive)
    1  A    between atoms: O_2  and  N_3
    2  A    between atoms: O_2  and  C_11
    3  A    between atoms: C_10  and  C_13
    4  A    between atoms: C_16  and  C_21
    5  A    between atoms: C_19  and  C_21
    6  A    between atoms: C_19  and  C_26
                            x       y       z     vdW  Elec       q    Type
                         _______ _______ _______ _____ _____    ______ ____

>  <TORSDO>
F 6

$$$$
=
 OpenBabel10272401533D

 28 32  0  0  1  0  0  0  0  0999 V2000
  189.3830  176.7080  146.8230 C   0  0  0  0  0  2  0  0  0  0  0  0
  187.1590  178.2870  145.4300 C   0  0  2  0  0  3  0  0  0  0  0  0
  188.3520  177.5650  147.5410 C   0  0  0  0  0  2  0  0  0  0  0  0
  190.3500  176.8620  144.5780 C   0  0  1  0  0  3  0  0  0  0  0  0
  188.1080  177.5330  144.5010 C   0  0  0  0  0  2  0  0  0  0  0  0
  190.2010  177.5610  145.8490 C   0  0  1  0  0  3  0  0  0  0  0  0
  187.0370  177.5720  146.7730 C   0  0  0  0  0  2  0  0  0  0  0  0
  189.4720  178.0410  144.6410 N   0  0  1  0  0  0  0  0  0  0  0  0
  185.6090  178.2110  143.4360 C   0  0  0  0  0  3  0  0  0  0  0  0
  184.7040  178.7950  145.6090 C   0  0  0  0  0  0  0  0  0  0  0  0
  183.2530  178.7080  143.6710 C   0  0  0  0  0  0  0  0  0  0  0  0
  185.8040  178.4470  144.8070 C   0  0  0  0  0  0  0  0  0  0  0  0
  183.4350  178.9290  145.0380 C   0  0  0  0  0  3  0  0  0  0  0  0
  184.8580  178.9990  146.9420 F   0  0  0  0  0  0  0  0  0  0  0  0
  182.0210  178.8390  143.1220 F   0  0  0  0  0  0  0  0  0  0  0  0
  184.3380  178.3450  142.8710 C   0  0  0  0  0  3  0  0  0  0  0  0
  191.6650  177.2460  143.9310 C   0  0  0  0  0  2  0  0  0  0  0  0
  191.3980  177.7790  142.5340 C   0  0  0  0  0  2  0  0  0  0  0  0
  189.5880  177.4160  140.9600 C   0  0  0  0  0  2  0  0  0  0  0  0
  190.8310  177.0480  140.2660 N   0  0  0  0  0  0  0  0  0  0  0  0
  190.6550  176.7520  141.6980 C   0  0  1  0  0  3  0  0  0  0  0  0
  190.5690  175.9000  139.5920 O   0  0  0  0  0  0  0  0  0  0  0  0
  189.5060  176.4590  137.3810 C   0  0  2  0  0  0  0  0  0  0  0  0
  191.9510  176.7460  137.8270 O   0  0  0  0  0  1  0  0  0  0  0  0
  190.2130  175.1170  137.3120 C   0  0  0  0  0  2  0  0  0  0  0  0
  190.7260  176.2120  138.2340 C   0  0  1  0  0  0  0  0  0  0  0  0
  188.2690  176.4660  138.0000 F   0  0  0  0  0  0  0  0  0  0  0  0
  189.6970  177.2630  136.2590 O   0  0  0  0  0  1  0  0  0  0  0  0
  1  3  1  0  0  0  0
  2 12  1  6  0  0  0
  2  7  1  0  0  0  0
  4 17  1  6  0  0  0
  4  8  1  0  0  0  0
  4  6  1  0  0  0  0
  5  2  1  0  0  0  0
  6  1  1  1  0  0  0
  7  3  1  0  0  0  0
  8  5  1  1  0  0  0
  8  6  1  0  0  0  0
  9 12  1  0  0  0  0
 10 14  1  0  0  0  0
 11 13  2  0  0  0  0
 12 10  2  0  0  0  0
 13 10  1  0  0  0  0
 15 11  1  0  0  0  0
 16  9  2  0  0  0  0
 16 11  1  0  0  0  0
 18 17  1  0  0  0  0
 19 21  1  0  0  0  0
 20 19  1  0  0  0  0
 20 21  1  0  0  0  0
 21 18  1  1  0  0  0
 22 20  1  0  0  0  0
 23 28  1  6  0  0  0
 23 27  1  0  0  0  0
 23 26  1  0  0  0  0
 25 23  1  0  0  0  0
 25 26  1  0  0  0  0
 26 24  1  6  0  0  0
 26 22  1  0  0  0  0
M  END
>  <MODEL>
4

>  <REMARK>
 VINA RESULT:      -8.6      3.504      6.453
  Name = 
  6 active torsions:
  status: ('A' for Active; 'I' for Inactive)
    1  A    between atoms: O_2  and  N_3
    2  A    between atoms: O_2  and  C_11
    3  A    between atoms: C_10  and  C_13
    4  A    between atoms: C_16  and  C_21
    5  A    between atoms: C_19  and  C_21
    6  A    between atoms: C_19  and  C_26
                            x       y       z     vdW  Elec       q    Type
                         _______ _______ _______ _____ _____    ______ ____

>  <TORSDO>
F 6

$$$$
=
 OpenBabel10272401533D

 28 32  0  0  1  0  0  0  0  0999 V2000
  183.8970  179.4620  144.3320 C   0  0  0  0  0  2  0  0  0  0  0  0
  186.3830  177.6870  144.5600 C   0  0  2  0  0  3  0  0  0  0  0  0
  184.2660  178.6450  145.5610 C   0  0  0  0  0  2  0  0  0  0  0  0
  184.3670  179.1260  141.9520 C   0  0  1  0  0  3  0  0  0  0  0  0
  186.1940  178.3790  143.2130 C   0  0  0  0  0  2  0  0  0  0  0  0
  183.7110  178.5470  143.1180 C   0  0  1  0  0  3  0  0  0  0  0  0
  185.7790  178.5230  145.6860 C   0  0  0  0  0  2  0  0  0  0  0  0
  184.9550  177.9310  142.5770 N   0  0  1  0  0  0  0  0  0  0  0  0
  188.4140  177.7990  146.0600 C   0  0  0  0  0  3  0  0  0  0  0  0
  188.6170  176.7600  143.8780 C   0  0  0  0  0  0  0  0  0  0  0  0
  190.5390  176.8870  145.3490 C   0  0  0  0  0  0  0  0  0  0  0  0
  187.8340  177.4250  144.8360 C   0  0  0  0  0  0  0  0  0  0  0  0
  189.9660  176.4980  144.1350 C   0  0  0  0  0  3  0  0  0  0  0  0
  188.0760  176.3610  142.7000 F   0  0  0  0  0  0  0  0  0  0  0  0
  191.8460  176.6300  145.5940 F   0  0  0  0  0  0  0  0  0  0  0  0
  189.7620  177.5320  146.3130 C   0  0  0  0  0  3  0  0  0  0  0  0
  183.6260  178.7250  140.6930 C   0  0  0  0  0  2  0  0  0  0  0  0
  184.4420  179.1360  139.4800 C   0  0  0  0  0  2  0  0  0  0  0  0
  185.5090  177.9060  137.6820 C   0  0  0  0  0  2  0  0  0  0  0  0
  186.5700  178.6620  138.3630 N   0  0  0  0  0  0  0  0  0  0  0  0
  185.4620  178.0660  139.1300 C   0  0  1  0  0  3  0  0  0  0  0  0
  187.6270  177.8180  138.4800 O   0  0  0  0  0  0  0  0  0  0  0  0
  188.8870  177.2600  136.3760 C   0  0  2  0  0  0  0  0  0  0  0  0
  188.7280  179.5830  137.2920 O   0  0  0  0  0  1  0  0  0  0  0  0
  189.8430  177.4310  137.5450 C   0  0  0  0  0  2  0  0  0  0  0  0
  188.5400  178.2140  137.4930 C   0  0  1  0  0  0  0  0  0  0  0  0
  188.2100  176.0570  136.3130 F   0  0  0  0  0  0  0  0  0  0  0  0
  189.3280  177.8430  135.1900 O   0  0  0  0  0  1  0  0  0  0  0  0
  1  3  1  0  0  0  0
  2 12  1  1  0  0  0
  2  7  1  0  0  0  0
  3  7  1  0  0  0  0
  4 17  1  6  0  0  0
  4  8  1  0  0  0  0
  4  6  1  0  0  0  0
  5  2  1  0  0  0  0
  6  1  1  1  0  0  0
  8  6  1  0  0  0  0
  8  5  1  1  0  0  0
  9 16  1  0  0  0  0
 10 13  2  0  0  0  0
 10 12  1  0  0  0  0
 11 15  1  0  0  0  0
 11 16  2  0  0  0  0
 12  9  2  0  0  0  0
 13 11  1  0  0  0  0
 14 10  1  0  0  0  0
 18 17  1  0  0  0  0
 19 20  1  0  0  0  0
 19 21  1  0  0  0  0
 20 22  1  0  0  0  0
 20 21  1  0  0  0  0
 21 18  1  6  0  0  0
 23 28  1  6  0  0  0
 23 26  1  0  0  0  0
 23 25  1  0  0  0  0
 26 24  1  6  0  0  0
 26 25  1  0  0  0  0
 26 22  1  0  0  0  0
 27 23  1  0  0  0  0
M  END
>  <MODEL>
5

>  <REMARK>
 VINA RESULT:      -8.5      3.082      4.770
  Name = 
  6 active torsions:
  status: ('A' for Active; 'I' for Inactive)
    1  A    between atoms: O_2  and  N_3
    2  A    between atoms: O_2  and  C_11
    3  A    between atoms: C_10  and  C_13
    4  A    between atoms: C_16  and  C_21
    5  A    between atoms: C_19  and  C_21
    6  A    between atoms: C_19  and  C_26
                            x       y       z     vdW  Elec       q    Type
                         _______ _______ _______ _____ _____    ______ ____

>  <TORSDO>
F 6

$$$$
=
 OpenBabel10272401533D

 28 32  0  0  1  0  0  0  0  0999 V2000
  184.4860  178.2530  146.1160 C   0  0  0  0  0  2  0  0  0  0  0  0
  184.9560  178.8290  143.1450 C   0  0  2  0  0  3  0  0  0  0  0  0
  183.6200  179.1690  145.2670 C   0  0  0  0  0  2  0  0  0  0  0  0
  186.8540  177.6450  145.9610 C   0  0  1  0  0  3  0  0  0  0  0  0
  185.9830  177.9110  143.8040 C   0  0  0  0  0  2  0  0  0  0  0  0
  185.9320  178.7590  146.1450 C   0  0  1  0  0  3  0  0  0  0  0  0
  183.5940  178.6900  143.8210 C   0  0  0  0  0  2  0  0  0  0  0  0
  186.6910  178.6190  144.8700 N   0  0  1  0  0  0  0  0  0  0  0  0
  183.6190  178.0960  141.1300 C   0  0  0  0  0  3  0  0  0  0  0  0
  185.9330  178.7550  140.8310 C   0  0  0  0  0  0  0  0  0  0  0  0
  184.6140  178.0480  138.9260 C   0  0  0  0  0  0  0  0  0  0  0  0
  184.8340  178.5400  141.6780 C   0  0  0  0  0  0  0  0  0  0  0  0
  185.8210  178.5040  139.4600 C   0  0  0  0  0  3  0  0  0  0  0  0
  187.1100  179.2120  141.3280 F   0  0  0  0  0  0  0  0  0  0  0  0
  184.5100  177.8060  137.5970 F   0  0  0  0  0  0  0  0  0  0  0  0
  183.5110  177.8490  139.7600 C   0  0  0  0  0  3  0  0  0  0  0  0
  188.1490  177.9230  146.6970 C   0  0  0  0  0  2  0  0  0  0  0  0
  189.2050  176.9310  146.2420 C   0  0  0  0  0  2  0  0  0  0  0  0
  191.5480  177.1640  145.6570 C   0  0  0  0  0  2  0  0  0  0  0  0
  190.8790  176.5740  144.4890 N   0  0  0  0  0  0  0  0  0  0  0  0
  190.2010  177.5950  145.3060 C   0  0  1  0  0  3  0  0  0  0  0  0
  191.3770  177.2110  143.3990 O   0  0  0  0  0  0  0  0  0  0  0  0
  191.0820  177.0990  140.9040 C   0  0  2  0  0  0  0  0  0  0  0  0
  190.0720  175.4290  142.4690 O   0  0  0  0  0  1  0  0  0  0  0  0
  189.8440  177.6800  141.5640 C   0  0  0  0  0  2  0  0  0  0  0  0
  190.7040  176.6630  142.2980 C   0  0  1  0  0  0  0  0  0  0  0  0
  192.1560  177.9580  140.7580 F   0  0  0  0  0  0  0  0  0  0  0  0
  190.8090  176.1900  139.8830 O   0  0  0  0  0  1  0  0  0  0  0  0
  2 12  1  6  0  0  0
  2  5  1  0  0  0  0
  2  7  1  0  0  0  0
  3  1  1  0  0  0  0
  4  6  1  0  0  0  0
  4 17  1  1  0  0  0
  6  1  1  6  0  0  0
  7  3  1  0  0  0  0
  8  5  1  6  0  0  0
  8  4  1  0  0  0  0
  8  6  1  0  0  0  0
  9 12  1  0  0  0  0
 10 14  1  0  0  0  0
 10 12  2  0  0  0  0
 11 13  2  0  0  0  0
 11 16  1  0  0  0  0
 13 10  1  0  0  0  0
 15 11  1  0  0  0  0
 16  9  2  0  0  0  0
 18 17  1  0  0  0  0
 20 21  1  0  0  0  0
 20 19  1  0  0  0  0
 21 19  1  0  0  0  0
 21 18  1  1  0  0  0
 22 20  1  0  0  0  0
 23 28  1  6  0  0  0
 23 25  1  0  0  0  0
 23 26  1  0  0  0  0
 25 26  1  0  0  0  0
 26 24  1  1  0  0  0
 26 22  1  0  0  0  0
 27 23  1  0  0  0  0
M  END
>  <MODEL>
6

>  <REMARK>
 VINA RESULT:      -8.3      2.785      6.454
  Name = 
  6 active torsions:
  status: ('A' for Active; 'I' for Inactive)
    1  A    between atoms: O_2  and  N_3
    2  A    between atoms: O_2  and  C_11
    3  A    between atoms: C_10  and  C_13
    4  A    between atoms: C_16  and  C_21
    5  A    between atoms: C_19  and  C_21
    6  A    between atoms: C_19  and  C_26
                            x       y       z     vdW  Elec       q    Type
                         _______ _______ _______ _____ _____    ______ ____

>  <TORSDO>
F 6

$$$$
=
 OpenBabel10272401533D

 28 32  0  0  1  0  0  0  0  0999 V2000
  187.8380  177.7360  148.6310 C   0  0  0  0  0  2  0  0  0  0  0  0
  186.6610  178.6040  145.9400 C   0  0  2  0  0  3  0  0  0  0  0  0
  186.8210  178.8530  148.4530 C   0  0  0  0  0  2  0  0  0  0  0  0
  189.5670  176.8540  147.1370 C   0  0  1  0  0  3  0  0  0  0  0  0
  187.7020  177.4890  145.8700 C   0  0  0  0  0  2  0  0  0  0  0  0
  189.1150  178.0460  147.8440 C   0  0  1  0  0  3  0  0  0  0  0  0
  185.9100  178.5590  147.2670 C   0  0  0  0  0  2  0  0  0  0  0  0
  188.9950  177.9660  146.3600 N   0  0  1  0  0  0  0  0  0  0  0  0
  184.3210  178.7370  144.9970 C   0  0  0  0  0  3  0  0  0  0  0  0
  186.1650  178.2430  143.5030 C   0  0  0  0  0  0  0  0  0  0  0  0
  183.9050  178.3820  142.6410 C   0  0  0  0  0  0  0  0  0  0  0  0
  185.6930  178.5130  144.7970 C   0  0  0  0  0  0  0  0  0  0  0  0
  185.2710  178.1740  142.4300 C   0  0  0  0  0  3  0  0  0  0  0  0
  187.4890  178.0520  143.2750 F   0  0  0  0  0  0  0  0  0  0  0  0
  183.0420  178.3140  141.5990 F   0  0  0  0  0  0  0  0  0  0  0  0
  183.4310  178.6690  143.9220 C   0  0  0  0  0  3  0  0  0  0  0  0
  191.0760  176.8730  147.0090 C   0  0  0  0  0  2  0  0  0  0  0  0
  191.4900  175.9880  145.8460 C   0  0  0  0  0  2  0  0  0  0  0  0
  191.9360  175.9100  143.4630 C   0  0  0  0  0  2  0  0  0  0  0  0
  190.5750  176.4450  143.6200 N   0  0  0  0  0  0  0  0  0  0  0  0
  191.6380  176.8050  144.5740 C   0  0  1  0  0  3  0  0  0  0  0  0
  190.4650  177.4780  142.7460 O   0  0  0  0  0  0  0  0  0  0  0  0
  190.7930  177.0470  140.2900 C   0  0  2  0  0  0  0  0  0  0  0  0
  189.0490  175.8830  141.6550 O   0  0  0  0  0  1  0  0  0  0  0  0
  189.6050  177.9660  140.5190 C   0  0  0  0  0  2  0  0  0  0  0  0
  189.9810  176.9180  141.5550 C   0  0  1  0  0  0  0  0  0  0  0  0
  192.0430  177.6320  140.3740 F   0  0  0  0  0  0  0  0  0  0  0  0
  190.5770  176.0670  139.3220 O   0  0  0  0  0  1  0  0  0  0  0  0
  2 12  1  6  0  0  0
  2  7  1  0  0  0  0
  3  1  1  0  0  0  0
  4 17  1  6  0  0  0
  4  6  1  0  0  0  0
  5  2  1  0  0  0  0
  6  1  1  1  0  0  0
  7  3  1  0  0  0  0
  8  5  1  1  0  0  0
  8  4  1  0  0  0  0
  8  6  1  0  0  0  0
 10 12  2  0  0  0  0
 11 16  1  0  0  0  0
 12  9  1  0  0  0  0
 13 11  2  0  0  0  0
 13 10  1  0  0  0  0
 14 10  1  0  0  0  0
 15 11  1  0  0  0  0
 16  9  2  0  0  0  0
 18 17  1  0  0  0  0
 19 20  1  0  0  0  0
 19 21  1  0  0  0  0
 20 21  1  0  0  0  0
 21 18  1  1  0  0  0
 22 20  1  0  0  0  0
 23 28  1  6  0  0  0
 23 27  1  0  0  0  0
 23 25  1  0  0  0  0
 23 26  1  0  0  0  0
 25 26  1  0  0  0  0
 26 24  1  1  0  0  0
 26 22  1  0  0  0  0
M  END
>  <MODEL>
7

>  <REMARK>
 VINA RESULT:      -8.1      2.801      6.254
  Name = 
  6 active torsions:
  status: ('A' for Active; 'I' for Inactive)
    1  A    between atoms: O_2  and  N_3
    2  A    between atoms: O_2  and  C_11
    3  A    between atoms: C_10  and  C_13
    4  A    between atoms: C_16  and  C_21
    5  A    between atoms: C_19  and  C_21
    6  A    between atoms: C_19  and  C_26
                            x       y       z     vdW  Elec       q    Type
                         _______ _______ _______ _____ _____    ______ ____

>  <TORSDO>
F 6

$$$$
=
 OpenBabel10272401533D

 28 32  0  0  1  0  0  0  0  0999 V2000
  191.3850  176.2470  144.5830 C   0  0  0  0  0  2  0  0  0  0  0  0
  188.8750  177.9610  144.9670 C   0  0  2  0  0  3  0  0  0  0  0  0
  190.9430  176.8480  145.9090 C   0  0  0  0  0  2  0  0  0  0  0  0
  191.0410  176.9760  142.2700 C   0  0  1  0  0  3  0  0  0  0  0  0
  189.1430  177.5030  143.5360 C   0  0  0  0  0  2  0  0  0  0  0  0
  191.6280  177.3520  143.5510 C   0  0  1  0  0  3  0  0  0  0  0  0
  189.4240  176.9490  145.9690 C   0  0  0  0  0  2  0  0  0  0  0  0
  190.4100  178.0510  143.0520 N   0  0  1  0  0  0  0  0  0  0  0  0
  186.4900  178.0910  144.1440 C   0  0  0  0  0  3  0  0  0  0  0  0
  186.9400  178.4160  146.5040 C   0  0  0  0  0  0  0  0  0  0  0  0
  184.6670  178.5310  145.6720 C   0  0  0  0  0  0  0  0  0  0  0  0
  187.4090  178.1740  145.2030 C   0  0  0  0  0  0  0  0  0  0  0  0
  185.5730  178.5990  146.7340 C   0  0  0  0  0  3  0  0  0  0  0  0
  187.8020  178.4710  147.5510 F   0  0  0  0  0  0  0  0  0  0  0  0
  183.3430  178.7090  145.8990 F   0  0  0  0  0  0  0  0  0  0  0  0
  185.1250  178.2730  144.3790 C   0  0  0  0  0  3  0  0  0  0  0  0
  191.8470  177.5810  141.1380 C   0  0  0  0  0  2  0  0  0  0  0  0
  191.3680  177.0000  139.8190 C   0  0  0  0  0  2  0  0  0  0  0  0
  189.4160  178.2850  139.1670 C   0  0  0  0  0  2  0  0  0  0  0  0
  189.4220  177.0740  138.3330 N   0  0  0  0  0  0  0  0  0  0  0  0
  189.8510  177.0180  139.7410 C   0  0  1  0  0  3  0  0  0  0  0  0
  188.1410  176.6280  138.2950 O   0  0  0  0  0  0  0  0  0  0  0  0
  186.7790  177.7590  136.5080 C   0  0  2  0  0  0  0  0  0  0  0  0
  188.6050  176.1260  135.9990 O   0  0  0  0  0  1  0  0  0  0  0  0
  186.2910  176.3390  136.7350 C   0  0  0  0  0  2  0  0  0  0  0  0
  187.7540  176.6950  136.9490 C   0  0  1  0  0  0  0  0  0  0  0  0
  186.3750  178.6990  137.4380 F   0  0  0  0  0  0  0  0  0  0  0  0
  186.8460  178.1310  135.1670 O   0  0  0  0  0  1  0  0  0  0  0  0
  1  3  1  0  0  0  0
  2 12  1  6  0  0  0
  2  7  1  0  0  0  0
  3  7  1  0  0  0  0
  4 17  1  6  0  0  0
  4  8  1  0  0  0  0
  4  6  1  0  0  0  0
  5  2  1  0  0  0  0
  6  1  1  1  0  0  0
  8  5  1  1  0  0  0
  8  6  1  0  0  0  0
  9 16  2  0  0  0  0
  9 12  1  0  0  0  0
 10 13  1  0  0  0  0
 10 14  1  0  0  0  0
 11 15  1  0  0  0  0
 11 13  2  0  0  0  0
 12 10  2  0  0  0  0
 16 11  1  0  0  0  0
 18 17  1  0  0  0  0
 19 21  1  0  0  0  0
 20 19  1  0  0  0  0
 20 21  1  0  0  0  0
 21 18  1  6  0  0  0
 22 20  1  0  0  0  0
 23 28  1  6  0  0  0
 23 25  1  0  0  0  0
 23 26  1  0  0  0  0
 23 27  1  0  0  0  0
 25 26  1  0  0  0  0
 26 24  1  6  0  0  0
 26 22  1  0  0  0  0
M  END
>  <MODEL>
8

>  <REMARK>
 VINA RESULT:      -8.1      3.507      6.132
  Name = 
  6 active torsions:
  status: ('A' for Active; 'I' for Inactive)
    1  A    between atoms: O_2  and  N_3
    2  A    between atoms: O_2  and  C_11
    3  A    between atoms: C_10  and  C_13
    4  A    between atoms: C_16  and  C_21
    5  A    between atoms: C_19  and  C_21
    6  A    between atoms: C_19  and  C_26
                            x       y       z     vdW  Elec       q    Type
                         _______ _______ _______ _____ _____    ______ ____

>  <TORSDO>
F 6

$$$$
=
 OpenBabel10272401533D

 28 32  0  0  1  0  0  0  0  0999 V2000
  188.3150  177.2070  146.9300 C   0  0  0  0  0  2  0  0  0  0  0  0
  186.2600  178.5200  145.0780 C   0  0  2  0  0  3  0  0  0  0  0  0
  187.3670  178.3220  147.3440 C   0  0  0  0  0  2  0  0  0  0  0  0
  189.3040  176.6300  144.7650 C   0  0  1  0  0  3  0  0  0  0  0  0
  187.1370  177.4520  144.4300 C   0  0  0  0  0  2  0  0  0  0  0  0
  189.2160  177.6710  145.7820 C   0  0  1  0  0  3  0  0  0  0  0  0
  186.0620  178.2300  146.5630 C   0  0  0  0  0  2  0  0  0  0  0  0
  188.5430  177.8530  144.4650 N   0  0  1  0  0  0  0  0  0  0  0  0
  183.7380  178.6800  145.1340 C   0  0  0  0  0  3  0  0  0  0  0  0
  184.8710  178.6930  142.9900 C   0  0  0  0  0  0  0  0  0  0  0  0
  182.4550  178.8470  143.0900 C   0  0  0  0  0  0  0  0  0  0  0  0
  184.9290  178.6190  144.3910 C   0  0  0  0  0  0  0  0  0  0  0  0
  183.6360  178.8020  142.3440 C   0  0  0  0  0  3  0  0  0  0  0  0
  186.0070  178.6670  142.2490 F   0  0  0  0  0  0  0  0  0  0  0  0
  181.2600  178.9530  142.4610 F   0  0  0  0  0  0  0  0  0  0  0  0
  182.5070  178.7910  144.4850 C   0  0  0  0  0  3  0  0  0  0  0  0
  190.6530  176.6940  144.0790 C   0  0  0  0  0  2  0  0  0  0  0  0
  190.6040  175.8710  142.8030 C   0  0  0  0  0  2  0  0  0  0  0  0
  191.6410  177.3010  141.1410 C   0  0  0  0  0  2  0  0  0  0  0  0
  191.0230  176.1850  140.4100 N   0  0  0  0  0  0  0  0  0  0  0  0
  190.3660  176.7610  141.5960 C   0  0  1  0  0  3  0  0  0  0  0  0
  190.4180  176.7270  139.3230 O   0  0  0  0  0  0  0  0  0  0  0  0
  192.1430  176.1330  137.5920 C   0  0  2  0  0  0  0  0  0  0  0  0
  190.1650  174.6860  138.0940 O   0  0  0  0  0  1  0  0  0  0  0  0
  190.8970  176.7000  136.9340 C   0  0  0  0  0  2  0  0  0  0  0  0
  190.7950  175.9240  138.2380 C   0  0  1  0  0  0  0  0  0  0  0  0
  193.0040  177.0520  138.1630 F   0  0  0  0  0  0  0  0  0  0  0  0
  192.6830  175.0300  136.9330 O   0  0  0  0  0  1  0  0  0  0  0  0
  1  3  1  0  0  0  0
  2 12  1  6  0  0  0
  2  7  1  0  0  0  0
  4 17  1  6  0  0  0
  4  6  1  0  0  0  0
  5  2  1  0  0  0  0
  6  1  1  1  0  0  0
  7  3  1  0  0  0  0
  8  5  1  1  0  0  0
  8  4  1  0  0  0  0
  8  6  1  0  0  0  0
 10 12  1  0  0  0  0
 11 16  2  0  0  0  0
 12  9  2  0  0  0  0
 13 10  2  0  0  0  0
 13 11  1  0  0  0  0
 14 10  1  0  0  0  0
 15 11  1  0  0  0  0
 16  9  1  0  0  0  0
 18 17  1  0  0  0  0
 19 21  1  0  0  0  0
 20 19  1  0  0  0  0
 20 21  1  0  0  0  0
 21 18  1  1  0  0  0
 22 20  1  0  0  0  0
 23 28  1  6  0  0  0
 23 27  1  0  0  0  0
 23 26  1  0  0  0  0
 25 23  1  0  0  0  0
 25 26  1  0  0  0  0
 26 24  1  6  0  0  0
 26 22  1  0  0  0  0
M  END
>  <MODEL>
9

>  <REMARK>
 VINA RESULT:      -8.0      3.414      7.054
  Name = 
  6 active torsions:
  status: ('A' for Active; 'I' for Inactive)
    1  A    between atoms: O_2  and  N_3
    2  A    between atoms: O_2  and  C_11
    3  A    between atoms: C_10  and  C_13
    4  A    between atoms: C_16  and  C_21
    5  A    between atoms: C_19  and  C_21
    6  A    between atoms: C_19  and  C_26
                            x       y       z     vdW  Elec       q    Type
                         _______ _______ _______ _____ _____    ______ ____

>  <TORSDO>
F 6

$$$$
