=
 OpenBabel10272402053D

 32 35  0  0  1  0  0  0  0  0999 V2000
  189.0830  176.6040  142.6070 C   0  0  1  0  0  3  0  0  0  0  0  0
  187.2850  177.6890  144.0830 C   0  0  0  0  0  0  0  0  0  0  0  0
  190.3080  175.6890  142.7690 C   0  0  0  0  0  2  0  0  0  0  0  0
  188.7670  177.4400  143.8700 C   0  0  1  0  0  3  0  0  0  0  0  0
  186.8280  178.0510  145.3680 C   0  0  0  0  0  0  0  0  0  0  0  0
  185.0370  178.0090  143.2030 C   0  0  0  0  0  0  0  0  0  0  0  0
  184.5710  178.3480  144.4930 C   0  0  0  0  0  0  0  0  0  0  0  0
  189.3870  176.8080  145.1310 C   0  0  2  0  0  3  0  0  0  0  0  0
  185.4790  178.3750  145.5560 C   0  0  0  0  0  3  0  0  0  0  0  0
  188.9990  177.5500  146.3760 C   0  0  0  0  0  3  0  0  0  0  0  0
  190.9100  176.6920  145.0230 C   0  0  0  0  0  2  0  0  0  0  0  0
  186.3840  177.6910  143.0120 C   0  0  0  0  0  3  0  0  0  0  0  0
  187.7830  178.0920  146.5040 C   0  0  0  0  0  0  0  0  0  0  0  0
  191.3950  176.3650  143.6030 C   0  0  0  0  0  2  0  0  0  0  0  0
  184.1940  178.0050  142.0990 O   0  0  0  0  0  1  0  0  0  0  0  0
  188.2000  178.1240  148.9380 C   0  0  0  0  0  1  0  0  0  0  0  0
  187.4220  178.7480  147.7960 C   0  0  0  0  0  2  0  0  0  0  0  0
  189.7430  178.6060  141.5290 O   0  0  0  0  0  0  0  0  0  0  0  0
  189.2500  177.4930  141.4090 C   0  0  0  0  0  0  0  0  0  0  0  0
  188.5690  178.8440  137.3170 S   0  0  0  0  0  0  0  0  0  0  0  0
  190.0220  178.4500  138.3680 C   0  0  0  0  0  2  0  0  0  0  0  0
  187.3390  177.7530  138.1330 C   0  0  1  0  0  3  0  0  0  0  0  0
  188.8050  177.0010  140.0590 C   0  0  1  0  0  3  0  0  0  0  0  0
  187.5260  177.7380  139.6450 C   0  0  0  0  0  2  0  0  0  0  0  0
  189.9100  177.0630  138.9830 C   0  0  2  0  0  3  0  0  0  0  0  0
  191.2610  176.5720  139.4750 C   0  0  0  0  0  1  0  0  0  0  0  0
  185.3200  179.1470  138.5600 O   0  0  0  0  0  1  0  0  0  0  0  0
  185.3550  177.6870  136.7950 O   0  0  0  0  0  0  0  0  0  0  0  0
  185.9540  178.1840  137.7850 C   0  0  0  0  0  0  0  0  0  0  0  0
  183.2360  178.6770  144.7750 O   0  0  0  0  0  0  0  0  0  0  0  0
  182.3870  179.4340  143.9220 C   0  0  0  0  0  2  0  0  0  0  0  0
  181.0710  178.7070  143.7190 C   0  0  0  0  0  1  0  0  0  0  0  0
  1 19  1  6  0  0  0
  1  3  1  0  0  0  0
  1  4  1  0  0  0  0
  2  5  1  0  0  0  0
  3 14  1  0  0  0  0
  4  2  1  1  0  0  0
  4  8  1  0  0  0  0
  5  9  2  0  0  0  0
  5 13  1  0  0  0  0
  6  7  2  0  0  0  0
  7 30  1  0  0  0  0
  7  9  1  0  0  0  0
  8 11  1  6  0  0  0
  8 10  1  0  0  0  0
 10 13  2  0  0  0  0
 12  6  1  0  0  0  0
 12  2  2  0  0  0  0
 13 17  1  0  0  0  0
 14 11  1  0  0  0  0
 15  6  1  0  0  0  0
 17 16  1  0  0  0  0
 19 18  2  0  0  0  0
 20 22  1  0  0  0  0
 20 21  1  0  0  0  0
 21 25  1  0  0  0  0
 22 29  1  1  0  0  0
 22 24  1  0  0  0  0
 23 19  1  1  0  0  0
 24 23  1  0  0  0  0
 25 26  1  1  0  0  0
 25 23  1  0  0  0  0
 28 29  2  0  0  0  0
 29 27  1  0  0  0  0
 31 30  1  0  0  0  0
 32 31  1  0  0  0  0
M  END
>  <MODEL>
1

>  <REMARK>
 VINA RESULT:      -8.9      0.000      0.000
  Name = 
  6 active torsions:
  status: ('A' for Active; 'I' for Inactive)
    1  A    between atoms: C_1  and  C_27
    2  A    between atoms: C_9  and  O_11
    3  A    between atoms: O_11  and  C_12
    4  A    between atoms: C_15  and  C_26
    5  A    between atoms: C_16  and  C_27
    6  A    between atoms: C_25  and  C_29
                            x       y       z     vdW  Elec       q    Type
                         _______ _______ _______ _____ _____    ______ ____

>  <TORSDO>
F 6

$$$$
=
 OpenBabel10272402053D

 32 35  0  0  1  0  0  0  0  0999 V2000
  184.6030  179.1710  142.7850 C   0  0  1  0  0  3  0  0  0  0  0  0
  186.8200  178.1060  143.5180 C   0  0  0  0  0  0  0  0  0  0  0  0
  183.4520  179.9790  143.4070 C   0  0  0  0  0  2  0  0  0  0  0  0
  185.3380  178.2630  143.8000 C   0  0  1  0  0  3  0  0  0  0  0  0
  187.6740  177.6780  144.5560 C   0  0  0  0  0  0  0  0  0  0  0  0
  188.6880  178.0200  141.9580 C   0  0  0  0  0  0  0  0  0  0  0  0
  189.5510  177.6150  143.0000 C   0  0  0  0  0  0  0  0  0  0  0  0
  185.1190  178.7470  145.2460 C   0  0  2  0  0  3  0  0  0  0  0  0
  189.0270  177.4390  144.2850 C   0  0  0  0  0  3  0  0  0  0  0  0
  185.9120  177.9390  146.2320 C   0  0  0  0  0  3  0  0  0  0  0  0
  183.6360  178.7610  145.6270 C   0  0  0  0  0  2  0  0  0  0  0  0
  187.3370  178.2530  142.2250 C   0  0  0  0  0  3  0  0  0  0  0  0
  187.1290  177.4790  145.9230 C   0  0  0  0  0  0  0  0  0  0  0  0
  182.7150  179.1630  144.4670 C   0  0  0  0  0  2  0  0  0  0  0  0
  189.1390  178.1720  140.6530 O   0  0  0  0  0  1  0  0  0  0  0  0
  188.3900  177.7180  148.0330 C   0  0  0  0  0  1  0  0  0  0  0  0
  187.9070  176.7500  146.9680 C   0  0  0  0  0  2  0  0  0  0  0  0
  183.6390  177.2520  141.7880 O   0  0  0  0  0  0  0  0  0  0  0  0
  184.1060  178.3690  141.6170 C   0  0  0  0  0  0  0  0  0  0  0  0
  183.9650  177.2490  137.4030 S   0  0  0  0  0  0  0  0  0  0  0  0
  182.7570  177.4540  138.7700 C   0  0  0  0  0  2  0  0  0  0  0  0
  185.2440  178.4290  137.9910 C   0  0  1  0  0  3  0  0  0  0  0  0
  184.1880  178.9550  140.2340 C   0  0  1  0  0  3  0  0  0  0  0  0
  185.4020  178.3670  139.5040 C   0  0  0  0  0  2  0  0  0  0  0  0
  182.8790  178.8210  139.4260 C   0  0  2  0  0  3  0  0  0  0  0  0
  181.6350  179.1540  140.2330 C   0  0  0  0  0  1  0  0  0  0  0  0
  187.3590  179.2140  136.9350 O   0  0  0  0  0  0  0  0  0  0  0  0
  186.9230  176.9710  137.1040 O   0  0  0  0  0  1  0  0  0  0  0  0
  186.5480  178.1540  137.3210 C   0  0  0  0  0  0  0  0  0  0  0  0
  190.9200  177.3630  142.8220 O   0  0  0  0  0  0  0  0  0  0  0  0
  191.9590  177.8940  143.6350 C   0  0  0  0  0  2  0  0  0  0  0  0
  191.6330  179.3230  144.0270 C   0  0  0  0  0  1  0  0  0  0  0  0
  1 19  1  6  0  0  0
  1  3  1  0  0  0  0
  1  4  1  0  0  0  0
  2  5  1  0  0  0  0
  3 14  1  0  0  0  0
  4  2  1  6  0  0  0
  4  8  1  0  0  0  0
  5 13  1  0  0  0  0
  6 12  1  0  0  0  0
  6  7  2  0  0  0  0
  7  9  1  0  0  0  0
  8 11  1  1  0  0  0
  8 10  1  0  0  0  0
  9  5  2  0  0  0  0
 12  2  2  0  0  0  0
 13 10  2  0  0  0  0
 13 17  1  0  0  0  0
 14 11  1  0  0  0  0
 15  6  1  0  0  0  0
 17 16  1  0  0  0  0
 19 18  2  0  0  0  0
 20 22  1  0  0  0  0
 20 21  1  0  0  0  0
 21 25  1  0  0  0  0
 22 29  1  6  0  0  0
 22 24  1  0  0  0  0
 23 19  1  1  0  0  0
 24 23  1  0  0  0  0
 25 26  1  1  0  0  0
 25 23  1  0  0  0  0
 27 29  2  0  0  0  0
 28 29  1  0  0  0  0
 30  7  1  0  0  0  0
 30 31  1  0  0  0  0
 31 32  1  0  0  0  0
M  END
>  <MODEL>
2

>  <REMARK>
 VINA RESULT:      -8.3      1.994      5.551
  Name = 
  6 active torsions:
  status: ('A' for Active; 'I' for Inactive)
    1  A    between atoms: C_1  and  C_27
    2  A    between atoms: C_9  and  O_11
    3  A    between atoms: O_11  and  C_12
    4  A    between atoms: C_15  and  C_26
    5  A    between atoms: C_16  and  C_27
    6  A    between atoms: C_25  and  C_29
                            x       y       z     vdW  Elec       q    Type
                         _______ _______ _______ _____ _____    ______ ____

>  <TORSDO>
F 6

$$$$
=
 OpenBabel10272402053D

 32 35  0  0  1  0  0  0  0  0999 V2000
  184.3590  179.2060  142.7030 C   0  0  1  0  0  3  0  0  0  0  0  0
  186.6900  178.2310  142.2520 C   0  0  0  0  0  0  0  0  0  0  0  0
  183.5960  179.8810  143.8550 C   0  0  0  0  0  2  0  0  0  0  0  0
  185.4910  178.2660  143.1820 C   0  0  1  0  0  3  0  0  0  0  0  0
  187.9290  177.7740  142.7480 C   0  0  0  0  0  0  0  0  0  0  0  0
  187.6540  178.4000  140.0230 C   0  0  0  0  0  0  0  0  0  0  0  0
  188.9030  177.9660  140.5210 C   0  0  0  0  0  0  0  0  0  0  0  0
  185.9390  178.6110  144.6150 C   0  0  2  0  0  3  0  0  0  0  0  0
  189.0190  177.6480  141.8780 C   0  0  0  0  0  3  0  0  0  0  0  0
  187.1080  177.7780  145.0520 C   0  0  0  0  0  3  0  0  0  0  0  0
  184.7870  178.4960  145.6180 C   0  0  0  0  0  2  0  0  0  0  0  0
  186.5650  178.5200  140.8880 C   0  0  0  0  0  3  0  0  0  0  0  0
  188.0640  177.4260  144.1860 C   0  0  0  0  0  0  0  0  0  0  0  0
  183.4330  178.9320  145.0410 C   0  0  0  0  0  2  0  0  0  0  0  0
  187.4650  178.6900  138.6770 O   0  0  0  0  0  1  0  0  0  0  0  0
  189.8480  177.3680  145.8910 C   0  0  0  0  0  1  0  0  0  0  0  0
  189.2450  176.6650  144.6900 C   0  0  0  0  0  2  0  0  0  0  0  0
  183.5500  177.2780  141.5920 O   0  0  0  0  0  0  0  0  0  0  0  0
  183.4060  178.4740  141.8040 C   0  0  0  0  0  0  0  0  0  0  0  0
  180.0580  177.9530  139.0550 S   0  0  0  0  0  0  0  0  0  0  0  0
  180.4350  177.5120  140.7970 C   0  0  0  0  0  2  0  0  0  0  0  0
  181.1360  179.4320  138.9090 C   0  0  1  0  0  3  0  0  0  0  0  0
  182.2700  179.2270  141.1670 C   0  0  1  0  0  3  0  0  0  0  0  0
  182.4550  179.2330  139.6440 C   0  0  0  0  0  2  0  0  0  0  0  0
  180.8750  178.7280  141.6000 C   0  0  2  0  0  3  0  0  0  0  0  0
  180.7640  178.4660  143.0930 C   0  0  0  0  0  1  0  0  0  0  0  0
  181.1660  181.0410  137.0080 O   0  0  0  0  0  1  0  0  0  0  0  0
  181.7940  178.8630  136.6790 O   0  0  0  0  0  0  0  0  0  0  0  0
  181.3850  179.7510  137.4730 C   0  0  0  0  0  0  0  0  0  0  0  0
  190.0490  177.8200  139.7240 O   0  0  0  0  0  0  0  0  0  0  0  0
  190.5830  176.5770  139.2870 C   0  0  0  0  0  2  0  0  0  0  0  0
  190.8430  176.6180  137.7930 C   0  0  0  0  0  1  0  0  0  0  0  0
  1 19  1  1  0  0  0
  1  4  1  0  0  0  0
  1  3  1  0  0  0  0
  2  5  1  0  0  0  0
  3 14  1  0  0  0  0
  4  2  1  6  0  0  0
  4  8  1  0  0  0  0
  5 13  1  0  0  0  0
  6  7  2  0  0  0  0
  6 12  1  0  0  0  0
  7  9  1  0  0  0  0
  8 10  1  1  0  0  0
  8 11  1  0  0  0  0
  9  5  2  0  0  0  0
 12  2  2  0  0  0  0
 13 17  1  0  0  0  0
 13 10  2  0  0  0  0
 14 11  1  0  0  0  0
 15  6  1  0  0  0  0
 17 16  1  0  0  0  0
 18 19  2  0  0  0  0
 20 21  1  0  0  0  0
 21 25  1  0  0  0  0
 22 29  1  6  0  0  0
 22 20  1  0  0  0  0
 22 24  1  0  0  0  0
 23 25  1  0  0  0  0
 23 19  1  1  0  0  0
 24 23  1  0  0  0  0
 25 26  1  1  0  0  0
 27 29  1  0  0  0  0
 28 29  2  0  0  0  0
 30  7  1  0  0  0  0
 31 30  1  0  0  0  0
 32 31  1  0  0  0  0
M  END
>  <MODEL>
3

>  <REMARK>
 VINA RESULT:      -8.1      2.717      6.485
  Name = 
  6 active torsions:
  status: ('A' for Active; 'I' for Inactive)
    1  A    between atoms: C_1  and  C_27
    2  A    between atoms: C_9  and  O_11
    3  A    between atoms: O_11  and  C_12
    4  A    between atoms: C_15  and  C_26
    5  A    between atoms: C_16  and  C_27
    6  A    between atoms: C_25  and  C_29
                            x       y       z     vdW  Elec       q    Type
                         _______ _______ _______ _____ _____    ______ ____

>  <TORSDO>
F 6

$$$$
=
 OpenBabel10272402053D

 32 35  0  0  1  0  0  0  0  0999 V2000
  183.5930  178.8730  140.8430 C   0  0  1  0  0  3  0  0  0  0  0  0
  185.7260  178.2930  142.1480 C   0  0  0  0  0  0  0  0  0  0  0  0
  182.2540  179.5880  141.0840 C   0  0  0  0  0  2  0  0  0  0  0  0
  184.2090  178.2690  142.1280 C   0  0  1  0  0  3  0  0  0  0  0  0
  186.3960  178.1790  143.3840 C   0  0  0  0  0  0  0  0  0  0  0  0
  187.8670  178.2340  140.9900 C   0  0  0  0  0  0  0  0  0  0  0  0
  188.5430  178.1440  142.2270 C   0  0  0  0  0  0  0  0  0  0  0  0
  183.6480  178.9470  143.3910 C   0  0  2  0  0  3  0  0  0  0  0  0
  187.7950  178.1060  143.4080 C   0  0  0  0  0  3  0  0  0  0  0  0
  184.3150  178.4450  144.6390 C   0  0  0  0  0  3  0  0  0  0  0  0
  182.1270  178.7990  143.4940 C   0  0  0  0  0  2  0  0  0  0  0  0
  186.4720  178.3010  140.9640 C   0  0  0  0  0  3  0  0  0  0  0  0
  185.6140  178.1300  144.6450 C   0  0  0  0  0  0  0  0  0  0  0  0
  181.4190  178.8580  142.1330 C   0  0  0  0  0  2  0  0  0  0  0  0
  188.5520  178.2330  139.7810 O   0  0  0  0  0  1  0  0  0  0  0  0
  186.0230  178.7730  146.9940 C   0  0  0  0  0  1  0  0  0  0  0  0
  186.2450  177.7120  145.9320 C   0  0  0  0  0  2  0  0  0  0  0  0
  183.0680  176.6950  140.0780 O   0  0  0  0  0  0  0  0  0  0  0  0
  183.4400  177.8220  139.7820 C   0  0  0  0  0  0  0  0  0  0  0  0
  183.8650  176.0250  135.8290 S   0  0  0  0  0  0  0  0  0  0  0  0
  182.4810  176.4760  136.9480 C   0  0  0  0  0  2  0  0  0  0  0  0
  185.0940  177.2610  136.4060 C   0  0  1  0  0  3  0  0  0  0  0  0
  183.7470  178.1690  138.3510 C   0  0  1  0  0  3  0  0  0  0  0  0
  185.0280  177.4460  137.9160 C   0  0  0  0  0  2  0  0  0  0  0  0
  182.5650  177.9300  137.3880 C   0  0  2  0  0  3  0  0  0  0  0  0
  181.2330  178.4150  137.9340 C   0  0  0  0  0  1  0  0  0  0  0  0
  186.7560  176.6740  134.6460 O   0  0  0  0  0  0  0  0  0  0  0  0
  187.3720  176.6750  136.8520 O   0  0  0  0  0  1  0  0  0  0  0  0
  186.4690  176.8540  135.9930 C   0  0  0  0  0  0  0  0  0  0  0  0
  189.9400  178.0760  142.3460 O   0  0  0  0  0  0  0  0  0  0  0  0
  190.6450  177.9010  143.5680 C   0  0  0  0  0  2  0  0  0  0  0  0
  191.2780  179.2120  143.9960 C   0  0  0  0  0  1  0  0  0  0  0  0
  1 19  1  6  0  0  0
  1  3  1  0  0  0  0
  1  4  1  0  0  0  0
  2  5  1  0  0  0  0
  3 14  1  0  0  0  0
  4  2  1  6  0  0  0
  4  8  1  0  0  0  0
  5  9  2  0  0  0  0
  5 13  1  0  0  0  0
  6  7  2  0  0  0  0
  7 30  1  0  0  0  0
  7  9  1  0  0  0  0
  8 11  1  1  0  0  0
  8 10  1  0  0  0  0
 10 13  2  0  0  0  0
 12  6  1  0  0  0  0
 12  2  2  0  0  0  0
 13 17  1  0  0  0  0
 14 11  1  0  0  0  0
 15  6  1  0  0  0  0
 17 16  1  0  0  0  0
 19 18  2  0  0  0  0
 20 22  1  0  0  0  0
 20 21  1  0  0  0  0
 21 25  1  0  0  0  0
 22 29  1  1  0  0  0
 22 24  1  0  0  0  0
 23 19  1  1  0  0  0
 24 23  1  0  0  0  0
 25 26  1  1  0  0  0
 25 23  1  0  0  0  0
 27 29  2  0  0  0  0
 29 28  1  0  0  0  0
 30 31  1  0  0  0  0
 31 32  1  0  0  0  0
M  END
>  <MODEL>
4

>  <REMARK>
 VINA RESULT:      -7.8      2.414      6.030
  Name = 
  6 active torsions:
  status: ('A' for Active; 'I' for Inactive)
    1  A    between atoms: C_1  and  C_27
    2  A    between atoms: C_9  and  O_11
    3  A    between atoms: O_11  and  C_12
    4  A    between atoms: C_15  and  C_26
    5  A    between atoms: C_16  and  C_27
    6  A    between atoms: C_25  and  C_29
                            x       y       z     vdW  Elec       q    Type
                         _______ _______ _______ _____ _____    ______ ____

>  <TORSDO>
F 6

$$$$
=
 OpenBabel10272402053D

 32 35  0  0  1  0  0  0  0  0999 V2000
  189.7790  178.1680  142.3700 C   0  0  1  0  0  3  0  0  0  0  0  0
  187.7550  178.1200  140.7920 C   0  0  0  0  0  0  0  0  0  0  0  0
  191.3090  178.2830  142.2770 C   0  0  0  0  0  2  0  0  0  0  0  0
  189.1300  177.5580  141.1050 C   0  0  1  0  0  3  0  0  0  0  0  0
  187.2400  177.9850  139.4860 C   0  0  0  0  0  0  0  0  0  0  0  0
  185.6420  179.0890  141.5160 C   0  0  0  0  0  0  0  0  0  0  0  0
  185.1320  178.9780  140.2030 C   0  0  0  0  0  0  0  0  0  0  0  0
  190.0520  177.6940  139.8790 C   0  0  2  0  0  3  0  0  0  0  0  0
  185.9370  178.4150  139.2080 C   0  0  0  0  0  3  0  0  0  0  0  0
  189.3910  177.2030  138.6240 C   0  0  0  0  0  3  0  0  0  0  0  0
  191.3960  176.9920  140.0930 C   0  0  0  0  0  2  0  0  0  0  0  0
  186.9400  178.6550  141.7960 C   0  0  0  0  0  3  0  0  0  0  0  0
  188.0820  177.3820  138.4210 C   0  0  0  0  0  0  0  0  0  0  0  0
  191.9090  177.0900  141.5360 C   0  0  0  0  0  2  0  0  0  0  0  0
  184.8770  179.6010  142.5570 O   0  0  0  0  0  1  0  0  0  0  0  0
  187.8630  177.9230  136.0220 C   0  0  0  0  0  1  0  0  0  0  0  0
  187.4910  176.9460  137.1210 C   0  0  0  0  0  2  0  0  0  0  0  0
  189.2100  176.1840  143.5310 O   0  0  0  0  0  0  0  0  0  0  0  0
  189.3880  177.3930  143.5940 C   0  0  0  0  0  0  0  0  0  0  0  0
  188.0110  176.8040  147.6920 S   0  0  0  0  0  0  0  0  0  0  0  0
  189.4910  176.3520  146.7040 C   0  0  0  0  0  2  0  0  0  0  0  0
  187.5230  178.3180  146.7750 C   0  0  1  0  0  3  0  0  0  0  0  0
  189.2180  178.1180  144.9010 C   0  0  1  0  0  3  0  0  0  0  0  0
  187.7310  178.1500  145.2760 C   0  0  0  0  0  2  0  0  0  0  0  0
  190.1110  177.5700  146.0350 C   0  0  2  0  0  3  0  0  0  0  0  0
  191.5380  177.2850  145.5950 C   0  0  0  0  0  1  0  0  0  0  0  0
  185.8060  179.8340  147.7520 O   0  0  0  0  0  1  0  0  0  0  0  0
  185.1660  177.9060  146.6940 O   0  0  0  0  0  0  0  0  0  0  0  0
  186.1010  178.6630  147.0660 C   0  0  0  0  0  0  0  0  0  0  0  0
  183.8430  179.3920  139.8330 O   0  0  0  0  0  0  0  0  0  0  0  0
  182.6380  178.7350  140.2100 C   0  0  0  0  0  2  0  0  0  0  0  0
  182.8160  177.2310  140.1210 C   0  0  0  0  0  1  0  0  0  0  0  0
  1 19  1  1  0  0  0
  2 12  1  0  0  0  0
  3  1  1  0  0  0  0
  4  2  1  6  0  0  0
  4  1  1  0  0  0  0
  5  2  2  0  0  0  0
  6 12  2  0  0  0  0
  6 15  1  0  0  0  0
  7  6  1  0  0  0  0
  8 10  1  6  0  0  0
  8 11  1  0  0  0  0
  8  4  1  0  0  0  0
  9  5  1  0  0  0  0
  9  7  2  0  0  0  0
 11 14  1  0  0  0  0
 13 10  2  0  0  0  0
 13  5  1  0  0  0  0
 14  3  1  0  0  0  0
 16 17  1  0  0  0  0
 17 13  1  0  0  0  0
 18 19  2  0  0  0  0
 21 20  1  0  0  0  0
 22 29  1  6  0  0  0
 22 20  1  0  0  0  0
 23 19  1  6  0  0  0
 23 24  1  0  0  0  0
 23 25  1  0  0  0  0
 24 22  1  0  0  0  0
 25 26  1  6  0  0  0
 25 21  1  0  0  0  0
 28 29  2  0  0  0  0
 29 27  1  0  0  0  0
 30  7  1  0  0  0  0
 30 31  1  0  0  0  0
 32 31  1  0  0  0  0
M  END
>  <MODEL>
5

>  <REMARK>
 VINA RESULT:      -7.6      2.698      6.501
  Name = 
  6 active torsions:
  status: ('A' for Active; 'I' for Inactive)
    1  A    between atoms: C_1  and  C_27
    2  A    between atoms: C_9  and  O_11
    3  A    between atoms: O_11  and  C_12
    4  A    between atoms: C_15  and  C_26
    5  A    between atoms: C_16  and  C_27
    6  A    between atoms: C_25  and  C_29
                            x       y       z     vdW  Elec       q    Type
                         _______ _______ _______ _____ _____    ______ ____

>  <TORSDO>
F 6

$$$$
=
 OpenBabel10272402053D

 32 35  0  0  1  0  0  0  0  0999 V2000
  188.5260  177.3370  141.1800 C   0  0  1  0  0  3  0  0  0  0  0  0
  186.5110  178.0720  142.5910 C   0  0  0  0  0  0  0  0  0  0  0  0
  189.7160  176.3710  141.2890 C   0  0  0  0  0  2  0  0  0  0  0  0
  188.0090  177.8350  142.5520 C   0  0  1  0  0  3  0  0  0  0  0  0
  185.8560  178.1110  143.8400 C   0  0  0  0  0  0  0  0  0  0  0  0
  184.4270  178.6800  141.4880 C   0  0  0  0  0  0  0  0  0  0  0  0
  183.7620  178.6960  142.7340 C   0  0  0  0  0  0  0  0  0  0  0  0
  188.4290  176.8840  143.6880 C   0  0  2  0  0  3  0  0  0  0  0  0
  184.4920  178.4220  143.8960 C   0  0  0  0  0  3  0  0  0  0  0  0
  187.8450  177.2980  145.0070 C   0  0  0  0  0  3  0  0  0  0  0  0
  189.9500  176.7480  143.7890 C   0  0  0  0  0  2  0  0  0  0  0  0
  185.7890  178.3760  141.4310 C   0  0  0  0  0  3  0  0  0  0  0  0
  186.6210  177.8300  145.0820 C   0  0  0  0  0  0  0  0  0  0  0  0
  190.6540  176.7760  142.4250 C   0  0  0  0  0  2  0  0  0  0  0  0
  183.7670  178.9840  140.3040 O   0  0  0  0  0  1  0  0  0  0  0  0
  187.1350  178.0410  147.4870 C   0  0  0  0  0  1  0  0  0  0  0  0
  186.0560  178.1500  146.4270 C   0  0  0  0  0  2  0  0  0  0  0  0
  188.7040  179.6440  140.6760 O   0  0  0  0  0  0  0  0  0  0  0  0
  188.8720  178.4950  140.2900 C   0  0  0  0  0  0  0  0  0  0  0  0
  189.7530  175.2440  137.5170 S   0  0  0  0  0  0  0  0  0  0  0  0
  188.2550  176.1340  138.0990 C   0  0  0  0  0  2  0  0  0  0  0  0
  190.9800  176.5860  137.7680 C   0  0  1  0  0  3  0  0  0  0  0  0
  189.4300  178.2280  138.9190 C   0  0  1  0  0  3  0  0  0  0  0  0
  190.6940  177.3690  139.0430 C   0  0  0  0  0  2  0  0  0  0  0  0
  188.3980  177.6390  137.9340 C   0  0  2  0  0  3  0  0  0  0  0  0
  187.0440  178.3270  137.9950 C   0  0  0  0  0  1  0  0  0  0  0  0
  193.4470  176.8770  137.9520 O   0  0  0  0  0  1  0  0  0  0  0  0
  192.5530  174.7820  137.7040 O   0  0  0  0  0  0  0  0  0  0  0  0
  192.3620  176.0230  137.8040 C   0  0  0  0  0  0  0  0  0  0  0  0
  182.3970  178.9870  142.8830 O   0  0  0  0  0  0  0  0  0  0  0  0
  181.6480  178.7890  144.0760 C   0  0  0  0  0  2  0  0  0  0  0  0
  180.1940  178.5190  143.7390 C   0  0  0  0  0  1  0  0  0  0  0  0
  1 19  1  6  0  0  0
  1  3  1  0  0  0  0
  1  4  1  0  0  0  0
  2  5  1  0  0  0  0
  3 14  1  0  0  0  0
  4  2  1  6  0  0  0
  4  8  1  0  0  0  0
  5  9  2  0  0  0  0
  5 13  1  0  0  0  0
  6  7  2  0  0  0  0
  7 30  1  0  0  0  0
  7  9  1  0  0  0  0
  8 11  1  1  0  0  0
  8 10  1  0  0  0  0
 10 13  2  0  0  0  0
 12  6  1  0  0  0  0
 12  2  2  0  0  0  0
 13 17  1  0  0  0  0
 14 11  1  0  0  0  0
 15  6  1  0  0  0  0
 17 16  1  0  0  0  0
 19 18  2  0  0  0  0
 20 22  1  0  0  0  0
 20 21  1  0  0  0  0
 22 29  1  1  0  0  0
 22 24  1  0  0  0  0
 23 24  1  0  0  0  0
 23 19  1  1  0  0  0
 25 26  1  1  0  0  0
 25 21  1  0  0  0  0
 25 23  1  0  0  0  0
 28 29  2  0  0  0  0
 29 27  1  0  0  0  0
 30 31  1  0  0  0  0
 32 31  1  0  0  0  0
M  END
>  <MODEL>
6

>  <REMARK>
 VINA RESULT:      -7.6      2.037      3.178
  Name = 
  6 active torsions:
  status: ('A' for Active; 'I' for Inactive)
    1  A    between atoms: C_1  and  C_27
    2  A    between atoms: C_9  and  O_11
    3  A    between atoms: O_11  and  C_12
    4  A    between atoms: C_15  and  C_26
    5  A    between atoms: C_16  and  C_27
    6  A    between atoms: C_25  and  C_29
                            x       y       z     vdW  Elec       q    Type
                         _______ _______ _______ _____ _____    ______ ____

>  <TORSDO>
F 6

$$$$
=
 OpenBabel10272402053D

 32 35  0  0  1  0  0  0  0  0999 V2000
  181.9540  178.8680  141.0320 C   0  0  1  0  0  3  0  0  0  0  0  0
  184.3600  178.5170  141.8560 C   0  0  0  0  0  0  0  0  0  0  0  0
  180.6400  179.4810  141.5430 C   0  0  0  0  0  2  0  0  0  0  0  0
  182.8820  178.3680  142.1650 C   0  0  1  0  0  3  0  0  0  0  0  0
  185.2870  178.5070  142.9180 C   0  0  0  0  0  0  0  0  0  0  0  0
  186.1990  178.5870  140.2620 C   0  0  0  0  0  0  0  0  0  0  0  0
  187.1310  178.6020  141.3240 C   0  0  0  0  0  0  0  0  0  0  0  0
  182.5480  179.0480  143.5060 C   0  0  2  0  0  3  0  0  0  0  0  0
  186.6590  178.5500  142.6400 C   0  0  0  0  0  3  0  0  0  0  0  0
  183.5080  178.6510  144.5890 C   0  0  0  0  0  3  0  0  0  0  0  0
  181.1040  178.7800  143.9400 C   0  0  0  0  0  2  0  0  0  0  0  0
  184.8310  178.5380  140.5380 C   0  0  0  0  0  3  0  0  0  0  0  0
  184.8010  178.4440  144.3200 C   0  0  0  0  0  0  0  0  0  0  0  0
  180.1170  178.7260  142.7640 C   0  0  0  0  0  2  0  0  0  0  0  0
  186.6060  178.5940  138.9330 O   0  0  0  0  0  1  0  0  0  0  0  0
  185.0830  178.4910  146.7730 C   0  0  0  0  0  1  0  0  0  0  0  0
  185.7280  178.1300  145.4480 C   0  0  0  0  0  2  0  0  0  0  0  0
  180.7780  176.9590  140.2710 O   0  0  0  0  0  0  0  0  0  0  0  0
  181.6700  177.7670  140.0530 C   0  0  0  0  0  0  0  0  0  0  0  0
  181.5850  176.1250  136.0120 S   0  0  0  0  0  0  0  0  0  0  0  0
  180.8240  177.5460  136.8910 C   0  0  0  0  0  2  0  0  0  0  0  0
  183.0990  175.9510  137.0350 C   0  0  1  0  0  3  0  0  0  0  0  0
  182.4940  177.6680  138.7980 C   0  0  1  0  0  3  0  0  0  0  0  0
  182.8050  176.1940  138.5090 C   0  0  0  0  0  2  0  0  0  0  0  0
  181.8730  178.3990  137.5890 C   0  0  2  0  0  3  0  0  0  0  0  0
  181.3200  179.7720  137.9330 C   0  0  0  0  0  1  0  0  0  0  0  0
  184.5430  174.0780  137.8150 O   0  0  0  0  0  1  0  0  0  0  0  0
  183.4520  173.9260  135.8070 O   0  0  0  0  0  0  0  0  0  0  0  0
  183.7010  174.5990  136.8410 C   0  0  0  0  0  0  0  0  0  0  0  0
  188.5210  178.6530  141.1380 O   0  0  0  0  0  0  0  0  0  0  0  0
  189.3530  177.5220  140.9110 C   0  0  0  0  0  2  0  0  0  0  0  0
  189.3200  176.6010  142.1170 C   0  0  0  0  0  1  0  0  0  0  0  0
  1 19  1  6  0  0  0
  1  3  1  0  0  0  0
  1  4  1  0  0  0  0
  2  5  1  0  0  0  0
  3 14  1  0  0  0  0
  4  2  1  6  0  0  0
  4  8  1  0  0  0  0
  5 13  1  0  0  0  0
  6 12  1  0  0  0  0
  6  7  2  0  0  0  0
  7  9  1  0  0  0  0
  8 11  1  1  0  0  0
  8 10  1  0  0  0  0
  9  5  2  0  0  0  0
 12  2  2  0  0  0  0
 13 10  2  0  0  0  0
 13 17  1  0  0  0  0
 14 11  1  0  0  0  0
 15  6  1  0  0  0  0
 17 16  1  0  0  0  0
 19 18  2  0  0  0  0
 20 21  1  0  0  0  0
 20 22  1  0  0  0  0
 21 25  1  0  0  0  0
 22 29  1  1  0  0  0
 22 24  1  0  0  0  0
 23 19  1  1  0  0  0
 24 23  1  0  0  0  0
 25 26  1  1  0  0  0
 25 23  1  0  0  0  0
 28 29  2  0  0  0  0
 29 27  1  0  0  0  0
 30  7  1  0  0  0  0
 31 30  1  0  0  0  0
 31 32  1  0  0  0  0
M  END
>  <MODEL>
7

>  <REMARK>
 VINA RESULT:      -7.5      3.042      6.741
  Name = 
  6 active torsions:
  status: ('A' for Active; 'I' for Inactive)
    1  A    between atoms: C_1  and  C_27
    2  A    between atoms: C_9  and  O_11
    3  A    between atoms: O_11  and  C_12
    4  A    between atoms: C_15  and  C_26
    5  A    between atoms: C_16  and  C_27
    6  A    between atoms: C_25  and  C_29
                            x       y       z     vdW  Elec       q    Type
                         _______ _______ _______ _____ _____    ______ ____

>  <TORSDO>
F 6

$$$$
=
 OpenBabel10272402053D

 32 35  0  0  1  0  0  0  0  0999 V2000
  189.7790  177.5450  138.0840 C   0  0  1  0  0  3  0  0  0  0  0  0
  189.3230  177.5990  140.6100 C   0  0  0  0  0  0  0  0  0  0  0  0
  189.2170  178.1740  136.7990 C   0  0  0  0  0  2  0  0  0  0  0  0
  188.7350  177.4300  139.2210 C   0  0  1  0  0  3  0  0  0  0  0  0
  188.4680  177.9370  141.6790 C   0  0  0  0  0  0  0  0  0  0  0  0
  191.1780  177.3790  142.1720 C   0  0  0  0  0  0  0  0  0  0  0  0
  190.3300  177.7410  143.2430 C   0  0  0  0  0  0  0  0  0  0  0  0
  187.5690  178.4140  139.0130 C   0  0  2  0  0  3  0  0  0  0  0  0
  188.9810  178.0040  142.9810 C   0  0  0  0  0  3  0  0  0  0  0  0
  186.6040  178.3880  140.1630 C   0  0  0  0  0  3  0  0  0  0  0  0
  186.8390  178.1660  137.6900 C   0  0  0  0  0  2  0  0  0  0  0  0
  190.6660  177.3060  140.8750 C   0  0  0  0  0  3  0  0  0  0  0  0
  187.0320  178.2110  141.4170 C   0  0  0  0  0  0  0  0  0  0  0  0
  187.7750  177.7330  136.5530 C   0  0  0  0  0  2  0  0  0  0  0  0
  192.5160  177.0650  142.3740 O   0  0  0  0  0  1  0  0  0  0  0  0
  184.6280  178.2390  141.9780 C   0  0  0  0  0  1  0  0  0  0  0  0
  186.0400  178.2740  142.5310 C   0  0  0  0  0  2  0  0  0  0  0  0
  189.7550  175.1800  137.9810 O   0  0  0  0  0  0  0  0  0  0  0  0
  190.3900  176.2070  137.7860 C   0  0  0  0  0  0  0  0  0  0  0  0
  193.4990  173.3680  136.6430 S   0  0  0  0  0  0  0  0  0  0  0  0
  191.9180  173.9740  135.9320 C   0  0  0  0  0  2  0  0  0  0  0  0
  193.9370  174.8500  137.6340 C   0  0  1  0  0  3  0  0  0  0  0  0
  191.7920  176.1420  137.2450 C   0  0  1  0  0  3  0  0  0  0  0  0
  192.7050  175.4710  138.2780 C   0  0  0  0  0  2  0  0  0  0  0  0
  191.8870  175.4930  135.8480 C   0  0  2  0  0  3  0  0  0  0  0  0
  190.8090  175.9660  134.8870 C   0  0  0  0  0  1  0  0  0  0  0  0
  195.3060  173.1670  138.8580 O   0  0  0  0  0  0  0  0  0  0  0  0
  195.4740  175.3890  139.3880 O   0  0  0  0  0  1  0  0  0  0  0  0
  194.9450  174.4960  138.6760 C   0  0  0  0  0  0  0  0  0  0  0  0
  190.7600  177.8420  144.5750 O   0  0  0  0  0  0  0  0  0  0  0  0
  190.3470  176.9830  145.6300 C   0  0  0  0  0  2  0  0  0  0  0  0
  191.5250  176.6610  146.5310 C   0  0  0  0  0  1  0  0  0  0  0  0
  1 19  1  6  0  0  0
  1  4  1  0  0  0  0
  2 12  2  0  0  0  0
  2  5  1  0  0  0  0
  3  1  1  0  0  0  0
  4  2  1  1  0  0  0
  5  9  2  0  0  0  0
  6 15  1  0  0  0  0
  6  7  2  0  0  0  0
  7 30  1  0  0  0  0
  8 11  1  6  0  0  0
  8  4  1  0  0  0  0
  8 10  1  0  0  0  0
  9  7  1  0  0  0  0
 10 13  2  0  0  0  0
 12  6  1  0  0  0  0
 13  5  1  0  0  0  0
 13 17  1  0  0  0  0
 14  3  1  0  0  0  0
 14 11  1  0  0  0  0
 16 17  1  0  0  0  0
 19 18  2  0  0  0  0
 20 22  1  0  0  0  0
 21 20  1  0  0  0  0
 22 24  1  0  0  0  0
 22 29  1  1  0  0  0
 23 19  1  1  0  0  0
 23 24  1  0  0  0  0
 25 26  1  6  0  0  0
 25 21  1  0  0  0  0
 25 23  1  0  0  0  0
 29 27  2  0  0  0  0
 29 28  1  0  0  0  0
 30 31  1  0  0  0  0
 31 32  1  0  0  0  0
M  END
>  <MODEL>
8

>  <REMARK>
 VINA RESULT:      -7.5      3.341      6.872
  Name = 
  6 active torsions:
  status: ('A' for Active; 'I' for Inactive)
    1  A    between atoms: C_1  and  C_27
    2  A    between atoms: C_9  and  O_11
    3  A    between atoms: O_11  and  C_12
    4  A    between atoms: C_15  and  C_26
    5  A    between atoms: C_16  and  C_27
    6  A    between atoms: C_25  and  C_29
                            x       y       z     vdW  Elec       q    Type
                         _______ _______ _______ _____ _____    ______ ____

>  <TORSDO>
F 6

$$$$
=
 OpenBabel10272402053D

 32 35  0  0  1  0  0  0  0  0999 V2000
  189.6500  177.9450  139.3990 C   0  0  1  0  0  3  0  0  0  0  0  0
  188.9400  177.7320  141.8560 C   0  0  0  0  0  0  0  0  0  0  0  0
  189.1810  178.6620  138.1220 C   0  0  0  0  0  2  0  0  0  0  0  0
  188.5070  177.6640  140.4030 C   0  0  1  0  0  3  0  0  0  0  0  0
  187.9610  177.9180  142.8550 C   0  0  0  0  0  0  0  0  0  0  0  0
  190.6380  177.4670  143.5810 C   0  0  0  0  0  0  0  0  0  0  0  0
  189.6660  177.6780  144.5830 C   0  0  0  0  0  0  0  0  0  0  0  0
  187.3060  178.5970  140.1620 C   0  0  2  0  0  3  0  0  0  0  0  0
  188.3360  177.8890  144.2040 C   0  0  0  0  0  3  0  0  0  0  0  0
  186.2340  178.4080  141.1950 C   0  0  0  0  0  3  0  0  0  0  0  0
  186.7310  178.4370  138.7510 C   0  0  0  0  0  2  0  0  0  0  0  0
  190.2660  177.4900  142.2350 C   0  0  0  0  0  3  0  0  0  0  0  0
  186.5450  178.1360  142.4670 C   0  0  0  0  0  0  0  0  0  0  0  0
  187.8030  178.1670  137.6860 C   0  0  0  0  0  2  0  0  0  0  0  0
  191.9670  177.2100  143.8940 O   0  0  0  0  0  1  0  0  0  0  0  0
  184.8530  179.4090  143.7370 C   0  0  0  0  0  1  0  0  0  0  0  0
  185.4430  178.0370  143.4700 C   0  0  0  0  0  2  0  0  0  0  0  0
  190.5090  175.7920  139.8820 O   0  0  0  0  0  0  0  0  0  0  0  0
  190.3740  176.6780  139.0490 C   0  0  0  0  0  0  0  0  0  0  0  0
  192.8420  173.9980  136.6480 S   0  0  0  0  0  0  0  0  0  0  0  0
  191.1290  174.0010  137.3100 C   0  0  0  0  0  2  0  0  0  0  0  0
  193.0940  175.8140  136.5380 C   0  0  1  0  0  3  0  0  0  0  0  0
  190.9300  176.5060  137.6620 C   0  0  1  0  0  3  0  0  0  0  0  0
  192.4620  176.5350  137.7220 C   0  0  0  0  0  2  0  0  0  0  0  0
  190.3810  175.2680  136.9230 C   0  0  2  0  0  3  0  0  0  0  0  0
  188.8800  175.0860  137.0810 C   0  0  0  0  0  1  0  0  0  0  0  0
  194.9630  177.2990  135.8280 O   0  0  0  0  0  0  0  0  0  0  0  0
  195.4060  175.3500  136.9470 O   0  0  0  0  0  1  0  0  0  0  0  0
  194.5490  176.1300  136.4540 C   0  0  0  0  0  0  0  0  0  0  0  0
  189.9520  177.6740  145.9570 O   0  0  0  0  0  0  0  0  0  0  0  0
  189.0190  177.9880  146.9840 C   0  0  0  0  0  2  0  0  0  0  0  0
  188.6750  176.7400  147.7740 C   0  0  0  0  0  1  0  0  0  0  0  0
  1 19  1  6  0  0  0
  1  4  1  0  0  0  0
  2 12  2  0  0  0  0
  2  5  1  0  0  0  0
  3  1  1  0  0  0  0
  4  2  1  1  0  0  0
  5  9  2  0  0  0  0
  6 15  1  0  0  0  0
  6  7  2  0  0  0  0
  7 30  1  0  0  0  0
  8 11  1  6  0  0  0
  8  4  1  0  0  0  0
  8 10  1  0  0  0  0
  9  7  1  0  0  0  0
 10 13  2  0  0  0  0
 12  6  1  0  0  0  0
 13  5  1  0  0  0  0
 13 17  1  0  0  0  0
 14  3  1  0  0  0  0
 14 11  1  0  0  0  0
 17 16  1  0  0  0  0
 19 18  2  0  0  0  0
 20 21  1  0  0  0  0
 22 29  1  1  0  0  0
 22 20  1  0  0  0  0
 22 24  1  0  0  0  0
 23 24  1  0  0  0  0
 23 19  1  1  0  0  0
 25 26  1  1  0  0  0
 25 21  1  0  0  0  0
 25 23  1  0  0  0  0
 27 29  2  0  0  0  0
 29 28  1  0  0  0  0
 30 31  1  0  0  0  0
 31 32  1  0  0  0  0
M  END
>  <MODEL>
9

>  <REMARK>
 VINA RESULT:      -7.5      3.073      5.954
  Name = 
  6 active torsions:
  status: ('A' for Active; 'I' for Inactive)
    1  A    between atoms: C_1  and  C_27
    2  A    between atoms: C_9  and  O_11
    3  A    between atoms: O_11  and  C_12
    4  A    between atoms: C_15  and  C_26
    5  A    between atoms: C_16  and  C_27
    6  A    between atoms: C_25  and  C_29
                            x       y       z     vdW  Elec       q    Type
                         _______ _______ _______ _____ _____    ______ ____

>  <TORSDO>
F 6

$$$$
