=
 OpenBabel10272415303D

 34 39  0  0  1  0  0  0  0  0999 V2000
  188.0000  177.2080  145.6110 C   0  0  2  0  0  3  0  0  0  0  0  0
  191.4730  177.1220  144.3450 C   0  0  0  0  0  3  0  0  0  0  0  0
  190.7490  176.8770  146.6160 C   0  0  0  0  0  2  0  0  0  0  0  0
  185.8370  178.3540  146.2520 C   0  0  0  0  0  0  0  0  0  0  0  0
  186.5320  177.3440  145.3210 C   0  0  0  0  0  2  0  0  0  0  0  0
  187.5870  178.0520  147.8570 C   0  0  0  0  0  0  0  0  0  0  0  0
  188.3980  178.5260  148.8760 C   0  0  0  0  0  3  0  0  0  0  0  0
  186.3570  178.6420  147.4200 N   0  0  0  0  0  0  0  0  0  0  0  0
  189.6310  177.3110  147.4450 N   0  0  0  0  0  0  0  0  0  0  0  0
  188.3690  177.3420  147.0080 C   0  0  0  0  0  0  0  0  0  0  0  0
  189.6770  178.0390  148.5820 C   0  0  0  0  0  3  0  0  0  0  0  0
  191.5770  177.2580  142.8920 C   0  0  0  0  0  3  0  0  0  0  0  0
  190.6460  177.1490  141.9370 C   0  0  0  0  0  0  0  0  0  0  0  0
  189.2240  176.8190  142.1610 C   0  0  0  0  0  3  0  0  0  0  0  0
  190.4060  177.0340  145.1350 C   0  0  2  0  0  3  0  0  0  0  0  0
  188.5320  176.8090  143.2920 C   0  0  0  0  0  3  0  0  0  0  0  0
  188.9640  177.0780  144.6730 C   0  0  0  0  0  0  0  0  0  0  0  0
  191.0870  177.3680  140.5460 C   0  0  0  0  0  0  0  0  0  0  0  0
  190.1650  177.3890  139.5030 O   0  0  0  0  0  0  0  0  0  0  0  0
  192.3160  177.5160  140.2860 O   0  0  0  0  0  1  0  0  0  0  0  0
  184.6530  179.0040  145.8790 O   0  0  0  0  0  0  0  0  0  0  0  0
  182.0340  178.7620  143.2890 C   0  0  0  0  0  3  0  0  0  0  0  0
  184.7990  179.1100  143.4250 C   0  0  0  0  0  3  0  0  0  0  0  0
  182.6900  178.2630  139.7500 N   0  0  0  0  0  0  0  0  0  0  0  0
  184.2480  179.0320  139.4510 P   0  0  2  0  0  0  0  0  0  0  0  0
  182.0290  179.0080  140.8150 C   0  0  0  0  0  2  0  0  0  0  0  0
  185.1090  178.1410  138.5810 O   0  0  0  0  0  0  0  0  0  0  0  0
  182.7780  178.8790  142.1120 C   0  0  0  0  0  0  0  0  0  0  0  0
  181.9040  178.3810  138.5400 C   0  0  0  0  0  1  0  0  0  0  0  0
  184.9700  179.1180  141.0110 O   0  0  0  0  0  0  0  0  0  0  0  0
  184.1820  179.0310  142.1730 C   0  0  0  0  0  0  0  0  0  0  0  0
  184.1040  180.5840  138.7930 O   0  0  0  0  0  1  0  0  0  0  0  0
  184.0590  178.9760  144.6080 C   0  0  0  0  0  0  0  0  0  0  0  0
  182.6800  178.7840  144.5310 C   0  0  0  0  0  3  0  0  0  0  0  0
  1  5  1  6  0  0  0
  1 10  1  0  0  0  0
  3  9  1  0  0  0  0
  4  8  2  0  0  0  0
  5  4  1  0  0  0  0
  6  7  1  0  0  0  0
  8  6  1  0  0  0  0
  9 11  1  0  0  0  0
 10  9  1  0  0  0  0
 10  6  2  0  0  0  0
 11  7  2  0  0  0  0
 12  2  2  0  0  0  0
 13 14  2  0  0  0  0
 13 12  1  0  0  0  0
 14 16  1  0  0  0  0
 15  2  1  6  0  0  0
 15  3  1  0  0  0  0
 16 17  2  0  0  0  0
 17 15  1  0  0  0  0
 17  1  1  0  0  0  0
 18 13  1  0  0  0  0
 19 18  2  0  0  0  0
 20 18  1  0  0  0  0
 21  4  1  0  0  0  0
 22 34  1  0  0  0  0
 23 33  1  0  0  0  0
 24 26  1  0  0  0  0
 25 27  2  6  0  0  0
 25 24  1  0  0  0  0
 25 30  1  0  0  0  0
 26 28  1  0  0  0  0
 28 31  1  0  0  0  0
 28 22  2  0  0  0  0
 29 24  1  0  0  0  0
 30 31  1  0  0  0  0
 31 23  2  0  0  0  0
 32 25  1  0  0  0  0
 33 21  1  0  0  0  0
 34 33  2  0  0  0  0
M  END
>  <MODEL>
1

>  <REMARK>
 VINA RESULT:     -12.4      0.000      0.000
  Name = 
  3 active torsions:
  status: ('A' for Active; 'I' for Inactive)
    1  A    between atoms: C_3  and  C_25
    2  A    between atoms: C_8  and  O_18
    3  A    between atoms: O_18  and  C_30
                            x       y       z     vdW  Elec       q    Type
                         _______ _______ _______ _____ _____    ______ ____

>  <TORSDO>
F 3

$$$$
=
 OpenBabel10272415303D

 34 39  0  0  1  0  0  0  0  0999 V2000
  187.4800  177.4500  143.6440 C   0  0  2  0  0  3  0  0  0  0  0  0
  188.0430  177.5930  147.2960 C   0  0  0  0  0  3  0  0  0  0  0  0
  185.9540  177.8000  146.1400 C   0  0  0  0  0  2  0  0  0  0  0  0
  187.5620  178.3720  141.2890 C   0  0  0  0  0  0  0  0  0  0  0  0
  188.0500  177.2850  142.2640 C   0  0  0  0  0  2  0  0  0  0  0  0
  185.6520  178.7420  142.6840 C   0  0  0  0  0  0  0  0  0  0  0  0
  184.6720  179.5690  143.2090 C   0  0  0  0  0  3  0  0  0  0  0  0
  186.4420  179.0120  141.5200 N   0  0  0  0  0  0  0  0  0  0  0  0
  185.4830  178.2470  144.8340 N   0  0  0  0  0  0  0  0  0  0  0  0
  186.1270  177.9760  143.6960 C   0  0  0  0  0  0  0  0  0  0  0  0
  184.5940  179.2270  144.5650 C   0  0  0  0  0  3  0  0  0  0  0  0
  189.4370  177.3850  147.6880 C   0  0  0  0  0  2  0  0  0  0  0  0
  190.4750  176.9060  146.9950 C   0  0  0  0  0  0  0  0  0  0  0  0
  190.4260  176.4260  145.5990 C   0  0  0  0  0  3  0  0  0  0  0  0
  187.4590  177.5370  146.1020 C   0  0  0  0  0  0  0  0  0  0  0  0
  189.4740  176.5850  144.6890 C   0  0  0  0  0  3  0  0  0  0  0  0
  188.1620  177.2460  144.7920 C   0  0  0  0  0  0  0  0  0  0  0  0
  191.7740  176.8450  147.6930 C   0  0  0  0  0  0  0  0  0  0  0  0
  192.7300  175.8970  147.3370 O   0  0  0  0  0  0  0  0  0  0  0  0
  192.0210  177.6430  148.6430 O   0  0  0  0  0  1  0  0  0  0  0  0
  188.2990  178.7220  140.1500 O   0  0  0  0  0  0  0  0  0  0  0  0
  189.0750  176.0870  137.6830 C   0  0  0  0  0  3  0  0  0  0  0  0
  190.4550  177.8110  139.3890 C   0  0  0  0  0  3  0  0  0  0  0  0
  192.3310  174.5150  137.3190 N   0  0  0  0  0  0  0  0  0  0  0  0
  193.5000  175.7490  137.7840 P   0  0  2  0  0  0  0  0  0  0  0  0
  191.1870  175.1950  136.7220 C   0  0  0  0  0  2  0  0  0  0  0  0
  194.5650  175.1470  138.6760 O   0  0  0  0  0  1  0  0  0  0  0  0
  190.4710  176.0420  137.7360 C   0  0  0  0  0  0  0  0  0  0  0  0
  192.9530  173.6790  136.3150 C   0  0  0  0  0  1  0  0  0  0  0  0
  192.5770  176.8570  138.7230 O   0  0  0  0  0  0  0  0  0  0  0  0
  191.1750  176.8960  138.6160 C   0  0  0  0  0  0  0  0  0  0  0  0
  194.1850  176.5450  136.4570 O   0  0  0  0  0  0  0  0  0  0  0  0
  189.0540  177.8480  139.3520 C   0  0  0  0  0  0  0  0  0  0  0  0
  188.3710  176.9710  138.5100 C   0  0  0  0  0  3  0  0  0  0  0  0
  1  5  1  6  0  0  0
  1 10  1  0  0  0  0
  1 17  1  0  0  0  0
  2 12  1  0  0  0  0
  4  8  2  0  0  0  0
  4  5  1  0  0  0  0
  6  7  1  0  0  0  0
  6 10  2  0  0  0  0
  7 11  2  0  0  0  0
  8  6  1  0  0  0  0
  9  3  1  0  0  0  0
 10  9  1  0  0  0  0
 11  9  1  0  0  0  0
 13 12  1  0  0  0  0
 13 18  1  0  0  0  0
 14 13  2  0  0  0  0
 15  3  1  0  0  0  0
 15  2  2  0  0  0  0
 16 17  2  0  0  0  0
 16 14  1  0  0  0  0
 17 15  1  0  0  0  0
 18 20  1  0  0  0  0
 19 18  2  0  0  0  0
 21  4  1  0  0  0  0
 22 28  2  0  0  0  0
 22 34  1  0  0  0  0
 24 25  1  0  0  0  0
 25 32  2  6  0  0  0
 25 27  1  0  0  0  0
 25 30  1  0  0  0  0
 26 24  1  0  0  0  0
 26 28  1  0  0  0  0
 28 31  1  0  0  0  0
 29 24  1  0  0  0  0
 31 30  1  0  0  0  0
 31 23  2  0  0  0  0
 33 23  1  0  0  0  0
 33 21  1  0  0  0  0
 34 33  2  0  0  0  0
M  END
>  <MODEL>
2

>  <REMARK>
 VINA RESULT:     -11.1      3.901      7.250
  Name = 
  3 active torsions:
  status: ('A' for Active; 'I' for Inactive)
    1  A    between atoms: C_3  and  C_25
    2  A    between atoms: C_8  and  O_18
    3  A    between atoms: O_18  and  C_30
                            x       y       z     vdW  Elec       q    Type
                         _______ _______ _______ _____ _____    ______ ____

>  <TORSDO>
F 3

$$$$
=
 OpenBabel10272415303D

 34 39  0  0  1  0  0  0  0  0999 V2000
  188.4440  178.0800  141.8980 C   0  0  2  0  0  3  0  0  0  0  0  0
  185.9980  178.0120  144.6690 C   0  0  0  0  0  3  0  0  0  0  0  0
  188.3780  177.7900  144.8280 C   0  0  0  0  0  2  0  0  0  0  0  0
  189.6390  177.1080  139.8900 C   0  0  0  0  0  0  0  0  0  0  0  0
  188.7110  178.2130  140.4250 C   0  0  0  0  0  2  0  0  0  0  0  0
  190.4910  176.7770  142.1030 C   0  0  0  0  0  0  0  0  0  0  0  0
  191.0260  175.9660  143.0910 C   0  0  0  0  0  3  0  0  0  0  0  0
  190.4530  176.4780  140.7020 N   0  0  0  0  0  0  0  0  0  0  0  0
  189.4770  177.3190  143.9930 N   0  0  0  0  0  0  0  0  0  0  0  0
  189.5510  177.5620  142.6820 C   0  0  0  0  0  0  0  0  0  0  0  0
  190.3630  176.3370  144.2670 C   0  0  0  0  0  3  0  0  0  0  0  0
  184.6140  178.2220  144.2420 C   0  0  0  0  0  2  0  0  0  0  0  0
  184.1180  178.6810  143.0880 C   0  0  0  0  0  0  0  0  0  0  0  0
  184.9160  179.1310  141.9310 C   0  0  0  0  0  3  0  0  0  0  0  0
  187.1340  178.0460  143.9780 C   0  0  0  0  0  0  0  0  0  0  0  0
  186.2080  178.9570  141.6820 C   0  0  0  0  0  3  0  0  0  0  0  0
  187.2520  178.3050  142.4900 C   0  0  0  0  0  0  0  0  0  0  0  0
  182.6480  178.7510  142.9730 C   0  0  0  0  0  0  0  0  0  0  0  0
  181.8450  178.7560  144.1110 O   0  0  0  0  0  1  0  0  0  0  0  0
  182.1020  178.7820  141.8330 O   0  0  0  0  0  0  0  0  0  0  0  0
  189.6320  176.7300  138.5410 O   0  0  0  0  0  0  0  0  0  0  0  0
  191.1980  173.8540  136.8350 C   0  0  0  0  0  3  0  0  0  0  0  0
  191.9070  176.4270  137.6520 C   0  0  0  0  0  3  0  0  0  0  0  0
  194.7720  173.4960  136.2840 N   0  0  0  0  0  0  0  0  0  0  0  0
  195.3860  175.1400  136.1240 P   0  0  2  0  0  0  0  0  0  0  0  0
  193.4090  173.4830  135.7630 C   0  0  0  0  0  2  0  0  0  0  0  0
  196.6680  175.2950  136.9140 O   0  0  0  0  0  1  0  0  0  0  0  0
  192.4960  174.3210  136.6130 C   0  0  0  0  0  0  0  0  0  0  0  0
  195.5950  172.6380  135.4590 C   0  0  0  0  0  1  0  0  0  0  0  0
  194.1750  176.1070  136.8710 O   0  0  0  0  0  0  0  0  0  0  0  0
  192.8690  175.6140  137.0460 C   0  0  0  0  0  0  0  0  0  0  0  0
  195.5940  175.6150  134.5130 O   0  0  0  0  0  0  0  0  0  0  0  0
  190.6080  175.9570  137.8930 C   0  0  0  0  0  0  0  0  0  0  0  0
  190.2670  174.6640  137.4980 C   0  0  0  0  0  3  0  0  0  0  0  0
  1  5  1  6  0  0  0
  1 17  1  0  0  0  0
  1 10  1  0  0  0  0
  4  5  1  0  0  0  0
  4  8  2  0  0  0  0
  6 10  2  0  0  0  0
  6  7  1  0  0  0  0
  7 11  2  0  0  0  0
  8  6  1  0  0  0  0
  9 11  1  0  0  0  0
  9  3  1  0  0  0  0
 10  9  1  0  0  0  0
 12  2  1  0  0  0  0
 13 12  1  0  0  0  0
 14 13  2  0  0  0  0
 15  2  2  0  0  0  0
 15  3  1  0  0  0  0
 16 14  1  0  0  0  0
 16 17  2  0  0  0  0
 17 15  1  0  0  0  0
 18 13  1  0  0  0  0
 18 19  1  0  0  0  0
 20 18  2  0  0  0  0
 21  4  1  0  0  0  0
 22 34  1  0  0  0  0
 23 33  1  0  0  0  0
 25 32  2  6  0  0  0
 25 24  1  0  0  0  0
 25 30  1  0  0  0  0
 25 27  1  0  0  0  0
 26 24  1  0  0  0  0
 26 28  1  0  0  0  0
 28 22  2  0  0  0  0
 28 31  1  0  0  0  0
 29 24  1  0  0  0  0
 30 31  1  0  0  0  0
 31 23  2  0  0  0  0
 33 21  1  0  0  0  0
 34 33  2  0  0  0  0
M  END
>  <MODEL>
3

>  <REMARK>
 VINA RESULT:      -9.5      4.688      9.025
  Name = 
  3 active torsions:
  status: ('A' for Active; 'I' for Inactive)
    1  A    between atoms: C_3  and  C_25
    2  A    between atoms: C_8  and  O_18
    3  A    between atoms: O_18  and  C_30
                            x       y       z     vdW  Elec       q    Type
                         _______ _______ _______ _____ _____    ______ ____

>  <TORSDO>
F 3

$$$$
