=
 OpenBabel10272401163D

 55 59  0  0  1  0  0  0  0  0999 V2000
  187.2350  176.3700  142.6760 C   0  0  0  0  0  2  0  0  0  0  0  0
  187.6760  179.3260  138.4570 C   0  0  0  0  0  2  0  0  0  0  0  0
  184.8370  179.8830  139.5680 C   0  0  0  0  0  1  0  0  0  0  0  0
  182.2650  178.1910  140.9640 C   0  0  0  0  0  2  0  0  0  0  0  0
  180.9440  178.9130  141.2010 C   0  0  0  0  0  2  0  0  0  0  0  0
  182.7210  178.5870  143.4260 C   0  0  0  0  0  0  0  0  0  0  0  0
  181.2820  178.9550  143.6630 C   0  0  0  0  0  2  0  0  0  0  0  0
  185.1160  177.7700  140.5660 C   0  0  0  0  0  2  0  0  0  0  0  0
  180.3670  178.4790  142.5400 C   0  0  0  0  0  2  0  0  0  0  0  0
  189.5050  176.3790  143.7660 C   0  0  0  0  0  2  0  0  0  0  0  0
  183.2160  178.3160  142.1330 C   0  0  0  0  0  0  0  0  0  0  0  0
  190.7720  176.6680  141.1190 C   0  0  1  0  0  3  0  0  0  0  0  0
  186.9360  177.8550  142.8610 C   0  0  0  0  0  2  0  0  0  0  0  0
  189.2800  176.9280  141.3220 C   0  0  0  0  0  2  0  0  0  0  0  0
  184.9560  178.3560  144.3590 C   0  0  0  0  0  0  0  0  0  0  0  0
  188.9250  178.7060  138.8840 N   0  0  0  0  0  0  0  0  0  0  0  0
  183.5910  178.6220  144.5090 C   0  0  0  0  0  3  0  0  0  0  0  0
  186.4950  178.4320  138.8100 C   0  0  0  0  0  2  0  0  0  0  0  0
  185.8310  178.9150  140.0120 N   0  0  0  0  0  0  0  0  0  0  0  0
  190.9870  176.0840  143.5510 C   0  0  0  0  0  2  0  0  0  0  0  0
  189.5500  177.7780  138.2140 C   0  0  0  0  0  0  0  0  0  0  0  0
  188.7250  176.1030  142.4820 C   0  0  2  0  0  3  0  0  0  0  0  0
  184.5920  178.0590  141.9520 C   0  0  0  0  0  0  0  0  0  0  0  0
  185.4670  178.0800  143.0650 C   0  0  0  0  0  0  0  0  0  0  0  0
  190.7630  177.2170  138.7260 N   0  0  0  0  0  2  0  0  0  0  0  0
  191.3210  177.5730  140.0250 C   0  0  0  0  0  2  0  0  0  0  0  0
  191.5340  176.9440  142.4140 C   0  0  0  0  0  2  0  0  0  0  0  0
  186.8140  177.4400  145.7600 C   0  0  0  0  0  3  0  0  0  0  0  0
  187.4770  178.4980  147.8430 C   0  0  0  0  0  0  0  0  0  0  0  0
  185.6600  179.4210  146.5260 C   0  0  0  0  0  3  0  0  0  0  0  0
  186.4850  179.4680  147.6520 C   0  0  0  0  0  3  0  0  0  0  0  0
  187.6390  177.4860  146.8880 C   0  0  0  0  0  3  0  0  0  0  0  0
  185.8080  178.4000  145.5740 C   0  0  0  0  0  0  0  0  0  0  0  0
  188.3390  178.5480  149.0330 C   0  0  0  0  0  0  0  0  0  0  0  0
  187.7850  178.4600  150.3050 O   0  0  0  0  0  1  0  0  0  0  0  0
  189.5870  178.6700  148.9130 O   0  0  0  0  0  0  0  0  0  0  0  0
  189.0430  177.2870  136.8920 C   0  0  0  0  0  2  0  0  0  0  0  0
  188.7300  175.7940  136.9300 C   0  0  0  0  0  2  0  0  0  0  0  0
  188.2980  173.8890  135.5640 F   0  0  0  0  0  0  0  0  0  0  0  0
  188.9710  175.0990  135.5890 C   0  0  0  0  0  0  0  0  0  0  0  0
  188.5010  175.8880  134.5530 F   0  0  0  0  0  0  0  0  0  0  0  0
  190.4520  174.8620  135.4120 C   0  0  0  0  0  0  0  0  0  0  0  0
  191.1060  175.6570  134.7510 O   0  0  0  0  0  0  0  0  0  0  0  0
  190.9440  172.4770  135.0610 C   0  0  0  0  0  1  0  0  0  0  0  0
  190.5770  173.3170  137.2250 F   0  0  0  0  0  0  0  0  0  0  0  0
  191.1440  173.6510  136.0070 C   0  0  2  0  0  0  0  0  0  0  0  0
  192.6530  173.9450  136.1840 C   0  0  2  0  0  3  0  0  0  0  0  0
  193.6540  172.9370  135.5950 C   0  0  1  0  0  3  0  0  0  0  0  0
  194.6530  173.5740  134.8530 O   0  0  0  0  0  1  0  0  0  0  0  0
  194.2530  172.1500  136.6610 N   0  0  0  0  0  2  0  0  0  0  0  0
  193.9320  170.7560  136.4010 C   0  0  0  0  0  1  0  0  0  0  0  0
  193.0040  174.3490  137.5120 O   0  0  0  0  0  0  0  0  0  0  0  0
  193.9050  175.3740  137.8240 C   0  0  0  0  0  0  0  0  0  0  0  0
  193.7560  176.5060  137.2980 O   0  0  0  0  0  0  0  0  0  0  0  0
  194.9650  175.1650  138.6970 O   0  0  0  0  0  1  0  0  0  0  0  0
  1 13  1  0  0  0  0
  2 18  1  0  0  0  0
  2 16  1  0  0  0  0
  3 19  1  0  0  0  0
  4  5  1  0  0  0  0
  4 11  1  0  0  0  0
  5  9  1  0  0  0  0
  6  7  1  0  0  0  0
  6 17  1  0  0  0  0
  8 23  1  0  0  0  0
  9  7  1  0  0  0  0
 11  6  2  0  0  0  0
 12 26  1  6  0  0  0
 12 14  1  0  0  0  0
 12 27  1  0  0  0  0
 13 24  1  0  0  0  0
 15 17  2  0  0  0  0
 15 33  1  0  0  0  0
 18 19  1  0  0  0  0
 19  8  1  0  0  0  0
 20 10  1  0  0  0  0
 21 25  1  0  0  0  0
 21 16  2  0  0  0  0
 22 14  1  6  0  0  0
 22  1  1  0  0  0  0
 22 10  1  0  0  0  0
 23 11  1  0  0  0  0
 23 24  2  0  0  0  0
 24 15  1  0  0  0  0
 25 26  1  0  0  0  0
 27 20  1  0  0  0  0
 28 32  1  0  0  0  0
 29 34  1  0  0  0  0
 30 31  2  0  0  0  0
 31 29  1  0  0  0  0
 32 29  2  0  0  0  0
 33 28  2  0  0  0  0
 33 30  1  0  0  0  0
 34 35  1  0  0  0  0
 36 34  2  0  0  0  0
 37 38  1  0  0  0  0
 37 21  1  0  0  0  0
 39 40  1  0  0  0  0
 40 38  1  0  0  0  0
 41 40  1  0  0  0  0
 42 40  1  0  0  0  0
 42 46  1  0  0  0  0
 43 42  2  0  0  0  0
 46 44  1  6  0  0  0
 46 47  1  0  0  0  0
 46 45  1  0  0  0  0
 47 52  1  1  0  0  0
 48 49  1  1  0  0  0
 48 47  1  0  0  0  0
 48 50  1  0  0  0  0
 51 50  1  0  0  0  0
 52 53  1  0  0  0  0
 53 55  1  0  0  0  0
 54 53  2  0  0  0  0
M  END
>  <MODEL>
1

>  <REMARK>
 VINA RESULT:      -6.1      0.000      0.000
  Name = 
  12 active torsions:
  status: ('A' for Active; 'I' for Inactive)
    1  A    between atoms: C_1  and  O_53
    2  A    between atoms: C_6  and  C_14
    3  A    between atoms: C_6  and  C_20
    4  A    between atoms: C_8  and  C_22
    5  A    between atoms: C_8  and  C_43
    6  A    between atoms: C_10  and  C_32
    7  A    between atoms: N_11  and  C_29
    8  A    between atoms: C_14  and  C_38
    9  A    between atoms: C_20  and  C_22
   10  A    between atoms: C_29  and  C_38
   11  A    between atoms: C_33  and  C_52
   12  A    between atoms: C_38  and  O_53
                            x       y       z     vdW  Elec       q    Type
                         _______ _______ _______ _____ _____    ______ ____

>  <TORSDO>
F 12

$$$$
=
 OpenBabel10272401163D

 55 59  0  0  1  0  0  0  0  0999 V2000
  187.3440  176.3700  142.5540 C   0  0  0  0  0  2  0  0  0  0  0  0
  187.7380  179.3090  138.3180 C   0  0  0  0  0  2  0  0  0  0  0  0
  184.9190  179.8860  139.4700 C   0  0  0  0  0  1  0  0  0  0  0  0
  182.3590  178.2130  140.9110 C   0  0  0  0  0  2  0  0  0  0  0  0
  181.0460  178.9440  141.1650 C   0  0  0  0  0  2  0  0  0  0  0  0
  182.8540  178.6150  143.3640 C   0  0  0  0  0  0  0  0  0  0  0  0
  181.4210  178.9920  143.6210 C   0  0  0  0  0  2  0  0  0  0  0  0
  185.2010  177.7750  140.4710 C   0  0  0  0  0  2  0  0  0  0  0  0
  180.4860  178.5170  142.5140 C   0  0  0  0  0  2  0  0  0  0  0  0
  189.6310  176.3710  143.6100 C   0  0  0  0  0  2  0  0  0  0  0  0
  183.3290  178.3370  142.0640 C   0  0  0  0  0  0  0  0  0  0  0  0
  190.8600  176.6440  140.9430 C   0  0  1  0  0  3  0  0  0  0  0  0
  187.0570  177.8580  142.7380 C   0  0  0  0  0  2  0  0  0  0  0  0
  189.3720  176.9130  141.1670 C   0  0  0  0  0  2  0  0  0  0  0  0
  185.1020  178.3750  144.2640 C   0  0  0  0  0  0  0  0  0  0  0  0
  188.9890  178.6840  138.7290 N   0  0  0  0  0  0  0  0  0  0  0  0
  183.7410  178.6490  144.4340 C   0  0  0  0  0  3  0  0  0  0  0  0
  186.5580  178.4240  138.6920 C   0  0  0  0  0  2  0  0  0  0  0  0
  185.9140  178.9140  139.9020 N   0  0  0  0  0  0  0  0  0  0  0  0
  191.1070  176.0670  143.3730 C   0  0  0  0  0  2  0  0  0  0  0  0
  189.5990  177.7510  138.0520 C   0  0  0  0  0  0  0  0  0  0  0  0
  188.8300  176.0950  142.3390 C   0  0  2  0  0  3  0  0  0  0  0  0
  184.7000  178.0720  141.8640 C   0  0  0  0  0  0  0  0  0  0  0  0
  185.5910  178.0910  142.9640 C   0  0  0  0  0  0  0  0  0  0  0  0
  190.8170  177.1840  138.5480 N   0  0  0  0  0  2  0  0  0  0  0  0
  191.3970  177.5420  139.8370 C   0  0  0  0  0  2  0  0  0  0  0  0
  191.6420  176.9200  142.2250 C   0  0  0  0  0  2  0  0  0  0  0  0
  185.6790  179.3070  146.5120 C   0  0  0  0  0  3  0  0  0  0  0  0
  187.5740  178.4790  147.7840 C   0  0  0  0  0  0  0  0  0  0  0  0
  187.0640  177.5470  145.6020 C   0  0  0  0  0  3  0  0  0  0  0  0
  187.8600  177.5800  146.7490 C   0  0  0  0  0  3  0  0  0  0  0  0
  186.4760  179.3400  147.6600 C   0  0  0  0  0  3  0  0  0  0  0  0
  185.9720  178.4190  145.4660 C   0  0  0  0  0  0  0  0  0  0  0  0
  188.4190  178.5130  148.9880 C   0  0  0  0  0  0  0  0  0  0  0  0
  189.7860  178.7390  148.8790 O   0  0  0  0  0  0  0  0  0  0  0  0
  187.9120  178.3370  150.1280 O   0  0  0  0  0  1  0  0  0  0  0  0
  189.0700  177.2580  136.7400 C   0  0  0  0  0  2  0  0  0  0  0  0
  188.3970  175.8950  136.8810 C   0  0  0  0  0  2  0  0  0  0  0  0
  186.4950  176.8130  135.7790 F   0  0  0  0  0  0  0  0  0  0  0  0
  187.2780  175.6740  135.8630 C   0  0  0  0  0  0  0  0  0  0  0  0
  187.8160  175.4140  134.6140 F   0  0  0  0  0  0  0  0  0  0  0  0
  186.4300  174.5050  136.3040 C   0  0  0  0  0  0  0  0  0  0  0  0
  186.6890  173.9490  137.3630 O   0  0  0  0  0  0  0  0  0  0  0  0
  185.7590  172.7240  134.7440 C   0  0  0  0  0  1  0  0  0  0  0  0
  184.9330  174.9100  134.4920 F   0  0  0  0  0  0  0  0  0  0  0  0
  185.2860  173.9820  135.4570 C   0  0  2  0  0  0  0  0  0  0  0  0
  184.0710  173.6610  136.3590 C   0  0  2  0  0  3  0  0  0  0  0  0
  183.3530  172.3190  136.1450 C   0  0  1  0  0  3  0  0  0  0  0  0
  183.4890  171.4770  137.2530 O   0  0  0  0  0  1  0  0  0  0  0  0
  181.9450  172.5460  135.8650 N   0  0  0  0  0  2  0  0  0  0  0  0
  181.2470  171.2950  136.1160 C   0  0  0  0  0  1  0  0  0  0  0  0
  183.1550  174.7530  136.4920 O   0  0  0  0  0  0  0  0  0  0  0  0
  183.1930  175.7100  137.5140 C   0  0  0  0  0  0  0  0  0  0  0  0
  183.7210  176.8290  137.2890 O   0  0  0  0  0  0  0  0  0  0  0  0
  182.6690  175.4460  138.7730 O   0  0  0  0  0  1  0  0  0  0  0  0
  1 13  1  0  0  0  0
  2 18  1  0  0  0  0
  2 16  1  0  0  0  0
  3 19  1  0  0  0  0
  4  5  1  0  0  0  0
  4 11  1  0  0  0  0
  5  9  1  0  0  0  0
  6  7  1  0  0  0  0
  6 17  1  0  0  0  0
  8 23  1  0  0  0  0
  9  7  1  0  0  0  0
 11  6  2  0  0  0  0
 12 26  1  6  0  0  0
 12 14  1  0  0  0  0
 12 27  1  0  0  0  0
 13 24  1  0  0  0  0
 15 17  2  0  0  0  0
 15 33  1  0  0  0  0
 18 19  1  0  0  0  0
 19  8  1  0  0  0  0
 20 10  1  0  0  0  0
 21 25  1  0  0  0  0
 21 16  2  0  0  0  0
 22 14  1  6  0  0  0
 22  1  1  0  0  0  0
 22 10  1  0  0  0  0
 23 11  1  0  0  0  0
 23 24  2  0  0  0  0
 24 15  1  0  0  0  0
 25 26  1  0  0  0  0
 27 20  1  0  0  0  0
 28 32  1  0  0  0  0
 29 34  1  0  0  0  0
 30 31  2  0  0  0  0
 31 29  1  0  0  0  0
 32 29  2  0  0  0  0
 33 30  1  0  0  0  0
 33 28  2  0  0  0  0
 34 36  1  0  0  0  0
 35 34  2  0  0  0  0
 37 38  1  0  0  0  0
 37 21  1  0  0  0  0
 39 40  1  0  0  0  0
 40 42  1  0  0  0  0
 40 38  1  0  0  0  0
 41 40  1  0  0  0  0
 42 43  2  0  0  0  0
 45 46  1  0  0  0  0
 46 44  1  6  0  0  0
 46 42  1  0  0  0  0
 46 47  1  0  0  0  0
 47 52  1  6  0  0  0
 48 47  1  0  0  0  0
 48 49  1  1  0  0  0
 50 51  1  0  0  0  0
 50 48  1  0  0  0  0
 52 53  1  0  0  0  0
 53 55  1  0  0  0  0
 54 53  2  0  0  0  0
M  END
>  <MODEL>
2

>  <REMARK>
 VINA RESULT:      -5.9      3.358      4.852
  Name = 
  12 active torsions:
  status: ('A' for Active; 'I' for Inactive)
    1  A    between atoms: C_1  and  O_53
    2  A    between atoms: C_6  and  C_14
    3  A    between atoms: C_6  and  C_20
    4  A    between atoms: C_8  and  C_22
    5  A    between atoms: C_8  and  C_43
    6  A    between atoms: C_10  and  C_32
    7  A    between atoms: N_11  and  C_29
    8  A    between atoms: C_14  and  C_38
    9  A    between atoms: C_20  and  C_22
   10  A    between atoms: C_29  and  C_38
   11  A    between atoms: C_33  and  C_52
   12  A    between atoms: C_38  and  O_53
                            x       y       z     vdW  Elec       q    Type
                         _______ _______ _______ _____ _____    ______ ____

>  <TORSDO>
F 12

$$$$
=
 OpenBabel10272401163D

 55 59  0  0  1  0  0  0  0  0999 V2000
  187.1650  179.2560  141.5420 C   0  0  0  0  0  2  0  0  0  0  0  0
  183.8690  176.6810  138.5020 C   0  0  0  0  0  2  0  0  0  0  0  0
  186.6990  175.8810  137.5220 C   0  0  0  0  0  1  0  0  0  0  0  0
  189.7160  177.3120  136.9960 C   0  0  0  0  0  2  0  0  0  0  0  0
  190.8120  176.5020  136.3130 C   0  0  0  0  0  2  0  0  0  0  0  0
  190.8930  176.7430  139.1670 C   0  0  0  0  0  0  0  0  0  0  0  0
  192.1120  176.2780  138.4190 C   0  0  0  0  0  2  0  0  0  0  0  0
  187.3170  177.9190  138.5260 C   0  0  0  0  0  2  0  0  0  0  0  0
  192.1450  176.7940  136.9840 C   0  0  0  0  0  2  0  0  0  0  0  0
  186.1160  179.2820  143.8320 C   0  0  0  0  0  2  0  0  0  0  0  0
  189.7170  177.1440  138.4990 C   0  0  0  0  0  0  0  0  0  0  0  0
  183.4360  179.2780  142.6010 C   0  0  1  0  0  3  0  0  0  0  0  0
  187.3720  177.7460  141.4520 C   0  0  0  0  0  2  0  0  0  0  0  0
  184.6840  178.9220  141.7950 C   0  0  0  0  0  2  0  0  0  0  0  0
  189.7940  177.0180  141.3210 C   0  0  0  0  0  0  0  0  0  0  0  0
  183.2410  177.3310  139.6460 N   0  0  0  0  0  0  0  0  0  0  0  0
  190.9110  176.6670  140.5560 C   0  0  0  0  0  3  0  0  0  0  0  0
  185.0820  177.4780  138.0420 C   0  0  0  0  0  2  0  0  0  0  0  0
  186.3100  176.8640  138.5260 N   0  0  0  0  0  0  0  0  0  0  0  0
  184.8710  179.6730  144.6220 C   0  0  0  0  0  2  0  0  0  0  0  0
  182.4230  178.3430  139.5570 C   0  0  0  0  0  0  0  0  0  0  0  0
  185.9250  179.6180  142.3530 C   0  0  2  0  0  3  0  0  0  0  0  0
  188.5720  177.4900  139.2480 C   0  0  0  0  0  0  0  0  0  0  0  0
  188.6070  177.4260  140.6620 C   0  0  0  0  0  0  0  0  0  0  0  0
  181.8720  178.9260  140.7420 N   0  0  0  0  0  2  0  0  0  0  0  0
  182.2350  178.4960  142.0870 C   0  0  0  0  0  2  0  0  0  0  0  0
  183.6490  178.9390  144.0750 C   0  0  0  0  0  2  0  0  0  0  0  0
  191.1720  176.7920  143.3950 C   0  0  0  0  0  3  0  0  0  0  0  0
  190.1590  176.7960  145.6020 C   0  0  0  0  0  0  0  0  0  0  0  0
  188.7750  177.0070  143.6200 C   0  0  0  0  0  3  0  0  0  0  0  0
  188.8980  176.9410  145.0100 C   0  0  0  0  0  3  0  0  0  0  0  0
  191.2960  176.7260  144.7860 C   0  0  0  0  0  3  0  0  0  0  0  0
  189.9090  176.9210  142.7970 C   0  0  0  0  0  0  0  0  0  0  0  0
  190.2830  176.7220  147.0660 C   0  0  0  0  0  0  0  0  0  0  0  0
  191.5020  176.9830  147.6800 O   0  0  0  0  0  0  0  0  0  0  0  0
  189.2870  176.4230  147.7770 O   0  0  0  0  0  1  0  0  0  0  0  0
  182.0180  178.9120  138.2310 C   0  0  0  0  0  2  0  0  0  0  0  0
  180.7830  178.2100  137.6720 C   0  0  0  0  0  2  0  0  0  0  0  0
  180.0630  178.1050  135.4030 F   0  0  0  0  0  0  0  0  0  0  0  0
  181.0140  177.6140  136.2820 C   0  0  0  0  0  0  0  0  0  0  0  0
  182.2700  177.9640  135.8170 F   0  0  0  0  0  0  0  0  0  0  0  0
  180.9050  176.1100  136.3630 C   0  0  0  0  0  0  0  0  0  0  0  0
  180.6070  175.5920  137.4310 O   0  0  0  0  0  0  0  0  0  0  0  0
  182.3080  175.8510  134.3590 C   0  0  0  0  0  1  0  0  0  0  0  0
  180.0660  175.1460  134.3500 F   0  0  0  0  0  0  0  0  0  0  0  0
  181.1820  175.2220  135.1650 C   0  0  2  0  0  0  0  0  0  0  0  0
  181.5900  173.8090  135.6440 C   0  0  2  0  0  3  0  0  0  0  0  0
  183.0720  173.5630  135.9730 C   0  0  1  0  0  3  0  0  0  0  0  0
  183.2860  173.4590  137.3510 O   0  0  0  0  0  1  0  0  0  0  0  0
  183.5360  172.3570  135.3070 N   0  0  0  0  0  2  0  0  0  0  0  0
  184.0620  171.4720  136.3340 C   0  0  0  0  0  1  0  0  0  0  0  0
  181.0240  172.7540  134.8590 O   0  0  0  0  0  0  0  0  0  0  0  0
  180.4290  171.6000  135.3800 C   0  0  0  0  0  0  0  0  0  0  0  0
  179.9900  170.7240  134.5910 O   0  0  0  0  0  0  0  0  0  0  0  0
  180.3040  171.4040  136.7500 O   0  0  0  0  0  1  0  0  0  0  0  0
  2 16  1  0  0  0  0
  3 19  1  0  0  0  0
  4 11  1  0  0  0  0
  5  9  1  0  0  0  0
  5  4  1  0  0  0  0
  6 17  1  0  0  0  0
  7  6  1  0  0  0  0
  8 19  1  0  0  0  0
  8 23  1  0  0  0  0
  9  7  1  0  0  0  0
 10 20  1  0  0  0  0
 11  6  2  0  0  0  0
 11 23  1  0  0  0  0
 12 14  1  6  0  0  0
 12 27  1  0  0  0  0
 13  1  1  0  0  0  0
 14 22  1  0  0  0  0
 15 33  1  0  0  0  0
 17 15  2  0  0  0  0
 18  2  1  0  0  0  0
 18 19  1  0  0  0  0
 21 16  2  0  0  0  0
 21 25  1  0  0  0  0
 22  1  1  6  0  0  0
 22 10  1  0  0  0  0
 23 24  2  0  0  0  0
 24 15  1  0  0  0  0
 24 13  1  0  0  0  0
 25 26  1  0  0  0  0
 26 12  1  0  0  0  0
 27 20  1  0  0  0  0
 28 32  1  0  0  0  0
 29 34  1  0  0  0  0
 30 31  2  0  0  0  0
 31 29  1  0  0  0  0
 32 29  2  0  0  0  0
 33 28  2  0  0  0  0
 33 30  1  0  0  0  0
 34 35  2  0  0  0  0
 34 36  1  0  0  0  0
 37 21  1  0  0  0  0
 38 37  1  0  0  0  0
 39 40  1  0  0  0  0
 40 42  1  0  0  0  0
 40 38  1  0  0  0  0
 41 40  1  0  0  0  0
 42 43  2  0  0  0  0
 45 46  1  0  0  0  0
 46 44  1  6  0  0  0
 46 47  1  0  0  0  0
 46 42  1  0  0  0  0
 47 52  1  6  0  0  0
 47 48  1  0  0  0  0
 48 49  1  1  0  0  0
 50 48  1  0  0  0  0
 50 51  1  0  0  0  0
 52 53  1  0  0  0  0
 53 55  1  0  0  0  0
 54 53  2  0  0  0  0
M  END
>  <MODEL>
3

>  <REMARK>
 VINA RESULT:      -5.7      4.919      8.334
  Name = 
  12 active torsions:
  status: ('A' for Active; 'I' for Inactive)
    1  A    between atoms: C_1  and  O_53
    2  A    between atoms: C_6  and  C_14
    3  A    between atoms: C_6  and  C_20
    4  A    between atoms: C_8  and  C_22
    5  A    between atoms: C_8  and  C_43
    6  A    between atoms: C_10  and  C_32
    7  A    between atoms: N_11  and  C_29
    8  A    between atoms: C_14  and  C_38
    9  A    between atoms: C_20  and  C_22
   10  A    between atoms: C_29  and  C_38
   11  A    between atoms: C_33  and  C_52
   12  A    between atoms: C_38  and  O_53
                            x       y       z     vdW  Elec       q    Type
                         _______ _______ _______ _____ _____    ______ ____

>  <TORSDO>
F 12

$$$$
=
 OpenBabel10272401163D

 55 59  0  0  1  0  0  0  0  0999 V2000
  187.2890  179.3080  141.4600 C   0  0  0  0  0  2  0  0  0  0  0  0
  190.4090  175.4080  140.1240 C   0  0  0  0  0  2  0  0  0  0  0  0
  190.4300  175.4630  143.2230 C   0  0  0  0  0  1  0  0  0  0  0  0
  190.4790  177.7260  145.7340 C   0  0  0  0  0  2  0  0  0  0  0  0
  190.6610  177.2380  147.1680 C   0  0  0  0  0  2  0  0  0  0  0  0
  188.0090  177.8730  146.2850 C   0  0  0  0  0  0  0  0  0  0  0  0
  188.2990  177.7410  147.7550 C   0  0  0  0  0  2  0  0  0  0  0  0
  189.7860  177.7050  142.9090 C   0  0  0  0  0  2  0  0  0  0  0  0
  189.7560  178.0410  148.0900 C   0  0  0  0  0  2  0  0  0  0  0  0
  185.4080  179.2930  139.7860 C   0  0  0  0  0  2  0  0  0  0  0  0
  189.0270  177.7700  145.3130 C   0  0  0  0  0  0  0  0  0  0  0  0
  187.2460  178.2400  137.7340 C   0  0  1  0  0  3  0  0  0  0  0  0
  186.9820  177.9540  142.0940 C   0  0  0  0  0  2  0  0  0  0  0  0
  187.6070  178.2110  139.2190 C   0  0  0  0  0  2  0  0  0  0  0  0
  186.3250  178.0560  144.5380 C   0  0  0  0  0  0  0  0  0  0  0  0
  189.6380  175.9610  139.0170 N   0  0  0  0  0  0  0  0  0  0  0  0
  186.6820  177.9940  145.8890 C   0  0  0  0  0  3  0  0  0  0  0  0
  190.7120  176.4900  141.1500 C   0  0  0  0  0  2  0  0  0  0  0  0
  189.8060  176.3870  142.2850 N   0  0  0  0  0  0  0  0  0  0  0  0
  185.0690  179.3540  138.2990 C   0  0  0  0  0  2  0  0  0  0  0  0
  190.1570  176.6240  138.0210 C   0  0  0  0  0  0  0  0  0  0  0  0
  186.9230  179.3460  139.9800 C   0  0  2  0  0  3  0  0  0  0  0  0
  188.6920  177.8150  143.9430 C   0  0  0  0  0  0  0  0  0  0  0  0
  187.3390  177.9570  143.5520 C   0  0  0  0  0  0  0  0  0  0  0  0
  189.3140  177.1460  136.9890 N   0  0  0  0  0  2  0  0  0  0  0  0
  187.8600  177.0440  137.0190 C   0  0  0  0  0  2  0  0  0  0  0  0
  185.7290  178.1920  137.5620 C   0  0  0  0  0  2  0  0  0  0  0  0
  183.9710  178.5690  145.2080 C   0  0  0  0  0  3  0  0  0  0  0  0
  182.1550  178.5420  143.5960 C   0  0  0  0  0  0  0  0  0  0  0  0
  184.4210  178.0260  142.8960 C   0  0  0  0  0  3  0  0  0  0  0  0
  183.0670  178.1920  142.5920 C   0  0  0  0  0  3  0  0  0  0  0  0
  182.6160  178.7340  144.9050 C   0  0  0  0  0  3  0  0  0  0  0  0
  184.8850  178.2010  144.2080 C   0  0  0  0  0  0  0  0  0  0  0  0
  180.7300  178.7110  143.2720 C   0  0  0  0  0  0  0  0  0  0  0  0
  180.1940  179.9830  143.1090 O   0  0  0  0  0  0  0  0  0  0  0  0
  179.9830  177.7060  143.1390 O   0  0  0  0  0  1  0  0  0  0  0  0
  191.6360  176.8450  137.9100 C   0  0  0  0  0  2  0  0  0  0  0  0
  192.3920  175.5250  137.7750 C   0  0  0  0  0  2  0  0  0  0  0  0
  192.4890  174.0680  135.8920 F   0  0  0  0  0  0  0  0  0  0  0  0
  192.9360  175.2910  136.3650 C   0  0  0  0  0  0  0  0  0  0  0  0
  192.4880  176.2850  135.5110 F   0  0  0  0  0  0  0  0  0  0  0  0
  194.4450  175.3010  136.4070 C   0  0  0  0  0  0  0  0  0  0  0  0
  195.0380  176.3490  136.1910 O   0  0  0  0  0  0  0  0  0  0  0  0
  195.4730  173.3280  135.3570 C   0  0  0  0  0  1  0  0  0  0  0  0
  194.5390  173.1880  137.5090 F   0  0  0  0  0  0  0  0  0  0  0  0
  195.2460  174.0430  136.6800 C   0  0  2  0  0  0  0  0  0  0  0  0
  196.6010  174.4140  137.3270 C   0  0  2  0  0  3  0  0  0  0  0  0
  197.8810  174.1400  136.5200 C   0  0  1  0  0  3  0  0  0  0  0  0
  198.6510  175.2970  136.3620 O   0  0  0  0  0  1  0  0  0  0  0  0
  198.6670  173.1050  137.1710 N   0  0  0  0  0  2  0  0  0  0  0  0
  199.9740  173.6750  137.4620 C   0  0  0  0  0  1  0  0  0  0  0  0
  196.7170  173.9950  138.6910 O   0  0  0  0  0  0  0  0  0  0  0  0
  196.6090  174.8410  139.8000 C   0  0  0  0  0  0  0  0  0  0  0  0
  195.5320  175.4590  140.0000 O   0  0  0  0  0  0  0  0  0  0  0  0
  197.6690  175.0210  140.6800 O   0  0  0  0  0  1  0  0  0  0  0  0
  1 13  1  0  0  0  0
  2 18  1  0  0  0  0
  4  5  1  0  0  0  0
  5  9  1  0  0  0  0
  6  7  1  0  0  0  0
  7  9  1  0  0  0  0
  8 23  1  0  0  0  0
 10 22  1  0  0  0  0
 11  4  1  0  0  0  0
 11  6  2  0  0  0  0
 12 26  1  6  0  0  0
 12 14  1  0  0  0  0
 13 24  1  0  0  0  0
 15 17  2  0  0  0  0
 16  2  1  0  0  0  0
 17  6  1  0  0  0  0
 18 19  1  0  0  0  0
 19  8  1  0  0  0  0
 19  3  1  0  0  0  0
 20 10  1  0  0  0  0
 21 16  2  0  0  0  0
 22 14  1  6  0  0  0
 22  1  1  0  0  0  0
 23 11  1  0  0  0  0
 24 23  2  0  0  0  0
 24 15  1  0  0  0  0
 25 26  1  0  0  0  0
 25 21  1  0  0  0  0
 27 12  1  0  0  0  0
 27 20  1  0  0  0  0
 29 32  2  0  0  0  0
 30 33  1  0  0  0  0
 31 30  2  0  0  0  0
 31 29  1  0  0  0  0
 32 28  1  0  0  0  0
 33 15  1  0  0  0  0
 33 28  2  0  0  0  0
 34 29  1  0  0  0  0
 35 34  2  0  0  0  0
 36 34  1  0  0  0  0
 37 21  1  0  0  0  0
 38 37  1  0  0  0  0
 39 40  1  0  0  0  0
 40 42  1  0  0  0  0
 40 38  1  0  0  0  0
 41 40  1  0  0  0  0
 42 46  1  0  0  0  0
 43 42  2  0  0  0  0
 46 44  1  6  0  0  0
 46 47  1  0  0  0  0
 46 45  1  0  0  0  0
 47 52  1  1  0  0  0
 48 49  1  1  0  0  0
 48 50  1  0  0  0  0
 48 47  1  0  0  0  0
 50 51  1  0  0  0  0
 52 53  1  0  0  0  0
 53 54  2  0  0  0  0
 53 55  1  0  0  0  0
M  END
>  <MODEL>
4

>  <REMARK>
 VINA RESULT:      -5.6      3.022      5.702
  Name = 
  12 active torsions:
  status: ('A' for Active; 'I' for Inactive)
    1  A    between atoms: C_1  and  O_53
    2  A    between atoms: C_6  and  C_14
    3  A    between atoms: C_6  and  C_20
    4  A    between atoms: C_8  and  C_22
    5  A    between atoms: C_8  and  C_43
    6  A    between atoms: C_10  and  C_32
    7  A    between atoms: N_11  and  C_29
    8  A    between atoms: C_14  and  C_38
    9  A    between atoms: C_20  and  C_22
   10  A    between atoms: C_29  and  C_38
   11  A    between atoms: C_33  and  C_52
   12  A    between atoms: C_38  and  O_53
                            x       y       z     vdW  Elec       q    Type
                         _______ _______ _______ _____ _____    ______ ____

>  <TORSDO>
F 12

$$$$
=
 OpenBabel10272401163D

 55 59  0  0  1  0  0  0  0  0999 V2000
  187.3330  176.4130  142.5670 C   0  0  0  0  0  2  0  0  0  0  0  0
  187.6820  179.3750  138.3430 C   0  0  0  0  0  2  0  0  0  0  0  0
  184.8530  179.9020  139.4950 C   0  0  0  0  0  1  0  0  0  0  0  0
  182.3200  178.1820  140.9270 C   0  0  0  0  0  2  0  0  0  0  0  0
  180.9940  178.8900  141.1830 C   0  0  0  0  0  2  0  0  0  0  0  0
  182.8070  178.5820  143.3820 C   0  0  0  0  0  0  0  0  0  0  0  0
  181.3680  178.9350  143.6400 C   0  0  0  0  0  2  0  0  0  0  0  0
  185.1690  177.7920  140.4880 C   0  0  0  0  0  2  0  0  0  0  0  0
  180.4410  178.4490  142.5300 C   0  0  0  0  0  2  0  0  0  0  0  0
  189.6180  176.4460  143.6240 C   0  0  0  0  0  2  0  0  0  0  0  0
  183.2860  178.3170  142.0820 C   0  0  0  0  0  0  0  0  0  0  0  0
  190.8440  176.7500  140.9590 C   0  0  1  0  0  3  0  0  0  0  0  0
  187.0210  177.8950  142.7570 C   0  0  0  0  0  2  0  0  0  0  0  0
  189.3520  176.9940  141.1830 C   0  0  0  0  0  2  0  0  0  0  0  0
  185.0570  178.3750  144.2830 C   0  0  0  0  0  0  0  0  0  0  0  0
  188.9430  178.7690  138.7520 N   0  0  0  0  0  0  0  0  0  0  0  0
  183.6920  178.6260  144.4530 C   0  0  0  0  0  3  0  0  0  0  0  0
  186.5160  178.4690  138.7120 C   0  0  0  0  0  2  0  0  0  0  0  0
  185.8630  178.9440  139.9240 N   0  0  0  0  0  0  0  0  0  0  0  0
  191.1000  176.1670  143.3870 C   0  0  0  0  0  2  0  0  0  0  0  0
  189.5680  177.8480  138.0720 C   0  0  0  0  0  0  0  0  0  0  0  0
  188.8220  176.1630  142.3510 C   0  0  2  0  0  3  0  0  0  0  0  0
  184.6620  178.0740  141.8810 C   0  0  0  0  0  0  0  0  0  0  0  0
  185.5520  178.1040  142.9820 C   0  0  0  0  0  0  0  0  0  0  0  0
  190.7940  177.2990  138.5670 N   0  0  0  0  0  2  0  0  0  0  0  0
  191.3680  177.6610  139.8580 C   0  0  0  0  0  2  0  0  0  0  0  0
  191.6210  177.0340  142.2440 C   0  0  0  0  0  2  0  0  0  0  0  0
  185.7060  179.4070  146.4660 C   0  0  0  0  0  3  0  0  0  0  0  0
  187.5230  178.5120  147.8060 C   0  0  0  0  0  0  0  0  0  0  0  0
  186.9400  177.4790  145.6890 C   0  0  0  0  0  3  0  0  0  0  0  0
  187.7340  177.5230  146.8370 C   0  0  0  0  0  3  0  0  0  0  0  0
  186.5010  179.4520  147.6160 C   0  0  0  0  0  3  0  0  0  0  0  0
  185.9260  178.4280  145.4860 C   0  0  0  0  0  0  0  0  0  0  0  0
  188.3650  178.5570  149.0120 C   0  0  0  0  0  0  0  0  0  0  0  0
  189.7360  178.7600  148.9020 O   0  0  0  0  0  0  0  0  0  0  0  0
  187.8530  178.4130  150.1530 O   0  0  0  0  0  1  0  0  0  0  0  0
  189.0480  177.3520  136.7570 C   0  0  0  0  0  2  0  0  0  0  0  0
  188.5080  175.9280  136.8680 C   0  0  0  0  0  2  0  0  0  0  0  0
  188.5440  176.1850  134.4990 F   0  0  0  0  0  0  0  0  0  0  0  0
  188.2050  175.2990  135.5080 C   0  0  0  0  0  0  0  0  0  0  0  0
  188.9440  174.1390  135.3450 F   0  0  0  0  0  0  0  0  0  0  0  0
  186.7320  174.9760  135.4270 C   0  0  0  0  0  0  0  0  0  0  0  0
  186.3680  174.0300  134.7400 O   0  0  0  0  0  0  0  0  0  0  0  0
  185.5000  177.1040  135.3800 C   0  0  0  0  0  1  0  0  0  0  0  0
  186.1240  176.1270  137.4250 F   0  0  0  0  0  0  0  0  0  0  0  0
  185.6900  175.8060  136.1490 C   0  0  2  0  0  0  0  0  0  0  0  0
  184.3550  175.0260  136.2210 C   0  0  2  0  0  3  0  0  0  0  0  0
  183.0620  175.7840  135.8790 C   0  0  1  0  0  3  0  0  0  0  0  0
  182.1970  175.0070  135.1010 O   0  0  0  0  0  1  0  0  0  0  0  0
  182.3920  176.2020  137.0990 N   0  0  0  0  0  2  0  0  0  0  0  0
  182.3850  177.6560  137.1120 C   0  0  0  0  0  1  0  0  0  0  0  0
  184.2230  174.2280  137.4020 O   0  0  0  0  0  0  0  0  0  0  0  0
  184.7400  172.9370  137.5580 C   0  0  0  0  0  0  0  0  0  0  0  0
  185.8670  172.7860  138.0950 O   0  0  0  0  0  1  0  0  0  0  0  0
  184.0400  171.8190  137.1220 O   0  0  0  0  0  0  0  0  0  0  0  0
  1 13  1  0  0  0  0
  2 18  1  0  0  0  0
  2 16  1  0  0  0  0
  3 19  1  0  0  0  0
  4  5  1  0  0  0  0
  4 11  1  0  0  0  0
  5  9  1  0  0  0  0
  6  7  1  0  0  0  0
  6 17  1  0  0  0  0
  8 23  1  0  0  0  0
  9  7  1  0  0  0  0
 11  6  2  0  0  0  0
 12 26  1  6  0  0  0
 12 14  1  0  0  0  0
 12 27  1  0  0  0  0
 13 24  1  0  0  0  0
 15 17  2  0  0  0  0
 15 33  1  0  0  0  0
 18 19  1  0  0  0  0
 19  8  1  0  0  0  0
 20 10  1  0  0  0  0
 21 25  1  0  0  0  0
 21 16  2  0  0  0  0
 22 14  1  6  0  0  0
 22  1  1  0  0  0  0
 22 10  1  0  0  0  0
 23 11  1  0  0  0  0
 23 24  2  0  0  0  0
 24 15  1  0  0  0  0
 25 26  1  0  0  0  0
 27 20  1  0  0  0  0
 28 32  1  0  0  0  0
 29 34  1  0  0  0  0
 30 31  2  0  0  0  0
 31 29  1  0  0  0  0
 32 29  2  0  0  0  0
 33 30  1  0  0  0  0
 33 28  2  0  0  0  0
 34 36  1  0  0  0  0
 35 34  2  0  0  0  0
 37 38  1  0  0  0  0
 37 21  1  0  0  0  0
 39 40  1  0  0  0  0
 40 38  1  0  0  0  0
 41 40  1  0  0  0  0
 42 40  1  0  0  0  0
 42 46  1  0  0  0  0
 43 42  2  0  0  0  0
 46 44  1  6  0  0  0
 46 47  1  0  0  0  0
 46 45  1  0  0  0  0
 47 52  1  1  0  0  0
 48 49  1  1  0  0  0
 48 47  1  0  0  0  0
 48 50  1  0  0  0  0
 50 51  1  0  0  0  0
 52 53  1  0  0  0  0
 53 54  1  0  0  0  0
 55 53  2  0  0  0  0
M  END
>  <MODEL>
5

>  <REMARK>
 VINA RESULT:      -5.6      3.052      4.788
  Name = 
  12 active torsions:
  status: ('A' for Active; 'I' for Inactive)
    1  A    between atoms: C_1  and  O_53
    2  A    between atoms: C_6  and  C_14
    3  A    between atoms: C_6  and  C_20
    4  A    between atoms: C_8  and  C_22
    5  A    between atoms: C_8  and  C_43
    6  A    between atoms: C_10  and  C_32
    7  A    between atoms: N_11  and  C_29
    8  A    between atoms: C_14  and  C_38
    9  A    between atoms: C_20  and  C_22
   10  A    between atoms: C_29  and  C_38
   11  A    between atoms: C_33  and  C_52
   12  A    between atoms: C_38  and  O_53
                            x       y       z     vdW  Elec       q    Type
                         _______ _______ _______ _____ _____    ______ ____

>  <TORSDO>
F 12

$$$$
=
 OpenBabel10272401163D

 55 59  0  0  1  0  0  0  0  0999 V2000
  187.3460  176.4000  142.6250 C   0  0  0  0  0  2  0  0  0  0  0  0
  187.6920  179.3570  138.3980 C   0  0  0  0  0  2  0  0  0  0  0  0
  184.8590  179.8750  139.5430 C   0  0  0  0  0  1  0  0  0  0  0  0
  182.3300  178.1480  140.9740 C   0  0  0  0  0  2  0  0  0  0  0  0
  181.0010  178.8520  141.2270 C   0  0  0  0  0  2  0  0  0  0  0  0
  182.8100  178.5540  143.4290 C   0  0  0  0  0  0  0  0  0  0  0  0
  181.3700  178.9010  143.6840 C   0  0  0  0  0  2  0  0  0  0  0  0
  185.1810  177.7670  140.5400 C   0  0  0  0  0  2  0  0  0  0  0  0
  180.4470  178.4110  142.5730 C   0  0  0  0  0  2  0  0  0  0  0  0
  189.6300  176.4440  143.6870 C   0  0  0  0  0  2  0  0  0  0  0  0
  183.2930  178.2880  142.1300 C   0  0  0  0  0  0  0  0  0  0  0  0
  190.8590  176.7480  141.0240 C   0  0  1  0  0  3  0  0  0  0  0  0
  187.0290  177.8810  142.8130 C   0  0  0  0  0  2  0  0  0  0  0  0
  189.3660  176.9860  141.2450 C   0  0  0  0  0  2  0  0  0  0  0  0
  185.0600  178.3560  144.3350 C   0  0  0  0  0  0  0  0  0  0  0  0
  188.9540  178.7560  138.8100 N   0  0  0  0  0  0  0  0  0  0  0  0
  183.6940  178.6020  144.5010 C   0  0  0  0  0  3  0  0  0  0  0  0
  186.5280  178.4470  138.7660 C   0  0  0  0  0  2  0  0  0  0  0  0
  185.8720  178.9210  139.9760 N   0  0  0  0  0  0  0  0  0  0  0  0
  191.1120  176.1700  143.4530 C   0  0  0  0  0  2  0  0  0  0  0  0
  189.5850  177.8360  138.1330 C   0  0  0  0  0  0  0  0  0  0  0  0
  188.8370  176.1550  142.4130 C   0  0  2  0  0  3  0  0  0  0  0  0
  184.6700  178.0510  141.9320 C   0  0  0  0  0  0  0  0  0  0  0  0
  185.5580  178.0850  143.0350 C   0  0  0  0  0  0  0  0  0  0  0  0
  190.8120  177.2930  138.6300 N   0  0  0  0  0  2  0  0  0  0  0  0
  191.3810  177.6590  139.9220 C   0  0  0  0  0  2  0  0  0  0  0  0
  191.6330  177.0360  142.3090 C   0  0  0  0  0  2  0  0  0  0  0  0
  185.7730  179.4590  146.4620 C   0  0  0  0  0  3  0  0  0  0  0  0
  187.5180  178.5140  147.8620 C   0  0  0  0  0  0  0  0  0  0  0  0
  186.8700  177.4090  145.8010 C   0  0  0  0  0  3  0  0  0  0  0  0
  187.6620  177.4610  146.9510 C   0  0  0  0  0  3  0  0  0  0  0  0
  186.5650  179.5110  147.6130 C   0  0  0  0  0  3  0  0  0  0  0  0
  185.9260  178.4140  145.5380 C   0  0  0  0  0  0  0  0  0  0  0  0
  188.3570  178.5660  149.0700 C   0  0  0  0  0  0  0  0  0  0  0  0
  189.7250  178.7880  148.9630 O   0  0  0  0  0  0  0  0  0  0  0  0
  187.8450  178.4120  150.2100 O   0  0  0  0  0  1  0  0  0  0  0  0
  189.0680  177.3360  136.8180 C   0  0  0  0  0  2  0  0  0  0  0  0
  190.1900  176.7640  135.9540 C   0  0  0  0  0  2  0  0  0  0  0  0
  188.9900  174.7620  136.4350 F   0  0  0  0  0  0  0  0  0  0  0  0
  190.1710  175.2370  135.8880 C   0  0  0  0  0  0  0  0  0  0  0  0
  190.2490  174.8160  134.5710 F   0  0  0  0  0  0  0  0  0  0  0  0
  191.3460  174.6920  136.6640 C   0  0  0  0  0  0  0  0  0  0  0  0
  191.1410  174.1100  137.7220 O   0  0  0  0  0  0  0  0  0  0  0  0
  193.3140  176.1640  136.7760 C   0  0  0  0  0  1  0  0  0  0  0  0
  192.8120  174.9840  134.8070 F   0  0  0  0  0  0  0  0  0  0  0  0
  192.7740  174.8710  136.1860 C   0  0  2  0  0  0  0  0  0  0  0  0
  193.6350  173.6710  136.6470 C   0  0  2  0  0  3  0  0  0  0  0  0
  194.8890  173.9680  137.4860 C   0  0  1  0  0  3  0  0  0  0  0  0
  194.9910  173.1110  138.5850 O   0  0  0  0  0  1  0  0  0  0  0  0
  196.0790  173.8580  136.6580 N   0  0  0  0  0  2  0  0  0  0  0  0
  197.1290  174.6270  137.3080 C   0  0  0  0  0  1  0  0  0  0  0  0
  193.8870  172.7170  135.6100 O   0  0  0  0  0  0  0  0  0  0  0  0
  193.6230  171.3460  135.7030 C   0  0  0  0  0  0  0  0  0  0  0  0
  194.5090  170.5780  136.1590 O   0  0  0  0  0  1  0  0  0  0  0  0
  192.4080  170.8120  135.2930 O   0  0  0  0  0  0  0  0  0  0  0  0
  1 13  1  0  0  0  0
  2 18  1  0  0  0  0
  2 16  1  0  0  0  0
  3 19  1  0  0  0  0
  4  5  1  0  0  0  0
  4 11  1  0  0  0  0
  5  9  1  0  0  0  0
  6  7  1  0  0  0  0
  6 17  1  0  0  0  0
  8 23  1  0  0  0  0
  9  7  1  0  0  0  0
 11  6  2  0  0  0  0
 12 26  1  6  0  0  0
 12 14  1  0  0  0  0
 12 27  1  0  0  0  0
 13 24  1  0  0  0  0
 15 17  2  0  0  0  0
 15 33  1  0  0  0  0
 18 19  1  0  0  0  0
 19  8  1  0  0  0  0
 20 10  1  0  0  0  0
 21 25  1  0  0  0  0
 21 16  2  0  0  0  0
 22 14  1  6  0  0  0
 22  1  1  0  0  0  0
 22 10  1  0  0  0  0
 23 11  1  0  0  0  0
 23 24  2  0  0  0  0
 24 15  1  0  0  0  0
 25 26  1  0  0  0  0
 27 20  1  0  0  0  0
 28 32  1  0  0  0  0
 29 34  1  0  0  0  0
 30 31  2  0  0  0  0
 31 29  1  0  0  0  0
 32 29  2  0  0  0  0
 33 30  1  0  0  0  0
 33 28  2  0  0  0  0
 34 36  1  0  0  0  0
 35 34  2  0  0  0  0
 37 21  1  0  0  0  0
 38 37  1  0  0  0  0
 40 38  1  0  0  0  0
 40 39  1  0  0  0  0
 40 42  1  0  0  0  0
 41 40  1  0  0  0  0
 42 43  2  0  0  0  0
 45 46  1  0  0  0  0
 46 47  1  0  0  0  0
 46 42  1  0  0  0  0
 46 44  1  1  0  0  0
 47 52  1  6  0  0  0
 47 48  1  0  0  0  0
 48 49  1  1  0  0  0
 50 51  1  0  0  0  0
 50 48  1  0  0  0  0
 52 53  1  0  0  0  0
 53 54  1  0  0  0  0
 55 53  2  0  0  0  0
M  END
>  <MODEL>
6

>  <REMARK>
 VINA RESULT:      -5.5      1.234      2.155
  Name = 
  12 active torsions:
  status: ('A' for Active; 'I' for Inactive)
    1  A    between atoms: C_1  and  O_53
    2  A    between atoms: C_6  and  C_14
    3  A    between atoms: C_6  and  C_20
    4  A    between atoms: C_8  and  C_22
    5  A    between atoms: C_8  and  C_43
    6  A    between atoms: C_10  and  C_32
    7  A    between atoms: N_11  and  C_29
    8  A    between atoms: C_14  and  C_38
    9  A    between atoms: C_20  and  C_22
   10  A    between atoms: C_29  and  C_38
   11  A    between atoms: C_33  and  C_52
   12  A    between atoms: C_38  and  O_53
                            x       y       z     vdW  Elec       q    Type
                         _______ _______ _______ _____ _____    ______ ____

>  <TORSDO>
F 12

$$$$
=
 OpenBabel10272401163D

 55 59  0  0  1  0  0  0  0  0999 V2000
  187.3590  179.3110  141.3990 C   0  0  0  0  0  2  0  0  0  0  0  0
  190.6420  175.4290  140.4630 C   0  0  0  0  0  2  0  0  0  0  0  0
  190.3660  175.5570  143.5480 C   0  0  0  0  0  1  0  0  0  0  0  0
  190.1440  177.8780  145.9950 C   0  0  0  0  0  2  0  0  0  0  0  0
  190.1950  177.4270  147.4510 C   0  0  0  0  0  2  0  0  0  0  0  0
  187.6320  178.0000  146.3040 C   0  0  0  0  0  0  0  0  0  0  0  0
  187.7810  177.9070  147.7970 C   0  0  0  0  0  2  0  0  0  0  0  0
  189.7260  177.7810  143.1180 C   0  0  0  0  0  2  0  0  0  0  0  0
  189.1950  178.2370  148.2630 C   0  0  0  0  0  2  0  0  0  0  0  0
  185.6470  179.2290  139.5530 C   0  0  0  0  0  2  0  0  0  0  0  0
  188.7400  177.8910  145.4370 C   0  0  0  0  0  0  0  0  0  0  0  0
  187.6870  178.1560  137.7130 C   0  0  1  0  0  3  0  0  0  0  0  0
  187.0100  177.9680  142.0330 C   0  0  0  0  0  2  0  0  0  0  0  0
  187.9050  178.1670  139.2250 C   0  0  0  0  0  2  0  0  0  0  0  0
  186.1200  178.1160  144.4000 C   0  0  0  0  0  0  0  0  0  0  0  0
  189.9750  175.9440  139.2740 N   0  0  0  0  0  0  0  0  0  0  0  0
  186.3470  178.0910  145.7800 C   0  0  0  0  0  3  0  0  0  0  0  0
  190.8320  176.5400  141.4870 C   0  0  0  0  0  2  0  0  0  0  0  0
  189.8220  176.4490  142.5310 N   0  0  0  0  0  0  0  0  0  0  0  0
  185.4520  179.2490  138.0400 C   0  0  0  0  0  2  0  0  0  0  0  0
  190.5780  176.5920  138.3170 C   0  0  0  0  0  0  0  0  0  0  0  0
  187.1350  179.3090  139.8890 C   0  0  2  0  0  3  0  0  0  0  0  0
  188.5370  177.8980  144.0400 C   0  0  0  0  0  0  0  0  0  0  0  0
  187.2250  178.0100  143.5180 C   0  0  0  0  0  0  0  0  0  0  0  0
  189.8310  177.0770  137.1960 N   0  0  0  0  0  2  0  0  0  0  0  0
  188.3820  176.9530  137.0890 C   0  0  0  0  0  2  0  0  0  0  0  0
  186.1950  178.0800  137.3980 C   0  0  0  0  0  2  0  0  0  0  0  0
  183.7080  178.6150  144.8270 C   0  0  0  0  0  3  0  0  0  0  0  0
  182.0550  178.5170  143.0520 C   0  0  0  0  0  0  0  0  0  0  0  0
  184.3820  178.0130  142.5860 C   0  0  0  0  0  3  0  0  0  0  0  0
  183.0620  178.1500  142.1500 C   0  0  0  0  0  3  0  0  0  0  0  0
  182.3860  178.7520  144.3930 C   0  0  0  0  0  3  0  0  0  0  0  0
  184.7170  178.2320  143.9310 C   0  0  0  0  0  0  0  0  0  0  0  0
  180.6650  178.6560  142.5890 C   0  0  0  0  0  0  0  0  0  0  0  0
  180.0910  177.6740  141.7900 O   0  0  0  0  0  0  0  0  0  0  0  0
  179.9820  179.6630  142.9130 O   0  0  0  0  0  1  0  0  0  0  0  0
  192.0570  176.8320  138.3410 C   0  0  0  0  0  2  0  0  0  0  0  0
  192.8300  175.6370  137.7890 C   0  0  0  0  0  2  0  0  0  0  0  0
  192.8790  175.8000  135.4130 F   0  0  0  0  0  0  0  0  0  0  0  0
  193.6530  175.9810  136.5470 C   0  0  0  0  0  0  0  0  0  0  0  0
  194.0610  177.3030  136.5980 F   0  0  0  0  0  0  0  0  0  0  0  0
  194.8620  175.0790  136.4870 C   0  0  0  0  0  0  0  0  0  0  0  0
  195.9490  175.5620  136.2000 O   0  0  0  0  0  0  0  0  0  0  0  0
  194.7080  172.8770  135.4010 C   0  0  0  0  0  1  0  0  0  0  0  0
  193.5960  173.2910  137.4290 F   0  0  0  0  0  0  0  0  0  0  0  0
  194.7620  173.5880  136.7440 C   0  0  2  0  0  0  0  0  0  0  0  0
  195.9920  173.1120  137.5530 C   0  0  2  0  0  3  0  0  0  0  0  0
  196.4490  171.6550  137.3720 C   0  0  1  0  0  3  0  0  0  0  0  0
  197.8140  171.5050  137.6380 O   0  0  0  0  0  1  0  0  0  0  0  0
  195.6760  170.7790  138.2360 N   0  0  0  0  0  2  0  0  0  0  0  0
  195.0170  169.8030  137.3830 C   0  0  0  0  0  1  0  0  0  0  0  0
  195.9580  173.5050  138.9290 O   0  0  0  0  0  0  0  0  0  0  0  0
  196.4600  174.7120  139.4290 C   0  0  0  0  0  0  0  0  0  0  0  0
  195.7150  175.4450  140.1280 O   0  0  0  0  0  1  0  0  0  0  0  0
  197.7600  175.1220  139.1610 O   0  0  0  0  0  0  0  0  0  0  0  0
  1 13  1  0  0  0  0
  2 18  1  0  0  0  0
  4  5  1  0  0  0  0
  5  9  1  0  0  0  0
  6  7  1  0  0  0  0
  7  9  1  0  0  0  0
  8 23  1  0  0  0  0
 10 22  1  0  0  0  0
 11  4  1  0  0  0  0
 11  6  2  0  0  0  0
 12 26  1  6  0  0  0
 12 14  1  0  0  0  0
 13 24  1  0  0  0  0
 15 17  2  0  0  0  0
 16  2  1  0  0  0  0
 17  6  1  0  0  0  0
 18 19  1  0  0  0  0
 19  8  1  0  0  0  0
 19  3  1  0  0  0  0
 20 10  1  0  0  0  0
 21 37  1  0  0  0  0
 21 16  2  0  0  0  0
 22 14  1  6  0  0  0
 22  1  1  0  0  0  0
 23 11  1  0  0  0  0
 24 23  2  0  0  0  0
 24 15  1  0  0  0  0
 25 21  1  0  0  0  0
 26 25  1  0  0  0  0
 27 12  1  0  0  0  0
 27 20  1  0  0  0  0
 29 32  2  0  0  0  0
 30 33  1  0  0  0  0
 31 30  2  0  0  0  0
 31 29  1  0  0  0  0
 32 28  1  0  0  0  0
 33 15  1  0  0  0  0
 33 28  2  0  0  0  0
 34 36  1  0  0  0  0
 34 29  1  0  0  0  0
 35 34  2  0  0  0  0
 38 37  1  0  0  0  0
 39 40  1  0  0  0  0
 40 41  1  0  0  0  0
 40 38  1  0  0  0  0
 42 40  1  0  0  0  0
 42 46  1  0  0  0  0
 43 42  2  0  0  0  0
 46 44  1  6  0  0  0
 46 45  1  0  0  0  0
 46 47  1  0  0  0  0
 47 52  1  1  0  0  0
 48 47  1  0  0  0  0
 48 49  1  1  0  0  0
 48 50  1  0  0  0  0
 51 50  1  0  0  0  0
 52 53  1  0  0  0  0
 53 54  1  0  0  0  0
 55 53  2  0  0  0  0
M  END
>  <MODEL>
7

>  <REMARK>
 VINA RESULT:      -5.3      2.994      5.656
  Name = 
  12 active torsions:
  status: ('A' for Active; 'I' for Inactive)
    1  A    between atoms: C_1  and  O_53
    2  A    between atoms: C_6  and  C_14
    3  A    between atoms: C_6  and  C_20
    4  A    between atoms: C_8  and  C_22
    5  A    between atoms: C_8  and  C_43
    6  A    between atoms: C_10  and  C_32
    7  A    between atoms: N_11  and  C_29
    8  A    between atoms: C_14  and  C_38
    9  A    between atoms: C_20  and  C_22
   10  A    between atoms: C_29  and  C_38
   11  A    between atoms: C_33  and  C_52
   12  A    between atoms: C_38  and  O_53
                            x       y       z     vdW  Elec       q    Type
                         _______ _______ _______ _____ _____    ______ ____

>  <TORSDO>
F 12

$$$$
=
 OpenBabel10272401163D

 55 59  0  0  1  0  0  0  0  0999 V2000
  187.3090  179.2150  141.2780 C   0  0  0  0  0  2  0  0  0  0  0  0
  190.4460  175.2360  140.2480 C   0  0  0  0  0  2  0  0  0  0  0  0
  190.2900  175.3910  143.3400 C   0  0  0  0  0  1  0  0  0  0  0  0
  190.2250  177.7320  145.7770 C   0  0  0  0  0  2  0  0  0  0  0  0
  190.3180  177.2890  147.2330 C   0  0  0  0  0  2  0  0  0  0  0  0
  187.7310  177.9260  146.1790 C   0  0  0  0  0  0  0  0  0  0  0  0
  187.9330  177.8390  147.6660 C   0  0  0  0  0  2  0  0  0  0  0  0
  189.6970  177.6290  142.9190 C   0  0  0  0  0  2  0  0  0  0  0  0
  189.3730  178.1320  148.0760 C   0  0  0  0  0  2  0  0  0  0  0  0
  185.5270  179.1680  139.4990 C   0  0  0  0  0  2  0  0  0  0  0  0
  188.8010  177.7810  145.2720 C   0  0  0  0  0  0  0  0  0  0  0  0
  187.4660  178.0270  137.5910 C   0  0  1  0  0  3  0  0  0  0  0  0
  186.9480  177.8850  141.9350 C   0  0  0  0  0  2  0  0  0  0  0  0
  187.7410  178.0420  139.0940 C   0  0  0  0  0  2  0  0  0  0  0  0
  186.1520  178.0730  144.3320 C   0  0  0  0  0  0  0  0  0  0  0  0
  189.7480  175.7630  139.0810 N   0  0  0  0  0  0  0  0  0  0  0  0
  186.4300  178.0510  145.7030 C   0  0  0  0  0  3  0  0  0  0  0  0
  190.7050  176.3470  141.2550 C   0  0  0  0  0  2  0  0  0  0  0  0
  189.7340  176.2910  142.3380 N   0  0  0  0  0  0  0  0  0  0  0  0
  185.2760  179.1850  137.9940 C   0  0  0  0  0  2  0  0  0  0  0  0
  190.3330  176.3870  138.0970 C   0  0  0  0  0  0  0  0  0  0  0  0
  187.0290  179.2090  139.7780 C   0  0  2  0  0  3  0  0  0  0  0  0
  188.5460  177.7860  143.8840 C   0  0  0  0  0  0  0  0  0  0  0  0
  187.2200  177.9310  143.4100 C   0  0  0  0  0  0  0  0  0  0  0  0
  189.5580  176.8860  137.0020 N   0  0  0  0  0  2  0  0  0  0  0  0
  188.1030  176.8020  136.9510 C   0  0  0  0  0  2  0  0  0  0  0  0
  185.9610  177.9920  137.3330 C   0  0  0  0  0  2  0  0  0  0  0  0
  183.7660  178.6050  144.8560 C   0  0  0  0  0  3  0  0  0  0  0  0
  182.0510  178.5790  143.1370 C   0  0  0  0  0  0  0  0  0  0  0  0
  184.3510  178.0450  142.5780 C   0  0  0  0  0  3  0  0  0  0  0  0
  183.0190  178.2160  142.1930 C   0  0  0  0  0  3  0  0  0  0  0  0
  182.4330  178.7760  144.4710 C   0  0  0  0  0  3  0  0  0  0  0  0
  184.7360  178.2250  143.9160 C   0  0  0  0  0  0  0  0  0  0  0  0
  180.6490  178.7540  142.7270 C   0  0  0  0  0  0  0  0  0  0  0  0
  180.0200  179.9830  142.8880 O   0  0  0  0  0  1  0  0  0  0  0  0
  180.0050  177.7930  142.2270 O   0  0  0  0  0  0  0  0  0  0  0  0
  191.8180  176.5860  138.0640 C   0  0  0  0  0  2  0  0  0  0  0  0
  192.4150  176.1440  136.7310 C   0  0  0  0  0  2  0  0  0  0  0  0
  193.0300  174.2930  138.0990 F   0  0  0  0  0  0  0  0  0  0  0  0
  193.1810  174.8240  136.8290 C   0  0  0  0  0  0  0  0  0  0  0  0
  192.6860  173.9160  135.9080 F   0  0  0  0  0  0  0  0  0  0  0  0
  194.6440  175.0780  136.5540 C   0  0  0  0  0  0  0  0  0  0  0  0
  195.0140  176.2200  136.3150 O   0  0  0  0  0  0  0  0  0  0  0  0
  196.0680  173.7030  135.0930 C   0  0  0  0  0  1  0  0  0  0  0  0
  195.1040  172.7870  137.0310 F   0  0  0  0  0  0  0  0  0  0  0  0
  195.6620  173.9540  136.5360 C   0  0  2  0  0  0  0  0  0  0  0  0
  196.8970  174.3520  137.3780 C   0  0  2  0  0  3  0  0  0  0  0  0
  196.6610  174.8140  138.8250 C   0  0  1  0  0  3  0  0  0  0  0  0
  195.8920  173.8940  139.5430 O   0  0  0  0  0  1  0  0  0  0  0  0
  197.9340  175.0260  139.4950 N   0  0  0  0  0  2  0  0  0  0  0  0
  197.6420  175.4150  140.8650 C   0  0  0  0  0  1  0  0  0  0  0  0
  197.8160  175.1990  136.6790 O   0  0  0  0  0  0  0  0  0  0  0  0
  199.0770  174.8030  136.2190 C   0  0  0  0  0  0  0  0  0  0  0  0
  199.6890  173.8810  136.8160 O   0  0  0  0  0  1  0  0  0  0  0  0
  199.6730  175.4150  135.1220 O   0  0  0  0  0  0  0  0  0  0  0  0
  1 13  1  0  0  0  0
  2 18  1  0  0  0  0
  4  5  1  0  0  0  0
  5  9  1  0  0  0  0
  6  7  1  0  0  0  0
  7  9  1  0  0  0  0
  8 23  1  0  0  0  0
 10 22  1  0  0  0  0
 11  4  1  0  0  0  0
 11  6  2  0  0  0  0
 12 26  1  1  0  0  0
 12 14  1  0  0  0  0
 13 24  1  0  0  0  0
 15 17  2  0  0  0  0
 16  2  1  0  0  0  0
 17  6  1  0  0  0  0
 18 19  1  0  0  0  0
 19  8  1  0  0  0  0
 19  3  1  0  0  0  0
 20 10  1  0  0  0  0
 21 16  2  0  0  0  0
 22 14  1  6  0  0  0
 22  1  1  0  0  0  0
 23 11  1  0  0  0  0
 24 23  2  0  0  0  0
 24 15  1  0  0  0  0
 25 21  1  0  0  0  0
 26 25  1  0  0  0  0
 27 12  1  0  0  0  0
 27 20  1  0  0  0  0
 29 32  2  0  0  0  0
 30 33  1  0  0  0  0
 31 30  2  0  0  0  0
 31 29  1  0  0  0  0
 32 28  1  0  0  0  0
 33 15  1  0  0  0  0
 33 28  2  0  0  0  0
 34 35  1  0  0  0  0
 34 29  1  0  0  0  0
 36 34  2  0  0  0  0
 37 21  1  0  0  0  0
 38 40  1  0  0  0  0
 38 37  1  0  0  0  0
 40 39  1  0  0  0  0
 41 40  1  0  0  0  0
 42 40  1  0  0  0  0
 43 42  2  0  0  0  0
 46 44  1  6  0  0  0
 46 42  1  0  0  0  0
 46 45  1  0  0  0  0
 46 47  1  0  0  0  0
 47 52  1  6  0  0  0
 47 48  1  0  0  0  0
 48 50  1  0  0  0  0
 48 49  1  1  0  0  0
 50 51  1  0  0  0  0
 53 52  1  0  0  0  0
 53 54  1  0  0  0  0
 55 53  2  0  0  0  0
M  END
>  <MODEL>
8

>  <REMARK>
 VINA RESULT:      -5.1      3.192      5.948
  Name = 
  12 active torsions:
  status: ('A' for Active; 'I' for Inactive)
    1  A    between atoms: C_1  and  O_53
    2  A    between atoms: C_6  and  C_14
    3  A    between atoms: C_6  and  C_20
    4  A    between atoms: C_8  and  C_22
    5  A    between atoms: C_8  and  C_43
    6  A    between atoms: C_10  and  C_32
    7  A    between atoms: N_11  and  C_29
    8  A    between atoms: C_14  and  C_38
    9  A    between atoms: C_20  and  C_22
   10  A    between atoms: C_29  and  C_38
   11  A    between atoms: C_33  and  C_52
   12  A    between atoms: C_38  and  O_53
                            x       y       z     vdW  Elec       q    Type
                         _______ _______ _______ _____ _____    ______ ____

>  <TORSDO>
F 12

$$$$
=
 OpenBabel10272401163D

 55 59  0  0  1  0  0  0  0  0999 V2000
  187.3280  179.2270  141.2860 C   0  0  0  0  0  2  0  0  0  0  0  0
  190.4650  175.2540  140.2340 C   0  0  0  0  0  2  0  0  0  0  0  0
  190.3160  175.3980  143.3260 C   0  0  0  0  0  1  0  0  0  0  0  0
  190.2560  177.7300  145.7730 C   0  0  0  0  0  2  0  0  0  0  0  0
  190.3520  177.2820  147.2270 C   0  0  0  0  0  2  0  0  0  0  0  0
  187.7620  177.9210  146.1810 C   0  0  0  0  0  0  0  0  0  0  0  0
  187.9680  177.8280  147.6680 C   0  0  0  0  0  2  0  0  0  0  0  0
  189.7200  177.6370  142.9150 C   0  0  0  0  0  2  0  0  0  0  0  0
  189.4090  178.1210  148.0750 C   0  0  0  0  0  2  0  0  0  0  0  0
  185.5420  179.1860  139.5110 C   0  0  0  0  0  2  0  0  0  0  0  0
  188.8310  177.7800  145.2710 C   0  0  0  0  0  0  0  0  0  0  0  0
  187.4760  178.0540  137.5940 C   0  0  1  0  0  3  0  0  0  0  0  0
  186.9680  177.8950  141.9390 C   0  0  0  0  0  2  0  0  0  0  0  0
  187.7550  178.0630  139.0970 C   0  0  0  0  0  2  0  0  0  0  0  0
  186.1790  178.0740  144.3390 C   0  0  0  0  0  0  0  0  0  0  0  0
  189.7640  175.7850  139.0710 N   0  0  0  0  0  0  0  0  0  0  0  0
  186.4600  178.0460  145.7090 C   0  0  0  0  0  3  0  0  0  0  0  0
  190.7250  176.3620  141.2450 C   0  0  0  0  0  2  0  0  0  0  0  0
  189.7560  176.3010  142.3300 N   0  0  0  0  0  0  0  0  0  0  0  0
  185.2860  179.2080  138.0070 C   0  0  0  0  0  2  0  0  0  0  0  0
  190.3460  176.4130  138.0870 C   0  0  0  0  0  0  0  0  0  0  0  0
  187.0440  179.2270  139.7870 C   0  0  2  0  0  3  0  0  0  0  0  0
  188.5720  177.7890  143.8840 C   0  0  0  0  0  0  0  0  0  0  0  0
  187.2440  177.9350  143.4140 C   0  0  0  0  0  0  0  0  0  0  0  0
  189.5680  176.9150  136.9960 N   0  0  0  0  0  2  0  0  0  0  0  0
  188.1130  176.8310  136.9480 C   0  0  0  0  0  2  0  0  0  0  0  0
  185.9710  178.0180  137.3390 C   0  0  0  0  0  2  0  0  0  0  0  0
  183.7960  178.6150  144.8670 C   0  0  0  0  0  3  0  0  0  0  0  0
  182.0740  178.5810  143.1550 C   0  0  0  0  0  0  0  0  0  0  0  0
  184.3710  178.0370  142.5920 C   0  0  0  0  0  3  0  0  0  0  0  0
  183.0380  178.2090  142.2100 C   0  0  0  0  0  3  0  0  0  0  0  0
  182.4620  178.7870  144.4850 C   0  0  0  0  0  3  0  0  0  0  0  0
  184.7620  178.2270  143.9260 C   0  0  0  0  0  0  0  0  0  0  0  0
  180.6710  178.7560  142.7480 C   0  0  0  0  0  0  0  0  0  0  0  0
  180.0910  180.0200  142.7610 O   0  0  0  0  0  1  0  0  0  0  0  0
  179.9830  177.7660  142.3850 O   0  0  0  0  0  0  0  0  0  0  0  0
  191.8310  176.6130  138.0520 C   0  0  0  0  0  2  0  0  0  0  0  0
  192.4720  175.8580  136.8900 C   0  0  0  0  0  2  0  0  0  0  0  0
  194.1040  175.4900  138.5870 F   0  0  0  0  0  0  0  0  0  0  0  0
  193.7940  175.1910  137.2700 C   0  0  0  0  0  0  0  0  0  0  0  0
  193.6880  173.8160  137.1430 F   0  0  0  0  0  0  0  0  0  0  0  0
  194.8870  175.7010  136.3620 C   0  0  0  0  0  0  0  0  0  0  0  0
  195.0060  176.9080  136.1960 O   0  0  0  0  0  0  0  0  0  0  0  0
  196.8320  175.5980  134.8600 C   0  0  0  0  0  1  0  0  0  0  0  0
  195.1180  173.9970  134.7100 F   0  0  0  0  0  0  0  0  0  0  0  0
  195.8210  174.7600  135.6270 C   0  0  2  0  0  0  0  0  0  0  0  0
  196.5450  173.8430  136.6400 C   0  0  2  0  0  3  0  0  0  0  0  0
  197.9750  174.2220  137.0570 C   0  0  1  0  0  3  0  0  0  0  0  0
  198.8010  174.4270  135.9470 O   0  0  0  0  0  1  0  0  0  0  0  0
  197.9520  175.4150  137.8870 N   0  0  0  0  0  2  0  0  0  0  0  0
  198.4100  175.0290  139.2120 C   0  0  0  0  0  1  0  0  0  0  0  0
  196.4160  172.4490  136.3420 O   0  0  0  0  0  0  0  0  0  0  0  0
  196.0520  171.4630  137.2670 C   0  0  0  0  0  0  0  0  0  0  0  0
  196.2530  170.2530  136.9880 O   0  0  0  0  0  0  0  0  0  0  0  0
  195.4630  171.7910  138.4820 O   0  0  0  0  0  1  0  0  0  0  0  0
  1 13  1  0  0  0  0
  2 18  1  0  0  0  0
  4  5  1  0  0  0  0
  5  9  1  0  0  0  0
  6  7  1  0  0  0  0
  7  9  1  0  0  0  0
  8 23  1  0  0  0  0
 10 22  1  0  0  0  0
 11  4  1  0  0  0  0
 11  6  2  0  0  0  0
 12 26  1  1  0  0  0
 12 14  1  0  0  0  0
 13 24  1  0  0  0  0
 15 17  2  0  0  0  0
 16  2  1  0  0  0  0
 17  6  1  0  0  0  0
 18 19  1  0  0  0  0
 19  8  1  0  0  0  0
 19  3  1  0  0  0  0
 20 10  1  0  0  0  0
 21 16  2  0  0  0  0
 22 14  1  6  0  0  0
 22  1  1  0  0  0  0
 23 11  1  0  0  0  0
 24 23  2  0  0  0  0
 24 15  1  0  0  0  0
 25 21  1  0  0  0  0
 26 25  1  0  0  0  0
 27 12  1  0  0  0  0
 27 20  1  0  0  0  0
 29 32  2  0  0  0  0
 30 33  1  0  0  0  0
 31 30  2  0  0  0  0
 31 29  1  0  0  0  0
 32 28  1  0  0  0  0
 33 15  1  0  0  0  0
 33 28  2  0  0  0  0
 34 35  1  0  0  0  0
 34 29  1  0  0  0  0
 36 34  2  0  0  0  0
 37 21  1  0  0  0  0
 38 40  1  0  0  0  0
 38 37  1  0  0  0  0
 40 39  1  0  0  0  0
 41 40  1  0  0  0  0
 42 40  1  0  0  0  0
 43 42  2  0  0  0  0
 45 46  1  0  0  0  0
 46 44  1  6  0  0  0
 46 42  1  0  0  0  0
 46 47  1  0  0  0  0
 47 52  1  6  0  0  0
 47 48  1  0  0  0  0
 48 49  1  6  0  0  0
 48 50  1  0  0  0  0
 50 51  1  0  0  0  0
 52 53  1  0  0  0  0
 53 55  1  0  0  0  0
 54 53  2  0  0  0  0
M  END
>  <MODEL>
9

>  <REMARK>
 VINA RESULT:      -4.5      3.184      5.959
  Name = 
  12 active torsions:
  status: ('A' for Active; 'I' for Inactive)
    1  A    between atoms: C_1  and  O_53
    2  A    between atoms: C_6  and  C_14
    3  A    between atoms: C_6  and  C_20
    4  A    between atoms: C_8  and  C_22
    5  A    between atoms: C_8  and  C_43
    6  A    between atoms: C_10  and  C_32
    7  A    between atoms: N_11  and  C_29
    8  A    between atoms: C_14  and  C_38
    9  A    between atoms: C_20  and  C_22
   10  A    between atoms: C_29  and  C_38
   11  A    between atoms: C_33  and  C_52
   12  A    between atoms: C_38  and  O_53
                            x       y       z     vdW  Elec       q    Type
                         _______ _______ _______ _____ _____    ______ ____

>  <TORSDO>
F 12

$$$$
