=
 OpenBabel10272400393D

 25 28  0  0  1  0  0  0  0  0999 V2000
  187.3940  177.7130  145.2080 N   0  0  0  0  0  0  0  0  0  0  0  0
  188.3570  177.0960  144.4640 C   0  0  0  0  0  0  0  0  0  0  0  0
  188.8150  177.8990  147.1230 C   0  0  0  0  0  3  0  0  0  0  0  0
  186.1290  178.0590  144.9150 C   0  0  0  0  0  0  0  0  0  0  0  0
  183.5380  178.9700  144.8460 C   0  0  0  0  0  3  0  0  0  0  0  0
  189.8290  177.2620  146.3960 C   0  0  0  0  0  3  0  0  0  0  0  0
  185.5570  178.6640  146.0020 C   0  0  0  0  0  0  0  0  0  0  0  0
  184.2800  179.1190  145.9840 N   0  0  0  0  0  0  0  0  0  0  0  0
  190.6690  176.2040  144.2820 C   0  0  0  0  0  0  0  0  0  0  0  0
  191.7420  175.8280  144.8250 O   0  0  0  0  0  0  0  0  0  0  0  0
  188.0780  176.5870  143.0680 C   0  0  0  0  0  2  0  0  0  0  0  0
  184.0910  178.3540  143.7030 C   0  0  0  0  0  3  0  0  0  0  0  0
  187.5940  178.1110  146.4890 C   0  0  0  0  0  0  0  0  0  0  0  0
  186.4680  178.7210  147.0450 C   0  0  0  0  0  3  0  0  0  0  0  0
  190.4620  175.9820  142.8850 N   0  0  0  0  0  2  0  0  0  0  0  0
  185.4160  177.8860  143.7300 C   0  0  0  0  0  3  0  0  0  0  0  0
  189.3310  176.5920  142.1860 C   0  0  2  0  0  3  0  0  0  0  0  0
  189.6100  176.8570  145.0660 C   0  0  0  0  0  0  0  0  0  0  0  0
  189.6730  178.0180  141.7660 C   0  0  0  0  0  2  0  0  0  0  0  0
  189.9110  178.0850  140.3310 N   0  0  0  0  0  2  0  0  0  0  0  0
  188.8690  178.3400  139.3880 C   0  0  0  0  0  0  0  0  0  0  0  0
  187.6880  178.5450  139.7790 O   0  0  0  0  0  0  0  0  0  0  0  0
  189.1920  178.3530  137.9310 C   0  0  2  0  0  3  0  0  0  0  0  0
  188.8790  179.6510  137.3600 N   0  0  0  0  0  1  0  0  0  0  0  0
  188.4100  177.2730  137.2080 C   0  0  0  0  0  1  0  0  0  0  0  0
  1 13  1  0  0  0  0
  2 18  2  0  0  0  0
  2  1  1  0  0  0  0
  4  1  1  0  0  0  0
  4  7  1  0  0  0  0
  5  8  1  0  0  0  0
  6  3  2  0  0  0  0
  7 14  1  0  0  0  0
  8  7  2  0  0  0  0
  9 10  2  0  0  0  0
  9 18  1  0  0  0  0
 11  2  1  0  0  0  0
 12 16  1  0  0  0  0
 12  5  2  0  0  0  0
 13 14  2  0  0  0  0
 13  3  1  0  0  0  0
 15  9  1  0  0  0  0
 16  4  2  0  0  0  0
 17 19  1  1  0  0  0
 17 15  1  0  0  0  0
 17 11  1  0  0  0  0
 18  6  1  0  0  0  0
 20 19  1  0  0  0  0
 21 22  2  0  0  0  0
 21 20  1  0  0  0  0
 23 25  1  6  0  0  0
 23 21  1  0  0  0  0
 24 23  1  0  0  0  0
M  END
>  <MODEL>
1

>  <REMARK>
 VINA RESULT:      -9.6      0.000      0.000
  Name = 
  3 active torsions:
  status: ('A' for Active; 'I' for Inactive)
    1  A    between atoms: C_2  and  C_21
    2  A    between atoms: C_6  and  N_15
    3  A    between atoms: C_6  and  C_23
                            x       y       z     vdW  Elec       q    Type
                         _______ _______ _______ _____ _____    ______ ____

>  <TORSDO>
F 3

$$$$
=
 OpenBabel10272400393D

 25 28  0  0  1  0  0  0  0  0999 V2000
  187.3450  177.9070  145.9840 N   0  0  0  0  0  0  0  0  0  0  0  0
  188.5070  177.3080  145.5910 C   0  0  0  0  0  0  0  0  0  0  0  0
  188.1790  178.3720  148.1770 C   0  0  0  0  0  3  0  0  0  0  0  0
  186.1910  178.1230  145.3300 C   0  0  0  0  0  0  0  0  0  0  0  0
  183.6710  178.8140  144.4800 C   0  0  0  0  0  3  0  0  0  0  0  0
  189.3850  177.7590  147.8160 C   0  0  0  0  0  3  0  0  0  0  0  0
  185.3120  178.7720  146.1570 C   0  0  0  0  0  0  0  0  0  0  0  0
  184.0660  179.1190  145.7520 N   0  0  0  0  0  0  0  0  0  0  0  0
  190.8260  176.5920  146.1250 C   0  0  0  0  0  0  0  0  0  0  0  0
  191.7290  176.3530  146.9700 O   0  0  0  0  0  0  0  0  0  0  0  0
  188.6460  176.6590  144.2330 C   0  0  0  0  0  2  0  0  0  0  0  0
  184.5470  178.1470  143.5960 C   0  0  0  0  0  3  0  0  0  0  0  0
  187.1670  178.4300  147.2220 C   0  0  0  0  0  0  0  0  0  0  0  0
  185.9000  178.9920  147.3920 C   0  0  0  0  0  3  0  0  0  0  0  0
  191.0190  176.2350  144.7540 N   0  0  0  0  0  2  0  0  0  0  0  0
  185.8380  177.7910  144.0230 C   0  0  0  0  0  3  0  0  0  0  0  0
  190.0900  176.6890  143.7190 C   0  0  2  0  0  3  0  0  0  0  0  0
  189.5590  177.2240  146.5260 C   0  0  0  0  0  0  0  0  0  0  0  0
  190.4550  178.0960  143.2590 C   0  0  0  0  0  2  0  0  0  0  0  0
  189.5640  178.5310  142.1920 N   0  0  0  0  0  2  0  0  0  0  0  0
  189.5340  177.9050  140.9090 C   0  0  0  0  0  0  0  0  0  0  0  0
  190.2780  176.9170  140.6610 O   0  0  0  0  0  0  0  0  0  0  0  0
  188.6180  178.4390  139.8580 C   0  0  2  0  0  3  0  0  0  0  0  0
  187.2830  178.6170  140.4000 N   0  0  0  0  0  1  0  0  0  0  0  0
  188.5690  177.4950  138.6720 C   0  0  0  0  0  1  0  0  0  0  0  0
  1 13  1  0  0  0  0
  2  1  1  0  0  0  0
  2 18  2  0  0  0  0
  4  1  1  0  0  0  0
  4  7  1  0  0  0  0
  5  8  1  0  0  0  0
  6  3  2  0  0  0  0
  7 14  1  0  0  0  0
  8  7  2  0  0  0  0
  9 18  1  0  0  0  0
  9 10  2  0  0  0  0
 11  2  1  0  0  0  0
 12 16  1  0  0  0  0
 12  5  2  0  0  0  0
 13 14  2  0  0  0  0
 13  3  1  0  0  0  0
 15  9  1  0  0  0  0
 16  4  2  0  0  0  0
 17 19  1  1  0  0  0
 17 11  1  0  0  0  0
 17 15  1  0  0  0  0
 18  6  1  0  0  0  0
 20 19  1  0  0  0  0
 21 20  1  0  0  0  0
 22 21  2  0  0  0  0
 23 25  1  6  0  0  0
 23 24  1  0  0  0  0
 23 21  1  0  0  0  0
M  END
>  <MODEL>
2

>  <REMARK>
 VINA RESULT:      -9.4      1.442      1.633
  Name = 
  3 active torsions:
  status: ('A' for Active; 'I' for Inactive)
    1  A    between atoms: C_2  and  C_21
    2  A    between atoms: C_6  and  N_15
    3  A    between atoms: C_6  and  C_23
                            x       y       z     vdW  Elec       q    Type
                         _______ _______ _______ _____ _____    ______ ____

>  <TORSDO>
F 3

$$$$
=
 OpenBabel10272400393D

 25 28  0  0  1  0  0  0  0  0999 V2000
  187.5250  177.9530  146.0730 N   0  0  0  0  0  0  0  0  0  0  0  0
  188.7190  177.3390  145.8280 C   0  0  0  0  0  0  0  0  0  0  0  0
  188.1540  178.5690  148.2970 C   0  0  0  0  0  3  0  0  0  0  0  0
  186.4340  178.1150  145.3040 C   0  0  0  0  0  0  0  0  0  0  0  0
  184.0000  178.7240  144.1850 C   0  0  0  0  0  3  0  0  0  0  0  0
  189.3910  177.9440  148.0880 C   0  0  0  0  0  3  0  0  0  0  0  0
  185.4830  178.8090  146.0030 C   0  0  0  0  0  0  0  0  0  0  0  0
  184.2770  179.1170  145.4650 N   0  0  0  0  0  0  0  0  0  0  0  0
  190.9820  176.6810  146.6160 C   0  0  0  0  0  0  0  0  0  0  0  0
  191.8060  176.5070  147.5530 O   0  0  0  0  0  0  0  0  0  0  0  0
  188.9830  176.6030  144.5340 C   0  0  0  0  0  2  0  0  0  0  0  0
  184.9550  178.0080  143.4310 C   0  0  0  0  0  3  0  0  0  0  0  0
  187.2330  178.5550  147.2520 C   0  0  0  0  0  0  0  0  0  0  0  0
  185.9550  179.1160  147.2690 C   0  0  0  0  0  3  0  0  0  0  0  0
  191.3000  176.2360  145.2950 N   0  0  0  0  0  2  0  0  0  0  0  0
  186.2030  177.6940  143.9960 C   0  0  0  0  0  3  0  0  0  0  0  0
  190.4680  176.6120  144.1530 C   0  0  2  0  0  3  0  0  0  0  0  0
  189.6830  177.3270  146.8580 C   0  0  0  0  0  0  0  0  0  0  0  0
  190.8690  177.9880  143.6340 C   0  0  0  0  0  2  0  0  0  0  0  0
  191.4350  177.8840  142.2960 N   0  0  0  0  0  2  0  0  0  0  0  0
  190.6650  177.4840  141.1620 C   0  0  0  0  0  0  0  0  0  0  0  0
  189.4360  177.2250  141.2820 O   0  0  0  0  0  0  0  0  0  0  0  0
  191.3320  177.3650  139.8330 C   0  0  2  0  0  3  0  0  0  0  0  0
  190.9200  176.1390  139.1730 N   0  0  0  0  0  1  0  0  0  0  0  0
  192.8400  177.3770  139.9960 C   0  0  0  0  0  1  0  0  0  0  0  0
  1 13  1  0  0  0  0
  2  1  1  0  0  0  0
  2 18  2  0  0  0  0
  4  7  1  0  0  0  0
  4  1  1  0  0  0  0
  5  8  1  0  0  0  0
  6  3  2  0  0  0  0
  7 14  1  0  0  0  0
  8  7  2  0  0  0  0
  9 18  1  0  0  0  0
  9 10  2  0  0  0  0
 11  2  1  0  0  0  0
 12 16  1  0  0  0  0
 12  5  2  0  0  0  0
 13 14  2  0  0  0  0
 13  3  1  0  0  0  0
 15  9  1  0  0  0  0
 16  4  2  0  0  0  0
 17 19  1  1  0  0  0
 17 11  1  0  0  0  0
 17 15  1  0  0  0  0
 18  6  1  0  0  0  0
 20 19  1  0  0  0  0
 21 22  2  0  0  0  0
 21 20  1  0  0  0  0
 23 25  1  1  0  0  0
 23 21  1  0  0  0  0
 24 23  1  0  0  0  0
M  END
>  <MODEL>
3

>  <REMARK>
 VINA RESULT:      -9.2      1.928      2.249
  Name = 
  3 active torsions:
  status: ('A' for Active; 'I' for Inactive)
    1  A    between atoms: C_2  and  C_21
    2  A    between atoms: C_6  and  N_15
    3  A    between atoms: C_6  and  C_23
                            x       y       z     vdW  Elec       q    Type
                         _______ _______ _______ _____ _____    ______ ____

>  <TORSDO>
F 3

$$$$
=
 OpenBabel10272400393D

 25 28  0  0  1  0  0  0  0  0999 V2000
  185.5730  178.1620  144.3580 N   0  0  0  0  0  0  0  0  0  0  0  0
  186.8230  177.6130  144.3530 C   0  0  0  0  0  0  0  0  0  0  0  0
  185.7130  178.7770  146.6650 C   0  0  0  0  0  3  0  0  0  0  0  0
  184.6500  178.2800  143.3870 C   0  0  0  0  0  0  0  0  0  0  0  0
  182.4590  178.7820  141.8070 C   0  0  0  0  0  3  0  0  0  0  0  0
  186.9970  178.2180  146.7050 C   0  0  0  0  0  3  0  0  0  0  0  0
  183.5430  178.9150  143.8840 C   0  0  0  0  0  0  0  0  0  0  0  0
  182.4540  179.1690  143.1180 N   0  0  0  0  0  0  0  0  0  0  0  0
  188.9150  177.0600  145.5760 C   0  0  0  0  0  0  0  0  0  0  0  0
  189.5430  176.9130  146.6580 O   0  0  0  0  0  0  0  0  0  0  0  0
  187.3780  176.9110  143.1360 C   0  0  0  0  0  2  0  0  0  0  0  0
  183.5820  178.1260  141.2560 C   0  0  0  0  0  3  0  0  0  0  0  0
  185.0200  178.7310  145.4580 C   0  0  0  0  0  0  0  0  0  0  0  0
  183.7370  179.2260  145.2210 C   0  0  0  0  0  3  0  0  0  0  0  0
  189.5120  176.6500  144.3430 N   0  0  0  0  0  2  0  0  0  0  0  0
  184.7070  177.8670  142.0580 C   0  0  0  0  0  3  0  0  0  0  0  0
  188.9060  177.0010  143.0590 C   0  0  2  0  0  3  0  0  0  0  0  0
  187.5600  177.6350  145.5550 C   0  0  0  0  0  0  0  0  0  0  0  0
  189.3300  178.4030  142.6370 C   0  0  0  0  0  2  0  0  0  0  0  0
  188.7670  178.7370  141.3360 N   0  0  0  0  0  2  0  0  0  0  0  0
  189.3250  178.2630  140.1100 C   0  0  0  0  0  0  0  0  0  0  0  0
  190.3320  177.5040  140.1160 O   0  0  0  0  0  0  0  0  0  0  0  0
  188.7090  178.6850  138.8170 C   0  0  2  0  0  3  0  0  0  0  0  0
  187.2830  178.4130  138.8290 N   0  0  0  0  0  1  0  0  0  0  0  0
  189.3620  177.9550  137.6590 C   0  0  0  0  0  1  0  0  0  0  0  0
  1 13  1  0  0  0  0
  2  1  1  0  0  0  0
  2 18  2  0  0  0  0
  3  6  2  0  0  0  0
  4  7  1  0  0  0  0
  4  1  1  0  0  0  0
  5  8  1  0  0  0  0
  7 14  1  0  0  0  0
  8  7  2  0  0  0  0
  9 10  2  0  0  0  0
 11  2  1  0  0  0  0
 12  5  2  0  0  0  0
 12 16  1  0  0  0  0
 13  3  1  0  0  0  0
 14 13  2  0  0  0  0
 15  9  1  0  0  0  0
 16  4  2  0  0  0  0
 17 19  1  1  0  0  0
 17 11  1  0  0  0  0
 17 15  1  0  0  0  0
 18  9  1  0  0  0  0
 18  6  1  0  0  0  0
 20 19  1  0  0  0  0
 21 22  2  0  0  0  0
 21 20  1  0  0  0  0
 23 25  1  6  0  0  0
 23 24  1  0  0  0  0
 23 21  1  0  0  0  0
M  END
>  <MODEL>
4

>  <REMARK>
 VINA RESULT:      -8.8      1.691      2.342
  Name = 
  3 active torsions:
  status: ('A' for Active; 'I' for Inactive)
    1  A    between atoms: C_2  and  C_21
    2  A    between atoms: C_6  and  N_15
    3  A    between atoms: C_6  and  C_23
                            x       y       z     vdW  Elec       q    Type
                         _______ _______ _______ _____ _____    ______ ____

>  <TORSDO>
F 3

$$$$
=
 OpenBabel10272400393D

 25 28  0  0  1  0  0  0  0  0999 V2000
  188.3620  177.6630  144.4260 N   0  0  0  0  0  0  0  0  0  0  0  0
  188.3320  178.0700  143.1240 C   0  0  0  0  0  0  0  0  0  0  0  0
  185.9830  177.7610  144.6460 C   0  0  0  0  0  3  0  0  0  0  0  0
  189.3880  177.3420  145.2340 C   0  0  0  0  0  0  0  0  0  0  0  0
  191.0750  176.5880  147.2670 C   0  0  0  0  0  3  0  0  0  0  0  0
  185.9070  178.1870  143.3130 C   0  0  0  0  0  3  0  0  0  0  0  0
  188.9060  176.9890  146.4660 C   0  0  0  0  0  0  0  0  0  0  0  0
  189.7250  176.6150  147.4800 N   0  0  0  0  0  0  0  0  0  0  0  0
  187.0130  178.7740  141.1390 C   0  0  0  0  0  0  0  0  0  0  0  0
  185.9350  179.1820  140.6310 O   0  0  0  0  0  0  0  0  0  0  0  0
  189.5990  178.3200  142.3400 C   0  0  0  0  0  2  0  0  0  0  0  0
  191.6120  176.9430  146.0100 C   0  0  0  0  0  3  0  0  0  0  0  0
  187.2440  177.5040  145.1760 C   0  0  0  0  0  0  0  0  0  0  0  0
  187.5230  177.0780  146.4770 C   0  0  0  0  0  3  0  0  0  0  0  0
  188.2050  178.7380  140.3490 N   0  0  0  0  0  2  0  0  0  0  0  0
  190.7550  177.3290  144.9650 C   0  0  0  0  0  3  0  0  0  0  0  0
  189.4120  178.0730  140.8390 C   0  0  2  0  0  3  0  0  0  0  0  0
  187.0750  178.3450  142.5450 C   0  0  0  0  0  0  0  0  0  0  0  0
  189.3470  176.5770  140.5560 C   0  0  0  0  0  2  0  0  0  0  0  0
  190.4800  176.1610  139.7410 N   0  0  0  0  0  2  0  0  0  0  0  0
  190.4430  176.1570  138.3140 C   0  0  0  0  0  0  0  0  0  0  0  0
  189.4120  176.5450  137.6990 O   0  0  0  0  0  0  0  0  0  0  0  0
  191.6350  175.6770  137.5550 C   0  0  2  0  0  3  0  0  0  0  0  0
  191.7750  174.2390  137.6970 N   0  0  0  0  0  1  0  0  0  0  0  0
  192.8910  176.3670  138.0550 C   0  0  0  0  0  1  0  0  0  0  0  0
  1 13  1  0  0  0  0
  1  4  1  0  0  0  0
  2  1  1  0  0  0  0
  3 13  1  0  0  0  0
  4  7  1  0  0  0  0
  5  8  1  0  0  0  0
  6  3  2  0  0  0  0
  7 14  1  0  0  0  0
  7  8  2  0  0  0  0
  9 18  1  0  0  0  0
 10  9  2  0  0  0  0
 11  2  1  0  0  0  0
 12  5  2  0  0  0  0
 13 14  2  0  0  0  0
 15 17  1  0  0  0  0
 15  9  1  0  0  0  0
 16  4  2  0  0  0  0
 16 12  1  0  0  0  0
 17 19  1  1  0  0  0
 17 11  1  0  0  0  0
 18  2  2  0  0  0  0
 18  6  1  0  0  0  0
 20 19  1  0  0  0  0
 21 20  1  0  0  0  0
 22 21  2  0  0  0  0
 23 24  1  0  0  0  0
 23 25  1  1  0  0  0
 23 21  1  0  0  0  0
M  END
>  <MODEL>
5

>  <REMARK>
 VINA RESULT:      -8.1      2.478      4.532
  Name = 
  3 active torsions:
  status: ('A' for Active; 'I' for Inactive)
    1  A    between atoms: C_2  and  C_21
    2  A    between atoms: C_6  and  N_15
    3  A    between atoms: C_6  and  C_23
                            x       y       z     vdW  Elec       q    Type
                         _______ _______ _______ _____ _____    ______ ____

>  <TORSDO>
F 3

$$$$
=
 OpenBabel10272400393D

 25 28  0  0  1  0  0  0  0  0999 V2000
  187.2570  177.9890  142.5810 N   0  0  0  0  0  0  0  0  0  0  0  0
  186.6920  177.8390  143.8150 C   0  0  0  0  0  0  0  0  0  0  0  0
  185.5580  179.5040  141.8470 C   0  0  0  0  0  3  0  0  0  0  0  0
  188.3630  177.4510  142.0390 C   0  0  0  0  0  0  0  0  0  0  0  0
  190.4810  176.6640  140.4760 C   0  0  0  0  0  3  0  0  0  0  0  0
  184.9420  179.3740  143.0990 C   0  0  0  0  0  3  0  0  0  0  0  0
  188.5160  177.9150  140.7590 C   0  0  0  0  0  0  0  0  0  0  0  0
  189.5550  177.5360  139.9750 N   0  0  0  0  0  0  0  0  0  0  0  0
  184.8770  178.4090  145.4140 C   0  0  0  0  0  0  0  0  0  0  0  0
  183.7360  178.8890  145.6470 O   0  0  0  0  0  0  0  0  0  0  0  0
  187.2540  176.8770  144.8340 C   0  0  0  0  0  2  0  0  0  0  0  0
  190.3600  176.1650  141.7910 C   0  0  0  0  0  3  0  0  0  0  0  0
  186.7310  178.7880  141.6200 C   0  0  0  0  0  0  0  0  0  0  0  0
  187.4830  178.7840  140.4440 C   0  0  0  0  0  3  0  0  0  0  0  0
  185.5800  177.7070  146.4430 N   0  0  0  0  0  2  0  0  0  0  0  0
  189.2800  176.5630  142.5970 C   0  0  0  0  0  3  0  0  0  0  0  0
  186.9820  177.3290  146.2730 C   0  0  2  0  0  3  0  0  0  0  0  0
  185.5010  178.5440  144.0880 C   0  0  0  0  0  0  0  0  0  0  0  0
  187.8940  178.4940  146.6400 C   0  0  0  0  0  2  0  0  0  0  0  0
  189.2800  178.1780  146.3210 N   0  0  0  0  0  2  0  0  0  0  0  0
  190.0010  177.1310  146.9720 C   0  0  0  0  0  0  0  0  0  0  0  0
  189.4400  176.4150  147.8470 O   0  0  0  0  0  0  0  0  0  0  0  0
  191.4310  176.8990  146.6140 C   0  0  2  0  0  3  0  0  0  0  0  0
  191.5460  176.5510  145.2090 N   0  0  0  0  0  1  0  0  0  0  0  0
  192.0140  175.7880  147.4670 C   0  0  0  0  0  1  0  0  0  0  0  0
  1  2  1  0  0  0  0
  2 18  2  0  0  0  0
  2 11  1  0  0  0  0
  3  6  2  0  0  0  0
  4  1  1  0  0  0  0
  4 16  1  0  0  0  0
  5 12  1  0  0  0  0
  6 18  1  0  0  0  0
  7  4  2  0  0  0  0
  8  5  2  0  0  0  0
  8  7  1  0  0  0  0
  9 10  2  0  0  0  0
  9 15  1  0  0  0  0
 11 17  1  0  0  0  0
 12 16  2  0  0  0  0
 13  3  1  0  0  0  0
 13  1  1  0  0  0  0
 14  7  1  0  0  0  0
 14 13  2  0  0  0  0
 17 15  1  0  0  0  0
 17 19  1  6  0  0  0
 18  9  1  0  0  0  0
 20 19  1  0  0  0  0
 20 21  1  0  0  0  0
 21 22  2  0  0  0  0
 23 21  1  0  0  0  0
 23 25  1  1  0  0  0
 24 23  1  0  0  0  0
M  END
>  <MODEL>
6

>  <REMARK>
 VINA RESULT:      -7.9      2.387      6.615
  Name = 
  3 active torsions:
  status: ('A' for Active; 'I' for Inactive)
    1  A    between atoms: C_2  and  C_21
    2  A    between atoms: C_6  and  N_15
    3  A    between atoms: C_6  and  C_23
                            x       y       z     vdW  Elec       q    Type
                         _______ _______ _______ _____ _____    ______ ____

>  <TORSDO>
F 3

$$$$
=
 OpenBabel10272400393D

 25 28  0  0  1  0  0  0  0  0999 V2000
  187.5350  177.8250  142.7920 N   0  0  0  0  0  0  0  0  0  0  0  0
  186.3270  178.3790  143.1040 C   0  0  0  0  0  0  0  0  0  0  0  0
  187.8280  176.9130  144.9830 C   0  0  0  0  0  3  0  0  0  0  0  0
  188.2460  177.8290  141.6510 C   0  0  0  0  0  0  0  0  0  0  0  0
  190.0690  177.5230  139.6180 C   0  0  0  0  0  3  0  0  0  0  0  0
  186.5950  177.4710  145.3480 C   0  0  0  0  0  3  0  0  0  0  0  0
  189.4070  177.1260  141.8340 C   0  0  0  0  0  0  0  0  0  0  0  0
  190.3170  176.9670  140.8410 N   0  0  0  0  0  0  0  0  0  0  0  0
  184.5340  178.7820  144.7760 C   0  0  0  0  0  0  0  0  0  0  0  0
  184.1340  178.7890  145.9710 O   0  0  0  0  0  0  0  0  0  0  0  0
  185.5690  179.2390  142.1200 C   0  0  0  0  0  2  0  0  0  0  0  0
  188.8830  178.2530  139.3880 C   0  0  0  0  0  3  0  0  0  0  0  0
  188.2720  177.1120  143.6790 C   0  0  0  0  0  0  0  0  0  0  0  0
  189.4680  176.6430  143.1320 C   0  0  0  0  0  3  0  0  0  0  0  0
  183.7210  179.3540  143.7490 N   0  0  0  0  0  2  0  0  0  0  0  0
  187.9450  178.4130  140.4220 C   0  0  0  0  0  3  0  0  0  0  0  0
  184.0530  179.1710  142.3360 C   0  0  2  0  0  3  0  0  0  0  0  0
  185.8380  178.2050  144.4160 C   0  0  0  0  0  0  0  0  0  0  0  0
  183.5090  177.8400  141.8310 C   0  0  0  0  0  2  0  0  0  0  0  0
  183.8200  177.6630  140.4190 N   0  0  0  0  0  2  0  0  0  0  0  0
  182.9740  176.9340  139.5290 C   0  0  0  0  0  0  0  0  0  0  0  0
  181.8950  176.4280  139.9420 O   0  0  0  0  0  0  0  0  0  0  0  0
  183.3870  176.7670  138.1040 C   0  0  2  0  0  3  0  0  0  0  0  0
  183.7320  175.3810  137.8410 N   0  0  0  0  0  1  0  0  0  0  0  0
  184.5730  177.6590  137.7900 C   0  0  0  0  0  1  0  0  0  0  0  0
  1  2  1  0  0  0  0
  1 13  1  0  0  0  0
  2 18  2  0  0  0  0
  3  6  2  0  0  0  0
  4  7  1  0  0  0  0
  4  1  1  0  0  0  0
  5  8  1  0  0  0  0
  7 14  1  0  0  0  0
  8  7  2  0  0  0  0
  9 10  2  0  0  0  0
 11 17  1  0  0  0  0
 11  2  1  0  0  0  0
 12  5  2  0  0  0  0
 12 16  1  0  0  0  0
 13  3  1  0  0  0  0
 14 13  2  0  0  0  0
 15  9  1  0  0  0  0
 16  4  2  0  0  0  0
 17 19  1  1  0  0  0
 17 15  1  0  0  0  0
 18  9  1  0  0  0  0
 18  6  1  0  0  0  0
 20 19  1  0  0  0  0
 21 22  2  0  0  0  0
 21 20  1  0  0  0  0
 23 25  1  1  0  0  0
 23 21  1  0  0  0  0
 24 23  1  0  0  0  0
M  END
>  <MODEL>
7

>  <REMARK>
 VINA RESULT:      -7.9      3.261      5.657
  Name = 
  3 active torsions:
  status: ('A' for Active; 'I' for Inactive)
    1  A    between atoms: C_2  and  C_21
    2  A    between atoms: C_6  and  N_15
    3  A    between atoms: C_6  and  C_23
                            x       y       z     vdW  Elec       q    Type
                         _______ _______ _______ _____ _____    ______ ____

>  <TORSDO>
F 3

$$$$
=
 OpenBabel10272400393D

 25 28  0  0  1  0  0  0  0  0999 V2000
  189.4520  177.6280  143.9510 N   0  0  0  0  0  0  0  0  0  0  0  0
  189.7340  177.3450  142.6460 C   0  0  0  0  0  0  0  0  0  0  0  0
  191.7020  178.2860  144.4260 C   0  0  0  0  0  3  0  0  0  0  0  0
  188.3080  177.5430  144.6520 C   0  0  0  0  0  0  0  0  0  0  0  0
  186.2880  177.5690  146.5140 C   0  0  0  0  0  3  0  0  0  0  0  0
  192.0350  178.0020  143.0950 C   0  0  0  0  0  3  0  0  0  0  0  0
  188.5330  177.9450  145.9420 C   0  0  0  0  0  0  0  0  0  0  0  0
  187.5470  177.9630  146.8720 N   0  0  0  0  0  0  0  0  0  0  0  0
  191.3860  177.2440  140.7930 C   0  0  0  0  0  0  0  0  0  0  0  0
  192.5810  177.2420  140.3920 O   0  0  0  0  0  0  0  0  0  0  0  0
  188.6960  176.7550  141.7190 C   0  0  0  0  0  2  0  0  0  0  0  0
  186.0150  177.1490  145.1940 C   0  0  0  0  0  3  0  0  0  0  0  0
  190.3820  178.0850  144.8250 C   0  0  0  0  0  0  0  0  0  0  0  0
  189.8610  178.3060  146.1010 C   0  0  0  0  0  3  0  0  0  0  0  0
  190.3270  176.9500  139.8790 N   0  0  0  0  0  2  0  0  0  0  0  0
  187.0430  177.1340  144.2360 C   0  0  0  0  0  3  0  0  0  0  0  0
  188.9280  177.1530  140.2570 C   0  0  2  0  0  3  0  0  0  0  0  0
  191.0580  177.5310  142.1980 C   0  0  0  0  0  0  0  0  0  0  0  0
  188.5260  178.6070  140.0380 C   0  0  0  0  0  2  0  0  0  0  0  0
  187.1110  178.7950  140.3270 N   0  0  0  0  0  2  0  0  0  0  0  0
  186.0960  178.6590  139.3320 C   0  0  0  0  0  0  0  0  0  0  0  0
  186.3970  178.3420  138.1490 O   0  0  0  0  0  0  0  0  0  0  0  0
  184.6720  178.9070  139.7040 C   0  0  2  0  0  3  0  0  0  0  0  0
  184.2310  180.1860  139.1760 N   0  0  0  0  0  1  0  0  0  0  0  0
  184.5100  178.8920  141.2120 C   0  0  0  0  0  1  0  0  0  0  0  0
  1  4  1  0  0  0  0
  1 13  1  0  0  0  0
  2  1  1  0  0  0  0
  3 13  1  0  0  0  0
  4  7  1  0  0  0  0
  5  8  1  0  0  0  0
  6  3  2  0  0  0  0
  7 14  1  0  0  0  0
  7  8  2  0  0  0  0
  9 18  1  0  0  0  0
 10  9  2  0  0  0  0
 11  2  1  0  0  0  0
 12  5  2  0  0  0  0
 13 14  2  0  0  0  0
 15 17  1  0  0  0  0
 15  9  1  0  0  0  0
 16  4  2  0  0  0  0
 16 12  1  0  0  0  0
 17 19  1  1  0  0  0
 17 11  1  0  0  0  0
 18  2  2  0  0  0  0
 18  6  1  0  0  0  0
 19 20  1  0  0  0  0
 21 23  1  0  0  0  0
 21 20  1  0  0  0  0
 22 21  2  0  0  0  0
 23 25  1  1  0  0  0
 24 23  1  0  0  0  0
M  END
>  <MODEL>
8

>  <REMARK>
 VINA RESULT:      -7.6      2.306      3.395
  Name = 
  3 active torsions:
  status: ('A' for Active; 'I' for Inactive)
    1  A    between atoms: C_2  and  C_21
    2  A    between atoms: C_6  and  N_15
    3  A    between atoms: C_6  and  C_23
                            x       y       z     vdW  Elec       q    Type
                         _______ _______ _______ _____ _____    ______ ____

>  <TORSDO>
F 3

$$$$
=
 OpenBabel10272400393D

 25 28  0  0  1  0  0  0  0  0999 V2000
  188.2570  177.8240  143.7660 N   0  0  0  0  0  0  0  0  0  0  0  0
  188.1440  178.1860  142.4550 C   0  0  0  0  0  0  0  0  0  0  0  0
  185.8920  177.8720  144.1150 C   0  0  0  0  0  3  0  0  0  0  0  0
  189.3340  177.5570  144.5250 C   0  0  0  0  0  0  0  0  0  0  0  0
  191.1500  176.9130  146.4840 C   0  0  0  0  0  3  0  0  0  0  0  0
  185.7320  178.2510  142.7760 C   0  0  0  0  0  3  0  0  0  0  0  0
  188.9300  177.2340  145.7940 C   0  0  0  0  0  0  0  0  0  0  0  0
  189.8140  176.9150  146.7710 N   0  0  0  0  0  0  0  0  0  0  0  0
  186.7000  178.7900  140.5250 C   0  0  0  0  0  0  0  0  0  0  0  0
  185.5850  179.1540  140.0650 O   0  0  0  0  0  0  0  0  0  0  0  0
  189.3600  178.4390  141.5940 C   0  0  0  0  0  2  0  0  0  0  0  0
  191.6070  177.2380  145.1890 C   0  0  0  0  0  3  0  0  0  0  0  0
  187.1870  177.6640  144.5830 C   0  0  0  0  0  0  0  0  0  0  0  0
  187.5480  177.2900  145.8780 C   0  0  0  0  0  3  0  0  0  0  0  0
  187.8470  178.7550  139.6710 N   0  0  0  0  0  2  0  0  0  0  0  0
  190.6840  177.5670  144.1810 C   0  0  0  0  0  3  0  0  0  0  0  0
  189.0970  178.1370  140.1140 C   0  0  2  0  0  3  0  0  0  0  0  0
  186.8510  178.4100  141.9380 C   0  0  0  0  0  0  0  0  0  0  0  0
  189.0550  176.6310  139.8840 C   0  0  0  0  0  2  0  0  0  0  0  0
  188.9330  176.3340  138.4640 N   0  0  0  0  0  2  0  0  0  0  0  0
  189.9020  175.5640  137.7510 C   0  0  0  0  0  0  0  0  0  0  0  0
  190.9050  175.0850  138.3500 O   0  0  0  0  0  0  0  0  0  0  0  0
  189.7220  175.3390  136.2870 C   0  0  2  0  0  3  0  0  0  0  0  0
  190.0900  176.5340  135.5480 N   0  0  0  0  0  1  0  0  0  0  0  0
  188.2830  174.9710  135.9830 C   0  0  0  0  0  1  0  0  0  0  0  0
  1  4  1  0  0  0  0
  1 13  1  0  0  0  0
  2  1  1  0  0  0  0
  3 13  1  0  0  0  0
  4  7  1  0  0  0  0
  5  8  1  0  0  0  0
  6  3  2  0  0  0  0
  7 14  1  0  0  0  0
  7  8  2  0  0  0  0
  9 18  1  0  0  0  0
 10  9  2  0  0  0  0
 11  2  1  0  0  0  0
 12  5  2  0  0  0  0
 13 14  2  0  0  0  0
 15 17  1  0  0  0  0
 15  9  1  0  0  0  0
 16  4  2  0  0  0  0
 16 12  1  0  0  0  0
 17 19  1  1  0  0  0
 17 11  1  0  0  0  0
 18  2  2  0  0  0  0
 18  6  1  0  0  0  0
 20 19  1  0  0  0  0
 21 22  2  0  0  0  0
 21 20  1  0  0  0  0
 23 25  1  1  0  0  0
 23 21  1  0  0  0  0
 24 23  1  0  0  0  0
M  END
>  <MODEL>
9

>  <REMARK>
 VINA RESULT:      -7.4      2.381      4.594
  Name = 
  3 active torsions:
  status: ('A' for Active; 'I' for Inactive)
    1  A    between atoms: C_2  and  C_21
    2  A    between atoms: C_6  and  N_15
    3  A    between atoms: C_6  and  C_23
                            x       y       z     vdW  Elec       q    Type
                         _______ _______ _______ _____ _____    ______ ____

>  <TORSDO>
F 3

$$$$
