=
 OpenBabel10272400243D

 31 36  0  0  1  0  0  0  0  0999 V2000
  183.9620  178.6070  143.3990 C   0  0  0  0  0  0  0  0  0  0  0  0
  187.6730  178.0480  143.8710 C   0  0  0  0  0  0  0  0  0  0  0  0
  187.9140  177.9400  145.2150 C   0  0  0  0  0  0  0  0  0  0  0  0
  186.7450  178.2040  147.4760 C   0  0  0  0  0  3  0  0  0  0  0  0
  186.3420  178.3780  143.2840 C   0  0  0  0  0  0  0  0  0  0  0  0
  183.8510  178.8690  142.1330 N   0  0  0  0  0  0  0  0  0  0  0  0
  186.8260  178.2910  146.1540 C   0  0  0  0  0  3  0  0  0  0  0  0
  188.5140  177.9640  141.5050 C   0  0  0  0  0  0  0  0  0  0  0  0
  182.5700  178.7640  144.4470 Cl  0  0  0  0  0  0  0  0  0  0  0  0
  190.3420  177.3950  144.6520 C   0  0  0  0  0  3  0  0  0  0  0  0
  187.7380  177.7180  148.4260 C   0  0  0  0  0  3  0  0  0  0  0  0
  187.3820  178.4220  141.0560 N   0  0  0  0  0  0  0  0  0  0  0  0
  188.7520  177.8650  142.9230 N   0  0  0  0  0  0  0  0  0  0  0  0
  189.5230  177.5060  140.5870 N   0  0  0  0  0  2  0  0  0  0  0  0
  185.2330  178.2510  143.9560 N   0  0  0  0  0  0  0  0  0  0  0  0
  188.9840  177.3420  148.1810 C   0  0  0  0  0  3  0  0  0  0  0  0
  186.3100  178.9570  141.8910 C   0  0  1  0  0  3  0  0  0  0  0  0
  184.9690  178.6730  141.2110 C   0  0  0  0  0  2  0  0  0  0  0  0
  190.0760  177.5420  143.3640 C   0  0  0  0  0  3  0  0  0  0  0  0
  189.2920  177.5600  145.6590 C   0  0  0  0  0  0  0  0  0  0  0  0
  189.6970  177.3110  146.9040 C   0  0  0  0  0  3  0  0  0  0  0  0
  190.2440  176.3370  134.3460 N   0  0  0  0  0  2  0  0  0  0  0  0
  189.7280  176.3030  137.0680 C   0  0  0  0  0  0  0  0  0  0  0  0
  189.1240  178.6500  137.0270 C   0  0  0  0  0  3  0  0  0  0  0  0
  189.1550  178.6750  138.4240 C   0  0  0  0  0  3  0  0  0  0  0  0
  189.8490  175.0650  134.9560 C   0  0  0  0  0  2  0  0  0  0  0  0
  189.4760  177.5170  139.1530 C   0  0  0  0  0  0  0  0  0  0  0  0
  190.0190  175.1280  136.3720 O   0  0  0  0  0  0  0  0  0  0  0  0
  189.4230  177.4660  136.3490 C   0  0  0  0  0  0  0  0  0  0  0  0
  189.7620  176.3320  138.4650 C   0  0  0  0  0  3  0  0  0  0  0  0
  189.3630  177.3940  134.8520 C   0  0  0  0  0  2  0  0  0  0  0  0
  1 15  1  0  0  0  0
  1  9  1  0  0  0  0
  2  3  2  0  0  0  0
  3 20  1  0  0  0  0
  3  7  1  0  0  0  0
  4 11  1  0  0  0  0
  5  2  1  0  0  0  0
  5 15  2  0  0  0  0
  6  1  2  0  0  0  0
  7  4  2  0  0  0  0
  8 13  1  0  0  0  0
 10 20  1  0  0  0  0
 12  8  2  0  0  0  0
 12 17  1  0  0  0  0
 13 19  1  0  0  0  0
 13  2  1  0  0  0  0
 14  8  1  0  0  0  0
 16 11  2  0  0  0  0
 17 18  1  6  0  0  0
 17  5  1  0  0  0  0
 18  6  1  0  0  0  0
 19 10  2  0  0  0  0
 20 21  2  0  0  0  0
 21 16  1  0  0  0  0
 22 31  1  0  0  0  0
 22 26  1  0  0  0  0
 23 30  1  0  0  0  0
 24 25  2  0  0  0  0
 25 27  1  0  0  0  0
 26 28  1  0  0  0  0
 27 14  1  0  0  0  0
 28 23  1  0  0  0  0
 29 24  1  0  0  0  0
 29 23  2  0  0  0  0
 30 27  2  0  0  0  0
 31 29  1  0  0  0  0
M  END
>  <MODEL>
1

>  <REMARK>
 VINA RESULT:     -11.4      0.000      0.000
  Name = 
  1 active torsions:
  status: ('A' for Active; 'I' for Inactive)
    1  A    between atoms: C_9  and  N_23
                            x       y       z     vdW  Elec       q    Type
                         _______ _______ _______ _____ _____    ______ ____

>  <TORSDO>
F 1

$$$$
=
 OpenBabel10272400243D

 31 36  0  0  1  0  0  0  0  0999 V2000
  190.5680  176.8680  146.0970 C   0  0  0  0  0  0  0  0  0  0  0  0
  188.0000  177.5610  143.4080 C   0  0  0  0  0  0  0  0  0  0  0  0
  186.8400  177.9490  144.0260 C   0  0  0  0  0  0  0  0  0  0  0  0
  185.7890  178.1440  146.3510 C   0  0  0  0  0  3  0  0  0  0  0  0
  189.2190  177.0990  144.1340 C   0  0  0  0  0  0  0  0  0  0  0  0
  191.5610  176.3480  145.4450 N   0  0  0  0  0  0  0  0  0  0  0  0
  186.7360  177.7860  145.4930 C   0  0  0  0  0  3  0  0  0  0  0  0
  189.3040  177.1640  141.2980 C   0  0  0  0  0  0  0  0  0  0  0  0
  190.6030  176.9130  147.8460 Cl  0  0  0  0  0  0  0  0  0  0  0  0
  185.8570  178.3970  141.7140 C   0  0  0  0  0  3  0  0  0  0  0  0
  184.5280  178.8290  146.0930 C   0  0  0  0  0  3  0  0  0  0  0  0
  190.2710  176.6080  141.9670 N   0  0  0  0  0  0  0  0  0  0  0  0
  188.0870  177.5580  141.9630 N   0  0  0  0  0  0  0  0  0  0  0  0
  189.4580  177.4340  139.8930 N   0  0  0  0  0  2  0  0  0  0  0  0
  189.4140  177.3480  145.3980 N   0  0  0  0  0  0  0  0  0  0  0  0
  184.0070  179.1630  144.9220 C   0  0  0  0  0  3  0  0  0  0  0  0
  190.2060  176.2430  143.3790 C   0  0  1  0  0  3  0  0  0  0  0  0
  191.6070  176.3630  143.9840 C   0  0  0  0  0  2  0  0  0  0  0  0
  186.9830  177.9820  141.1560 C   0  0  0  0  0  3  0  0  0  0  0  0
  185.7100  178.4310  143.1700 C   0  0  0  0  0  0  0  0  0  0  0  0
  184.5480  178.9380  143.5810 C   0  0  0  0  0  3  0  0  0  0  0  0
  193.4280  175.2240  135.4000 N   0  0  0  0  0  2  0  0  0  0  0  0
  191.4140  176.3970  136.8980 C   0  0  0  0  0  0  0  0  0  0  0  0
  192.9780  176.9130  138.6760 C   0  0  0  0  0  3  0  0  0  0  0  0
  191.9070  177.2280  139.5170 C   0  0  0  0  0  3  0  0  0  0  0  0
  192.2800  175.7880  134.6870 C   0  0  0  0  0  2  0  0  0  0  0  0
  190.5830  177.1250  139.0580 C   0  0  0  0  0  0  0  0  0  0  0  0
  191.1860  175.9720  135.5880 O   0  0  0  0  0  0  0  0  0  0  0  0
  192.7300  176.4860  137.3700 C   0  0  0  0  0  0  0  0  0  0  0  0
  190.3450  176.7080  137.7430 C   0  0  0  0  0  3  0  0  0  0  0  0
  193.8570  176.1760  136.4290 C   0  0  0  0  0  2  0  0  0  0  0  0
  1  9  1  0  0  0  0
  2  3  2  0  0  0  0
  2  5  1  0  0  0  0
  3  7  1  0  0  0  0
  5 15  2  0  0  0  0
  6  1  2  0  0  0  0
  7  4  2  0  0  0  0
  8 13  1  0  0  0  0
  8 12  2  0  0  0  0
 10 20  1  0  0  0  0
 11  4  1  0  0  0  0
 12 17  1  0  0  0  0
 13  2  1  0  0  0  0
 14  8  1  0  0  0  0
 15  1  1  0  0  0  0
 16 11  2  0  0  0  0
 17 18  1  1  0  0  0
 17  5  1  0  0  0  0
 18  6  1  0  0  0  0
 19 10  2  0  0  0  0
 19 13  1  0  0  0  0
 20 21  2  0  0  0  0
 20  3  1  0  0  0  0
 21 16  1  0  0  0  0
 22 31  1  0  0  0  0
 23 29  2  0  0  0  0
 23 30  1  0  0  0  0
 24 25  2  0  0  0  0
 26 22  1  0  0  0  0
 26 28  1  0  0  0  0
 27 25  1  0  0  0  0
 27 14  1  0  0  0  0
 28 23  1  0  0  0  0
 29 24  1  0  0  0  0
 30 27  2  0  0  0  0
 31 29  1  0  0  0  0
M  END
>  <MODEL>
2

>  <REMARK>
 VINA RESULT:     -10.6      2.556      4.401
  Name = 
  1 active torsions:
  status: ('A' for Active; 'I' for Inactive)
    1  A    between atoms: C_9  and  N_23
                            x       y       z     vdW  Elec       q    Type
                         _______ _______ _______ _____ _____    ______ ____

>  <TORSDO>
F 1

$$$$
=
 OpenBabel10272400243D

 31 36  0  0  1  0  0  0  0  0999 V2000
  185.4240  178.5300  141.8230 C   0  0  0  0  0  0  0  0  0  0  0  0
  188.8300  177.4920  143.1010 C   0  0  0  0  0  0  0  0  0  0  0  0
  188.7730  177.4620  144.4690 C   0  0  0  0  0  0  0  0  0  0  0  0
  187.2260  178.0740  146.4140 C   0  0  0  0  0  3  0  0  0  0  0  0
  187.7130  177.9580  142.2280 C   0  0  0  0  0  0  0  0  0  0  0  0
  185.6140  178.7010  140.5510 N   0  0  0  0  0  0  0  0  0  0  0  0
  187.5860  178.0390  145.1370 C   0  0  0  0  0  3  0  0  0  0  0  0
  190.1080  177.0950  140.9750 C   0  0  0  0  0  0  0  0  0  0  0  0
  183.8910  178.9700  142.5420 Cl  0  0  0  0  0  0  0  0  0  0  0  0
  191.1500  176.5330  144.4640 C   0  0  0  0  0  3  0  0  0  0  0  0
  187.9190  177.5320  147.5770 C   0  0  0  0  0  3  0  0  0  0  0  0
  189.1760  177.6700  140.2730 N   0  0  0  0  0  0  0  0  0  0  0  0
  190.0360  177.0800  142.4150 N   0  0  0  0  0  0  0  0  0  0  0  0
  191.1980  176.4240  140.3170 N   0  0  0  0  0  2  0  0  0  0  0  0
  186.4850  178.0450  142.6550 N   0  0  0  0  0  0  0  0  0  0  0  0
  189.1140  176.9640  147.6220 C   0  0  0  0  0  3  0  0  0  0  0  0
  188.0540  178.4190  140.8330 C   0  0  1  0  0  3  0  0  0  0  0  0
  186.8510  178.2740  139.8990 C   0  0  0  0  0  2  0  0  0  0  0  0
  191.1760  176.6100  143.1430 C   0  0  0  0  0  3  0  0  0  0  0  0
  189.9560  176.9280  145.2150 C   0  0  0  0  0  0  0  0  0  0  0  0
  190.0570  176.7270  146.5290 C   0  0  0  0  0  3  0  0  0  0  0  0
  193.5110  176.8650  134.3770 N   0  0  0  0  0  2  0  0  0  0  0  0
  193.0280  176.4500  137.0740 C   0  0  0  0  0  0  0  0  0  0  0  0
  190.7030  175.9360  136.6210 C   0  0  0  0  0  3  0  0  0  0  0  0
  190.4260  176.0200  137.9890 C   0  0  0  0  0  3  0  0  0  0  0  0
  194.6330  176.4440  135.2200 C   0  0  0  0  0  2  0  0  0  0  0  0
  191.4450  176.3240  138.9080 C   0  0  0  0  0  0  0  0  0  0  0  0
  194.3220  176.6700  136.5960 O   0  0  0  0  0  0  0  0  0  0  0  0
  192.0020  176.1630  136.1630 C   0  0  0  0  0  0  0  0  0  0  0  0
  192.7470  176.5380  138.4400 C   0  0  0  0  0  3  0  0  0  0  0  0
  192.3420  176.0440  134.7070 C   0  0  0  0  0  2  0  0  0  0  0  0
  1  9  1  0  0  0  0
  1 15  1  0  0  0  0
  2  3  2  0  0  0  0
  3  7  1  0  0  0  0
  3 20  1  0  0  0  0
  4 11  1  0  0  0  0
  5 15  2  0  0  0  0
  5  2  1  0  0  0  0
  6  1  2  0  0  0  0
  7  4  2  0  0  0  0
  8 13  1  0  0  0  0
 10 20  1  0  0  0  0
 11 16  2  0  0  0  0
 12 17  1  0  0  0  0
 12  8  2  0  0  0  0
 13  2  1  0  0  0  0
 13 19  1  0  0  0  0
 14  8  1  0  0  0  0
 17 18  1  6  0  0  0
 17  5  1  0  0  0  0
 18  6  1  0  0  0  0
 19 10  2  0  0  0  0
 20 21  2  0  0  0  0
 21 16  1  0  0  0  0
 22 31  1  0  0  0  0
 22 26  1  0  0  0  0
 23 30  1  0  0  0  0
 24 25  2  0  0  0  0
 25 27  1  0  0  0  0
 26 28  1  0  0  0  0
 27 14  1  0  0  0  0
 28 23  1  0  0  0  0
 29 24  1  0  0  0  0
 29 23  2  0  0  0  0
 30 27  2  0  0  0  0
 31 29  1  0  0  0  0
M  END
>  <MODEL>
3

>  <REMARK>
 VINA RESULT:     -10.5      2.083      2.408
  Name = 
  1 active torsions:
  status: ('A' for Active; 'I' for Inactive)
    1  A    between atoms: C_9  and  N_23
                            x       y       z     vdW  Elec       q    Type
                         _______ _______ _______ _____ _____    ______ ____

>  <TORSDO>
F 1

$$$$
=
 OpenBabel10272400243D

 31 36  0  0  1  0  0  0  0  0999 V2000
  191.1710  176.7290  144.5750 C   0  0  0  0  0  0  0  0  0  0  0  0
  187.7030  177.7230  143.4380 C   0  0  0  0  0  0  0  0  0  0  0  0
  186.9570  177.9900  144.5550 C   0  0  0  0  0  0  0  0  0  0  0  0
  187.0600  177.8320  147.1070 C   0  0  0  0  0  3  0  0  0  0  0  0
  189.0990  177.1960  143.4730 C   0  0  0  0  0  0  0  0  0  0  0  0
  191.7480  176.3300  143.4830 N   0  0  0  0  0  0  0  0  0  0  0  0
  187.5110  177.6220  145.8760 C   0  0  0  0  0  3  0  0  0  0  0  0
  187.9140  177.6580  140.9360 C   0  0  0  0  0  0  0  0  0  0  0  0
  191.9830  176.5310  146.1120 Cl  0  0  0  0  0  0  0  0  0  0  0  0
  185.0650  178.7310  143.0110 C   0  0  0  0  0  3  0  0  0  0  0  0
  185.8440  178.5140  147.5350 C   0  0  0  0  0  3  0  0  0  0  0  0
  189.0550  177.0400  141.0190 N   0  0  0  0  0  0  0  0  0  0  0  0
  187.1370  177.9240  142.1210 N   0  0  0  0  0  0  0  0  0  0  0  0
  187.4370  178.1260  139.6610 N   0  0  0  0  0  2  0  0  0  0  0  0
  189.8460  177.2720  144.5370 N   0  0  0  0  0  0  0  0  0  0  0  0
  184.8700  178.9940  146.7780 C   0  0  0  0  0  3  0  0  0  0  0  0
  189.6120  176.4800  142.2470 C   0  0  1  0  0  3  0  0  0  0  0  0
  191.1390  176.5500  142.1730 C   0  0  0  0  0  2  0  0  0  0  0  0
  185.8070  178.4280  141.9570 C   0  0  0  0  0  3  0  0  0  0  0  0
  185.5830  178.5570  144.3690 C   0  0  0  0  0  0  0  0  0  0  0  0
  184.7470  178.9720  145.3200 C   0  0  0  0  0  3  0  0  0  0  0  0
  190.2180  175.9260  134.3460 N   0  0  0  0  0  2  0  0  0  0  0  0
  188.5850  176.5180  136.5050 C   0  0  0  0  0  0  0  0  0  0  0  0
  189.3250  178.8260  136.4850 C   0  0  0  0  0  3  0  0  0  0  0  0
  188.7260  179.0200  137.7330 C   0  0  0  0  0  3  0  0  0  0  0  0
  189.0170  175.1110  134.5440 C   0  0  0  0  0  2  0  0  0  0  0  0
  188.0580  177.9660  138.3780 C   0  0  0  0  0  0  0  0  0  0  0  0
  188.5320  175.2710  135.8780 O   0  0  0  0  0  0  0  0  0  0  0  0
  189.2640  177.5710  135.8770 C   0  0  0  0  0  0  0  0  0  0  0  0
  187.9920  176.7140  137.7540 C   0  0  0  0  0  3  0  0  0  0  0  0
  189.8630  177.3370  134.5210 C   0  0  0  0  0  2  0  0  0  0  0  0
  1  9  1  0  0  0  0
  2  5  1  0  0  0  0
  2  3  2  0  0  0  0
  3  7  1  0  0  0  0
  4 11  1  0  0  0  0
  5 15  2  0  0  0  0
  6  1  2  0  0  0  0
  7  4  2  0  0  0  0
  8 12  2  0  0  0  0
  8 13  1  0  0  0  0
 10 20  1  0  0  0  0
 12 17  1  0  0  0  0
 13  2  1  0  0  0  0
 14  8  1  0  0  0  0
 15  1  1  0  0  0  0
 16 11  2  0  0  0  0
 17 18  1  6  0  0  0
 17  5  1  0  0  0  0
 18  6  1  0  0  0  0
 19 13  1  0  0  0  0
 19 10  2  0  0  0  0
 20  3  1  0  0  0  0
 20 21  2  0  0  0  0
 21 16  1  0  0  0  0
 22 31  1  0  0  0  0
 22 26  1  0  0  0  0
 23 30  1  0  0  0  0
 24 25  2  0  0  0  0
 25 27  1  0  0  0  0
 26 28  1  0  0  0  0
 27 14  1  0  0  0  0
 28 23  1  0  0  0  0
 29 24  1  0  0  0  0
 29 23  2  0  0  0  0
 30 27  2  0  0  0  0
 31 29  1  0  0  0  0
M  END
>  <MODEL>
4

>  <REMARK>
 VINA RESULT:     -10.0      2.278      3.907
  Name = 
  1 active torsions:
  status: ('A' for Active; 'I' for Inactive)
    1  A    between atoms: C_9  and  N_23
                            x       y       z     vdW  Elec       q    Type
                         _______ _______ _______ _____ _____    ______ ____

>  <TORSDO>
F 1

$$$$
=
 OpenBabel10272400243D

 31 36  0  0  1  0  0  0  0  0999 V2000
  191.4070  177.5030  140.8470 C   0  0  0  0  0  0  0  0  0  0  0  0
  188.8390  177.4300  143.6240 C   0  0  0  0  0  0  0  0  0  0  0  0
  189.4990  177.1830  144.7990 C   0  0  0  0  0  0  0  0  0  0  0  0
  191.8130  176.5520  145.6910 C   0  0  0  0  0  3  0  0  0  0  0  0
  189.4930  177.4300  142.2830 C   0  0  0  0  0  0  0  0  0  0  0  0
  190.6890  177.5650  139.7680 N   0  0  0  0  0  0  0  0  0  0  0  0
  190.9180  176.7700  144.7350 C   0  0  0  0  0  3  0  0  0  0  0  0
  186.7080  177.9580  142.4050 C   0  0  0  0  0  0  0  0  0  0  0  0
  193.1400  177.2910  140.7290 Cl  0  0  0  0  0  0  0  0  0  0  0  0
  187.2810  177.5150  146.0170 C   0  0  0  0  0  3  0  0  0  0  0  0
  191.6570  176.6610  147.1360 C   0  0  0  0  0  3  0  0  0  0  0  0
  187.2870  177.7750  141.2540 N   0  0  0  0  0  0  0  0  0  0  0  0
  187.4140  177.6850  143.6310 N   0  0  0  0  0  0  0  0  0  0  0  0
  185.3680  178.4800  142.4650 N   0  0  0  0  0  2  0  0  0  0  0  0
  190.7830  177.5430  142.1360 N   0  0  0  0  0  0  0  0  0  0  0  0
  190.5510  176.9140  147.8200 C   0  0  0  0  0  3  0  0  0  0  0  0
  188.6190  177.2070  141.0730 C   0  0  1  0  0  3  0  0  0  0  0  0
  189.2510  177.8210  139.8220 C   0  0  0  0  0  2  0  0  0  0  0  0
  186.6750  177.7140  144.8570 C   0  0  0  0  0  3  0  0  0  0  0  0
  188.7220  177.2590  146.0760 C   0  0  0  0  0  0  0  0  0  0  0  0
  189.1980  177.1490  147.3170 C   0  0  0  0  0  3  0  0  0  0  0  0
  180.4980  179.1510  138.3820 N   0  0  0  0  0  2  0  0  0  0  0  0
  182.2480  179.1070  140.5300 C   0  0  0  0  0  0  0  0  0  0  0  0
  184.1350  179.4800  139.0560 C   0  0  0  0  0  3  0  0  0  0  0  0
  185.0060  179.1640  140.1030 C   0  0  0  0  0  3  0  0  0  0  0  0
  179.9820  179.5350  139.6980 C   0  0  0  0  0  2  0  0  0  0  0  0
  184.5060  178.8140  141.3680 C   0  0  0  0  0  0  0  0  0  0  0  0
  180.8650  179.0760  140.7230 O   0  0  0  0  0  0  0  0  0  0  0  0
  182.7550  179.4390  139.2670 C   0  0  0  0  0  0  0  0  0  0  0  0
  183.1210  178.7890  141.5740 C   0  0  0  0  0  3  0  0  0  0  0  0
  181.7930  179.8070  138.1760 C   0  0  0  0  0  2  0  0  0  0  0  0
  1 15  1  0  0  0  0
  2 13  1  0  0  0  0
  2  3  2  0  0  0  0
  3 20  1  0  0  0  0
  4 11  1  0  0  0  0
  5  2  1  0  0  0  0
  6 18  1  0  0  0  0
  6  1  2  0  0  0  0
  7  3  1  0  0  0  0
  7  4  2  0  0  0  0
  8 14  1  0  0  0  0
  8 13  1  0  0  0  0
  9  1  1  0  0  0  0
 10 20  1  0  0  0  0
 11 16  2  0  0  0  0
 12  8  2  0  0  0  0
 13 19  1  0  0  0  0
 15  5  2  0  0  0  0
 17 18  1  6  0  0  0
 17 12  1  0  0  0  0
 17  5  1  0  0  0  0
 19 10  2  0  0  0  0
 20 21  2  0  0  0  0
 21 16  1  0  0  0  0
 22 26  1  0  0  0  0
 23 28  1  0  0  0  0
 23 30  1  0  0  0  0
 24 29  1  0  0  0  0
 24 25  2  0  0  0  0
 25 27  1  0  0  0  0
 26 28  1  0  0  0  0
 27 30  2  0  0  0  0
 27 14  1  0  0  0  0
 29 23  2  0  0  0  0
 31 22  1  0  0  0  0
 31 29  1  0  0  0  0
M  END
>  <MODEL>
5

>  <REMARK>
 VINA RESULT:     -10.0      3.610      6.170
  Name = 
  1 active torsions:
  status: ('A' for Active; 'I' for Inactive)
    1  A    between atoms: C_9  and  N_23
                            x       y       z     vdW  Elec       q    Type
                         _______ _______ _______ _____ _____    ______ ____

>  <TORSDO>
F 1

$$$$
=
 OpenBabel10272400243D

 31 36  0  0  1  0  0  0  0  0999 V2000
  185.1150  178.7940  139.0480 C   0  0  0  0  0  0  0  0  0  0  0  0
  187.8050  177.7680  141.5020 C   0  0  0  0  0  0  0  0  0  0  0  0
  187.2970  177.9110  142.7650 C   0  0  0  0  0  0  0  0  0  0  0  0
  185.2510  178.8310  143.9990 C   0  0  0  0  0  3  0  0  0  0  0  0
  187.0830  178.1730  140.2600 C   0  0  0  0  0  0  0  0  0  0  0  0
  185.7280  178.7960  137.9050 N   0  0  0  0  0  0  0  0  0  0  0  0
  186.0090  178.6210  142.9290 C   0  0  0  0  0  3  0  0  0  0  0  0
  189.6760  177.0520  139.9860 C   0  0  0  0  0  0  0  0  0  0  0  0
  183.4730  179.3880  139.1570 Cl  0  0  0  0  0  0  0  0  0  0  0  0
  189.4540  176.8820  143.6600 C   0  0  0  0  0  3  0  0  0  0  0  0
  185.4720  178.4070  145.3760 C   0  0  0  0  0  3  0  0  0  0  0  0
  189.0810  177.5770  138.9550 N   0  0  0  0  0  0  0  0  0  0  0  0
  189.1310  177.2200  141.3100 N   0  0  0  0  0  0  0  0  0  0  0  0
  190.8610  176.2560  139.8080 N   0  0  0  0  0  2  0  0  0  0  0  0
  185.7950  178.3680  140.2340 N   0  0  0  0  0  0  0  0  0  0  0  0
  186.5320  177.7940  145.8810 C   0  0  0  0  0  3  0  0  0  0  0  0
  187.9050  178.4400  139.0230 C   0  0  1  0  0  3  0  0  0  0  0  0
  187.0700  178.2350  137.7570 C   0  0  0  0  0  2  0  0  0  0  0  0
  189.9220  176.7930  142.4240 C   0  0  0  0  0  3  0  0  0  0  0  0
  188.1170  177.4210  143.9180 C   0  0  0  0  0  0  0  0  0  0  0  0
  187.7600  177.3810  145.2020 C   0  0  0  0  0  3  0  0  0  0  0  0
  193.1480  173.6620  134.4340 N   0  0  0  0  0  2  0  0  0  0  0  0
  191.6430  174.7180  136.5070 C   0  0  0  0  0  0  0  0  0  0  0  0
  193.4020  176.2990  137.0360 C   0  0  0  0  0  3  0  0  0  0  0  0
  192.7550  176.6060  138.2360 C   0  0  0  0  0  3  0  0  0  0  0  0
  191.6890  173.5610  134.3460 C   0  0  0  0  0  2  0  0  0  0  0  0
  191.5510  175.9700  138.5830 C   0  0  0  0  0  0  0  0  0  0  0  0
  191.1060  173.7710  135.6330 O   0  0  0  0  0  0  0  0  0  0  0  0
  192.8520  175.3450  136.1770 C   0  0  0  0  0  0  0  0  0  0  0  0
  191.0000  175.0250  137.7090 C   0  0  0  0  0  3  0  0  0  0  0  0
  193.5000  175.0180  134.8640 C   0  0  0  0  0  2  0  0  0  0  0  0
  1  9  1  0  0  0  0
  1 15  1  0  0  0  0
  2  3  2  0  0  0  0
  3  7  1  0  0  0  0
  3 20  1  0  0  0  0
  4 11  1  0  0  0  0
  5  2  1  0  0  0  0
  6  1  2  0  0  0  0
  7  4  2  0  0  0  0
  8 13  1  0  0  0  0
 10 20  1  0  0  0  0
 11 16  2  0  0  0  0
 12 17  1  0  0  0  0
 12  8  2  0  0  0  0
 13  2  1  0  0  0  0
 13 19  1  0  0  0  0
 14  8  1  0  0  0  0
 15  5  2  0  0  0  0
 17 18  1  6  0  0  0
 17  5  1  0  0  0  0
 18  6  1  0  0  0  0
 19 10  2  0  0  0  0
 20 21  2  0  0  0  0
 21 16  1  0  0  0  0
 22 31  1  0  0  0  0
 23 30  1  0  0  0  0
 24 25  2  0  0  0  0
 25 27  1  0  0  0  0
 26 22  1  0  0  0  0
 26 28  1  0  0  0  0
 27 14  1  0  0  0  0
 28 23  1  0  0  0  0
 29 23  2  0  0  0  0
 29 24  1  0  0  0  0
 30 27  2  0  0  0  0
 31 29  1  0  0  0  0
M  END
>  <MODEL>
6

>  <REMARK>
 VINA RESULT:      -9.4      2.298      3.330
  Name = 
  1 active torsions:
  status: ('A' for Active; 'I' for Inactive)
    1  A    between atoms: C_9  and  N_23
                            x       y       z     vdW  Elec       q    Type
                         _______ _______ _______ _____ _____    ______ ____

>  <TORSDO>
F 1

$$$$
=
 OpenBabel10272400243D

 31 36  0  0  1  0  0  0  0  0999 V2000
  189.5650  177.9590  140.0700 C   0  0  0  0  0  0  0  0  0  0  0  0
  186.6120  178.1300  142.4280 C   0  0  0  0  0  0  0  0  0  0  0  0
  187.0770  177.9140  143.6980 C   0  0  0  0  0  0  0  0  0  0  0  0
  189.1990  177.2300  144.9550 C   0  0  0  0  0  3  0  0  0  0  0  0
  187.4580  178.0370  141.2020 C   0  0  0  0  0  0  0  0  0  0  0  0
  189.0200  177.9980  138.8930 N   0  0  0  0  0  0  0  0  0  0  0  0
  188.4680  177.4380  143.8670 C   0  0  0  0  0  3  0  0  0  0  0  0
  184.7140  178.6870  140.8800 C   0  0  0  0  0  0  0  0  0  0  0  0
  191.2830  177.6680  140.2240 Cl  0  0  0  0  0  0  0  0  0  0  0  0
  184.7220  178.3970  144.5520 C   0  0  0  0  0  3  0  0  0  0  0  0
  188.8350  177.4160  146.3540 C   0  0  0  0  0  3  0  0  0  0  0  0
  185.4480  178.4240  139.8380 N   0  0  0  0  0  0  0  0  0  0  0  0
  185.2160  178.4450  142.2080 N   0  0  0  0  0  0  0  0  0  0  0  0
  183.4080  179.2670  140.7150 N   0  0  0  0  0  2  0  0  0  0  0  0
  188.7590  178.0880  141.2470 N   0  0  0  0  0  0  0  0  0  0  0  0
  187.6530  177.7480  146.8510 C   0  0  0  0  0  3  0  0  0  0  0  0
  186.7640  177.7920  139.8840 C   0  0  1  0  0  3  0  0  0  0  0  0
  187.6040  178.3170  138.7180 C   0  0  0  0  0  2  0  0  0  0  0  0
  184.3050  178.5650  143.3070 C   0  0  0  0  0  3  0  0  0  0  0  0
  186.1230  178.0840  144.8390 C   0  0  0  0  0  0  0  0  0  0  0  0
  186.4030  178.0160  146.1410 C   0  0  0  0  0  3  0  0  0  0  0  0
  179.9820  181.9320  136.0250 N   0  0  0  0  0  2  0  0  0  0  0  0
  181.7680  181.2700  138.0370 C   0  0  0  0  0  0  0  0  0  0  0  0
  181.7250  178.9410  137.3670 C   0  0  0  0  0  3  0  0  0  0  0  0
  182.3840  178.5960  138.5510 C   0  0  0  0  0  3  0  0  0  0  0  0
  180.9020  182.9700  136.4970 C   0  0  0  0  0  2  0  0  0  0  0  0
  182.7360  179.5830  139.4870 C   0  0  0  0  0  0  0  0  0  0  0  0
  181.4450  182.6010  137.7660 O   0  0  0  0  0  0  0  0  0  0  0  0
  181.4070  180.2780  137.1170 C   0  0  0  0  0  0  0  0  0  0  0  0
  182.4240  180.9220  139.2210 C   0  0  0  0  0  3  0  0  0  0  0  0
  180.7330  180.6870  135.8400 C   0  0  0  0  0  2  0  0  0  0  0  0
  1  9  1  0  0  0  0
  1 15  1  0  0  0  0
  2  3  2  0  0  0  0
  3  7  1  0  0  0  0
  3 20  1  0  0  0  0
  4 11  1  0  0  0  0
  5 15  2  0  0  0  0
  5  2  1  0  0  0  0
  6  1  2  0  0  0  0
  7  4  2  0  0  0  0
  8 13  1  0  0  0  0
 10 20  1  0  0  0  0
 11 16  2  0  0  0  0
 12 17  1  0  0  0  0
 12  8  2  0  0  0  0
 13  2  1  0  0  0  0
 13 19  1  0  0  0  0
 14  8  1  0  0  0  0
 17 18  1  6  0  0  0
 17  5  1  0  0  0  0
 18  6  1  0  0  0  0
 19 10  2  0  0  0  0
 20 21  2  0  0  0  0
 21 16  1  0  0  0  0
 22 26  1  0  0  0  0
 23 30  1  0  0  0  0
 24 25  2  0  0  0  0
 25 27  1  0  0  0  0
 26 28  1  0  0  0  0
 27 14  1  0  0  0  0
 28 23  1  0  0  0  0
 29 24  1  0  0  0  0
 29 23  2  0  0  0  0
 30 27  2  0  0  0  0
 31 22  1  0  0  0  0
 31 29  1  0  0  0  0
M  END
>  <MODEL>
7

>  <REMARK>
 VINA RESULT:      -8.7      4.224      6.505
  Name = 
  1 active torsions:
  status: ('A' for Active; 'I' for Inactive)
    1  A    between atoms: C_9  and  N_23
                            x       y       z     vdW  Elec       q    Type
                         _______ _______ _______ _____ _____    ______ ____

>  <TORSDO>
F 1

$$$$
=
 OpenBabel10272400243D

 31 36  0  0  1  0  0  0  0  0999 V2000
  184.6930  179.3980  139.8180 C   0  0  0  0  0  0  0  0  0  0  0  0
  187.9850  177.6830  139.0900 C   0  0  0  0  0  0  0  0  0  0  0  0
  188.1180  177.5910  137.7300 C   0  0  0  0  0  0  0  0  0  0  0  0
  186.8080  177.9870  135.5680 C   0  0  0  0  0  3  0  0  0  0  0  0
  186.7680  178.2050  139.7770 C   0  0  0  0  0  0  0  0  0  0  0  0
  184.5680  179.2870  141.1050 N   0  0  0  0  0  0  0  0  0  0  0  0
  186.9460  177.9090  136.8850 C   0  0  0  0  0  3  0  0  0  0  0  0
  188.9340  177.3340  141.3890 C   0  0  0  0  0  0  0  0  0  0  0  0
  183.3750  180.0470  138.8680 Cl  0  0  0  0  0  0  0  0  0  0  0  0
  190.4560  176.6410  138.1070 C   0  0  0  0  0  3  0  0  0  0  0  0
  187.8070  177.7770  134.5270 C   0  0  0  0  0  3  0  0  0  0  0  0
  187.7920  177.6320  141.9370 N   0  0  0  0  0  0  0  0  0  0  0  0
  189.0540  177.2340  139.9570 N   0  0  0  0  0  0  0  0  0  0  0  0
  190.1020  177.1480  142.2090 N   0  0  0  0  0  2  0  0  0  0  0  0
  185.8780  178.9320  139.1620 N   0  0  0  0  0  0  0  0  0  0  0  0
  189.0580  177.3670  134.6690 C   0  0  0  0  0  3  0  0  0  0  0  0
  186.5360  177.7950  141.2110 C   0  0  1  0  0  3  0  0  0  0  0  0
  185.6740  178.8250  141.9420 C   0  0  0  0  0  2  0  0  0  0  0  0
  190.2740  176.7140  139.4160 C   0  0  0  0  0  3  0  0  0  0  0  0
  189.4150  177.0860  137.1780 C   0  0  0  0  0  0  0  0  0  0  0  0
  189.7730  177.0160  135.8960 C   0  0  0  0  0  3  0  0  0  0  0  0
  189.1780  178.2040  148.4430 N   0  0  0  0  0  2  0  0  0  0  0  0
  189.0620  177.4880  145.7690 C   0  0  0  0  0  0  0  0  0  0  0  0
  191.4580  177.1300  145.7170 C   0  0  0  0  0  3  0  0  0  0  0  0
  191.4100  177.0610  144.3210 C   0  0  0  0  0  3  0  0  0  0  0  0
  187.9250  177.6380  147.9360 C   0  0  0  0  0  2  0  0  0  0  0  0
  190.1900  177.2080  143.6400 C   0  0  0  0  0  0  0  0  0  0  0  0
  187.8990  177.7090  146.5100 O   0  0  0  0  0  0  0  0  0  0  0  0
  190.2850  177.3560  146.4390 C   0  0  0  0  0  0  0  0  0  0  0  0
  189.0170  177.4220  144.3740 C   0  0  0  0  0  3  0  0  0  0  0  0
  190.2950  177.4000  147.9390 C   0  0  0  0  0  2  0  0  0  0  0  0
  1  6  2  0  0  0  0
  2  5  1  0  0  0  0
  2 13  1  0  0  0  0
  3  2  2  0  0  0  0
  4  7  2  0  0  0  0
  5 17  1  0  0  0  0
  6 18  1  0  0  0  0
  7  3  1  0  0  0  0
  8 12  2  0  0  0  0
  8 14  1  0  0  0  0
  9  1  1  0  0  0  0
 10 19  2  0  0  0  0
 11 16  2  0  0  0  0
 11  4  1  0  0  0  0
 13  8  1  0  0  0  0
 14 27  1  0  0  0  0
 15  5  2  0  0  0  0
 15  1  1  0  0  0  0
 16 21  1  0  0  0  0
 17 12  1  0  0  0  0
 17 18  1  1  0  0  0
 19 13  1  0  0  0  0
 20  3  1  0  0  0  0
 20 10  1  0  0  0  0
 21 20  2  0  0  0  0
 23 29  1  0  0  0  0
 23 28  1  0  0  0  0
 24 29  2  0  0  0  0
 25 24  1  0  0  0  0
 26 22  1  0  0  0  0
 27 25  2  0  0  0  0
 27 30  1  0  0  0  0
 28 26  1  0  0  0  0
 29 31  1  0  0  0  0
 30 23  2  0  0  0  0
 31 22  1  0  0  0  0
M  END
>  <MODEL>
8

>  <REMARK>
 VINA RESULT:      -8.7      2.748      8.173
  Name = 
  1 active torsions:
  status: ('A' for Active; 'I' for Inactive)
    1  A    between atoms: C_9  and  N_23
                            x       y       z     vdW  Elec       q    Type
                         _______ _______ _______ _____ _____    ______ ____

>  <TORSDO>
F 1

$$$$
