=
 OpenBabel10272401063D

 27 30  0  0  1  0  0  0  0  0999 V2000
  187.2320  177.9750  142.5140 C   0  0  0  0  0  0  0  0  0  0  0  0
  190.6210  175.8970  144.1320 C   0  0  0  0  0  2  0  0  0  0  0  0
  191.2160  176.7360  145.2260 C   0  0  0  0  0  3  0  0  0  0  0  0
  187.1650  177.1840  143.5440 N   0  0  0  0  0  0  0  0  0  0  0  0
  190.3010  178.9300  143.1820 C   0  0  0  0  0  2  0  0  0  0  0  0
  191.7140  178.6680  143.6990 C   0  0  0  0  0  2  0  0  0  0  0  0
  189.7350  177.6870  142.5040 C   0  0  1  0  0  3  0  0  0  0  0  0
  186.0840  178.7150  142.0730 N   0  0  0  0  0  2  0  0  0  0  0  0
  191.7030  177.9720  145.0320 C   0  0  0  0  0  3  0  0  0  0  0  0
  189.4630  176.6040  143.5120 C   0  0  0  0  0  0  0  0  0  0  0  0
  188.4880  178.0380  141.6880 C   0  0  1  0  0  3  0  0  0  0  0  0
  188.2710  176.4430  144.0030 N   0  0  0  0  0  0  0  0  0  0  0  0
  182.2310  178.9050  143.8320 C   0  0  0  0  0  3  0  0  0  0  0  0
  184.7930  178.7800  142.6930 C   0  0  0  0  0  0  0  0  0  0  0  0
  184.6370  179.0160  144.0690 C   0  0  0  0  0  3  0  0  0  0  0  0
  183.3610  179.0770  144.6350 C   0  0  0  0  0  3  0  0  0  0  0  0
  182.3790  178.6720  142.4610 C   0  0  0  0  0  3  0  0  0  0  0  0
  183.6560  178.6110  141.8960 C   0  0  0  0  0  3  0  0  0  0  0  0
  188.3800  177.1280  140.5560 N   0  0  0  0  0  2  0  0  0  0  0  0
  191.3880  176.8700  139.5460 Cl  0  0  0  0  0  0  0  0  0  0  0  0
  187.8430  178.1530  137.0270 C   0  0  0  0  0  0  0  0  0  0  0  0
  186.7100  178.5420  136.1490 C   0  0  0  0  0  1  0  0  0  0  0  0
  189.9840  177.4200  138.6430 C   0  0  0  0  0  0  0  0  0  0  0  0
  187.6150  177.8110  138.3590 C   0  0  0  0  0  3  0  0  0  0  0  0
  189.1430  178.1260  136.5300 C   0  0  0  0  0  3  0  0  0  0  0  0
  190.1720  177.7590  137.3380 N   0  0  0  0  0  0  0  0  0  0  0  0
  188.6790  177.4560  139.1920 C   0  0  0  0  0  0  0  0  0  0  0  0
  1  4  2  0  0  0  0
  2  3  1  0  0  0  0
  4 12  1  0  0  0  0
  5  6  1  0  0  0  0
  6  9  1  0  0  0  0
  7  5  1  1  0  0  0
  7 10  1  0  0  0  0
  8  1  1  0  0  0  0
  8 14  1  0  0  0  0
  9  3  2  0  0  0  0
 10 12  2  0  0  0  0
 10  2  1  0  0  0  0
 11 19  1  6  0  0  0
 11  7  1  0  0  0  0
 11  1  1  0  0  0  0
 13 16  1  0  0  0  0
 14 15  1  0  0  0  0
 15 16  2  0  0  0  0
 17 13  2  0  0  0  0
 18 17  1  0  0  0  0
 18 14  2  0  0  0  0
 21 24  1  0  0  0  0
 22 21  1  0  0  0  0
 23 27  1  0  0  0  0
 23 20  1  0  0  0  0
 24 27  2  0  0  0  0
 25 21  2  0  0  0  0
 25 26  1  0  0  0  0
 26 23  2  0  0  0  0
 27 19  1  0  0  0  0
M  END
>  <MODEL>
1

>  <REMARK>
 VINA RESULT:      -8.1      0.000      0.000
  Name = 
  3 active torsions:
  status: ('A' for Active; 'I' for Inactive)
    1  A    between atoms: N_3  and  C_19
    2  A    between atoms: N_3  and  C_26
    3  A    between atoms: C_9  and  N_15
                            x       y       z     vdW  Elec       q    Type
                         _______ _______ _______ _____ _____    ______ ____

>  <TORSDO>
F 3

$$$$
=
 OpenBabel10272401063D

 27 30  0  0  1  0  0  0  0  0999 V2000
  187.2020  178.1580  142.3200 C   0  0  0  0  0  0  0  0  0  0  0  0
  190.5060  175.6090  143.3290 C   0  0  0  0  0  2  0  0  0  0  0  0
  191.1050  176.0940  144.6180 C   0  0  0  0  0  3  0  0  0  0  0  0
  187.0970  177.1150  143.0900 N   0  0  0  0  0  0  0  0  0  0  0  0
  190.2840  178.7950  143.2550 C   0  0  0  0  0  2  0  0  0  0  0  0
  191.6810  178.3580  143.6920 C   0  0  0  0  0  2  0  0  0  0  0  0
  189.6970  177.8070  142.2530 C   0  0  1  0  0  3  0  0  0  0  0  0
  186.0820  179.0260  142.0920 N   0  0  0  0  0  2  0  0  0  0  0  0
  191.6280  177.3200  144.7790 C   0  0  0  0  0  3  0  0  0  0  0  0
  189.3790  176.4970  142.9190 C   0  0  0  0  0  0  0  0  0  0  0  0
  188.4740  178.4090  141.5560 C   0  0  1  0  0  3  0  0  0  0  0  0
  188.1740  176.2420  143.3350 N   0  0  0  0  0  0  0  0  0  0  0  0
  182.2770  178.8240  143.9490 C   0  0  0  0  0  3  0  0  0  0  0  0
  184.7840  178.9560  142.6940 C   0  0  0  0  0  0  0  0  0  0  0  0
  183.6240  178.7130  141.9410 C   0  0  0  0  0  3  0  0  0  0  0  0
  182.3750  178.6480  142.5670 C   0  0  0  0  0  3  0  0  0  0  0  0
  183.4290  179.0650  144.7060 C   0  0  0  0  0  3  0  0  0  0  0  0
  184.6760  179.1290  144.0780 C   0  0  0  0  0  3  0  0  0  0  0  0
  188.3610  177.8520  140.2150 N   0  0  0  0  0  2  0  0  0  0  0  0
  187.6640  176.2520  137.5520 Cl  0  0  0  0  0  0  0  0  0  0  0  0
  191.8230  176.9560  139.2160 C   0  0  0  0  0  0  0  0  0  0  0  0
  193.2090  177.1910  139.6970 C   0  0  0  0  0  1  0  0  0  0  0  0
  189.2420  176.5060  138.2840 C   0  0  0  0  0  0  0  0  0  0  0  0
  190.7390  177.5020  139.9000 C   0  0  0  0  0  3  0  0  0  0  0  0
  191.5930  176.1890  138.0770 C   0  0  0  0  0  3  0  0  0  0  0  0
  190.3230  175.9880  137.6380 N   0  0  0  0  0  0  0  0  0  0  0  0
  189.4330  177.2750  139.4580 C   0  0  0  0  0  0  0  0  0  0  0  0
  1  4  2  0  0  0  0
  2  3  1  0  0  0  0
  3  9  2  0  0  0  0
  4 12  1  0  0  0  0
  5  6  1  0  0  0  0
  6  9  1  0  0  0  0
  7 10  1  0  0  0  0
  7  5  1  1  0  0  0
  8  1  1  0  0  0  0
  8 14  1  0  0  0  0
 10  2  1  0  0  0  0
 10 12  2  0  0  0  0
 11 19  1  6  0  0  0
 11  7  1  0  0  0  0
 11  1  1  0  0  0  0
 13 17  1  0  0  0  0
 14 18  1  0  0  0  0
 15 16  1  0  0  0  0
 15 14  2  0  0  0  0
 16 13  2  0  0  0  0
 18 17  2  0  0  0  0
 20 23  1  0  0  0  0
 21 22  1  0  0  0  0
 21 24  1  0  0  0  0
 23 27  1  0  0  0  0
 25 21  2  0  0  0  0
 26 25  1  0  0  0  0
 26 23  2  0  0  0  0
 27 24  2  0  0  0  0
 27 19  1  0  0  0  0
M  END
>  <MODEL>
2

>  <REMARK>
 VINA RESULT:      -8.0      1.473      2.392
  Name = 
  3 active torsions:
  status: ('A' for Active; 'I' for Inactive)
    1  A    between atoms: N_3  and  C_19
    2  A    between atoms: N_3  and  C_26
    3  A    between atoms: C_9  and  N_15
                            x       y       z     vdW  Elec       q    Type
                         _______ _______ _______ _____ _____    ______ ____

>  <TORSDO>
F 3

$$$$
=
 OpenBabel10272401063D

 27 30  0  0  1  0  0  0  0  0999 V2000
  185.2960  178.4300  139.1670 C   0  0  0  0  0  0  0  0  0  0  0  0
  181.2320  178.0530  137.8380 C   0  0  0  0  0  2  0  0  0  0  0  0
  180.9590  179.1300  136.8270 C   0  0  0  0  0  3  0  0  0  0  0  0
  184.9430  177.7480  138.1170 N   0  0  0  0  0  0  0  0  0  0  0  0
  182.8680  180.6140  138.8220 C   0  0  0  0  0  2  0  0  0  0  0  0
  181.4400  180.9960  138.4400 C   0  0  0  0  0  2  0  0  0  0  0  0
  182.9110  179.2090  139.4140 C   0  0  1  0  0  3  0  0  0  0  0  0
  186.6790  178.5960  139.5110 N   0  0  0  0  0  2  0  0  0  0  0  0
  181.0540  180.4420  137.0960 C   0  0  0  0  0  3  0  0  0  0  0  0
  182.6240  178.1760  138.3590 C   0  0  0  0  0  0  0  0  0  0  0  0
  184.2510  178.9580  140.1120 C   0  0  1  0  0  3  0  0  0  0  0  0
  183.5960  177.5640  137.7510 N   0  0  0  0  0  0  0  0  0  0  0  0
  190.1000  177.2670  137.3900 C   0  0  0  0  0  3  0  0  0  0  0  0
  187.8250  178.1570  138.7700 C   0  0  0  0  0  0  0  0  0  0  0  0
  188.0270  178.5160  137.4270 C   0  0  0  0  0  3  0  0  0  0  0  0
  189.1600  178.0710  136.7400 C   0  0  0  0  0  3  0  0  0  0  0  0
  189.9060  176.9070  138.7270 C   0  0  0  0  0  3  0  0  0  0  0  0
  188.7720  177.3530  139.4130 C   0  0  0  0  0  3  0  0  0  0  0  0
  184.0560  178.0180  141.2070 N   0  0  0  0  0  2  0  0  0  0  0  0
  181.5750  179.2150  142.8030 Cl  0  0  0  0  0  0  0  0  0  0  0  0
  185.6550  178.2830  144.5480 C   0  0  0  0  0  0  0  0  0  0  0  0
  186.9610  177.9610  145.1770 C   0  0  0  0  0  1  0  0  0  0  0  0
  183.1950  178.8910  143.4010 C   0  0  0  0  0  0  0  0  0  0  0  0
  185.4360  178.0050  143.2000 C   0  0  0  0  0  3  0  0  0  0  0  0
  184.6370  178.8680  145.2970 C   0  0  0  0  0  3  0  0  0  0  0  0
  183.4420  179.1500  144.7150 N   0  0  0  0  0  0  0  0  0  0  0  0
  184.2130  178.3170  142.6010 C   0  0  0  0  0  0  0  0  0  0  0  0
  1  8  1  0  0  0  0
  1 11  1  0  0  0  0
  2 10  1  0  0  0  0
  3  9  2  0  0  0  0
  3  2  1  0  0  0  0
  4  1  2  0  0  0  0
  6  5  1  0  0  0  0
  7  5  1  6  0  0  0
  7 11  1  0  0  0  0
  9  6  1  0  0  0  0
 10  7  1  0  0  0  0
 11 19  1  1  0  0  0
 12  4  1  0  0  0  0
 12 10  2  0  0  0  0
 13 17  1  0  0  0  0
 14 18  1  0  0  0  0
 14  8  1  0  0  0  0
 15 14  2  0  0  0  0
 16 13  2  0  0  0  0
 16 15  1  0  0  0  0
 17 18  2  0  0  0  0
 19 27  1  0  0  0  0
 20 23  1  0  0  0  0
 21 22  1  0  0  0  0
 21 25  1  0  0  0  0
 23 26  1  0  0  0  0
 24 21  2  0  0  0  0
 26 25  2  0  0  0  0
 27 24  1  0  0  0  0
 27 23  2  0  0  0  0
M  END
>  <MODEL>
3

>  <REMARK>
 VINA RESULT:      -7.9      3.625      8.573
  Name = 
  3 active torsions:
  status: ('A' for Active; 'I' for Inactive)
    1  A    between atoms: N_3  and  C_19
    2  A    between atoms: N_3  and  C_26
    3  A    between atoms: C_9  and  N_15
                            x       y       z     vdW  Elec       q    Type
                         _______ _______ _______ _____ _____    ______ ____

>  <TORSDO>
F 3

$$$$
=
 OpenBabel10272401063D

 27 30  0  0  1  0  0  0  0  0999 V2000
  188.3230  177.5990  141.7050 C   0  0  0  0  0  0  0  0  0  0  0  0
  189.4850  179.0030  137.8190 C   0  0  0  0  0  2  0  0  0  0  0  0
  188.5210  178.4550  136.8070 C   0  0  0  0  0  3  0  0  0  0  0  0
  187.8450  178.6790  141.1580 N   0  0  0  0  0  0  0  0  0  0  0  0
  188.7270  176.0690  138.8290 C   0  0  0  0  0  2  0  0  0  0  0  0
  189.0640  176.0600  137.3400 C   0  0  0  0  0  2  0  0  0  0  0  0
  189.5620  177.1110  139.5660 C   0  0  1  0  0  3  0  0  0  0  0  0
  187.8290  177.1300  142.9680 N   0  0  0  0  0  2  0  0  0  0  0  0
  188.3330  177.1430  136.5940 C   0  0  0  0  0  3  0  0  0  0  0  0
  189.1420  178.5030  139.1820 C   0  0  0  0  0  0  0  0  0  0  0  0
  189.4900  176.8870  141.0790 C   0  0  1  0  0  3  0  0  0  0  0  0
  188.3070  179.1690  139.9210 N   0  0  0  0  0  0  0  0  0  0  0  0
  184.6760  178.7040  145.3250 C   0  0  0  0  0  3  0  0  0  0  0  0
  186.7480  177.6680  143.7410 C   0  0  0  0  0  0  0  0  0  0  0  0
  185.5250  178.0350  143.1590 C   0  0  0  0  0  3  0  0  0  0  0  0
  184.4940  178.5530  143.9480 C   0  0  0  0  0  3  0  0  0  0  0  0
  185.8920  178.3380  145.9120 C   0  0  0  0  0  3  0  0  0  0  0  0
  186.9220  177.8210  145.1210 C   0  0  0  0  0  3  0  0  0  0  0  0
  190.7310  177.3390  141.6930 N   0  0  0  0  0  2  0  0  0  0  0  0
  190.7030  179.7130  143.8150 Cl  0  0  0  0  0  0  0  0  0  0  0  0
  191.8970  175.4190  144.6500 C   0  0  0  0  0  0  0  0  0  0  0  0
  192.2610  174.0190  144.9860 C   0  0  0  0  0  1  0  0  0  0  0  0
  191.2130  178.0480  144.0560 C   0  0  0  0  0  0  0  0  0  0  0  0
  191.4760  175.7470  143.3620 C   0  0  0  0  0  3  0  0  0  0  0  0
  191.9720  176.4180  145.6170 C   0  0  0  0  0  3  0  0  0  0  0  0
  191.6280  177.6940  145.3040 N   0  0  0  0  0  0  0  0  0  0  0  0
  191.1430  177.0650  143.0390 C   0  0  0  0  0  0  0  0  0  0  0  0
  1  8  1  0  0  0  0
  2 10  1  0  0  0  0
  3  2  1  0  0  0  0
  4  1  2  0  0  0  0
  6  5  1  0  0  0  0
  7  5  1  6  0  0  0
  7 11  1  0  0  0  0
  8 14  1  0  0  0  0
  9  3  2  0  0  0  0
  9  6  1  0  0  0  0
 10  7  1  0  0  0  0
 10 12  2  0  0  0  0
 11 19  1  1  0  0  0
 11  1  1  0  0  0  0
 12  4  1  0  0  0  0
 13 17  1  0  0  0  0
 14 18  1  0  0  0  0
 15 14  2  0  0  0  0
 15 16  1  0  0  0  0
 16 13  2  0  0  0  0
 18 17  2  0  0  0  0
 19 27  1  0  0  0  0
 20 23  1  0  0  0  0
 21 22  1  0  0  0  0
 21 25  1  0  0  0  0
 23 26  1  0  0  0  0
 24 21  2  0  0  0  0
 26 25  2  0  0  0  0
 27 24  1  0  0  0  0
 27 23  2  0  0  0  0
M  END
>  <MODEL>
4

>  <REMARK>
 VINA RESULT:      -7.8      1.971      5.899
  Name = 
  3 active torsions:
  status: ('A' for Active; 'I' for Inactive)
    1  A    between atoms: N_3  and  C_19
    2  A    between atoms: N_3  and  C_26
    3  A    between atoms: C_9  and  N_15
                            x       y       z     vdW  Elec       q    Type
                         _______ _______ _______ _____ _____    ______ ____

>  <TORSDO>
F 3

$$$$
=
 OpenBabel10272401063D

 27 30  0  0  1  0  0  0  0  0999 V2000
  189.3800  176.9640  139.6440 C   0  0  0  0  0  0  0  0  0  0  0  0
  187.0860  178.3390  136.2860 C   0  0  0  0  0  2  0  0  0  0  0  0
  185.7490  177.6570  136.3120 C   0  0  0  0  0  3  0  0  0  0  0  0
  188.5540  177.9680  139.6990 N   0  0  0  0  0  0  0  0  0  0  0  0
  187.6300  175.3800  137.3620 C   0  0  0  0  0  2  0  0  0  0  0  0
  186.7330  175.3530  136.1260 C   0  0  0  0  0  2  0  0  0  0  0  0
  188.6300  176.5290  137.2770 C   0  0  1  0  0  3  0  0  0  0  0  0
  190.0520  176.4920  140.8210 N   0  0  0  0  0  2  0  0  0  0  0  0
  185.5920  176.3260  136.2420 C   0  0  0  0  0  3  0  0  0  0  0  0
  187.9330  177.8550  137.4150 C   0  0  0  0  0  0  0  0  0  0  0  0
  189.7410  176.3540  138.3160 C   0  0  1  0  0  3  0  0  0  0  0  0
  187.8800  178.4580  138.5650 N   0  0  0  0  0  0  0  0  0  0  0  0
  189.4580  177.7810  144.8150 C   0  0  0  0  0  3  0  0  0  0  0  0
  189.8750  176.9430  142.1700 C   0  0  0  0  0  0  0  0  0  0  0  0
  190.7040  177.9190  142.7450 C   0  0  0  0  0  3  0  0  0  0  0  0
  190.4960  178.3350  144.0630 C   0  0  0  0  0  3  0  0  0  0  0  0
  188.6270  176.8090  144.2480 C   0  0  0  0  0  3  0  0  0  0  0  0
  188.8360  176.3940  142.9300 C   0  0  0  0  0  3  0  0  0  0  0  0
  190.9700  176.9550  137.8150 N   0  0  0  0  0  2  0  0  0  0  0  0
  193.3150  177.2670  139.9460 Cl  0  0  0  0  0  0  0  0  0  0  0  0
  193.4640  174.7420  136.1830 C   0  0  0  0  0  0  0  0  0  0  0  0
  193.5510  173.8690  134.9840 C   0  0  0  0  0  1  0  0  0  0  0  0
  193.3300  176.3590  138.4410 C   0  0  0  0  0  0  0  0  0  0  0  0
  192.2870  175.4320  136.4670 C   0  0  0  0  0  3  0  0  0  0  0  0
  194.5560  174.8790  137.0350 C   0  0  0  0  0  3  0  0  0  0  0  0
  194.4640  175.6710  138.1350 N   0  0  0  0  0  0  0  0  0  0  0  0
  192.2040  176.2620  137.5870 C   0  0  0  0  0  0  0  0  0  0  0  0
  1  4  2  0  0  0  0
  1  8  1  0  0  0  0
  2  3  1  0  0  0  0
  2 10  1  0  0  0  0
  6  9  1  0  0  0  0
  6  5  1  0  0  0  0
  7  5  1  1  0  0  0
  7 10  1  0  0  0  0
  7 11  1  0  0  0  0
  8 14  1  0  0  0  0
  9  3  2  0  0  0  0
 10 12  2  0  0  0  0
 11 19  1  6  0  0  0
 11  1  1  0  0  0  0
 12  4  1  0  0  0  0
 14 15  2  0  0  0  0
 14 18  1  0  0  0  0
 15 16  1  0  0  0  0
 16 13  2  0  0  0  0
 17 13  1  0  0  0  0
 18 17  2  0  0  0  0
 21 24  2  0  0  0  0
 21 25  1  0  0  0  0
 22 21  1  0  0  0  0
 23 20  1  0  0  0  0
 24 27  1  0  0  0  0
 25 26  2  0  0  0  0
 26 23  1  0  0  0  0
 27 19  1  0  0  0  0
 27 23  2  0  0  0  0
M  END
>  <MODEL>
5

>  <REMARK>
 VINA RESULT:      -7.7      3.211      6.492
  Name = 
  3 active torsions:
  status: ('A' for Active; 'I' for Inactive)
    1  A    between atoms: N_3  and  C_19
    2  A    between atoms: N_3  and  C_26
    3  A    between atoms: C_9  and  N_15
                            x       y       z     vdW  Elec       q    Type
                         _______ _______ _______ _____ _____    ______ ____

>  <TORSDO>
F 3

$$$$
=
 OpenBabel10272401063D

 27 30  0  0  1  0  0  0  0  0999 V2000
  189.9840  176.9670  139.9640 C   0  0  0  0  0  0  0  0  0  0  0  0
  188.1630  178.8530  136.5650 C   0  0  0  0  0  2  0  0  0  0  0  0
  186.7310  178.4070  136.4830 C   0  0  0  0  0  3  0  0  0  0  0  0
  189.3340  178.0930  140.0280 N   0  0  0  0  0  0  0  0  0  0  0  0
  188.1390  175.8020  137.5110 C   0  0  0  0  0  2  0  0  0  0  0  0
  187.3280  175.9790  136.2290 C   0  0  0  0  0  2  0  0  0  0  0  0
  189.3200  176.7670  137.5410 C   0  0  1  0  0  3  0  0  0  0  0  0
  190.4920  176.3390  141.1490 N   0  0  0  0  0  2  0  0  0  0  0  0
  186.3600  177.1260  136.3350 C   0  0  0  0  0  3  0  0  0  0  0  0
  188.8460  178.1850  137.7100 C   0  0  0  0  0  0  0  0  0  0  0  0
  190.3190  176.3630  138.6280 C   0  0  1  0  0  3  0  0  0  0  0  0
  188.8220  178.7380  138.8860 N   0  0  0  0  0  0  0  0  0  0  0  0
  190.0340  177.5920  145.1730 C   0  0  0  0  0  3  0  0  0  0  0  0
  190.3100  176.7550  142.5090 C   0  0  0  0  0  0  0  0  0  0  0  0
  189.1250  176.4950  143.2160 C   0  0  0  0  0  3  0  0  0  0  0  0
  188.9880  176.9130  144.5430 C   0  0  0  0  0  3  0  0  0  0  0  0
  191.2170  177.8520  144.4750 C   0  0  0  0  0  3  0  0  0  0  0  0
  191.3530  177.4330  143.1480 C   0  0  0  0  0  3  0  0  0  0  0  0
  191.6590  176.7680  138.2260 N   0  0  0  0  0  2  0  0  0  0  0  0
  191.5040  176.1630  135.1040 Cl  0  0  0  0  0  0  0  0  0  0  0  0
  194.6540  174.5900  137.9610 C   0  0  0  0  0  0  0  0  0  0  0  0
  195.7320  174.0780  138.8460 C   0  0  0  0  0  1  0  0  0  0  0  0
  192.6560  175.5370  136.2750 C   0  0  0  0  0  0  0  0  0  0  0  0
  193.6710  175.4370  138.4670 C   0  0  0  0  0  3  0  0  0  0  0  0
  194.6160  174.2280  136.6160 C   0  0  0  0  0  3  0  0  0  0  0  0
  193.6320  174.7080  135.8120 N   0  0  0  0  0  0  0  0  0  0  0  0
  192.6490  175.9110  137.6410 C   0  0  0  0  0  0  0  0  0  0  0  0
  1  4  2  0  0  0  0
  1  8  1  0  0  0  0
  2 10  1  0  0  0  0
  3  2  1  0  0  0  0
  6  9  1  0  0  0  0
  6  5  1  0  0  0  0
  7  5  1  1  0  0  0
  7 10  1  0  0  0  0
  7 11  1  0  0  0  0
  8 14  1  0  0  0  0
  9  3  2  0  0  0  0
 10 12  2  0  0  0  0
 11 19  1  6  0  0  0
 11  1  1  0  0  0  0
 12  4  1  0  0  0  0
 14 18  2  0  0  0  0
 14 15  1  0  0  0  0
 15 16  2  0  0  0  0
 16 13  1  0  0  0  0
 17 13  2  0  0  0  0
 18 17  1  0  0  0  0
 20 23  1  0  0  0  0
 21 24  1  0  0  0  0
 21 22  1  0  0  0  0
 23 27  1  0  0  0  0
 25 21  2  0  0  0  0
 26 23  2  0  0  0  0
 26 25  1  0  0  0  0
 27 19  1  0  0  0  0
 27 24  2  0  0  0  0
M  END
>  <MODEL>
6

>  <REMARK>
 VINA RESULT:      -7.6      3.470      6.761
  Name = 
  3 active torsions:
  status: ('A' for Active; 'I' for Inactive)
    1  A    between atoms: N_3  and  C_19
    2  A    between atoms: N_3  and  C_26
    3  A    between atoms: C_9  and  N_15
                            x       y       z     vdW  Elec       q    Type
                         _______ _______ _______ _____ _____    ______ ____

>  <TORSDO>
F 3

$$$$
=
 OpenBabel10272401063D

 27 30  0  0  1  0  0  0  0  0999 V2000
  190.5930  176.7220  140.0990 C   0  0  0  0  0  0  0  0  0  0  0  0
  191.2060  178.8370  143.7830 C   0  0  0  0  0  2  0  0  0  0  0  0
  191.6400  177.8530  144.8310 C   0  0  0  0  0  3  0  0  0  0  0  0
  191.7450  177.1970  140.4720 N   0  0  0  0  0  0  0  0  0  0  0  0
  189.6010  176.1440  143.1740 C   0  0  0  0  0  2  0  0  0  0  0  0
  189.5350  176.4910  144.6600 C   0  0  0  0  0  2  0  0  0  0  0  0
  189.6320  177.4100  142.3250 C   0  0  1  0  0  3  0  0  0  0  0  0
  190.4670  175.9440  138.8990 N   0  0  0  0  0  2  0  0  0  0  0  0
  190.8950  176.8060  145.2200 C   0  0  0  0  0  3  0  0  0  0  0  0
  190.9400  178.1340  142.4940 C   0  0  0  0  0  0  0  0  0  0  0  0
  189.3450  177.0820  140.8570 C   0  0  1  0  0  3  0  0  0  0  0  0
  191.9050  177.9650  141.6410 N   0  0  0  0  0  0  0  0  0  0  0  0
  193.5310  174.5820  136.3050 C   0  0  0  0  0  3  0  0  0  0  0  0
  191.5150  175.5090  138.0230 C   0  0  0  0  0  0  0  0  0  0  0  0
  192.6410  176.3040  137.7550 C   0  0  0  0  0  3  0  0  0  0  0  0
  193.6440  175.8420  136.8970 C   0  0  0  0  0  3  0  0  0  0  0  0
  192.4130  173.7840  136.5690 C   0  0  0  0  0  3  0  0  0  0  0  0
  191.4110  174.2480  137.4270 C   0  0  0  0  0  3  0  0  0  0  0  0
  188.6960  178.2230  140.2260 N   0  0  0  0  0  2  0  0  0  0  0  0
  187.1460  178.1460  137.4460 Cl  0  0  0  0  0  0  0  0  0  0  0  0
  185.2880  178.9590  141.5010 C   0  0  0  0  0  0  0  0  0  0  0  0
  184.6230  179.1930  142.8080 C   0  0  0  0  0  1  0  0  0  0  0  0
  186.5010  178.5160  139.0380 C   0  0  0  0  0  0  0  0  0  0  0  0
  186.6540  178.6900  141.4440 C   0  0  0  0  0  3  0  0  0  0  0  0
  184.5540  179.0050  140.3180 C   0  0  0  0  0  3  0  0  0  0  0  0
  185.1680  178.7800  139.1280 N   0  0  0  0  0  0  0  0  0  0  0  0
  187.2860  178.4810  140.2160 C   0  0  0  0  0  0  0  0  0  0  0  0
  1  4  2  0  0  0  0
  1 11  1  0  0  0  0
  2  3  1  0  0  0  0
  3  9  2  0  0  0  0
  4 12  1  0  0  0  0
  5  6  1  0  0  0  0
  6  9  1  0  0  0  0
  7 10  1  0  0  0  0
  7  5  1  1  0  0  0
  8  1  1  0  0  0  0
 10  2  1  0  0  0  0
 11 19  1  6  0  0  0
 11  7  1  0  0  0  0
 12 10  2  0  0  0  0
 13 17  2  0  0  0  0
 13 16  1  0  0  0  0
 14  8  1  0  0  0  0
 15 14  1  0  0  0  0
 16 15  2  0  0  0  0
 17 18  1  0  0  0  0
 18 14  2  0  0  0  0
 20 23  1  0  0  0  0
 21 22  1  0  0  0  0
 23 26  2  0  0  0  0
 23 27  1  0  0  0  0
 24 21  1  0  0  0  0
 25 21  2  0  0  0  0
 26 25  1  0  0  0  0
 27 19  1  0  0  0  0
 27 24  2  0  0  0  0
M  END
>  <MODEL>
7

>  <REMARK>
 VINA RESULT:      -7.5      2.627      6.580
  Name = 
  3 active torsions:
  status: ('A' for Active; 'I' for Inactive)
    1  A    between atoms: N_3  and  C_19
    2  A    between atoms: N_3  and  C_26
    3  A    between atoms: C_9  and  N_15
                            x       y       z     vdW  Elec       q    Type
                         _______ _______ _______ _____ _____    ______ ____

>  <TORSDO>
F 3

$$$$
=
 OpenBabel10272401063D

 27 30  0  0  1  0  0  0  0  0999 V2000
  190.4480  176.8270  140.1670 C   0  0  0  0  0  0  0  0  0  0  0  0
  190.9490  178.9230  143.8790 C   0  0  0  0  0  2  0  0  0  0  0  0
  191.3550  177.9340  144.9340 C   0  0  0  0  0  3  0  0  0  0  0  0
  191.5870  177.3030  140.5760 N   0  0  0  0  0  0  0  0  0  0  0  0
  189.3680  176.2290  143.2100 C   0  0  0  0  0  2  0  0  0  0  0  0
  189.2600  176.5680  144.6950 C   0  0  0  0  0  2  0  0  0  0  0  0
  189.4220  177.5010  142.3680 C   0  0  1  0  0  3  0  0  0  0  0  0
  190.3580  176.0550  138.9610 N   0  0  0  0  0  2  0  0  0  0  0  0
  190.6020  176.8840  145.2960 C   0  0  0  0  0  3  0  0  0  0  0  0
  190.7220  178.2270  142.5800 C   0  0  0  0  0  0  0  0  0  0  0  0
  189.1770  177.1800  140.8920 C   0  0  1  0  0  3  0  0  0  0  0  0
  191.7120  178.0650  141.7540 N   0  0  0  0  0  0  0  0  0  0  0  0
  193.5010  174.7130  136.4520 C   0  0  0  0  0  3  0  0  0  0  0  0
  191.4320  175.6270  138.1130 C   0  0  0  0  0  0  0  0  0  0  0  0
  192.5320  176.4530  137.8280 C   0  0  0  0  0  3  0  0  0  0  0  0
  193.5610  175.9970  136.9990 C   0  0  0  0  0  3  0  0  0  0  0  0
  192.4100  173.8850  136.7330 C   0  0  0  0  0  3  0  0  0  0  0  0
  191.3810  174.3420  137.5620 C   0  0  0  0  0  3  0  0  0  0  0  0
  188.5450  178.3230  140.2480 N   0  0  0  0  0  2  0  0  0  0  0  0
  185.9520  179.2410  141.8520 Cl  0  0  0  0  0  0  0  0  0  0  0  0
  186.0590  177.8970  137.5230 C   0  0  0  0  0  0  0  0  0  0  0  0
  186.0440  177.5020  136.0910 C   0  0  0  0  0  1  0  0  0  0  0  0
  186.0530  178.6510  140.2000 C   0  0  0  0  0  0  0  0  0  0  0  0
  187.2600  177.9460  138.2270 C   0  0  0  0  0  3  0  0  0  0  0  0
  184.8730  178.2230  138.1760 C   0  0  0  0  0  3  0  0  0  0  0  0
  184.8970  178.5930  139.4830 N   0  0  0  0  0  0  0  0  0  0  0  0
  187.2780  178.3060  139.5770 C   0  0  0  0  0  0  0  0  0  0  0  0
  1  4  2  0  0  0  0
  1 11  1  0  0  0  0
  2  3  1  0  0  0  0
  3  9  2  0  0  0  0
  4 12  1  0  0  0  0
  5  6  1  0  0  0  0
  6  9  1  0  0  0  0
  7 10  1  0  0  0  0
  7  5  1  1  0  0  0
  8  1  1  0  0  0  0
 10  2  1  0  0  0  0
 11 19  1  6  0  0  0
 11  7  1  0  0  0  0
 12 10  2  0  0  0  0
 13 17  2  0  0  0  0
 13 16  1  0  0  0  0
 14  8  1  0  0  0  0
 15 14  1  0  0  0  0
 16 15  2  0  0  0  0
 17 18  1  0  0  0  0
 18 14  2  0  0  0  0
 21 25  2  0  0  0  0
 21 24  1  0  0  0  0
 22 21  1  0  0  0  0
 23 20  1  0  0  0  0
 24 27  2  0  0  0  0
 25 26  1  0  0  0  0
 26 23  2  0  0  0  0
 27 23  1  0  0  0  0
 27 19  1  0  0  0  0
M  END
>  <MODEL>
8

>  <REMARK>
 VINA RESULT:      -7.5      2.867      6.296
  Name = 
  3 active torsions:
  status: ('A' for Active; 'I' for Inactive)
    1  A    between atoms: N_3  and  C_19
    2  A    between atoms: N_3  and  C_26
    3  A    between atoms: C_9  and  N_15
                            x       y       z     vdW  Elec       q    Type
                         _______ _______ _______ _____ _____    ______ ____

>  <TORSDO>
F 3

$$$$
=
 OpenBabel10272401063D

 27 30  0  0  1  0  0  0  0  0999 V2000
  189.2110  177.3220  140.5340 C   0  0  0  0  0  0  0  0  0  0  0  0
  190.8510  179.0640  144.0970 C   0  0  0  0  0  2  0  0  0  0  0  0
  191.6080  178.0020  144.8420 C   0  0  0  0  0  3  0  0  0  0  0  0
  190.4080  177.8260  140.6030 N   0  0  0  0  0  0  0  0  0  0  0  0
  189.2110  176.3560  143.6720 C   0  0  0  0  0  2  0  0  0  0  0  0
  189.5880  176.5380  145.1410 C   0  0  0  0  0  2  0  0  0  0  0  0
  188.9490  177.7060  143.0110 C   0  0  1  0  0  3  0  0  0  0  0  0
  188.7490  176.6700  139.3420 N   0  0  0  0  0  2  0  0  0  0  0  0
  191.0450  176.8750  145.3050 C   0  0  0  0  0  3  0  0  0  0  0  0
  190.2260  178.4880  142.8710 C   0  0  0  0  0  0  0  0  0  0  0  0
  188.2400  177.5200  141.6670 C   0  0  1  0  0  3  0  0  0  0  0  0
  190.8930  178.4730  141.7560 N   0  0  0  0  0  0  0  0  0  0  0  0
  190.9020  175.9180  135.7680 C   0  0  0  0  0  3  0  0  0  0  0  0
  189.4950  176.3990  138.1480 C   0  0  0  0  0  0  0  0  0  0  0  0
  190.4940  175.4140  138.1000 C   0  0  0  0  0  3  0  0  0  0  0  0
  191.1960  175.1760  136.9150 C   0  0  0  0  0  3  0  0  0  0  0  0
  189.9070  176.8990  135.8080 C   0  0  0  0  0  3  0  0  0  0  0  0
  189.2060  177.1360  136.9940 C   0  0  0  0  0  3  0  0  0  0  0  0
  187.4000  178.6790  141.4000 N   0  0  0  0  0  2  0  0  0  0  0  0
  185.6780  178.5020  138.7280 Cl  0  0  0  0  0  0  0  0  0  0  0  0
  184.0240  178.8070  142.9390 C   0  0  0  0  0  0  0  0  0  0  0  0
  183.4300  178.8680  144.2990 C   0  0  0  0  0  1  0  0  0  0  0  0
  185.1040  178.6850  140.3790 C   0  0  0  0  0  0  0  0  0  0  0  0
  185.4070  178.7590  142.7770 C   0  0  0  0  0  3  0  0  0  0  0  0
  183.2060  178.7990  141.8130 C   0  0  0  0  0  3  0  0  0  0  0  0
  183.7570  178.7330  140.5730 N   0  0  0  0  0  0  0  0  0  0  0  0
  185.9700  178.7140  141.4990 C   0  0  0  0  0  0  0  0  0  0  0  0
  1  4  2  0  0  0  0
  1 11  1  0  0  0  0
  2  3  1  0  0  0  0
  3  9  2  0  0  0  0
  4 12  1  0  0  0  0
  5  6  1  0  0  0  0
  6  9  1  0  0  0  0
  7  5  1  6  0  0  0
  8  1  1  0  0  0  0
 10  7  1  0  0  0  0
 10  2  1  0  0  0  0
 11 19  1  6  0  0  0
 11  7  1  0  0  0  0
 12 10  2  0  0  0  0
 13 17  2  0  0  0  0
 13 16  1  0  0  0  0
 14  8  1  0  0  0  0
 15 14  1  0  0  0  0
 16 15  2  0  0  0  0
 17 18  1  0  0  0  0
 18 14  2  0  0  0  0
 19 27  1  0  0  0  0
 20 23  1  0  0  0  0
 21 22  1  0  0  0  0
 23 26  2  0  0  0  0
 23 27  1  0  0  0  0
 24 21  1  0  0  0  0
 25 21  2  0  0  0  0
 26 25  1  0  0  0  0
 27 24  2  0  0  0  0
M  END
>  <MODEL>
9

>  <REMARK>
 VINA RESULT:      -7.2      1.980      6.178
  Name = 
  3 active torsions:
  status: ('A' for Active; 'I' for Inactive)
    1  A    between atoms: N_3  and  C_19
    2  A    between atoms: N_3  and  C_26
    3  A    between atoms: C_9  and  N_15
                            x       y       z     vdW  Elec       q    Type
                         _______ _______ _______ _____ _____    ______ ____

>  <TORSDO>
F 3

$$$$
