=
 OpenBabel10272401443D

 28 31  0  0  1  0  0  0  0  0999 V2000
  189.8470  177.5810  141.7300 C   0  0  2  0  0  3  0  0  0  0  0  0
  190.1980  178.0940  144.1680 C   0  0  2  0  0  3  0  0  0  0  0  0
  191.7290  176.7790  142.6640 C   0  0  0  0  0  2  0  0  0  0  0  0
  191.2710  176.9970  144.1090 C   0  0  0  0  0  2  0  0  0  0  0  0
  190.6320  176.4230  141.8620 O   0  0  0  0  0  0  0  0  0  0  0  0
  189.1510  177.9170  143.0610 C   0  0  2  0  0  3  0  0  0  0  0  0
  192.1710  179.4170  144.4380 O   0  0  0  0  0  1  0  0  0  0  0  0
  190.8260  179.4780  144.0760 C   0  0  0  0  0  2  0  0  0  0  0  0
  188.9010  177.4080  140.7010 O   0  0  0  0  0  0  0  0  0  0  0  0
  189.5280  177.5680  139.4400 C   0  0  2  0  0  3  0  0  0  0  0  0
  189.2100  176.8540  137.1590 N   0  0  0  0  0  0  0  0  0  0  0  0
  189.0280  178.7530  138.6540 C   0  0  0  0  0  2  0  0  0  0  0  0
  190.5250  175.5740  138.6030 O   0  0  0  0  0  1  0  0  0  0  0  0
  189.3810  176.3660  138.5250 C   0  0  1  0  0  3  0  0  0  0  0  0
  187.9090  176.3930  136.7040 C   0  0  0  0  0  1  0  0  0  0  0  0
  189.1550  178.3140  137.2110 C   0  0  0  0  0  2  0  0  0  0  0  0
  188.1370  176.8410  143.4440 C   0  0  0  0  0  2  0  0  0  0  0  0
  185.5040  177.9310  142.9570 C   0  0  0  0  0  3  0  0  0  0  0  0
  185.1450  178.2200  145.4990 C   0  0  0  0  0  0  0  0  0  0  0  0
  187.2630  177.3180  144.5640 C   0  0  1  0  0  3  0  0  0  0  0  0
  183.5230  179.0820  143.8110 C   0  0  0  0  0  0  0  0  0  0  0  0
  186.0370  177.8320  144.3320 C   0  0  0  0  0  0  0  0  0  0  0  0
  187.3040  177.9010  146.9580 C   0  0  0  0  0  3  0  0  0  0  0  0
  183.9120  178.9790  145.0840 C   0  0  0  0  0  3  0  0  0  0  0  0
  186.0880  179.2010  146.7060 S   0  0  0  0  0  0  0  0  0  0  0  0
  182.3860  179.7550  143.5140 F   0  0  0  0  0  0  0  0  0  0  0  0
  184.3280  178.5100  142.7180 C   0  0  0  0  0  3  0  0  0  0  0  0
  187.7920  177.1940  145.9380 C   0  0  0  0  0  3  0  0  0  0  0  0
  1  9  1  6  0  0  0
  1  5  1  0  0  0  0
  1  6  1  0  0  0  0
  2  8  1  6  0  0  0
  3  4  1  0  0  0  0
  4  2  1  0  0  0  0
  5  3  1  0  0  0  0
  6 17  1  1  0  0  0
  6  2  1  0  0  0  0
  8  7  1  0  0  0  0
 10  9  1  1  0  0  0
 11 16  1  0  0  0  0
 11 14  1  0  0  0  0
 12 10  1  0  0  0  0
 14 13  1  6  0  0  0
 14 10  1  0  0  0  0
 15 11  1  0  0  0  0
 16 12  1  0  0  0  0
 18 22  1  0  0  0  0
 19 25  1  0  0  0  0
 20 17  1  1  0  0  0
 20 28  1  0  0  0  0
 21 24  2  0  0  0  0
 22 20  1  0  0  0  0
 22 19  2  0  0  0  0
 24 19  1  0  0  0  0
 25 23  1  0  0  0  0
 26 21  1  0  0  0  0
 27 18  2  0  0  0  0
 27 21  1  0  0  0  0
 28 23  2  0  0  0  0
M  END
>  <MODEL>
1

>  <REMARK>
 VINA RESULT:      -9.1      0.000      0.000
  Name = 
  5 active torsions:
  status: ('A' for Active; 'I' for Inactive)
    1  A    between atoms: C_1  and  O_2
    2  A    between atoms: O_2  and  C_3
    3  A    between atoms: C_10  and  C_17
    4  A    between atoms: C_16  and  C_20
    5  A    between atoms: C_17  and  C_27
                            x       y       z     vdW  Elec       q    Type
                         _______ _______ _______ _____ _____    ______ ____

>  <TORSDO>
F 5

$$$$
=
 OpenBabel10272401443D

 28 31  0  0  1  0  0  0  0  0999 V2000
  190.6830  176.6670  142.0080 C   0  0  2  0  0  3  0  0  0  0  0  0
  190.0170  178.1890  143.8970 C   0  0  2  0  0  3  0  0  0  0  0  0
  191.6740  176.2960  143.9920 C   0  0  0  0  0  2  0  0  0  0  0  0
  190.6860  177.1430  144.8000 C   0  0  0  0  0  2  0  0  0  0  0  0
  191.0050  175.6600  142.9340 O   0  0  0  0  0  0  0  0  0  0  0  0
  189.5730  177.5770  142.5620 C   0  0  2  0  0  3  0  0  0  0  0  0
  192.0630  179.2820  144.4780 O   0  0  0  0  0  1  0  0  0  0  0  0
  190.9460  179.3690  143.6470 C   0  0  0  0  0  2  0  0  0  0  0  0
  190.2930  176.0900  140.7840 O   0  0  0  0  0  0  0  0  0  0  0  0
  190.5630  176.9860  139.7210 C   0  0  2  0  0  3  0  0  0  0  0  0
  190.9880  176.9050  137.3480 N   0  0  0  0  0  0  0  0  0  0  0  0
  189.3290  177.4900  139.0170 C   0  0  0  0  0  2  0  0  0  0  0  0
  192.7730  176.8080  138.8500 O   0  0  0  0  0  1  0  0  0  0  0  0
  191.4550  176.4060  138.6390 C   0  0  1  0  0  3  0  0  0  0  0  0
  190.5870  175.7480  136.5660 C   0  0  0  0  0  1  0  0  0  0  0  0
  189.7830  177.7000  137.5880 C   0  0  0  0  0  2  0  0  0  0  0  0
  188.2610  176.8140  142.7270 C   0  0  0  0  0  2  0  0  0  0  0  0
  186.9150  177.2930  145.2400 C   0  0  0  0  0  3  0  0  0  0  0  0
  185.3790  179.0260  144.0960 C   0  0  0  0  0  0  0  0  0  0  0  0
  187.1090  177.7680  142.8340 C   0  0  1  0  0  3  0  0  0  0  0  0
  185.0450  178.2930  146.4570 C   0  0  0  0  0  0  0  0  0  0  0  0
  186.4800  177.9840  144.0080 C   0  0  0  0  0  0  0  0  0  0  0  0
  185.4940  179.0370  141.4730 C   0  0  0  0  0  3  0  0  0  0  0  0
  184.6270  178.9940  145.4010 C   0  0  0  0  0  3  0  0  0  0  0  0
  184.2120  178.8200  142.7150 S   0  0  0  0  0  0  0  0  0  0  0  0
  184.3340  178.3360  147.6090 F   0  0  0  0  0  0  0  0  0  0  0  0
  186.2460  177.4440  146.3820 C   0  0  0  0  0  3  0  0  0  0  0  0
  186.6960  178.4740  141.6040 C   0  0  0  0  0  3  0  0  0  0  0  0
  1  9  1  6  0  0  0
  1  6  1  0  0  0  0
  1  5  1  0  0  0  0
  2  8  1  6  0  0  0
  2  4  1  0  0  0  0
  3  4  1  0  0  0  0
  5  3  1  0  0  0  0
  6 17  1  1  0  0  0
  6  2  1  0  0  0  0
  8  7  1  0  0  0  0
 10  9  1  1  0  0  0
 11 16  1  0  0  0  0
 11 14  1  0  0  0  0
 12 10  1  0  0  0  0
 14 13  1  1  0  0  0
 14 10  1  0  0  0  0
 15 11  1  0  0  0  0
 16 12  1  0  0  0  0
 18 27  1  0  0  0  0
 19 24  2  0  0  0  0
 20 17  1  1  0  0  0
 20 22  1  0  0  0  0
 21 26  1  0  0  0  0
 22 19  1  0  0  0  0
 22 18  2  0  0  0  0
 23 28  2  0  0  0  0
 23 25  1  0  0  0  0
 24 21  1  0  0  0  0
 25 19  1  0  0  0  0
 27 21  2  0  0  0  0
 28 20  1  0  0  0  0
M  END
>  <MODEL>
2

>  <REMARK>
 VINA RESULT:      -9.0      1.767      2.525
  Name = 
  5 active torsions:
  status: ('A' for Active; 'I' for Inactive)
    1  A    between atoms: C_1  and  O_2
    2  A    between atoms: O_2  and  C_3
    3  A    between atoms: C_10  and  C_17
    4  A    between atoms: C_16  and  C_20
    5  A    between atoms: C_17  and  C_27
                            x       y       z     vdW  Elec       q    Type
                         _______ _______ _______ _____ _____    ______ ____

>  <TORSDO>
F 5

$$$$
=
 OpenBabel10272401443D

 28 31  0  0  1  0  0  0  0  0999 V2000
  189.8870  177.3720  141.5390 C   0  0  2  0  0  3  0  0  0  0  0  0
  190.3110  177.9760  143.9440 C   0  0  2  0  0  3  0  0  0  0  0  0
  191.6540  176.3890  142.5240 C   0  0  0  0  0  2  0  0  0  0  0  0
  191.2320  176.7480  143.9520 C   0  0  0  0  0  2  0  0  0  0  0  0
  190.5170  176.1320  141.7400 O   0  0  0  0  0  0  0  0  0  0  0  0
  189.2460  177.8720  142.8450 C   0  0  2  0  0  3  0  0  0  0  0  0
  192.2930  179.1860  144.5130 O   0  0  0  0  0  1  0  0  0  0  0  0
  191.1130  179.2590  143.7740 C   0  0  0  0  0  2  0  0  0  0  0  0
  188.9240  177.2640  140.5170 O   0  0  0  0  0  0  0  0  0  0  0  0
  189.5390  177.4430  139.2540 C   0  0  2  0  0  3  0  0  0  0  0  0
  189.2010  176.7650  136.9640 N   0  0  0  0  0  0  0  0  0  0  0  0
  189.0340  178.6410  138.4910 C   0  0  0  0  0  2  0  0  0  0  0  0
  190.5270  175.4610  138.3760 O   0  0  0  0  0  1  0  0  0  0  0  0
  189.3830  176.2560  138.3200 C   0  0  1  0  0  3  0  0  0  0  0  0
  187.8960  176.3140  136.5130 C   0  0  0  0  0  1  0  0  0  0  0  0
  189.1480  178.2250  137.0400 C   0  0  0  0  0  2  0  0  0  0  0  0
  188.1020  176.9600  143.2850 C   0  0  0  0  0  2  0  0  0  0  0  0
  188.5040  177.3400  146.1230 C   0  0  0  0  0  3  0  0  0  0  0  0
  186.3390  178.7430  146.2490 C   0  0  0  0  0  0  0  0  0  0  0  0
  187.1200  177.7190  144.1240 C   0  0  1  0  0  3  0  0  0  0  0  0
  187.6290  178.0850  148.2810 C   0  0  0  0  0  0  0  0  0  0  0  0
  187.3080  177.8900  145.4500 C   0  0  0  0  0  0  0  0  0  0  0  0
  184.8340  178.6420  144.1000 C   0  0  0  0  0  3  0  0  0  0  0  0
  186.5510  178.6550  147.7380 C   0  0  0  0  0  3  0  0  0  0  0  0
  184.6250  178.2820  145.8490 S   0  0  0  0  0  0  0  0  0  0  0  0
  187.7680  178.0690  149.6280 F   0  0  0  0  0  0  0  0  0  0  0  0
  188.6530  177.4380  147.4430 C   0  0  0  0  0  3  0  0  0  0  0  0
  185.9390  178.2870  143.4420 C   0  0  0  0  0  3  0  0  0  0  0  0
  1  9  1  6  0  0  0
  1  5  1  0  0  0  0
  1  6  1  0  0  0  0
  2  8  1  6  0  0  0
  2  4  1  0  0  0  0
  3  4  1  0  0  0  0
  5  3  1  0  0  0  0
  6 17  1  1  0  0  0
  6  2  1  0  0  0  0
  8  7  1  0  0  0  0
 10  9  1  1  0  0  0
 11 16  1  0  0  0  0
 11 14  1  0  0  0  0
 12 10  1  0  0  0  0
 14 13  1  6  0  0  0
 14 10  1  0  0  0  0
 15 11  1  0  0  0  0
 16 12  1  0  0  0  0
 18 27  1  0  0  0  0
 19 24  2  0  0  0  0
 20 17  1  6  0  0  0
 20 22  1  0  0  0  0
 21 26  1  0  0  0  0
 22 18  2  0  0  0  0
 22 19  1  0  0  0  0
 23 25  1  0  0  0  0
 24 21  1  0  0  0  0
 25 19  1  0  0  0  0
 27 21  2  0  0  0  0
 28 23  2  0  0  0  0
 28 20  1  0  0  0  0
M  END
>  <MODEL>
3

>  <REMARK>
 VINA RESULT:      -8.5      1.761      2.796
  Name = 
  5 active torsions:
  status: ('A' for Active; 'I' for Inactive)
    1  A    between atoms: C_1  and  O_2
    2  A    between atoms: O_2  and  C_3
    3  A    between atoms: C_10  and  C_17
    4  A    between atoms: C_16  and  C_20
    5  A    between atoms: C_17  and  C_27
                            x       y       z     vdW  Elec       q    Type
                         _______ _______ _______ _____ _____    ______ ____

>  <TORSDO>
F 5

$$$$
=
 OpenBabel10272401443D

 28 31  0  0  1  0  0  0  0  0999 V2000
  190.3380  177.9670  145.1920 C   0  0  2  0  0  3  0  0  0  0  0  0
  189.0060  177.2930  147.2160 C   0  0  2  0  0  3  0  0  0  0  0  0
  191.3040  176.4860  146.5810 C   0  0  0  0  0  2  0  0  0  0  0  0
  190.0150  176.1410  147.3330 C   0  0  0  0  0  2  0  0  0  0  0  0
  191.0170  176.7370  145.2290 O   0  0  0  0  0  0  0  0  0  0  0  0
  188.9240  177.8240  145.7790 C   0  0  2  0  0  3  0  0  0  0  0  0
  188.5050  178.3960  149.2770 O   0  0  0  0  0  1  0  0  0  0  0  0
  189.3550  178.4250  148.1720 C   0  0  0  0  0  2  0  0  0  0  0  0
  190.2850  178.4490  143.8690 O   0  0  0  0  0  0  0  0  0  0  0  0
  190.9990  177.5790  143.0100 C   0  0  2  0  0  3  0  0  0  0  0  0
  190.8620  176.7540  140.7480 N   0  0  0  0  0  0  0  0  0  0  0  0
  192.0780  178.2610  142.2070 C   0  0  0  0  0  2  0  0  0  0  0  0
  189.8250  175.5760  142.4770 O   0  0  0  0  0  1  0  0  0  0  0  0
  190.1240  176.8530  142.0040 C   0  0  1  0  0  3  0  0  0  0  0  0
  190.0920  177.4720  139.7460 C   0  0  0  0  0  1  0  0  0  0  0  0
  192.1250  177.4740  140.9150 C   0  0  0  0  0  2  0  0  0  0  0  0
  188.0540  176.9130  144.9150 C   0  0  0  0  0  2  0  0  0  0  0  0
  187.0210  177.8400  142.3790 C   0  0  0  0  0  3  0  0  0  0  0  0
  184.7570  178.3900  143.4940 C   0  0  0  0  0  0  0  0  0  0  0  0
  186.6710  177.4750  144.7870 C   0  0  1  0  0  3  0  0  0  0  0  0
  185.2690  178.9990  141.1290 C   0  0  0  0  0  0  0  0  0  0  0  0
  186.1940  177.9120  143.6020 C   0  0  0  0  0  0  0  0  0  0  0  0
  184.7750  178.3160  146.1180 C   0  0  0  0  0  3  0  0  0  0  0  0
  184.4430  179.0500  142.1770 C   0  0  0  0  0  3  0  0  0  0  0  0
  184.3740  179.5330  144.8560 S   0  0  0  0  0  0  0  0  0  0  0  0
  184.9070  179.5910  139.9660 F   0  0  0  0  0  0  0  0  0  0  0  0
  186.5830  178.3430  141.2260 C   0  0  0  0  0  3  0  0  0  0  0  0
  185.8410  177.5220  146.0080 C   0  0  0  0  0  3  0  0  0  0  0  0
  1  9  1  6  0  0  0
  1  5  1  0  0  0  0
  1  6  1  0  0  0  0
  2  4  1  0  0  0  0
  2  8  1  1  0  0  0
  3  4  1  0  0  0  0
  5  3  1  0  0  0  0
  6 17  1  6  0  0  0
  6  2  1  0  0  0  0
  8  7  1  0  0  0  0
 10  9  1  6  0  0  0
 11 16  1  0  0  0  0
 11 14  1  0  0  0  0
 12 10  1  0  0  0  0
 14 13  1  1  0  0  0
 14 10  1  0  0  0  0
 15 11  1  0  0  0  0
 16 12  1  0  0  0  0
 18 22  1  0  0  0  0
 19 22  2  0  0  0  0
 19 25  1  0  0  0  0
 20 17  1  6  0  0  0
 20 28  1  0  0  0  0
 21 27  1  0  0  0  0
 21 24  2  0  0  0  0
 22 20  1  0  0  0  0
 24 19  1  0  0  0  0
 25 23  1  0  0  0  0
 26 21  1  0  0  0  0
 27 18  2  0  0  0  0
 28 23  2  0  0  0  0
M  END
>  <MODEL>
4

>  <REMARK>
 VINA RESULT:      -8.3      2.277      3.457
  Name = 
  5 active torsions:
  status: ('A' for Active; 'I' for Inactive)
    1  A    between atoms: C_1  and  O_2
    2  A    between atoms: O_2  and  C_3
    3  A    between atoms: C_10  and  C_17
    4  A    between atoms: C_16  and  C_20
    5  A    between atoms: C_17  and  C_27
                            x       y       z     vdW  Elec       q    Type
                         _______ _______ _______ _____ _____    ______ ____

>  <TORSDO>
F 5

$$$$
=
 OpenBabel10272401443D

 28 31  0  0  1  0  0  0  0  0999 V2000
  189.0880  177.7870  141.8440 C   0  0  2  0  0  3  0  0  0  0  0  0
  190.8840  178.0860  143.5810 C   0  0  2  0  0  3  0  0  0  0  0  0
  191.1640  177.1460  141.2630 C   0  0  0  0  0  2  0  0  0  0  0  0
  191.7150  177.1500  142.6910 C   0  0  0  0  0  2  0  0  0  0  0  0
  189.8210  176.7350  141.2690 O   0  0  0  0  0  0  0  0  0  0  0  0
  189.3790  177.8890  143.3510 C   0  0  2  0  0  3  0  0  0  0  0  0
  191.2310  180.2420  144.5520 O   0  0  0  0  0  1  0  0  0  0  0  0
  191.2620  179.5410  143.3470 C   0  0  0  0  0  2  0  0  0  0  0  0
  187.7120  177.6000  141.6110 O   0  0  0  0  0  0  0  0  0  0  0  0
  187.2550  178.5360  140.6510 C   0  0  2  0  0  3  0  0  0  0  0  0
  186.4330  178.5460  138.3840 N   0  0  0  0  0  0  0  0  0  0  0  0
  185.7700  178.7900  140.7030 C   0  0  0  0  0  2  0  0  0  0  0  0
  188.7180  178.7970  138.7900 O   0  0  0  0  0  1  0  0  0  0  0  0
  187.5620  178.1440  139.2170 C   0  0  1  0  0  3  0  0  0  0  0  0
  185.8930  177.3350  137.7890 C   0  0  0  0  0  1  0  0  0  0  0  0
  185.3990  179.0890  139.2660 C   0  0  0  0  0  2  0  0  0  0  0  0
  188.8750  176.6550  144.0980 C   0  0  0  0  0  2  0  0  0  0  0  0
  186.1760  177.6800  144.2500 C   0  0  0  0  0  3  0  0  0  0  0  0
  186.3720  177.8360  146.8210 C   0  0  0  0  0  0  0  0  0  0  0  0
  188.2560  177.0500  145.4040 C   0  0  1  0  0  3  0  0  0  0  0  0
  184.4040  178.7230  145.5710 C   0  0  0  0  0  0  0  0  0  0  0  0
  186.9980  177.5340  145.4710 C   0  0  0  0  0  0  0  0  0  0  0  0
  188.8030  177.5200  147.7610 C   0  0  0  0  0  3  0  0  0  0  0  0
  185.0620  178.5720  146.7230 C   0  0  0  0  0  3  0  0  0  0  0  0
  187.5320  178.7890  147.8470 S   0  0  0  0  0  0  0  0  0  0  0  0
  183.2140  179.3720  145.5640 F   0  0  0  0  0  0  0  0  0  0  0  0
  184.9640  178.2300  144.3020 C   0  0  0  0  0  3  0  0  0  0  0  0
  189.0730  176.8780  146.6230 C   0  0  0  0  0  3  0  0  0  0  0  0
  1  9  1  1  0  0  0
  1  6  1  0  0  0  0
  2  8  1  6  0  0  0
  3  5  1  0  0  0  0
  3  4  1  0  0  0  0
  4  2  1  0  0  0  0
  5  1  1  0  0  0  0
  6  2  1  0  0  0  0
  6 17  1  1  0  0  0
  8  7  1  0  0  0  0
 10 12  1  0  0  0  0
 10  9  1  1  0  0  0
 11 14  1  0  0  0  0
 11 16  1  0  0  0  0
 14 13  1  6  0  0  0
 14 10  1  0  0  0  0
 15 11  1  0  0  0  0
 16 12  1  0  0  0  0
 18 27  2  0  0  0  0
 18 22  1  0  0  0  0
 19 25  1  0  0  0  0
 20 17  1  1  0  0  0
 20 22  1  0  0  0  0
 20 28  1  0  0  0  0
 21 24  2  0  0  0  0
 22 19  2  0  0  0  0
 23 25  1  0  0  0  0
 24 19  1  0  0  0  0
 26 21  1  0  0  0  0
 27 21  1  0  0  0  0
 28 23  2  0  0  0  0
M  END
>  <MODEL>
5

>  <REMARK>
 VINA RESULT:      -8.2      1.726      2.136
  Name = 
  5 active torsions:
  status: ('A' for Active; 'I' for Inactive)
    1  A    between atoms: C_1  and  O_2
    2  A    between atoms: O_2  and  C_3
    3  A    between atoms: C_10  and  C_17
    4  A    between atoms: C_16  and  C_20
    5  A    between atoms: C_17  and  C_27
                            x       y       z     vdW  Elec       q    Type
                         _______ _______ _______ _____ _____    ______ ____

>  <TORSDO>
F 5

$$$$
=
 OpenBabel10272401443D

 28 31  0  0  1  0  0  0  0  0999 V2000
  185.0890  178.7150  139.0430 C   0  0  2  0  0  3  0  0  0  0  0  0
  183.3650  178.1760  140.7950 C   0  0  2  0  0  3  0  0  0  0  0  0
  183.0970  179.7380  138.8390 C   0  0  0  0  0  2  0  0  0  0  0  0
  182.6280  179.4120  140.2610 C   0  0  0  0  0  2  0  0  0  0  0  0
  184.4830  179.9650  138.8330 O   0  0  0  0  0  0  0  0  0  0  0  0
  184.8680  178.2430  140.4910 C   0  0  2  0  0  3  0  0  0  0  0  0
  181.3810  176.9750  140.2180 O   0  0  0  0  0  1  0  0  0  0  0  0
  182.7730  176.8960  140.2220 C   0  0  0  0  0  2  0  0  0  0  0  0
  186.4640  178.7880  138.7450 O   0  0  0  0  0  0  0  0  0  0  0  0
  186.6960  178.3200  137.4290 C   0  0  2  0  0  3  0  0  0  0  0  0
  187.9650  176.5950  136.3180 N   0  0  0  0  0  0  0  0  0  0  0  0
  185.7270  177.2570  136.9760 C   0  0  0  0  0  2  0  0  0  0  0  0
  188.9150  178.7030  136.6500 O   0  0  0  0  0  1  0  0  0  0  0  0
  188.0830  177.7390  137.2190 C   0  0  1  0  0  3  0  0  0  0  0  0
  188.4240  175.4290  137.0530 C   0  0  0  0  0  1  0  0  0  0  0  0
  186.5430  176.3940  136.0380 C   0  0  0  0  0  2  0  0  0  0  0  0
  185.5810  179.1550  141.4870 C   0  0  0  0  0  2  0  0  0  0  0  0
  184.7510  178.9220  144.2460 C   0  0  0  0  0  3  0  0  0  0  0  0
  186.7360  177.3360  144.7170 C   0  0  0  0  0  0  0  0  0  0  0  0
  186.3600  178.3430  142.4770 C   0  0  1  0  0  3  0  0  0  0  0  0
  185.2420  178.1850  146.5250 C   0  0  0  0  0  0  0  0  0  0  0  0
  185.9730  178.2420  143.7660 C   0  0  0  0  0  0  0  0  0  0  0  0
  188.5290  177.2190  142.8020 C   0  0  0  0  0  3  0  0  0  0  0  0
  186.3270  177.5000  146.1570 C   0  0  0  0  0  3  0  0  0  0  0  0
  188.5240  177.6250  144.5540 S   0  0  0  0  0  0  0  0  0  0  0  0
  184.9180  178.2650  147.8380 F   0  0  0  0  0  0  0  0  0  0  0  0
  184.4110  178.8880  145.5340 C   0  0  0  0  0  3  0  0  0  0  0  0
  187.5660  177.6460  141.9850 C   0  0  0  0  0  3  0  0  0  0  0  0
  1  9  1  1  0  0  0
  1  6  1  0  0  0  0
  2  8  1  6  0  0  0
  3  4  1  0  0  0  0
  4  2  1  0  0  0  0
  5  3  1  0  0  0  0
  5  1  1  0  0  0  0
  6  2  1  0  0  0  0
  6 17  1  1  0  0  0
  7  8  1  0  0  0  0
 10  9  1  1  0  0  0
 11 15  1  0  0  0  0
 11 14  1  0  0  0  0
 12 10  1  0  0  0  0
 14 13  1  6  0  0  0
 14 10  1  0  0  0  0
 16 11  1  0  0  0  0
 16 12  1  0  0  0  0
 18 27  1  0  0  0  0
 19 24  2  0  0  0  0
 20 17  1  6  0  0  0
 20 22  1  0  0  0  0
 21 26  1  0  0  0  0
 22 18  2  0  0  0  0
 22 19  1  0  0  0  0
 23 25  1  0  0  0  0
 24 21  1  0  0  0  0
 25 19  1  0  0  0  0
 27 21  2  0  0  0  0
 28 20  1  0  0  0  0
 28 23  2  0  0  0  0
M  END
>  <MODEL>
6

>  <REMARK>
 VINA RESULT:      -8.1      2.992      5.359
  Name = 
  5 active torsions:
  status: ('A' for Active; 'I' for Inactive)
    1  A    between atoms: C_1  and  O_2
    2  A    between atoms: O_2  and  C_3
    3  A    between atoms: C_10  and  C_17
    4  A    between atoms: C_16  and  C_20
    5  A    between atoms: C_17  and  C_27
                            x       y       z     vdW  Elec       q    Type
                         _______ _______ _______ _____ _____    ______ ____

>  <TORSDO>
F 5

$$$$
=
 OpenBabel10272401443D

 28 31  0  0  1  0  0  0  0  0999 V2000
  189.6540  177.1440  138.2270 C   0  0  2  0  0  3  0  0  0  0  0  0
  187.1960  177.6750  138.1490 C   0  0  2  0  0  3  0  0  0  0  0  0
  188.9530  178.3970  136.4960 C   0  0  0  0  0  2  0  0  0  0  0  0
  187.5940  178.7380  137.1150 C   0  0  0  0  0  2  0  0  0  0  0  0
  189.9300  178.3160  137.5020 O   0  0  0  0  0  0  0  0  0  0  0  0
  188.3740  177.3130  139.0640 C   0  0  2  0  0  3  0  0  0  0  0  0
  185.5560  176.7450  136.6800 O   0  0  0  0  0  1  0  0  0  0  0  0
  186.6600  176.4240  137.4680 C   0  0  0  0  0  2  0  0  0  0  0  0
  190.7500  176.8170  139.0500 O   0  0  0  0  0  0  0  0  0  0  0  0
  191.5970  175.8990  138.3810 C   0  0  2  0  0  3  0  0  0  0  0  0
  191.8750  174.9730  136.1710 N   0  0  0  0  0  0  0  0  0  0  0  0
  192.8220  176.5310  137.7700 C   0  0  0  0  0  2  0  0  0  0  0  0
  190.5040  173.8890  137.7200 O   0  0  0  0  0  1  0  0  0  0  0  0
  190.9140  175.1390  137.2580 C   0  0  1  0  0  3  0  0  0  0  0  0
  191.3230  175.6530  135.0120 C   0  0  0  0  0  1  0  0  0  0  0  0
  193.0970  175.6840  136.5460 C   0  0  0  0  0  2  0  0  0  0  0  0
  188.5580  178.3700  140.1520 C   0  0  0  0  0  2  0  0  0  0  0  0
  186.2100  178.8780  141.7610 C   0  0  0  0  0  3  0  0  0  0  0  0
  187.1130  177.2940  143.5910 C   0  0  0  0  0  0  0  0  0  0  0  0
  188.3880  177.7590  141.5100 C   0  0  1  0  0  3  0  0  0  0  0  0
  185.0590  178.6740  143.9080 C   0  0  0  0  0  0  0  0  0  0  0  0
  187.2930  178.0030  142.2600 C   0  0  0  0  0  0  0  0  0  0  0  0
  189.6180  176.5710  143.2840 C   0  0  0  0  0  3  0  0  0  0  0  0
  185.9680  177.8330  144.4070 C   0  0  0  0  0  3  0  0  0  0  0  0
  188.6490  177.3870  144.5600 S   0  0  0  0  0  0  0  0  0  0  0  0
  184.0380  179.0950  144.6920 F   0  0  0  0  0  0  0  0  0  0  0  0
  185.1670  179.1840  142.5300 C   0  0  0  0  0  3  0  0  0  0  0  0
  189.4610  176.8670  141.9930 C   0  0  0  0  0  3  0  0  0  0  0  0
  1  9  1  1  0  0  0
  1  6  1  0  0  0  0
  2  8  1  6  0  0  0
  2  6  1  0  0  0  0
  3  4  1  0  0  0  0
  3  5  1  0  0  0  0
  4  2  1  0  0  0  0
  5  1  1  0  0  0  0
  6 17  1  1  0  0  0
  7  8  1  0  0  0  0
 10  9  1  6  0  0  0
 11 16  1  0  0  0  0
 11 14  1  0  0  0  0
 12 10  1  0  0  0  0
 14 13  1  1  0  0  0
 14 10  1  0  0  0  0
 15 11  1  0  0  0  0
 16 12  1  0  0  0  0
 18 22  2  0  0  0  0
 18 27  1  0  0  0  0
 19 24  2  0  0  0  0
 19 25  1  0  0  0  0
 20 17  1  6  0  0  0
 20 28  1  0  0  0  0
 20 22  1  0  0  0  0
 21 24  1  0  0  0  0
 21 26  1  0  0  0  0
 22 19  1  0  0  0  0
 23 25  1  0  0  0  0
 27 21  2  0  0  0  0
 28 23  2  0  0  0  0
M  END
>  <MODEL>
7

>  <REMARK>
 VINA RESULT:      -7.5      2.378      4.612
  Name = 
  5 active torsions:
  status: ('A' for Active; 'I' for Inactive)
    1  A    between atoms: C_1  and  O_2
    2  A    between atoms: O_2  and  C_3
    3  A    between atoms: C_10  and  C_17
    4  A    between atoms: C_16  and  C_20
    5  A    between atoms: C_17  and  C_27
                            x       y       z     vdW  Elec       q    Type
                         _______ _______ _______ _____ _____    ______ ____

>  <TORSDO>
F 5

$$$$
=
 OpenBabel10272401443D

 28 31  0  0  1  0  0  0  0  0999 V2000
  191.4020  177.3000  144.9280 C   0  0  2  0  0  3  0  0  0  0  0  0
  190.7130  176.5380  147.2240 C   0  0  2  0  0  3  0  0  0  0  0  0
  192.3570  175.4100  145.6870 C   0  0  0  0  0  2  0  0  0  0  0  0
  191.3600  175.2020  146.8310 C   0  0  0  0  0  2  0  0  0  0  0  0
  191.7030  175.9720  144.5780 O   0  0  0  0  0  0  0  0  0  0  0  0
  190.2880  177.3420  145.9890 C   0  0  2  0  0  3  0  0  0  0  0  0
  192.6720  176.5610  148.5940 O   0  0  0  0  0  1  0  0  0  0  0  0
  191.6520  177.3660  148.0890 C   0  0  0  0  0  2  0  0  0  0  0  0
  191.0300  178.0290  143.7820 O   0  0  0  0  0  0  0  0  0  0  0  0
  191.0600  177.1850  142.6450 C   0  0  2  0  0  3  0  0  0  0  0  0
  189.8980  176.9360  140.5460 N   0  0  0  0  0  0  0  0  0  0  0  0
  191.9800  177.6640  141.5510 C   0  0  0  0  0  2  0  0  0  0  0  0
  189.1420  175.7870  142.4330 O   0  0  0  0  0  1  0  0  0  0  0  0
  189.7040  176.9850  141.9920 C   0  0  1  0  0  3  0  0  0  0  0  0
  189.1500  178.0460  139.9800 C   0  0  0  0  0  1  0  0  0  0  0  0
  191.3130  177.1900  140.2780 C   0  0  0  0  0  2  0  0  0  0  0  0
  188.9690  176.8150  145.4280 C   0  0  0  0  0  2  0  0  0  0  0  0
  186.5580  177.6010  144.0380 C   0  0  0  0  0  3  0  0  0  0  0  0
  185.4990  178.3350  146.2770 C   0  0  0  0  0  0  0  0  0  0  0  0
  187.8090  177.4300  146.1510 C   0  0  1  0  0  3  0  0  0  0  0  0
  184.3980  178.7450  144.0760 C   0  0  0  0  0  0  0  0  0  0  0  0
  186.6880  177.8010  145.4980 C   0  0  0  0  0  0  0  0  0  0  0  0
  187.1690  178.4540  148.2990 C   0  0  0  0  0  3  0  0  0  0  0  0
  184.4180  178.9110  145.4000 C   0  0  0  0  0  3  0  0  0  0  0  0
  186.0490  179.5920  147.4710 S   0  0  0  0  0  0  0  0  0  0  0  0
  183.3780  179.2660  143.3540 F   0  0  0  0  0  0  0  0  0  0  0  0
  185.4860  178.0380  143.3800 C   0  0  0  0  0  3  0  0  0  0  0  0
  187.9350  177.6050  147.6120 C   0  0  0  0  0  3  0  0  0  0  0  0
  1  9  1  6  0  0  0
  1  6  1  0  0  0  0
  2  8  1  6  0  0  0
  3  4  1  0  0  0  0
  4  2  1  0  0  0  0
  5  1  1  0  0  0  0
  5  3  1  0  0  0  0
  6 17  1  6  0  0  0
  6  2  1  0  0  0  0
  8  7  1  0  0  0  0
 10  9  1  1  0  0  0
 11 14  1  0  0  0  0
 12 10  1  0  0  0  0
 14 13  1  1  0  0  0
 14 10  1  0  0  0  0
 15 11  1  0  0  0  0
 16 11  1  0  0  0  0
 16 12  1  0  0  0  0
 18 22  1  0  0  0  0
 19 25  1  0  0  0  0
 20 17  1  1  0  0  0
 20 28  1  0  0  0  0
 21 24  2  0  0  0  0
 22 20  1  0  0  0  0
 22 19  2  0  0  0  0
 24 19  1  0  0  0  0
 25 23  1  0  0  0  0
 26 21  1  0  0  0  0
 27 18  2  0  0  0  0
 27 21  1  0  0  0  0
 28 23  2  0  0  0  0
M  END
>  <MODEL>
8

>  <REMARK>
 VINA RESULT:      -7.5      2.067      3.002
  Name = 
  5 active torsions:
  status: ('A' for Active; 'I' for Inactive)
    1  A    between atoms: C_1  and  O_2
    2  A    between atoms: O_2  and  C_3
    3  A    between atoms: C_10  and  C_17
    4  A    between atoms: C_16  and  C_20
    5  A    between atoms: C_17  and  C_27
                            x       y       z     vdW  Elec       q    Type
                         _______ _______ _______ _____ _____    ______ ____

>  <TORSDO>
F 5

$$$$
=
 OpenBabel10272401443D

 28 31  0  0  1  0  0  0  0  0999 V2000
  189.5900  177.9260  140.5520 C   0  0  2  0  0  3  0  0  0  0  0  0
  190.1360  177.7300  143.0000 C   0  0  2  0  0  3  0  0  0  0  0  0
  191.2650  176.5280  141.0980 C   0  0  0  0  0  2  0  0  0  0  0  0
  190.9200  176.4750  142.5890 C   0  0  0  0  0  2  0  0  0  0  0  0
  190.0880  176.6300  140.3380 O   0  0  0  0  0  0  0  0  0  0  0  0
  189.0380  178.0650  141.9820 C   0  0  2  0  0  3  0  0  0  0  0  0
  190.7670  179.5880  144.3650 O   0  0  0  0  0  1  0  0  0  0  0  0
  191.0650  178.9220  143.1770 C   0  0  0  0  0  2  0  0  0  0  0  0
  188.5950  178.2240  139.6010 O   0  0  0  0  0  0  0  0  0  0  0  0
  188.8170  177.4740  138.4200 C   0  0  2  0  0  3  0  0  0  0  0  0
  187.8350  177.2070  136.2340 N   0  0  0  0  0  0  0  0  0  0  0  0
  189.7230  178.1530  137.4240 C   0  0  0  0  0  2  0  0  0  0  0  0
  187.1420  175.8350  137.9920 O   0  0  0  0  0  1  0  0  0  0  0  0
  187.5480  177.1280  137.6630 C   0  0  1  0  0  3  0  0  0  0  0  0
  186.9690  178.2350  135.6830 C   0  0  0  0  0  1  0  0  0  0  0  0
  189.2120  177.6780  136.0820 C   0  0  0  0  0  2  0  0  0  0  0  0
  187.8150  177.1750  142.1930 C   0  0  0  0  0  2  0  0  0  0  0  0
  186.8570  177.4610  144.9060 C   0  0  0  0  0  3  0  0  0  0  0  0
  184.9980  179.0570  144.0880 C   0  0  0  0  0  0  0  0  0  0  0  0
  186.6110  178.0060  142.5190 C   0  0  1  0  0  3  0  0  0  0  0  0
  185.1240  178.2420  146.4430 C   0  0  0  0  0  0  0  0  0  0  0  0
  186.1630  178.1330  143.7860 C   0  0  0  0  0  0  0  0  0  0  0  0
  184.6830  179.1390  141.4830 C   0  0  0  0  0  3  0  0  0  0  0  0
  184.4750  178.9210  145.4950 C   0  0  0  0  0  3  0  0  0  0  0  0
  183.6470  178.7670  142.9050 S   0  0  0  0  0  0  0  0  0  0  0  0
  184.6090  178.1880  147.6950 F   0  0  0  0  0  0  0  0  0  0  0  0
  186.3720  177.5190  146.1450 C   0  0  0  0  0  3  0  0  0  0  0  0
  185.9380  178.6950  141.3990 C   0  0  0  0  0  3  0  0  0  0  0  0
  1  9  1  6  0  0  0
  1  6  1  0  0  0  0
  2  8  1  6  0  0  0
  3  4  1  0  0  0  0
  4  2  1  0  0  0  0
  5  1  1  0  0  0  0
  5  3  1  0  0  0  0
  6 17  1  6  0  0  0
  6  2  1  0  0  0  0
  8  7  1  0  0  0  0
 10  9  1  1  0  0  0
 11 14  1  0  0  0  0
 12 10  1  0  0  0  0
 14 13  1  6  0  0  0
 14 10  1  0  0  0  0
 15 11  1  0  0  0  0
 16 11  1  0  0  0  0
 16 12  1  0  0  0  0
 18 27  1  0  0  0  0
 19 24  2  0  0  0  0
 20 17  1  1  0  0  0
 20 22  1  0  0  0  0
 21 26  1  0  0  0  0
 22 19  1  0  0  0  0
 22 18  2  0  0  0  0
 23 25  1  0  0  0  0
 24 21  1  0  0  0  0
 25 19  1  0  0  0  0
 27 21  2  0  0  0  0
 28 23  2  0  0  0  0
 28 20  1  0  0  0  0
M  END
>  <MODEL>
9

>  <REMARK>
 VINA RESULT:      -7.4      1.883      2.682
  Name = 
  5 active torsions:
  status: ('A' for Active; 'I' for Inactive)
    1  A    between atoms: C_1  and  O_2
    2  A    between atoms: O_2  and  C_3
    3  A    between atoms: C_10  and  C_17
    4  A    between atoms: C_16  and  C_20
    5  A    between atoms: C_17  and  C_27
                            x       y       z     vdW  Elec       q    Type
                         _______ _______ _______ _____ _____    ______ ____

>  <TORSDO>
F 5

$$$$
