=
 OpenBabel10272402013D

 28 29  0  0  1  0  0  0  0  0999 V2000
  191.5050  175.8140  143.4950 C   0  0  0  0  0  1  0  0  0  0  0  0
  188.2520  177.2920  143.0110 N   0  0  1  0  0  0  0  0  0  0  0  0
  189.7530  178.8730  144.3040 F   0  0  0  0  0  0  0  0  0  0  0  0
  190.0550  176.0850  141.7160 O   0  0  0  0  0  0  0  0  0  0  0  0
  188.0030  177.4150  141.6490 O   0  0  0  0  0  0  0  0  0  0  0  0
  190.6800  176.8970  142.6430 C   0  0  1  0  0  0  0  0  0  0  0  0
  189.5860  177.6290  143.5770 C   0  0  2  0  0  3  0  0  0  0  0  0
  189.2440  176.9890  140.9740 C   0  0  2  0  0  3  0  0  0  0  0  0
  185.8250  178.2410  143.1250 C   0  0  0  0  0  3  0  0  0  0  0  0
  187.0360  177.6070  145.3300 C   0  0  0  0  0  0  0  0  0  0  0  0
  184.7920  178.6220  145.3400 C   0  0  0  0  0  0  0  0  0  0  0  0
  186.9880  177.5160  143.8120 C   0  0  2  0  0  3  0  0  0  0  0  0
  185.9850  178.0660  146.0050 C   0  0  0  0  0  3  0  0  0  0  0  0
  188.0290  177.0630  146.0740 F   0  0  0  0  0  0  0  0  0  0  0  0
  183.9040  179.0390  146.0870 O   0  0  0  0  0  0  0  0  0  0  0  0
  184.7760  178.7120  143.8600 C   0  0  0  0  0  3  0  0  0  0  0  0
  189.0840  176.6820  139.5720 C   0  0  2  0  0  3  0  0  0  0  0  0
  190.3070  176.1450  139.1690 O   0  0  0  0  0  1  0  0  0  0  0  0
  188.9810  179.0980  139.3850 O   0  0  0  0  0  1  0  0  0  0  0  0
  188.7670  177.8680  138.7170 C   0  0  2  0  0  3  0  0  0  0  0  0
  187.3620  177.7070  138.1520 C   0  0  0  0  0  0  0  0  0  0  0  0
  187.0860  176.7040  137.5090 O   0  0  0  0  0  0  0  0  0  0  0  0
  186.4010  178.7670  138.2340 O   0  0  0  0  0  0  0  0  0  0  0  0
  185.2020  178.7510  138.9170 C   0  0  0  0  0  0  0  0  0  0  0  0
  185.0600  179.5120  139.8810 O   0  0  0  0  0  0  0  0  0  0  0  0
  184.0730  177.7350  138.6270 C   0  0  0  0  0  1  0  0  0  0  0  0
  192.6050  177.1750  141.3010 O   0  0  0  0  0  1  0  0  0  0  0  0
  191.6060  177.9050  141.9930 C   0  0  0  0  0  2  0  0  0  0  0  0
  2  5  1  6  0  0  0
  2  7  1  0  0  0  0
  2 12  1  0  0  0  0
  4  6  1  0  0  0  0
  6  1  1  1  0  0  0
  6  7  1  0  0  0  0
  7  3  1  6  0  0  0
  8 17  1  6  0  0  0
  8  5  1  0  0  0  0
  8  4  1  0  0  0  0
  9 16  2  0  0  0  0
 10 13  2  0  0  0  0
 10 14  1  0  0  0  0
 11 13  1  0  0  0  0
 11 15  2  0  0  0  0
 12  9  1  6  0  0  0
 12 10  1  0  0  0  0
 16 11  1  0  0  0  0
 17 18  1  6  0  0  0
 20 19  1  1  0  0  0
 20 17  1  0  0  0  0
 21 23  1  0  0  0  0
 21 20  1  0  0  0  0
 22 21  2  0  0  0  0
 23 24  1  0  0  0  0
 24 25  2  0  0  0  0
 26 24  1  0  0  0  0
 27 28  1  0  0  0  0
 28  6  1  0  0  0  0
M  END
>  <MODEL>
1

>  <REMARK>
 VINA RESULT:      -7.9      0.000      0.000
  Name = 
  7 active torsions:
  status: ('A' for Active; 'I' for Inactive)
    1  A    between atoms: C_1  and  C_11
    2  A    between atoms: C_1  and  C_27
    3  A    between atoms: C_3  and  C_11
    4  A    between atoms: C_3  and  O_28
    5  A    between atoms: C_6  and  O_28
    6  A    between atoms: N_10  and  C_13
    7  A    between atoms: C_20  and  C_21
                            x       y       z     vdW  Elec       q    Type
                         _______ _______ _______ _____ _____    ______ ____

>  <TORSDO>
F 7

$$$$
=
 OpenBabel10272402013D

 28 29  0  0  1  0  0  0  0  0999 V2000
  191.3010  175.7060  143.9800 C   0  0  0  0  0  1  0  0  0  0  0  0
  188.2160  177.4680  143.3630 N   0  0  1  0  0  0  0  0  0  0  0  0
  189.6080  178.7080  145.0790 F   0  0  0  0  0  0  0  0  0  0  0  0
  190.1120  176.3640  142.1100 O   0  0  0  0  0  0  0  0  0  0  0  0
  188.1540  177.8280  142.0210 O   0  0  0  0  0  0  0  0  0  0  0  0
  190.6480  176.9690  143.2300 C   0  0  1  0  0  0  0  0  0  0  0  0
  189.4780  177.6150  144.1350 C   0  0  2  0  0  3  0  0  0  0  0  0
  189.4500  177.4320  141.4390 C   0  0  2  0  0  3  0  0  0  0  0  0
  185.7750  178.3800  143.2470 C   0  0  0  0  0  3  0  0  0  0  0  0
  186.7530  177.6850  145.5460 C   0  0  0  0  0  0  0  0  0  0  0  0
  184.5050  178.6700  145.3490 C   0  0  0  0  0  0  0  0  0  0  0  0
  186.8690  177.6470  144.0290 C   0  0  2  0  0  3  0  0  0  0  0  0
  185.6290  178.1060  146.1200 C   0  0  0  0  0  3  0  0  0  0  0  0
  187.6700  177.1290  146.3740 F   0  0  0  0  0  0  0  0  0  0  0  0
  183.5350  179.0480  146.0110 O   0  0  0  0  0  0  0  0  0  0  0  0
  184.6450  178.8110  143.8800 C   0  0  0  0  0  3  0  0  0  0  0  0
  189.4620  177.3690  139.9970 C   0  0  2  0  0  3  0  0  0  0  0  0
  190.8040  177.4740  139.6330 O   0  0  0  0  0  1  0  0  0  0  0  0
  187.2970  178.3800  139.5770 O   0  0  0  0  0  1  0  0  0  0  0  0
  188.6890  178.4630  139.3290 C   0  0  2  0  0  3  0  0  0  0  0  0
  189.0530  178.4920  137.8510 C   0  0  0  0  0  0  0  0  0  0  0  0
  189.1490  179.5690  137.2790 O   0  0  0  0  0  0  0  0  0  0  0  0
  189.1450  177.2860  137.0840 O   0  0  0  0  0  0  0  0  0  0  0  0
  188.0980  176.5290  136.5980 C   0  0  0  0  0  0  0  0  0  0  0  0
  186.9890  177.0610  136.4760 O   0  0  0  0  0  0  0  0  0  0  0  0
  188.2040  175.0100  136.3240 C   0  0  0  0  0  1  0  0  0  0  0  0
  192.0900  178.6340  144.0870 O   0  0  0  0  0  1  0  0  0  0  0  0
  191.7000  178.0020  142.8790 C   0  0  0  0  0  2  0  0  0  0  0  0
  2  5  1  6  0  0  0
  2 12  1  0  0  0  0
  2  7  1  0  0  0  0
  4  6  1  0  0  0  0
  6  1  1  1  0  0  0
  6  7  1  0  0  0  0
  7  3  1  6  0  0  0
  8 17  1  6  0  0  0
  8  5  1  0  0  0  0
  8  4  1  0  0  0  0
  9 16  2  0  0  0  0
 10 13  2  0  0  0  0
 10 14  1  0  0  0  0
 11 15  2  0  0  0  0
 11 13  1  0  0  0  0
 12  9  1  6  0  0  0
 12 10  1  0  0  0  0
 16 11  1  0  0  0  0
 17 18  1  6  0  0  0
 20 19  1  6  0  0  0
 20 17  1  0  0  0  0
 21 20  1  0  0  0  0
 22 21  2  0  0  0  0
 23 21  1  0  0  0  0
 24 23  1  0  0  0  0
 25 24  2  0  0  0  0
 26 24  1  0  0  0  0
 28  6  1  0  0  0  0
 28 27  1  0  0  0  0
M  END
>  <MODEL>
2

>  <REMARK>
 VINA RESULT:      -7.4      1.533      2.059
  Name = 
  7 active torsions:
  status: ('A' for Active; 'I' for Inactive)
    1  A    between atoms: C_1  and  C_11
    2  A    between atoms: C_1  and  C_27
    3  A    between atoms: C_3  and  C_11
    4  A    between atoms: C_3  and  O_28
    5  A    between atoms: C_6  and  O_28
    6  A    between atoms: N_10  and  C_13
    7  A    between atoms: C_20  and  C_21
                            x       y       z     vdW  Elec       q    Type
                         _______ _______ _______ _____ _____    ______ ____

>  <TORSDO>
F 7

$$$$
=
 OpenBabel10272402013D

 28 29  0  0  1  0  0  0  0  0999 V2000
  191.3350  175.7430  144.0460 C   0  0  0  0  0  1  0  0  0  0  0  0
  188.2980  177.5270  143.2740 N   0  0  1  0  0  0  0  0  0  0  0  0
  189.5930  178.7390  145.0840 F   0  0  0  0  0  0  0  0  0  0  0  0
  190.2600  176.4310  142.1190 O   0  0  0  0  0  0  0  0  0  0  0  0
  188.3160  177.9040  141.9350 O   0  0  0  0  0  0  0  0  0  0  0  0
  190.7320  177.0180  143.2760 C   0  0  1  0  0  0  0  0  0  0  0  0
  189.5140  177.6580  144.1200 C   0  0  2  0  0  3  0  0  0  0  0  0
  189.6430  177.5090  141.4250 C   0  0  2  0  0  3  0  0  0  0  0  0
  185.8690  178.4450  143.0250 C   0  0  0  0  0  3  0  0  0  0  0  0
  186.7130  177.7310  145.3710 C   0  0  0  0  0  0  0  0  0  0  0  0
  184.4810  178.7220  145.0530 C   0  0  0  0  0  0  0  0  0  0  0  0
  186.9160  177.7040  143.8630 C   0  0  2  0  0  3  0  0  0  0  0  0
  185.5580  178.1500  145.8820 C   0  0  0  0  0  3  0  0  0  0  0  0
  187.5800  177.1670  146.2460 F   0  0  0  0  0  0  0  0  0  0  0  0
  183.4750  179.0980  145.6600 O   0  0  0  0  0  0  0  0  0  0  0  0
  184.7050  178.8730  143.5950 C   0  0  0  0  0  3  0  0  0  0  0  0
  189.7370  177.4640  139.9850 C   0  0  2  0  0  3  0  0  0  0  0  0
  188.4890  177.0220  139.5460 O   0  0  0  0  0  1  0  0  0  0  0  0
  192.0950  177.0850  139.5570 O   0  0  0  0  0  1  0  0  0  0  0  0
  190.7920  176.5370  139.4680 C   0  0  2  0  0  3  0  0  0  0  0  0
  190.4060  176.0830  138.0670 C   0  0  0  0  0  0  0  0  0  0  0  0
  190.2680  174.8890  137.8400 O   0  0  0  0  0  0  0  0  0  0  0  0
  190.3420  177.0100  136.9770 O   0  0  0  0  0  0  0  0  0  0  0  0
  189.2650  177.2390  136.1440 C   0  0  0  0  0  0  0  0  0  0  0  0
  189.1720  176.5810  135.1010 O   0  0  0  0  0  0  0  0  0  0  0  0
  188.2370  178.3700  136.3770 C   0  0  0  0  0  1  0  0  0  0  0  0
  192.1590  178.6350  144.2430 O   0  0  0  0  0  1  0  0  0  0  0  0
  191.8070  178.0500  143.0010 C   0  0  0  0  0  2  0  0  0  0  0  0
  2  5  1  6  0  0  0
  2 12  1  0  0  0  0
  2  7  1  0  0  0  0
  4  6  1  0  0  0  0
  6  1  1  1  0  0  0
  6  7  1  0  0  0  0
  7  3  1  6  0  0  0
  8 17  1  6  0  0  0
  8  5  1  0  0  0  0
  8  4  1  0  0  0  0
  9 16  2  0  0  0  0
 10 13  2  0  0  0  0
 10 14  1  0  0  0  0
 11 15  2  0  0  0  0
 11 13  1  0  0  0  0
 12  9  1  6  0  0  0
 12 10  1  0  0  0  0
 16 11  1  0  0  0  0
 17 18  1  6  0  0  0
 20 19  1  6  0  0  0
 20 17  1  0  0  0  0
 21 20  1  0  0  0  0
 22 21  2  0  0  0  0
 23 21  1  0  0  0  0
 24 26  1  0  0  0  0
 24 23  1  0  0  0  0
 25 24  2  0  0  0  0
 28  6  1  0  0  0  0
 28 27  1  0  0  0  0
M  END
>  <MODEL>
3

>  <REMARK>
 VINA RESULT:      -7.3      1.856      2.574
  Name = 
  7 active torsions:
  status: ('A' for Active; 'I' for Inactive)
    1  A    between atoms: C_1  and  C_11
    2  A    between atoms: C_1  and  C_27
    3  A    between atoms: C_3  and  C_11
    4  A    between atoms: C_3  and  O_28
    5  A    between atoms: C_6  and  O_28
    6  A    between atoms: N_10  and  C_13
    7  A    between atoms: C_20  and  C_21
                            x       y       z     vdW  Elec       q    Type
                         _______ _______ _______ _____ _____    ______ ____

>  <TORSDO>
F 7

$$$$
=
 OpenBabel10272402013D

 28 29  0  0  1  0  0  0  0  0999 V2000
  191.5250  175.7310  143.6210 C   0  0  0  0  0  1  0  0  0  0  0  0
  188.3230  177.3100  143.1190 N   0  0  1  0  0  0  0  0  0  0  0  0
  189.8240  178.7930  144.5230 F   0  0  0  0  0  0  0  0  0  0  0  0
  190.1320  176.1190  141.8180 O   0  0  0  0  0  0  0  0  0  0  0  0
  188.1150  177.5010  141.7570 O   0  0  0  0  0  0  0  0  0  0  0  0
  190.7500  176.8720  142.7980 C   0  0  1  0  0  0  0  0  0  0  0  0
  189.6480  177.5880  143.7350 C   0  0  2  0  0  3  0  0  0  0  0  0
  189.3640  177.0760  141.0970 C   0  0  2  0  0  3  0  0  0  0  0  0
  185.9020  178.2780  143.1960 C   0  0  0  0  0  3  0  0  0  0  0  0
  187.0560  177.5900  145.4150 C   0  0  0  0  0  0  0  0  0  0  0  0
  184.8220  178.6250  145.3930 C   0  0  0  0  0  0  0  0  0  0  0  0
  187.0430  177.5300  143.8940 C   0  0  2  0  0  3  0  0  0  0  0  0
  185.9940  178.0450  146.0740 C   0  0  0  0  0  3  0  0  0  0  0  0
  188.0270  177.0230  146.1700 F   0  0  0  0  0  0  0  0  0  0  0  0
  183.9200  179.0340  146.1280 O   0  0  0  0  0  0  0  0  0  0  0  0
  184.8400  178.7430  143.9150 C   0  0  0  0  0  3  0  0  0  0  0  0
  189.2360  176.8370  139.6790 C   0  0  2  0  0  3  0  0  0  0  0  0
  189.8710  175.6160  139.4510 O   0  0  0  0  0  1  0  0  0  0  0  0
  189.1460  179.1000  138.8100 O   0  0  0  0  0  1  0  0  0  0  0  0
  189.8730  177.8850  138.8200 C   0  0  2  0  0  3  0  0  0  0  0  0
  190.1240  177.3020  137.4360 C   0  0  0  0  0  0  0  0  0  0  0  0
  189.1730  176.9480  136.7540 O   0  0  0  0  0  0  0  0  0  0  0  0
  191.4510  177.0260  136.9750 O   0  0  0  0  0  0  0  0  0  0  0  0
  192.4150  176.2760  137.6190 C   0  0  0  0  0  0  0  0  0  0  0  0
  193.3690  176.8620  138.1430 O   0  0  0  0  0  0  0  0  0  0  0  0
  192.4380  174.7300  137.6050 C   0  0  0  0  0  1  0  0  0  0  0  0
  192.5640  177.1930  141.3180 O   0  0  0  0  0  1  0  0  0  0  0  0
  191.7180  177.8850  142.2210 C   0  0  0  0  0  2  0  0  0  0  0  0
  2  5  1  6  0  0  0
  2  7  1  0  0  0  0
  2 12  1  0  0  0  0
  4  6  1  0  0  0  0
  6  1  1  1  0  0  0
  6  7  1  0  0  0  0
  7  3  1  6  0  0  0
  8 17  1  6  0  0  0
  8  5  1  0  0  0  0
  8  4  1  0  0  0  0
  9 16  2  0  0  0  0
 10 13  2  0  0  0  0
 10 14  1  0  0  0  0
 11 13  1  0  0  0  0
 11 15  2  0  0  0  0
 12  9  1  6  0  0  0
 12 10  1  0  0  0  0
 16 11  1  0  0  0  0
 17 18  1  1  0  0  0
 20 19  1  6  0  0  0
 20 17  1  0  0  0  0
 21 20  1  0  0  0  0
 22 21  2  0  0  0  0
 23 21  1  0  0  0  0
 23 24  1  0  0  0  0
 24 25  2  0  0  0  0
 26 24  1  0  0  0  0
 27 28  1  0  0  0  0
 28  6  1  0  0  0  0
M  END
>  <MODEL>
4

>  <REMARK>
 VINA RESULT:      -7.1      1.717      3.076
  Name = 
  7 active torsions:
  status: ('A' for Active; 'I' for Inactive)
    1  A    between atoms: C_1  and  C_11
    2  A    between atoms: C_1  and  C_27
    3  A    between atoms: C_3  and  C_11
    4  A    between atoms: C_3  and  O_28
    5  A    between atoms: C_6  and  O_28
    6  A    between atoms: N_10  and  C_13
    7  A    between atoms: C_20  and  C_21
                            x       y       z     vdW  Elec       q    Type
                         _______ _______ _______ _____ _____    ______ ____

>  <TORSDO>
F 7

$$$$
=
 OpenBabel10272402013D

 28 29  0  0  1  0  0  0  0  0999 V2000
  187.9520  176.0410  148.1070 C   0  0  0  0  0  1  0  0  0  0  0  0
  186.9960  178.1850  145.3700 N   0  0  1  0  0  0  0  0  0  0  0  0
  186.5550  179.3360  147.5850 F   0  0  0  0  0  0  0  0  0  0  0  0
  188.9130  176.7190  146.1180 O   0  0  0  0  0  0  0  0  0  0  0  0
  188.1110  178.4440  144.5810 O   0  0  0  0  0  0  0  0  0  0  0  0
  188.3870  177.3230  147.2430 C   0  0  1  0  0  0  0  0  0  0  0  0
  187.0910  178.2040  146.8550 C   0  0  2  0  0  3  0  0  0  0  0  0
  189.2510  177.8160  145.2770 C   0  0  2  0  0  3  0  0  0  0  0  0
  184.4760  178.8400  145.5200 C   0  0  0  0  0  3  0  0  0  0  0  0
  185.4900  178.2520  143.2070 C   0  0  0  0  0  0  0  0  0  0  0  0
  183.0960  178.7640  143.4690 C   0  0  0  0  0  0  0  0  0  0  0  0
  185.7270  178.6120  144.6660 C   0  0  2  0  0  3  0  0  0  0  0  0
  184.2790  178.3890  142.6730 C   0  0  0  0  0  3  0  0  0  0  0  0
  186.4930  177.9700  142.3400 F   0  0  0  0  0  0  0  0  0  0  0  0
  182.0300  178.8270  142.8520 O   0  0  0  0  0  0  0  0  0  0  0  0
  183.2500  178.9580  144.9310 C   0  0  0  0  0  3  0  0  0  0  0  0
  190.4250  177.6400  144.4560 C   0  0  2  0  0  3  0  0  0  0  0  0
  190.2700  178.5290  143.3920 O   0  0  0  0  0  1  0  0  0  0  0  0
  191.9470  175.8460  143.8660 O   0  0  0  0  0  1  0  0  0  0  0  0
  190.5920  176.2550  143.9140 C   0  0  2  0  0  3  0  0  0  0  0  0
  189.8690  176.1590  142.5770 C   0  0  0  0  0  0  0  0  0  0  0  0
  188.6880  175.8420  142.5570 O   0  0  0  0  0  0  0  0  0  0  0  0
  190.5760  176.2900  141.3380 O   0  0  0  0  0  0  0  0  0  0  0  0
  190.0530  176.6750  140.1200 C   0  0  0  0  0  0  0  0  0  0  0  0
  190.3570  176.0250  139.1130 O   0  0  0  0  0  0  0  0  0  0  0  0
  189.2110  177.9570  139.9250 C   0  0  0  0  0  1  0  0  0  0  0  0
  188.9020  178.4040  149.2810 O   0  0  0  0  0  1  0  0  0  0  0  0
  189.4130  178.1590  147.9810 C   0  0  0  0  0  2  0  0  0  0  0  0
  2  5  1  6  0  0  0
  2  7  1  0  0  0  0
  4  6  1  0  0  0  0
  5  8  1  0  0  0  0
  6 28  1  0  0  0  0
  6  1  1  1  0  0  0
  7  6  1  0  0  0  0
  7  3  1  6  0  0  0
  8 17  1  6  0  0  0
  8  4  1  0  0  0  0
 10 12  1  0  0  0  0
 11 16  1  0  0  0  0
 12  2  1  0  0  0  0
 12  9  1  1  0  0  0
 13 10  2  0  0  0  0
 13 11  1  0  0  0  0
 14 10  1  0  0  0  0
 15 11  2  0  0  0  0
 16  9  2  0  0  0  0
 17 18  1  6  0  0  0
 20 19  1  6  0  0  0
 20 17  1  0  0  0  0
 21 20  1  0  0  0  0
 22 21  2  0  0  0  0
 23 21  1  0  0  0  0
 24 23  1  0  0  0  0
 25 24  2  0  0  0  0
 26 24  1  0  0  0  0
 28 27  1  0  0  0  0
M  END
>  <MODEL>
5

>  <REMARK>
 VINA RESULT:      -7.1      2.578      4.861
  Name = 
  7 active torsions:
  status: ('A' for Active; 'I' for Inactive)
    1  A    between atoms: C_1  and  C_11
    2  A    between atoms: C_1  and  C_27
    3  A    between atoms: C_3  and  C_11
    4  A    between atoms: C_3  and  O_28
    5  A    between atoms: C_6  and  O_28
    6  A    between atoms: N_10  and  C_13
    7  A    between atoms: C_20  and  C_21
                            x       y       z     vdW  Elec       q    Type
                         _______ _______ _______ _____ _____    ______ ____

>  <TORSDO>
F 7

$$$$
=
 OpenBabel10272402013D

 28 29  0  0  1  0  0  0  0  0999 V2000
  191.8680  179.2980  144.4090 C   0  0  0  0  0  1  0  0  0  0  0  0
  189.8020  177.4110  142.1350 N   0  0  1  0  0  0  0  0  0  0  0  0
  192.1620  176.4880  142.1510 F   0  0  0  0  0  0  0  0  0  0  0  0
  189.7730  178.3260  144.4900 O   0  0  0  0  0  0  0  0  0  0  0  0
  188.7500  176.8370  142.8410 O   0  0  0  0  0  0  0  0  0  0  0  0
  191.0640  177.9200  144.2170 C   0  0  1  0  0  0  0  0  0  0  0  0
  191.1830  177.4120  142.6890 C   0  0  2  0  0  3  0  0  0  0  0  0
  188.9980  177.1540  144.2600 C   0  0  2  0  0  3  0  0  0  0  0  0
  190.7180  176.8430  139.7600 C   0  0  0  0  0  3  0  0  0  0  0  0
  188.5190  178.2020  139.9710 C   0  0  0  0  0  0  0  0  0  0  0  0
  189.5290  177.7210  137.7770 C   0  0  0  0  0  0  0  0  0  0  0  0
  189.5620  177.3210  140.6440 C   0  0  2  0  0  3  0  0  0  0  0  0
  188.4960  178.3170  138.6460 C   0  0  0  0  0  3  0  0  0  0  0  0
  187.4680  178.7440  140.6330 F   0  0  0  0  0  0  0  0  0  0  0  0
  189.4010  177.9290  136.5680 O   0  0  0  0  0  0  0  0  0  0  0  0
  190.6600  176.9970  138.4050 C   0  0  0  0  0  3  0  0  0  0  0  0
  187.8510  176.9830  145.1180 C   0  0  2  0  0  3  0  0  0  0  0  0
  186.7540  176.9080  144.2590 O   0  0  0  0  0  1  0  0  0  0  0  0
  188.2290  177.8590  147.3480 O   0  0  0  0  0  1  0  0  0  0  0  0
  187.6350  178.1040  146.0860 C   0  0  2  0  0  3  0  0  0  0  0  0
  186.1460  178.4180  146.1530 C   0  0  0  0  0  0  0  0  0  0  0  0
  185.4360  177.7900  146.9260 O   0  0  0  0  0  0  0  0  0  0  0  0
  185.5360  179.3270  145.2300 O   0  0  0  0  0  0  0  0  0  0  0  0
  184.2990  179.1980  144.6310 C   0  0  0  0  0  0  0  0  0  0  0  0
  183.2900  179.2240  145.3450 O   0  0  0  0  0  0  0  0  0  0  0  0
  184.1120  178.8890  143.1280 C   0  0  0  0  0  1  0  0  0  0  0  0
  191.5510  177.4390  146.4790 O   0  0  0  0  0  1  0  0  0  0  0  0
  191.5520  176.8610  145.1840 C   0  0  0  0  0  2  0  0  0  0  0  0
  2  7  1  0  0  0  0
  2  5  1  1  0  0  0
  5  8  1  0  0  0  0
  6  1  1  1  0  0  0
  6  4  1  0  0  0  0
  6 28  1  0  0  0  0
  7  3  1  1  0  0  0
  7  6  1  0  0  0  0
  8  4  1  0  0  0  0
  8 17  1  1  0  0  0
 10 14  1  0  0  0  0
 10 12  1  0  0  0  0
 11 16  1  0  0  0  0
 11 13  1  0  0  0  0
 12  9  1  6  0  0  0
 12  2  1  0  0  0  0
 13 10  2  0  0  0  0
 15 11  2  0  0  0  0
 16  9  2  0  0  0  0
 17 18  1  6  0  0  0
 17 20  1  0  0  0  0
 20 21  1  0  0  0  0
 20 19  1  1  0  0  0
 21 22  2  0  0  0  0
 23 21  1  0  0  0  0
 24 23  1  0  0  0  0
 24 25  2  0  0  0  0
 26 24  1  0  0  0  0
 28 27  1  0  0  0  0
M  END
>  <MODEL>
6

>  <REMARK>
 VINA RESULT:      -7.1      2.646      6.102
  Name = 
  7 active torsions:
  status: ('A' for Active; 'I' for Inactive)
    1  A    between atoms: C_1  and  C_11
    2  A    between atoms: C_1  and  C_27
    3  A    between atoms: C_3  and  C_11
    4  A    between atoms: C_3  and  O_28
    5  A    between atoms: C_6  and  O_28
    6  A    between atoms: N_10  and  C_13
    7  A    between atoms: C_20  and  C_21
                            x       y       z     vdW  Elec       q    Type
                         _______ _______ _______ _____ _____    ______ ____

>  <TORSDO>
F 7

$$$$
=
 OpenBabel10272402013D

 28 29  0  0  1  0  0  0  0  0999 V2000
  188.9970  179.1650  137.3600 C   0  0  0  0  0  1  0  0  0  0  0  0
  186.9490  178.4170  140.2320 N   0  0  1  0  0  0  0  0  0  0  0  0
  186.1730  177.0770  138.2260 F   0  0  0  0  0  0  0  0  0  0  0  0
  189.3790  178.6420  139.5780 O   0  0  0  0  0  0  0  0  0  0  0  0
  187.7490  177.8920  141.2410 O   0  0  0  0  0  0  0  0  0  0  0  0
  188.7100  178.0790  138.5090 C   0  0  1  0  0  0  0  0  0  0  0  0
  187.1280  177.9940  138.8170 C   0  0  2  0  0  3  0  0  0  0  0  0
  189.0960  177.7540  140.6540 C   0  0  2  0  0  3  0  0  0  0  0  0
  185.2280  178.3460  142.1910 C   0  0  0  0  0  3  0  0  0  0  0  0
  184.4130  179.0110  139.8200 C   0  0  0  0  0  0  0  0  0  0  0  0
  182.8450  178.7970  141.7070 C   0  0  0  0  0  0  0  0  0  0  0  0
  185.5830  178.7870  140.7670 C   0  0  2  0  0  3  0  0  0  0  0  0
  183.1710  179.0680  140.2950 C   0  0  0  0  0  3  0  0  0  0  0  0
  184.5670  179.3510  138.5180 F   0  0  0  0  0  0  0  0  0  0  0  0
  181.6500  178.8570  142.0050 O   0  0  0  0  0  0  0  0  0  0  0  0
  183.9380  178.4060  142.6310 C   0  0  0  0  0  3  0  0  0  0  0  0
  190.1530  177.5850  141.6230 C   0  0  2  0  0  3  0  0  0  0  0  0
  190.3220  176.2060  141.7480 O   0  0  0  0  0  1  0  0  0  0  0  0
  190.8380  179.0750  143.4100 O   0  0  0  0  0  1  0  0  0  0  0  0
  189.8490  178.1630  142.9700 C   0  0  2  0  0  3  0  0  0  0  0  0
  189.5790  177.0250  143.9450 C   0  0  0  0  0  0  0  0  0  0  0  0
  188.4380  176.6010  144.0700 O   0  0  0  0  0  0  0  0  0  0  0  0
  190.6010  176.5390  144.8220 O   0  0  0  0  0  0  0  0  0  0  0  0
  190.8220  176.9170  146.1310 C   0  0  0  0  0  0  0  0  0  0  0  0
  191.9800  176.9100  146.5620 O   0  0  0  0  0  0  0  0  0  0  0  0
  189.6820  177.2220  147.1300 C   0  0  0  0  0  1  0  0  0  0  0  0
  190.5110  176.9400  137.4880 O   0  0  0  0  0  1  0  0  0  0  0  0
  189.2670  176.7210  138.1320 C   0  0  0  0  0  2  0  0  0  0  0  0
  2 12  1  0  0  0  0
  2  5  1  1  0  0  0
  4  8  1  0  0  0  0
  6  1  1  6  0  0  0
  6  7  1  0  0  0  0
  6  4  1  0  0  0  0
  7  3  1  1  0  0  0
  7  2  1  0  0  0  0
  8  5  1  0  0  0  0
  8 17  1  1  0  0  0
  9 16  2  0  0  0  0
 10 13  2  0  0  0  0
 10 12  1  0  0  0  0
 11 15  2  0  0  0  0
 11 16  1  0  0  0  0
 12  9  1  1  0  0  0
 13 11  1  0  0  0  0
 14 10  1  0  0  0  0
 17 18  1  1  0  0  0
 17 20  1  0  0  0  0
 20 19  1  1  0  0  0
 20 21  1  0  0  0  0
 21 22  2  0  0  0  0
 21 23  1  0  0  0  0
 23 24  1  0  0  0  0
 24 25  2  0  0  0  0
 24 26  1  0  0  0  0
 27 28  1  0  0  0  0
 28  6  1  0  0  0  0
M  END
>  <MODEL>
7

>  <REMARK>
 VINA RESULT:      -6.8      3.022      5.750
  Name = 
  7 active torsions:
  status: ('A' for Active; 'I' for Inactive)
    1  A    between atoms: C_1  and  C_11
    2  A    between atoms: C_1  and  C_27
    3  A    between atoms: C_3  and  C_11
    4  A    between atoms: C_3  and  O_28
    5  A    between atoms: C_6  and  O_28
    6  A    between atoms: N_10  and  C_13
    7  A    between atoms: C_20  and  C_21
                            x       y       z     vdW  Elec       q    Type
                         _______ _______ _______ _____ _____    ______ ____

>  <TORSDO>
F 7

$$$$
=
 OpenBabel10272402013D

 28 29  0  0  1  0  0  0  0  0999 V2000
  185.1670  179.9400  143.8060 C   0  0  0  0  0  1  0  0  0  0  0  0
  188.0070  177.7190  143.8570 N   0  0  1  0  0  0  0  0  0  0  0  0
  185.9750  176.5710  144.8460 F   0  0  0  0  0  0  0  0  0  0  0  0
  186.7910  179.2900  142.2960 O   0  0  0  0  0  0  0  0  0  0  0  0
  188.4480  177.5090  142.5550 O   0  0  0  0  0  0  0  0  0  0  0  0
  185.8430  178.6720  143.0870 C   0  0  1  0  0  0  0  0  0  0  0  0
  186.5550  177.7220  144.1810 C   0  0  2  0  0  3  0  0  0  0  0  0
  187.4770  178.2020  141.6860 C   0  0  2  0  0  3  0  0  0  0  0  0
  188.6790  177.3200  146.3450 C   0  0  0  0  0  3  0  0  0  0  0  0
  190.5080  177.2000  144.5100 C   0  0  0  0  0  0  0  0  0  0  0  0
  191.0620  176.9580  146.8980 C   0  0  0  0  0  0  0  0  0  0  0  0
  189.0270  177.2190  144.8560 C   0  0  2  0  0  3  0  0  0  0  0  0
  191.4150  177.0190  145.4670 C   0  0  0  0  0  3  0  0  0  0  0  0
  190.9720  177.1660  143.2380 F   0  0  0  0  0  0  0  0  0  0  0  0
  192.0060  176.8160  147.6790 O   0  0  0  0  0  0  0  0  0  0  0  0
  189.6460  177.1450  147.2930 C   0  0  0  0  0  3  0  0  0  0  0  0
  187.9410  178.4300  140.3380 C   0  0  2  0  0  3  0  0  0  0  0  0
  186.7890  178.4820  139.5540 O   0  0  0  0  0  1  0  0  0  0  0  0
  190.2130  177.6440  140.0150 O   0  0  0  0  0  1  0  0  0  0  0  0
  188.8420  177.3580  139.8100 C   0  0  2  0  0  3  0  0  0  0  0  0
  188.4790  177.0800  138.3570 C   0  0  0  0  0  0  0  0  0  0  0  0
  187.9890  176.0000  138.0580 O   0  0  0  0  0  0  0  0  0  0  0  0
  188.8300  177.9980  137.3150 O   0  0  0  0  0  0  0  0  0  0  0  0
  187.9780  178.5770  136.3970 C   0  0  0  0  0  0  0  0  0  0  0  0
  187.4620  179.6660  136.6730 O   0  0  0  0  0  0  0  0  0  0  0  0
  187.5280  177.8750  135.0940 C   0  0  0  0  0  1  0  0  0  0  0  0
  184.0140  178.8470  141.6010 O   0  0  0  0  0  1  0  0  0  0  0  0
  184.8270  177.8990  142.2710 C   0  0  0  0  0  2  0  0  0  0  0  0
  2  5  1  6  0  0  0
  2  7  1  0  0  0  0
  2 12  1  0  0  0  0
  4  6  1  0  0  0  0
  6  1  1  1  0  0  0
  6  7  1  0  0  0  0
  7  3  1  6  0  0  0
  8 17  1  6  0  0  0
  8  4  1  0  0  0  0
  8  5  1  0  0  0  0
  9 16  2  0  0  0  0
 10 12  1  0  0  0  0
 10 13  2  0  0  0  0
 11 16  1  0  0  0  0
 11 15  2  0  0  0  0
 12  9  1  1  0  0  0
 13 11  1  0  0  0  0
 14 10  1  0  0  0  0
 17 18  1  6  0  0  0
 20 19  1  6  0  0  0
 20 17  1  0  0  0  0
 21 20  1  0  0  0  0
 22 21  2  0  0  0  0
 23 21  1  0  0  0  0
 24 25  2  0  0  0  0
 24 23  1  0  0  0  0
 26 24  1  0  0  0  0
 27 28  1  0  0  0  0
 28  6  1  0  0  0  0
M  END
>  <MODEL>
8

>  <REMARK>
 VINA RESULT:      -6.6      2.265      4.625
  Name = 
  7 active torsions:
  status: ('A' for Active; 'I' for Inactive)
    1  A    between atoms: C_1  and  C_11
    2  A    between atoms: C_1  and  C_27
    3  A    between atoms: C_3  and  C_11
    4  A    between atoms: C_3  and  O_28
    5  A    between atoms: C_6  and  O_28
    6  A    between atoms: N_10  and  C_13
    7  A    between atoms: C_20  and  C_21
                            x       y       z     vdW  Elec       q    Type
                         _______ _______ _______ _____ _____    ______ ____

>  <TORSDO>
F 7

$$$$
=
 OpenBabel10272402013D

 28 29  0  0  1  0  0  0  0  0999 V2000
  183.4190  179.9190  138.8050 C   0  0  0  0  0  1  0  0  0  0  0  0
  185.8060  178.5860  141.1560 N   0  0  1  0  0  0  0  0  0  0  0  0
  183.6740  177.2160  141.1940 F   0  0  0  0  0  0  0  0  0  0  0  0
  185.6650  179.3770  138.7600 O   0  0  0  0  0  0  0  0  0  0  0  0
  186.9530  178.1980  140.4730 O   0  0  0  0  0  0  0  0  0  0  0  0
  184.4780  178.7380  139.0580 C   0  0  1  0  0  0  0  0  0  0  0  0
  184.4550  178.2880  140.6090 C   0  0  2  0  0  3  0  0  0  0  0  0
  186.6540  178.3920  139.0420 C   0  0  2  0  0  3  0  0  0  0  0  0
  187.1060  177.6610  143.2190 C   0  0  0  0  0  3  0  0  0  0  0  0
  184.9580  179.0620  143.6070 C   0  0  0  0  0  0  0  0  0  0  0  0
  186.1860  178.0440  145.4830 C   0  0  0  0  0  0  0  0  0  0  0  0
  186.0520  178.6160  142.6480 C   0  0  2  0  0  3  0  0  0  0  0  0
  185.0800  178.8350  144.9120 C   0  0  0  0  0  3  0  0  0  0  0  0
  183.9290  179.8620  143.2370 F   0  0  0  0  0  0  0  0  0  0  0  0
  186.1610  177.8870  146.7060 O   0  0  0  0  0  0  0  0  0  0  0  0
  187.1840  177.4430  144.5640 C   0  0  0  0  0  3  0  0  0  0  0  0
  187.8170  178.4100  138.1870 C   0  0  2  0  0  3  0  0  0  0  0  0
  187.4520  179.1750  137.0800 O   0  0  0  0  0  1  0  0  0  0  0  0
  187.2620  176.0660  137.9020 O   0  0  0  0  0  1  0  0  0  0  0  0
  188.2570  177.0570  137.7210 C   0  0  2  0  0  3  0  0  0  0  0  0
  189.5910  176.7210  138.3730 C   0  0  0  0  0  0  0  0  0  0  0  0
  190.0580  175.5980  138.2380 O   0  0  0  0  0  0  0  0  0  0  0  0
  190.2400  177.6410  139.2570 O   0  0  0  0  0  0  0  0  0  0  0  0
  190.8160  177.3550  140.4790 C   0  0  0  0  0  0  0  0  0  0  0  0
  191.9980  177.6660  140.6640 O   0  0  0  0  0  0  0  0  0  0  0  0
  190.1010  176.5440  141.5850 C   0  0  0  0  0  1  0  0  0  0  0  0
  182.9980  177.8190  137.4620 O   0  0  0  0  0  1  0  0  0  0  0  0
  184.2130  177.5590  138.1440 C   0  0  0  0  0  2  0  0  0  0  0  0
  2  5  1  6  0  0  0
  2 12  1  0  0  0  0
  4  8  1  0  0  0  0
  4  6  1  0  0  0  0
  6  1  1  6  0  0  0
  6  7  1  0  0  0  0
  7  2  1  0  0  0  0
  7  3  1  6  0  0  0
  8 17  1  6  0  0  0
  8  5  1  0  0  0  0
  9 16  2  0  0  0  0
 10 13  2  0  0  0  0
 11 15  2  0  0  0  0
 12  9  1  1  0  0  0
 12 10  1  0  0  0  0
 13 11  1  0  0  0  0
 14 10  1  0  0  0  0
 16 11  1  0  0  0  0
 17 18  1  6  0  0  0
 20 19  1  1  0  0  0
 20 17  1  0  0  0  0
 20 21  1  0  0  0  0
 21 23  1  0  0  0  0
 22 21  2  0  0  0  0
 23 24  1  0  0  0  0
 24 25  2  0  0  0  0
 24 26  1  0  0  0  0
 27 28  1  0  0  0  0
 28  6  1  0  0  0  0
M  END
>  <MODEL>
9

>  <REMARK>
 VINA RESULT:      -6.6      2.231      5.231
  Name = 
  7 active torsions:
  status: ('A' for Active; 'I' for Inactive)
    1  A    between atoms: C_1  and  C_11
    2  A    between atoms: C_1  and  C_27
    3  A    between atoms: C_3  and  C_11
    4  A    between atoms: C_3  and  O_28
    5  A    between atoms: C_6  and  O_28
    6  A    between atoms: N_10  and  C_13
    7  A    between atoms: C_20  and  C_21
                            x       y       z     vdW  Elec       q    Type
                         _______ _______ _______ _____ _____    ______ ____

>  <TORSDO>
F 7

$$$$
