=
 OpenBabel10272402073D

 32 37  0  0  1  0  0  0  0  0999 V2000
  190.6810  175.7000  137.9650 C   0  0  1  0  0  3  0  0  0  0  0  0
  192.5170  174.2500  137.7080 C   0  0  0  0  0  2  0  0  0  0  0  0
  189.3570  175.7020  137.1920 C   0  0  0  0  0  2  0  0  0  0  0  0
  191.8790  175.4460  137.1390 N   0  0  1  0  0  0  0  0  0  0  0  0
  193.5590  173.5930  136.7870 C   0  0  1  0  0  0  0  0  0  0  0  0
  193.7180  171.2990  136.2150 C   0  0  0  0  0  0  0  0  0  0  0  0
  195.0160  171.3890  136.9190 C   0  0  2  0  0  3  0  0  0  0  0  0
  191.5840  175.2350  135.7070 C   0  0  2  0  0  3  0  0  0  0  0  0
  194.9660  172.9840  137.8010 S   0  0  0  0  0  0  0  0  0  0  0  0
  192.8820  175.1830  134.8980 C   0  0  0  0  0  2  0  0  0  0  0  0
  190.7160  176.3620  135.1450 C   0  0  0  0  0  2  0  0  0  0  0  0
  192.9680  172.4560  136.1800 O   0  0  0  0  0  0  0  0  0  0  0  0
  194.0420  174.5460  135.6730 C   0  0  1  0  0  3  0  0  0  0  0  0
  189.4380  176.5920  135.9550 C   0  0  0  0  0  2  0  0  0  0  0  0
  193.3100  170.2320  135.6860 O   0  0  0  0  0  0  0  0  0  0  0  0
  197.4170  170.8820  136.5610 C   0  0  0  0  0  2  0  0  0  0  0  0
  196.1520  171.4040  135.9090 C   0  0  0  0  0  3  0  0  0  0  0  0
  196.6140  169.9860  135.6430 C   0  0  0  0  0  2  0  0  0  0  0  0
  195.0630  175.6030  136.1130 C   0  0  0  0  0  2  0  0  0  0  0  0
  194.6260  176.8950  135.8180 O   0  0  0  0  0  1  0  0  0  0  0  0
  192.1700  177.0730  139.2620 O   0  0  0  0  0  1  0  0  0  0  0  0
  190.8500  176.9680  138.8110 C   0  0  2  0  0  3  0  0  0  0  0  0
  188.1860  177.2280  142.0850 O   0  0  0  0  0  0  0  0  0  0  0  0
  187.9930  178.2380  141.1190 C   0  0  0  0  0  2  0  0  0  0  0  0
  189.5580  177.1810  142.4640 C   0  0  1  0  0  3  0  0  0  0  0  0
  189.8790  176.9660  139.9960 C   0  0  1  0  0  3  0  0  0  0  0  0
  190.5670  177.3230  141.3100 C   0  0  0  0  0  2  0  0  0  0  0  0
  188.6460  177.8690  139.7820 C   0  0  2  0  0  3  0  0  0  0  0  0
  188.9940  179.0460  139.1150 O   0  0  0  0  0  1  0  0  0  0  0  0
  189.9400  178.0170  143.6980 C   0  0  0  0  0  3  0  0  0  0  0  0
  188.9570  177.8120  144.8370 C   0  0  0  0  0  2  0  0  0  0  0  0
  190.3230  177.1630  144.8960 C   0  0  0  0  0  2  0  0  0  0  0  0
  1 22  1  6  0  0  0
  3  1  1  0  0  0  0
  4  2  1  1  0  0  0
  4  1  1  0  0  0  0
  5  2  1  1  0  0  0
  5  9  1  0  0  0  0
  6  7  1  0  0  0  0
  7 17  1  6  0  0  0
  7  9  1  0  0  0  0
  8 10  1  6  0  0  0
  8  4  1  0  0  0  0
 10 13  1  0  0  0  0
 11  8  1  0  0  0  0
 11 14  1  0  0  0  0
 12  6  1  0  0  0  0
 12  5  1  0  0  0  0
 13 19  1  1  0  0  0
 13  5  1  0  0  0  0
 14  3  1  0  0  0  0
 15  6  2  0  0  0  0
 17 16  1  0  0  0  0
 18 17  1  0  0  0  0
 18 16  1  0  0  0  0
 20 19  1  0  0  0  0
 22 21  1  1  0  0  0
 23 25  1  0  0  0  0
 24 23  1  0  0  0  0
 25 30  1  1  0  0  0
 26 22  1  6  0  0  0
 26 27  1  0  0  0  0
 27 25  1  0  0  0  0
 28 29  1  1  0  0  0
 28 26  1  0  0  0  0
 28 24  1  0  0  0  0
 30 31  1  0  0  0  0
 30 32  1  0  0  0  0
 31 32  1  0  0  0  0
M  END
>  <MODEL>
1

>  <REMARK>
 VINA RESULT:      -6.5      0.000      0.000
  Name = 
  5 active torsions:
  status: ('A' for Active; 'I' for Inactive)
    1  A    between atoms: C_1  and  C_27
    2  A    between atoms: C_7  and  C_15
    3  A    between atoms: C_11  and  C_12
    4  A    between atoms: C_13  and  C_29
    5  A    between atoms: C_16  and  C_27
                            x       y       z     vdW  Elec       q    Type
                         _______ _______ _______ _____ _____    ______ ____

>  <TORSDO>
F 5

$$$$
=
 OpenBabel10272402073D

 32 37  0  0  1  0  0  0  0  0999 V2000
  184.8300  177.1640  138.0260 C   0  0  1  0  0  3  0  0  0  0  0  0
  187.1520  176.9060  138.3120 C   0  0  0  0  0  2  0  0  0  0  0  0
  183.8910  176.3640  137.1140 C   0  0  0  0  0  2  0  0  0  0  0  0
  186.1390  177.4970  137.4260 N   0  0  1  0  0  0  0  0  0  0  0  0
  188.5540  176.8070  137.6890 C   0  0  1  0  0  0  0  0  0  0  0  0
  189.9710  174.9080  137.6470 C   0  0  0  0  0  0  0  0  0  0  0  0
  190.8560  175.7620  138.4690 C   0  0  2  0  0  3  0  0  0  0  0  0
  186.3100  176.9940  136.0480 C   0  0  2  0  0  3  0  0  0  0  0  0
  189.8160  177.1720  138.9750 S   0  0  0  0  0  0  0  0  0  0  0  0
  187.5970  177.5510  135.4340 C   0  0  0  0  0  2  0  0  0  0  0  0
  185.1380  177.4050  135.1550 C   0  0  0  0  0  2  0  0  0  0  0  0
  188.7670  175.4690  137.2730 O   0  0  0  0  0  0  0  0  0  0  0  0
  188.7190  177.7330  136.4640 C   0  0  1  0  0  3  0  0  0  0  0  0
  183.7790  177.0060  135.7340 C   0  0  0  0  0  2  0  0  0  0  0  0
  190.2830  173.7350  137.3140 O   0  0  0  0  0  0  0  0  0  0  0  0
  193.2010  176.5680  138.5230 C   0  0  0  0  0  2  0  0  0  0  0  0
  192.0170  176.2660  137.6260 C   0  0  0  0  0  3  0  0  0  0  0  0
  193.1710  175.2880  137.7160 C   0  0  0  0  0  2  0  0  0  0  0  0
  188.9420  179.2150  136.7890 C   0  0  0  0  0  2  0  0  0  0  0  0
  187.7530  179.9430  136.7140 O   0  0  0  0  0  1  0  0  0  0  0  0
  185.0270  179.5000  138.5610 O   0  0  0  0  0  1  0  0  0  0  0  0
  184.1470  178.4140  138.5930 C   0  0  2  0  0  3  0  0  0  0  0  0
  182.7230  177.9820  142.5520 O   0  0  0  0  0  0  0  0  0  0  0  0
  181.9160  178.8160  141.7500 C   0  0  0  0  0  2  0  0  0  0  0  0
  184.0810  178.4090  142.4730 C   0  0  1  0  0  3  0  0  0  0  0  0
  183.6570  178.1650  140.0240 C   0  0  1  0  0  3  0  0  0  0  0  0
  184.5680  178.8040  141.0670 C   0  0  0  0  0  2  0  0  0  0  0  0
  182.1950  178.6010  140.2580 C   0  0  2  0  0  3  0  0  0  0  0  0
  181.9090  179.7860  139.5760 O   0  0  0  0  0  1  0  0  0  0  0  0
  184.5370  179.3950  143.5630 C   0  0  0  0  0  3  0  0  0  0  0  0
  183.8590  179.1110  144.8920 C   0  0  0  0  0  2  0  0  0  0  0  0
  185.3070  178.7210  144.6860 C   0  0  0  0  0  2  0  0  0  0  0  0
  1 22  1  6  0  0  0
  3  1  1  0  0  0  0
  4  1  1  0  0  0  0
  4  2  1  1  0  0  0
  5  2  1  1  0  0  0
  5  9  1  0  0  0  0
  6  7  1  0  0  0  0
  7 17  1  6  0  0  0
  7  9  1  0  0  0  0
  8 11  1  6  0  0  0
  8  4  1  0  0  0  0
 10  8  1  0  0  0  0
 10 13  1  0  0  0  0
 11 14  1  0  0  0  0
 12  6  1  0  0  0  0
 12  5  1  0  0  0  0
 13 19  1  1  0  0  0
 13  5  1  0  0  0  0
 14  3  1  0  0  0  0
 15  6  2  0  0  0  0
 17 18  1  0  0  0  0
 17 16  1  0  0  0  0
 18 16  1  0  0  0  0
 20 19  1  0  0  0  0
 22 21  1  1  0  0  0
 24 23  1  0  0  0  0
 25 23  1  0  0  0  0
 25 30  1  1  0  0  0
 26 22  1  6  0  0  0
 26 28  1  0  0  0  0
 26 27  1  0  0  0  0
 27 25  1  0  0  0  0
 28 29  1  6  0  0  0
 28 24  1  0  0  0  0
 30 32  1  0  0  0  0
 30 31  1  0  0  0  0
 32 31  1  0  0  0  0
M  END
>  <MODEL>
2

>  <REMARK>
 VINA RESULT:      -6.5      4.191      6.182
  Name = 
  5 active torsions:
  status: ('A' for Active; 'I' for Inactive)
    1  A    between atoms: C_1  and  C_27
    2  A    between atoms: C_7  and  C_15
    3  A    between atoms: C_11  and  C_12
    4  A    between atoms: C_13  and  C_29
    5  A    between atoms: C_16  and  C_27
                            x       y       z     vdW  Elec       q    Type
                         _______ _______ _______ _____ _____    ______ ____

>  <TORSDO>
F 5

$$$$
=
 OpenBabel10272402073D

 32 37  0  0  1  0  0  0  0  0999 V2000
  182.8560  178.2490  140.7010 C   0  0  1  0  0  3  0  0  0  0  0  0
  183.2530  176.4300  139.2620 C   0  0  0  0  0  2  0  0  0  0  0  0
  181.5200  178.9290  141.0270 C   0  0  0  0  0  2  0  0  0  0  0  0
  183.0330  177.8830  139.2810 N   0  0  1  0  0  0  0  0  0  0  0  0
  183.0880  175.7850  137.8760 C   0  0  1  0  0  0  0  0  0  0  0  0
  181.8100  173.8640  137.3350 C   0  0  0  0  0  0  0  0  0  0  0  0
  183.1290  173.2970  136.9770 C   0  0  2  0  0  3  0  0  0  0  0  0
  181.8830  178.2370  138.4250 C   0  0  2  0  0  3  0  0  0  0  0  0
  184.3480  174.4630  137.6690 S   0  0  0  0  0  0  0  0  0  0  0  0
  182.2270  178.0110  136.9500 C   0  0  0  0  0  2  0  0  0  0  0  0
  181.4840  179.7020  138.6040 C   0  0  0  0  0  2  0  0  0  0  0  0
  181.8190  175.1550  137.8220 O   0  0  0  0  0  0  0  0  0  0  0  0
  183.1690  176.8200  136.7330 C   0  0  1  0  0  3  0  0  0  0  0  0
  181.2330  180.0780  140.0650 C   0  0  0  0  0  2  0  0  0  0  0  0
  180.7400  173.2120  137.2160 O   0  0  0  0  0  0  0  0  0  0  0  0
  184.2290  172.1320  135.0840 C   0  0  0  0  0  2  0  0  0  0  0  0
  183.2770  173.2490  135.4640 C   0  0  0  0  0  3  0  0  0  0  0  0
  182.7350  171.9330  134.9430 C   0  0  0  0  0  2  0  0  0  0  0  0
  184.5840  177.2890  136.3730 C   0  0  0  0  0  2  0  0  0  0  0  0
  184.9260  176.9370  135.0670 O   0  0  0  0  0  1  0  0  0  0  0  0
  184.8600  179.4570  140.1470 O   0  0  0  0  0  1  0  0  0  0  0  0
  184.0500  179.0620  141.2160 C   0  0  2  0  0  3  0  0  0  0  0  0
  186.3570  177.0560  144.1390 O   0  0  0  0  0  0  0  0  0  0  0  0
  185.6180  178.1440  144.6520 C   0  0  0  0  0  2  0  0  0  0  0  0
  187.1090  177.4790  143.0040 C   0  0  1  0  0  3  0  0  0  0  0  0
  184.8630  178.2530  142.2330 C   0  0  1  0  0  3  0  0  0  0  0  0
  186.3660  178.4130  142.0310 C   0  0  0  0  0  2  0  0  0  0  0  0
  184.4890  178.5550  143.6990 C   0  0  2  0  0  3  0  0  0  0  0  0
  184.2250  179.9140  143.8810 O   0  0  0  0  0  1  0  0  0  0  0  0
  188.5500  177.9370  143.2890 C   0  0  0  0  0  3  0  0  0  0  0  0
  189.1610  177.1670  144.4460 C   0  0  0  0  0  2  0  0  0  0  0  0
  189.5790  176.8510  143.0260 C   0  0  0  0  0  2  0  0  0  0  0  0
  1  3  1  0  0  0  0
  1 22  1  6  0  0  0
  4  2  1  1  0  0  0
  4  1  1  0  0  0  0
  5  2  1  1  0  0  0
  6 12  1  0  0  0  0
  7 17  1  6  0  0  0
  7  6  1  0  0  0  0
  7  9  1  0  0  0  0
  8 10  1  6  0  0  0
  8 11  1  0  0  0  0
  8  4  1  0  0  0  0
  9  5  1  0  0  0  0
 11 14  1  0  0  0  0
 12  5  1  0  0  0  0
 13 19  1  1  0  0  0
 13 10  1  0  0  0  0
 13  5  1  0  0  0  0
 14  3  1  0  0  0  0
 15  6  2  0  0  0  0
 16 17  1  0  0  0  0
 18 16  1  0  0  0  0
 18 17  1  0  0  0  0
 20 19  1  0  0  0  0
 22 21  1  6  0  0  0
 23 24  1  0  0  0  0
 25 30  1  1  0  0  0
 25 23  1  0  0  0  0
 26 22  1  6  0  0  0
 26 28  1  0  0  0  0
 27 26  1  0  0  0  0
 27 25  1  0  0  0  0
 28 29  1  6  0  0  0
 28 24  1  0  0  0  0
 30 31  1  0  0  0  0
 32 30  1  0  0  0  0
 32 31  1  0  0  0  0
M  END
>  <MODEL>
3

>  <REMARK>
 VINA RESULT:      -6.4      7.400      9.312
  Name = 
  5 active torsions:
  status: ('A' for Active; 'I' for Inactive)
    1  A    between atoms: C_1  and  C_27
    2  A    between atoms: C_7  and  C_15
    3  A    between atoms: C_11  and  C_12
    4  A    between atoms: C_13  and  C_29
    5  A    between atoms: C_16  and  C_27
                            x       y       z     vdW  Elec       q    Type
                         _______ _______ _______ _____ _____    ______ ____

>  <TORSDO>
F 5

$$$$
=
 OpenBabel10272402073D

 32 37  0  0  1  0  0  0  0  0999 V2000
  188.7630  176.6740  137.0260 C   0  0  1  0  0  3  0  0  0  0  0  0
  186.9630  175.1580  137.0660 C   0  0  0  0  0  2  0  0  0  0  0  0
  189.1610  177.6470  135.9090 C   0  0  0  0  0  2  0  0  0  0  0  0
  188.3310  175.3400  136.5590 N   0  0  1  0  0  0  0  0  0  0  0  0
  186.1880  174.0130  136.3920 C   0  0  1  0  0  0  0  0  0  0  0  0
  184.0000  174.1040  135.4890 C   0  0  0  0  0  0  0  0  0  0  0  0
  183.7050  173.1160  136.5500 C   0  0  2  0  0  3  0  0  0  0  0  0
  188.3570  175.1840  135.0910 C   0  0  2  0  0  3  0  0  0  0  0  0
  185.1580  173.1560  137.6500 S   0  0  0  0  0  0  0  0  0  0  0  0
  188.0940  173.7250  134.7060 C   0  0  0  0  0  2  0  0  0  0  0  0
  189.7120  175.5940  134.5100 C   0  0  0  0  0  2  0  0  0  0  0  0
  185.2970  174.5730  135.4430 O   0  0  0  0  0  0  0  0  0  0  0  0
  187.1220  173.0230  135.6620 C   0  0  1  0  0  3  0  0  0  0  0  0
  190.1400  177.0000  134.9330 C   0  0  0  0  0  2  0  0  0  0  0  0
  183.1240  174.5070  134.6790 O   0  0  0  0  0  0  0  0  0  0  0  0
  182.6770  170.8750  136.8210 C   0  0  0  0  0  2  0  0  0  0  0  0
  183.5680  171.7300  135.9410 C   0  0  0  0  0  3  0  0  0  0  0  0
  182.1240  171.4860  135.5520 C   0  0  0  0  0  2  0  0  0  0  0  0
  187.8550  172.0250  136.5680 C   0  0  0  0  0  2  0  0  0  0  0  0
  187.9500  170.7660  135.9750 O   0  0  0  0  0  1  0  0  0  0  0  0
  190.4580  175.2990  138.0360 O   0  0  0  0  0  1  0  0  0  0  0  0
  189.8540  176.5590  138.0980 C   0  0  2  0  0  3  0  0  0  0  0  0
  188.3630  177.4790  141.9470 O   0  0  0  0  0  0  0  0  0  0  0  0
  188.3140  178.5660  141.0490 C   0  0  0  0  0  2  0  0  0  0  0  0
  189.6740  176.9220  141.9570 C   0  0  1  0  0  3  0  0  0  0  0  0
  189.2730  176.8050  139.4950 C   0  0  1  0  0  3  0  0  0  0  0  0
  190.3470  176.7910  140.5780 C   0  0  0  0  0  2  0  0  0  0  0  0
  188.4360  178.0970  139.5940 C   0  0  2  0  0  3  0  0  0  0  0  0
  189.0080  179.1260  138.8420 O   0  0  0  0  0  1  0  0  0  0  0  0
  190.6250  177.4690  143.0370 C   0  0  0  0  0  3  0  0  0  0  0  0
  189.9530  177.5230  144.3970 C   0  0  0  0  0  2  0  0  0  0  0  0
  190.9680  176.4400  144.1000 C   0  0  0  0  0  2  0  0  0  0  0  0
  1 22  1  1  0  0  0
  3  1  1  0  0  0  0
  4  1  1  0  0  0  0
  4  2  1  6  0  0  0
  5  2  1  1  0  0  0
  5  9  1  0  0  0  0
  6  7  1  0  0  0  0
  7 17  1  6  0  0  0
  7  9  1  0  0  0  0
  8 11  1  1  0  0  0
  8  4  1  0  0  0  0
 10  8  1  0  0  0  0
 10 13  1  0  0  0  0
 11 14  1  0  0  0  0
 12  6  1  0  0  0  0
 12  5  1  0  0  0  0
 13  5  1  0  0  0  0
 13 19  1  1  0  0  0
 14  3  1  0  0  0  0
 15  6  2  0  0  0  0
 17 16  1  0  0  0  0
 18 17  1  0  0  0  0
 18 16  1  0  0  0  0
 20 19  1  0  0  0  0
 22 21  1  1  0  0  0
 23 25  1  0  0  0  0
 24 23  1  0  0  0  0
 25 30  1  1  0  0  0
 26 22  1  6  0  0  0
 26 28  1  0  0  0  0
 26 27  1  0  0  0  0
 27 25  1  0  0  0  0
 28 29  1  6  0  0  0
 28 24  1  0  0  0  0
 30 32  1  0  0  0  0
 30 31  1  0  0  0  0
 32 31  1  0  0  0  0
M  END
>  <MODEL>
4

>  <REMARK>
 VINA RESULT:      -6.3      4.382      6.774
  Name = 
  5 active torsions:
  status: ('A' for Active; 'I' for Inactive)
    1  A    between atoms: C_1  and  C_27
    2  A    between atoms: C_7  and  C_15
    3  A    between atoms: C_11  and  C_12
    4  A    between atoms: C_13  and  C_29
    5  A    between atoms: C_16  and  C_27
                            x       y       z     vdW  Elec       q    Type
                         _______ _______ _______ _____ _____    ______ ____

>  <TORSDO>
F 5

$$$$
=
 OpenBabel10272402073D

 32 37  0  0  1  0  0  0  0  0999 V2000
  190.3190  177.2920  141.5110 C   0  0  1  0  0  3  0  0  0  0  0  0
  188.7540  177.2030  139.7560 C   0  0  0  0  0  2  0  0  0  0  0  0
  191.5110  178.2420  141.6730 C   0  0  0  0  0  2  0  0  0  0  0  0
  190.1120  176.7890  140.1370 N   0  0  1  0  0  0  0  0  0  0  0  0
  188.4680  177.1140  138.2470 C   0  0  1  0  0  0  0  0  0  0  0  0
  187.5100  178.7880  136.8720 C   0  0  0  0  0  0  0  0  0  0  0  0
  186.4270  177.7940  136.7080 C   0  0  2  0  0  3  0  0  0  0  0  0
  191.0950  177.2980  139.1600 C   0  0  2  0  0  3  0  0  0  0  0  0
  186.7420  176.5360  137.9900 S   0  0  0  0  0  0  0  0  0  0  0  0
  190.9350  176.5770  137.8190 C   0  0  0  0  0  2  0  0  0  0  0  0
  192.5290  177.0850  139.6490 C   0  0  0  0  0  2  0  0  0  0  0  0
  188.5520  178.4180  137.6970 O   0  0  0  0  0  0  0  0  0  0  0  0
  189.4790  176.2070  137.5110 C   0  0  1  0  0  3  0  0  0  0  0  0
  192.7740  177.6600  141.0450 C   0  0  0  0  0  2  0  0  0  0  0  0
  187.4860  179.9120  136.3050 O   0  0  0  0  0  0  0  0  0  0  0  0
  185.5420  175.9960  135.2460 C   0  0  0  0  0  2  0  0  0  0  0  0
  186.5210  177.1500  135.3330 C   0  0  0  0  0  3  0  0  0  0  0  0
  185.2050  177.3230  134.6010 C   0  0  0  0  0  2  0  0  0  0  0  0
  189.2420  174.7000  137.6680 C   0  0  0  0  0  2  0  0  0  0  0  0
  190.4430  173.9930  137.7200 O   0  0  0  0  0  1  0  0  0  0  0  0
  189.1250  175.4970  142.5790 O   0  0  0  0  0  1  0  0  0  0  0  0
  190.3670  176.1390  142.5210 C   0  0  2  0  0  3  0  0  0  0  0  0
  191.4540  177.2950  146.4420 O   0  0  0  0  0  0  0  0  0  0  0  0
  191.9840  176.0460  146.0550 C   0  0  0  0  0  2  0  0  0  0  0  0
  190.0490  177.3150  146.2060 C   0  0  1  0  0  3  0  0  0  0  0  0
  190.7700  176.6480  143.9100 C   0  0  1  0  0  3  0  0  0  0  0  0
  189.5930  176.6810  144.8790 C   0  0  0  0  0  2  0  0  0  0  0  0
  191.9480  175.8680  144.5320 C   0  0  2  0  0  3  0  0  0  0  0  0
  191.8560  174.5050  144.2450 O   0  0  0  0  0  1  0  0  0  0  0  0
  189.1650  176.9080  147.3980 C   0  0  0  0  0  3  0  0  0  0  0  0
  189.0540  178.0260  148.4180 C   0  0  0  0  0  2  0  0  0  0  0  0
  187.8900  177.7280  147.4970 C   0  0  0  0  0  2  0  0  0  0  0  0
  1  3  1  0  0  0  0
  1 22  1  1  0  0  0
  4  2  1  6  0  0  0
  4  1  1  0  0  0  0
  5  2  1  1  0  0  0
  6 12  1  0  0  0  0
  7 17  1  6  0  0  0
  7  6  1  0  0  0  0
  7  9  1  0  0  0  0
  8 10  1  6  0  0  0
  8 11  1  0  0  0  0
  8  4  1  0  0  0  0
  9  5  1  0  0  0  0
 11 14  1  0  0  0  0
 12  5  1  0  0  0  0
 13 19  1  1  0  0  0
 13 10  1  0  0  0  0
 13  5  1  0  0  0  0
 14  3  1  0  0  0  0
 15  6  2  0  0  0  0
 16 17  1  0  0  0  0
 18 16  1  0  0  0  0
 18 17  1  0  0  0  0
 19 20  1  0  0  0  0
 22 21  1  1  0  0  0
 24 23  1  0  0  0  0
 25 23  1  0  0  0  0
 25 30  1  1  0  0  0
 26 22  1  6  0  0  0
 26 28  1  0  0  0  0
 26 27  1  0  0  0  0
 27 25  1  0  0  0  0
 28 29  1  1  0  0  0
 28 24  1  0  0  0  0
 30 32  1  0  0  0  0
 30 31  1  0  0  0  0
 32 31  1  0  0  0  0
M  END
>  <MODEL>
5

>  <REMARK>
 VINA RESULT:      -6.0      4.255      6.984
  Name = 
  5 active torsions:
  status: ('A' for Active; 'I' for Inactive)
    1  A    between atoms: C_1  and  C_27
    2  A    between atoms: C_7  and  C_15
    3  A    between atoms: C_11  and  C_12
    4  A    between atoms: C_13  and  C_29
    5  A    between atoms: C_16  and  C_27
                            x       y       z     vdW  Elec       q    Type
                         _______ _______ _______ _____ _____    ______ ____

>  <TORSDO>
F 5

$$$$
=
 OpenBabel10272402073D

 32 37  0  0  1  0  0  0  0  0999 V2000
  182.8490  178.1680  142.6930 C   0  0  1  0  0  3  0  0  0  0  0  0
  182.8090  177.0160  140.6420 C   0  0  0  0  0  2  0  0  0  0  0  0
  181.6920  178.4070  143.6720 C   0  0  0  0  0  2  0  0  0  0  0  0
  182.4910  178.3070  141.2670 N   0  0  1  0  0  0  0  0  0  0  0  0
  182.1750  176.8120  139.2560 C   0  0  1  0  0  0  0  0  0  0  0  0
  180.9550  174.9250  138.5050 C   0  0  0  0  0  0  0  0  0  0  0  0
  182.0740  174.7970  137.5460 C   0  0  2  0  0  3  0  0  0  0  0  0
  181.0730  178.6510  141.0380 C   0  0  2  0  0  3  0  0  0  0  0  0
  183.3630  175.9260  138.1700 S   0  0  0  0  0  0  0  0  0  0  0  0
  180.8360  178.9740  139.5600 C   0  0  0  0  0  2  0  0  0  0  0  0
  180.6520  179.8660  141.8660 C   0  0  0  0  0  2  0  0  0  0  0  0
  181.0430  175.9710  139.4000 O   0  0  0  0  0  0  0  0  0  0  0  0
  181.7170  178.1420  138.6190 C   0  0  1  0  0  3  0  0  0  0  0  0
  180.9580  179.7060  143.3560 C   0  0  0  0  0  2  0  0  0  0  0  0
  179.9820  174.1260  138.5180 O   0  0  0  0  0  0  0  0  0  0  0  0
  182.5470  174.6650  135.1150 C   0  0  0  0  0  2  0  0  0  0  0  0
  181.6260  175.2530  136.1660 C   0  0  0  0  0  3  0  0  0  0  0  0
  181.1840  174.0520  135.3530 C   0  0  0  0  0  2  0  0  0  0  0  0
  182.8360  178.9940  138.0080 C   0  0  0  0  0  2  0  0  0  0  0  0
  183.1660  180.0750  138.8260 O   0  0  0  0  0  1  0  0  0  0  0  0
  184.6300  179.5640  141.8790 O   0  0  0  0  0  1  0  0  0  0  0  0
  184.0760  179.0200  143.0430 C   0  0  2  0  0  3  0  0  0  0  0  0
  187.0660  176.9520  145.2030 O   0  0  0  0  0  0  0  0  0  0  0  0
  186.5640  178.0850  145.8780 C   0  0  0  0  0  2  0  0  0  0  0  0
  187.4590  177.3150  143.8830 C   0  0  1  0  0  3  0  0  0  0  0  0
  185.1210  178.1880  143.7950 C   0  0  1  0  0  3  0  0  0  0  0  0
  186.4990  178.2680  143.1460 C   0  0  0  0  0  2  0  0  0  0  0  0
  185.2190  178.5360  145.2950 C   0  0  2  0  0  3  0  0  0  0  0  0
  185.0820  179.9100  145.5030 O   0  0  0  0  0  1  0  0  0  0  0  0
  188.9380  177.7040  143.7080 C   0  0  0  0  0  3  0  0  0  0  0  0
  189.8380  176.9030  144.6320 C   0  0  0  0  0  2  0  0  0  0  0  0
  189.7860  176.5710  143.1550 C   0  0  0  0  0  2  0  0  0  0  0  0
  1 22  1  1  0  0  0
  1  3  1  0  0  0  0
  4  2  1  6  0  0  0
  4  1  1  0  0  0  0
  5 12  1  0  0  0  0
  5  2  1  1  0  0  0
  6 15  2  0  0  0  0
  6 12  1  0  0  0  0
  7 17  1  6  0  0  0
  7  9  1  0  0  0  0
  7  6  1  0  0  0  0
  8 10  1  6  0  0  0
  8  4  1  0  0  0  0
  8 11  1  0  0  0  0
  9  5  1  0  0  0  0
 11 14  1  0  0  0  0
 13 19  1  1  0  0  0
 13  5  1  0  0  0  0
 13 10  1  0  0  0  0
 14  3  1  0  0  0  0
 16 18  1  0  0  0  0
 16 17  1  0  0  0  0
 18 17  1  0  0  0  0
 19 20  1  0  0  0  0
 22 21  1  6  0  0  0
 23 24  1  0  0  0  0
 25 30  1  1  0  0  0
 25 23  1  0  0  0  0
 26 22  1  6  0  0  0
 26 28  1  0  0  0  0
 27 26  1  0  0  0  0
 27 25  1  0  0  0  0
 28 29  1  6  0  0  0
 28 24  1  0  0  0  0
 30 31  1  0  0  0  0
 32 30  1  0  0  0  0
 32 31  1  0  0  0  0
M  END
>  <MODEL>
6

>  <REMARK>
 VINA RESULT:      -5.8      7.984     10.631
  Name = 
  5 active torsions:
  status: ('A' for Active; 'I' for Inactive)
    1  A    between atoms: C_1  and  C_27
    2  A    between atoms: C_7  and  C_15
    3  A    between atoms: C_11  and  C_12
    4  A    between atoms: C_13  and  C_29
    5  A    between atoms: C_16  and  C_27
                            x       y       z     vdW  Elec       q    Type
                         _______ _______ _______ _____ _____    ______ ____

>  <TORSDO>
F 5

$$$$
=
 OpenBabel10272402073D

 32 37  0  0  1  0  0  0  0  0999 V2000
  186.4580  178.6790  141.6980 C   0  0  1  0  0  3  0  0  0  0  0  0
  184.3030  179.1630  140.8850 C   0  0  0  0  0  2  0  0  0  0  0  0
  187.8050  179.2110  141.1950 C   0  0  0  0  0  2  0  0  0  0  0  0
  185.4920  178.3360  140.6340 N   0  0  1  0  0  0  0  0  0  0  0  0
  183.3300  179.2450  139.6980 C   0  0  1  0  0  0  0  0  0  0  0  0
  182.3740  181.2020  138.7640 C   0  0  0  0  0  0  0  0  0  0  0  0
  181.1050  180.5940  139.2190 C   0  0  2  0  0  3  0  0  0  0  0  0
  186.0000  178.5720  139.2680 C   0  0  2  0  0  3  0  0  0  0  0  0
  181.6030  179.2350  140.3270 S   0  0  0  0  0  0  0  0  0  0  0  0
  185.0250  178.0060  138.2320 C   0  0  0  0  0  2  0  0  0  0  0  0
  187.3610  177.9080  139.0550 C   0  0  0  0  0  2  0  0  0  0  0  0
  183.5220  180.4890  139.0450 O   0  0  0  0  0  0  0  0  0  0  0  0
  183.5590  178.1140  138.6710 C   0  0  1  0  0  3  0  0  0  0  0  0
  188.3910  178.3070  140.1140 C   0  0  0  0  0  2  0  0  0  0  0  0
  182.4170  182.3080  138.1640 O   0  0  0  0  0  0  0  0  0  0  0  0
  179.9820  181.1490  137.0780 C   0  0  0  0  0  2  0  0  0  0  0  0
  180.3480  180.0260  138.0290 C   0  0  0  0  0  3  0  0  0  0  0  0
  181.1540  180.2430  136.7640 C   0  0  0  0  0  2  0  0  0  0  0  0
  182.9950  176.7450  139.0690 C   0  0  0  0  0  2  0  0  0  0  0  0
  183.4080  175.7430  138.1910 O   0  0  0  0  0  1  0  0  0  0  0  0
  185.4410  177.2760  143.3670 O   0  0  0  0  0  1  0  0  0  0  0  0
  186.6360  177.5140  142.6800 C   0  0  2  0  0  3  0  0  0  0  0  0
  189.7840  178.0540  145.4530 O   0  0  0  0  0  0  0  0  0  0  0  0
  189.9420  176.9150  144.6350 C   0  0  0  0  0  2  0  0  0  0  0  0
  188.4890  178.0410  146.0490 C   0  0  1  0  0  3  0  0  0  0  0  0
  187.7720  177.8040  143.6690 C   0  0  1  0  0  3  0  0  0  0  0  0
  187.3390  177.6150  145.1190 C   0  0  0  0  0  2  0  0  0  0  0  0
  189.0530  176.9920  143.3880 C   0  0  2  0  0  3  0  0  0  0  0  0
  188.7460  175.6930  142.9790 O   0  0  0  0  0  1  0  0  0  0  0  0
  188.4010  177.3970  147.4440 C   0  0  0  0  0  3  0  0  0  0  0  0
  189.3740  178.0370  148.4170 C   0  0  0  0  0  2  0  0  0  0  0  0
  187.8970  178.3560  148.5080 C   0  0  0  0  0  2  0  0  0  0  0  0
  1 22  1  6  0  0  0
  3  1  1  0  0  0  0
  4  2  1  1  0  0  0
  4  1  1  0  0  0  0
  5  9  1  0  0  0  0
  5  2  1  1  0  0  0
  6 12  1  0  0  0  0
  6  7  1  0  0  0  0
  7 17  1  6  0  0  0
  7  9  1  0  0  0  0
  8 10  1  6  0  0  0
  8  4  1  0  0  0  0
 10 13  1  0  0  0  0
 11  8  1  0  0  0  0
 11 14  1  0  0  0  0
 12  5  1  0  0  0  0
 13 19  1  1  0  0  0
 13  5  1  0  0  0  0
 14  3  1  0  0  0  0
 15  6  2  0  0  0  0
 16 17  1  0  0  0  0
 18 16  1  0  0  0  0
 18 17  1  0  0  0  0
 20 19  1  0  0  0  0
 22 21  1  1  0  0  0
 23 25  1  0  0  0  0
 24 23  1  0  0  0  0
 25 30  1  1  0  0  0
 26 22  1  6  0  0  0
 26 27  1  0  0  0  0
 27 25  1  0  0  0  0
 28 29  1  1  0  0  0
 28 26  1  0  0  0  0
 28 24  1  0  0  0  0
 30 31  1  0  0  0  0
 30 32  1  0  0  0  0
 31 32  1  0  0  0  0
M  END
>  <MODEL>
7

>  <REMARK>
 VINA RESULT:      -5.8      7.199     10.487
  Name = 
  5 active torsions:
  status: ('A' for Active; 'I' for Inactive)
    1  A    between atoms: C_1  and  C_27
    2  A    between atoms: C_7  and  C_15
    3  A    between atoms: C_11  and  C_12
    4  A    between atoms: C_13  and  C_29
    5  A    between atoms: C_16  and  C_27
                            x       y       z     vdW  Elec       q    Type
                         _______ _______ _______ _____ _____    ______ ____

>  <TORSDO>
F 5

$$$$
=
 OpenBabel10272402073D

 32 37  0  0  1  0  0  0  0  0999 V2000
  188.8070  177.0650  138.6560 C   0  0  1  0  0  3  0  0  0  0  0  0
  188.0620  175.0380  137.7200 C   0  0  0  0  0  2  0  0  0  0  0  0
  188.2650  178.4790  138.4150 C   0  0  0  0  0  2  0  0  0  0  0  0
  188.8920  176.2200  137.4470 N   0  0  1  0  0  0  0  0  0  0  0  0
  187.7070  174.2150  136.4710 C   0  0  1  0  0  0  0  0  0  0  0  0
  185.5610  173.4420  135.8300 C   0  0  0  0  0  0  0  0  0  0  0  0
  186.1720  172.1080  136.0190 C   0  0  2  0  0  3  0  0  0  0  0  0
  188.4330  176.8930  136.2160 C   0  0  2  0  0  3  0  0  0  0  0  0
  187.7400  172.4260  136.8940 S   0  0  0  0  0  0  0  0  0  0  0  0
  188.7410  176.0290  134.9900 C   0  0  0  0  0  2  0  0  0  0  0  0
  189.1200  178.2470  136.0300 C   0  0  0  0  0  2  0  0  0  0  0  0
  186.3760  174.5240  136.0940 O   0  0  0  0  0  0  0  0  0  0  0  0
  188.6370  174.5260  135.2780 C   0  0  1  0  0  3  0  0  0  0  0  0
  188.9820  179.1570  137.2520 C   0  0  0  0  0  2  0  0  0  0  0  0
  184.3660  173.5910  135.4620 O   0  0  0  0  0  0  0  0  0  0  0  0
  186.7620  170.0030  134.8480 C   0  0  0  0  0  2  0  0  0  0  0  0
  186.4660  171.4790  134.6660 C   0  0  0  0  0  3  0  0  0  0  0  0
  185.4040  170.4450  134.3460 C   0  0  0  0  0  2  0  0  0  0  0  0
  190.0240  173.8740  135.3420 C   0  0  0  0  0  2  0  0  0  0  0  0
  191.0330  174.7770  135.0050 O   0  0  0  0  0  1  0  0  0  0  0  0
  190.6490  175.7890  139.5310 O   0  0  0  0  0  1  0  0  0  0  0  0
  190.1420  177.0870  139.4110 C   0  0  2  0  0  3  0  0  0  0  0  0
  189.8280  178.6530  143.3270 O   0  0  0  0  0  0  0  0  0  0  0  0
  191.0990  178.1130  143.0350 C   0  0  0  0  0  2  0  0  0  0  0  0
  188.8170  177.7020  143.0060 C   0  0  1  0  0  3  0  0  0  0  0  0
  189.9760  177.7270  140.7940 C   0  0  1  0  0  3  0  0  0  0  0  0
  189.0260  176.9350  141.6870 C   0  0  0  0  0  2  0  0  0  0  0  0
  191.3140  177.9680  141.5240 C   0  0  2  0  0  3  0  0  0  0  0  0
  192.2060  176.9170  141.3000 O   0  0  0  0  0  1  0  0  0  0  0  0
  188.3640  176.7920  144.1610 C   0  0  0  0  0  3  0  0  0  0  0  0
  188.4500  177.5040  145.4990 C   0  0  0  0  0  2  0  0  0  0  0  0
  187.1010  177.2870  144.8450 C   0  0  0  0  0  2  0  0  0  0  0  0
  1 22  1  6  0  0  0
  3  1  1  0  0  0  0
  4  2  1  1  0  0  0
  4  1  1  0  0  0  0
  5  9  1  0  0  0  0
  5  2  1  1  0  0  0
  6  7  1  0  0  0  0
  6 12  1  0  0  0  0
  7 17  1  6  0  0  0
  7  9  1  0  0  0  0
  8 10  1  6  0  0  0
  8  4  1  0  0  0  0
 10 13  1  0  0  0  0
 11  8  1  0  0  0  0
 11 14  1  0  0  0  0
 12  5  1  0  0  0  0
 13 19  1  1  0  0  0
 13  5  1  0  0  0  0
 14  3  1  0  0  0  0
 15  6  2  0  0  0  0
 17 16  1  0  0  0  0
 18 17  1  0  0  0  0
 18 16  1  0  0  0  0
 20 19  1  0  0  0  0
 22 21  1  1  0  0  0
 24 23  1  0  0  0  0
 25 23  1  0  0  0  0
 25 30  1  1  0  0  0
 26 22  1  6  0  0  0
 26 28  1  0  0  0  0
 26 27  1  0  0  0  0
 27 25  1  0  0  0  0
 28 29  1  1  0  0  0
 28 24  1  0  0  0  0
 30 32  1  0  0  0  0
 30 31  1  0  0  0  0
 32 31  1  0  0  0  0
M  END
>  <MODEL>
8

>  <REMARK>
 VINA RESULT:      -5.6      3.862      5.482
  Name = 
  5 active torsions:
  status: ('A' for Active; 'I' for Inactive)
    1  A    between atoms: C_1  and  C_27
    2  A    between atoms: C_7  and  C_15
    3  A    between atoms: C_11  and  C_12
    4  A    between atoms: C_13  and  C_29
    5  A    between atoms: C_16  and  C_27
                            x       y       z     vdW  Elec       q    Type
                         _______ _______ _______ _____ _____    ______ ____

>  <TORSDO>
F 5

$$$$
=
 OpenBabel10272402073D

 32 37  0  0  1  0  0  0  0  0999 V2000
  188.0240  178.3970  138.1740 C   0  0  1  0  0  3  0  0  0  0  0  0
  185.8210  178.4100  139.0020 C   0  0  0  0  0  2  0  0  0  0  0  0
  188.5920  179.1600  136.9710 C   0  0  0  0  0  2  0  0  0  0  0  0
  186.6800  177.8220  137.9640 N   0  0  1  0  0  0  0  0  0  0  0  0
  184.3150  178.2440  138.7430 C   0  0  1  0  0  0  0  0  0  0  0  0
  182.6520  179.9290  138.8400 C   0  0  0  0  0  0  0  0  0  0  0  0
  182.1240  179.1050  139.9490 C   0  0  2  0  0  3  0  0  0  0  0  0
  186.1190  178.0890  136.6240 C   0  0  2  0  0  3  0  0  0  0  0  0
  183.4570  177.9230  140.3360 S   0  0  0  0  0  0  0  0  0  0  0  0
  184.8270  177.2950  136.4200 C   0  0  0  0  0  2  0  0  0  0  0  0
  187.1010  177.6960  135.5190 C   0  0  0  0  0  2  0  0  0  0  0  0
  183.8080  179.4690  138.2420 O   0  0  0  0  0  0  0  0  0  0  0  0
  184.0160  177.1330  137.7120 C   0  0  1  0  0  3  0  0  0  0  0  0
  188.4790  178.3390  135.6900 C   0  0  0  0  0  2  0  0  0  0  0  0
  182.0930  180.9920  138.4630 O   0  0  0  0  0  0  0  0  0  0  0  0
  180.8670  176.9750  140.1370 C   0  0  0  0  0  2  0  0  0  0  0  0
  180.8910  178.3440  139.4870 C   0  0  0  0  0  3  0  0  0  0  0  0
  179.9830  178.0810  140.6710 C   0  0  0  0  0  2  0  0  0  0  0  0
  184.1050  175.7000  138.2490 C   0  0  0  0  0  2  0  0  0  0  0  0
  184.8130  174.8680  137.3810 O   0  0  0  0  0  1  0  0  0  0  0  0
  188.3940  176.0790  138.7000 O   0  0  0  0  0  1  0  0  0  0  0  0
  189.0050  177.3380  138.6920 C   0  0  2  0  0  3  0  0  0  0  0  0
  190.4610  178.0780  142.5930 O   0  0  0  0  0  0  0  0  0  0  0  0
  191.2640  177.1870  141.8510 C   0  0  0  0  0  2  0  0  0  0  0  0
  189.1040  177.6430  142.5590 C   0  0  1  0  0  3  0  0  0  0  0  0
  189.5070  177.6980  140.0950 C   0  0  1  0  0  3  0  0  0  0  0  0
  188.6060  177.1390  141.1920 C   0  0  0  0  0  2  0  0  0  0  0  0
  190.9710  177.2850  140.3490 C   0  0  2  0  0  3  0  0  0  0  0  0
  191.2560  176.0520  139.7590 O   0  0  0  0  0  1  0  0  0  0  0  0
  188.6600  176.7440  143.7260 C   0  0  0  0  0  3  0  0  0  0  0  0
  189.1510  177.2780  145.0600 C   0  0  0  0  0  2  0  0  0  0  0  0
  187.6950  177.4360  144.6740 C   0  0  0  0  0  2  0  0  0  0  0  0
  1 22  1  6  0  0  0
  3  1  1  0  0  0  0
  4  1  1  0  0  0  0
  4  2  1  1  0  0  0
  5  2  1  1  0  0  0
  5  9  1  0  0  0  0
  6  7  1  0  0  0  0
  7 17  1  6  0  0  0
  7  9  1  0  0  0  0
  8 11  1  6  0  0  0
  8  4  1  0  0  0  0
 10  8  1  0  0  0  0
 10 13  1  0  0  0  0
 11 14  1  0  0  0  0
 12  5  1  0  0  0  0
 12  6  1  0  0  0  0
 13 19  1  1  0  0  0
 13  5  1  0  0  0  0
 14  3  1  0  0  0  0
 15  6  2  0  0  0  0
 16 18  1  0  0  0  0
 17 16  1  0  0  0  0
 17 18  1  0  0  0  0
 20 19  1  0  0  0  0
 22 21  1  1  0  0  0
 24 23  1  0  0  0  0
 25 23  1  0  0  0  0
 25 30  1  1  0  0  0
 26 22  1  6  0  0  0
 26 28  1  0  0  0  0
 26 27  1  0  0  0  0
 27 25  1  0  0  0  0
 28 29  1  6  0  0  0
 28 24  1  0  0  0  0
 30 32  1  0  0  0  0
 30 31  1  0  0  0  0
 32 31  1  0  0  0  0
M  END
>  <MODEL>
9

>  <REMARK>
 VINA RESULT:      -5.5      5.437      9.272
  Name = 
  5 active torsions:
  status: ('A' for Active; 'I' for Inactive)
    1  A    between atoms: C_1  and  C_27
    2  A    between atoms: C_7  and  C_15
    3  A    between atoms: C_11  and  C_12
    4  A    between atoms: C_13  and  C_29
    5  A    between atoms: C_16  and  C_27
                            x       y       z     vdW  Elec       q    Type
                         _______ _______ _______ _____ _____    ______ ____

>  <TORSDO>
F 5

$$$$
