=
 OpenBabel10272414563D

 37 41  0  0  1  0  0  0  0  0999 V2000
  185.0690  178.5940  143.7100 C   0  0  1  0  0  3  0  0  0  0  0  0
  188.8890  178.3890  140.2520 C   0  0  0  0  0  2  0  0  0  0  0  0
  188.2570  177.4200  142.4830 C   0  0  1  0  0  3  0  0  0  0  0  0
  183.7190  177.7080  140.4990 O   0  0  0  0  0  0  0  0  0  0  0  0
  188.8040  177.1140  141.0830 C   0  0  0  0  0  2  0  0  0  0  0  0
  184.1690  178.5250  142.6010 O   0  0  0  0  0  0  0  0  0  0  0  0
  184.5720  177.9650  141.3870 C   0  0  0  0  0  0  0  0  0  0  0  0
  187.6850  178.6270  139.4430 N   0  0  2  0  0  0  0  0  0  0  0  0
  186.7260  177.6690  142.4940 C   0  0  2  0  0  3  0  0  0  0  0  0
  186.5410  178.9490  140.3090 C   0  0  0  0  0  2  0  0  0  0  0  0
  186.0270  177.7540  141.1230 C   0  0  2  0  0  3  0  0  0  0  0  0
  186.3960  178.7950  143.2720 O   0  0  0  0  0  0  0  0  0  0  0  0
  186.6050  177.9940  137.3170 C   0  0  0  0  0  0  0  0  0  0  0  0
  188.6980  176.8760  137.9850 C   0  0  0  0  0  2  0  0  0  0  0  0
  189.4580  177.8270  137.0560 C   0  0  0  0  0  2  0  0  0  0  0  0
  188.3700  177.1010  135.0540 F   0  0  0  0  0  0  0  0  0  0  0  0
  187.2720  178.8390  136.2720 C   0  0  2  0  0  3  0  0  0  0  0  0
  188.6020  178.2130  135.8450 C   0  0  1  0  0  3  0  0  0  0  0  0
  187.4000  177.5170  138.5070 C   0  0  1  0  0  3  0  0  0  0  0  0
  187.4900  180.1140  136.7660 F   0  0  0  0  0  0  0  0  0  0  0  0
  185.3690  177.5430  137.1170 C   0  0  0  0  0  2  0  0  0  0  0  0
  188.7110  176.3480  143.5260 C   0  0  0  0  0  0  0  0  0  0  0  0
  187.5210  175.4620  143.9040 C   0  0  0  0  0  1  0  0  0  0  0  0
  189.7240  175.3770  142.9200 C   0  0  0  0  0  1  0  0  0  0  0  0
  191.5270  177.0550  145.9210 C   0  0  0  0  0  3  0  0  0  0  0  0
  190.7390  177.4410  144.6940 C   0  0  0  0  0  0  0  0  0  0  0  0
  189.3250  176.9540  144.7430 N   0  0  0  0  0  0  0  0  0  0  0  0
  191.5350  177.1080  143.4360 C   0  0  0  0  0  2  0  0  0  0  0  0
  188.4200  177.8700  145.4660 C   0  0  0  0  0  2  0  0  0  0  0  0
  189.5700  176.9850  147.5260 C   0  0  0  0  0  2  0  0  0  0  0  0
  191.6810  178.5870  143.1310 C   0  0  0  0  0  2  0  0  0  0  0  0
  188.9080  178.1910  146.8810 C   0  0  0  0  0  2  0  0  0  0  0  0
  190.8840  178.9250  144.3760 C   0  0  0  0  0  2  0  0  0  0  0  0
  191.0260  176.8890  147.1570 C   0  0  0  0  0  3  0  0  0  0  0  0
  184.6410  179.7320  144.6190 C   0  0  0  0  0  2  0  0  0  0  0  0
  184.8940  178.2970  146.6170 C   0  0  0  0  0  1  0  0  0  0  0  0
  185.3030  179.6050  145.9760 C   0  0  0  0  0  2  0  0  0  0  0  0
  1 35  1  1  0  0  0
  2  5  1  0  0  0  0
  3  9  1  0  0  0  0
  3 22  1  1  0  0  0
  4  7  2  0  0  0  0
  5  3  1  0  0  0  0
  6  1  1  0  0  0  0
  7  6  1  0  0  0  0
  8  2  1  1  0  0  0
  8 10  1  0  0  0  0
  9 12  1  6  0  0  0
 11 10  1  6  0  0  0
 11  7  1  0  0  0  0
 11  9  1  0  0  0  0
 12  1  1  0  0  0  0
 13 19  1  0  0  0  0
 15 14  1  0  0  0  0
 17 20  1  1  0  0  0
 17 13  1  0  0  0  0
 18 16  1  1  0  0  0
 18 17  1  0  0  0  0
 18 15  1  0  0  0  0
 19 14  1  6  0  0  0
 19  8  1  0  0  0  0
 21 13  2  0  0  0  0
 22 23  1  0  0  0  0
 22 27  1  0  0  0  0
 24 22  1  0  0  0  0
 25 34  2  0  0  0  0
 26 27  1  0  0  0  0
 26 25  1  0  0  0  0
 27 29  1  0  0  0  0
 28 26  1  0  0  0  0
 29 32  1  0  0  0  0
 31 28  1  0  0  0  0
 31 33  1  0  0  0  0
 32 30  1  0  0  0  0
 33 26  1  0  0  0  0
 34 30  1  0  0  0  0
 35 37  1  0  0  0  0
 37 36  1  0  0  0  0
M  END
>  <MODEL>
1

>  <REMARK>
 VINA RESULT:      -6.6      0.000      0.000
  Name = 
  5 active torsions:
  status: ('A' for Active; 'I' for Inactive)
    1  A    between atoms: C_1  and  C_5
    2  A    between atoms: C_4  and  C_10
    3  A    between atoms: C_4  and  N_13
    4  A    between atoms: C_5  and  C_23
    5  A    between atoms: N_27  and  C_31
                            x       y       z     vdW  Elec       q    Type
                         _______ _______ _______ _____ _____    ______ ____

>  <TORSDO>
F 5

$$$$
=
 OpenBabel10272414563D

 37 41  0  0  1  0  0  0  0  0999 V2000
  183.5030  179.4260  139.1970 C   0  0  1  0  0  3  0  0  0  0  0  0
  188.5900  178.7360  139.6930 C   0  0  0  0  0  2  0  0  0  0  0  0
  186.5160  178.8540  141.1070 C   0  0  1  0  0  3  0  0  0  0  0  0
  184.5430  176.7020  137.0960 O   0  0  0  0  0  0  0  0  0  0  0  0
  187.8130  178.0840  140.8320 C   0  0  0  0  0  2  0  0  0  0  0  0
  183.5730  178.5430  138.0750 O   0  0  0  0  0  0  0  0  0  0  0  0
  184.6100  177.6140  137.9600 C   0  0  0  0  0  0  0  0  0  0  0  0
  188.2760  178.1560  138.3800 N   0  0  2  0  0  0  0  0  0  0  0  0
  185.4150  178.5880  140.0470 C   0  0  2  0  0  3  0  0  0  0  0  0
  186.8970  178.4910  137.9880 C   0  0  0  0  0  2  0  0  0  0  0  0
  185.8270  177.7630  138.8120 C   0  0  2  0  0  3  0  0  0  0  0  0
  184.7950  179.7850  139.6400 O   0  0  0  0  0  0  0  0  0  0  0  0
  188.4460  176.1860  136.9040 C   0  0  0  0  0  0  0  0  0  0  0  0
  189.9610  176.3780  138.8390 C   0  0  0  0  0  2  0  0  0  0  0  0
  191.0440  176.9020  137.8910 C   0  0  0  0  0  2  0  0  0  0  0  0
  191.1510  174.9210  136.5560 F   0  0  0  0  0  0  0  0  0  0  0  0
  189.5120  176.5350  135.9070 C   0  0  2  0  0  3  0  0  0  0  0  0
  190.9020  176.2810  136.4980 C   0  0  1  0  0  3  0  0  0  0  0  0
  188.5510  176.7040  138.3170 C   0  0  1  0  0  3  0  0  0  0  0  0
  189.3950  177.8640  135.5370 F   0  0  0  0  0  0  0  0  0  0  0  0
  187.5030  175.3040  136.5850 C   0  0  0  0  0  2  0  0  0  0  0  0
  186.0190  178.6390  142.5730 C   0  0  0  0  0  0  0  0  0  0  0  0
  185.5700  179.9780  143.1650 C   0  0  0  0  0  1  0  0  0  0  0  0
  184.7610  177.7710  142.6130 C   0  0  0  0  0  1  0  0  0  0  0  0
  188.3020  178.4390  145.5600 C   0  0  0  0  0  3  0  0  0  0  0  0
  186.9620  178.1500  144.9280 C   0  0  0  0  0  0  0  0  0  0  0  0
  187.0490  177.9980  143.4420 N   0  0  0  0  0  0  0  0  0  0  0  0
  185.9160  179.1250  145.4560 C   0  0  0  0  0  2  0  0  0  0  0  0
  187.4100  176.6300  143.0190 C   0  0  0  0  0  2  0  0  0  0  0  0
  189.7140  177.2520  143.8250 C   0  0  0  0  0  2  0  0  0  0  0  0
  185.2070  177.9870  146.1660 C   0  0  0  0  0  2  0  0  0  0  0  0
  188.7020  176.1290  143.6680 C   0  0  0  0  0  2  0  0  0  0  0  0
  186.2400  177.0110  145.6370 C   0  0  0  0  0  2  0  0  0  0  0  0
  189.4940  178.0210  145.1000 C   0  0  0  0  0  3  0  0  0  0  0  0
  182.7260  180.6660  138.7980 C   0  0  0  0  0  2  0  0  0  0  0  0
  180.8810  181.5340  137.3970 C   0  0  0  0  0  1  0  0  0  0  0  0
  181.4980  180.2880  137.9940 C   0  0  0  0  0  2  0  0  0  0  0  0
  1 35  1  6  0  0  0
  1 12  1  0  0  0  0
  2  5  1  0  0  0  0
  3 22  1  1  0  0  0
  4  7  2  0  0  0  0
  5  3  1  0  0  0  0
  6  1  1  0  0  0  0
  7  6  1  0  0  0  0
  7 11  1  0  0  0  0
  8 10  1  1  0  0  0
  8  2  1  0  0  0  0
  9 12  1  6  0  0  0
  9  3  1  0  0  0  0
 11 10  1  6  0  0  0
 11  9  1  0  0  0  0
 13 19  1  0  0  0  0
 15 14  1  0  0  0  0
 17 20  1  1  0  0  0
 17 18  1  0  0  0  0
 17 13  1  0  0  0  0
 18 16  1  1  0  0  0
 18 15  1  0  0  0  0
 19  8  1  0  0  0  0
 19 14  1  6  0  0  0
 21 13  2  0  0  0  0
 22 24  1  0  0  0  0
 22 23  1  0  0  0  0
 22 27  1  0  0  0  0
 26 28  1  0  0  0  0
 26 25  1  0  0  0  0
 26 33  1  0  0  0  0
 27 26  1  0  0  0  0
 28 31  1  0  0  0  0
 29 27  1  0  0  0  0
 29 32  1  0  0  0  0
 30 34  1  0  0  0  0
 32 30  1  0  0  0  0
 33 31  1  0  0  0  0
 34 25  2  0  0  0  0
 36 37  1  0  0  0  0
 37 35  1  0  0  0  0
M  END
>  <MODEL>
2

>  <REMARK>
 VINA RESULT:      -6.2      2.249      4.295
  Name = 
  5 active torsions:
  status: ('A' for Active; 'I' for Inactive)
    1  A    between atoms: C_1  and  C_5
    2  A    between atoms: C_4  and  C_10
    3  A    between atoms: C_4  and  N_13
    4  A    between atoms: C_5  and  C_23
    5  A    between atoms: N_27  and  C_31
                            x       y       z     vdW  Elec       q    Type
                         _______ _______ _______ _____ _____    ______ ____

>  <TORSDO>
F 5

$$$$
=
 OpenBabel10272414563D

 37 41  0  0  1  0  0  0  0  0999 V2000
  183.4330  178.6110  142.9680 C   0  0  1  0  0  3  0  0  0  0  0  0
  187.9040  178.9940  140.4250 C   0  0  0  0  0  2  0  0  0  0  0  0
  187.0130  178.2390  142.6510 C   0  0  1  0  0  3  0  0  0  0  0  0
  183.1650  176.8860  139.8270 O   0  0  0  0  0  0  0  0  0  0  0  0
  187.9410  177.8940  141.4800 C   0  0  0  0  0  2  0  0  0  0  0  0
  182.8750  178.1120  141.7500 O   0  0  0  0  0  0  0  0  0  0  0  0
  183.6860  177.5140  140.7840 C   0  0  0  0  0  0  0  0  0  0  0  0
  186.9120  178.7430  139.3710 N   0  0  2  0  0  0  0  0  0  0  0  0
  185.5120  178.0310  142.3180 C   0  0  2  0  0  3  0  0  0  0  0  0
  185.5480  178.8480  139.9140 C   0  0  0  0  0  2  0  0  0  0  0  0
  185.1670  177.6960  140.8540 C   0  0  2  0  0  3  0  0  0  0  0  0
  184.7340  179.1190  142.7580 O   0  0  0  0  0  0  0  0  0  0  0  0
  186.6060  177.5170  137.2510 C   0  0  0  0  0  0  0  0  0  0  0  0
  188.6480  177.1380  138.5810 C   0  0  0  0  0  2  0  0  0  0  0  0
  189.3860  178.1070  137.6530 C   0  0  0  0  0  2  0  0  0  0  0  0
  189.0640  176.8110  135.6700 F   0  0  0  0  0  0  0  0  0  0  0  0
  187.3130  178.3430  136.2160 C   0  0  2  0  0  3  0  0  0  0  0  0
  188.8160  178.0510  136.2330 C   0  0  1  0  0  3  0  0  0  0  0  0
  187.1470  177.4680  138.6590 C   0  0  1  0  0  3  0  0  0  0  0  0
  187.0940  179.6880  136.4570 F   0  0  0  0  0  0  0  0  0  0  0  0
  185.6060  176.7180  136.8920 C   0  0  0  0  0  2  0  0  0  0  0  0
  187.4530  177.5200  143.9670 C   0  0  0  0  0  0  0  0  0  0  0  0
  186.8670  178.2560  145.1750 C   0  0  0  0  0  1  0  0  0  0  0  0
  186.8600  176.1140  144.0590 C   0  0  0  0  0  1  0  0  0  0  0  0
  190.8510  178.5400  145.2250 C   0  0  0  0  0  3  0  0  0  0  0  0
  189.5960  177.7200  145.3950 C   0  0  0  0  0  0  0  0  0  0  0  0
  188.9360  177.4040  144.0900 N   0  0  0  0  0  0  0  0  0  0  0  0
  188.7150  178.3330  146.4780 C   0  0  0  0  0  2  0  0  0  0  0  0
  189.4900  176.2020  143.4350 C   0  0  0  0  0  2  0  0  0  0  0  0
  191.4550  177.6920  142.9170 C   0  0  0  0  0  2  0  0  0  0  0  0
  188.9620  177.1280  147.3670 C   0  0  0  0  0  2  0  0  0  0  0  0
  191.0070  176.2770  143.2440 C   0  0  0  0  0  2  0  0  0  0  0  0
  189.8320  176.5100  146.2910 C   0  0  0  0  0  2  0  0  0  0  0  0
  191.6760  178.5040  144.1650 C   0  0  0  0  0  3  0  0  0  0  0  0
  182.5290  179.7010  143.5130 C   0  0  0  0  0  2  0  0  0  0  0  0
  180.3490  178.6590  144.0390 C   0  0  0  0  0  1  0  0  0  0  0  0
  181.1060  179.4990  143.0330 C   0  0  0  0  0  2  0  0  0  0  0  0
  1 35  1  6  0  0  0
  2  5  1  0  0  0  0
  3 22  1  1  0  0  0
  4  7  2  0  0  0  0
  5  3  1  0  0  0  0
  6  1  1  0  0  0  0
  7 11  1  0  0  0  0
  7  6  1  0  0  0  0
  8 10  1  1  0  0  0
  8  2  1  0  0  0  0
  9  3  1  0  0  0  0
  9 12  1  6  0  0  0
 11 10  1  6  0  0  0
 11  9  1  0  0  0  0
 12  1  1  0  0  0  0
 13 19  1  0  0  0  0
 15 14  1  0  0  0  0
 17 18  1  0  0  0  0
 17 20  1  1  0  0  0
 17 13  1  0  0  0  0
 18 16  1  1  0  0  0
 18 15  1  0  0  0  0
 19 14  1  6  0  0  0
 19  8  1  0  0  0  0
 21 13  2  0  0  0  0
 22 24  1  0  0  0  0
 22 27  1  0  0  0  0
 22 23  1  0  0  0  0
 25 26  1  0  0  0  0
 26 33  1  0  0  0  0
 26 28  1  0  0  0  0
 27 26  1  0  0  0  0
 28 31  1  0  0  0  0
 29 27  1  0  0  0  0
 30 32  1  0  0  0  0
 30 34  1  0  0  0  0
 32 29  1  0  0  0  0
 33 31  1  0  0  0  0
 34 25  2  0  0  0  0
 37 35  1  0  0  0  0
 37 36  1  0  0  0  0
M  END
>  <MODEL>
3

>  <REMARK>
 VINA RESULT:      -5.6      1.431      2.528
  Name = 
  5 active torsions:
  status: ('A' for Active; 'I' for Inactive)
    1  A    between atoms: C_1  and  C_5
    2  A    between atoms: C_4  and  C_10
    3  A    between atoms: C_4  and  N_13
    4  A    between atoms: C_5  and  C_23
    5  A    between atoms: N_27  and  C_31
                            x       y       z     vdW  Elec       q    Type
                         _______ _______ _______ _____ _____    ______ ____

>  <TORSDO>
F 5

$$$$
=
 OpenBabel10272414563D

 37 41  0  0  1  0  0  0  0  0999 V2000
  187.9780  178.0420  137.2200 C   0  0  1  0  0  3  0  0  0  0  0  0
  186.3560  179.1140  141.9970 C   0  0  0  0  0  2  0  0  0  0  0  0
  185.4390  178.4200  139.7610 C   0  0  1  0  0  3  0  0  0  0  0  0
  189.7550  175.9820  139.5680 O   0  0  0  0  0  0  0  0  0  0  0  0
  185.4080  178.1630  141.2730 C   0  0  0  0  0  2  0  0  0  0  0  0
  189.0430  177.3110  137.8310 O   0  0  0  0  0  0  0  0  0  0  0  0
  188.9120  176.8040  139.1260 C   0  0  0  0  0  0  0  0  0  0  0  0
  187.6980  178.5460  142.1920 N   0  0  2  0  0  0  0  0  0  0  0  0
  186.7130  177.8600  139.0760 C   0  0  2  0  0  3  0  0  0  0  0  0
  188.3900  178.4100  140.9010 C   0  0  0  0  0  2  0  0  0  0  0  0
  187.8130  177.3080  140.0040 C   0  0  2  0  0  3  0  0  0  0  0  0
  187.2650  178.7940  138.1790 O   0  0  0  0  0  0  0  0  0  0  0  0
  189.0590  176.8990  143.4250 C   0  0  0  0  0  0  0  0  0  0  0  0
  186.7770  177.4040  144.2080 C   0  0  0  0  0  2  0  0  0  0  0  0
  187.3840  178.3500  145.2480 C   0  0  0  0  0  2  0  0  0  0  0  0
  188.6290  176.6570  146.3900 F   0  0  0  0  0  0  0  0  0  0  0  0
  189.7180  177.6790  144.5250 C   0  0  2  0  0  3  0  0  0  0  0  0
  188.7590  177.8530  145.7060 C   0  0  1  0  0  3  0  0  0  0  0  0
  187.6750  177.2850  142.9650 C   0  0  1  0  0  3  0  0  0  0  0  0
  190.1100  178.9200  144.0520 F   0  0  0  0  0  0  0  0  0  0  0  0
  189.6270  175.7850  142.9690 C   0  0  0  0  0  2  0  0  0  0  0  0
  184.1170  177.9550  139.0710 C   0  0  0  0  0  0  0  0  0  0  0  0
  183.0940  177.5540  140.1380 C   0  0  0  0  0  1  0  0  0  0  0  0
  183.4460  179.1060  138.3220 C   0  0  0  0  0  1  0  0  0  0  0  0
  184.1090  174.3530  137.9770 C   0  0  0  0  0  3  0  0  0  0  0  0
  183.3920  175.6770  138.0930 C   0  0  0  0  0  0  0  0  0  0  0  0
  184.3340  176.8400  138.1040 N   0  0  0  0  0  0  0  0  0  0  0  0
  182.3650  175.6170  139.2180 C   0  0  0  0  0  2  0  0  0  0  0  0
  184.7090  177.2960  136.7510 C   0  0  0  0  0  2  0  0  0  0  0  0
  186.1230  175.2120  136.7060 C   0  0  0  0  0  2  0  0  0  0  0  0
  181.2420  175.7250  138.2040 C   0  0  0  0  0  2  0  0  0  0  0  0
  185.2810  176.1730  135.8830 C   0  0  0  0  0  2  0  0  0  0  0  0
  182.2590  175.7930  137.0810 C   0  0  0  0  0  2  0  0  0  0  0  0
  185.2770  174.1450  137.3460 C   0  0  0  0  0  3  0  0  0  0  0  0
  188.5590  178.9620  136.1620 C   0  0  0  0  0  2  0  0  0  0  0  0
  188.4100  177.2880  134.3480 C   0  0  0  0  0  1  0  0  0  0  0  0
  189.3500  178.1670  135.1430 C   0  0  0  0  0  2  0  0  0  0  0  0
  1 35  1  6  0  0  0
  1  6  1  0  0  0  0
  1 12  1  0  0  0  0
  2  8  1  0  0  0  0
  3 22  1  6  0  0  0
  3  5  1  0  0  0  0
  5  2  1  0  0  0  0
  6  7  1  0  0  0  0
  7  4  2  0  0  0  0
  7 11  1  0  0  0  0
  8 10  1  6  0  0  0
  8 19  1  0  0  0  0
  9 12  1  1  0  0  0
  9  3  1  0  0  0  0
  9 11  1  0  0  0  0
 11 10  1  1  0  0  0
 13 17  1  0  0  0  0
 14 15  1  0  0  0  0
 15 18  1  0  0  0  0
 17 20  1  6  0  0  0
 17 18  1  0  0  0  0
 18 16  1  6  0  0  0
 19 13  1  0  0  0  0
 19 14  1  1  0  0  0
 21 13  2  0  0  0  0
 22 23  1  0  0  0  0
 24 22  1  0  0  0  0
 25 26  1  0  0  0  0
 26 27  1  0  0  0  0
 26 28  1  0  0  0  0
 27 22  1  0  0  0  0
 29 27  1  0  0  0  0
 30 34  1  0  0  0  0
 31 28  1  0  0  0  0
 32 30  1  0  0  0  0
 32 29  1  0  0  0  0
 33 26  1  0  0  0  0
 33 31  1  0  0  0  0
 34 25  2  0  0  0  0
 36 37  1  0  0  0  0
 37 35  1  0  0  0  0
M  END
>  <MODEL>
4

>  <REMARK>
 VINA RESULT:      -5.4      3.334      8.341
  Name = 
  5 active torsions:
  status: ('A' for Active; 'I' for Inactive)
    1  A    between atoms: C_1  and  C_5
    2  A    between atoms: C_4  and  C_10
    3  A    between atoms: C_4  and  N_13
    4  A    between atoms: C_5  and  C_23
    5  A    between atoms: N_27  and  C_31
                            x       y       z     vdW  Elec       q    Type
                         _______ _______ _______ _____ _____    ______ ____

>  <TORSDO>
F 5

$$$$
=
 OpenBabel10272414563D

 37 41  0  0  1  0  0  0  0  0999 V2000
  188.8730  177.6650  140.4330 C   0  0  1  0  0  3  0  0  0  0  0  0
  189.4840  174.7820  136.2010 C   0  0  0  0  0  2  0  0  0  0  0  0
  188.1330  176.7360  137.0220 C   0  0  1  0  0  3  0  0  0  0  0  0
  192.3390  177.6720  139.4800 O   0  0  0  0  0  0  0  0  0  0  0  0
  188.9780  176.1820  135.8690 C   0  0  0  0  0  2  0  0  0  0  0  0
  190.2990  177.6650  140.5420 O   0  0  0  0  0  0  0  0  0  0  0  0
  191.1010  177.4520  139.4190 C   0  0  0  0  0  0  0  0  0  0  0  0
  190.8140  174.7870  136.8260 N   0  0  2  0  0  0  0  0  0  0  0  0
  188.9860  177.2030  138.2300 C   0  0  2  0  0  3  0  0  0  0  0  0
  190.7440  175.3720  138.1740 C   0  0  0  0  0  2  0  0  0  0  0  0
  190.4930  176.8860  138.1780 C   0  0  2  0  0  3  0  0  0  0  0  0
  188.4410  176.7510  139.4470 O   0  0  0  0  0  0  0  0  0  0  0  0
  193.2100  175.3300  136.6010 C   0  0  0  0  0  0  0  0  0  0  0  0
  191.9050  174.7750  134.5850 C   0  0  0  0  0  2  0  0  0  0  0  0
  192.4650  173.3520  134.6600 C   0  0  0  0  0  2  0  0  0  0  0  0
  194.7520  173.9960  134.3930 F   0  0  0  0  0  0  0  0  0  0  0  0
  193.9160  174.0050  136.6310 C   0  0  2  0  0  3  0  0  0  0  0  0
  193.8790  173.3480  135.2490 C   0  0  1  0  0  3  0  0  0  0  0  0
  191.8400  175.4280  135.9760 C   0  0  1  0  0  3  0  0  0  0  0  0
  193.3180  173.1740  137.5630 F   0  0  0  0  0  0  0  0  0  0  0  0
  193.8500  176.4320  136.9830 C   0  0  0  0  0  2  0  0  0  0  0  0
  187.1250  177.8230  136.5260 C   0  0  0  0  0  0  0  0  0  0  0  0
  187.6020  179.2080  136.9730 C   0  0  0  0  0  1  0  0  0  0  0  0
  187.1030  177.9070  135.0000 C   0  0  0  0  0  1  0  0  0  0  0  0
  183.5480  176.7240  136.1170 C   0  0  0  0  0  3  0  0  0  0  0  0
  184.9770  176.3890  136.4670 C   0  0  0  0  0  0  0  0  0  0  0  0
  185.7300  177.5700  136.9940 N   0  0  0  0  0  0  0  0  0  0  0  0
  185.6270  175.6160  135.3240 C   0  0  0  0  0  2  0  0  0  0  0  0
  185.5480  177.7750  138.4440 C   0  0  0  0  0  2  0  0  0  0  0  0
  183.2590  178.6010  137.7910 C   0  0  0  0  0  2  0  0  0  0  0  0
  185.7030  174.3790  136.1990 C   0  0  0  0  0  2  0  0  0  0  0  0
  184.0750  177.8770  138.8490 C   0  0  0  0  0  2  0  0  0  0  0  0
  185.0640  175.1440  137.3420 C   0  0  0  0  0  2  0  0  0  0  0  0
  182.7910  177.6610  136.7130 C   0  0  0  0  0  3  0  0  0  0  0  0
  188.2790  177.2990  141.7800 C   0  0  0  0  0  2  0  0  0  0  0  0
  189.2980  176.9960  144.0130 C   0  0  0  0  0  1  0  0  0  0  0  0
  189.2640  176.4810  142.5910 C   0  0  0  0  0  2  0  0  0  0  0  0
  1  6  1  0  0  0  0
  1 35  1  1  0  0  0
  3 22  1  6  0  0  0
  3  9  1  0  0  0  0
  5  2  1  0  0  0  0
  5  3  1  0  0  0  0
  7  4  2  0  0  0  0
  7  6  1  0  0  0  0
  8  2  1  6  0  0  0
  8 10  1  0  0  0  0
  9 12  1  1  0  0  0
 11 10  1  1  0  0  0
 11  9  1  0  0  0  0
 11  7  1  0  0  0  0
 12  1  1  0  0  0  0
 13 17  1  0  0  0  0
 13 21  2  0  0  0  0
 14 15  1  0  0  0  0
 15 18  1  0  0  0  0
 17 20  1  1  0  0  0
 18 16  1  6  0  0  0
 18 17  1  0  0  0  0
 19 14  1  6  0  0  0
 19 13  1  0  0  0  0
 19  8  1  0  0  0  0
 22 23  1  0  0  0  0
 22 27  1  0  0  0  0
 24 22  1  0  0  0  0
 25 26  1  0  0  0  0
 25 34  2  0  0  0  0
 26 27  1  0  0  0  0
 26 33  1  0  0  0  0
 27 29  1  0  0  0  0
 28 31  1  0  0  0  0
 28 26  1  0  0  0  0
 29 32  1  0  0  0  0
 30 32  1  0  0  0  0
 31 33  1  0  0  0  0
 34 30  1  0  0  0  0
 35 37  1  0  0  0  0
 37 36  1  0  0  0  0
M  END
>  <MODEL>
5

>  <REMARK>
 VINA RESULT:      -5.4      3.724      7.835
  Name = 
  5 active torsions:
  status: ('A' for Active; 'I' for Inactive)
    1  A    between atoms: C_1  and  C_5
    2  A    between atoms: C_4  and  C_10
    3  A    between atoms: C_4  and  N_13
    4  A    between atoms: C_5  and  C_23
    5  A    between atoms: N_27  and  C_31
                            x       y       z     vdW  Elec       q    Type
                         _______ _______ _______ _____ _____    ______ ____

>  <TORSDO>
F 5

$$$$
=
 OpenBabel10272414563D

 37 41  0  0  1  0  0  0  0  0999 V2000
  191.2600  177.1480  140.4870 C   0  0  1  0  0  3  0  0  0  0  0  0
  186.4560  179.0180  140.3560 C   0  0  0  0  0  2  0  0  0  0  0  0
  187.9990  177.5770  138.9930 C   0  0  1  0  0  3  0  0  0  0  0  0
  189.5460  176.2340  143.5110 O   0  0  0  0  0  0  0  0  0  0  0  0
  186.5840  177.7210  139.5650 C   0  0  0  0  0  2  0  0  0  0  0  0
  191.0270  176.8660  141.8690 O   0  0  0  0  0  0  0  0  0  0  0  0
  189.7290  176.6960  142.3550 C   0  0  0  0  0  0  0  0  0  0  0  0
  186.7350  178.8460  141.7890 N   0  0  2  0  0  0  0  0  0  0  0  0
  189.0470  177.1680  140.0610 C   0  0  2  0  0  3  0  0  0  0  0  0
  188.1590  178.5430  142.0010 C   0  0  0  0  0  2  0  0  0  0  0  0
  188.5700  177.1430  141.5260 C   0  0  2  0  0  3  0  0  0  0  0  0
  190.2200  177.9380  139.9500 O   0  0  0  0  0  0  0  0  0  0  0  0
  185.7360  178.0920  143.9150 C   0  0  0  0  0  0  0  0  0  0  0  0
  184.4190  177.9230  141.8370 C   0  0  0  0  0  2  0  0  0  0  0  0
  183.7110  179.2240  142.2250 C   0  0  0  0  0  2  0  0  0  0  0  0
  182.7600  178.3690  144.2460 F   0  0  0  0  0  0  0  0  0  0  0  0
  184.9650  179.2750  144.4260 C   0  0  2  0  0  3  0  0  0  0  0  0
  183.5950  179.3540  143.7470 C   0  0  1  0  0  3  0  0  0  0  0  0
  185.8390  177.8580  142.4290 C   0  0  1  0  0  3  0  0  0  0  0  0
  185.6750  180.4380  144.1880 F   0  0  0  0  0  0  0  0  0  0  0  0
  186.1910  177.1790  144.7680 C   0  0  0  0  0  2  0  0  0  0  0  0
  188.0190  176.6570  137.7300 C   0  0  0  0  0  0  0  0  0  0  0  0
  188.8270  177.3300  136.6170 C   0  0  0  0  0  1  0  0  0  0  0  0
  188.7690  175.3530  138.0030 C   0  0  0  0  0  1  0  0  0  0  0  0
  184.5370  177.4360  136.5300 C   0  0  0  0  0  3  0  0  0  0  0  0
  185.9890  177.1670  136.2170 C   0  0  0  0  0  0  0  0  0  0  0  0
  186.6500  176.3100  137.2500 N   0  0  0  0  0  0  0  0  0  0  0  0
  186.6940  178.4700  135.8550 C   0  0  0  0  0  2  0  0  0  0  0  0
  186.4550  174.8650  137.0160 C   0  0  0  0  0  2  0  0  0  0  0  0
  184.1080  175.3000  137.8220 C   0  0  0  0  0  2  0  0  0  0  0  0
  186.8680  177.9840  134.4280 C   0  0  0  0  0  2  0  0  0  0  0  0
  184.9800  174.4780  136.8870 C   0  0  0  0  0  2  0  0  0  0  0  0
  186.1740  176.6840  134.7840 C   0  0  0  0  0  2  0  0  0  0  0  0
  183.7120  176.6110  137.1980 C   0  0  0  0  0  3  0  0  0  0  0  0
  192.5880  177.8700  140.3500 C   0  0  0  0  0  2  0  0  0  0  0  0
  192.8040  176.4400  138.3440 C   0  0  0  0  0  1  0  0  0  0  0  0
  193.5500  177.0580  139.5070 C   0  0  0  0  0  2  0  0  0  0  0  0
  1 35  1  1  0  0  0
  1  6  1  0  0  0  0
  3 22  1  6  0  0  0
  3  5  1  0  0  0  0
  3  9  1  0  0  0  0
  5  2  1  0  0  0  0
  6  7  1  0  0  0  0
  7  4  2  0  0  0  0
  8  2  1  6  0  0  0
  8 10  1  0  0  0  0
  8 19  1  0  0  0  0
  9 12  1  1  0  0  0
  9 11  1  0  0  0  0
 11 10  1  1  0  0  0
 11  7  1  0  0  0  0
 12  1  1  0  0  0  0
 13 17  1  0  0  0  0
 13 21  2  0  0  0  0
 14 15  1  0  0  0  0
 15 18  1  0  0  0  0
 17 20  1  6  0  0  0
 18 16  1  1  0  0  0
 18 17  1  0  0  0  0
 19 14  1  6  0  0  0
 19 13  1  0  0  0  0
 22 24  1  0  0  0  0
 23 22  1  0  0  0  0
 25 34  2  0  0  0  0
 26 25  1  0  0  0  0
 26 27  1  0  0  0  0
 27 22  1  0  0  0  0
 28 26  1  0  0  0  0
 29 27  1  0  0  0  0
 31 33  1  0  0  0  0
 31 28  1  0  0  0  0
 32 29  1  0  0  0  0
 32 30  1  0  0  0  0
 33 26  1  0  0  0  0
 34 30  1  0  0  0  0
 36 37  1  0  0  0  0
 37 35  1  0  0  0  0
M  END
>  <MODEL>
6

>  <REMARK>
 VINA RESULT:      -5.2      3.375      7.980
  Name = 
  5 active torsions:
  status: ('A' for Active; 'I' for Inactive)
    1  A    between atoms: C_1  and  C_5
    2  A    between atoms: C_4  and  C_10
    3  A    between atoms: C_4  and  N_13
    4  A    between atoms: C_5  and  C_23
    5  A    between atoms: N_27  and  C_31
                            x       y       z     vdW  Elec       q    Type
                         _______ _______ _______ _____ _____    ______ ____

>  <TORSDO>
F 5

$$$$
=
 OpenBabel10272414563D

 37 41  0  0  1  0  0  0  0  0999 V2000
  187.1080  178.1830  136.8570 C   0  0  1  0  0  3  0  0  0  0  0  0
  185.8380  179.0580  141.7780 C   0  0  0  0  0  2  0  0  0  0  0  0
  184.7970  178.2680  139.6320 C   0  0  1  0  0  3  0  0  0  0  0  0
  189.3220  176.3340  139.0020 O   0  0  0  0  0  0  0  0  0  0  0  0
  184.9390  178.0070  141.1360 C   0  0  0  0  0  2  0  0  0  0  0  0
  188.3020  177.5760  137.3560 O   0  0  0  0  0  0  0  0  0  0  0  0
  188.3520  177.0560  138.6510 C   0  0  0  0  0  0  0  0  0  0  0  0
  187.2480  178.6450  141.8390 N   0  0  2  0  0  0  0  0  0  0  0  0
  186.0540  177.8570  138.8220 C   0  0  2  0  0  3  0  0  0  0  0  0
  187.8250  178.5910  140.4870 C   0  0  0  0  0  2  0  0  0  0  0  0
  187.2930  177.4310  139.6350 C   0  0  2  0  0  3  0  0  0  0  0  0
  186.4100  178.8480  137.8880 O   0  0  0  0  0  0  0  0  0  0  0  0
  188.8980  177.1560  142.9090 C   0  0  0  0  0  0  0  0  0  0  0  0
  186.6650  177.4080  143.9240 C   0  0  0  0  0  2  0  0  0  0  0  0
  187.2680  178.4130  144.9090 C   0  0  0  0  0  2  0  0  0  0  0  0
  188.7990  176.8660  145.9000 F   0  0  0  0  0  0  0  0  0  0  0  0
  189.5760  178.0040  143.9470 C   0  0  2  0  0  3  0  0  0  0  0  0
  188.7280  178.0700  145.2200 C   0  0  1  0  0  3  0  0  0  0  0  0
  187.4410  177.3890  142.5950 C   0  0  1  0  0  3  0  0  0  0  0  0
  189.7800  179.2800  143.4520 F   0  0  0  0  0  0  0  0  0  0  0  0
  189.5350  176.1120  142.3860 C   0  0  0  0  0  2  0  0  0  0  0  0
  183.4750  177.6570  139.0640 C   0  0  0  0  0  0  0  0  0  0  0  0
  183.7860  176.8370  137.8080 C   0  0  0  0  0  1  0  0  0  0  0  0
  182.8700  176.6430  140.0340 C   0  0  0  0  0  1  0  0  0  0  0  0
  181.1070  179.5710  136.8500 C   0  0  0  0  0  3  0  0  0  0  0  0
  181.3670  178.4040  137.7720 C   0  0  0  0  0  0  0  0  0  0  0  0
  182.4410  178.6920  138.7740 N   0  0  0  0  0  0  0  0  0  0  0  0
  181.5140  177.1210  136.9600 C   0  0  0  0  0  2  0  0  0  0  0  0
  181.9400  179.3800  139.9800 C   0  0  0  0  0  2  0  0  0  0  0  0
  181.7890  181.3920  138.4710 C   0  0  0  0  0  2  0  0  0  0  0  0
  180.2220  176.5920  137.5560 C   0  0  0  0  0  2  0  0  0  0  0  0
  181.1740  180.6650  139.6550 C   0  0  0  0  0  2  0  0  0  0  0  0
  180.0750  177.8620  138.3710 C   0  0  0  0  0  2  0  0  0  0  0  0
  181.2580  180.8690  137.1640 C   0  0  0  0  0  3  0  0  0  0  0  0
  187.4780  179.1640  135.7600 C   0  0  0  0  0  2  0  0  0  0  0  0
  186.0000  177.5890  134.5560 C   0  0  0  0  0  1  0  0  0  0  0  0
  187.1120  178.6040  134.4010 C   0  0  0  0  0  2  0  0  0  0  0  0
  1 35  1  6  0  0  0
  1  6  1  0  0  0  0
  1 12  1  0  0  0  0
  2  8  1  0  0  0  0
  3 22  1  6  0  0  0
  3  5  1  0  0  0  0
  5  2  1  0  0  0  0
  6  7  1  0  0  0  0
  7  4  2  0  0  0  0
  7 11  1  0  0  0  0
  8 10  1  6  0  0  0
  8 19  1  0  0  0  0
  9 12  1  1  0  0  0
  9  3  1  0  0  0  0
  9 11  1  0  0  0  0
 11 10  1  6  0  0  0
 13 17  1  0  0  0  0
 14 15  1  0  0  0  0
 15 18  1  0  0  0  0
 17 20  1  6  0  0  0
 17 18  1  0  0  0  0
 18 16  1  6  0  0  0
 19 13  1  0  0  0  0
 19 14  1  1  0  0  0
 21 13  2  0  0  0  0
 22 24  1  0  0  0  0
 23 22  1  0  0  0  0
 25 34  2  0  0  0  0
 25 26  1  0  0  0  0
 26 33  1  0  0  0  0
 26 27  1  0  0  0  0
 27 22  1  0  0  0  0
 27 29  1  0  0  0  0
 28 31  1  0  0  0  0
 28 26  1  0  0  0  0
 30 32  1  0  0  0  0
 31 33  1  0  0  0  0
 32 29  1  0  0  0  0
 34 30  1  0  0  0  0
 37 36  1  0  0  0  0
 37 35  1  0  0  0  0
M  END
>  <MODEL>
7

>  <REMARK>
 VINA RESULT:      -5.1      3.699      8.647
  Name = 
  5 active torsions:
  status: ('A' for Active; 'I' for Inactive)
    1  A    between atoms: C_1  and  C_5
    2  A    between atoms: C_4  and  C_10
    3  A    between atoms: C_4  and  N_13
    4  A    between atoms: C_5  and  C_23
    5  A    between atoms: N_27  and  C_31
                            x       y       z     vdW  Elec       q    Type
                         _______ _______ _______ _____ _____    ______ ____

>  <TORSDO>
F 5

$$$$
=
 OpenBabel10272414563D

 37 41  0  0  1  0  0  0  0  0999 V2000
  188.1030  178.1680  137.7510 C   0  0  1  0  0  3  0  0  0  0  0  0
  183.6960  179.1000  140.2610 C   0  0  0  0  0  2  0  0  0  0  0  0
  184.5510  177.7960  138.2900 C   0  0  1  0  0  3  0  0  0  0  0  0
  188.5240  177.3650  141.2290 O   0  0  0  0  0  0  0  0  0  0  0  0
  183.6690  177.7540  139.5440 C   0  0  0  0  0  2  0  0  0  0  0  0
  188.7140  178.0340  139.0360 O   0  0  0  0  0  0  0  0  0  0  0  0
  187.9530  177.6960  140.1570 C   0  0  0  0  0  0  0  0  0  0  0  0
  184.7260  179.1710  141.3070 N   0  0  2  0  0  0  0  0  0  0  0  0
  186.0670  177.7290  138.6100 C   0  0  2  0  0  3  0  0  0  0  0  0
  186.0690  179.1640  140.7050 C   0  0  0  0  0  2  0  0  0  0  0  0
  186.4650  177.8120  140.0970 C   0  0  2  0  0  3  0  0  0  0  0  0
  186.7910  178.6780  137.8650 O   0  0  0  0  0  0  0  0  0  0  0  0
  185.4200  178.4140  143.5500 C   0  0  0  0  0  0  0  0  0  0  0  0
  183.0970  178.0380  142.8150 C   0  0  0  0  0  2  0  0  0  0  0  0
  182.6850  179.2820  143.6090 C   0  0  0  0  0  2  0  0  0  0  0  0
  183.3570  178.4230  145.7370 F   0  0  0  0  0  0  0  0  0  0  0  0
  185.0520  179.5380  144.4740 C   0  0  2  0  0  3  0  0  0  0  0  0
  183.5690  179.4610  144.8470 C   0  0  1  0  0  3  0  0  0  0  0  0
  184.5580  178.1300  142.3440 C   0  0  1  0  0  3  0  0  0  0  0  0
  185.3220  180.7530  143.8680 F   0  0  0  0  0  0  0  0  0  0  0  0
  186.4050  177.5810  143.8760 C   0  0  0  0  0  2  0  0  0  0  0  0
  184.1000  176.7360  137.2340 C   0  0  0  0  0  0  0  0  0  0  0  0
  184.3240  177.2880  135.8230 C   0  0  0  0  0  1  0  0  0  0  0  0
  184.9770  175.4850  137.2910 C   0  0  0  0  0  1  0  0  0  0  0  0
  180.4400  177.3070  137.9050 C   0  0  0  0  0  3  0  0  0  0  0  0
  181.5770  177.1950  136.9190 C   0  0  0  0  0  0  0  0  0  0  0  0
  182.6800  176.3130  137.4140 N   0  0  0  0  0  0  0  0  0  0  0  0
  181.9780  178.5810  136.4260 C   0  0  0  0  0  2  0  0  0  0  0  0
  182.4510  174.8820  137.1300 C   0  0  0  0  0  2  0  0  0  0  0  0
  180.7540  175.0390  138.9860 C   0  0  0  0  0  2  0  0  0  0  0  0
  181.4700  178.2380  135.0380 C   0  0  0  0  0  2  0  0  0  0  0  0
  181.1060  174.3800  137.6630 C   0  0  0  0  0  2  0  0  0  0  0  0
  181.0770  176.8550  135.5210 C   0  0  0  0  0  2  0  0  0  0  0  0
  180.0610  176.3590  138.7790 C   0  0  0  0  0  3  0  0  0  0  0  0
  188.9510  179.0950  136.8990 C   0  0  0  0  0  2  0  0  0  0  0  0
  188.7050  177.0460  135.5360 C   0  0  0  0  0  1  0  0  0  0  0  0
  189.3580  178.4090  135.6110 C   0  0  0  0  0  2  0  0  0  0  0  0
  1 35  1  6  0  0  0
  1 12  1  0  0  0  0
  1  6  1  0  0  0  0
  3 22  1  6  0  0  0
  3  9  1  0  0  0  0
  3  5  1  0  0  0  0
  5  2  1  0  0  0  0
  6  7  1  0  0  0  0
  7  4  2  0  0  0  0
  8  2  1  6  0  0  0
  8 19  1  0  0  0  0
  9 12  1  6  0  0  0
  9 11  1  0  0  0  0
 10  8  1  0  0  0  0
 11  7  1  0  0  0  0
 11 10  1  6  0  0  0
 13 21  2  0  0  0  0
 13 17  1  0  0  0  0
 14 15  1  0  0  0  0
 15 18  1  0  0  0  0
 17 20  1  6  0  0  0
 17 18  1  0  0  0  0
 18 16  1  1  0  0  0
 19 14  1  1  0  0  0
 19 13  1  0  0  0  0
 22 24  1  0  0  0  0
 22 27  1  0  0  0  0
 23 22  1  0  0  0  0
 25 34  2  0  0  0  0
 26 27  1  0  0  0  0
 26 25  1  0  0  0  0
 28 26  1  0  0  0  0
 29 27  1  0  0  0  0
 29 32  1  0  0  0  0
 31 33  1  0  0  0  0
 31 28  1  0  0  0  0
 32 30  1  0  0  0  0
 33 26  1  0  0  0  0
 34 30  1  0  0  0  0
 36 37  1  0  0  0  0
 37 35  1  0  0  0  0
M  END
>  <MODEL>
8

>  <REMARK>
 VINA RESULT:      -5.0      3.747      8.967
  Name = 
  5 active torsions:
  status: ('A' for Active; 'I' for Inactive)
    1  A    between atoms: C_1  and  C_5
    2  A    between atoms: C_4  and  C_10
    3  A    between atoms: C_4  and  N_13
    4  A    between atoms: C_5  and  C_23
    5  A    between atoms: N_27  and  C_31
                            x       y       z     vdW  Elec       q    Type
                         _______ _______ _______ _____ _____    ______ ____

>  <TORSDO>
F 5

$$$$
=
 OpenBabel10272414563D

 37 41  0  0  1  0  0  0  0  0999 V2000
  190.5580  177.1960  139.9130 C   0  0  1  0  0  3  0  0  0  0  0  0
  191.7190  173.7420  136.2630 C   0  0  0  0  0  2  0  0  0  0  0  0
  190.2090  175.7160  136.6360 C   0  0  1  0  0  3  0  0  0  0  0  0
  194.0990  177.2600  139.3000 O   0  0  0  0  0  0  0  0  0  0  0  0
  191.1900  175.0430  135.6690 C   0  0  0  0  0  2  0  0  0  0  0  0
  191.9630  177.2950  140.1540 O   0  0  0  0  0  0  0  0  0  0  0  0
  192.8840  176.9610  139.1590 C   0  0  0  0  0  0  0  0  0  0  0  0
  192.9770  173.9200  137.0020 N   0  0  2  0  0  0  0  0  0  0  0  0
  190.9130  176.4110  137.8300 C   0  0  2  0  0  3  0  0  0  0  0  0
  192.7450  174.6990  138.2290 C   0  0  0  0  0  2  0  0  0  0  0  0
  192.4310  176.1780  137.9710 C   0  0  2  0  0  3  0  0  0  0  0  0
  190.2680  176.1190  139.0470 O   0  0  0  0  0  0  0  0  0  0  0  0
  195.4170  174.1510  136.7230 C   0  0  0  0  0  0  0  0  0  0  0  0
  193.9890  173.9410  134.7240 C   0  0  0  0  0  2  0  0  0  0  0  0
  194.3500  172.4530  134.6700 C   0  0  0  0  0  2  0  0  0  0  0  0
  196.6950  172.8020  134.3590 F   0  0  0  0  0  0  0  0  0  0  0  0
  195.9350  172.7460  136.6250 C   0  0  2  0  0  3  0  0  0  0  0  0
  195.7670  172.2120  135.1990 C   0  0  1  0  0  3  0  0  0  0  0  0
  194.0560  174.4830  136.1630 C   0  0  1  0  0  3  0  0  0  0  0  0
  195.2570  171.9310  137.5140 F   0  0  0  0  0  0  0  0  0  0  0  0
  196.2140  175.1230  137.1600 C   0  0  0  0  0  2  0  0  0  0  0  0
  189.2110  176.6540  135.8830 C   0  0  0  0  0  0  0  0  0  0  0  0
  189.2050  178.0350  136.5450 C   0  0  0  0  0  1  0  0  0  0  0  0
  189.6740  176.9250  134.4520 C   0  0  0  0  0  1  0  0  0  0  0  0
  186.0230  175.2990  137.3580 C   0  0  0  0  0  3  0  0  0  0  0  0
  186.8300  176.4770  136.8680 C   0  0  0  0  0  0  0  0  0  0  0  0
  187.8290  176.0940  135.8220 N   0  0  0  0  0  0  0  0  0  0  0  0
  187.3530  177.2800  138.0550 C   0  0  0  0  0  2  0  0  0  0  0  0
  187.2620  176.0680  134.4600 C   0  0  0  0  0  2  0  0  0  0  0  0
  186.1550  173.9390  135.2260 C   0  0  0  0  0  2  0  0  0  0  0  0
  186.4540  178.4400  137.6720 C   0  0  0  0  0  2  0  0  0  0  0  0
  186.0260  175.1730  134.3490 C   0  0  0  0  0  2  0  0  0  0  0  0
  185.9360  177.6500  136.4860 C   0  0  0  0  0  2  0  0  0  0  0  0
  185.7020  174.2120  136.6350 C   0  0  0  0  0  3  0  0  0  0  0  0
  189.8450  177.0050  141.2390 C   0  0  0  0  0  2  0  0  0  0  0  0
  190.6430  178.0230  143.3470 C   0  0  0  0  0  1  0  0  0  0  0  0
  190.8480  176.8880  142.3690 C   0  0  0  0  0  2  0  0  0  0  0  0
  1  6  1  0  0  0  0
  1 35  1  1  0  0  0
  3 22  1  6  0  0  0
  3  9  1  0  0  0  0
  5  2  1  0  0  0  0
  5  3  1  0  0  0  0
  7  4  2  0  0  0  0
  7  6  1  0  0  0  0
  8  2  1  6  0  0  0
  8 10  1  0  0  0  0
  9 11  1  0  0  0  0
  9 12  1  1  0  0  0
 11 10  1  1  0  0  0
 11  7  1  0  0  0  0
 12  1  1  0  0  0  0
 13 21  2  0  0  0  0
 15 14  1  0  0  0  0
 15 18  1  0  0  0  0
 17 13  1  0  0  0  0
 17 20  1  1  0  0  0
 18 16  1  6  0  0  0
 18 17  1  0  0  0  0
 19 14  1  6  0  0  0
 19 13  1  0  0  0  0
 19  8  1  0  0  0  0
 22 23  1  0  0  0  0
 24 22  1  0  0  0  0
 26 25  1  0  0  0  0
 26 28  1  0  0  0  0
 27 22  1  0  0  0  0
 27 26  1  0  0  0  0
 29 27  1  0  0  0  0
 30 34  1  0  0  0  0
 31 28  1  0  0  0  0
 32 29  1  0  0  0  0
 32 30  1  0  0  0  0
 33 26  1  0  0  0  0
 33 31  1  0  0  0  0
 34 25  2  0  0  0  0
 35 37  1  0  0  0  0
 37 36  1  0  0  0  0
M  END
>  <MODEL>
9

>  <REMARK>
 VINA RESULT:      -4.6      5.077      8.835
  Name = 
  5 active torsions:
  status: ('A' for Active; 'I' for Inactive)
    1  A    between atoms: C_1  and  C_5
    2  A    between atoms: C_4  and  C_10
    3  A    between atoms: C_4  and  N_13
    4  A    between atoms: C_5  and  C_23
    5  A    between atoms: N_27  and  C_31
                            x       y       z     vdW  Elec       q    Type
                         _______ _______ _______ _____ _____    ______ ____

>  <TORSDO>
F 5

$$$$
