=
 OpenBabel10272401573D

 28 32  0  0  1  0  0  0  0  0999 V2000
  190.5570  176.2900  137.4600 N   0  0  0  0  0  0  0  0  0  0  0  0
  189.8360  176.9460  139.6030 C   0  0  1  0  0  3  0  0  0  0  0  0
  189.5730  177.9920  138.6240 C   0  0  0  0  0  0  0  0  0  0  0  0
  189.0160  179.0980  138.8500 O   0  0  0  0  0  0  0  0  0  0  0  0
  189.9670  177.5580  137.3590 N   0  0  0  0  0  2  0  0  0  0  0  0
  190.4580  175.8690  138.8180 N   0  0  0  0  0  2  0  0  0  0  0  0
  191.9660  177.5070  140.4740 O   0  0  0  0  0  0  0  0  0  0  0  0
  190.7670  177.4100  140.6880 C   0  0  0  0  0  0  0  0  0  0  0  0
  191.2800  176.8570  145.7100 C   0  0  0  0  0  3  0  0  0  0  0  0
  188.9130  176.8710  144.5960 C   0  0  1  0  0  3  0  0  0  0  0  0
  190.9010  175.7590  143.5210 C   0  0  0  0  0  2  0  0  0  0  0  0
  189.2770  177.3970  147.0130 C   0  0  0  0  0  0  0  0  0  0  0  0
  190.4510  176.8590  144.4650 C   0  0  2  0  0  0  0  0  0  0  0  0
  188.7590  177.3580  142.1650 C   0  0  0  0  0  2  0  0  0  0  0  0
  188.4560  177.3140  145.9610 C   0  0  0  0  0  3  0  0  0  0  0  0
  191.1660  177.2120  143.1600 C   0  0  2  0  0  3  0  0  0  0  0  0
  188.2460  177.7390  143.5400 C   0  0  0  0  0  2  0  0  0  0  0  0
  188.7290  177.8080  148.3310 C   0  0  0  0  0  1  0  0  0  0  0  0
  190.7190  177.1160  146.8910 C   0  0  0  0  0  3  0  0  0  0  0  0
  190.2330  177.7430  142.0470 C   0  0  1  0  0  3  0  0  0  0  0  0
  189.8410  175.3500  136.5800 C   0  0  0  0  0  2  0  0  0  0  0  0
  188.6840  174.5650  137.2230 C   0  0  2  0  0  3  0  0  0  0  0  0
  186.3500  172.9910  136.7350 C   0  0  0  0  0  0  0  0  0  0  0  0
  188.7110  173.1710  136.8900 O   0  0  0  0  0  0  0  0  0  0  0  0
  187.3400  175.2050  136.9890 C   0  0  0  0  0  3  0  0  0  0  0  0
  186.2530  174.4580  136.7920 C   0  0  0  0  0  3  0  0  0  0  0  0
  185.1210  172.1710  136.5800 C   0  0  0  0  0  1  0  0  0  0  0  0
  187.5450  172.4030  136.7650 C   0  0  0  0  0  3  0  0  0  0  0  0
  1  6  1  0  0  0  0
  2  8  1  1  0  0  0
  3  4  2  0  0  0  0
  3  2  1  0  0  0  0
  5  1  1  0  0  0  0
  5  3  1  0  0  0  0
  6  2  1  0  0  0  0
  7  8  2  0  0  0  0
  9 19  2  0  0  0  0
 10 17  1  6  0  0  0
 10 15  1  0  0  0  0
 12 18  1  0  0  0  0
 13 11  1  6  0  0  0
 13 10  1  0  0  0  0
 13  9  1  0  0  0  0
 14 17  1  0  0  0  0
 15 12  2  0  0  0  0
 16 11  1  6  0  0  0
 16 13  1  0  0  0  0
 19 12  1  0  0  0  0
 20  8  1  6  0  0  0
 20 14  1  0  0  0  0
 20 16  1  0  0  0  0
 21  1  1  0  0  0  0
 22 21  1  6  0  0  0
 23 28  2  0  0  0  0
 23 26  1  0  0  0  0
 24 22  1  0  0  0  0
 25 22  1  0  0  0  0
 26 25  2  0  0  0  0
 27 23  1  0  0  0  0
 28 24  1  0  0  0  0
M  END
>  <MODEL>
1

>  <REMARK>
 VINA RESULT:      -9.0      0.000      0.000
  Name = 
  4 active torsions:
  status: ('A' for Active; 'I' for Inactive)
    1  A    between atoms: N_1  and  C_2
    2  A    between atoms: C_2  and  C_3
    3  A    between atoms: C_16  and  C_20
    4  A    between atoms: C_20  and  C_25
                            x       y       z     vdW  Elec       q    Type
                         _______ _______ _______ _____ _____    ______ ____

>  <TORSDO>
F 4

$$$$
=
 OpenBabel10272401573D

 28 32  0  0  1  0  0  0  0  0999 V2000
  190.5940  176.7420  141.7190 N   0  0  0  0  0  0  0  0  0  0  0  0
  188.9950  177.9070  142.9960 C   0  0  1  0  0  3  0  0  0  0  0  0
  190.3410  178.3740  143.2980 C   0  0  0  0  0  0  0  0  0  0  0  0
  190.6460  179.2900  144.1060 O   0  0  0  0  0  0  0  0  0  0  0  0
  191.2610  177.7010  142.4960 N   0  0  0  0  0  2  0  0  0  0  0  0
  189.1980  176.8690  141.9740 N   0  0  0  0  0  2  0  0  0  0  0  0
  188.9660  176.7630  145.0700 O   0  0  0  0  0  0  0  0  0  0  0  0
  188.3140  177.3280  144.2040 C   0  0  0  0  0  0  0  0  0  0  0  0
  183.8860  178.4290  141.9750 C   0  0  0  0  0  3  0  0  0  0  0  0
  184.3400  179.1010  144.4620 C   0  0  1  0  0  3  0  0  0  0  0  0
  186.1190  179.2370  142.6840 C   0  0  0  0  0  2  0  0  0  0  0  0
  182.0360  178.8600  143.5230 C   0  0  0  0  0  0  0  0  0  0  0  0
  184.8460  178.5340  143.1180 C   0  0  2  0  0  0  0  0  0  0  0  0
  186.4510  178.3320  145.5230 C   0  0  0  0  0  2  0  0  0  0  0  0
  182.8390  179.0700  144.5710 C   0  0  0  0  0  3  0  0  0  0  0  0
  186.1520  177.7490  142.9970 C   0  0  2  0  0  3  0  0  0  0  0  0
  184.9420  178.3800  145.6590 C   0  0  0  0  0  2  0  0  0  0  0  0
  180.5640  178.8850  143.7180 C   0  0  0  0  0  1  0  0  0  0  0  0
  182.5780  178.5770  142.1810 C   0  0  0  0  0  3  0  0  0  0  0  0
  186.8270  177.4260  144.3500 C   0  0  1  0  0  3  0  0  0  0  0  0
  190.8780  176.9880  140.2940 C   0  0  0  0  0  2  0  0  0  0  0  0
  189.6600  177.0190  139.3540 C   0  0  2  0  0  3  0  0  0  0  0  0
  188.7630  177.4550  136.6770 C   0  0  0  0  0  0  0  0  0  0  0  0
  189.7450  176.0400  138.3090 O   0  0  0  0  0  0  0  0  0  0  0  0
  189.3450  178.4020  138.8470 C   0  0  0  0  0  3  0  0  0  0  0  0
  188.9000  178.5880  137.6040 C   0  0  0  0  0  3  0  0  0  0  0  0
  188.2040  177.6690  135.3170 C   0  0  0  0  0  1  0  0  0  0  0  0
  189.1960  176.2470  137.0360 C   0  0  0  0  0  3  0  0  0  0  0  0
  1  6  1  0  0  0  0
  1  5  1  0  0  0  0
  2  3  1  0  0  0  0
  2  8  1  1  0  0  0
  3  4  2  0  0  0  0
  5  3  1  0  0  0  0
  6  2  1  0  0  0  0
  8  7  2  0  0  0  0
  9 19  2  0  0  0  0
 10 15  1  6  0  0  0
 10 17  1  0  0  0  0
 11 13  1  0  0  0  0
 12 18  1  0  0  0  0
 12 15  2  0  0  0  0
 13  9  1  6  0  0  0
 13 10  1  0  0  0  0
 14 17  1  0  0  0  0
 16 11  1  6  0  0  0
 16 13  1  0  0  0  0
 16 20  1  0  0  0  0
 19 12  1  0  0  0  0
 20  8  1  6  0  0  0
 20 14  1  0  0  0  0
 21  1  1  0  0  0  0
 22 21  1  6  0  0  0
 23 28  2  0  0  0  0
 23 26  1  0  0  0  0
 24 22  1  0  0  0  0
 25 22  1  0  0  0  0
 26 25  2  0  0  0  0
 27 23  1  0  0  0  0
 28 24  1  0  0  0  0
M  END
>  <MODEL>
2

>  <REMARK>
 VINA RESULT:      -8.9      3.650      5.571
  Name = 
  4 active torsions:
  status: ('A' for Active; 'I' for Inactive)
    1  A    between atoms: N_1  and  C_2
    2  A    between atoms: C_2  and  C_3
    3  A    between atoms: C_16  and  C_20
    4  A    between atoms: C_20  and  C_25
                            x       y       z     vdW  Elec       q    Type
                         _______ _______ _______ _____ _____    ______ ____

>  <TORSDO>
F 4

$$$$
=
 OpenBabel10272401573D

 28 32  0  0  1  0  0  0  0  0999 V2000
  190.1950  176.2830  137.1760 N   0  0  0  0  0  0  0  0  0  0  0  0
  189.7510  176.7730  139.4360 C   0  0  1  0  0  3  0  0  0  0  0  0
  189.4810  177.9290  138.5920 C   0  0  0  0  0  0  0  0  0  0  0  0
  189.0460  179.0460  138.9770 O   0  0  0  0  0  0  0  0  0  0  0  0
  189.7090  177.5960  137.2570 N   0  0  0  0  0  2  0  0  0  0  0  0
  190.1970  175.7370  138.4930 N   0  0  0  0  0  2  0  0  0  0  0  0
  191.9340  177.4120  140.0950 O   0  0  0  0  0  0  0  0  0  0  0  0
  190.8220  177.0540  140.4520 C   0  0  0  0  0  0  0  0  0  0  0  0
  187.4090  177.4230  144.1940 C   0  0  0  0  0  3  0  0  0  0  0  0
  189.9090  178.0860  144.5880 C   0  0  1  0  0  3  0  0  0  0  0  0
  188.7050  178.5910  142.4340 C   0  0  0  0  0  2  0  0  0  0  0  0
  188.3610  177.4710  146.4510 C   0  0  0  0  0  0  0  0  0  0  0  0
  188.7740  177.6600  143.6310 C   0  0  2  0  0  0  0  0  0  0  0  0
  191.5390  177.6700  142.7590 C   0  0  0  0  0  2  0  0  0  0  0  0
  189.5890  177.7870  146.0280 C   0  0  0  0  0  3  0  0  0  0  0  0
  189.0440  177.1230  142.2250 C   0  0  2  0  0  3  0  0  0  0  0  0
  191.2420  177.4460  144.2290 C   0  0  0  0  0  2  0  0  0  0  0  0
  188.1310  177.2290  147.8990 C   0  0  0  0  0  1  0  0  0  0  0  0
  187.2330  177.3310  145.5120 C   0  0  0  0  0  3  0  0  0  0  0  0
  190.5390  176.8820  141.9130 C   0  0  1  0  0  3  0  0  0  0  0  0
  189.3170  175.4940  136.2950 C   0  0  0  0  0  2  0  0  0  0  0  0
  188.1970  174.6980  136.9900 C   0  0  2  0  0  3  0  0  0  0  0  0
  185.9330  172.9990  136.6080 C   0  0  0  0  0  0  0  0  0  0  0  0
  188.2840  173.2890  136.7390 O   0  0  0  0  0  0  0  0  0  0  0  0
  186.8260  175.2650  136.7260 C   0  0  0  0  0  3  0  0  0  0  0  0
  185.7720  174.4600  136.5780 C   0  0  0  0  0  3  0  0  0  0  0  0
  184.7410  172.1180  136.5080 C   0  0  0  0  0  1  0  0  0  0  0  0
  187.1520  172.4650  136.6650 C   0  0  0  0  0  3  0  0  0  0  0  0
  1  5  1  0  0  0  0
  1  6  1  0  0  0  0
  2  8  1  1  0  0  0
  3  4  2  0  0  0  0
  3  2  1  0  0  0  0
  5  3  1  0  0  0  0
  6  2  1  0  0  0  0
  7  8  2  0  0  0  0
  9 19  2  0  0  0  0
 10 17  1  6  0  0  0
 10 15  1  0  0  0  0
 12 18  1  0  0  0  0
 13 11  1  6  0  0  0
 13  9  1  0  0  0  0
 13 10  1  0  0  0  0
 14 17  1  0  0  0  0
 15 12  2  0  0  0  0
 16 11  1  6  0  0  0
 16 13  1  0  0  0  0
 19 12  1  0  0  0  0
 20  8  1  6  0  0  0
 20 16  1  0  0  0  0
 20 14  1  0  0  0  0
 21  1  1  0  0  0  0
 22 21  1  6  0  0  0
 23 28  2  0  0  0  0
 24 22  1  0  0  0  0
 25 22  1  0  0  0  0
 26 23  1  0  0  0  0
 26 25  2  0  0  0  0
 27 23  1  0  0  0  0
 28 24  1  0  0  0  0
M  END
>  <MODEL>
3

>  <REMARK>
 VINA RESULT:      -8.8      0.805      1.720
  Name = 
  4 active torsions:
  status: ('A' for Active; 'I' for Inactive)
    1  A    between atoms: N_1  and  C_2
    2  A    between atoms: C_2  and  C_3
    3  A    between atoms: C_16  and  C_20
    4  A    between atoms: C_20  and  C_25
                            x       y       z     vdW  Elec       q    Type
                         _______ _______ _______ _____ _____    ______ ____

>  <TORSDO>
F 4

$$$$
=
 OpenBabel10272401573D

 28 32  0  0  1  0  0  0  0  0999 V2000
  188.8250  176.4010  137.0100 N   0  0  0  0  0  0  0  0  0  0  0  0
  188.2080  177.9290  138.6920 C   0  0  1  0  0  3  0  0  0  0  0  0
  188.8150  178.6190  137.5620 C   0  0  0  0  0  0  0  0  0  0  0  0
  188.9810  179.8610  137.4510 O   0  0  0  0  0  0  0  0  0  0  0  0
  189.1270  177.6960  136.5640 N   0  0  0  0  0  2  0  0  0  0  0  0
  188.2230  176.5120  138.2970 N   0  0  0  0  0  2  0  0  0  0  0  0
  190.1990  177.9690  139.9730 O   0  0  0  0  0  0  0  0  0  0  0  0
  188.9870  178.1290  139.9600 C   0  0  0  0  0  0  0  0  0  0  0  0
  188.5950  177.4560  144.9780 C   0  0  0  0  0  3  0  0  0  0  0  0
  186.4640  177.7850  143.4980 C   0  0  1  0  0  3  0  0  0  0  0  0
  188.4470  176.4410  142.7220 C   0  0  0  0  0  2  0  0  0  0  0  0
  186.4880  178.2320  145.9570 C   0  0  0  0  0  0  0  0  0  0  0  0
  187.9890  177.5790  143.6160 C   0  0  2  0  0  0  0  0  0  0  0  0
  186.7730  178.3170  141.0910 C   0  0  0  0  0  2  0  0  0  0  0  0
  185.8480  178.2670  144.7840 C   0  0  0  0  0  3  0  0  0  0  0  0
  188.9470  177.8520  142.4560 C   0  0  2  0  0  3  0  0  0  0  0  0
  186.0930  178.7440  142.3770 C   0  0  0  0  0  2  0  0  0  0  0  0
  185.7860  178.6940  147.1820 C   0  0  0  0  0  1  0  0  0  0  0  0
  187.8840  177.7700  146.0610 C   0  0  0  0  0  3  0  0  0  0  0  0
  188.2840  178.5120  141.2260 C   0  0  1  0  0  3  0  0  0  0  0  0
  187.8920  175.7670  136.0620 C   0  0  0  0  0  2  0  0  0  0  0  0
  186.6250  175.1400  136.6720 C   0  0  2  0  0  3  0  0  0  0  0  0
  184.8300  172.9190  136.6020 C   0  0  0  0  0  0  0  0  0  0  0  0
  186.8830  173.8790  137.3040 O   0  0  0  0  0  0  0  0  0  0  0  0
  185.4700  175.0940  135.7060 C   0  0  0  0  0  3  0  0  0  0  0  0
  184.6230  174.0640  135.7040 C   0  0  0  0  0  3  0  0  0  0  0  0
  183.8420  171.8100  136.6340 C   0  0  0  0  0  1  0  0  0  0  0  0
  185.9350  172.8480  137.3430 C   0  0  0  0  0  3  0  0  0  0  0  0
  1  6  1  0  0  0  0
  2  8  1  1  0  0  0
  3  2  1  0  0  0  0
  4  3  2  0  0  0  0
  5  1  1  0  0  0  0
  5  3  1  0  0  0  0
  6  2  1  0  0  0  0
  8  7  2  0  0  0  0
  9 19  2  0  0  0  0
 10 17  1  6  0  0  0
 10 13  1  0  0  0  0
 10 15  1  0  0  0  0
 12 19  1  0  0  0  0
 12 18  1  0  0  0  0
 13 11  1  6  0  0  0
 13  9  1  0  0  0  0
 14 20  1  0  0  0  0
 14 17  1  0  0  0  0
 15 12  2  0  0  0  0
 16 11  1  6  0  0  0
 16 13  1  0  0  0  0
 20  8  1  6  0  0  0
 20 16  1  0  0  0  0
 21  1  1  0  0  0  0
 22 21  1  6  0  0  0
 22 24  1  0  0  0  0
 23 27  1  0  0  0  0
 23 28  2  0  0  0  0
 24 28  1  0  0  0  0
 25 22  1  0  0  0  0
 26 25  2  0  0  0  0
 26 23  1  0  0  0  0
M  END
>  <MODEL>
4

>  <REMARK>
 VINA RESULT:      -8.6      1.769      2.313
  Name = 
  4 active torsions:
  status: ('A' for Active; 'I' for Inactive)
    1  A    between atoms: N_1  and  C_2
    2  A    between atoms: C_2  and  C_3
    3  A    between atoms: C_16  and  C_20
    4  A    between atoms: C_20  and  C_25
                            x       y       z     vdW  Elec       q    Type
                         _______ _______ _______ _____ _____    ______ ____

>  <TORSDO>
F 4

$$$$
=
 OpenBabel10272401573D

 28 32  0  0  1  0  0  0  0  0999 V2000
  183.2130  177.2050  139.3670 N   0  0  0  0  0  0  0  0  0  0  0  0
  184.1980  178.8090  140.7800 C   0  0  1  0  0  3  0  0  0  0  0  0
  184.0130  179.3440  139.4380 C   0  0  0  0  0  0  0  0  0  0  0  0
  184.3050  180.5070  139.0540 O   0  0  0  0  0  0  0  0  0  0  0  0
  183.3870  178.3900  138.6370 N   0  0  0  0  0  2  0  0  0  0  0  0
  183.6650  177.4420  140.6970 N   0  0  0  0  0  2  0  0  0  0  0  0
  186.5210  178.6690  140.3390 O   0  0  0  0  0  0  0  0  0  0  0  0
  185.6460  178.7860  141.1830 C   0  0  0  0  0  0  0  0  0  0  0  0
  189.0180  177.5870  144.7860 C   0  0  0  0  0  3  0  0  0  0  0  0
  186.4510  177.5800  145.2940 C   0  0  1  0  0  3  0  0  0  0  0  0
  187.3920  176.7750  143.1010 C   0  0  0  0  0  2  0  0  0  0  0  0
  188.1860  177.7940  147.0810 C   0  0  0  0  0  0  0  0  0  0  0  0
  187.6130  177.7000  144.2840 C   0  0  2  0  0  0  0  0  0  0  0  0
  184.9000  178.3850  143.5290 C   0  0  0  0  0  2  0  0  0  0  0  0
  186.9010  177.7970  146.7150 C   0  0  0  0  0  3  0  0  0  0  0  0
  187.4250  178.2800  142.8820 C   0  0  2  0  0  3  0  0  0  0  0  0
  185.3090  178.5340  144.9810 C   0  0  0  0  0  2  0  0  0  0  0  0
  188.5340  177.9790  148.5140 C   0  0  0  0  0  1  0  0  0  0  0  0
  189.2700  177.6390  146.0940 C   0  0  0  0  0  3  0  0  0  0  0  0
  186.0280  178.8890  142.6280 C   0  0  1  0  0  3  0  0  0  0  0  0
  181.7850  176.8420  139.3680 C   0  0  0  0  0  2  0  0  0  0  0  0
  181.3180  175.9140  138.2320 C   0  0  2  0  0  3  0  0  0  0  0  0
  180.9580  173.2040  137.4030 C   0  0  0  0  0  0  0  0  0  0  0  0
  180.1980  175.1020  138.6070 O   0  0  0  0  0  0  0  0  0  0  0  0
  182.4460  175.1240  137.6200 C   0  0  0  0  0  3  0  0  0  0  0  0
  182.2560  173.8690  137.2110 C   0  0  0  0  0  3  0  0  0  0  0  0
  180.7430  171.8300  136.8830 C   0  0  0  0  0  1  0  0  0  0  0  0
  179.9960  173.8130  138.0950 C   0  0  0  0  0  3  0  0  0  0  0  0
  1 21  1  0  0  0  0
  1  6  1  0  0  0  0
  2  8  1  6  0  0  0
  3  2  1  0  0  0  0
  4  3  2  0  0  0  0
  5  1  1  0  0  0  0
  5  3  1  0  0  0  0
  6  2  1  0  0  0  0
  7  8  2  0  0  0  0
  9 19  2  0  0  0  0
 10 17  1  6  0  0  0
 10 15  1  0  0  0  0
 12 18  1  0  0  0  0
 13 11  1  6  0  0  0
 13  9  1  0  0  0  0
 13 10  1  0  0  0  0
 14 17  1  0  0  0  0
 15 12  2  0  0  0  0
 16 11  1  6  0  0  0
 16 13  1  0  0  0  0
 19 12  1  0  0  0  0
 20  8  1  6  0  0  0
 20 16  1  0  0  0  0
 20 14  1  0  0  0  0
 22 24  1  0  0  0  0
 22 21  1  1  0  0  0
 23 28  2  0  0  0  0
 25 22  1  0  0  0  0
 26 23  1  0  0  0  0
 26 25  2  0  0  0  0
 27 23  1  0  0  0  0
 28 24  1  0  0  0  0
M  END
>  <MODEL>
5

>  <REMARK>
 VINA RESULT:      -8.6      4.357      5.274
  Name = 
  4 active torsions:
  status: ('A' for Active; 'I' for Inactive)
    1  A    between atoms: N_1  and  C_2
    2  A    between atoms: C_2  and  C_3
    3  A    between atoms: C_16  and  C_20
    4  A    between atoms: C_20  and  C_25
                            x       y       z     vdW  Elec       q    Type
                         _______ _______ _______ _____ _____    ______ ____

>  <TORSDO>
F 4

$$$$
=
 OpenBabel10272401573D

 28 32  0  0  1  0  0  0  0  0999 V2000
  184.9570  179.2700  139.2800 N   0  0  0  0  0  0  0  0  0  0  0  0
  184.7720  178.1580  141.3470 C   0  0  1  0  0  3  0  0  0  0  0  0
  183.7260  177.7260  140.4300 C   0  0  0  0  0  0  0  0  0  0  0  0
  182.8420  176.8610  140.6650 O   0  0  0  0  0  0  0  0  0  0  0  0
  183.8880  178.3650  139.2020 N   0  0  0  0  0  2  0  0  0  0  0  0
  185.5450  179.1390  140.5710 N   0  0  0  0  0  2  0  0  0  0  0  0
  183.0550  179.1980  142.6040 O   0  0  0  0  0  0  0  0  0  0  0  0
  184.2080  178.7940  142.5860 C   0  0  0  0  0  0  0  0  0  0  0  0
  188.5320  177.5530  144.9420 C   0  0  0  0  0  3  0  0  0  0  0  0
  186.2930  177.7760  146.2770 C   0  0  1  0  0  3  0  0  0  0  0  0
  186.3910  176.7710  143.9690 C   0  0  0  0  0  2  0  0  0  0  0  0
  188.5390  177.9600  147.3580 C   0  0  0  0  0  0  0  0  0  0  0  0
  187.0490  177.7440  144.9310 C   0  0  2  0  0  0  0  0  0  0  0  0
  184.2800  178.5930  145.0700 C   0  0  0  0  0  2  0  0  0  0  0  0
  187.2070  178.0420  147.4430 C   0  0  0  0  0  3  0  0  0  0  0  0
  186.4280  178.2530  143.6290 C   0  0  2  0  0  3  0  0  0  0  0  0
  185.1640  178.7960  146.2850 C   0  0  0  0  0  2  0  0  0  0  0  0
  189.3610  178.2020  148.5720 C   0  0  0  0  0  1  0  0  0  0  0  0
  189.2140  177.6630  146.0820 C   0  0  0  0  0  3  0  0  0  0  0  0
  185.0620  178.9530  143.8070 C   0  0  1  0  0  3  0  0  0  0  0  0
  185.9420  178.9480  138.2330 C   0  0  0  0  0  2  0  0  0  0  0  0
  187.1110  178.0400  138.6570 C   0  0  2  0  0  3  0  0  0  0  0  0
  189.7200  177.0920  137.9830 C   0  0  0  0  0  0  0  0  0  0  0  0
  188.3190  178.7730  138.9010 O   0  0  0  0  0  0  0  0  0  0  0  0
  187.3050  176.8650  137.7350 C   0  0  0  0  0  3  0  0  0  0  0  0
  188.5280  176.4150  137.4510 C   0  0  0  0  0  3  0  0  0  0  0  0
  191.0720  176.5400  137.7120 C   0  0  0  0  0  1  0  0  0  0  0  0
  189.5900  178.2340  138.6580 C   0  0  0  0  0  3  0  0  0  0  0  0
  1  6  1  0  0  0  0
  2  8  1  1  0  0  0
  3  4  2  0  0  0  0
  3  2  1  0  0  0  0
  5  1  1  0  0  0  0
  5  3  1  0  0  0  0
  6  2  1  0  0  0  0
  8  7  2  0  0  0  0
  9 19  2  0  0  0  0
 10 17  1  6  0  0  0
 10 15  1  0  0  0  0
 12 15  2  0  0  0  0
 12 18  1  0  0  0  0
 13 11  1  6  0  0  0
 13  9  1  0  0  0  0
 13 10  1  0  0  0  0
 14 17  1  0  0  0  0
 16 20  1  0  0  0  0
 16 11  1  6  0  0  0
 16 13  1  0  0  0  0
 19 12  1  0  0  0  0
 20  8  1  6  0  0  0
 20 14  1  0  0  0  0
 21  1  1  0  0  0  0
 22 21  1  6  0  0  0
 22 24  1  0  0  0  0
 23 28  2  0  0  0  0
 25 22  1  0  0  0  0
 26 25  2  0  0  0  0
 26 23  1  0  0  0  0
 27 23  1  0  0  0  0
 28 24  1  0  0  0  0
M  END
>  <MODEL>
6

>  <REMARK>
 VINA RESULT:      -8.5      3.605      5.212
  Name = 
  4 active torsions:
  status: ('A' for Active; 'I' for Inactive)
    1  A    between atoms: N_1  and  C_2
    2  A    between atoms: C_2  and  C_3
    3  A    between atoms: C_16  and  C_20
    4  A    between atoms: C_20  and  C_25
                            x       y       z     vdW  Elec       q    Type
                         _______ _______ _______ _____ _____    ______ ____

>  <TORSDO>
F 4

$$$$
=
 OpenBabel10272401573D

 28 32  0  0  1  0  0  0  0  0999 V2000
  190.7000  176.2640  137.5270 N   0  0  0  0  0  0  0  0  0  0  0  0
  189.8560  176.9150  139.6260 C   0  0  1  0  0  3  0  0  0  0  0  0
  189.5940  177.9370  138.6220 C   0  0  0  0  0  0  0  0  0  0  0  0
  188.9820  179.0210  138.8070 O   0  0  0  0  0  0  0  0  0  0  0  0
  190.0630  177.5050  137.3820 N   0  0  0  0  0  2  0  0  0  0  0  0
  190.5570  175.8560  138.8850 N   0  0  0  0  0  2  0  0  0  0  0  0
  191.9190  177.5780  140.5830 O   0  0  0  0  0  0  0  0  0  0  0  0
  190.7170  177.4300  140.7450 C   0  0  0  0  0  0  0  0  0  0  0  0
  191.0220  176.9390  145.7900 C   0  0  0  0  0  3  0  0  0  0  0  0
  188.7090  176.8520  144.5710 C   0  0  1  0  0  3  0  0  0  0  0  0
  190.7850  175.8090  143.5970 C   0  0  0  0  0  2  0  0  0  0  0  0
  188.9420  177.4120  146.9960 C   0  0  0  0  0  0  0  0  0  0  0  0
  190.2510  176.8990  144.5080 C   0  0  2  0  0  0  0  0  0  0  0  0
  188.6470  177.3130  142.1300 C   0  0  0  0  0  2  0  0  0  0  0  0
  188.1740  177.2880  145.9080 C   0  0  0  0  0  3  0  0  0  0  0  0
  191.0110  177.2690  143.2340 C   0  0  2  0  0  3  0  0  0  0  0  0
  188.0580  177.6850  143.4770 C   0  0  0  0  0  2  0  0  0  0  0  0
  188.3200  177.8120  148.2840 C   0  0  0  0  0  1  0  0  0  0  0  0
  190.3980  177.1860  146.9420 C   0  0  0  0  0  3  0  0  0  0  0  0
  190.1100  177.7540  142.0750 C   0  0  1  0  0  3  0  0  0  0  0  0
  190.0650  175.2850  136.6280 C   0  0  0  0  0  2  0  0  0  0  0  0
  191.0060  174.5250  135.6760 C   0  0  2  0  0  3  0  0  0  0  0  0
  193.5060  173.1670  135.4240 C   0  0  0  0  0  0  0  0  0  0  0  0
  191.2270  173.1690  136.0830 O   0  0  0  0  0  0  0  0  0  0  0  0
  192.2820  175.2750  135.3910 C   0  0  0  0  0  3  0  0  0  0  0  0
  193.4370  174.6250  135.2480 C   0  0  0  0  0  3  0  0  0  0  0  0
  194.7870  172.4500  135.1970 C   0  0  0  0  0  1  0  0  0  0  0  0
  192.4340  172.4980  135.8450 C   0  0  0  0  0  3  0  0  0  0  0  0
  1  6  1  0  0  0  0
  2  8  1  1  0  0  0
  3  4  2  0  0  0  0
  3  2  1  0  0  0  0
  5  1  1  0  0  0  0
  5  3  1  0  0  0  0
  6  2  1  0  0  0  0
  7  8  2  0  0  0  0
  9 19  2  0  0  0  0
 10 17  1  6  0  0  0
 10 15  1  0  0  0  0
 12 18  1  0  0  0  0
 13 11  1  6  0  0  0
 13 10  1  0  0  0  0
 13  9  1  0  0  0  0
 14 17  1  0  0  0  0
 15 12  2  0  0  0  0
 16 11  1  6  0  0  0
 16 13  1  0  0  0  0
 19 12  1  0  0  0  0
 20  8  1  6  0  0  0
 20 14  1  0  0  0  0
 20 16  1  0  0  0  0
 21  1  1  0  0  0  0
 22 24  1  0  0  0  0
 22 21  1  1  0  0  0
 23 28  2  0  0  0  0
 25 22  1  0  0  0  0
 26 25  2  0  0  0  0
 26 23  1  0  0  0  0
 27 23  1  0  0  0  0
 28 24  1  0  0  0  0
M  END
>  <MODEL>
7

>  <REMARK>
 VINA RESULT:      -8.5      1.919      3.104
  Name = 
  4 active torsions:
  status: ('A' for Active; 'I' for Inactive)
    1  A    between atoms: N_1  and  C_2
    2  A    between atoms: C_2  and  C_3
    3  A    between atoms: C_16  and  C_20
    4  A    between atoms: C_20  and  C_25
                            x       y       z     vdW  Elec       q    Type
                         _______ _______ _______ _____ _____    ______ ____

>  <TORSDO>
F 4

$$$$
=
 OpenBabel10272401573D

 28 32  0  0  1  0  0  0  0  0999 V2000
  188.1370  179.1340  137.7110 N   0  0  0  0  0  0  0  0  0  0  0  0
  186.9310  178.1100  139.4560 C   0  0  1  0  0  3  0  0  0  0  0  0
  186.2420  177.9460  138.1830 C   0  0  0  0  0  0  0  0  0  0  0  0
  185.1620  177.3280  137.9970 O   0  0  0  0  0  0  0  0  0  0  0  0
  187.0000  178.5210  137.1640 N   0  0  0  0  0  2  0  0  0  0  0  0
  188.1440  178.8670  139.1110 N   0  0  0  0  0  2  0  0  0  0  0  0
  185.1300  179.5130  140.0850 O   0  0  0  0  0  0  0  0  0  0  0  0
  186.1030  178.8710  140.4520 C   0  0  0  0  0  0  0  0  0  0  0  0
  189.6370  177.7860  143.9330 C   0  0  0  0  0  3  0  0  0  0  0  0
  187.1040  177.3310  144.4050 C   0  0  1  0  0  3  0  0  0  0  0  0
  188.1450  176.9380  142.1450 C   0  0  0  0  0  2  0  0  0  0  0  0
  188.7960  177.5960  146.2260 C   0  0  0  0  0  0  0  0  0  0  0  0
  188.2290  177.7420  143.4300 C   0  0  2  0  0  0  0  0  0  0  0  0
  185.4390  178.0920  142.7250 C   0  0  0  0  0  2  0  0  0  0  0  0
  187.5230  177.4470  145.8470 C   0  0  0  0  0  3  0  0  0  0  0  0
  187.9480  178.4460  142.1020 C   0  0  2  0  0  3  0  0  0  0  0  0
  185.8290  178.1310  144.1900 C   0  0  0  0  0  2  0  0  0  0  0  0
  189.1190  177.6630  147.6750 C   0  0  0  0  0  1  0  0  0  0  0  0
  189.8850  177.7230  145.2410 C   0  0  0  0  0  3  0  0  0  0  0  0
  186.4720  178.8620  141.9030 C   0  0  1  0  0  3  0  0  0  0  0  0
  189.3430  178.5740  137.0770 C   0  0  0  0  0  2  0  0  0  0  0  0
  189.7920  177.1880  137.5770 C   0  0  2  0  0  3  0  0  0  0  0  0
  191.8150  175.1770  137.4340 C   0  0  0  0  0  0  0  0  0  0  0  0
  191.0250  177.2380  138.3050 O   0  0  0  0  0  0  0  0  0  0  0  0
  189.7840  176.1430  136.4910 C   0  0  0  0  0  3  0  0  0  0  0  0
  190.7190  175.1920  136.4530 C   0  0  0  0  0  3  0  0  0  0  0  0
  192.8100  174.0740  137.4180 C   0  0  0  0  0  1  0  0  0  0  0  0
  191.9480  176.1830  138.2970 C   0  0  0  0  0  3  0  0  0  0  0  0
  1  6  1  0  0  0  0
  2  8  1  1  0  0  0
  3  2  1  0  0  0  0
  4  3  2  0  0  0  0
  5  1  1  0  0  0  0
  5  3  1  0  0  0  0
  6  2  1  0  0  0  0
  7  8  2  0  0  0  0
  9 19  2  0  0  0  0
 10 17  1  1  0  0  0
 10 15  1  0  0  0  0
 12 18  1  0  0  0  0
 13 11  1  6  0  0  0
 13  9  1  0  0  0  0
 13 10  1  0  0  0  0
 14 17  1  0  0  0  0
 15 12  2  0  0  0  0
 16 11  1  6  0  0  0
 16 13  1  0  0  0  0
 19 12  1  0  0  0  0
 20  8  1  6  0  0  0
 20 16  1  0  0  0  0
 20 14  1  0  0  0  0
 21  1  1  0  0  0  0
 22 21  1  6  0  0  0
 22 24  1  0  0  0  0
 23 28  2  0  0  0  0
 25 22  1  0  0  0  0
 26 25  2  0  0  0  0
 26 23  1  0  0  0  0
 27 23  1  0  0  0  0
 28 24  1  0  0  0  0
M  END
>  <MODEL>
8

>  <REMARK>
 VINA RESULT:      -8.2      2.766      3.960
  Name = 
  4 active torsions:
  status: ('A' for Active; 'I' for Inactive)
    1  A    between atoms: N_1  and  C_2
    2  A    between atoms: C_2  and  C_3
    3  A    between atoms: C_16  and  C_20
    4  A    between atoms: C_20  and  C_25
                            x       y       z     vdW  Elec       q    Type
                         _______ _______ _______ _____ _____    ______ ____

>  <TORSDO>
F 4

$$$$
=
 OpenBabel10272401573D

 28 32  0  0  1  0  0  0  0  0999 V2000
  188.3360  176.5180  136.5510 N   0  0  0  0  0  0  0  0  0  0  0  0
  188.7800  177.1950  138.7630 C   0  0  1  0  0  3  0  0  0  0  0  0
  188.7820  178.3380  137.8600 C   0  0  0  0  0  0  0  0  0  0  0  0
  188.9660  179.5400  138.1830 O   0  0  0  0  0  0  0  0  0  0  0  0
  188.4710  177.9140  136.5680 N   0  0  0  0  0  2  0  0  0  0  0  0
  188.4810  176.0500  137.8900 N   0  0  0  0  0  2  0  0  0  0  0  0
  191.1370  176.9760  138.7810 O   0  0  0  0  0  0  0  0  0  0  0  0
  190.1080  177.0080  139.4390 C   0  0  0  0  0  0  0  0  0  0  0  0
  187.6680  177.3490  143.8790 C   0  0  0  0  0  3  0  0  0  0  0  0
  190.1780  178.0560  143.6700 C   0  0  1  0  0  3  0  0  0  0  0  0
  188.4910  178.5240  141.8590 C   0  0  0  0  0  2  0  0  0  0  0  0
  189.1250  177.4300  145.8480 C   0  0  0  0  0  0  0  0  0  0  0  0
  188.8580  177.6040  143.0090 C   0  0  2  0  0  0  0  0  0  0  0  0
  191.3380  177.6520  141.5100 C   0  0  0  0  0  2  0  0  0  0  0  0
  190.2120  177.7620  145.1460 C   0  0  0  0  0  3  0  0  0  0  0  0
  188.7980  177.0610  141.5810 C   0  0  2  0  0  3  0  0  0  0  0  0
  191.4000  177.4350  143.0090 C   0  0  0  0  0  2  0  0  0  0  0  0
  189.2470  177.1950  147.3100 C   0  0  0  0  0  1  0  0  0  0  0  0
  187.8100  177.2640  145.2020 C   0  0  0  0  0  3  0  0  0  0  0  0
  190.1810  176.8420  140.9260 C   0  0  1  0  0  3  0  0  0  0  0  0
  187.0050  176.1660  136.0280 C   0  0  0  0  0  2  0  0  0  0  0  0
  185.8950  175.9590  137.0750 C   0  0  2  0  0  3  0  0  0  0  0  0
  183.1630  175.2420  137.5000 C   0  0  0  0  0  0  0  0  0  0  0  0
  185.4170  174.6080  137.1130 O   0  0  0  0  0  0  0  0  0  0  0  0
  184.7910  176.9780  136.9680 C   0  0  0  0  0  3  0  0  0  0  0  0
  183.5220  176.6350  137.1970 C   0  0  0  0  0  3  0  0  0  0  0  0
  181.7560  174.8890  137.8180 C   0  0  0  0  0  1  0  0  0  0  0  0
  184.0900  174.2870  137.4320 C   0  0  0  0  0  3  0  0  0  0  0  0
  1  5  1  0  0  0  0
  1  6  1  0  0  0  0
  2  8  1  6  0  0  0
  3  4  2  0  0  0  0
  3  2  1  0  0  0  0
  5  3  1  0  0  0  0
  6  2  1  0  0  0  0
  7  8  2  0  0  0  0
  9 19  2  0  0  0  0
 10 17  1  6  0  0  0
 10 15  1  0  0  0  0
 12 18  1  0  0  0  0
 13 11  1  6  0  0  0
 13 10  1  0  0  0  0
 13  9  1  0  0  0  0
 14 17  1  0  0  0  0
 15 12  2  0  0  0  0
 16 11  1  6  0  0  0
 16 13  1  0  0  0  0
 19 12  1  0  0  0  0
 20  8  1  6  0  0  0
 20 14  1  0  0  0  0
 20 16  1  0  0  0  0
 21  1  1  0  0  0  0
 22 21  1  6  0  0  0
 22 24  1  0  0  0  0
 23 27  1  0  0  0  0
 24 28  1  0  0  0  0
 25 22  1  0  0  0  0
 25 26  2  0  0  0  0
 26 23  1  0  0  0  0
 28 23  2  0  0  0  0
M  END
>  <MODEL>
9

>  <REMARK>
 VINA RESULT:      -8.1      1.922      2.785
  Name = 
  4 active torsions:
  status: ('A' for Active; 'I' for Inactive)
    1  A    between atoms: N_1  and  C_2
    2  A    between atoms: C_2  and  C_3
    3  A    between atoms: C_16  and  C_20
    4  A    between atoms: C_20  and  C_25
                            x       y       z     vdW  Elec       q    Type
                         _______ _______ _______ _____ _____    ______ ____

>  <TORSDO>
F 4

$$$$
