=
 OpenBabel10272414403D

 43 47  0  0  1  0  0  0  0  0999 V2000
  184.7170  179.1540  140.4290 C   0  0  0  0  0  2  0  0  0  0  0  0
  184.1870  179.2700  143.2590 N   0  0  0  0  0  2  0  0  0  0  0  0
  183.4190  178.7290  140.9620 N   0  0  0  0  0  0  0  0  0  0  0  0
  184.8650  178.7820  138.9520 C   0  0  0  0  0  2  0  0  0  0  0  0
  183.1650  178.8070  142.3710 C   0  0  0  0  0  0  0  0  0  0  0  0
  182.3870  178.2120  140.0620 C   0  0  0  0  0  2  0  0  0  0  0  0
  182.0440  178.4530  142.8310 O   0  0  0  0  0  0  0  0  0  0  0  0
  182.9480  177.0970  139.1750 C   0  0  0  0  0  2  0  0  0  0  0  0
  184.4070  177.3400  138.7490 C   0  0  1  0  0  3  0  0  0  0  0  0
  184.6530  176.8780  137.3820 N   0  0  0  0  0  0  0  0  0  0  0  0
  182.1070  171.0700  135.9860 C   0  0  2  0  0  3  0  0  0  0  0  0
  184.0090  175.7130  136.8180 C   0  0  0  0  0  0  0  0  0  0  0  0
  182.7170  173.4460  135.7700 C   0  0  0  0  0  0  0  0  0  0  0  0
  183.5070  170.8170  136.5470 C   0  0  0  0  0  2  0  0  0  0  0  0
  181.7070  169.9410  135.0610 C   0  0  0  0  0  1  0  0  0  0  0  0
  183.6600  173.3050  136.7950 C   0  0  0  0  0  0  0  0  0  0  0  0
  182.0630  172.3110  135.2800 O   0  0  0  0  0  0  0  0  0  0  0  0
  183.9730  171.9960  137.2740 N   0  0  0  0  0  2  0  0  0  0  0  0
  184.2910  174.4310  137.3270 C   0  0  0  0  0  3  0  0  0  0  0  0
  183.0820  175.8350  135.7660 C   0  0  0  0  0  3  0  0  0  0  0  0
  182.4400  174.7100  135.2440 C   0  0  0  0  0  3  0  0  0  0  0  0
  185.6740  177.6080  136.6350 C   0  0  0  0  0  2  0  0  0  0  0  0
  189.1530  176.2180  136.2070 C   0  0  0  0  0  2  0  0  0  0  0  0
  189.8840  176.9120  137.2770 N   0  0  0  0  0  0  0  0  0  0  0  0
  187.9580  178.5320  136.9760 C   0  0  0  0  0  2  0  0  0  0  0  0
  187.6580  176.0740  136.5210 C   0  0  0  0  0  2  0  0  0  0  0  0
  187.0640  177.3220  137.1830 C   0  0  0  0  0  3  0  0  0  0  0  0
  189.3500  178.2590  137.5640 C   0  0  0  0  0  2  0  0  0  0  0  0
  190.1970  177.0330  139.4350 C   0  0  0  0  0  1  0  0  0  0  0  0
  189.7790  176.1770  138.4140 O   0  0  0  0  0  0  0  0  0  0  0  0
  184.0210  179.2930  144.7050 C   0  0  0  0  0  2  0  0  0  0  0  0
  184.9510  178.3480  146.7870 C   0  0  0  0  0  1  0  0  0  0  0  0
  185.2990  178.8490  145.3990 C   0  0  1  0  0  3  0  0  0  0  0  0
  185.9300  177.7820  144.6330 N   0  0  0  0  0  2  0  0  0  0  0  0
  188.1670  178.2490  145.5990 N   0  0  0  0  0  2  0  0  0  0  0  0
  187.3190  177.4770  144.7390 C   0  0  0  0  0  0  0  0  0  0  0  0
  187.7890  176.5170  144.0740 O   0  0  0  0  0  0  0  0  0  0  0  0
  189.5440  177.8960  145.9300 C   0  0  0  0  0  3  0  0  0  0  0  0
  191.5500  176.5880  145.0950 C   0  0  0  0  0  2  0  0  0  0  0  0
  190.9720  176.2480  147.2370 C   0  0  0  0  0  2  0  0  0  0  0  0
  191.9300  176.8730  146.4180 O   0  0  0  0  0  0  0  0  0  0  0  0
  189.5910  176.9110  147.1040 C   0  0  0  0  0  2  0  0  0  0  0  0
  190.3120  177.4030  144.6950 C   0  0  0  0  0  2  0  0  0  0  0  0
  1  3  1  0  0  0  0
  2 31  1  0  0  0  0
  3  5  1  0  0  0  0
  4  1  1  0  0  0  0
  5  7  2  0  0  0  0
  5  2  1  0  0  0  0
  6  3  1  0  0  0  0
  8  6  1  0  0  0  0
  9 10  1  6  0  0  0
  9  4  1  0  0  0  0
  9  8  1  0  0  0  0
 11 15  1  6  0  0  0
 11 14  1  0  0  0  0
 12 19  1  0  0  0  0
 12 10  1  0  0  0  0
 13 16  1  0  0  0  0
 14 18  1  0  0  0  0
 16 18  1  0  0  0  0
 16 19  2  0  0  0  0
 17 13  1  0  0  0  0
 17 11  1  0  0  0  0
 20 12  2  0  0  0  0
 21 20  1  0  0  0  0
 21 13  2  0  0  0  0
 22 27  1  0  0  0  0
 22 10  1  0  0  0  0
 23 26  1  0  0  0  0
 23 24  1  0  0  0  0
 24 28  1  0  0  0  0
 24 30  1  0  0  0  0
 25 27  1  0  0  0  0
 25 28  1  0  0  0  0
 26 27  1  0  0  0  0
 30 29  1  0  0  0  0
 31 33  1  0  0  0  0
 33 32  1  1  0  0  0
 34 36  1  0  0  0  0
 34 33  1  0  0  0  0
 35 38  1  0  0  0  0
 36 35  1  0  0  0  0
 37 36  2  0  0  0  0
 38 42  1  0  0  0  0
 39 41  1  0  0  0  0
 41 40  1  0  0  0  0
 42 40  1  0  0  0  0
 43 39  1  0  0  0  0
 43 38  1  0  0  0  0
M  END
>  <MODEL>
1

>  <REMARK>
 VINA RESULT:      -8.4      0.000      0.000
  Name = 
  9 active torsions:
  status: ('A' for Active; 'I' for Inactive)
    1  A    between atoms: C_1  and  N_34
    2  A    between atoms: C_1  and  C_35
    3  A    between atoms: N_3  and  C_42
    4  A    between atoms: N_4  and  C_15
    5  A    between atoms: C_8  and  N_34
    6  A    between atoms: C_11  and  N_14
    7  A    between atoms: C_15  and  C_42
    8  A    between atoms: N_19  and  O_37
    9  A    between atoms: N_34  and  C_38
                            x       y       z     vdW  Elec       q    Type
                         _______ _______ _______ _____ _____    ______ ____

>  <TORSDO>
F 9

$$$$
=
 OpenBabel10272414403D

 43 47  0  0  1  0  0  0  0  0999 V2000
  189.2120  176.4310  142.7490 C   0  0  0  0  0  2  0  0  0  0  0  0
  189.2200  177.3600  145.4770 N   0  0  0  0  0  2  0  0  0  0  0  0
  190.4590  176.8680  143.3840 N   0  0  0  0  0  0  0  0  0  0  0  0
  189.3930  176.2150  141.2450 C   0  0  0  0  0  2  0  0  0  0  0  0
  190.4500  177.3130  144.7460 C   0  0  0  0  0  0  0  0  0  0  0  0
  191.7110  176.8650  142.6260 C   0  0  0  0  0  2  0  0  0  0  0  0
  191.5250  177.6780  145.2990 O   0  0  0  0  0  0  0  0  0  0  0  0
  191.5440  177.6070  141.2970 C   0  0  0  0  0  2  0  0  0  0  0  0
  190.1600  177.3970  140.6570 C   0  0  1  0  0  3  0  0  0  0  0  0
  190.2470  177.3180  139.1990 N   0  0  0  0  0  0  0  0  0  0  0  0
  194.8590  173.4140  136.8220 C   0  0  2  0  0  3  0  0  0  0  0  0
  191.0540  176.3340  138.5120 C   0  0  0  0  0  0  0  0  0  0  0  0
  192.6390  174.3970  137.2310 C   0  0  0  0  0  0  0  0  0  0  0  0
  195.4230  174.8350  136.7940 C   0  0  0  0  0  2  0  0  0  0  0  0
  195.5170  172.5730  135.7490 C   0  0  0  0  0  1  0  0  0  0  0  0
  193.2350  175.5290  137.7970 C   0  0  0  0  0  0  0  0  0  0  0  0
  193.4440  173.4290  136.6230 O   0  0  0  0  0  0  0  0  0  0  0  0
  194.6500  175.6960  137.6870 N   0  0  0  0  0  2  0  0  0  0  0  0
  192.4510  176.4850  138.4470 C   0  0  0  0  0  3  0  0  0  0  0  0
  190.4650  175.2060  137.9110 C   0  0  0  0  0  3  0  0  0  0  0  0
  191.2510  174.2430  137.2740 C   0  0  0  0  0  3  0  0  0  0  0  0
  189.5430  178.3630  138.4590 C   0  0  0  0  0  2  0  0  0  0  0  0
  185.8160  178.3370  137.8850 C   0  0  0  0  0  2  0  0  0  0  0  0
  185.7210  177.6710  136.5790 N   0  0  0  0  0  0  0  0  0  0  0  0
  188.1040  178.5210  136.4350 C   0  0  0  0  0  2  0  0  0  0  0  0
  187.0780  177.9300  138.6570 C   0  0  0  0  0  2  0  0  0  0  0  0
  188.3130  177.8040  137.7590 C   0  0  0  0  0  3  0  0  0  0  0  0
  186.8870  177.9310  135.7100 C   0  0  0  0  0  2  0  0  0  0  0  0
  185.5210  175.7770  135.5110 C   0  0  0  0  0  1  0  0  0  0  0  0
  185.6530  176.3310  136.7860 O   0  0  0  0  0  0  0  0  0  0  0  0
  189.1310  177.8810  146.8340 C   0  0  0  0  0  2  0  0  0  0  0  0
  187.9100  177.3480  148.9120 C   0  0  0  0  0  1  0  0  0  0  0  0
  187.7580  177.6050  147.4250 C   0  0  1  0  0  3  0  0  0  0  0  0
  186.8890  178.7550  147.2100 N   0  0  0  0  0  2  0  0  0  0  0  0
  186.1830  177.9540  144.9700 N   0  0  0  0  0  2  0  0  0  0  0  0
  186.1100  178.9200  146.0260 C   0  0  0  0  0  0  0  0  0  0  0  0
  185.3540  179.9200  145.9230 O   0  0  0  0  0  0  0  0  0  0  0  0
  185.2880  177.9230  143.8180 C   0  0  0  0  0  3  0  0  0  0  0  0
  184.8800  178.9800  141.5480 C   0  0  0  0  0  2  0  0  0  0  0  0
  183.0990  178.8440  142.9080 C   0  0  0  0  0  2  0  0  0  0  0  0
  183.6770  178.2830  141.7550 O   0  0  0  0  0  0  0  0  0  0  0  0
  183.9230  178.5290  144.1680 C   0  0  0  0  0  2  0  0  0  0  0  0
  185.9360  178.5650  142.5830 C   0  0  0  0  0  2  0  0  0  0  0  0
  1  3  1  0  0  0  0
  2 31  1  0  0  0  0
  3  5  1  0  0  0  0
  4  1  1  0  0  0  0
  5  7  2  0  0  0  0
  5  2  1  0  0  0  0
  6  3  1  0  0  0  0
  8  6  1  0  0  0  0
  9 10  1  6  0  0  0
  9  4  1  0  0  0  0
  9  8  1  0  0  0  0
 11 15  1  6  0  0  0
 12 10  1  0  0  0  0
 13 21  2  0  0  0  0
 13 16  1  0  0  0  0
 14 11  1  0  0  0  0
 14 18  1  0  0  0  0
 16 19  2  0  0  0  0
 17 11  1  0  0  0  0
 17 13  1  0  0  0  0
 18 16  1  0  0  0  0
 19 12  1  0  0  0  0
 20 12  2  0  0  0  0
 21 20  1  0  0  0  0
 22 10  1  0  0  0  0
 23 26  1  0  0  0  0
 24 30  1  0  0  0  0
 24 23  1  0  0  0  0
 25 27  1  0  0  0  0
 27 22  1  0  0  0  0
 27 26  1  0  0  0  0
 28 25  1  0  0  0  0
 28 24  1  0  0  0  0
 29 30  1  0  0  0  0
 31 33  1  0  0  0  0
 33 32  1  1  0  0  0
 34 33  1  0  0  0  0
 35 36  1  0  0  0  0
 36 34  1  0  0  0  0
 37 36  2  0  0  0  0
 38 42  1  0  0  0  0
 38 35  1  0  0  0  0
 39 41  1  0  0  0  0
 39 43  1  0  0  0  0
 40 42  1  0  0  0  0
 41 40  1  0  0  0  0
 43 38  1  0  0  0  0
M  END
>  <MODEL>
2

>  <REMARK>
 VINA RESULT:      -8.3      2.975      7.436
  Name = 
  9 active torsions:
  status: ('A' for Active; 'I' for Inactive)
    1  A    between atoms: C_1  and  N_34
    2  A    between atoms: C_1  and  C_35
    3  A    between atoms: N_3  and  C_42
    4  A    between atoms: N_4  and  C_15
    5  A    between atoms: C_8  and  N_34
    6  A    between atoms: C_11  and  N_14
    7  A    between atoms: C_15  and  C_42
    8  A    between atoms: N_19  and  O_37
    9  A    between atoms: N_34  and  C_38
                            x       y       z     vdW  Elec       q    Type
                         _______ _______ _______ _____ _____    ______ ____

>  <TORSDO>
F 9

$$$$
=
 OpenBabel10272414403D

 43 47  0  0  1  0  0  0  0  0999 V2000
  184.8300  178.9930  140.3260 C   0  0  0  0  0  2  0  0  0  0  0  0
  184.2340  179.2010  143.1380 N   0  0  0  0  0  2  0  0  0  0  0  0
  183.4640  178.7870  140.8150 N   0  0  0  0  0  0  0  0  0  0  0  0
  184.9650  178.5990  138.8530 C   0  0  0  0  0  2  0  0  0  0  0  0
  183.1800  178.9090  142.2150 C   0  0  0  0  0  0  0  0  0  0  0  0
  182.3910  178.4430  139.8800 C   0  0  0  0  0  2  0  0  0  0  0  0
  182.0020  178.7440  142.6380 O   0  0  0  0  0  0  0  0  0  0  0  0
  182.7930  177.2490  139.0090 C   0  0  0  0  0  2  0  0  0  0  0  0
  184.2840  177.2500  138.6310 C   0  0  1  0  0  3  0  0  0  0  0  0
  184.4960  176.7510  137.2720 N   0  0  0  0  0  0  0  0  0  0  0  0
  190.5180  175.5410  135.1660 C   0  0  2  0  0  3  0  0  0  0  0  0
  185.7960  176.7220  136.6400 C   0  0  0  0  0  0  0  0  0  0  0  0
  188.3110  176.6090  135.3870 C   0  0  0  0  0  0  0  0  0  0  0  0
  190.5470  175.4070  136.6890 C   0  0  0  0  0  2  0  0  0  0  0  0
  191.8890  175.9260  134.6530 C   0  0  0  0  0  1  0  0  0  0  0  0
  188.1010  175.9430  136.5990 C   0  0  0  0  0  0  0  0  0  0  0  0
  189.5590  176.5200  134.7630 O   0  0  0  0  0  0  0  0  0  0  0  0
  189.1870  175.2360  137.1990 N   0  0  0  0  0  2  0  0  0  0  0  0
  186.8480  175.9860  137.2160 C   0  0  0  0  0  3  0  0  0  0  0  0
  186.0320  177.4120  135.4360 C   0  0  0  0  0  3  0  0  0  0  0  0
  187.2810  177.3580  134.8120 C   0  0  0  0  0  3  0  0  0  0  0  0
  183.2940  176.3680  136.5370 C   0  0  0  0  0  2  0  0  0  0  0  0
  181.2500  173.2250  136.1280 C   0  0  0  0  0  2  0  0  0  0  0  0
  182.2500  172.2880  135.5970 N   0  0  0  0  0  0  0  0  0  0  0  0
  183.3370  174.4750  134.9230 C   0  0  0  0  0  2  0  0  0  0  0  0
  181.8850  174.3370  136.9750 C   0  0  0  0  0  2  0  0  0  0  0  0
  183.2010  174.8570  136.3870 C   0  0  0  0  0  3  0  0  0  0  0  0
  183.2830  172.9490  134.7750 C   0  0  0  0  0  2  0  0  0  0  0  0
  183.7150  170.7380  136.0640 C   0  0  0  0  0  1  0  0  0  0  0  0
  182.8750  171.6910  136.6440 O   0  0  0  0  0  0  0  0  0  0  0  0
  184.0280  179.2540  144.5780 C   0  0  0  0  0  2  0  0  0  0  0  0
  184.8860  178.3280  146.6980 C   0  0  0  0  0  1  0  0  0  0  0  0
  185.2800  178.8130  145.3160 C   0  0  1  0  0  3  0  0  0  0  0  0
  185.9310  177.7350  144.5820 N   0  0  0  0  0  2  0  0  0  0  0  0
  188.1530  178.2490  145.5590 N   0  0  0  0  0  2  0  0  0  0  0  0
  187.3220  177.4480  144.7090 C   0  0  0  0  0  0  0  0  0  0  0  0
  187.8100  176.4780  144.0720 O   0  0  0  0  0  0  0  0  0  0  0  0
  189.5300  177.9200  145.9130 C   0  0  0  0  0  3  0  0  0  0  0  0
  191.5910  176.6960  145.0810 C   0  0  0  0  0  2  0  0  0  0  0  0
  190.9680  176.2590  147.1930 C   0  0  0  0  0  2  0  0  0  0  0  0
  191.9290  176.9390  146.4240 O   0  0  0  0  0  0  0  0  0  0  0  0
  189.5740  176.8920  147.0500 C   0  0  0  0  0  2  0  0  0  0  0  0
  190.3410  177.4940  144.6810 C   0  0  0  0  0  2  0  0  0  0  0  0
  1  3  1  0  0  0  0
  2 31  1  0  0  0  0
  3  5  1  0  0  0  0
  4  1  1  0  0  0  0
  5  7  2  0  0  0  0
  5  2  1  0  0  0  0
  6  3  1  0  0  0  0
  8  6  1  0  0  0  0
  9 10  1  6  0  0  0
  9  4  1  0  0  0  0
  9  8  1  0  0  0  0
 11 15  1  1  0  0  0
 11 14  1  0  0  0  0
 12 19  1  0  0  0  0
 12 10  1  0  0  0  0
 13 16  1  0  0  0  0
 14 18  1  0  0  0  0
 16 18  1  0  0  0  0
 16 19  2  0  0  0  0
 17 11  1  0  0  0  0
 17 13  1  0  0  0  0
 20 12  2  0  0  0  0
 21 13  2  0  0  0  0
 21 20  1  0  0  0  0
 22 10  1  0  0  0  0
 23 26  1  0  0  0  0
 24 23  1  0  0  0  0
 24 30  1  0  0  0  0
 25 27  1  0  0  0  0
 27 22  1  0  0  0  0
 27 26  1  0  0  0  0
 28 25  1  0  0  0  0
 28 24  1  0  0  0  0
 29 30  1  0  0  0  0
 31 33  1  0  0  0  0
 33 32  1  1  0  0  0
 34 36  1  0  0  0  0
 34 33  1  0  0  0  0
 35 38  1  0  0  0  0
 36 35  1  0  0  0  0
 37 36  2  0  0  0  0
 38 42  1  0  0  0  0
 39 41  1  0  0  0  0
 41 40  1  0  0  0  0
 42 40  1  0  0  0  0
 43 39  1  0  0  0  0
 43 38  1  0  0  0  0
M  END
>  <MODEL>
3

>  <REMARK>
 VINA RESULT:      -8.0      1.304      4.907
  Name = 
  9 active torsions:
  status: ('A' for Active; 'I' for Inactive)
    1  A    between atoms: C_1  and  N_34
    2  A    between atoms: C_1  and  C_35
    3  A    between atoms: N_3  and  C_42
    4  A    between atoms: N_4  and  C_15
    5  A    between atoms: C_8  and  N_34
    6  A    between atoms: C_11  and  N_14
    7  A    between atoms: C_15  and  C_42
    8  A    between atoms: N_19  and  O_37
    9  A    between atoms: N_34  and  C_38
                            x       y       z     vdW  Elec       q    Type
                         _______ _______ _______ _____ _____    ______ ____

>  <TORSDO>
F 9

$$$$
=
 OpenBabel10272414403D

 43 47  0  0  1  0  0  0  0  0999 V2000
  184.8670  179.1730  142.2060 C   0  0  0  0  0  2  0  0  0  0  0  0
  185.1160  178.5860  145.0170 N   0  0  0  0  0  2  0  0  0  0  0  0
  183.6740  179.0010  143.0400 N   0  0  0  0  0  0  0  0  0  0  0  0
  184.5090  179.2330  140.7200 C   0  0  0  0  0  2  0  0  0  0  0  0
  183.8140  178.7240  144.4400 C   0  0  0  0  0  0  0  0  0  0  0  0
  182.3400  179.0960  142.4450 C   0  0  0  0  0  2  0  0  0  0  0  0
  182.7880  178.5870  145.1630 O   0  0  0  0  0  0  0  0  0  0  0  0
  182.2250  178.1840  141.2200 C   0  0  0  0  0  2  0  0  0  0  0  0
  183.5230  178.1130  140.3960 C   0  0  1  0  0  3  0  0  0  0  0  0
  183.2460  178.0300  138.9610 N   0  0  0  0  0  0  0  0  0  0  0  0
  188.7100  177.1890  135.5550 C   0  0  2  0  0  3  0  0  0  0  0  0
  184.2830  177.8470  137.9700 C   0  0  0  0  0  0  0  0  0  0  0  0
  186.3150  177.4380  136.0710 C   0  0  0  0  0  0  0  0  0  0  0  0
  188.9900  178.2930  136.5750 C   0  0  0  0  0  2  0  0  0  0  0  0
  189.6060  177.3590  134.3480 C   0  0  0  0  0  1  0  0  0  0  0  0
  186.6320  177.9310  137.3410 C   0  0  0  0  0  0  0  0  0  0  0  0
  187.3410  177.2130  135.1470 O   0  0  0  0  0  0  0  0  0  0  0  0
  187.9920  178.2500  137.6430 N   0  0  0  0  0  2  0  0  0  0  0  0
  185.6260  178.1210  138.2910 C   0  0  0  0  0  3  0  0  0  0  0  0
  183.9760  177.3810  136.6780 C   0  0  0  0  0  3  0  0  0  0  0  0
  184.9850  177.1770  135.7330 C   0  0  0  0  0  3  0  0  0  0  0  0
  181.8560  178.2430  138.5650 C   0  0  0  0  0  2  0  0  0  0  0  0
  180.1270  180.9690  136.6170 C   0  0  0  0  0  2  0  0  0  0  0  0
  180.2150  182.1020  137.5490 N   0  0  0  0  0  0  0  0  0  0  0  0
  180.4470  180.1920  139.1980 C   0  0  0  0  0  2  0  0  0  0  0  0
  181.2560  179.9520  136.8270 C   0  0  0  0  0  2  0  0  0  0  0  0
  181.5800  179.7160  138.3060 C   0  0  0  0  0  3  0  0  0  0  0  0
  180.1940  181.6880  138.9670 C   0  0  0  0  0  2  0  0  0  0  0  0
  181.0190  184.0520  136.9850 C   0  0  0  0  0  1  0  0  0  0  0  0
  181.3880  182.7490  137.3270 O   0  0  0  0  0  0  0  0  0  0  0  0
  185.3250  178.2230  146.4110 C   0  0  0  0  0  2  0  0  0  0  0  0
  186.0680  179.9280  148.0330 C   0  0  0  0  0  1  0  0  0  0  0  0
  186.5360  178.9450  146.9780 C   0  0  1  0  0  3  0  0  0  0  0  0
  187.4500  177.9790  147.5760 N   0  0  0  0  0  2  0  0  0  0  0  0
  188.5820  177.5320  145.4130 N   0  0  0  0  0  2  0  0  0  0  0  0
  188.4550  177.3030  146.8220 C   0  0  0  0  0  0  0  0  0  0  0  0
  189.2330  176.5090  147.4110 O   0  0  0  0  0  0  0  0  0  0  0  0
  189.6910  177.0510  144.5970 C   0  0  0  0  0  3  0  0  0  0  0  0
  191.6760  177.8330  143.2250 C   0  0  0  0  0  2  0  0  0  0  0  0
  190.3320  176.3250  142.2450 C   0  0  0  0  0  2  0  0  0  0  0  0
  191.5920  176.4800  142.8520 O   0  0  0  0  0  0  0  0  0  0  0  0
  189.1880  176.4960  143.2580 C   0  0  0  0  0  2  0  0  0  0  0  0
  190.7790  178.1230  144.4370 C   0  0  0  0  0  2  0  0  0  0  0  0
  1  3  1  0  0  0  0
  2 31  1  0  0  0  0
  3  5  1  0  0  0  0
  4  1  1  0  0  0  0
  5  2  1  0  0  0  0
  5  7  2  0  0  0  0
  6  3  1  0  0  0  0
  8  6  1  0  0  0  0
  9 10  1  6  0  0  0
  9  4  1  0  0  0  0
  9  8  1  0  0  0  0
 11 15  1  6  0  0  0
 11 14  1  0  0  0  0
 12 19  1  0  0  0  0
 12 10  1  0  0  0  0
 13 16  1  0  0  0  0
 14 18  1  0  0  0  0
 16 18  1  0  0  0  0
 16 19  2  0  0  0  0
 17 11  1  0  0  0  0
 17 13  1  0  0  0  0
 20 12  2  0  0  0  0
 21 13  2  0  0  0  0
 21 20  1  0  0  0  0
 22 10  1  0  0  0  0
 23 26  1  0  0  0  0
 23 24  1  0  0  0  0
 24 28  1  0  0  0  0
 26 27  1  0  0  0  0
 27 22  1  0  0  0  0
 27 25  1  0  0  0  0
 28 25  1  0  0  0  0
 29 30  1  0  0  0  0
 30 24  1  0  0  0  0
 31 33  1  0  0  0  0
 33 34  1  0  0  0  0
 33 32  1  1  0  0  0
 35 36  1  0  0  0  0
 36 37  2  0  0  0  0
 36 34  1  0  0  0  0
 38 35  1  0  0  0  0
 39 43  1  0  0  0  0
 40 41  1  0  0  0  0
 40 42  1  0  0  0  0
 41 39  1  0  0  0  0
 42 38  1  0  0  0  0
 43 38  1  0  0  0  0
M  END
>  <MODEL>
4

>  <REMARK>
 VINA RESULT:      -7.9      3.108      5.705
  Name = 
  9 active torsions:
  status: ('A' for Active; 'I' for Inactive)
    1  A    between atoms: C_1  and  N_34
    2  A    between atoms: C_1  and  C_35
    3  A    between atoms: N_3  and  C_42
    4  A    between atoms: N_4  and  C_15
    5  A    between atoms: C_8  and  N_34
    6  A    between atoms: C_11  and  N_14
    7  A    between atoms: C_15  and  C_42
    8  A    between atoms: N_19  and  O_37
    9  A    between atoms: N_34  and  C_38
                            x       y       z     vdW  Elec       q    Type
                         _______ _______ _______ _____ _____    ______ ____

>  <TORSDO>
F 9

$$$$
=
 OpenBabel10272414403D

 43 47  0  0  1  0  0  0  0  0999 V2000
  185.1560  175.9940  137.2660 C   0  0  0  0  0  2  0  0  0  0  0  0
  187.7180  175.3440  136.1180 N   0  0  0  0  0  2  0  0  0  0  0  0
  186.0810  177.0560  136.8600 N   0  0  0  0  0  0  0  0  0  0  0  0
  183.9760  176.5530  138.0650 C   0  0  0  0  0  2  0  0  0  0  0  0
  187.3460  176.7170  136.2760 C   0  0  0  0  0  0  0  0  0  0  0  0
  185.7240  178.4610  137.0620 C   0  0  0  0  0  2  0  0  0  0  0  0
  188.1400  177.6300  135.9150 O   0  0  0  0  0  0  0  0  0  0  0  0
  185.2890  178.7080  138.5100 C   0  0  0  0  0  2  0  0  0  0  0  0
  184.4990  177.5330  139.1130 C   0  0  1  0  0  3  0  0  0  0  0  0
  183.4340  177.9980  140.0010 N   0  0  0  0  0  0  0  0  0  0  0  0
  185.6380  179.1670  145.9970 C   0  0  2  0  0  3  0  0  0  0  0  0
  183.6410  178.2510  141.4100 C   0  0  0  0  0  0  0  0  0  0  0  0
  184.0700  178.7960  144.1350 C   0  0  0  0  0  0  0  0  0  0  0  0
  186.5090  178.0540  145.4140 C   0  0  0  0  0  2  0  0  0  0  0  0
  185.6080  179.0660  147.5060 C   0  0  0  0  0  1  0  0  0  0  0  0
  185.1100  178.2890  143.3490 C   0  0  0  0  0  0  0  0  0  0  0  0
  184.3070  179.0890  145.4810 O   0  0  0  0  0  0  0  0  0  0  0  0
  186.3760  178.0270  143.9580 N   0  0  0  0  0  2  0  0  0  0  0  0
  184.9030  178.0320  141.9920 C   0  0  0  0  0  3  0  0  0  0  0  0
  182.5950  178.7320  142.2200 C   0  0  0  0  0  3  0  0  0  0  0  0
  182.8070  179.0030  143.5750 C   0  0  0  0  0  3  0  0  0  0  0  0
  182.1050  178.1030  139.4060 C   0  0  0  0  0  2  0  0  0  0  0  0
  180.5210  180.6950  137.1720 C   0  0  0  0  0  2  0  0  0  0  0  0
  180.3490  181.8220  138.1000 N   0  0  0  0  0  0  0  0  0  0  0  0
  180.4470  179.9210  139.7730 C   0  0  0  0  0  2  0  0  0  0  0  0
  181.6780  179.7740  137.5820 C   0  0  0  0  0  2  0  0  0  0  0  0
  181.7550  179.5510  139.0960 C   0  0  0  0  0  3  0  0  0  0  0  0
  180.1140  181.3930  139.4940 C   0  0  0  0  0  2  0  0  0  0  0  0
  181.1740  183.6750  137.2930 C   0  0  0  0  0  1  0  0  0  0  0  0
  181.4840  182.5670  138.0840 O   0  0  0  0  0  0  0  0  0  0  0  0
  189.0200  174.9350  135.6110 C   0  0  0  0  0  2  0  0  0  0  0  0
  190.5170  173.1440  136.4110 C   0  0  0  0  0  1  0  0  0  0  0  0
  189.9260  174.4990  136.7500 C   0  0  1  0  0  3  0  0  0  0  0  0
  190.9960  175.4720  136.9290 N   0  0  0  0  0  2  0  0  0  0  0  0
  189.9170  176.4690  138.9290 N   0  0  0  0  0  2  0  0  0  0  0  0
  191.0030  176.4210  137.9950 C   0  0  0  0  0  0  0  0  0  0  0  0
  191.9780  177.2080  138.1090 O   0  0  0  0  0  0  0  0  0  0  0  0
  189.9220  177.2550  140.1580 C   0  0  0  0  0  3  0  0  0  0  0  0
  189.5190  177.0970  142.6570 C   0  0  0  0  0  2  0  0  0  0  0  0
  188.5080  178.8000  141.6000 C   0  0  0  0  0  2  0  0  0  0  0  0
  189.5710  178.4890  142.4680 O   0  0  0  0  0  0  0  0  0  0  0  0
  188.7400  178.2320  140.1900 C   0  0  0  0  0  2  0  0  0  0  0  0
  189.9990  176.3570  141.4010 C   0  0  0  0  0  2  0  0  0  0  0  0
  1  4  1  0  0  0  0
  2  5  1  0  0  0  0
  3  6  1  0  0  0  0
  3  1  1  0  0  0  0
  4  9  1  0  0  0  0
  5  3  1  0  0  0  0
  6  8  1  0  0  0  0
  7  5  2  0  0  0  0
  8  9  1  0  0  0  0
  9 10  1  6  0  0  0
 10 12  1  0  0  0  0
 11 15  1  1  0  0  0
 12 19  2  0  0  0  0
 12 20  1  0  0  0  0
 13 17  1  0  0  0  0
 14 11  1  0  0  0  0
 16 18  1  0  0  0  0
 16 13  2  0  0  0  0
 17 11  1  0  0  0  0
 18 14  1  0  0  0  0
 19 16  1  0  0  0  0
 20 21  2  0  0  0  0
 21 13  1  0  0  0  0
 22 10  1  0  0  0  0
 23 26  1  0  0  0  0
 23 24  1  0  0  0  0
 24 28  1  0  0  0  0
 26 27  1  0  0  0  0
 27 22  1  0  0  0  0
 27 25  1  0  0  0  0
 28 25  1  0  0  0  0
 29 30  1  0  0  0  0
 30 24  1  0  0  0  0
 31  2  1  0  0  0  0
 31 33  1  0  0  0  0
 33 32  1  6  0  0  0
 33 34  1  0  0  0  0
 34 36  1  0  0  0  0
 35 38  1  0  0  0  0
 36 37  2  0  0  0  0
 36 35  1  0  0  0  0
 38 42  1  0  0  0  0
 38 43  1  0  0  0  0
 40 41  1  0  0  0  0
 41 39  1  0  0  0  0
 42 40  1  0  0  0  0
 43 39  1  0  0  0  0
M  END
>  <MODEL>
5

>  <REMARK>
 VINA RESULT:      -7.8      3.126      8.438
  Name = 
  9 active torsions:
  status: ('A' for Active; 'I' for Inactive)
    1  A    between atoms: C_1  and  N_34
    2  A    between atoms: C_1  and  C_35
    3  A    between atoms: N_3  and  C_42
    4  A    between atoms: N_4  and  C_15
    5  A    between atoms: C_8  and  N_34
    6  A    between atoms: C_11  and  N_14
    7  A    between atoms: C_15  and  C_42
    8  A    between atoms: N_19  and  O_37
    9  A    between atoms: N_34  and  C_38
                            x       y       z     vdW  Elec       q    Type
                         _______ _______ _______ _____ _____    ______ ____

>  <TORSDO>
F 9

$$$$
=
 OpenBabel10272414403D

 43 47  0  0  1  0  0  0  0  0999 V2000
  185.2830  179.1520  141.8660 C   0  0  0  0  0  2  0  0  0  0  0  0
  185.1350  178.7670  144.7190 N   0  0  0  0  0  2  0  0  0  0  0  0
  183.9960  178.8890  142.5170 N   0  0  0  0  0  0  0  0  0  0  0  0
  185.1670  179.0800  140.3420 C   0  0  0  0  0  2  0  0  0  0  0  0
  183.9370  178.7160  143.9390 C   0  0  0  0  0  0  0  0  0  0  0  0
  182.7740  178.7900  141.7180 C   0  0  0  0  0  2  0  0  0  0  0  0
  182.8280  178.5020  144.5030 O   0  0  0  0  0  0  0  0  0  0  0  0
  182.9590  177.8000  140.5640 C   0  0  0  0  0  2  0  0  0  0  0  0
  184.3720  177.8340  139.9580 C   0  0  1  0  0  3  0  0  0  0  0  0
  184.3430  177.6330  138.5090 N   0  0  0  0  0  0  0  0  0  0  0  0
  181.0520  172.4380  136.4250 C   0  0  2  0  0  3  0  0  0  0  0  0
  183.4770  176.6690  137.8670 C   0  0  0  0  0  0  0  0  0  0  0  0
  181.7710  174.7800  136.6730 C   0  0  0  0  0  0  0  0  0  0  0  0
  182.5260  172.0360  136.4800 C   0  0  0  0  0  2  0  0  0  0  0  0
  180.3260  171.6060  135.3900 C   0  0  0  0  0  1  0  0  0  0  0  0
  182.9410  174.3610  137.3150 C   0  0  0  0  0  0  0  0  0  0  0  0
  180.9190  173.8250  136.1100 O   0  0  0  0  0  0  0  0  0  0  0  0
  183.2660  172.9690  137.3270 N   0  0  0  0  0  2  0  0  0  0  0  0
  183.7830  175.2960  137.9220 C   0  0  0  0  0  3  0  0  0  0  0  0
  182.3130  177.0780  137.1910 C   0  0  0  0  0  3  0  0  0  0  0  0
  181.4640  176.1400  136.5970 C   0  0  0  0  0  3  0  0  0  0  0  0
  185.3180  178.3990  137.7370 C   0  0  0  0  0  2  0  0  0  0  0  0
  187.8760  177.0130  135.3390 C   0  0  0  0  0  2  0  0  0  0  0  0
  188.9890  176.6930  136.2440 N   0  0  0  0  0  0  0  0  0  0  0  0
  187.8040  178.4370  137.6490 C   0  0  0  0  0  2  0  0  0  0  0  0
  186.5170  176.9780  136.0510 C   0  0  0  0  0  2  0  0  0  0  0  0
  186.5670  177.5750  137.4610 C   0  0  0  0  0  3  0  0  0  0  0  0
  189.0660  177.5970  137.4090 C   0  0  0  0  0  2  0  0  0  0  0  0
  189.8430  175.2410  137.6330 C   0  0  0  0  0  1  0  0  0  0  0  0
  188.8110  175.4310  136.7120 O   0  0  0  0  0  0  0  0  0  0  0  0
  185.1530  178.5150  146.1520 C   0  0  0  0  0  2  0  0  0  0  0  0
  185.9840  180.1010  147.8520 C   0  0  0  0  0  1  0  0  0  0  0  0
  186.4020  179.1060  146.7860 C   0  0  1  0  0  3  0  0  0  0  0  0
  187.1980  178.0440  147.3870 N   0  0  0  0  0  2  0  0  0  0  0  0
  188.6020  177.7830  145.3580 N   0  0  0  0  0  2  0  0  0  0  0  0
  188.2780  177.4100  146.7030 C   0  0  0  0  0  0  0  0  0  0  0  0
  188.9460  176.5250  147.2980 O   0  0  0  0  0  0  0  0  0  0  0  0
  189.7990  177.3460  144.6480 C   0  0  0  0  0  3  0  0  0  0  0  0
  191.5300  178.1000  142.9540 C   0  0  0  0  0  2  0  0  0  0  0  0
  190.6080  176.0850  142.5930 C   0  0  0  0  0  2  0  0  0  0  0  0
  191.7870  176.7190  143.0240 O   0  0  0  0  0  0  0  0  0  0  0  0
  189.4540  176.2920  143.5880 C   0  0  0  0  0  2  0  0  0  0  0  0
  190.5860  178.5380  144.0820 C   0  0  0  0  0  2  0  0  0  0  0  0
  1  3  1  0  0  0  0
  2 31  1  0  0  0  0
  3  5  1  0  0  0  0
  4  1  1  0  0  0  0
  5  7  2  0  0  0  0
  5  2  1  0  0  0  0
  6  3  1  0  0  0  0
  8  6  1  0  0  0  0
  9 10  1  6  0  0  0
  9  4  1  0  0  0  0
  9  8  1  0  0  0  0
 11 15  1  6  0  0  0
 11 14  1  0  0  0  0
 12 19  1  0  0  0  0
 12 10  1  0  0  0  0
 13 16  1  0  0  0  0
 14 18  1  0  0  0  0
 16 18  1  0  0  0  0
 16 19  2  0  0  0  0
 17 11  1  0  0  0  0
 17 13  1  0  0  0  0
 20 12  2  0  0  0  0
 21 13  2  0  0  0  0
 21 20  1  0  0  0  0
 22 10  1  0  0  0  0
 23 26  1  0  0  0  0
 23 24  1  0  0  0  0
 24 30  1  0  0  0  0
 24 28  1  0  0  0  0
 26 27  1  0  0  0  0
 27 25  1  0  0  0  0
 27 22  1  0  0  0  0
 28 25  1  0  0  0  0
 30 29  1  0  0  0  0
 31 33  1  0  0  0  0
 33 34  1  0  0  0  0
 33 32  1  1  0  0  0
 35 36  1  0  0  0  0
 36 37  2  0  0  0  0
 36 34  1  0  0  0  0
 38 35  1  0  0  0  0
 39 41  1  0  0  0  0
 39 43  1  0  0  0  0
 40 41  1  0  0  0  0
 40 42  1  0  0  0  0
 42 38  1  0  0  0  0
 43 38  1  0  0  0  0
M  END
>  <MODEL>
6

>  <REMARK>
 VINA RESULT:      -7.8      1.625      2.032
  Name = 
  9 active torsions:
  status: ('A' for Active; 'I' for Inactive)
    1  A    between atoms: C_1  and  N_34
    2  A    between atoms: C_1  and  C_35
    3  A    between atoms: N_3  and  C_42
    4  A    between atoms: N_4  and  C_15
    5  A    between atoms: C_8  and  N_34
    6  A    between atoms: C_11  and  N_14
    7  A    between atoms: C_15  and  C_42
    8  A    between atoms: N_19  and  O_37
    9  A    between atoms: N_34  and  C_38
                            x       y       z     vdW  Elec       q    Type
                         _______ _______ _______ _____ _____    ______ ____

>  <TORSDO>
F 9

$$$$
=
 OpenBabel10272414403D

 43 47  0  0  1  0  0  0  0  0999 V2000
  184.4180  178.7350  141.2250 C   0  0  0  0  0  2  0  0  0  0  0  0
  185.3950  178.3060  143.9020 N   0  0  0  0  0  2  0  0  0  0  0  0
  183.5160  178.8510  142.3750 N   0  0  0  0  0  0  0  0  0  0  0  0
  183.6480  178.7590  139.9030 C   0  0  0  0  0  2  0  0  0  0  0  0
  184.0200  178.6500  143.7010 C   0  0  0  0  0  0  0  0  0  0  0  0
  182.0990  179.1570  142.1710 C   0  0  0  0  0  2  0  0  0  0  0  0
  183.2480  178.7610  144.6940 O   0  0  0  0  0  0  0  0  0  0  0  0
  181.4790  178.2020  141.1470 C   0  0  0  0  0  2  0  0  0  0  0  0
  182.4420  177.8280  140.0070 C   0  0  1  0  0  3  0  0  0  0  0  0
  181.7410  177.7010  138.7290 N   0  0  0  0  0  0  0  0  0  0  0  0
  180.9330  183.4720  135.8660 C   0  0  2  0  0  3  0  0  0  0  0  0
  181.3770  178.8390  137.9150 C   0  0  0  0  0  0  0  0  0  0  0  0
  180.7300  181.0600  136.3170 C   0  0  0  0  0  0  0  0  0  0  0  0
  180.8350  183.7080  137.3740 C   0  0  0  0  0  2  0  0  0  0  0  0
  180.1450  184.5300  135.1230 C   0  0  0  0  0  1  0  0  0  0  0  0
  181.2530  181.2480  137.6020 C   0  0  0  0  0  0  0  0  0  0  0  0
  180.4400  182.1750  135.5250 O   0  0  0  0  0  0  0  0  0  0  0  0
  181.4220  182.5790  138.0930 N   0  0  0  0  0  2  0  0  0  0  0  0
  181.5890  180.1470  138.3910 C   0  0  0  0  0  3  0  0  0  0  0  0
  180.8220  178.6660  136.6340 C   0  0  0  0  0  3  0  0  0  0  0  0
  180.4990  179.7680  135.8390 C   0  0  0  0  0  3  0  0  0  0  0  0
  181.3320  176.3490  138.3560 C   0  0  0  0  0  2  0  0  0  0  0  0
  182.8940  173.4860  136.4620 C   0  0  0  0  0  2  0  0  0  0  0  0
  184.3220  173.8270  136.5330 N   0  0  0  0  0  0  0  0  0  0  0  0
  183.3300  176.1320  136.8900 C   0  0  0  0  0  2  0  0  0  0  0  0
  182.0970  174.0680  137.6370 C   0  0  0  0  0  2  0  0  0  0  0  0
  182.5380  175.4860  138.0140 C   0  0  0  0  0  3  0  0  0  0  0  0
  184.5690  175.2830  136.5710 C   0  0  0  0  0  2  0  0  0  0  0  0
  186.1690  173.0180  137.3710 C   0  0  0  0  0  1  0  0  0  0  0  0
  184.8330  173.2930  137.6720 O   0  0  0  0  0  0  0  0  0  0  0  0
  185.9480  178.0070  145.2150 C   0  0  0  0  0  2  0  0  0  0  0  0
  188.0230  178.1610  146.5420 C   0  0  0  0  0  1  0  0  0  0  0  0
  187.4640  177.9230  145.1520 C   0  0  1  0  0  3  0  0  0  0  0  0
  187.8640  176.6040  144.6790 N   0  0  0  0  0  2  0  0  0  0  0  0
  188.2200  177.4120  142.3600 N   0  0  0  0  0  2  0  0  0  0  0  0
  188.2470  176.3550  143.3270 C   0  0  0  0  0  0  0  0  0  0  0  0
  188.6170  175.1980  142.9970 O   0  0  0  0  0  0  0  0  0  0  0  0
  188.7780  177.3130  141.0150 C   0  0  0  0  0  3  0  0  0  0  0  0
  190.9070  177.6650  139.6820 C   0  0  0  0  0  2  0  0  0  0  0  0
  189.0410  178.5640  138.8170 C   0  0  0  0  0  2  0  0  0  0  0  0
  189.9560  177.5070  138.6590 O   0  0  0  0  0  0  0  0  0  0  0  0
  188.2160  178.4130  140.1060 C   0  0  0  0  0  2  0  0  0  0  0  0
  190.3130  177.2770  141.0440 C   0  0  0  0  0  2  0  0  0  0  0  0
  1  3  1  0  0  0  0
  2 31  1  0  0  0  0
  3  5  1  0  0  0  0
  4  9  1  0  0  0  0
  4  1  1  0  0  0  0
  5  2  1  0  0  0  0
  5  7  2  0  0  0  0
  6  3  1  0  0  0  0
  8  6  1  0  0  0  0
  9 10  1  6  0  0  0
  9  8  1  0  0  0  0
 11 15  1  6  0  0  0
 11 14  1  0  0  0  0
 12 19  1  0  0  0  0
 12 10  1  0  0  0  0
 13 16  1  0  0  0  0
 14 18  1  0  0  0  0
 16 18  1  0  0  0  0
 16 19  2  0  0  0  0
 17 11  1  0  0  0  0
 17 13  1  0  0  0  0
 20 12  2  0  0  0  0
 21 13  2  0  0  0  0
 21 20  1  0  0  0  0
 22 10  1  0  0  0  0
 23 24  1  0  0  0  0
 23 26  1  0  0  0  0
 24 28  1  0  0  0  0
 24 30  1  0  0  0  0
 25 27  1  0  0  0  0
 26 27  1  0  0  0  0
 27 22  1  0  0  0  0
 28 25  1  0  0  0  0
 29 30  1  0  0  0  0
 33 31  1  0  0  0  0
 33 32  1  1  0  0  0
 34 33  1  0  0  0  0
 35 36  1  0  0  0  0
 36 34  1  0  0  0  0
 37 36  2  0  0  0  0
 38 43  1  0  0  0  0
 38 35  1  0  0  0  0
 39 43  1  0  0  0  0
 40 42  1  0  0  0  0
 41 40  1  0  0  0  0
 41 39  1  0  0  0  0
 42 38  1  0  0  0  0
M  END
>  <MODEL>
7

>  <REMARK>
 VINA RESULT:      -7.7      3.228      6.207
  Name = 
  9 active torsions:
  status: ('A' for Active; 'I' for Inactive)
    1  A    between atoms: C_1  and  N_34
    2  A    between atoms: C_1  and  C_35
    3  A    between atoms: N_3  and  C_42
    4  A    between atoms: N_4  and  C_15
    5  A    between atoms: C_8  and  N_34
    6  A    between atoms: C_11  and  N_14
    7  A    between atoms: C_15  and  C_42
    8  A    between atoms: N_19  and  O_37
    9  A    between atoms: N_34  and  C_38
                            x       y       z     vdW  Elec       q    Type
                         _______ _______ _______ _____ _____    ______ ____

>  <TORSDO>
F 9

$$$$
=
 OpenBabel10272414403D

 43 47  0  0  1  0  0  0  0  0999 V2000
  185.5460  178.7430  139.1900 C   0  0  0  0  0  2  0  0  0  0  0  0
  184.6800  179.2510  141.8910 N   0  0  0  0  0  2  0  0  0  0  0  0
  184.1610  178.4780  139.5910 N   0  0  0  0  0  0  0  0  0  0  0  0
  185.8460  178.1790  137.7990 C   0  0  0  0  0  2  0  0  0  0  0  0
  183.7420  178.7500  140.9340 C   0  0  0  0  0  0  0  0  0  0  0  0
  183.2100  177.9230  138.6270 C   0  0  0  0  0  2  0  0  0  0  0  0
  182.5460  178.5340  141.2780 O   0  0  0  0  0  0  0  0  0  0  0  0
  183.7820  176.6690  137.9590 C   0  0  0  0  0  2  0  0  0  0  0  0
  185.2970  176.7570  137.7060 C   0  0  1  0  0  3  0  0  0  0  0  0
  185.6720  176.1110  136.4480 N   0  0  0  0  0  0  0  0  0  0  0  0
  191.8300  174.1040  135.9800 C   0  0  2  0  0  3  0  0  0  0  0  0
  187.0430  175.8170  136.0930 C   0  0  0  0  0  0  0  0  0  0  0  0
  189.6940  175.1860  135.4030 C   0  0  0  0  0  0  0  0  0  0  0  0
  191.6340  174.6050  137.4120 C   0  0  0  0  0  2  0  0  0  0  0  0
  193.2830  174.2380  135.5780 C   0  0  0  0  0  1  0  0  0  0  0  0
  189.2690  175.0740  136.7310 C   0  0  0  0  0  0  0  0  0  0  0  0
  191.0080  174.8400  135.0720 O   0  0  0  0  0  0  0  0  0  0  0  0
  190.2080  174.6660  137.7280 N   0  0  0  0  0  2  0  0  0  0  0  0
  187.9490  175.3730  137.0740 C   0  0  0  0  0  3  0  0  0  0  0  0
  187.4930  175.9540  134.7670 C   0  0  0  0  0  3  0  0  0  0  0  0
  188.8100  175.6410  134.4220 C   0  0  0  0  0  3  0  0  0  0  0  0
  184.5820  175.8620  135.5070 C   0  0  0  0  0  2  0  0  0  0  0  0
  183.8940  172.3700  136.7520 C   0  0  0  0  0  2  0  0  0  0  0  0
  183.4860  171.6890  135.5150 N   0  0  0  0  0  0  0  0  0  0  0  0
  182.9720  174.0810  134.8570 C   0  0  0  0  0  2  0  0  0  0  0  0
  184.8230  173.5610  136.4830 C   0  0  0  0  0  2  0  0  0  0  0  0
  184.4100  174.3720  135.2500 C   0  0  0  0  0  3  0  0  0  0  0  0
  182.8060  172.5850  134.5580 C   0  0  0  0  0  2  0  0  0  0  0  0
  184.7020  169.8820  135.3480 C   0  0  0  0  0  1  0  0  0  0  0  0
  184.5990  171.2040  134.9070 O   0  0  0  0  0  0  0  0  0  0  0  0
  184.3380  179.4670  143.2900 C   0  0  0  0  0  2  0  0  0  0  0  0
  184.7300  178.4040  145.4820 C   0  0  0  0  0  1  0  0  0  0  0  0
  185.3950  178.8640  144.2000 C   0  0  1  0  0  3  0  0  0  0  0  0
  186.0270  177.7300  143.5370 N   0  0  0  0  0  2  0  0  0  0  0  0
  187.9280  177.7040  145.1310 N   0  0  0  0  0  2  0  0  0  0  0  0
  187.2490  177.1530  143.9960 C   0  0  0  0  0  0  0  0  0  0  0  0
  187.7180  176.1520  143.3960 O   0  0  0  0  0  0  0  0  0  0  0  0
  189.0640  177.0740  145.7960 C   0  0  0  0  0  3  0  0  0  0  0  0
  190.5820  177.2690  147.8200 C   0  0  0  0  0  2  0  0  0  0  0  0
  191.6040  176.9730  145.8430 C   0  0  0  0  0  2  0  0  0  0  0  0
  191.2680  176.3190  147.0430 O   0  0  0  0  0  0  0  0  0  0  0  0
  190.3580  177.2970  145.0030 C   0  0  0  0  0  2  0  0  0  0  0  0
  189.1710  177.5110  147.2640 C   0  0  0  0  0  2  0  0  0  0  0  0
  1  3  1  0  0  0  0
  2 31  1  0  0  0  0
  3  5  1  0  0  0  0
  4  1  1  0  0  0  0
  5  7  2  0  0  0  0
  5  2  1  0  0  0  0
  6  3  1  0  0  0  0
  8  6  1  0  0  0  0
  9 10  1  6  0  0  0
  9  4  1  0  0  0  0
  9  8  1  0  0  0  0
 11 15  1  6  0  0  0
 11 14  1  0  0  0  0
 12 10  1  0  0  0  0
 12 19  1  0  0  0  0
 13 16  1  0  0  0  0
 14 18  1  0  0  0  0
 16 19  2  0  0  0  0
 16 18  1  0  0  0  0
 17 13  1  0  0  0  0
 17 11  1  0  0  0  0
 20 12  2  0  0  0  0
 21 20  1  0  0  0  0
 21 13  2  0  0  0  0
 22 10  1  0  0  0  0
 24 23  1  0  0  0  0
 25 27  1  0  0  0  0
 26 23  1  0  0  0  0
 27 22  1  0  0  0  0
 27 26  1  0  0  0  0
 28 25  1  0  0  0  0
 28 24  1  0  0  0  0
 30 29  1  0  0  0  0
 30 24  1  0  0  0  0
 31 33  1  0  0  0  0
 33 32  1  1  0  0  0
 34 36  1  0  0  0  0
 34 33  1  0  0  0  0
 35 38  1  0  0  0  0
 36 35  1  0  0  0  0
 37 36  2  0  0  0  0
 38 43  1  0  0  0  0
 40 41  1  0  0  0  0
 41 39  1  0  0  0  0
 42 38  1  0  0  0  0
 42 40  1  0  0  0  0
 43 39  1  0  0  0  0
M  END
>  <MODEL>
8

>  <REMARK>
 VINA RESULT:      -7.3      1.749      5.175
  Name = 
  9 active torsions:
  status: ('A' for Active; 'I' for Inactive)
    1  A    between atoms: C_1  and  N_34
    2  A    between atoms: C_1  and  C_35
    3  A    between atoms: N_3  and  C_42
    4  A    between atoms: N_4  and  C_15
    5  A    between atoms: C_8  and  N_34
    6  A    between atoms: C_11  and  N_14
    7  A    between atoms: C_15  and  C_42
    8  A    between atoms: N_19  and  O_37
    9  A    between atoms: N_34  and  C_38
                            x       y       z     vdW  Elec       q    Type
                         _______ _______ _______ _____ _____    ______ ____

>  <TORSDO>
F 9

$$$$
=
 OpenBabel10272414403D

 43 47  0  0  1  0  0  0  0  0999 V2000
  186.1660  178.0390  137.6520 C   0  0  0  0  0  2  0  0  0  0  0  0
  183.5280  176.9700  137.1990 N   0  0  0  0  0  2  0  0  0  0  0  0
  185.9900  176.7470  136.9810 N   0  0  0  0  0  0  0  0  0  0  0  0
  187.6330  178.2940  138.0040 C   0  0  0  0  0  2  0  0  0  0  0  0
  184.6710  176.2360  136.7490 C   0  0  0  0  0  0  0  0  0  0  0  0
  187.1580  175.9710  136.5610 C   0  0  0  0  0  2  0  0  0  0  0  0
  184.5170  175.1300  136.1610 O   0  0  0  0  0  0  0  0  0  0  0  0
  188.1420  175.7980  137.7210 C   0  0  0  0  0  2  0  0  0  0  0  0
  188.2240  177.0340  138.6340 C   0  0  1  0  0  3  0  0  0  0  0  0
  189.5870  177.2570  139.1180 N   0  0  0  0  0  0  0  0  0  0  0  0
  189.8950  176.8670  145.5930 C   0  0  2  0  0  3  0  0  0  0  0  0
  189.9290  177.2730  140.5240 C   0  0  0  0  0  0  0  0  0  0  0  0
  190.5820  177.2410  143.2580 C   0  0  0  0  0  0  0  0  0  0  0  0
  188.5640  177.5390  145.2520 C   0  0  0  0  0  2  0  0  0  0  0  0
  190.3590  177.3010  146.9670 C   0  0  0  0  0  1  0  0  0  0  0  0
  189.2410  177.2540  142.8570 C   0  0  0  0  0  0  0  0  0  0  0  0
  190.8900  177.1960  144.6210 O   0  0  0  0  0  0  0  0  0  0  0  0
  188.2190  177.2820  143.8550 N   0  0  0  0  0  2  0  0  0  0  0  0
  188.9150  177.2550  141.4990 C   0  0  0  0  0  3  0  0  0  0  0  0
  191.2720  177.2910  140.9420 C   0  0  0  0  0  3  0  0  0  0  0  0
  191.5980  177.2750  142.3000 C   0  0  0  0  0  3  0  0  0  0  0  0
  190.5860  177.5670  138.0990 C   0  0  0  0  0  2  0  0  0  0  0  0
  192.5060  175.5420  135.5620 C   0  0  0  0  0  2  0  0  0  0  0  0
  193.2970  174.6550  136.4270 N   0  0  0  0  0  0  0  0  0  0  0  0
  192.8500  176.5370  138.0650 C   0  0  0  0  0  2  0  0  0  0  0  0
  191.2060  176.0040  136.2340 C   0  0  0  0  0  2  0  0  0  0  0  0
  191.3850  176.3280  137.7210 C   0  0  0  0  0  3  0  0  0  0  0  0
  193.6510  175.2730  137.7210 C   0  0  0  0  0  2  0  0  0  0  0  0
  192.9300  172.6290  135.7020 C   0  0  0  0  0  1  0  0  0  0  0  0
  192.5600  173.5450  136.6890 O   0  0  0  0  0  0  0  0  0  0  0  0
  182.1680  176.4660  137.0700 C   0  0  0  0  0  2  0  0  0  0  0  0
  182.2000  176.1360  139.5160 C   0  0  0  0  0  1  0  0  0  0  0  0
  181.3900  176.6850  138.3570 C   0  0  1  0  0  3  0  0  0  0  0  0
  181.1530  178.1100  138.5520 N   0  0  0  0  0  2  0  0  0  0  0  0
  182.3320  178.1290  140.7350 N   0  0  0  0  0  2  0  0  0  0  0  0
  181.6220  178.8180  139.6980 C   0  0  0  0  0  0  0  0  0  0  0  0
  181.4120  180.0560  139.7840 O   0  0  0  0  0  0  0  0  0  0  0  0
  183.0230  178.7880  141.8390 C   0  0  0  0  0  3  0  0  0  0  0  0
  184.9460  178.5130  143.4690 C   0  0  0  0  0  2  0  0  0  0  0  0
  182.9810  179.1350  144.3580 C   0  0  0  0  0  2  0  0  0  0  0  0
  184.2620  179.6090  144.0230 O   0  0  0  0  0  0  0  0  0  0  0  0
  182.1580  178.7870  143.1060 C   0  0  0  0  0  2  0  0  0  0  0  0
  184.4220  178.1970  142.0610 C   0  0  0  0  0  2  0  0  0  0  0  0
  1  4  1  0  0  0  0
  3  1  1  0  0  0  0
  4  9  1  0  0  0  0
  5  3  1  0  0  0  0
  5  2  1  0  0  0  0
  6  3  1  0  0  0  0
  6  8  1  0  0  0  0
  7  5  2  0  0  0  0
  8  9  1  0  0  0  0
  9 10  1  6  0  0  0
 10 12  1  0  0  0  0
 11 15  1  1  0  0  0
 12 20  2  0  0  0  0
 12 19  1  0  0  0  0
 13 17  1  0  0  0  0
 14 11  1  0  0  0  0
 16 13  1  0  0  0  0
 16 18  1  0  0  0  0
 17 11  1  0  0  0  0
 18 14  1  0  0  0  0
 19 16  2  0  0  0  0
 20 21  1  0  0  0  0
 21 13  2  0  0  0  0
 22 10  1  0  0  0  0
 23 26  1  0  0  0  0
 23 24  1  0  0  0  0
 24 30  1  0  0  0  0
 24 28  1  0  0  0  0
 26 27  1  0  0  0  0
 27 25  1  0  0  0  0
 27 22  1  0  0  0  0
 28 25  1  0  0  0  0
 29 30  1  0  0  0  0
 31  2  1  0  0  0  0
 31 33  1  0  0  0  0
 33 34  1  0  0  0  0
 33 32  1  1  0  0  0
 34 36  1  0  0  0  0
 35 38  1  0  0  0  0
 36 37  2  0  0  0  0
 36 35  1  0  0  0  0
 38 43  1  0  0  0  0
 38 42  1  0  0  0  0
 39 41  1  0  0  0  0
 41 40  1  0  0  0  0
 42 40  1  0  0  0  0
 43 39  1  0  0  0  0
M  END
>  <MODEL>
9

>  <REMARK>
 VINA RESULT:      -7.3      2.651      8.030
  Name = 
  9 active torsions:
  status: ('A' for Active; 'I' for Inactive)
    1  A    between atoms: C_1  and  N_34
    2  A    between atoms: C_1  and  C_35
    3  A    between atoms: N_3  and  C_42
    4  A    between atoms: N_4  and  C_15
    5  A    between atoms: C_8  and  N_34
    6  A    between atoms: C_11  and  N_14
    7  A    between atoms: C_15  and  C_42
    8  A    between atoms: N_19  and  O_37
    9  A    between atoms: N_34  and  C_38
                            x       y       z     vdW  Elec       q    Type
                         _______ _______ _______ _____ _____    ______ ____

>  <TORSDO>
F 9

$$$$
