=
 OpenBabel10272414573D

 37 41  0  0  1  0  0  0  0  0999 V2000
  182.5790  177.8080  137.1650 C   0  0  0  0  0  2  0  0  0  0  0  0
  181.8900  173.3170  137.0750 C   0  0  0  0  0  3  0  0  0  0  0  0
  183.3250  177.2730  138.3010 N   0  0  0  0  0  0  0  0  0  0  0  0
  182.3100  174.6090  137.4080 C   0  0  0  0  0  0  0  0  0  0  0  0
  181.2200  175.6110  137.6340 C   0  0  0  0  0  2  0  0  0  0  0  0
  183.6990  174.8710  137.5950 C   0  0  0  0  0  0  0  0  0  0  0  0
  184.1660  172.5250  137.1160 C   0  0  0  0  0  3  0  0  0  0  0  0
  180.1520  177.6030  136.4880 C   0  0  0  0  0  2  0  0  0  0  0  0
  181.4320  176.8800  136.8280 C   0  0  0  0  0  0  0  0  0  0  0  0
  184.6030  173.8070  137.4520 C   0  0  0  0  0  3  0  0  0  0  0  0
  180.9400  176.8860  135.3990 C   0  0  0  0  0  2  0  0  0  0  0  0
  184.3070  176.2250  137.9310 C   0  0  1  0  0  3  0  0  0  0  0  0
  182.8040  172.2760  136.9190 C   0  0  0  0  0  0  0  0  0  0  0  0
  182.3330  171.0050  136.5760 O   0  0  0  0  0  0  0  0  0  0  0  0
  183.1230  170.0550  135.8750 C   0  0  0  0  0  1  0  0  0  0  0  0
  183.8150  178.3460  139.1830 C   0  0  1  0  0  3  0  0  0  0  0  0
  184.0560  180.7140  138.9440 O   0  0  0  0  0  1  0  0  0  0  0  0
  183.1240  179.6760  138.9000 C   0  0  0  0  0  2  0  0  0  0  0  0
  183.7650  177.9860  140.6640 C   0  0  0  0  0  2  0  0  0  0  0  0
  185.0310  178.4390  141.3780 C   0  0  0  0  0  2  0  0  0  0  0  0
  183.6910  178.8880  143.3480 C   0  0  0  0  0  3  0  0  0  0  0  0
  184.8760  178.4960  142.8680 C   0  0  0  0  0  0  0  0  0  0  0  0
  186.0200  178.1220  143.7910 C   0  0  0  0  0  2  0  0  0  0  0  0
  186.8120  177.8530  146.3680 S   0  0  0  0  0  0  0  0  0  0  0  0
  184.3520  178.6730  145.6900 C   0  0  0  0  0  3  0  0  0  0  0  0
  185.6820  178.2300  145.2520 C   0  0  0  0  0  0  0  0  0  0  0  0
  183.4190  178.9820  144.7920 C   0  0  0  0  0  3  0  0  0  0  0  0
  185.4560  176.6080  136.9620 C   0  0  1  0  0  3  0  0  0  0  0  0
  185.1920  176.5260  135.4880 C   0  0  0  0  0  0  0  0  0  0  0  0
  184.5200  177.3780  134.9250 O   0  0  0  0  0  0  0  0  0  0  0  0
  185.8160  175.4280  134.6970 C   0  0  0  0  0  2  0  0  0  0  0  0
  187.1770  175.3470  134.9870 O   0  0  0  0  0  1  0  0  0  0  0  0
  186.2990  177.8080  137.3750 C   0  0  0  0  0  2  0  0  0  0  0  0
  187.6620  177.3710  137.8880 C   0  0  0  0  0  2  0  0  0  0  0  0
  189.3710  178.4560  139.2260 C   0  0  0  0  0  2  0  0  0  0  0  0
  187.9750  178.0400  139.2130 C   0  0  2  0  0  3  0  0  0  0  0  0
  188.9700  177.2330  139.9330 N   0  0  0  0  0  2  0  0  0  0  0  0
  1  3  1  0  0  0  0
  2  4  1  0  0  0  0
  3 16  1  0  0  0  0
  4  6  2  0  0  0  0
  4  5  1  0  0  0  0
  6 12  1  0  0  0  0
  7 10  2  0  0  0  0
  8  9  1  0  0  0  0
  9  1  1  0  0  0  0
  9  5  1  0  0  0  0
 10  6  1  0  0  0  0
 11  8  1  0  0  0  0
 11  9  1  0  0  0  0
 12 28  1  6  0  0  0
 12  3  1  0  0  0  0
 13  2  2  0  0  0  0
 13  7  1  0  0  0  0
 14 13  1  0  0  0  0
 15 14  1  0  0  0  0
 16 18  1  1  0  0  0
 16 19  1  0  0  0  0
 18 17  1  0  0  0  0
 19 20  1  0  0  0  0
 20 22  1  0  0  0  0
 21 27  1  0  0  0  0
 22 21  2  0  0  0  0
 22 23  1  0  0  0  0
 23 26  1  0  0  0  0
 26 25  1  0  0  0  0
 26 24  2  0  0  0  0
 27 25  2  0  0  0  0
 28 33  1  1  0  0  0
 29 28  1  0  0  0  0
 30 29  2  0  0  0  0
 31 32  1  0  0  0  0
 31 29  1  0  0  0  0
 33 34  1  0  0  0  0
 35 37  1  0  0  0  0
 36 34  1  6  0  0  0
 36 35  1  0  0  0  0
 36 37  1  0  0  0  0
M  END
>  <MODEL>
1

>  <REMARK>
 VINA RESULT:      -6.3      0.000      0.000
  Name = 
  12 active torsions:
  status: ('A' for Active; 'I' for Inactive)
    1  A    between atoms: C_1  and  C_12
    2  A    between atoms: C_1  and  C_36
    3  A    between atoms: O_3  and  C_32
    4  A    between atoms: C_6  and  C_31
    5  A    between atoms: N_10  and  C_14
    6  A    between atoms: C_14  and  C_27
    7  A    between atoms: C_14  and  C_37
    8  A    between atoms: C_17  and  C_26
    9  A    between atoms: C_17  and  C_33
   10  A    between atoms: C_29  and  C_36
   11  A    between atoms: C_31  and  C_37
   12  A    between atoms: C_33  and  C_36
                            x       y       z     vdW  Elec       q    Type
                         _______ _______ _______ _____ _____    ______ ____

>  <TORSDO>
F 12

$$$$
=
 OpenBabel10272414573D

 37 41  0  0  1  0  0  0  0  0999 V2000
  188.6880  175.2770  135.4140 C   0  0  0  0  0  2  0  0  0  0  0  0
  191.1400  176.2840  139.1060 C   0  0  0  0  0  3  0  0  0  0  0  0
  187.8660  174.8790  136.5530 N   0  0  0  0  0  0  0  0  0  0  0  0
  190.1360  175.8560  138.2310 C   0  0  0  0  0  0  0  0  0  0  0  0
  190.5490  174.8370  137.2130 C   0  0  0  0  0  2  0  0  0  0  0  0
  188.8020  176.3280  138.4060 C   0  0  0  0  0  0  0  0  0  0  0  0
  189.5540  177.6220  140.3320 C   0  0  0  0  0  3  0  0  0  0  0  0
  191.0450  174.6670  134.7340 C   0  0  0  0  0  2  0  0  0  0  0  0
  190.1500  175.2400  135.8050 C   0  0  0  0  0  0  0  0  0  0  0  0
  188.5390  177.2020  139.4720 C   0  0  0  0  0  3  0  0  0  0  0  0
  191.0870  176.1560  135.0520 C   0  0  0  0  0  2  0  0  0  0  0  0
  187.6150  175.9730  137.5220 C   0  0  1  0  0  3  0  0  0  0  0  0
  190.8640  177.1680  140.1480 C   0  0  0  0  0  0  0  0  0  0  0  0
  191.9060  177.5730  140.9880 O   0  0  0  0  0  0  0  0  0  0  0  0
  191.8110  177.5270  142.4050 C   0  0  0  0  0  1  0  0  0  0  0  0
  186.6900  174.0990  136.1280 C   0  0  1  0  0  3  0  0  0  0  0  0
  186.6390  172.2570  134.6030 O   0  0  0  0  0  1  0  0  0  0  0  0
  186.8050  173.6400  134.6780 C   0  0  0  0  0  2  0  0  0  0  0  0
  186.3560  172.9430  137.0640 C   0  0  0  0  0  2  0  0  0  0  0  0
  185.0730  173.2170  137.8350 C   0  0  0  0  0  2  0  0  0  0  0  0
  183.8500  171.4420  136.7250 C   0  0  0  0  0  3  0  0  0  0  0  0
  183.8470  172.7160  137.1320 C   0  0  0  0  0  0  0  0  0  0  0  0
  182.6530  173.6200  136.8960 C   0  0  0  0  0  2  0  0  0  0  0  0
  180.1520  173.7930  135.8670 S   0  0  0  0  0  0  0  0  0  0  0  0
  181.6030  171.5410  135.7720 C   0  0  0  0  0  3  0  0  0  0  0  0
  181.5110  172.9470  136.1860 C   0  0  0  0  0  0  0  0  0  0  0  0
  182.7040  170.8370  136.0270 C   0  0  0  0  0  3  0  0  0  0  0  0
  186.8590  177.2330  137.0240 C   0  0  1  0  0  3  0  0  0  0  0  0
  187.5150  178.0790  135.9740 C   0  0  0  0  0  0  0  0  0  0  0  0
  186.9960  178.2320  134.8790 O   0  0  0  0  0  0  0  0  0  0  0  0
  188.7810  178.7940  136.3030 C   0  0  0  0  0  2  0  0  0  0  0  0
  188.5460  179.7460  137.2940 O   0  0  0  0  0  1  0  0  0  0  0  0
  185.3550  177.0740  136.8410 C   0  0  0  0  0  2  0  0  0  0  0  0
  184.5950  177.6380  138.0310 C   0  0  0  0  0  2  0  0  0  0  0  0
  185.0420  178.8250  140.1010 C   0  0  0  0  0  2  0  0  0  0  0  0
  185.3820  178.7580  138.6850 C   0  0  2  0  0  3  0  0  0  0  0  0
  184.4450  179.7850  139.1630 N   0  0  0  0  0  2  0  0  0  0  0  0
  1  9  1  0  0  0  0
  1  3  1  0  0  0  0
  2 13  1  0  0  0  0
  3 12  1  0  0  0  0
  4  6  1  0  0  0  0
  4  2  2  0  0  0  0
  5  4  1  0  0  0  0
  6 10  2  0  0  0  0
  8 11  1  0  0  0  0
  8  9  1  0  0  0  0
  9  5  1  0  0  0  0
 10  7  1  0  0  0  0
 11  9  1  0  0  0  0
 12 28  1  6  0  0  0
 12  6  1  0  0  0  0
 13  7  2  0  0  0  0
 13 14  1  0  0  0  0
 14 15  1  0  0  0  0
 16 18  1  6  0  0  0
 16  3  1  0  0  0  0
 16 19  1  0  0  0  0
 17 18  1  0  0  0  0
 19 20  1  0  0  0  0
 21 22  2  0  0  0  0
 22 20  1  0  0  0  0
 23 22  1  0  0  0  0
 24 26  2  0  0  0  0
 25 27  2  0  0  0  0
 25 26  1  0  0  0  0
 26 23  1  0  0  0  0
 27 21  1  0  0  0  0
 28 33  1  6  0  0  0
 29 31  1  0  0  0  0
 29 28  1  0  0  0  0
 30 29  2  0  0  0  0
 31 32  1  0  0  0  0
 33 34  1  0  0  0  0
 36 34  1  6  0  0  0
 36 37  1  0  0  0  0
 36 35  1  0  0  0  0
 37 35  1  0  0  0  0
M  END
>  <MODEL>
2

>  <REMARK>
 VINA RESULT:      -6.0      3.586      8.165
  Name = 
  12 active torsions:
  status: ('A' for Active; 'I' for Inactive)
    1  A    between atoms: C_1  and  C_12
    2  A    between atoms: C_1  and  C_36
    3  A    between atoms: O_3  and  C_32
    4  A    between atoms: C_6  and  C_31
    5  A    between atoms: N_10  and  C_14
    6  A    between atoms: C_14  and  C_27
    7  A    between atoms: C_14  and  C_37
    8  A    between atoms: C_17  and  C_26
    9  A    between atoms: C_17  and  C_33
   10  A    between atoms: C_29  and  C_36
   11  A    between atoms: C_31  and  C_37
   12  A    between atoms: C_33  and  C_36
                            x       y       z     vdW  Elec       q    Type
                         _______ _______ _______ _____ _____    ______ ____

>  <TORSDO>
F 12

$$$$
=
 OpenBabel10272414573D

 37 41  0  0  1  0  0  0  0  0999 V2000
  182.9470  177.7730  137.3900 C   0  0  0  0  0  2  0  0  0  0  0  0
  183.6620  173.3350  136.7210 C   0  0  0  0  0  3  0  0  0  0  0  0
  183.9640  177.3870  138.3640 N   0  0  0  0  0  0  0  0  0  0  0  0
  183.7060  174.6500  137.1960 C   0  0  0  0  0  0  0  0  0  0  0  0
  182.4010  175.2200  137.6620 C   0  0  0  0  0  2  0  0  0  0  0  0
  184.9600  175.3230  137.2900 C   0  0  0  0  0  0  0  0  0  0  0  0
  186.0560  173.3150  136.4410 C   0  0  0  0  0  3  0  0  0  0  0  0
  180.6320  176.8740  136.9140 C   0  0  0  0  0  2  0  0  0  0  0  0
  182.1050  176.5670  137.0290 C   0  0  0  0  0  0  0  0  0  0  0  0
  186.1190  174.6260  136.9150 C   0  0  0  0  0  3  0  0  0  0  0  0
  181.4510  176.5680  135.6670 C   0  0  0  0  0  2  0  0  0  0  0  0
  185.1620  176.7560  137.7610 C   0  0  1  0  0  3  0  0  0  0  0  0
  184.8220  172.6650  136.3350 C   0  0  0  0  0  0  0  0  0  0  0  0
  184.7220  171.3550  135.8590 O   0  0  0  0  0  0  0  0  0  0  0  0
  185.6170  170.8160  134.8960 C   0  0  0  0  0  1  0  0  0  0  0  0
  184.2130  178.4600  139.3430 C   0  0  1  0  0  3  0  0  0  0  0  0
  184.1300  180.7980  138.8430 O   0  0  0  0  0  1  0  0  0  0  0  0
  183.3320  179.6790  139.0880 C   0  0  0  0  0  2  0  0  0  0  0  0
  184.1290  177.9940  140.7920 C   0  0  0  0  0  2  0  0  0  0  0  0
  184.5140  179.1130  141.7480 C   0  0  0  0  0  2  0  0  0  0  0  0
  184.7170  178.7980  144.1430 C   0  0  0  0  0  3  0  0  0  0  0  0
  185.2800  178.6290  142.9420 C   0  0  0  0  0  0  0  0  0  0  0  0
  186.6390  177.9720  142.7890 C   0  0  0  0  0  2  0  0  0  0  0  0
  188.7170  176.8130  144.0840 S   0  0  0  0  0  0  0  0  0  0  0  0
  186.5660  177.7710  145.3660 C   0  0  0  0  0  3  0  0  0  0  0  0
  187.2560  177.5420  144.0900 C   0  0  0  0  0  0  0  0  0  0  0  0
  185.3730  178.3620  145.3870 C   0  0  0  0  0  3  0  0  0  0  0  0
  186.0000  177.5880  136.7550 C   0  0  1  0  0  3  0  0  0  0  0  0
  187.1860  178.3420  137.2790 C   0  0  0  0  0  0  0  0  0  0  0  0
  187.4910  179.4290  136.8130 O   0  0  0  0  0  0  0  0  0  0  0  0
  187.9540  177.7820  138.4270 C   0  0  0  0  0  2  0  0  0  0  0  0
  188.6220  178.8070  139.0970 O   0  0  0  0  0  1  0  0  0  0  0  0
  186.2260  176.9470  135.3910 C   0  0  0  0  0  2  0  0  0  0  0  0
  187.5480  177.3940  134.7870 C   0  0  0  0  0  2  0  0  0  0  0  0
  189.2760  175.8440  135.4980 C   0  0  0  0  0  2  0  0  0  0  0  0
  188.3890  176.1950  134.3950 C   0  0  2  0  0  3  0  0  0  0  0  0
  189.8030  176.5950  134.3510 N   0  0  0  0  0  2  0  0  0  0  0  0
  1  3  1  0  0  0  0
  2  4  1  0  0  0  0
  3 16  1  0  0  0  0
  4  6  2  0  0  0  0
  4  5  1  0  0  0  0
  6 12  1  0  0  0  0
  7 10  2  0  0  0  0
  8  9  1  0  0  0  0
  9  1  1  0  0  0  0
  9  5  1  0  0  0  0
 10  6  1  0  0  0  0
 11  8  1  0  0  0  0
 11  9  1  0  0  0  0
 12 28  1  6  0  0  0
 12  3  1  0  0  0  0
 13  7  1  0  0  0  0
 13  2  2  0  0  0  0
 14 13  1  0  0  0  0
 15 14  1  0  0  0  0
 16 18  1  1  0  0  0
 16 19  1  0  0  0  0
 17 18  1  0  0  0  0
 19 20  1  0  0  0  0
 20 22  1  0  0  0  0
 21 27  1  0  0  0  0
 22 21  2  0  0  0  0
 23 22  1  0  0  0  0
 23 26  1  0  0  0  0
 24 26  2  0  0  0  0
 25 27  2  0  0  0  0
 26 25  1  0  0  0  0
 28 33  1  6  0  0  0
 28 29  1  0  0  0  0
 29 31  1  0  0  0  0
 30 29  2  0  0  0  0
 31 32  1  0  0  0  0
 34 33  1  0  0  0  0
 36 34  1  1  0  0  0
 36 35  1  0  0  0  0
 37 36  1  0  0  0  0
 37 35  1  0  0  0  0
M  END
>  <MODEL>
3

>  <REMARK>
 VINA RESULT:      -6.0      1.995      2.576
  Name = 
  12 active torsions:
  status: ('A' for Active; 'I' for Inactive)
    1  A    between atoms: C_1  and  C_12
    2  A    between atoms: C_1  and  C_36
    3  A    between atoms: O_3  and  C_32
    4  A    between atoms: C_6  and  C_31
    5  A    between atoms: N_10  and  C_14
    6  A    between atoms: C_14  and  C_27
    7  A    between atoms: C_14  and  C_37
    8  A    between atoms: C_17  and  C_26
    9  A    between atoms: C_17  and  C_33
   10  A    between atoms: C_29  and  C_36
   11  A    between atoms: C_31  and  C_37
   12  A    between atoms: C_33  and  C_36
                            x       y       z     vdW  Elec       q    Type
                         _______ _______ _______ _____ _____    ______ ____

>  <TORSDO>
F 12

$$$$
=
 OpenBabel10272414573D

 37 41  0  0  1  0  0  0  0  0999 V2000
  188.6820  177.9780  137.6190 C   0  0  0  0  0  2  0  0  0  0  0  0
  187.1120  173.9700  136.1610 C   0  0  0  0  0  3  0  0  0  0  0  0
  189.1010  177.0020  138.6220 N   0  0  0  0  0  0  0  0  0  0  0  0
  187.7260  174.9900  136.8960 C   0  0  0  0  0  0  0  0  0  0  0  0
  186.8430  176.1350  137.2880 C   0  0  0  0  0  2  0  0  0  0  0  0
  189.0880  174.8480  137.2940 C   0  0  0  0  0  0  0  0  0  0  0  0
  189.1370  172.6640  136.2070 C   0  0  0  0  0  3  0  0  0  0  0  0
  186.4140  178.5520  136.6640 C   0  0  0  0  0  2  0  0  0  0  0  0
  187.4420  177.4760  136.9100 C   0  0  0  0  0  0  0  0  0  0  0  0
  189.7640  173.6690  136.9430 C   0  0  0  0  0  3  0  0  0  0  0  0
  187.2090  177.9710  135.5020 C   0  0  0  0  0  2  0  0  0  0  0  0
  189.8950  175.8790  138.0690 C   0  0  1  0  0  3  0  0  0  0  0  0
  187.8050  172.8140  135.8060 C   0  0  0  0  0  0  0  0  0  0  0  0
  187.1470  171.8300  135.0630 O   0  0  0  0  0  0  0  0  0  0  0  0
  185.7330  171.6950  135.0490 C   0  0  0  0  0  1  0  0  0  0  0  0
  189.6460  177.6580  139.8240 C   0  0  1  0  0  3  0  0  0  0  0  0
  187.3910  178.2090  140.4030 O   0  0  0  0  0  1  0  0  0  0  0  0
  188.6930  178.7120  140.3790 C   0  0  0  0  0  2  0  0  0  0  0  0
  190.0970  176.6780  140.9010 C   0  0  0  0  0  2  0  0  0  0  0  0
  191.0980  177.3280  141.8450 C   0  0  0  0  0  2  0  0  0  0  0  0
  189.4400  177.7130  143.5710 C   0  0  0  0  0  3  0  0  0  0  0  0
  190.6700  177.2760  143.2810 C   0  0  0  0  0  0  0  0  0  0  0  0
  191.5980  176.7480  144.3580 C   0  0  0  0  0  2  0  0  0  0  0  0
  191.8780  176.2160  147.0000 S   0  0  0  0  0  0  0  0  0  0  0  0
  189.6380  177.2620  145.9640 C   0  0  0  0  0  3  0  0  0  0  0  0
  190.9990  176.7610  145.7370 C   0  0  0  0  0  0  0  0  0  0  0  0
  188.9080  177.7090  144.9450 C   0  0  0  0  0  3  0  0  0  0  0  0
  191.2440  176.2060  137.3770 C   0  0  1  0  0  3  0  0  0  0  0  0
  192.5110  175.8590  138.1000 C   0  0  0  0  0  0  0  0  0  0  0  0
  192.9310  174.7120  138.1090 O   0  0  0  0  0  0  0  0  0  0  0  0
  193.2950  176.9450  138.7550 C   0  0  0  0  0  2  0  0  0  0  0  0
  194.2500  176.3930  139.6080 O   0  0  0  0  0  1  0  0  0  0  0  0
  191.2970  175.9510  135.8750 C   0  0  0  0  0  2  0  0  0  0  0  0
  192.7100  176.1180  135.3400 C   0  0  0  0  0  2  0  0  0  0  0  0
  192.9910  173.7290  135.0180 C   0  0  0  0  0  2  0  0  0  0  0  0
  193.0390  175.0210  134.3460 C   0  0  2  0  0  3  0  0  0  0  0  0
  194.2890  174.3640  134.7540 N   0  0  0  0  0  2  0  0  0  0  0  0
  1  3  1  0  0  0  0
  2  4  1  0  0  0  0
  3 16  1  0  0  0  0
  4  5  1  0  0  0  0
  4  6  2  0  0  0  0
  6 12  1  0  0  0  0
  7 10  2  0  0  0  0
  8  9  1  0  0  0  0
  9  5  1  0  0  0  0
  9  1  1  0  0  0  0
 10  6  1  0  0  0  0
 11  8  1  0  0  0  0
 11  9  1  0  0  0  0
 12 28  1  6  0  0  0
 12  3  1  0  0  0  0
 13  2  2  0  0  0  0
 13  7  1  0  0  0  0
 14 13  1  0  0  0  0
 15 14  1  0  0  0  0
 16 18  1  1  0  0  0
 16 19  1  0  0  0  0
 18 17  1  0  0  0  0
 19 20  1  0  0  0  0
 20 22  1  0  0  0  0
 21 27  1  0  0  0  0
 22 21  2  0  0  0  0
 22 23  1  0  0  0  0
 23 26  1  0  0  0  0
 26 25  1  0  0  0  0
 26 24  2  0  0  0  0
 27 25  2  0  0  0  0
 28 33  1  6  0  0  0
 28 29  1  0  0  0  0
 29 30  2  0  0  0  0
 29 31  1  0  0  0  0
 31 32  1  0  0  0  0
 34 33  1  0  0  0  0
 36 37  1  0  0  0  0
 36 35  1  0  0  0  0
 36 34  1  1  0  0  0
 37 35  1  0  0  0  0
M  END
>  <MODEL>
4

>  <REMARK>
 VINA RESULT:      -5.7      4.281      6.187
  Name = 
  12 active torsions:
  status: ('A' for Active; 'I' for Inactive)
    1  A    between atoms: C_1  and  C_12
    2  A    between atoms: C_1  and  C_36
    3  A    between atoms: O_3  and  C_32
    4  A    between atoms: C_6  and  C_31
    5  A    between atoms: N_10  and  C_14
    6  A    between atoms: C_14  and  C_27
    7  A    between atoms: C_14  and  C_37
    8  A    between atoms: C_17  and  C_26
    9  A    between atoms: C_17  and  C_33
   10  A    between atoms: C_29  and  C_36
   11  A    between atoms: C_31  and  C_37
   12  A    between atoms: C_33  and  C_36
                            x       y       z     vdW  Elec       q    Type
                         _______ _______ _______ _____ _____    ______ ____

>  <TORSDO>
F 12

$$$$
=
 OpenBabel10272414573D

 37 41  0  0  1  0  0  0  0  0999 V2000
  190.6280  177.2900  137.4620 C   0  0  0  0  0  2  0  0  0  0  0  0
  187.3980  174.3590  136.1830 C   0  0  0  0  0  3  0  0  0  0  0  0
  190.7710  176.1360  138.3460 N   0  0  0  0  0  0  0  0  0  0  0  0
  188.4690  174.9870  136.8290 C   0  0  0  0  0  0  0  0  0  0  0  0
  188.1820  176.3400  137.4050 C   0  0  0  0  0  2  0  0  0  0  0  0
  189.7060  174.2930  136.9760 C   0  0  0  0  0  0  0  0  0  0  0  0
  188.7220  172.3760  135.8330 C   0  0  0  0  0  3  0  0  0  0  0  0
  188.6580  178.7840  136.9380 C   0  0  0  0  0  2  0  0  0  0  0  0
  189.2000  177.3770  136.9680 C   0  0  0  0  0  0  0  0  0  0  0  0
  189.7990  172.9850  136.4780 C   0  0  0  0  0  3  0  0  0  0  0  0
  188.9730  178.0570  135.6370 C   0  0  0  0  0  2  0  0  0  0  0  0
  190.9620  174.8530  137.6290 C   0  0  1  0  0  3  0  0  0  0  0  0
  187.5150  173.0660  135.6770 C   0  0  0  0  0  0  0  0  0  0  0  0
  186.4180  172.4880  135.0320 O   0  0  0  0  0  0  0  0  0  0  0  0
  185.1010  173.0130  135.1370 C   0  0  0  0  0  1  0  0  0  0  0  0
  191.7050  176.4110  139.4520 C   0  0  1  0  0  3  0  0  0  0  0  0
  193.8570  177.2800  140.0330 O   0  0  0  0  0  1  0  0  0  0  0  0
  193.0340  176.9670  138.9510 C   0  0  0  0  0  2  0  0  0  0  0  0
  191.1060  177.2820  140.5510 C   0  0  0  0  0  2  0  0  0  0  0  0
  189.7400  176.7610  140.9760 C   0  0  0  0  0  2  0  0  0  0  0  0
  188.2170  177.1830  142.8130 C   0  0  0  0  0  3  0  0  0  0  0  0
  189.4760  176.9310  142.4420 C   0  0  0  0  0  0  0  0  0  0  0  0
  190.5950  176.8200  143.4590 C   0  0  0  0  0  2  0  0  0  0  0  0
  191.2390  176.9120  146.0890 S   0  0  0  0  0  0  0  0  0  0  0  0
  188.7390  177.2860  145.1980 C   0  0  0  0  0  3  0  0  0  0  0  0
  190.1450  177.0100  144.8810 C   0  0  0  0  0  0  0  0  0  0  0  0
  187.8350  177.3670  144.2240 C   0  0  0  0  0  3  0  0  0  0  0  0
  192.2100  174.7000  136.7200 C   0  0  1  0  0  3  0  0  0  0  0  0
  193.1780  173.5970  137.0300 C   0  0  0  0  0  0  0  0  0  0  0  0
  193.9540  173.6910  137.9680 O   0  0  0  0  0  0  0  0  0  0  0  0
  193.1380  172.3470  136.2190 C   0  0  0  0  0  2  0  0  0  0  0  0
  194.3580  172.1610  135.5710 O   0  0  0  0  0  1  0  0  0  0  0  0
  191.9750  174.9200  135.2300 C   0  0  0  0  0  2  0  0  0  0  0  0
  193.2210  175.4690  134.5540 C   0  0  0  0  0  2  0  0  0  0  0  0
  194.9800  177.1370  134.6850 C   0  0  0  0  0  2  0  0  0  0  0  0
  193.8700  176.5360  135.4140 C   0  0  2  0  0  3  0  0  0  0  0  0
  195.2490  176.1310  135.7210 N   0  0  0  0  0  2  0  0  0  0  0  0
  1  3  1  0  0  0  0
  2  4  1  0  0  0  0
  3 16  1  0  0  0  0
  4  6  2  0  0  0  0
  4  5  1  0  0  0  0
  6 12  1  0  0  0  0
  7 10  2  0  0  0  0
  8  9  1  0  0  0  0
  9  5  1  0  0  0  0
  9  1  1  0  0  0  0
 10  6  1  0  0  0  0
 11  8  1  0  0  0  0
 11  9  1  0  0  0  0
 12 28  1  6  0  0  0
 12  3  1  0  0  0  0
 13  7  1  0  0  0  0
 13  2  2  0  0  0  0
 14 15  1  0  0  0  0
 14 13  1  0  0  0  0
 16 18  1  6  0  0  0
 16 19  1  0  0  0  0
 18 17  1  0  0  0  0
 19 20  1  0  0  0  0
 20 22  1  0  0  0  0
 21 27  1  0  0  0  0
 22 21  2  0  0  0  0
 22 23  1  0  0  0  0
 23 26  1  0  0  0  0
 26 25  1  0  0  0  0
 26 24  2  0  0  0  0
 27 25  2  0  0  0  0
 28 33  1  6  0  0  0
 28 29  1  0  0  0  0
 29 30  2  0  0  0  0
 31 29  1  0  0  0  0
 32 31  1  0  0  0  0
 34 33  1  0  0  0  0
 35 36  1  0  0  0  0
 35 37  1  0  0  0  0
 36 34  1  6  0  0  0
 36 37  1  0  0  0  0
M  END
>  <MODEL>
5

>  <REMARK>
 VINA RESULT:      -5.7      4.723      6.915
  Name = 
  12 active torsions:
  status: ('A' for Active; 'I' for Inactive)
    1  A    between atoms: C_1  and  C_12
    2  A    between atoms: C_1  and  C_36
    3  A    between atoms: O_3  and  C_32
    4  A    between atoms: C_6  and  C_31
    5  A    between atoms: N_10  and  C_14
    6  A    between atoms: C_14  and  C_27
    7  A    between atoms: C_14  and  C_37
    8  A    between atoms: C_17  and  C_26
    9  A    between atoms: C_17  and  C_33
   10  A    between atoms: C_29  and  C_36
   11  A    between atoms: C_31  and  C_37
   12  A    between atoms: C_33  and  C_36
                            x       y       z     vdW  Elec       q    Type
                         _______ _______ _______ _____ _____    ______ ____

>  <TORSDO>
F 12

$$$$
=
 OpenBabel10272414573D

 37 41  0  0  1  0  0  0  0  0999 V2000
  182.4760  179.3680  141.4400 C   0  0  0  0  0  2  0  0  0  0  0  0
  180.5550  175.6060  139.7630 C   0  0  0  0  0  3  0  0  0  0  0  0
  183.4990  178.3290  141.5310 N   0  0  0  0  0  0  0  0  0  0  0  0
  181.4430  176.5300  140.3240 C   0  0  0  0  0  0  0  0  0  0  0  0
  180.9670  177.2230  141.5640 C   0  0  0  0  0  2  0  0  0  0  0  0
  182.7410  176.6920  139.7560 C   0  0  0  0  0  0  0  0  0  0  0  0
  182.1890  174.9810  138.1060 C   0  0  0  0  0  3  0  0  0  0  0  0
  180.1050  179.4870  142.3080 C   0  0  0  0  0  2  0  0  0  0  0  0
  181.1030  178.7310  141.4650 C   0  0  0  0  0  0  0  0  0  0  0  0
  183.0890  175.8960  138.6540 C   0  0  0  0  0  3  0  0  0  0  0  0
  179.9830  179.4880  140.7890 C   0  0  0  0  0  2  0  0  0  0  0  0
  183.8020  177.6710  140.2370 C   0  0  1  0  0  3  0  0  0  0  0  0
  180.9120  174.8370  138.6560 C   0  0  0  0  0  0  0  0  0  0  0  0
  179.9830  173.9350  138.1290 O   0  0  0  0  0  0  0  0  0  0  0  0
  180.2050  172.5310  138.1050 C   0  0  0  0  0  1  0  0  0  0  0  0
  184.6580  178.7760  142.3240 C   0  0  1  0  0  3  0  0  0  0  0  0
  183.1890  178.6450  144.2080 O   0  0  0  0  0  1  0  0  0  0  0  0
  184.2350  179.3860  143.6560 C   0  0  0  0  0  2  0  0  0  0  0  0
  185.7220  177.7000  142.5060 C   0  0  0  0  0  2  0  0  0  0  0  0
  186.5230  177.9340  143.7790 C   0  0  0  0  0  2  0  0  0  0  0  0
  188.4820  177.6570  142.3790 C   0  0  0  0  0  3  0  0  0  0  0  0
  187.9820  177.6320  143.6190 C   0  0  0  0  0  0  0  0  0  0  0  0
  188.8540  177.3110  144.8180 C   0  0  0  0  0  2  0  0  0  0  0  0
  191.3520  176.6900  145.6600 S   0  0  0  0  0  0  0  0  0  0  0  0
  190.7540  177.0910  143.0790 C   0  0  0  0  0  3  0  0  0  0  0  0
  190.2910  177.0430  144.4710 C   0  0  0  0  0  0  0  0  0  0  0  0
  189.9010  177.3790  142.0980 C   0  0  0  0  0  3  0  0  0  0  0  0
  184.3550  178.5470  139.0830 C   0  0  1  0  0  3  0  0  0  0  0  0
  183.5740  179.7630  138.6830 C   0  0  0  0  0  0  0  0  0  0  0  0
  184.0170  180.8840  138.8820 O   0  0  0  0  0  0  0  0  0  0  0  0
  182.2740  179.5920  137.9730 C   0  0  0  0  0  2  0  0  0  0  0  0
  181.6470  180.8280  137.8250 O   0  0  0  0  0  1  0  0  0  0  0  0
  185.8660  178.7480  139.0690 C   0  0  0  0  0  2  0  0  0  0  0  0
  186.5530  177.6860  138.2270 C   0  0  0  0  0  2  0  0  0  0  0  0
  188.8570  178.1760  137.6400 C   0  0  0  0  0  2  0  0  0  0  0  0
  188.0060  177.5360  138.6360 C   0  0  2  0  0  3  0  0  0  0  0  0
  188.7030  176.7150  137.6350 N   0  0  0  0  0  2  0  0  0  0  0  0
  1  9  1  0  0  0  0
  1  3  1  0  0  0  0
  2  4  1  0  0  0  0
  3 16  1  0  0  0  0
  4  5  1  0  0  0  0
  6 12  1  0  0  0  0
  6  4  2  0  0  0  0
  7 10  2  0  0  0  0
  7 13  1  0  0  0  0
  9  5  1  0  0  0  0
  9  8  1  0  0  0  0
 10  6  1  0  0  0  0
 11  9  1  0  0  0  0
 11  8  1  0  0  0  0
 12 28  1  6  0  0  0
 12  3  1  0  0  0  0
 13  2  2  0  0  0  0
 14 13  1  0  0  0  0
 15 14  1  0  0  0  0
 16 19  1  1  0  0  0
 16 18  1  0  0  0  0
 18 17  1  0  0  0  0
 19 20  1  0  0  0  0
 21 22  2  0  0  0  0
 22 20  1  0  0  0  0
 22 23  1  0  0  0  0
 25 26  1  0  0  0  0
 26 23  1  0  0  0  0
 26 24  2  0  0  0  0
 27 21  1  0  0  0  0
 27 25  2  0  0  0  0
 28 33  1  1  0  0  0
 29 30  2  0  0  0  0
 29 28  1  0  0  0  0
 31 29  1  0  0  0  0
 32 31  1  0  0  0  0
 34 33  1  0  0  0  0
 35 36  1  0  0  0  0
 36 34  1  6  0  0  0
 37 35  1  0  0  0  0
 37 36  1  0  0  0  0
M  END
>  <MODEL>
6

>  <REMARK>
 VINA RESULT:      -5.5      2.757      4.422
  Name = 
  12 active torsions:
  status: ('A' for Active; 'I' for Inactive)
    1  A    between atoms: C_1  and  C_12
    2  A    between atoms: C_1  and  C_36
    3  A    between atoms: O_3  and  C_32
    4  A    between atoms: C_6  and  C_31
    5  A    between atoms: N_10  and  C_14
    6  A    between atoms: C_14  and  C_27
    7  A    between atoms: C_14  and  C_37
    8  A    between atoms: C_17  and  C_26
    9  A    between atoms: C_17  and  C_33
   10  A    between atoms: C_29  and  C_36
   11  A    between atoms: C_31  and  C_37
   12  A    between atoms: C_33  and  C_36
                            x       y       z     vdW  Elec       q    Type
                         _______ _______ _______ _____ _____    ______ ____

>  <TORSDO>
F 12

$$$$
=
 OpenBabel10272414573D

 37 41  0  0  1  0  0  0  0  0999 V2000
  190.4860  177.5600  137.9130 C   0  0  0  0  0  2  0  0  0  0  0  0
  187.3050  174.6800  136.4130 C   0  0  0  0  0  3  0  0  0  0  0  0
  190.5570  176.3990  138.7970 N   0  0  0  0  0  0  0  0  0  0  0  0
  188.3410  175.2900  137.1290 C   0  0  0  0  0  0  0  0  0  0  0  0
  188.0350  176.6430  137.6940 C   0  0  0  0  0  2  0  0  0  0  0  0
  189.5570  174.5780  137.3500 C   0  0  0  0  0  0  0  0  0  0  0  0
  188.6220  172.6810  136.1350 C   0  0  0  0  0  3  0  0  0  0  0  0
  188.5730  179.0840  137.2740 C   0  0  0  0  0  2  0  0  0  0  0  0
  189.0930  177.6680  137.3290 C   0  0  0  0  0  0  0  0  0  0  0  0
  189.6640  173.2720  136.8500 C   0  0  0  0  0  3  0  0  0  0  0  0
  188.9600  178.3590  135.9920 C   0  0  0  0  0  2  0  0  0  0  0  0
  190.7760  175.1170  138.0850 C   0  0  1  0  0  3  0  0  0  0  0  0
  187.4370  173.3880  135.9060 C   0  0  0  0  0  0  0  0  0  0  0  0
  186.3750  172.8290  135.1900 O   0  0  0  0  0  0  0  0  0  0  0  0
  185.6230  171.7220  135.6680 C   0  0  0  0  0  1  0  0  0  0  0  0
  191.4210  176.6550  139.9620 C   0  0  1  0  0  3  0  0  0  0  0  0
  193.7900  176.9430  140.1400 O   0  0  0  0  0  1  0  0  0  0  0  0
  192.6350  177.5040  139.5940 C   0  0  0  0  0  2  0  0  0  0  0  0
  190.6730  177.2260  141.1610 C   0  0  0  0  0  2  0  0  0  0  0  0
  190.4970  176.1730  142.2460 C   0  0  0  0  0  2  0  0  0  0  0  0
  188.2410  176.6740  142.9770 C   0  0  0  0  0  3  0  0  0  0  0  0
  189.5320  176.5880  143.3150 C   0  0  0  0  0  0  0  0  0  0  0  0
  190.0040  176.8950  144.7230 C   0  0  0  0  0  2  0  0  0  0  0  0
  189.2530  177.6380  147.2180 S   0  0  0  0  0  0  0  0  0  0  0  0
  187.5060  177.3560  145.2050 C   0  0  0  0  0  3  0  0  0  0  0  0
  188.8990  177.2850  145.6640 C   0  0  0  0  0  0  0  0  0  0  0  0
  187.2000  177.0690  143.9420 C   0  0  0  0  0  3  0  0  0  0  0  0
  192.0770  174.9530  137.2560 C   0  0  1  0  0  3  0  0  0  0  0  0
  192.4390  176.0390  136.2880 C   0  0  0  0  0  0  0  0  0  0  0  0
  193.3280  176.8360  136.5460 O   0  0  0  0  0  0  0  0  0  0  0  0
  191.7460  176.0980  134.9690 C   0  0  0  0  0  2  0  0  0  0  0  0
  191.6030  174.8120  134.4490 O   0  0  0  0  0  1  0  0  0  0  0  0
  193.2690  174.3660  138.0040 C   0  0  0  0  0  2  0  0  0  0  0  0
  194.1670  173.5740  137.0690 C   0  0  0  0  0  2  0  0  0  0  0  0
  194.4280  171.4440  135.9330 C   0  0  0  0  0  2  0  0  0  0  0  0
  193.4620  172.3240  136.5810 C   0  0  2  0  0  3  0  0  0  0  0  0
  193.5350  172.2740  135.1130 N   0  0  0  0  0  2  0  0  0  0  0  0
  1  3  1  0  0  0  0
  2  4  1  0  0  0  0
  3 16  1  0  0  0  0
  4  6  2  0  0  0  0
  4  5  1  0  0  0  0
  6 12  1  0  0  0  0
  7 10  2  0  0  0  0
  8  9  1  0  0  0  0
  9  5  1  0  0  0  0
  9  1  1  0  0  0  0
 10  6  1  0  0  0  0
 11  8  1  0  0  0  0
 11  9  1  0  0  0  0
 12 28  1  6  0  0  0
 12  3  1  0  0  0  0
 13  7  1  0  0  0  0
 13  2  2  0  0  0  0
 14 15  1  0  0  0  0
 14 13  1  0  0  0  0
 16 18  1  6  0  0  0
 16 19  1  0  0  0  0
 18 17  1  0  0  0  0
 19 20  1  0  0  0  0
 20 22  1  0  0  0  0
 21 22  2  0  0  0  0
 21 27  1  0  0  0  0
 22 23  1  0  0  0  0
 23 26  1  0  0  0  0
 25 26  1  0  0  0  0
 26 24  2  0  0  0  0
 27 25  2  0  0  0  0
 28 33  1  1  0  0  0
 29 30  2  0  0  0  0
 29 28  1  0  0  0  0
 31 29  1  0  0  0  0
 32 31  1  0  0  0  0
 34 33  1  0  0  0  0
 35 36  1  0  0  0  0
 36 34  1  1  0  0  0
 37 35  1  0  0  0  0
 37 36  1  0  0  0  0
M  END
>  <MODEL>
7

>  <REMARK>
 VINA RESULT:      -5.5      4.458      6.699
  Name = 
  12 active torsions:
  status: ('A' for Active; 'I' for Inactive)
    1  A    between atoms: C_1  and  C_12
    2  A    between atoms: C_1  and  C_36
    3  A    between atoms: O_3  and  C_32
    4  A    between atoms: C_6  and  C_31
    5  A    between atoms: N_10  and  C_14
    6  A    between atoms: C_14  and  C_27
    7  A    between atoms: C_14  and  C_37
    8  A    between atoms: C_17  and  C_26
    9  A    between atoms: C_17  and  C_33
   10  A    between atoms: C_29  and  C_36
   11  A    between atoms: C_31  and  C_37
   12  A    between atoms: C_33  and  C_36
                            x       y       z     vdW  Elec       q    Type
                         _______ _______ _______ _____ _____    ______ ____

>  <TORSDO>
F 12

$$$$
=
 OpenBabel10272414573D

 37 41  0  0  1  0  0  0  0  0999 V2000
  188.4940  177.2920  136.4840 C   0  0  0  0  0  2  0  0  0  0  0  0
  186.1760  173.4160  135.9770 C   0  0  0  0  0  3  0  0  0  0  0  0
  188.6970  176.5470  137.7240 N   0  0  0  0  0  0  0  0  0  0  0  0
  186.9720  174.4550  136.4710 C   0  0  0  0  0  0  0  0  0  0  0  0
  186.3290  175.8080  136.5080 C   0  0  0  0  0  2  0  0  0  0  0  0
  188.2730  174.1660  136.9780 C   0  0  0  0  0  0  0  0  0  0  0  0
  187.9000  171.8070  136.4770 C   0  0  0  0  0  3  0  0  0  0  0  0
  186.3980  178.0190  135.2730 C   0  0  0  0  0  2  0  0  0  0  0  0
  187.1880  176.8690  135.8460 C   0  0  0  0  0  0  0  0  0  0  0  0
  188.7060  172.8310  136.9770 C   0  0  0  0  0  3  0  0  0  0  0  0
  187.0760  177.0180  134.3460 C   0  0  0  0  0  2  0  0  0  0  0  0
  189.2590  175.1900  137.5210 C   0  0  1  0  0  3  0  0  0  0  0  0
  186.6310  172.0980  135.9670 C   0  0  0  0  0  0  0  0  0  0  0  0
  185.8000  171.0980  135.4540 O   0  0  0  0  0  0  0  0  0  0  0  0
  186.2930  170.0070  134.6880 C   0  0  0  0  0  1  0  0  0  0  0  0
  189.3460  177.3750  138.7550 C   0  0  1  0  0  3  0  0  0  0  0  0
  189.1910  179.6410  138.0030 O   0  0  0  0  0  1  0  0  0  0  0  0
  188.6590  178.7280  138.9140 C   0  0  0  0  0  2  0  0  0  0  0  0
  189.5100  176.6630  140.0930 C   0  0  0  0  0  2  0  0  0  0  0  0
  190.0170  177.6200  141.1620 C   0  0  0  0  0  2  0  0  0  0  0  0
  187.9290  177.4630  142.3840 C   0  0  0  0  0  3  0  0  0  0  0  0
  189.2630  177.5110  142.4540 C   0  0  0  0  0  0  0  0  0  0  0  0
  189.9890  177.4560  143.7840 C   0  0  0  0  0  2  0  0  0  0  0  0
  189.7120  177.2610  146.4720 S   0  0  0  0  0  0  0  0  0  0  0  0
  187.6170  177.2950  144.8010 C   0  0  0  0  0  3  0  0  0  0  0  0
  189.0750  177.3380  144.9720 C   0  0  0  0  0  0  0  0  0  0  0  0
  187.0820  177.3540  143.5840 C   0  0  0  0  0  3  0  0  0  0  0  0
  190.6550  175.0670  136.8560 C   0  0  1  0  0  3  0  0  0  0  0  0
  190.7580  175.3140  135.3810 C   0  0  0  0  0  0  0  0  0  0  0  0
  191.0060  176.4300  134.9500 O   0  0  0  0  0  0  0  0  0  0  0  0
  190.6210  174.1660  134.4400 C   0  0  0  0  0  2  0  0  0  0  0  0
  191.6620  173.2600  134.6410 O   0  0  0  0  0  1  0  0  0  0  0  0
  191.8230  175.6240  137.6610 C   0  0  0  0  0  2  0  0  0  0  0  0
  193.0260  174.6960  137.5960 C   0  0  0  0  0  2  0  0  0  0  0  0
  195.1400  174.4430  136.4300 C   0  0  0  0  0  2  0  0  0  0  0  0
  194.2260  175.4170  137.0140 C   0  0  2  0  0  3  0  0  0  0  0  0
  195.4320  175.0130  137.7510 N   0  0  0  0  0  2  0  0  0  0  0  0
  1  3  1  0  0  0  0
  2  4  1  0  0  0  0
  3 16  1  0  0  0  0
  4  5  1  0  0  0  0
  4  6  2  0  0  0  0
  6 12  1  0  0  0  0
  7 10  2  0  0  0  0
  8  9  1  0  0  0  0
  9  1  1  0  0  0  0
  9  5  1  0  0  0  0
 10  6  1  0  0  0  0
 11  8  1  0  0  0  0
 11  9  1  0  0  0  0
 12 28  1  6  0  0  0
 12  3  1  0  0  0  0
 13  2  2  0  0  0  0
 13  7  1  0  0  0  0
 14 13  1  0  0  0  0
 15 14  1  0  0  0  0
 16 18  1  1  0  0  0
 16 19  1  0  0  0  0
 17 18  1  0  0  0  0
 19 20  1  0  0  0  0
 20 22  1  0  0  0  0
 21 22  2  0  0  0  0
 21 27  1  0  0  0  0
 22 23  1  0  0  0  0
 23 26  1  0  0  0  0
 25 26  1  0  0  0  0
 26 24  2  0  0  0  0
 27 25  2  0  0  0  0
 28 33  1  1  0  0  0
 29 28  1  0  0  0  0
 30 29  2  0  0  0  0
 31 32  1  0  0  0  0
 31 29  1  0  0  0  0
 34 33  1  0  0  0  0
 35 36  1  0  0  0  0
 35 37  1  0  0  0  0
 36 34  1  1  0  0  0
 36 37  1  0  0  0  0
M  END
>  <MODEL>
8

>  <REMARK>
 VINA RESULT:      -5.2      3.752      5.241
  Name = 
  12 active torsions:
  status: ('A' for Active; 'I' for Inactive)
    1  A    between atoms: C_1  and  C_12
    2  A    between atoms: C_1  and  C_36
    3  A    between atoms: O_3  and  C_32
    4  A    between atoms: C_6  and  C_31
    5  A    between atoms: N_10  and  C_14
    6  A    between atoms: C_14  and  C_27
    7  A    between atoms: C_14  and  C_37
    8  A    between atoms: C_17  and  C_26
    9  A    between atoms: C_17  and  C_33
   10  A    between atoms: C_29  and  C_36
   11  A    between atoms: C_31  and  C_37
   12  A    between atoms: C_33  and  C_36
                            x       y       z     vdW  Elec       q    Type
                         _______ _______ _______ _____ _____    ______ ____

>  <TORSDO>
F 12

$$$$
=
 OpenBabel10272414573D

 37 41  0  0  1  0  0  0  0  0999 V2000
  181.6710  176.3040  137.2420 C   0  0  0  0  0  2  0  0  0  0  0  0
  183.4770  178.4460  140.8210 C   0  0  0  0  0  3  0  0  0  0  0  0
  182.2610  177.5300  136.7100 N   0  0  0  0  0  0  0  0  0  0  0  0
  183.0580  178.0900  139.5340 C   0  0  0  0  0  0  0  0  0  0  0  0
  181.5900  177.8340  139.3740 C   0  0  0  0  0  2  0  0  0  0  0  0
  184.0010  178.0760  138.4650 C   0  0  0  0  0  0  0  0  0  0  0  0
  185.7290  178.7910  140.0330 C   0  0  0  0  0  3  0  0  0  0  0  0
  179.9830  175.8980  139.0790 C   0  0  0  0  0  2  0  0  0  0  0  0
  181.3110  176.5040  138.6990 C   0  0  0  0  0  0  0  0  0  0  0  0
  185.3280  178.4410  138.7430 C   0  0  0  0  0  3  0  0  0  0  0  0
  181.2800  175.2730  139.5750 C   0  0  0  0  0  2  0  0  0  0  0  0
  183.7010  177.6860  137.0250 C   0  0  1  0  0  3  0  0  0  0  0  0
  184.8030  178.7880  141.0820 C   0  0  0  0  0  0  0  0  0  0  0  0
  185.1720  179.1270  142.3870 O   0  0  0  0  0  0  0  0  0  0  0  0
  184.2590  179.0970  143.4750 C   0  0  0  0  0  1  0  0  0  0  0  0
  181.8700  177.7570  135.3080 C   0  0  1  0  0  3  0  0  0  0  0  0
  182.0410  175.5730  134.3460 O   0  0  0  0  0  1  0  0  0  0  0  0
  181.1290  176.5590  134.7220 C   0  0  0  0  0  2  0  0  0  0  0  0
  181.1040  179.0580  135.0930 C   0  0  0  0  0  2  0  0  0  0  0  0
  180.4260  179.5100  136.3780 C   0  0  0  0  0  2  0  0  0  0  0  0
  181.4180  181.0760  137.9400 C   0  0  0  0  0  3  0  0  0  0  0  0
  180.7880  180.9100  136.7720 C   0  0  0  0  0  0  0  0  0  0  0  0
  180.4520  182.0890  135.8790 C   0  0  0  0  0  2  0  0  0  0  0  0
  180.6110  184.7760  135.5740 S   0  0  0  0  0  0  0  0  0  0  0  0
  181.5830  183.5040  137.7240 C   0  0  0  0  0  3  0  0  0  0  0  0
  180.8980  183.4160  136.4280 C   0  0  0  0  0  0  0  0  0  0  0  0
  181.8250  182.4030  138.4320 C   0  0  0  0  0  3  0  0  0  0  0  0
  184.6880  176.6140  136.4920 C   0  0  1  0  0  3  0  0  0  0  0  0
  185.7680  177.0560  135.5500 C   0  0  0  0  0  0  0  0  0  0  0  0
  185.4940  177.4570  134.4290 O   0  0  0  0  0  0  0  0  0  0  0  0
  187.1830  177.0660  136.0200 C   0  0  0  0  0  2  0  0  0  0  0  0
  187.6890  178.3650  135.9750 O   0  0  0  0  0  1  0  0  0  0  0  0
  185.1370  175.5670  137.5040 C   0  0  0  0  0  2  0  0  0  0  0  0
  184.4580  174.2310  137.2480 C   0  0  0  0  0  2  0  0  0  0  0  0
  186.4750  173.1280  136.4680 C   0  0  0  0  0  2  0  0  0  0  0  0
  185.4250  173.0860  137.4790 C   0  0  2  0  0  3  0  0  0  0  0  0
  185.3680  172.1720  136.3290 N   0  0  0  0  0  2  0  0  0  0  0  0
  1  9  1  0  0  0  0
  2 13  1  0  0  0  0
  3 12  1  0  0  0  0
  3  1  1  0  0  0  0
  4  2  2  0  0  0  0
  5  4  1  0  0  0  0
  6 10  2  0  0  0  0
  6  4  1  0  0  0  0
  7 13  2  0  0  0  0
  8 11  1  0  0  0  0
  9  8  1  0  0  0  0
  9  5  1  0  0  0  0
  9 11  1  0  0  0  0
 10  7  1  0  0  0  0
 12 28  1  1  0  0  0
 12  6  1  0  0  0  0
 13 14  1  0  0  0  0
 14 15  1  0  0  0  0
 16 18  1  1  0  0  0
 16  3  1  0  0  0  0
 17 18  1  0  0  0  0
 19 16  1  0  0  0  0
 19 20  1  0  0  0  0
 20 22  1  0  0  0  0
 21 27  1  0  0  0  0
 22 21  2  0  0  0  0
 23 26  1  0  0  0  0
 23 22  1  0  0  0  0
 24 26  2  0  0  0  0
 25 27  2  0  0  0  0
 26 25  1  0  0  0  0
 28 33  1  1  0  0  0
 29 31  1  0  0  0  0
 29 28  1  0  0  0  0
 30 29  2  0  0  0  0
 32 31  1  0  0  0  0
 34 33  1  0  0  0  0
 35 36  1  0  0  0  0
 36 34  1  6  0  0  0
 37 35  1  0  0  0  0
 37 36  1  0  0  0  0
M  END
>  <MODEL>
9

>  <REMARK>
 VINA RESULT:      -5.1      3.350      6.497
  Name = 
  12 active torsions:
  status: ('A' for Active; 'I' for Inactive)
    1  A    between atoms: C_1  and  C_12
    2  A    between atoms: C_1  and  C_36
    3  A    between atoms: O_3  and  C_32
    4  A    between atoms: C_6  and  C_31
    5  A    between atoms: N_10  and  C_14
    6  A    between atoms: C_14  and  C_27
    7  A    between atoms: C_14  and  C_37
    8  A    between atoms: C_17  and  C_26
    9  A    between atoms: C_17  and  C_33
   10  A    between atoms: C_29  and  C_36
   11  A    between atoms: C_31  and  C_37
   12  A    between atoms: C_33  and  C_36
                            x       y       z     vdW  Elec       q    Type
                         _______ _______ _______ _____ _____    ______ ____

>  <TORSDO>
F 12

$$$$
