=
 OpenBabel10272400533D

 25 28  0  0  1  0  0  0  0  0999 V2000
  186.8010  177.7930  145.4870 N   0  0  0  0  0  0  0  0  0  0  0  0
  188.1930  177.5460  145.1350 C   0  0  2  0  0  3  0  0  0  0  0  0
  187.4570  177.9730  147.8280 C   0  0  0  0  0  2  0  0  0  0  0  0
  185.7490  178.1710  144.7490 C   0  0  0  0  0  0  0  0  0  0  0  0
  189.8290  176.4190  143.5420 C   0  0  2  0  0  3  0  0  0  0  0  0
  183.3730  179.1370  143.7200 C   0  0  0  0  0  3  0  0  0  0  0  0
  188.2830  176.8520  147.5810 O   0  0  0  0  0  0  0  0  0  0  0  0
  184.7690  178.6200  145.5940 C   0  0  0  0  0  0  0  0  0  0  0  0
  183.5590  179.1160  145.1150 C   0  0  0  0  0  3  0  0  0  0  0  0
  190.3720  177.5870  146.4380 C   0  0  1  0  0  3  0  0  0  0  0  0
  191.0530  177.2050  147.7410 C   0  0  0  0  0  1  0  0  0  0  0  0
  188.3530  176.6900  143.8800 C   0  0  0  0  0  2  0  0  0  0  0  0
  184.3930  178.6860  142.8500 C   0  0  0  0  0  3  0  0  0  0  0  0
  186.4390  178.0690  146.7490 C   0  0  0  0  0  0  0  0  0  0  0  0
  185.1890  178.5830  146.8750 N   0  0  0  0  0  0  0  0  0  0  0  0
  191.2610  177.1180  145.2810 C   0  0  0  0  0  2  0  0  0  0  0  0
  185.6100  178.2000  143.3630 C   0  0  0  0  0  3  0  0  0  0  0  0
  190.7100  177.5010  143.9830 N   0  0  0  0  0  2  0  0  0  0  0  0
  188.9800  176.9530  146.3340 C   0  0  2  0  0  3  0  0  0  0  0  0
  190.0140  176.1270  142.0540 C   0  0  0  0  0  2  0  0  0  0  0  0
  188.8480  177.7080  140.5250 C   0  0  0  0  0  1  0  0  0  0  0  0
  190.1640  177.3910  141.2070 C   0  0  2  0  0  3  0  0  0  0  0  0
  191.2570  177.2530  140.1900 C   0  0  0  0  0  0  0  0  0  0  0  0
  192.3890  177.6080  140.4730 O   0  0  0  0  0  0  0  0  0  0  0  0
  190.9830  176.6940  138.8310 C   0  0  0  0  0  1  0  0  0  0  0  0
  1 14  1  0  0  0  0
  2 12  1  6  0  0  0
  2  1  1  0  0  0  0
  2 19  1  0  0  0  0
  4  1  1  0  0  0  0
  4  8  1  0  0  0  0
  5 20  1  6  0  0  0
  5 12  1  0  0  0  0
  5 18  1  0  0  0  0
  6  9  1  0  0  0  0
  7  3  1  0  0  0  0
  8 15  1  0  0  0  0
  9  8  2  0  0  0  0
 10 11  1  1  0  0  0
 13 17  1  0  0  0  0
 13  6  2  0  0  0  0
 14 15  2  0  0  0  0
 14  3  1  0  0  0  0
 16 10  1  0  0  0  0
 17  4  2  0  0  0  0
 18 16  1  0  0  0  0
 19 10  1  0  0  0  0
 19  7  1  1  0  0  0
 22 21  1  6  0  0  0
 22 20  1  0  0  0  0
 23 24  2  0  0  0  0
 23 22  1  0  0  0  0
 25 23  1  0  0  0  0
M  END
>  <MODEL>
1

>  <REMARK>
 VINA RESULT:      -9.7      0.000      0.000
  Name = 
  3 active torsions:
  status: ('A' for Active; 'I' for Inactive)
    1  A    between atoms: C_2  and  C_25
    2  A    between atoms: C_6  and  C_15
    3  A    between atoms: C_15  and  C_25
                            x       y       z     vdW  Elec       q    Type
                         _______ _______ _______ _____ _____    ______ ____

>  <TORSDO>
F 3

$$$$
=
 OpenBabel10272400533D

 25 28  0  0  1  0  0  0  0  0999 V2000
  188.7680  177.2670  144.5540 N   0  0  0  0  0  0  0  0  0  0  0  0
  188.4410  177.7390  143.2160 C   0  0  2  0  0  3  0  0  0  0  0  0
  190.8410  176.3260  143.6830 C   0  0  0  0  0  2  0  0  0  0  0  0
  188.2990  177.6130  145.7600 C   0  0  0  0  0  0  0  0  0  0  0  0
  186.6160  178.3100  141.5350 C   0  0  2  0  0  3  0  0  0  0  0  0
  187.8240  178.1260  148.4340 C   0  0  0  0  0  3  0  0  0  0  0  0
  190.0650  175.8840  142.5860 O   0  0  0  0  0  0  0  0  0  0  0  0
  189.1740  177.1590  146.7100 C   0  0  0  0  0  0  0  0  0  0  0  0
  188.9720  177.3990  148.0670 C   0  0  0  0  0  3  0  0  0  0  0  0
  189.6950  177.7770  141.0070 C   0  0  1  0  0  3  0  0  0  0  0  0
  190.5990  176.9900  140.0740 C   0  0  0  0  0  1  0  0  0  0  0  0
  186.9380  177.8360  142.9610 C   0  0  0  0  0  2  0  0  0  0  0  0
  186.9290  178.6050  147.4490 C   0  0  0  0  0  3  0  0  0  0  0  0
  189.9340  176.6570  144.8130 C   0  0  0  0  0  0  0  0  0  0  0  0
  190.2370  176.5610  146.1330 N   0  0  0  0  0  0  0  0  0  0  0  0
  188.5450  178.3570  140.1780 C   0  0  0  0  0  2  0  0  0  0  0  0
  187.1650  178.3570  146.0850 C   0  0  0  0  0  3  0  0  0  0  0  0
  187.6540  179.1840  140.9890 N   0  0  0  0  0  2  0  0  0  0  0  0
  189.1490  176.8850  142.1290 C   0  0  2  0  0  3  0  0  0  0  0  0
  185.2420  178.9740  141.4660 C   0  0  0  0  0  2  0  0  0  0  0  0
  183.2740  177.6490  140.7120 C   0  0  0  0  0  1  0  0  0  0  0  0
  184.1050  178.0540  141.9130 C   0  0  2  0  0  3  0  0  0  0  0  0
  183.2390  178.7030  142.9500 C   0  0  0  0  0  0  0  0  0  0  0  0
  182.1120  179.0620  142.6520 O   0  0  0  0  0  0  0  0  0  0  0  0
  183.7330  178.9240  144.3430 C   0  0  0  0  0  1  0  0  0  0  0  0
  1 14  1  0  0  0  0
  1  4  1  0  0  0  0
  2 12  1  6  0  0  0
  2  1  1  0  0  0  0
  3 14  1  0  0  0  0
  4 17  2  0  0  0  0
  4  8  1  0  0  0  0
  5 20  1  1  0  0  0
  5 12  1  0  0  0  0
  7  3  1  0  0  0  0
  8  9  2  0  0  0  0
  9  6  1  0  0  0  0
 10 11  1  6  0  0  0
 10 19  1  0  0  0  0
 13  6  2  0  0  0  0
 14 15  2  0  0  0  0
 15  8  1  0  0  0  0
 16 18  1  0  0  0  0
 16 10  1  0  0  0  0
 17 13  1  0  0  0  0
 18  5  1  0  0  0  0
 19  7  1  1  0  0  0
 19  2  1  0  0  0  0
 20 22  1  0  0  0  0
 22 21  1  6  0  0  0
 22 23  1  0  0  0  0
 23 25  1  0  0  0  0
 24 23  2  0  0  0  0
M  END
>  <MODEL>
2

>  <REMARK>
 VINA RESULT:      -9.0      2.390      5.757
  Name = 
  3 active torsions:
  status: ('A' for Active; 'I' for Inactive)
    1  A    between atoms: C_2  and  C_25
    2  A    between atoms: C_6  and  C_15
    3  A    between atoms: C_15  and  C_25
                            x       y       z     vdW  Elec       q    Type
                         _______ _______ _______ _____ _____    ______ ____

>  <TORSDO>
F 3

$$$$
=
 OpenBabel10272400533D

 25 28  0  0  1  0  0  0  0  0999 V2000
  186.6580  178.3910  141.4770 N   0  0  0  0  0  0  0  0  0  0  0  0
  187.9530  177.8000  141.1660 C   0  0  2  0  0  3  0  0  0  0  0  0
  186.1120  178.3730  139.1020 C   0  0  0  0  0  2  0  0  0  0  0  0
  185.9700  178.4740  142.6230 C   0  0  0  0  0  0  0  0  0  0  0  0
  190.4050  177.5610  141.8060 C   0  0  2  0  0  3  0  0  0  0  0  0
  184.1030  178.7010  144.6480 C   0  0  0  0  0  3  0  0  0  0  0  0
  187.4370  178.8240  138.8940 O   0  0  0  0  0  0  0  0  0  0  0  0
  184.6700  178.7830  142.3250 C   0  0  0  0  0  0  0  0  0  0  0  0
  183.6990  178.9040  143.3150 C   0  0  0  0  0  3  0  0  0  0  0  0
  189.0080  176.8960  139.0400 C   0  0  1  0  0  3  0  0  0  0  0  0
  189.2040  177.1230  137.5510 C   0  0  0  0  0  1  0  0  0  0  0  0
  189.0420  178.1730  142.1690 C   0  0  0  0  0  2  0  0  0  0  0  0
  185.4430  178.3680  144.9530 C   0  0  0  0  0  3  0  0  0  0  0  0
  185.7410  178.6050  140.5220 C   0  0  0  0  0  0  0  0  0  0  0  0
  184.4910  178.8540  140.9890 N   0  0  0  0  0  0  0  0  0  0  0  0
  190.3770  176.5890  139.6580 C   0  0  0  0  0  2  0  0  0  0  0  0
  186.4000  178.2420  143.9290 C   0  0  0  0  0  3  0  0  0  0  0  0
  190.2750  176.2940  141.0850 N   0  0  0  0  0  2  0  0  0  0  0  0
  188.3830  178.1250  139.7100 C   0  0  2  0  0  3  0  0  0  0  0  0
  191.2910  177.4060  143.0410 C   0  0  0  0  0  2  0  0  0  0  0  0
  191.7760  179.4550  144.3700 C   0  0  0  0  0  1  0  0  0  0  0  0
  190.8410  178.2710  144.2180 C   0  0  2  0  0  3  0  0  0  0  0  0
  190.7830  177.4870  145.4950 C   0  0  0  0  0  0  0  0  0  0  0  0
  191.8190  177.0930  146.0050 O   0  0  0  0  0  0  0  0  0  0  0  0
  189.4780  177.1730  146.1510 C   0  0  0  0  0  1  0  0  0  0  0  0
  1  4  1  0  0  0  0
  2  1  1  0  0  0  0
  2 12  1  1  0  0  0
  3 14  1  0  0  0  0
  4 17  1  0  0  0  0
  5 12  1  0  0  0  0
  5 20  1  1  0  0  0
  6 13  1  0  0  0  0
  7  3  1  0  0  0  0
  8  4  2  0  0  0  0
  8  9  1  0  0  0  0
  9  6  2  0  0  0  0
 10 11  1  6  0  0  0
 10 16  1  0  0  0  0
 10 19  1  0  0  0  0
 14 15  2  0  0  0  0
 14  1  1  0  0  0  0
 15  8  1  0  0  0  0
 16 18  1  0  0  0  0
 17 13  2  0  0  0  0
 18  5  1  0  0  0  0
 19  7  1  6  0  0  0
 19  2  1  0  0  0  0
 20 22  1  0  0  0  0
 22 21  1  1  0  0  0
 22 23  1  0  0  0  0
 23 24  2  0  0  0  0
 23 25  1  0  0  0  0
M  END
>  <MODEL>
3

>  <REMARK>
 VINA RESULT:      -8.7      2.408      5.336
  Name = 
  3 active torsions:
  status: ('A' for Active; 'I' for Inactive)
    1  A    between atoms: C_2  and  C_25
    2  A    between atoms: C_6  and  C_15
    3  A    between atoms: C_15  and  C_25
                            x       y       z     vdW  Elec       q    Type
                         _______ _______ _______ _____ _____    ______ ____

>  <TORSDO>
F 3

$$$$
=
 OpenBabel10272400533D

 25 28  0  0  1  0  0  0  0  0999 V2000
  187.2190  178.0110  141.6710 N   0  0  0  0  0  0  0  0  0  0  0  0
  186.7430  178.1870  143.0370 C   0  0  2  0  0  3  0  0  0  0  0  0
  185.1380  178.9820  140.8520 C   0  0  0  0  0  2  0  0  0  0  0  0
  188.4460  177.8030  141.1760 C   0  0  0  0  0  0  0  0  0  0  0  0
  186.7780  177.3480  145.4400 C   0  0  2  0  0  3  0  0  0  0  0  0
  190.7600  177.5900  139.6800 C   0  0  0  0  0  3  0  0  0  0  0  0
  184.4970  178.1960  141.8390 O   0  0  0  0  0  0  0  0  0  0  0  0
  188.4210  178.0740  139.8340 C   0  0  0  0  0  0  0  0  0  0  0  0
  189.5650  177.9810  139.0460 C   0  0  0  0  0  3  0  0  0  0  0  0
  184.7060  179.3090  144.0590 C   0  0  1  0  0  3  0  0  0  0  0  0
  183.2080  179.5230  143.9350 C   0  0  0  0  0  1  0  0  0  0  0  0
  187.3150  177.1600  144.0110 C   0  0  0  0  0  2  0  0  0  0  0  0
  190.7860  177.3240  141.0680 C   0  0  0  0  0  3  0  0  0  0  0  0
  186.5050  178.4450  140.6220 C   0  0  0  0  0  0  0  0  0  0  0  0
  187.1990  178.5040  139.4560 N   0  0  0  0  0  0  0  0  0  0  0  0
  185.0120  178.9100  145.5060 C   0  0  0  0  0  2  0  0  0  0  0  0
  189.6150  177.4380  141.8410 C   0  0  0  0  0  3  0  0  0  0  0  0
  186.4460  178.7430  145.7330 N   0  0  0  0  0  2  0  0  0  0  0  0
  185.1920  178.2230  143.0910 C   0  0  2  0  0  3  0  0  0  0  0  0
  187.7470  176.7820  146.4770 C   0  0  0  0  0  2  0  0  0  0  0  0
  190.2140  177.0560  146.2910 C   0  0  0  0  0  1  0  0  0  0  0  0
  188.9290  177.7070  146.7650 C   0  0  2  0  0  3  0  0  0  0  0  0
  189.0260  178.0490  148.2210 C   0  0  0  0  0  0  0  0  0  0  0  0
  190.0970  178.4060  148.6840 O   0  0  0  0  0  0  0  0  0  0  0  0
  187.8360  177.9550  149.1190 C   0  0  0  0  0  1  0  0  0  0  0  0
  1  2  1  0  0  0  0
  2 19  1  0  0  0  0
  2 12  1  1  0  0  0
  3  7  1  0  0  0  0
  4  1  1  0  0  0  0
  4 17  1  0  0  0  0
  5 18  1  0  0  0  0
  5 20  1  1  0  0  0
  6 13  1  0  0  0  0
  8  4  2  0  0  0  0
  9  6  2  0  0  0  0
  9  8  1  0  0  0  0
 10 11  1  1  0  0  0
 10 16  1  0  0  0  0
 12  5  1  0  0  0  0
 13 17  2  0  0  0  0
 14  3  1  0  0  0  0
 14  1  1  0  0  0  0
 15  8  1  0  0  0  0
 15 14  2  0  0  0  0
 16 18  1  0  0  0  0
 19  7  1  6  0  0  0
 19 10  1  0  0  0  0
 20 22  1  0  0  0  0
 22 21  1  1  0  0  0
 22 23  1  0  0  0  0
 23 24  2  0  0  0  0
 23 25  1  0  0  0  0
M  END
>  <MODEL>
4

>  <REMARK>
 VINA RESULT:      -8.6      2.339      6.587
  Name = 
  3 active torsions:
  status: ('A' for Active; 'I' for Inactive)
    1  A    between atoms: C_2  and  C_25
    2  A    between atoms: C_6  and  C_15
    3  A    between atoms: C_15  and  C_25
                            x       y       z     vdW  Elec       q    Type
                         _______ _______ _______ _____ _____    ______ ____

>  <TORSDO>
F 3

$$$$
=
 OpenBabel10272400533D

 25 28  0  0  1  0  0  0  0  0999 V2000
  186.9130  178.4420  142.6350 N   0  0  0  0  0  0  0  0  0  0  0  0
  188.2630  177.8940  142.6140 C   0  0  2  0  0  3  0  0  0  0  0  0
  186.8460  178.2920  140.2040 C   0  0  0  0  0  2  0  0  0  0  0  0
  186.0110  178.5490  143.6200 C   0  0  0  0  0  0  0  0  0  0  0  0
  190.5480  177.7900  143.7320 C   0  0  2  0  0  3  0  0  0  0  0  0
  183.7750  178.7880  145.2270 C   0  0  0  0  0  3  0  0  0  0  0  0
  188.1700  178.7890  140.2340 O   0  0  0  0  0  0  0  0  0  0  0  0
  184.7850  178.7880  143.0570 C   0  0  0  0  0  0  0  0  0  0  0  0
  183.6350  178.9130  143.8320 C   0  0  0  0  0  3  0  0  0  0  0  0
  189.7450  176.9380  140.7870 C   0  0  1  0  0  3  0  0  0  0  0  0
  190.2220  177.1050  139.3540 C   0  0  0  0  0  1  0  0  0  0  0  0
  189.1200  178.3590  143.7890 C   0  0  0  0  0  2  0  0  0  0  0  0
  185.0400  178.5280  145.8040 C   0  0  0  0  0  3  0  0  0  0  0  0
  186.1960  178.5730  141.5100 C   0  0  0  0  0  0  0  0  0  0  0  0
  184.8700  178.7900  141.7110 N   0  0  0  0  0  0  0  0  0  0  0  0
  190.9740  176.7190  141.6750 C   0  0  0  0  0  2  0  0  0  0  0  0
  186.1830  178.3960  144.9940 C   0  0  0  0  0  3  0  0  0  0  0  0
  190.6040  176.4870  143.0690 N   0  0  0  0  0  2  0  0  0  0  0  0
  188.9600  178.1700  141.2550 C   0  0  2  0  0  3  0  0  0  0  0  0
  191.1780  177.7290  145.1230 C   0  0  0  0  0  2  0  0  0  0  0  0
  189.8840  177.0330  147.1320 C   0  0  0  0  0  1  0  0  0  0  0  0
  190.6960  176.5380  145.9510 C   0  0  2  0  0  3  0  0  0  0  0  0
  191.8380  175.6900  146.4240 C   0  0  0  0  0  0  0  0  0  0  0  0
  192.3590  174.9010  145.6540 O   0  0  0  0  0  0  0  0  0  0  0  0
  192.3470  175.7890  147.8260 C   0  0  0  0  0  1  0  0  0  0  0  0
  1  4  1  0  0  0  0
  2  1  1  0  0  0  0
  2 12  1  1  0  0  0
  3  7  1  0  0  0  0
  3 14  1  0  0  0  0
  4 17  1  0  0  0  0
  5 12  1  0  0  0  0
  5 20  1  1  0  0  0
  6 13  1  0  0  0  0
  8  4  2  0  0  0  0
  8  9  1  0  0  0  0
  9  6  2  0  0  0  0
 10 11  1  6  0  0  0
 10 19  1  0  0  0  0
 10 16  1  0  0  0  0
 14 15  2  0  0  0  0
 14  1  1  0  0  0  0
 15  8  1  0  0  0  0
 16 18  1  0  0  0  0
 17 13  2  0  0  0  0
 18  5  1  0  0  0  0
 19  7  1  6  0  0  0
 19  2  1  0  0  0  0
 20 22  1  0  0  0  0
 22 23  1  0  0  0  0
 22 21  1  1  0  0  0
 23 25  1  0  0  0  0
 24 23  2  0  0  0  0
M  END
>  <MODEL>
5

>  <REMARK>
 VINA RESULT:      -8.5      2.053      4.915
  Name = 
  3 active torsions:
  status: ('A' for Active; 'I' for Inactive)
    1  A    between atoms: C_2  and  C_25
    2  A    between atoms: C_6  and  C_15
    3  A    between atoms: C_15  and  C_25
                            x       y       z     vdW  Elec       q    Type
                         _______ _______ _______ _____ _____    ______ ____

>  <TORSDO>
F 3

$$$$
=
 OpenBabel10272400533D

 25 28  0  0  1  0  0  0  0  0999 V2000
  189.1370  177.6800  139.6740 N   0  0  0  0  0  0  0  0  0  0  0  0
  188.8520  177.3050  141.0530 C   0  0  2  0  0  3  0  0  0  0  0  0
  191.4760  177.0920  140.0280 C   0  0  0  0  0  2  0  0  0  0  0  0
  188.3360  177.8500  138.6140 C   0  0  0  0  0  0  0  0  0  0  0  0
  187.4130  177.6820  143.1190 C   0  0  2  0  0  3  0  0  0  0  0  0
  187.1520  178.0980  136.1290 C   0  0  0  0  0  3  0  0  0  0  0  0
  191.3490  177.7440  141.2770 O   0  0  0  0  0  0  0  0  0  0  0  0
  189.1070  177.8340  137.4830 C   0  0  0  0  0  0  0  0  0  0  0  0
  188.5500  177.9530  136.2130 C   0  0  0  0  0  3  0  0  0  0  0  0
  190.2200  176.2270  142.9010 C   0  0  1  0  0  3  0  0  0  0  0  0
  191.5720  176.1920  143.5930 C   0  0  0  0  0  1  0  0  0  0  0  0
  187.6780  178.0730  141.6550 C   0  0  0  0  0  2  0  0  0  0  0  0
  186.3560  178.1010  137.2980 C   0  0  0  0  0  3  0  0  0  0  0  0
  190.3590  177.5200  139.1460 C   0  0  0  0  0  0  0  0  0  0  0  0
  190.4010  177.6060  137.7910 N   0  0  0  0  0  0  0  0  0  0  0  0
  189.1360  176.3210  143.9800 C   0  0  0  0  0  2  0  0  0  0  0  0
  186.9470  177.9670  138.5680 C   0  0  0  0  0  3  0  0  0  0  0  0
  187.7930  176.2980  143.4040 N   0  0  0  0  0  2  0  0  0  0  0  0
  190.1220  177.4170  141.9390 C   0  0  2  0  0  3  0  0  0  0  0  0
  185.9600  177.9470  143.5110 C   0  0  0  0  0  2  0  0  0  0  0  0
  186.5480  177.9860  145.9300 C   0  0  0  0  0  1  0  0  0  0  0  0
  185.8230  178.7230  144.8210 C   0  0  2  0  0  3  0  0  0  0  0  0
  184.3870  178.9390  145.1930 C   0  0  0  0  0  0  0  0  0  0  0  0
  184.0570  178.8960  146.3660 O   0  0  0  0  0  0  0  0  0  0  0  0
  183.3490  179.1990  144.1500 C   0  0  0  0  0  1  0  0  0  0  0  0
  1  2  1  0  0  0  0
  2 12  1  1  0  0  0
  2 19  1  0  0  0  0
  3  7  1  0  0  0  0
  4  1  1  0  0  0  0
  5 18  1  0  0  0  0
  5 20  1  6  0  0  0
  6  9  2  0  0  0  0
  6 13  1  0  0  0  0
  8 15  1  0  0  0  0
  8  4  2  0  0  0  0
  9  8  1  0  0  0  0
 10 11  1  1  0  0  0
 10 16  1  0  0  0  0
 12  5  1  0  0  0  0
 13 17  2  0  0  0  0
 14  1  1  0  0  0  0
 14  3  1  0  0  0  0
 15 14  2  0  0  0  0
 17  4  1  0  0  0  0
 18 16  1  0  0  0  0
 19  7  1  6  0  0  0
 19 10  1  0  0  0  0
 20 22  1  0  0  0  0
 22 23  1  0  0  0  0
 22 21  1  1  0  0  0
 23 24  2  0  0  0  0
 25 23  1  0  0  0  0
M  END
>  <MODEL>
6

>  <REMARK>
 VINA RESULT:      -8.4      2.665      6.887
  Name = 
  3 active torsions:
  status: ('A' for Active; 'I' for Inactive)
    1  A    between atoms: C_2  and  C_25
    2  A    between atoms: C_6  and  C_15
    3  A    between atoms: C_15  and  C_25
                            x       y       z     vdW  Elec       q    Type
                         _______ _______ _______ _____ _____    ______ ____

>  <TORSDO>
F 3

$$$$
=
 OpenBabel10272400533D

 25 28  0  0  1  0  0  0  0  0999 V2000
  189.9850  177.6470  142.0110 N   0  0  0  0  0  0  0  0  0  0  0  0
  188.9150  177.5440  142.9940 C   0  0  2  0  0  3  0  0  0  0  0  0
  191.6070  177.7210  143.8290 C   0  0  0  0  0  2  0  0  0  0  0  0
  190.0180  177.3750  140.7000 C   0  0  0  0  0  0  0  0  0  0  0  0
  186.4850  178.0380  143.5710 C   0  0  2  0  0  3  0  0  0  0  0  0
  190.6430  176.7590  138.0790 C   0  0  0  0  0  3  0  0  0  0  0  0
  190.7000  178.5950  144.4720 O   0  0  0  0  0  0  0  0  0  0  0  0
  191.3280  177.2800  140.3130 C   0  0  0  0  0  0  0  0  0  0  0  0
  191.6850  176.9690  139.0030 C   0  0  0  0  0  3  0  0  0  0  0  0
  188.8650  177.2720  145.5190 C   0  0  1  0  0  3  0  0  0  0  0  0
  189.4850  177.7160  146.8330 C   0  0  0  0  0  1  0  0  0  0  0  0
  187.5920  178.1320  142.5090 C   0  0  0  0  0  2  0  0  0  0  0  0
  189.2920  176.8440  138.4850 C   0  0  0  0  0  3  0  0  0  0  0  0
  191.2730  177.6600  142.3820 C   0  0  0  0  0  0  0  0  0  0  0  0
  192.1510  177.4390  141.3700 N   0  0  0  0  0  0  0  0  0  0  0  0
  187.3420  177.3550  145.6600 C   0  0  0  0  0  2  0  0  0  0  0  0
  188.9620  177.1490  139.8190 C   0  0  0  0  0  3  0  0  0  0  0  0
  186.6580  176.8860  144.4570 N   0  0  0  0  0  2  0  0  0  0  0  0
  189.3430  178.1510  144.3570 C   0  0  2  0  0  3  0  0  0  0  0  0
  185.0970  178.0380  142.9310 C   0  0  0  0  0  2  0  0  0  0  0  0
  184.2320  179.0080  145.0540 C   0  0  0  0  0  1  0  0  0  0  0  0
  184.1530  179.0740  143.5420 C   0  0  2  0  0  3  0  0  0  0  0  0
  182.7390  178.8750  143.0850 C   0  0  0  0  0  0  0  0  0  0  0  0
  182.5000  178.7890  141.8930 O   0  0  0  0  0  0  0  0  0  0  0  0
  181.6140  178.7880  144.0660 C   0  0  0  0  0  1  0  0  0  0  0  0
  1 14  1  0  0  0  0
  1  2  1  0  0  0  0
  2 12  1  6  0  0  0
  2 19  1  0  0  0  0
  3  7  1  0  0  0  0
  4  1  1  0  0  0  0
  5 20  1  6  0  0  0
  5 18  1  0  0  0  0
  6 13  2  0  0  0  0
  6  9  1  0  0  0  0
  8  4  1  0  0  0  0
  8 15  1  0  0  0  0
  9  8  2  0  0  0  0
 10 16  1  0  0  0  0
 10 11  1  1  0  0  0
 12  5  1  0  0  0  0
 13 17  1  0  0  0  0
 14  3  1  0  0  0  0
 15 14  2  0  0  0  0
 17  4  2  0  0  0  0
 18 16  1  0  0  0  0
 19  7  1  6  0  0  0
 19 10  1  0  0  0  0
 20 22  1  0  0  0  0
 22 21  1  1  0  0  0
 23 22  1  0  0  0  0
 23 25  1  0  0  0  0
 24 23  2  0  0  0  0
M  END
>  <MODEL>
7

>  <REMARK>
 VINA RESULT:      -8.2      2.298      6.522
  Name = 
  3 active torsions:
  status: ('A' for Active; 'I' for Inactive)
    1  A    between atoms: C_2  and  C_25
    2  A    between atoms: C_6  and  C_15
    3  A    between atoms: C_15  and  C_25
                            x       y       z     vdW  Elec       q    Type
                         _______ _______ _______ _____ _____    ______ ____

>  <TORSDO>
F 3

$$$$
=
 OpenBabel10272400533D

 25 28  0  0  1  0  0  0  0  0999 V2000
  187.1820  177.7720  143.7610 N   0  0  0  0  0  0  0  0  0  0  0  0
  188.5720  177.7500  143.3270 C   0  0  2  0  0  3  0  0  0  0  0  0
  187.9260  177.4820  146.0640 C   0  0  0  0  0  2  0  0  0  0  0  0
  186.0670  178.2010  143.1550 C   0  0  0  0  0  0  0  0  0  0  0  0
  190.2290  177.1810  141.4800 C   0  0  2  0  0  3  0  0  0  0  0  0
  183.5680  179.1340  142.4320 C   0  0  0  0  0  3  0  0  0  0  0  0
  188.8390  176.5330  145.5460 O   0  0  0  0  0  0  0  0  0  0  0  0
  185.0900  178.3470  144.1030 C   0  0  0  0  0  0  0  0  0  0  0  0
  183.8190  178.8160  143.7810 C   0  0  0  0  0  3  0  0  0  0  0  0
  190.7970  177.7120  144.5520 C   0  0  1  0  0  3  0  0  0  0  0  0
  191.5690  177.1140  145.7160 C   0  0  0  0  0  1  0  0  0  0  0  0
  188.7520  177.2200  141.9070 C   0  0  0  0  0  2  0  0  0  0  0  0
  184.5830  178.9950  141.4570 C   0  0  0  0  0  3  0  0  0  0  0  0
  186.8550  177.7180  145.0600 C   0  0  0  0  0  0  0  0  0  0  0  0
  185.5700  178.0640  145.3320 N   0  0  0  0  0  0  0  0  0  0  0  0
  191.6700  177.6070  143.2980 C   0  0  0  0  0  2  0  0  0  0  0  0
  185.8610  178.5290  141.8160 C   0  0  0  0  0  3  0  0  0  0  0  0
  191.0280  178.2170  142.1360 N   0  0  0  0  0  2  0  0  0  0  0  0
  189.4650  176.9830  144.3390 C   0  0  2  0  0  3  0  0  0  0  0  0
  190.3710  177.2530  139.9600 C   0  0  0  0  0  2  0  0  0  0  0  0
  189.4020  175.9370  138.0820 C   0  0  0  0  0  1  0  0  0  0  0  0
  189.0850  176.8910  139.2170 C   0  0  2  0  0  3  0  0  0  0  0  0
  188.3830  178.1080  138.6940 C   0  0  0  0  0  0  0  0  0  0  0  0
  188.9810  179.1690  138.6410 O   0  0  0  0  0  0  0  0  0  0  0  0
  186.9600  178.0450  138.2430 C   0  0  0  0  0  1  0  0  0  0  0  0
  1 14  1  0  0  0  0
  2 12  1  6  0  0  0
  2  1  1  0  0  0  0
  2 19  1  0  0  0  0
  4  1  1  0  0  0  0
  4  8  1  0  0  0  0
  5 20  1  6  0  0  0
  5 12  1  0  0  0  0
  5 18  1  0  0  0  0
  6  9  1  0  0  0  0
  7  3  1  0  0  0  0
  8 15  1  0  0  0  0
  9  8  2  0  0  0  0
 10 11  1  1  0  0  0
 13 17  1  0  0  0  0
 13  6  2  0  0  0  0
 14 15  2  0  0  0  0
 14  3  1  0  0  0  0
 16 10  1  0  0  0  0
 17  4  2  0  0  0  0
 18 16  1  0  0  0  0
 19 10  1  0  0  0  0
 19  7  1  1  0  0  0
 22 21  1  6  0  0  0
 22 20  1  0  0  0  0
 23 22  1  0  0  0  0
 24 23  2  0  0  0  0
 25 23  1  0  0  0  0
M  END
>  <MODEL>
8

>  <REMARK>
 VINA RESULT:      -8.1      1.678      2.294
  Name = 
  3 active torsions:
  status: ('A' for Active; 'I' for Inactive)
    1  A    between atoms: C_2  and  C_25
    2  A    between atoms: C_6  and  C_15
    3  A    between atoms: C_15  and  C_25
                            x       y       z     vdW  Elec       q    Type
                         _______ _______ _______ _____ _____    ______ ____

>  <TORSDO>
F 3

$$$$
=
 OpenBabel10272400533D

 25 28  0  0  1  0  0  0  0  0999 V2000
  186.4790  178.1890  140.7800 N   0  0  0  0  0  0  0  0  0  0  0  0
  186.4260  178.2420  142.2350 C   0  0  2  0  0  3  0  0  0  0  0  0
  184.1740  178.9750  140.6970 C   0  0  0  0  0  2  0  0  0  0  0  0
  187.5120  178.1380  139.9280 C   0  0  0  0  0  0  0  0  0  0  0  0
  187.2600  177.2870  144.4420 C   0  0  2  0  0  3  0  0  0  0  0  0
  189.2720  178.2510  137.8010 C   0  0  0  0  0  3  0  0  0  0  0  0
  183.9310  178.0750  141.7620 O   0  0  0  0  0  0  0  0  0  0  0  0
  187.0580  178.4750  138.6800 C   0  0  0  0  0  0  0  0  0  0  0  0
  187.9130  178.5450  137.5840 C   0  0  0  0  0  3  0  0  0  0  0  0
  184.7080  179.0860  143.9030 C   0  0  1  0  0  3  0  0  0  0  0  0
  183.2300  179.1470  144.2470 C   0  0  0  0  0  1  0  0  0  0  0  0
  187.3520  177.2320  142.9080 C   0  0  0  0  0  2  0  0  0  0  0  0
  189.7400  177.9170  139.0920 C   0  0  0  0  0  3  0  0  0  0  0  0
  185.4470  178.6000  140.0290 C   0  0  0  0  0  0  0  0  0  0  0  0
  185.7470  178.7930  138.7190 N   0  0  0  0  0  0  0  0  0  0  0  0
  185.4710  178.6470  145.1570 C   0  0  0  0  0  2  0  0  0  0  0  0
  188.8540  177.8650  140.1840 C   0  0  0  0  0  3  0  0  0  0  0  0
  186.9140  178.6210  144.9340 N   0  0  0  0  0  2  0  0  0  0  0  0
  184.9680  178.1100  142.7490 C   0  0  2  0  0  3  0  0  0  0  0  0
  188.5420  176.7720  145.0950 C   0  0  0  0  0  2  0  0  0  0  0  0
  190.5380  178.2540  144.9630 C   0  0  0  0  0  1  0  0  0  0  0  0
  189.3380  177.8680  145.8050 C   0  0  2  0  0  3  0  0  0  0  0  0
  189.7780  177.4400  147.1720 C   0  0  0  0  0  0  0  0  0  0  0  0
  189.0900  177.7230  148.1400 O   0  0  0  0  0  0  0  0  0  0  0  0
  191.0470  176.6790  147.3740 C   0  0  0  0  0  1  0  0  0  0  0  0
  1  2  1  0  0  0  0
  2 19  1  0  0  0  0
  2 12  1  1  0  0  0
  3  7  1  0  0  0  0
  4 17  1  0  0  0  0
  4  1  1  0  0  0  0
  5 18  1  0  0  0  0
  5 20  1  1  0  0  0
  6 13  1  0  0  0  0
  8 15  1  0  0  0  0
  8  4  2  0  0  0  0
  9  6  2  0  0  0  0
  9  8  1  0  0  0  0
 10 11  1  1  0  0  0
 10 16  1  0  0  0  0
 12  5  1  0  0  0  0
 13 17  2  0  0  0  0
 14  3  1  0  0  0  0
 14  1  1  0  0  0  0
 15 14  2  0  0  0  0
 18 16  1  0  0  0  0
 19  7  1  6  0  0  0
 19 10  1  0  0  0  0
 20 22  1  0  0  0  0
 22 21  1  6  0  0  0
 22 23  1  0  0  0  0
 23 25  1  0  0  0  0
 23 24  2  0  0  0  0
M  END
>  <MODEL>
9

>  <REMARK>
 VINA RESULT:      -8.0      2.713      6.376
  Name = 
  3 active torsions:
  status: ('A' for Active; 'I' for Inactive)
    1  A    between atoms: C_2  and  C_25
    2  A    between atoms: C_6  and  C_15
    3  A    between atoms: C_15  and  C_25
                            x       y       z     vdW  Elec       q    Type
                         _______ _______ _______ _____ _____    ______ ____

>  <TORSDO>
F 3

$$$$
