=
 OpenBabel10272400513D

 25 28  0  0  1  0  0  0  0  0999 V2000
  188.9130  177.3930  143.7750 C   0  0  0  0  0  0  0  0  0  0  0  0
  189.3170  177.3760  142.4310 C   0  0  0  0  0  0  0  0  0  0  0  0
  186.6260  177.9270  143.0870 C   0  0  0  0  0  3  0  0  0  0  0  0
  189.6820  177.1660  144.9290 C   0  0  0  0  0  0  0  0  0  0  0  0
  190.8690  176.7840  147.4290 C   0  0  0  0  0  3  0  0  0  0  0  0
  187.0350  177.8870  141.7450 C   0  0  0  0  0  3  0  0  0  0  0  0
  188.9350  177.2760  146.1010 C   0  0  0  0  0  0  0  0  0  0  0  0
  189.5020  177.0910  147.3580 C   0  0  0  0  0  3  0  0  0  0  0  0
  190.9480  176.9960  141.8170 S   0  0  0  0  0  0  0  0  0  0  0  0
  191.6360  176.6710  146.2550 C   0  0  0  0  0  3  0  0  0  0  0  0
  187.5780  177.6760  144.0780 C   0  0  0  0  0  0  0  0  0  0  0  0
  187.3300  177.6510  145.7460 S   0  0  0  0  0  0  0  0  0  0  0  0
  188.9020  177.4890  140.0470 C   0  0  1  0  0  3  0  0  0  0  0  0
  191.0440  176.8620  144.9960 C   0  0  0  0  0  3  0  0  0  0  0  0
  190.1720  176.6310  140.2010 C   0  0  1  0  0  3  0  0  0  0  0  0
  188.3770  177.6080  141.4330 C   0  0  0  0  0  0  0  0  0  0  0  0
  191.1460  176.7640  139.0640 C   0  0  0  0  0  3  0  0  0  0  0  0
  191.0470  176.0670  137.9240 C   0  0  0  0  0  3  0  0  0  0  0  0
  189.9540  175.0780  137.6510 C   0  0  2  0  0  3  0  0  0  0  0  0
  190.5090  173.8570  136.9380 C   0  0  0  0  0  1  0  0  0  0  0  0
  188.8760  175.7070  136.8320 C   0  0  0  0  0  0  0  0  0  0  0  0
  187.5670  175.6890  137.2940 O   0  0  0  0  0  1  0  0  0  0  0  0
  189.1420  176.2540  135.7290 O   0  0  0  0  0  0  0  0  0  0  0  0
  189.2080  178.8830  139.4980 C   0  0  0  0  0  2  0  0  0  0  0  0
  188.5890  179.0520  138.1940 N   0  0  0  0  0  1  0  0  0  0  0  0
  1 11  2  0  0  0  0
  1  4  1  0  0  0  0
  2  1  1  0  0  0  0
  3 11  1  0  0  0  0
  4 14  2  0  0  0  0
  4  7  1  0  0  0  0
  6  3  2  0  0  0  0
  7  8  2  0  0  0  0
  8  5  1  0  0  0  0
  9  2  1  0  0  0  0
 10  5  2  0  0  0  0
 11 12  1  0  0  0  0
 12  7  1  0  0  0  0
 13 24  1  1  0  0  0
 13 15  1  0  0  0  0
 13 16  1  0  0  0  0
 14 10  1  0  0  0  0
 15 17  1  6  0  0  0
 15  9  1  0  0  0  0
 16  6  1  0  0  0  0
 16  2  2  0  0  0  0
 18 17  2  0  0  0  0
 19 20  1  6  0  0  0
 19 18  1  0  0  0  0
 21 22  1  0  0  0  0
 21 19  1  0  0  0  0
 23 21  2  0  0  0  0
 25 24  1  0  0  0  0
M  END
>  <MODEL>
1

>  <REMARK>
 VINA RESULT:      -7.9      0.000      0.000
  Name = 
  4 active torsions:
  status: ('A' for Active; 'I' for Inactive)
    1  A    between atoms: C_2  and  C_21
    2  A    between atoms: C_6  and  C_23
    3  A    between atoms: C_13  and  C_20
    4  A    between atoms: C_15  and  C_21
                            x       y       z     vdW  Elec       q    Type
                         _______ _______ _______ _____ _____    ______ ____

>  <TORSDO>
F 4

$$$$
=
 OpenBabel10272400513D

 25 28  0  0  1  0  0  0  0  0999 V2000
  187.2250  177.9400  144.7720 C   0  0  0  0  0  0  0  0  0  0  0  0
  188.2250  177.5320  143.8750 C   0  0  0  0  0  0  0  0  0  0  0  0
  188.8440  177.8940  146.6060 C   0  0  0  0  0  3  0  0  0  0  0  0
  185.8710  178.2160  144.5160 C   0  0  0  0  0  0  0  0  0  0  0  0
  183.1500  178.8400  144.4050 C   0  0  0  0  0  3  0  0  0  0  0  0
  189.8420  177.5070  145.6980 C   0  0  0  0  0  3  0  0  0  0  0  0
  185.1740  178.5880  145.6650 C   0  0  0  0  0  0  0  0  0  0  0  0
  183.8190  178.9040  145.6360 C   0  0  0  0  0  3  0  0  0  0  0  0
  188.0430  177.3050  142.1150 S   0  0  0  0  0  0  0  0  0  0  0  0
  183.8400  178.4650  143.2370 C   0  0  0  0  0  3  0  0  0  0  0  0
  187.5520  178.1050  146.1210 C   0  0  0  0  0  0  0  0  0  0  0  0
  186.1980  178.5850  147.0040 S   0  0  0  0  0  0  0  0  0  0  0  0
  190.5090  176.9780  143.2890 C   0  0  1  0  0  3  0  0  0  0  0  0
  185.2080  178.1500  143.2880 C   0  0  0  0  0  3  0  0  0  0  0  0
  189.8610  177.4750  141.9830 C   0  0  1  0  0  3  0  0  0  0  0  0
  189.5200  177.3330  144.3410 C   0  0  0  0  0  0  0  0  0  0  0  0
  190.4010  176.8230  140.7410 C   0  0  0  0  0  3  0  0  0  0  0  0
  190.0360  177.1810  139.5030 C   0  0  0  0  0  3  0  0  0  0  0  0
  189.0510  178.2740  139.2140 C   0  0  2  0  0  3  0  0  0  0  0  0
  187.6290  177.7580  139.3600 C   0  0  0  0  0  1  0  0  0  0  0  0
  189.2640  178.8150  137.8390 C   0  0  0  0  0  0  0  0  0  0  0  0
  189.7980  177.9940  136.8560 O   0  0  0  0  0  0  0  0  0  0  0  0
  188.9630  180.0070  137.5630 O   0  0  0  0  0  1  0  0  0  0  0  0
  190.7290  175.4660  143.2870 C   0  0  0  0  0  2  0  0  0  0  0  0
  191.9440  175.1370  144.0130 N   0  0  0  0  0  1  0  0  0  0  0  0
  1 11  2  0  0  0  0
  2 16  2  0  0  0  0
  2  1  1  0  0  0  0
  4  1  1  0  0  0  0
  4  7  1  0  0  0  0
  5  8  1  0  0  0  0
  6  3  2  0  0  0  0
  7 12  1  0  0  0  0
  8  7  2  0  0  0  0
  9  2  1  0  0  0  0
 10 14  1  0  0  0  0
 10  5  2  0  0  0  0
 11  3  1  0  0  0  0
 11 12  1  0  0  0  0
 13 24  1  6  0  0  0
 13 16  1  0  0  0  0
 14  4  2  0  0  0  0
 15 17  1  6  0  0  0
 15  9  1  0  0  0  0
 15 13  1  0  0  0  0
 16  6  1  0  0  0  0
 18 17  2  0  0  0  0
 19 20  1  6  0  0  0
 19 18  1  0  0  0  0
 21 19  1  0  0  0  0
 22 21  2  0  0  0  0
 23 21  1  0  0  0  0
 24 25  1  0  0  0  0
M  END
>  <MODEL>
2

>  <REMARK>
 VINA RESULT:      -7.7      2.584      4.587
  Name = 
  4 active torsions:
  status: ('A' for Active; 'I' for Inactive)
    1  A    between atoms: C_2  and  C_21
    2  A    between atoms: C_6  and  C_23
    3  A    between atoms: C_13  and  C_20
    4  A    between atoms: C_15  and  C_21
                            x       y       z     vdW  Elec       q    Type
                         _______ _______ _______ _____ _____    ______ ____

>  <TORSDO>
F 4

$$$$
=
 OpenBabel10272400513D

 25 28  0  0  1  0  0  0  0  0999 V2000
  188.1560  177.5790  142.2420 C   0  0  0  0  0  0  0  0  0  0  0  0
  186.9140  177.9990  142.7430 C   0  0  0  0  0  0  0  0  0  0  0  0
  188.6990  176.5790  144.4080 C   0  0  0  0  0  3  0  0  0  0  0  0
  188.6950  177.7630  140.9570 C   0  0  0  0  0  0  0  0  0  0  0  0
  190.0920  177.9320  138.5440 C   0  0  0  0  0  3  0  0  0  0  0  0
  187.4460  176.9850  144.8950 C   0  0  0  0  0  3  0  0  0  0  0  0
  189.9690  177.2110  140.8270 C   0  0  0  0  0  0  0  0  0  0  0  0
  190.6860  177.2820  139.6360 C   0  0  0  0  0  3  0  0  0  0  0  0
  185.6370  178.8540  141.8370 S   0  0  0  0  0  0  0  0  0  0  0  0
  188.8080  178.4950  138.6600 C   0  0  0  0  0  3  0  0  0  0  0  0
  189.0270  176.8840  143.0850 C   0  0  0  0  0  0  0  0  0  0  0  0
  190.4530  176.4930  142.2740 S   0  0  0  0  0  0  0  0  0  0  0  0
  185.1990  178.1180  144.4500 C   0  0  1  0  0  3  0  0  0  0  0  0
  188.1020  178.4120  139.8710 C   0  0  0  0  0  3  0  0  0  0  0  0
  184.4550  178.2810  143.1110 C   0  0  1  0  0  3  0  0  0  0  0  0
  186.5670  177.6890  144.0540 C   0  0  0  0  0  0  0  0  0  0  0  0
  183.2370  179.1580  143.1880 C   0  0  0  0  0  3  0  0  0  0  0  0
  182.2460  179.1220  142.2880 C   0  0  0  0  0  3  0  0  0  0  0  0
  182.2370  178.2020  141.1040 C   0  0  2  0  0  3  0  0  0  0  0  0
  182.6570  178.9480  139.8490 C   0  0  0  0  0  1  0  0  0  0  0  0
  180.8800  177.6060  140.9190 C   0  0  0  0  0  0  0  0  0  0  0  0
  180.6080  176.8650  139.7780 O   0  0  0  0  0  0  0  0  0  0  0  0
  179.9820  177.7680  141.7880 O   0  0  0  0  0  1  0  0  0  0  0  0
  185.2840  179.4290  145.2300 C   0  0  0  0  0  2  0  0  0  0  0  0
  185.2320  179.1660  146.6580 N   0  0  0  0  0  1  0  0  0  0  0  0
  1  2  2  0  0  0  0
  1 11  1  0  0  0  0
  2 16  1  0  0  0  0
  3  6  1  0  0  0  0
  4  1  1  0  0  0  0
  5 10  2  0  0  0  0
  5  8  1  0  0  0  0
  7  4  1  0  0  0  0
  7 12  1  0  0  0  0
  8  7  2  0  0  0  0
  9  2  1  0  0  0  0
  9 15  1  0  0  0  0
 10 14  1  0  0  0  0
 11  3  2  0  0  0  0
 12 11  1  0  0  0  0
 13 24  1  6  0  0  0
 14  4  2  0  0  0  0
 15 17  1  1  0  0  0
 15 13  1  0  0  0  0
 16 13  1  0  0  0  0
 16  6  2  0  0  0  0
 18 17  2  0  0  0  0
 19 20  1  6  0  0  0
 19 18  1  0  0  0  0
 21 19  1  0  0  0  0
 21 23  1  0  0  0  0
 22 21  2  0  0  0  0
 24 25  1  0  0  0  0
M  END
>  <MODEL>
3

>  <REMARK>
 VINA RESULT:      -7.3      3.949      7.018
  Name = 
  4 active torsions:
  status: ('A' for Active; 'I' for Inactive)
    1  A    between atoms: C_2  and  C_21
    2  A    between atoms: C_6  and  C_23
    3  A    between atoms: C_13  and  C_20
    4  A    between atoms: C_15  and  C_21
                            x       y       z     vdW  Elec       q    Type
                         _______ _______ _______ _____ _____    ______ ____

>  <TORSDO>
F 4

$$$$
=
 OpenBabel10272400513D

 25 28  0  0  1  0  0  0  0  0999 V2000
  187.8050  177.7220  142.9380 C   0  0  0  0  0  0  0  0  0  0  0  0
  188.5170  177.5620  141.7380 C   0  0  0  0  0  0  0  0  0  0  0  0
  185.8530  178.4970  141.6840 C   0  0  0  0  0  3  0  0  0  0  0  0
  188.2320  177.4770  144.2540 C   0  0  0  0  0  0  0  0  0  0  0  0
  188.7120  177.1160  146.9830 C   0  0  0  0  0  3  0  0  0  0  0  0
  186.5650  178.3140  140.4880 C   0  0  0  0  0  3  0  0  0  0  0  0
  187.2470  177.7610  145.1980 C   0  0  0  0  0  0  0  0  0  0  0  0
  187.4610  177.5900  146.5630 C   0  0  0  0  0  3  0  0  0  0  0  0
  190.1780  176.9360  141.5640 S   0  0  0  0  0  0  0  0  0  0  0  0
  189.7170  176.8260  146.0420 C   0  0  0  0  0  3  0  0  0  0  0  0
  186.4910  178.1930  142.8880 C   0  0  0  0  0  0  0  0  0  0  0  0
  185.8450  178.3140  144.4420 S   0  0  0  0  0  0  0  0  0  0  0  0
  188.7130  177.5660  139.3240 C   0  0  1  0  0  3  0  0  0  0  0  0
  189.4810  177.0050  144.6690 C   0  0  0  0  0  3  0  0  0  0  0  0
  189.7730  176.5650  139.8180 C   0  0  1  0  0  3  0  0  0  0  0  0
  187.8890  177.8450  140.5300 C   0  0  0  0  0  0  0  0  0  0  0  0
  191.0020  176.4950  138.9560 C   0  0  0  0  0  3  0  0  0  0  0  0
  191.0580  175.8070  137.8080 C   0  0  0  0  0  3  0  0  0  0  0  0
  189.9020  175.0300  137.2510 C   0  0  2  0  0  3  0  0  0  0  0  0
  190.3130  173.5940  136.9730 C   0  0  0  0  0  1  0  0  0  0  0  0
  189.3980  175.6740  136.0020 C   0  0  0  0  0  0  0  0  0  0  0  0
  190.2270  175.7580  134.8930 O   0  0  0  0  0  0  0  0  0  0  0  0
  188.2280  176.1400  135.9450 O   0  0  0  0  0  1  0  0  0  0  0  0
  189.3350  178.8690  138.8210 C   0  0  0  0  0  2  0  0  0  0  0  0
  188.6400  179.3280  137.6310 N   0  0  0  0  0  1  0  0  0  0  0  0
  1  4  1  0  0  0  0
  2  1  1  0  0  0  0
  3 11  1  0  0  0  0
  4 14  2  0  0  0  0
  4  7  1  0  0  0  0
  6 16  1  0  0  0  0
  6  3  2  0  0  0  0
  7  8  2  0  0  0  0
  8  5  1  0  0  0  0
  9  2  1  0  0  0  0
 10  5  2  0  0  0  0
 11  1  2  0  0  0  0
 11 12  1  0  0  0  0
 12  7  1  0  0  0  0
 13 24  1  1  0  0  0
 13 15  1  0  0  0  0
 13 16  1  0  0  0  0
 14 10  1  0  0  0  0
 15 17  1  6  0  0  0
 15  9  1  0  0  0  0
 16  2  2  0  0  0  0
 18 17  2  0  0  0  0
 19 20  1  6  0  0  0
 19 18  1  0  0  0  0
 21 19  1  0  0  0  0
 22 21  2  0  0  0  0
 23 21  1  0  0  0  0
 25 24  1  0  0  0  0
M  END
>  <MODEL>
4

>  <REMARK>
 VINA RESULT:      -7.2      1.042      1.508
  Name = 
  4 active torsions:
  status: ('A' for Active; 'I' for Inactive)
    1  A    between atoms: C_2  and  C_21
    2  A    between atoms: C_6  and  C_23
    3  A    between atoms: C_13  and  C_20
    4  A    between atoms: C_15  and  C_21
                            x       y       z     vdW  Elec       q    Type
                         _______ _______ _______ _____ _____    ______ ____

>  <TORSDO>
F 4

$$$$
=
 OpenBabel10272400513D

 25 28  0  0  1  0  0  0  0  0999 V2000
  186.9670  178.0270  142.4700 C   0  0  0  0  0  0  0  0  0  0  0  0
  188.2330  177.4270  142.5620 C   0  0  0  0  0  0  0  0  0  0  0  0
  187.2830  178.3370  140.0630 C   0  0  0  0  0  3  0  0  0  0  0  0
  186.0300  178.2670  143.4890 C   0  0  0  0  0  0  0  0  0  0  0  0
  183.9380  178.9120  145.2250 C   0  0  0  0  0  3  0  0  0  0  0  0
  188.5380  177.7160  140.1610 C   0  0  0  0  0  3  0  0  0  0  0  0
  184.8780  178.8970  143.0200 C   0  0  0  0  0  0  0  0  0  0  0  0
  183.8220  179.2290  143.8630 C   0  0  0  0  0  3  0  0  0  0  0  0
  188.9790  176.7430  144.0300 S   0  0  0  0  0  0  0  0  0  0  0  0
  185.0950  178.2770  145.7130 C   0  0  0  0  0  3  0  0  0  0  0  0
  186.5200  178.4770  141.2250 C   0  0  0  0  0  0  0  0  0  0  0  0
  184.9880  179.1680  141.3590 S   0  0  0  0  0  0  0  0  0  0  0  0
  190.2840  176.5500  141.6170 C   0  0  1  0  0  3  0  0  0  0  0  0
  186.1490  177.9510  144.8450 C   0  0  0  0  0  3  0  0  0  0  0  0
  190.0730  175.7730  142.9300 C   0  0  1  0  0  3  0  0  0  0  0  0
  188.9970  177.2660  141.4110 C   0  0  0  0  0  0  0  0  0  0  0  0
  191.3480  175.3670  143.6160 C   0  0  0  0  0  3  0  0  0  0  0  0
  191.7920  175.9370  144.7440 C   0  0  0  0  0  3  0  0  0  0  0  0
  191.0670  177.0430  145.4520 C   0  0  2  0  0  3  0  0  0  0  0  0
  191.6230  178.3940  145.0340 C   0  0  0  0  0  1  0  0  0  0  0  0
  191.1810  176.8740  146.9310 C   0  0  0  0  0  0  0  0  0  0  0  0
  192.3250  176.3020  147.4690 O   0  0  0  0  0  0  0  0  0  0  0  0
  190.2510  177.2470  147.6950 O   0  0  0  0  0  1  0  0  0  0  0  0
  191.4200  177.5660  141.7210 C   0  0  0  0  0  2  0  0  0  0  0  0
  192.2030  177.5670  140.4970 N   0  0  0  0  0  1  0  0  0  0  0  0
  1  2  1  0  0  0  0
  1  4  1  0  0  0  0
  2  9  1  0  0  0  0
  3  6  2  0  0  0  0
  3 11  1  0  0  0  0
  4 14  1  0  0  0  0
  5 10  1  0  0  0  0
  6 16  1  0  0  0  0
  7  4  2  0  0  0  0
  7  8  1  0  0  0  0
  8  5  2  0  0  0  0
 11 12  1  0  0  0  0
 11  1  2  0  0  0  0
 12  7  1  0  0  0  0
 13 24  1  1  0  0  0
 13 15  1  0  0  0  0
 14 10  2  0  0  0  0
 15 17  1  1  0  0  0
 15  9  1  0  0  0  0
 16 13  1  0  0  0  0
 16  2  2  0  0  0  0
 17 18  2  0  0  0  0
 18 19  1  0  0  0  0
 19 20  1  6  0  0  0
 19 21  1  0  0  0  0
 21 22  2  0  0  0  0
 21 23  1  0  0  0  0
 25 24  1  0  0  0  0
M  END
>  <MODEL>
5

>  <REMARK>
 VINA RESULT:      -7.2      4.018      6.131
  Name = 
  4 active torsions:
  status: ('A' for Active; 'I' for Inactive)
    1  A    between atoms: C_2  and  C_21
    2  A    between atoms: C_6  and  C_23
    3  A    between atoms: C_13  and  C_20
    4  A    between atoms: C_15  and  C_21
                            x       y       z     vdW  Elec       q    Type
                         _______ _______ _______ _____ _____    ______ ____

>  <TORSDO>
F 4

$$$$
=
 OpenBabel10272400513D

 25 28  0  0  1  0  0  0  0  0999 V2000
  188.0290  177.7040  142.8540 C   0  0  0  0  0  0  0  0  0  0  0  0
  186.6790  178.0450  142.6760 C   0  0  0  0  0  0  0  0  0  0  0  0
  187.6280  177.3420  145.2410 C   0  0  0  0  0  3  0  0  0  0  0  0
  189.0580  177.6520  141.8990 C   0  0  0  0  0  0  0  0  0  0  0  0
  191.3440  177.4410  140.3070 C   0  0  0  0  0  3  0  0  0  0  0  0
  186.2760  177.6650  145.0490 C   0  0  0  0  0  3  0  0  0  0  0  0
  190.2830  177.2780  142.4500 C   0  0  0  0  0  0  0  0  0  0  0  0
  191.4360  177.1660  141.6790 C   0  0  0  0  0  3  0  0  0  0  0  0
  185.8840  178.4610  141.1340 S   0  0  0  0  0  0  0  0  0  0  0  0
  190.1160  177.8210  139.7360 C   0  0  0  0  0  3  0  0  0  0  0  0
  188.4790  177.3670  144.1340 C   0  0  0  0  0  0  0  0  0  0  0  0
  190.1260  177.0060  144.1070 S   0  0  0  0  0  0  0  0  0  0  0  0
  184.3980  178.3150  143.4440 C   0  0  1  0  0  3  0  0  0  0  0  0
  188.9640  177.9280  140.5320 C   0  0  0  0  0  3  0  0  0  0  0  0
  184.2900  178.0420  141.9320 C   0  0  1  0  0  3  0  0  0  0  0  0
  185.8170  178.0100  143.7660 C   0  0  0  0  0  0  0  0  0  0  0  0
  183.1290  178.7240  141.2640 C   0  0  0  0  0  3  0  0  0  0  0  0
  182.4090  178.1620  140.2840 C   0  0  0  0  0  3  0  0  0  0  0  0
  182.6780  176.7890  139.7430 C   0  0  2  0  0  3  0  0  0  0  0  0
  183.4310  176.8780  138.4260 C   0  0  0  0  0  1  0  0  0  0  0  0
  181.3980  176.0440  139.5560 C   0  0  0  0  0  0  0  0  0  0  0  0
  180.2590  176.4610  140.2310 O   0  0  0  0  0  1  0  0  0  0  0  0
  181.3410  175.0430  138.7930 O   0  0  0  0  0  0  0  0  0  0  0  0
  184.0990  179.7730  143.7920 C   0  0  0  0  0  2  0  0  0  0  0  0
  182.8050  179.8770  144.4450 N   0  0  0  0  0  1  0  0  0  0  0  0
  1 11  1  0  0  0  0
  2  1  2  0  0  0  0
  2 16  1  0  0  0  0
  4  7  1  0  0  0  0
  4  1  1  0  0  0  0
  5  8  1  0  0  0  0
  6  3  1  0  0  0  0
  7 12  1  0  0  0  0
  8  7  2  0  0  0  0
  9 15  1  0  0  0  0
  9  2  1  0  0  0  0
 10  5  2  0  0  0  0
 10 14  1  0  0  0  0
 11  3  2  0  0  0  0
 12 11  1  0  0  0  0
 13 16  1  0  0  0  0
 13 24  1  6  0  0  0
 14  4  2  0  0  0  0
 15 17  1  6  0  0  0
 15 13  1  0  0  0  0
 16  6  2  0  0  0  0
 18 17  2  0  0  0  0
 19 20  1  6  0  0  0
 19 18  1  0  0  0  0
 21 19  1  0  0  0  0
 21 22  1  0  0  0  0
 23 21  2  0  0  0  0
 24 25  1  0  0  0  0
M  END
>  <MODEL>
6

>  <REMARK>
 VINA RESULT:      -6.8      3.875      6.101
  Name = 
  4 active torsions:
  status: ('A' for Active; 'I' for Inactive)
    1  A    between atoms: C_2  and  C_21
    2  A    between atoms: C_6  and  C_23
    3  A    between atoms: C_13  and  C_20
    4  A    between atoms: C_15  and  C_21
                            x       y       z     vdW  Elec       q    Type
                         _______ _______ _______ _____ _____    ______ ____

>  <TORSDO>
F 4

$$$$
=
 OpenBabel10272400513D

 25 28  0  0  1  0  0  0  0  0999 V2000
  187.8220  177.5870  145.2290 C   0  0  0  0  0  0  0  0  0  0  0  0
  186.9260  178.0010  144.2310 C   0  0  0  0  0  0  0  0  0  0  0  0
  186.0190  177.6550  146.8820 C   0  0  0  0  0  3  0  0  0  0  0  0
  189.1920  177.2960  145.1170 C   0  0  0  0  0  0  0  0  0  0  0  0
  191.9030  176.6440  145.2940 C   0  0  0  0  0  3  0  0  0  0  0  0
  185.1260  178.0500  145.8730 C   0  0  0  0  0  3  0  0  0  0  0  0
  189.7600  176.9200  146.3340 C   0  0  0  0  0  0  0  0  0  0  0  0
  191.1080  176.5910  146.4490 C   0  0  0  0  0  3  0  0  0  0  0  0
  187.2940  178.2210  142.4990 S   0  0  0  0  0  0  0  0  0  0  0  0
  191.3440  177.0220  144.0600 C   0  0  0  0  0  3  0  0  0  0  0  0
  187.3530  177.4290  146.5360 C   0  0  0  0  0  0  0  0  0  0  0  0
  188.6010  176.9380  147.5580 S   0  0  0  0  0  0  0  0  0  0  0  0
  184.7220  178.5770  143.4060 C   0  0  1  0  0  3  0  0  0  0  0  0
  189.9810  177.3510  143.9660 C   0  0  0  0  0  3  0  0  0  0  0  0
  185.4990  178.0690  142.1770 C   0  0  1  0  0  3  0  0  0  0  0  0
  185.5920  178.2150  144.5570 C   0  0  0  0  0  0  0  0  0  0  0  0
  185.1000  178.7220  140.8840 C   0  0  0  0  0  3  0  0  0  0  0  0
  183.9810  178.4110  140.2150 C   0  0  0  0  0  3  0  0  0  0  0  0
  182.9990  177.3780  140.6820 C   0  0  2  0  0  3  0  0  0  0  0  0
  182.8490  176.2810  139.6410 C   0  0  0  0  0  1  0  0  0  0  0  0
  181.6750  178.0080  140.9610 C   0  0  0  0  0  0  0  0  0  0  0  0
  180.5260  177.4570  140.4120 O   0  0  0  0  0  0  0  0  0  0  0  0
  181.5900  179.0330  141.6890 O   0  0  0  0  0  1  0  0  0  0  0  0
  184.5190  180.0910  143.3780 C   0  0  0  0  0  2  0  0  0  0  0  0
  183.3090  180.4460  144.0990 N   0  0  0  0  0  1  0  0  0  0  0  0
  1 11  2  0  0  0  0
  2 16  2  0  0  0  0
  2  1  1  0  0  0  0
  4  1  1  0  0  0  0
  4  7  1  0  0  0  0
  5  8  1  0  0  0  0
  6  3  2  0  0  0  0
  7  8  2  0  0  0  0
  7 12  1  0  0  0  0
  9  2  1  0  0  0  0
 10  5  2  0  0  0  0
 11  3  1  0  0  0  0
 11 12  1  0  0  0  0
 13 24  1  6  0  0  0
 13 16  1  0  0  0  0
 14 10  1  0  0  0  0
 14  4  2  0  0  0  0
 15 17  1  6  0  0  0
 15  9  1  0  0  0  0
 15 13  1  0  0  0  0
 16  6  1  0  0  0  0
 18 19  1  0  0  0  0
 18 17  2  0  0  0  0
 19 20  1  6  0  0  0
 19 21  1  0  0  0  0
 21 23  1  0  0  0  0
 22 21  2  0  0  0  0
 24 25  1  0  0  0  0
M  END
>  <MODEL>
7

>  <REMARK>
 VINA RESULT:      -6.8      4.594      5.469
  Name = 
  4 active torsions:
  status: ('A' for Active; 'I' for Inactive)
    1  A    between atoms: C_2  and  C_21
    2  A    between atoms: C_6  and  C_23
    3  A    between atoms: C_13  and  C_20
    4  A    between atoms: C_15  and  C_21
                            x       y       z     vdW  Elec       q    Type
                         _______ _______ _______ _____ _____    ______ ____

>  <TORSDO>
F 4

$$$$
=
 OpenBabel10272400513D

 25 28  0  0  1  0  0  0  0  0999 V2000
  186.9410  178.2120  145.6080 C   0  0  0  0  0  0  0  0  0  0  0  0
  188.2980  178.0610  145.2840 C   0  0  0  0  0  0  0  0  0  0  0  0
  187.4780  177.9890  147.9850 C   0  0  0  0  0  3  0  0  0  0  0  0
  185.8460  178.4060  144.7490 C   0  0  0  0  0  0  0  0  0  0  0  0
  183.4440  178.7920  143.3760 C   0  0  0  0  0  3  0  0  0  0  0  0
  188.8360  177.8600  147.6520 C   0  0  0  0  0  3  0  0  0  0  0  0
  184.6370  178.5050  145.4350 C   0  0  0  0  0  0  0  0  0  0  0  0
  183.4270  178.6970  144.7750 C   0  0  0  0  0  3  0  0  0  0  0  0
  189.0140  178.1330  143.6520 S   0  0  0  0  0  0  0  0  0  0  0  0
  184.6560  178.6930  142.6690 C   0  0  0  0  0  3  0  0  0  0  0  0
  186.5560  178.1650  146.9510 C   0  0  0  0  0  0  0  0  0  0  0  0
  184.8870  178.3580  147.0960 S   0  0  0  0  0  0  0  0  0  0  0  0
  190.6430  177.8280  145.8470 C   0  0  1  0  0  3  0  0  0  0  0  0
  185.8660  178.4990  143.3550 C   0  0  0  0  0  3  0  0  0  0  0  0
  190.6200  178.4870  144.4550 C   0  0  1  0  0  3  0  0  0  0  0  0
  189.2300  177.9010  146.3040 C   0  0  0  0  0  0  0  0  0  0  0  0
  191.7840  178.1160  143.5790 C   0  0  0  0  0  3  0  0  0  0  0  0
  191.6610  177.3960  142.4560 C   0  0  0  0  0  3  0  0  0  0  0  0
  190.3490  176.8800  141.9440 C   0  0  2  0  0  3  0  0  0  0  0  0
  190.1070  175.4640  142.4380 C   0  0  0  0  0  1  0  0  0  0  0  0
  190.3240  176.9170  140.4520 C   0  0  0  0  0  0  0  0  0  0  0  0
  189.7070  177.9780  139.8040 O   0  0  0  0  0  1  0  0  0  0  0  0
  190.8570  175.9970  139.7760 O   0  0  0  0  0  0  0  0  0  0  0  0
  191.0840  176.3660  145.7880 C   0  0  0  0  0  2  0  0  0  0  0  0
  191.9890  176.0730  146.8860 N   0  0  0  0  0  1  0  0  0  0  0  0
  1 11  1  0  0  0  0
  2  1  2  0  0  0  0
  2 16  1  0  0  0  0
  4  7  1  0  0  0  0
  4  1  1  0  0  0  0
  5  8  1  0  0  0  0
  6  3  1  0  0  0  0
  7 12  1  0  0  0  0
  8  7  2  0  0  0  0
  9 15  1  0  0  0  0
  9  2  1  0  0  0  0
 10 14  1  0  0  0  0
 10  5  2  0  0  0  0
 11 12  1  0  0  0  0
 11  3  2  0  0  0  0
 13 24  1  6  0  0  0
 13 16  1  0  0  0  0
 14  4  2  0  0  0  0
 15 17  1  6  0  0  0
 15 13  1  0  0  0  0
 16  6  2  0  0  0  0
 18 17  2  0  0  0  0
 19 20  1  6  0  0  0
 19 18  1  0  0  0  0
 21 19  1  0  0  0  0
 22 21  1  0  0  0  0
 23 21  2  0  0  0  0
 24 25  1  0  0  0  0
M  END
>  <MODEL>
8

>  <REMARK>
 VINA RESULT:      -6.8      3.105      5.455
  Name = 
  4 active torsions:
  status: ('A' for Active; 'I' for Inactive)
    1  A    between atoms: C_2  and  C_21
    2  A    between atoms: C_6  and  C_23
    3  A    between atoms: C_13  and  C_20
    4  A    between atoms: C_15  and  C_21
                            x       y       z     vdW  Elec       q    Type
                         _______ _______ _______ _____ _____    ______ ____

>  <TORSDO>
F 4

$$$$
=
 OpenBabel10272400513D

 25 28  0  0  1  0  0  0  0  0999 V2000
  185.8710  178.3900  142.3300 C   0  0  0  0  0  0  0  0  0  0  0  0
  187.1140  178.1670  141.7160 C   0  0  0  0  0  0  0  0  0  0  0  0
  184.8140  178.5860  140.1320 C   0  0  0  0  0  3  0  0  0  0  0  0
  185.5630  178.4440  143.6990 C   0  0  0  0  0  0  0  0  0  0  0  0
  184.5690  178.6270  146.3040 C   0  0  0  0  0  3  0  0  0  0  0  0
  186.0570  178.3410  139.5270 C   0  0  0  0  0  3  0  0  0  0  0  0
  184.2120  178.6970  143.9340 C   0  0  0  0  0  0  0  0  0  0  0  0
  183.6920  178.7940  145.2220 C   0  0  0  0  0  3  0  0  0  0  0  0
  188.6600  177.8290  142.5390 S   0  0  0  0  0  0  0  0  0  0  0  0
  185.9350  178.3720  146.0830 C   0  0  0  0  0  3  0  0  0  0  0  0
  184.7480  178.6030  141.5270 C   0  0  0  0  0  0  0  0  0  0  0  0
  183.3790  178.8580  142.4780 S   0  0  0  0  0  0  0  0  0  0  0  0
  188.5430  177.8110  139.7920 C   0  0  1  0  0  3  0  0  0  0  0  0
  186.4390  178.2790  144.7750 C   0  0  0  0  0  3  0  0  0  0  0  0
  189.2540  177.1110  140.9650 C   0  0  1  0  0  3  0  0  0  0  0  0
  187.1930  178.1310  140.3280 C   0  0  0  0  0  0  0  0  0  0  0  0
  190.7540  177.1230  140.8690 C   0  0  0  0  0  3  0  0  0  0  0  0
  191.5580  177.3130  141.9240 C   0  0  0  0  0  3  0  0  0  0  0  0
  191.0550  177.5350  143.3190 C   0  0  2  0  0  3  0  0  0  0  0  0
  191.5910  178.8420  143.8750 C   0  0  0  0  0  1  0  0  0  0  0  0
  191.4520  176.3970  144.2010 C   0  0  0  0  0  0  0  0  0  0  0  0
  191.6110  176.6110  145.5630 O   0  0  0  0  0  1  0  0  0  0  0  0
  191.6440  175.2480  143.7220 O   0  0  0  0  0  0  0  0  0  0  0  0
  189.2440  179.1040  139.3770 C   0  0  0  0  0  2  0  0  0  0  0  0
  188.9820  179.3870  137.9760 N   0  0  0  0  0  1  0  0  0  0  0  0
  1  4  1  0  0  0  0
  2  1  1  0  0  0  0
  2  9  1  0  0  0  0
  3 11  1  0  0  0  0
  4  7  2  0  0  0  0
  4 14  1  0  0  0  0
  6  3  2  0  0  0  0
  6 16  1  0  0  0  0
  7  8  1  0  0  0  0
  8  5  2  0  0  0  0
 10  5  1  0  0  0  0
 11  1  2  0  0  0  0
 11 12  1  0  0  0  0
 12  7  1  0  0  0  0
 13 24  1  1  0  0  0
 13 16  1  0  0  0  0
 13 15  1  0  0  0  0
 14 10  2  0  0  0  0
 15 17  1  6  0  0  0
 15  9  1  0  0  0  0
 16  2  2  0  0  0  0
 17 18  2  0  0  0  0
 18 19  1  0  0  0  0
 19 20  1  1  0  0  0
 19 21  1  0  0  0  0
 21 22  1  0  0  0  0
 23 21  2  0  0  0  0
 25 24  1  0  0  0  0
M  END
>  <MODEL>
9

>  <REMARK>
 VINA RESULT:      -6.4      3.299      5.052
  Name = 
  4 active torsions:
  status: ('A' for Active; 'I' for Inactive)
    1  A    between atoms: C_2  and  C_21
    2  A    between atoms: C_6  and  C_23
    3  A    between atoms: C_13  and  C_20
    4  A    between atoms: C_15  and  C_21
                            x       y       z     vdW  Elec       q    Type
                         _______ _______ _______ _____ _____    ______ ____

>  <TORSDO>
F 4

$$$$
