=
 OpenBabel10272400133D

 31 34  0  0  1  0  0  0  0  0999 V2000
  189.4580  177.2980  140.8360 C   0  0  0  0  0  0  0  0  0  0  0  0
  187.5980  177.8160  144.1390 C   0  0  2  0  0  3  0  0  0  0  0  0
  188.6700  178.2060  145.1800 C   0  0  2  0  0  3  0  0  0  0  0  0
  190.7500  176.7890  144.8920 C   0  0  0  0  0  2  0  0  0  0  0  0
  187.9700  177.9180  142.6650 C   0  0  0  0  0  0  0  0  0  0  0  0
  188.5720  177.8520  139.9130 C   0  0  0  0  0  3  0  0  0  0  0  0
  190.1600  178.1900  144.8050 C   0  0  0  0  0  2  0  0  0  0  0  0
  185.2450  178.4900  143.4600 C   0  0  1  0  0  3  0  0  0  0  0  0
  190.7280  176.6820  140.3730 C   0  0  0  0  0  1  0  0  0  0  0  0
  186.7830  177.5210  146.7680 C   0  0  0  0  0  2  0  0  0  0  0  0
  191.3650  176.5180  146.2650 C   0  0  0  0  0  2  0  0  0  0  0  0
  185.7320  179.0130  142.1130 C   0  0  0  0  0  2  0  0  0  0  0  0
  186.3590  178.6580  144.4970 C   0  0  1  0  0  3  0  0  0  0  0  0
  189.1480  177.3170  142.1970 C   0  0  0  0  0  3  0  0  0  0  0  0
  190.4980  176.9800  147.4360 C   0  0  0  0  0  2  0  0  0  0  0  0
  187.0480  178.4190  141.7110 C   0  0  0  0  0  0  0  0  0  0  0  0
  187.3700  178.4060  140.3500 C   0  0  0  0  0  3  0  0  0  0  0  0
  185.8870  178.4550  145.9500 C   0  0  0  0  0  2  0  0  0  0  0  0
  188.2780  177.8410  146.6400 C   0  0  1  0  0  3  0  0  0  0  0  0
  189.0330  176.6450  147.2140 C   0  0  0  0  0  2  0  0  0  0  0  0
  183.9330  179.1790  143.8570 C   0  0  0  0  0  2  0  0  0  0  0  0
  181.7210  178.3810  144.3630 O   0  0  0  0  0  1  0  0  0  0  0  0
  182.6830  178.4490  143.3530 C   0  0  1  0  0  3  0  0  0  0  0  0
  180.7010  179.6540  142.3880 C   0  0  0  0  0  1  0  0  0  0  0  0
  182.0890  179.1000  142.1010 C   0  0  2  0  0  3  0  0  0  0  0  0
  181.2270  177.4320  140.6640 O   0  0  0  0  0  0  0  0  0  0  0  0
  182.1410  178.2140  140.8750 C   0  0  0  0  0  0  0  0  0  0  0  0
  183.2870  178.2620  139.9060 C   0  0  0  0  0  2  0  0  0  0  0  0
  183.3160  179.5680  139.1870 C   0  0  0  0  0  0  0  0  0  0  0  0
  184.3870  180.2250  139.1130 O   0  0  0  0  0  0  0  0  0  0  0  0
  182.1370  180.0620  138.5650 N   0  0  0  0  0  1  0  0  0  0  0  0
  1 14  1  0  0  0  0
  2  5  1  6  0  0  0
  2 13  1  0  0  0  0
  2  3  1  0  0  0  0
  3  7  1  6  0  0  0
  3 19  1  0  0  0  0
  4 11  1  0  0  0  0
  6 17  1  0  0  0  0
  6  1  2  0  0  0  0
  7  4  1  0  0  0  0
  8 21  1  1  0  0  0
  8 13  1  0  0  0  0
  9  1  1  0  0  0  0
 11 15  1  0  0  0  0
 12  8  1  0  0  0  0
 13 18  1  1  0  0  0
 14  5  2  0  0  0  0
 16 12  1  0  0  0  0
 16  5  1  0  0  0  0
 17 16  2  0  0  0  0
 18 10  1  0  0  0  0
 19 10  1  6  0  0  0
 19 20  1  0  0  0  0
 20 15  1  0  0  0  0
 23 21  1  0  0  0  0
 23 22  1  1  0  0  0
 25 24  1  1  0  0  0
 25 23  1  0  0  0  0
 26 27  2  0  0  0  0
 27 25  1  0  0  0  0
 28 27  1  0  0  0  0
 29 28  1  0  0  0  0
 30 29  2  0  0  0  0
 31 29  1  0  0  0  0
M  END
>  <MODEL>
1

>  <REMARK>
 VINA RESULT:      -9.5      0.000      0.000
  Name = 
  6 active torsions:
  status: ('A' for Active; 'I' for Inactive)
    1  A    between atoms: C_1  and  C_24
    2  A    between atoms: C_9  and  C_22
    3  A    between atoms: C_9  and  C_23
    4  A    between atoms: C_15  and  C_23
    5  A    between atoms: C_19  and  C_22
    6  A    between atoms: C_19  and  C_24
                            x       y       z     vdW  Elec       q    Type
                         _______ _______ _______ _____ _____    ______ ____

>  <TORSDO>
F 6

$$$$
=
 OpenBabel10272400133D

 31 34  0  0  1  0  0  0  0  0999 V2000
  183.9850  178.8590  143.2800 C   0  0  0  0  0  0  0  0  0  0  0  0
  187.7280  178.1250  142.9820 C   0  0  2  0  0  3  0  0  0  0  0  0
  188.0620  177.1260  144.1110 C   0  0  2  0  0  3  0  0  0  0  0  0
  186.8760  177.7740  146.2530 C   0  0  0  0  0  2  0  0  0  0  0  0
  186.2630  178.3080  142.6070 C   0  0  0  0  0  0  0  0  0  0  0  0
  183.5920  178.9120  141.9430 C   0  0  0  0  0  3  0  0  0  0  0  0
  186.9940  176.7370  145.1460 C   0  0  0  0  0  2  0  0  0  0  0  0
  188.2700  178.5010  140.5290 C   0  0  1  0  0  3  0  0  0  0  0  0
  182.9950  179.1090  144.3580 C   0  0  0  0  0  1  0  0  0  0  0  0
  190.4260  177.9510  143.5790 C   0  0  0  0  0  2  0  0  0  0  0  0
  187.7720  177.4360  147.4450 C   0  0  0  0  0  2  0  0  0  0  0  0
  186.8270  178.2320  140.1190 C   0  0  0  0  0  2  0  0  0  0  0  0
  188.5960  177.6900  141.7860 C   0  0  1  0  0  3  0  0  0  0  0  0
  185.3130  178.5770  143.6040 C   0  0  0  0  0  3  0  0  0  0  0  0
  189.1820  176.9960  147.0550 C   0  0  0  0  0  2  0  0  0  0  0  0
  185.8650  178.4300  141.2510 C   0  0  0  0  0  0  0  0  0  0  0  0
  184.5300  178.7020  140.9340 C   0  0  0  0  0  3  0  0  0  0  0  0
  190.1010  177.6370  142.1160 C   0  0  0  0  0  2  0  0  0  0  0  0
  189.5440  177.1910  144.5780 C   0  0  1  0  0  3  0  0  0  0  0  0
  189.7480  177.8550  145.9370 C   0  0  0  0  0  2  0  0  0  0  0  0
  189.2200  178.2190  139.3580 C   0  0  0  0  0  2  0  0  0  0  0  0
  188.8250  179.7140  137.5160 O   0  0  0  0  0  1  0  0  0  0  0  0
  188.5730  178.4230  137.9830 C   0  0  1  0  0  3  0  0  0  0  0  0
  188.8110  177.8940  135.5390 C   0  0  0  0  0  1  0  0  0  0  0  0
  189.0400  177.3880  136.9560 C   0  0  2  0  0  3  0  0  0  0  0  0
  187.3160  175.8780  137.5370 O   0  0  0  0  0  0  0  0  0  0  0  0
  188.4820  176.0010  137.1960 C   0  0  0  0  0  0  0  0  0  0  0  0
  189.3200  174.7670  137.0330 C   0  0  0  0  0  2  0  0  0  0  0  0
  190.7380  175.0370  137.4060 C   0  0  0  0  0  0  0  0  0  0  0  0
  191.0620  175.1540  138.6160 O   0  0  0  0  0  0  0  0  0  0  0  0
  191.7300  175.1420  136.3930 N   0  0  0  0  0  1  0  0  0  0  0  0
  1 14  1  0  0  0  0
  1  9  1  0  0  0  0
  2  5  1  6  0  0  0
  2  3  1  0  0  0  0
  3 19  1  0  0  0  0
  3  7  1  1  0  0  0
  4 11  1  0  0  0  0
  5 14  2  0  0  0  0
  6  1  2  0  0  0  0
  7  4  1  0  0  0  0
  8 21  1  6  0  0  0
  8 13  1  0  0  0  0
 12  8  1  0  0  0  0
 12 16  1  0  0  0  0
 13 18  1  1  0  0  0
 13  2  1  0  0  0  0
 15 11  1  0  0  0  0
 16  5  1  0  0  0  0
 17 16  2  0  0  0  0
 17  6  1  0  0  0  0
 18 10  1  0  0  0  0
 19 10  1  6  0  0  0
 19 20  1  0  0  0  0
 20 15  1  0  0  0  0
 23 22  1  6  0  0  0
 23 21  1  0  0  0  0
 25 24  1  6  0  0  0
 25 27  1  0  0  0  0
 25 23  1  0  0  0  0
 27 26  2  0  0  0  0
 28 27  1  0  0  0  0
 28 29  1  0  0  0  0
 29 30  2  0  0  0  0
 31 29  1  0  0  0  0
M  END
>  <MODEL>
2

>  <REMARK>
 VINA RESULT:      -9.3      3.300      6.160
  Name = 
  6 active torsions:
  status: ('A' for Active; 'I' for Inactive)
    1  A    between atoms: C_1  and  C_24
    2  A    between atoms: C_9  and  C_22
    3  A    between atoms: C_9  and  C_23
    4  A    between atoms: C_15  and  C_23
    5  A    between atoms: C_19  and  C_22
    6  A    between atoms: C_19  and  C_24
                            x       y       z     vdW  Elec       q    Type
                         _______ _______ _______ _____ _____    ______ ____

>  <TORSDO>
F 6

$$$$
=
 OpenBabel10272400133D

 31 34  0  0  1  0  0  0  0  0999 V2000
  183.9570  178.7950  143.7280 C   0  0  0  0  0  0  0  0  0  0  0  0
  187.7100  178.1540  143.3520 C   0  0  2  0  0  3  0  0  0  0  0  0
  188.0880  177.1450  144.4580 C   0  0  2  0  0  3  0  0  0  0  0  0
  186.9260  177.7310  146.6320 C   0  0  0  0  0  2  0  0  0  0  0  0
  186.2350  178.3090  143.0060 C   0  0  0  0  0  0  0  0  0  0  0  0
  183.5390  178.8610  142.4000 C   0  0  0  0  0  3  0  0  0  0  0  0
  187.0490  176.7150  145.5050 C   0  0  0  0  0  2  0  0  0  0  0  0
  188.1990  178.5830  140.8960 C   0  0  1  0  0  3  0  0  0  0  0  0
  182.9820  179.0040  144.8280 C   0  0  0  0  0  1  0  0  0  0  0  0
  190.4220  178.0340  143.8970 C   0  0  0  0  0  2  0  0  0  0  0  0
  187.8520  177.3950  147.8010 C   0  0  0  0  0  2  0  0  0  0  0  0
  186.7550  178.2860  140.5070 C   0  0  0  0  0  2  0  0  0  0  0  0
  188.5660  177.7590  142.1340 C   0  0  1  0  0  3  0  0  0  0  0  0
  185.2970  178.5390  144.0240 C   0  0  0  0  0  3  0  0  0  0  0  0
  189.2650  176.9940  147.3790 C   0  0  0  0  0  2  0  0  0  0  0  0
  185.8100  178.4430  141.6600 C   0  0  0  0  0  0  0  0  0  0  0  0
  184.4630  178.6890  141.3700 C   0  0  0  0  0  3  0  0  0  0  0  0
  190.0780  177.7370  142.4350 C   0  0  0  0  0  2  0  0  0  0  0  0
  189.5770  177.2370  144.8990 C   0  0  1  0  0  3  0  0  0  0  0  0
  189.7900  177.8850  146.2660 C   0  0  0  0  0  2  0  0  0  0  0  0
  189.1330  178.3410  139.7030 C   0  0  0  0  0  2  0  0  0  0  0  0
  188.7570  179.2970  137.5290 O   0  0  0  0  0  1  0  0  0  0  0  0
  188.3980  178.2370  138.3630 C   0  0  1  0  0  3  0  0  0  0  0  0
  189.7610  177.0390  136.6250 C   0  0  0  0  0  1  0  0  0  0  0  0
  188.6520  176.9010  137.6580 C   0  0  2  0  0  3  0  0  0  0  0  0
  187.4380  175.0970  136.7290 O   0  0  0  0  0  0  0  0  0  0  0  0
  187.3970  176.2570  137.1100 C   0  0  0  0  0  0  0  0  0  0  0  0
  186.0970  177.0010  137.0150 C   0  0  0  0  0  2  0  0  0  0  0  0
  185.7510  177.2800  135.5920 C   0  0  0  0  0  0  0  0  0  0  0  0
  184.6510  176.8890  135.1200 O   0  0  0  0  0  0  0  0  0  0  0  0
  186.6560  178.0090  134.7720 N   0  0  0  0  0  1  0  0  0  0  0  0
  1 14  1  0  0  0  0
  1  9  1  0  0  0  0
  2  5  1  6  0  0  0
  2  3  1  0  0  0  0
  3 19  1  0  0  0  0
  3  7  1  1  0  0  0
  4 11  1  0  0  0  0
  5 14  2  0  0  0  0
  6  1  2  0  0  0  0
  7  4  1  0  0  0  0
  8 21  1  6  0  0  0
  8 13  1  0  0  0  0
 12  8  1  0  0  0  0
 12 16  1  0  0  0  0
 13 18  1  1  0  0  0
 13  2  1  0  0  0  0
 15 11  1  0  0  0  0
 16  5  1  0  0  0  0
 17 16  2  0  0  0  0
 17  6  1  0  0  0  0
 18 10  1  0  0  0  0
 19 10  1  6  0  0  0
 19 20  1  0  0  0  0
 20 15  1  0  0  0  0
 23 22  1  6  0  0  0
 23 21  1  0  0  0  0
 25 24  1  6  0  0  0
 25 23  1  0  0  0  0
 26 27  2  0  0  0  0
 27 25  1  0  0  0  0
 28 27  1  0  0  0  0
 29 28  1  0  0  0  0
 30 29  2  0  0  0  0
 31 29  1  0  0  0  0
M  END
>  <MODEL>
3

>  <REMARK>
 VINA RESULT:      -9.1      2.884      5.498
  Name = 
  6 active torsions:
  status: ('A' for Active; 'I' for Inactive)
    1  A    between atoms: C_1  and  C_24
    2  A    between atoms: C_9  and  C_22
    3  A    between atoms: C_9  and  C_23
    4  A    between atoms: C_15  and  C_23
    5  A    between atoms: C_19  and  C_22
    6  A    between atoms: C_19  and  C_24
                            x       y       z     vdW  Elec       q    Type
                         _______ _______ _______ _____ _____    ______ ____

>  <TORSDO>
F 6

$$$$
=
 OpenBabel10272400133D

 31 34  0  0  1  0  0  0  0  0999 V2000
  188.4660  177.3270  146.0720 C   0  0  0  0  0  0  0  0  0  0  0  0
  186.7200  178.1110  142.7590 C   0  0  2  0  0  3  0  0  0  0  0  0
  185.5890  179.1090  143.0940 C   0  0  2  0  0  3  0  0  0  0  0  0
  184.4110  178.4350  145.2320 C   0  0  0  0  0  2  0  0  0  0  0  0
  187.8190  177.9110  143.7950 C   0  0  0  0  0  0  0  0  0  0  0  0
  189.8050  177.2750  145.6890 C   0  0  0  0  0  3  0  0  0  0  0  0
  185.2860  179.4780  144.5540 C   0  0  0  0  0  2  0  0  0  0  0  0
  188.5030  177.7540  140.9850 C   0  0  1  0  0  3  0  0  0  0  0  0
  188.0820  177.0590  147.4820 C   0  0  0  0  0  1  0  0  0  0  0  0
  184.7740  178.3170  140.8000 C   0  0  0  0  0  2  0  0  0  0  0  0
  182.9250  178.7790  145.1160 C   0  0  0  0  0  2  0  0  0  0  0  0
  189.6210  178.0070  141.9900 C   0  0  0  0  0  2  0  0  0  0  0  0
  187.2680  178.5630  141.3930 C   0  0  1  0  0  3  0  0  0  0  0  0
  187.4830  177.6250  145.1270 C   0  0  0  0  0  3  0  0  0  0  0  0
  182.5030  179.2390  143.7220 C   0  0  0  0  0  2  0  0  0  0  0  0
  189.1770  177.7900  143.4050 C   0  0  0  0  0  0  0  0  0  0  0  0
  190.1580  177.5030  144.3600 C   0  0  0  0  0  3  0  0  0  0  0  0
  186.1850  178.6340  140.2980 C   0  0  0  0  0  2  0  0  0  0  0  0
  184.4030  179.0610  142.0890 C   0  0  1  0  0  3  0  0  0  0  0  0
  183.1430  178.3930  142.6340 C   0  0  0  0  0  2  0  0  0  0  0  0
  188.9860  178.0550  139.5610 C   0  0  0  0  0  2  0  0  0  0  0  0
  187.8870  176.5060  138.0850 O   0  0  0  0  0  1  0  0  0  0  0  0
  189.1130  176.8050  138.6820 C   0  0  1  0  0  3  0  0  0  0  0  0
  189.5810  177.1040  136.2320 C   0  0  0  0  0  1  0  0  0  0  0  0
  190.2000  176.9490  137.6130 C   0  0  2  0  0  3  0  0  0  0  0  0
  190.9840  174.7920  138.1820 O   0  0  0  0  0  0  0  0  0  0  0  0
  191.2600  175.8700  137.6790 C   0  0  0  0  0  0  0  0  0  0  0  0
  192.6470  176.0830  137.1470 C   0  0  0  0  0  2  0  0  0  0  0  0
  193.6390  176.1240  138.2590 C   0  0  0  0  0  0  0  0  0  0  0  0
  193.5420  176.9960  139.1620 O   0  0  0  0  0  0  0  0  0  0  0  0
  194.6840  175.1610  138.3130 N   0  0  0  0  0  1  0  0  0  0  0  0
  1  9  1  0  0  0  0
  2  3  1  0  0  0  0
  2  5  1  1  0  0  0
  3  7  1  1  0  0  0
  5 14  1  0  0  0  0
  6  1  1  0  0  0  0
  7  4  1  0  0  0  0
  8 21  1  6  0  0  0
  8 13  1  0  0  0  0
  8 12  1  0  0  0  0
 11  4  1  0  0  0  0
 12 16  1  0  0  0  0
 13 18  1  6  0  0  0
 13  2  1  0  0  0  0
 14  1  2  0  0  0  0
 15 11  1  0  0  0  0
 16  5  2  0  0  0  0
 16 17  1  0  0  0  0
 17  6  2  0  0  0  0
 18 10  1  0  0  0  0
 19 10  1  6  0  0  0
 19 20  1  0  0  0  0
 19  3  1  0  0  0  0
 20 15  1  0  0  0  0
 23 22  1  6  0  0  0
 23 21  1  0  0  0  0
 25 24  1  6  0  0  0
 25 27  1  0  0  0  0
 25 23  1  0  0  0  0
 27 26  2  0  0  0  0
 28 27  1  0  0  0  0
 28 29  1  0  0  0  0
 29 31  1  0  0  0  0
 29 30  2  0  0  0  0
M  END
>  <MODEL>
4

>  <REMARK>
 VINA RESULT:      -8.9      3.873      7.477
  Name = 
  6 active torsions:
  status: ('A' for Active; 'I' for Inactive)
    1  A    between atoms: C_1  and  C_24
    2  A    between atoms: C_9  and  C_22
    3  A    between atoms: C_9  and  C_23
    4  A    between atoms: C_15  and  C_23
    5  A    between atoms: C_19  and  C_22
    6  A    between atoms: C_19  and  C_24
                            x       y       z     vdW  Elec       q    Type
                         _______ _______ _______ _____ _____    ______ ____

>  <TORSDO>
F 6

$$$$
=
 OpenBabel10272400133D

 31 34  0  0  1  0  0  0  0  0999 V2000
  185.3300  178.5700  146.0140 C   0  0  0  0  0  0  0  0  0  0  0  0
  187.0000  178.3170  142.5810 C   0  0  2  0  0  3  0  0  0  0  0  0
  188.0600  177.2000  142.7000 C   0  0  2  0  0  3  0  0  0  0  0  0
  189.2940  177.3720  144.9050 C   0  0  0  0  0  2  0  0  0  0  0  0
  185.9230  178.3900  143.6570 C   0  0  0  0  0  0  0  0  0  0  0  0
  183.9960  178.7840  145.6740 C   0  0  0  0  0  3  0  0  0  0  0  0
  188.3440  176.5390  144.0570 C   0  0  0  0  0  2  0  0  0  0  0  0
  185.2370  179.1270  140.9410 C   0  0  1  0  0  3  0  0  0  0  0  0
  185.7390  178.5370  147.4420 C   0  0  0  0  0  1  0  0  0  0  0  0
  188.9160  178.3590  140.5830 C   0  0  0  0  0  2  0  0  0  0  0  0
  190.7510  176.9570  144.6970 C   0  0  0  0  0  2  0  0  0  0  0  0
  184.1090  178.7620  141.9000 C   0  0  0  0  0  2  0  0  0  0  0  0
  186.4140  178.1730  141.1650 C   0  0  1  0  0  3  0  0  0  0  0  0
  186.2850  178.3920  145.0120 C   0  0  0  0  0  3  0  0  0  0  0  0
  191.1330  176.7450  143.2330 C   0  0  0  0  0  2  0  0  0  0  0  0
  184.5740  178.6740  143.3220 C   0  0  0  0  0  0  0  0  0  0  0  0
  183.6210  178.8390  144.3320 C   0  0  0  0  0  3  0  0  0  0  0  0
  187.4840  178.2400  140.0560 C   0  0  0  0  0  2  0  0  0  0  0  0
  189.2410  177.3590  141.7000 C   0  0  1  0  0  3  0  0  0  0  0  0
  190.5480  177.8240  142.3390 C   0  0  0  0  0  2  0  0  0  0  0  0
  184.7260  179.1370  139.4950 C   0  0  0  0  0  2  0  0  0  0  0  0
  183.1670  180.8460  138.8370 O   0  0  0  0  0  1  0  0  0  0  0  0
  183.2580  179.5590  139.3680 C   0  0  1  0  0  3  0  0  0  0  0  0
  181.3410  179.3100  137.7630 C   0  0  0  0  0  1  0  0  0  0  0  0
  182.4380  178.5790  138.5230 C   0  0  2  0  0  3  0  0  0  0  0  0
  180.9540  177.5070  140.0190 O   0  0  0  0  0  0  0  0  0  0  0  0
  181.9350  177.3820  139.3010 C   0  0  0  0  0  0  0  0  0  0  0  0
  182.6060  176.0420  139.2240 C   0  0  0  0  0  2  0  0  0  0  0  0
  183.1500  175.8020  137.8570 C   0  0  0  0  0  0  0  0  0  0  0  0
  184.3910  175.8600  137.6510 O   0  0  0  0  0  0  0  0  0  0  0  0
  182.2680  175.4870  136.7870 N   0  0  0  0  0  1  0  0  0  0  0  0
  1  9  1  0  0  0  0
  2  3  1  0  0  0  0
  2  5  1  1  0  0  0
  3  7  1  1  0  0  0
  5 14  1  0  0  0  0
  6  1  1  0  0  0  0
  7  4  1  0  0  0  0
  8 21  1  6  0  0  0
  8 13  1  0  0  0  0
  8 12  1  0  0  0  0
 11  4  1  0  0  0  0
 12 16  1  0  0  0  0
 13 18  1  6  0  0  0
 13  2  1  0  0  0  0
 14  1  2  0  0  0  0
 15 11  1  0  0  0  0
 16  5  2  0  0  0  0
 16 17  1  0  0  0  0
 17  6  2  0  0  0  0
 18 10  1  0  0  0  0
 19 10  1  6  0  0  0
 19 20  1  0  0  0  0
 19  3  1  0  0  0  0
 20 15  1  0  0  0  0
 23 22  1  6  0  0  0
 23 21  1  0  0  0  0
 25 24  1  1  0  0  0
 25 27  1  0  0  0  0
 25 23  1  0  0  0  0
 27 26  2  0  0  0  0
 28 27  1  0  0  0  0
 29 28  1  0  0  0  0
 30 29  2  0  0  0  0
 31 29  1  0  0  0  0
M  END
>  <MODEL>
5

>  <REMARK>
 VINA RESULT:      -8.7      1.884      4.463
  Name = 
  6 active torsions:
  status: ('A' for Active; 'I' for Inactive)
    1  A    between atoms: C_1  and  C_24
    2  A    between atoms: C_9  and  C_22
    3  A    between atoms: C_9  and  C_23
    4  A    between atoms: C_15  and  C_23
    5  A    between atoms: C_19  and  C_22
    6  A    between atoms: C_19  and  C_24
                            x       y       z     vdW  Elec       q    Type
                         _______ _______ _______ _____ _____    ______ ____

>  <TORSDO>
F 6

$$$$
=
 OpenBabel10272400133D

 31 34  0  0  1  0  0  0  0  0999 V2000
  189.0700  177.3510  147.0270 C   0  0  0  0  0  0  0  0  0  0  0  0
  187.3370  178.2880  143.7470 C   0  0  2  0  0  3  0  0  0  0  0  0
  187.8040  177.2510  142.7030 C   0  0  2  0  0  3  0  0  0  0  0  0
  190.2810  176.7860  142.9540 C   0  0  0  0  0  2  0  0  0  0  0  0
  187.5520  177.9580  145.2190 C   0  0  0  0  0  0  0  0  0  0  0  0
  188.0660  177.5880  147.9650 C   0  0  0  0  0  3  0  0  0  0  0  0
  188.8760  176.2120  143.0650 C   0  0  0  0  0  2  0  0  0  0  0  0
  185.2060  179.4750  144.4550 C   0  0  1  0  0  3  0  0  0  0  0  0
  190.4110  176.8920  147.4710 C   0  0  0  0  0  1  0  0  0  0  0  0
  186.9280  179.0640  141.1210 C   0  0  0  0  0  2  0  0  0  0  0  0
  190.8880  176.5380  141.5720 C   0  0  0  0  0  2  0  0  0  0  0  0
  185.2020  178.7650  145.8050 C   0  0  0  0  0  2  0  0  0  0  0  0
  185.8610  178.5660  143.4110 C   0  0  1  0  0  3  0  0  0  0  0  0
  188.8170  177.5520  145.6690 C   0  0  0  0  0  3  0  0  0  0  0  0
  189.9310  176.8200  140.4150 C   0  0  0  0  0  2  0  0  0  0  0  0
  186.5590  178.2580  146.1870 C   0  0  0  0  0  0  0  0  0  0  0  0
  186.8170  178.0440  147.5450 C   0  0  0  0  0  3  0  0  0  0  0  0
  185.6470  179.0390  141.9590 C   0  0  0  0  0  2  0  0  0  0  0  0
  187.7630  177.7820  141.2410 C   0  0  1  0  0  3  0  0  0  0  0  0
  189.1330  178.0930  140.6450 C   0  0  0  0  0  2  0  0  0  0  0  0
  183.7850  179.9130  144.0780 C   0  0  0  0  0  2  0  0  0  0  0  0
  182.1200  178.2950  144.7050 O   0  0  0  0  0  1  0  0  0  0  0  0
  182.8870  178.7550  143.6330 C   0  0  1  0  0  3  0  0  0  0  0  0
  180.5160  178.9040  142.8120 C   0  0  0  0  0  1  0  0  0  0  0  0
  181.9790  179.1350  142.4590 C   0  0  2  0  0  3  0  0  0  0  0  0
  182.9740  177.4300  141.1580 O   0  0  0  0  0  0  0  0  0  0  0  0
  182.3880  178.5020  141.1470 C   0  0  0  0  0  0  0  0  0  0  0  0
  182.0990  179.1520  139.8250 C   0  0  0  0  0  2  0  0  0  0  0  0
  183.3480  179.3030  139.0260 C   0  0  0  0  0  0  0  0  0  0  0  0
  184.1070  180.2880  139.2200 O   0  0  0  0  0  0  0  0  0  0  0  0
  183.6950  178.3190  138.0590 N   0  0  0  0  0  1  0  0  0  0  0  0
  1  9  1  0  0  0  0
  1  6  1  0  0  0  0
  2  5  1  1  0  0  0
  3  7  1  1  0  0  0
  3  2  1  0  0  0  0
  4  7  1  0  0  0  0
  5 14  1  0  0  0  0
  5 16  2  0  0  0  0
  8 21  1  6  0  0  0
  8 12  1  0  0  0  0
 10 19  1  0  0  0  0
 10 18  1  0  0  0  0
 11  4  1  0  0  0  0
 12 16  1  0  0  0  0
 13 18  1  6  0  0  0
 13  2  1  0  0  0  0
 13  8  1  0  0  0  0
 14  1  2  0  0  0  0
 15 20  1  0  0  0  0
 15 11  1  0  0  0  0
 16 17  1  0  0  0  0
 17  6  2  0  0  0  0
 19 20  1  1  0  0  0
 19  3  1  0  0  0  0
 23 21  1  0  0  0  0
 23 22  1  1  0  0  0
 25 24  1  1  0  0  0
 25 23  1  0  0  0  0
 27 26  2  0  0  0  0
 27 25  1  0  0  0  0
 28 27  1  0  0  0  0
 29 30  2  0  0  0  0
 29 28  1  0  0  0  0
 31 29  1  0  0  0  0
M  END
>  <MODEL>
6

>  <REMARK>
 VINA RESULT:      -8.6      1.069      3.994
  Name = 
  6 active torsions:
  status: ('A' for Active; 'I' for Inactive)
    1  A    between atoms: C_1  and  C_24
    2  A    between atoms: C_9  and  C_22
    3  A    between atoms: C_9  and  C_23
    4  A    between atoms: C_15  and  C_23
    5  A    between atoms: C_19  and  C_22
    6  A    between atoms: C_19  and  C_24
                            x       y       z     vdW  Elec       q    Type
                         _______ _______ _______ _____ _____    ______ ____

>  <TORSDO>
F 6

$$$$
=
 OpenBabel10272400133D

 31 34  0  0  1  0  0  0  0  0999 V2000
  185.3200  178.6660  144.0970 C   0  0  0  0  0  0  0  0  0  0  0  0
  188.8290  177.9740  142.7380 C   0  0  2  0  0  3  0  0  0  0  0  0
  189.4510  176.9150  143.6740 C   0  0  2  0  0  3  0  0  0  0  0  0
  188.9080  177.4340  146.0920 C   0  0  0  0  0  2  0  0  0  0  0  0
  187.3180  178.1680  142.7920 C   0  0  0  0  0  0  0  0  0  0  0  0
  184.5740  178.7920  142.9260 C   0  0  0  0  0  3  0  0  0  0  0  0
  188.7070  176.4620  144.9390 C   0  0  0  0  0  2  0  0  0  0  0  0
  188.6770  178.4910  140.2550 C   0  0  1  0  0  3  0  0  0  0  0  0
  184.6680  178.8480  145.4190 C   0  0  0  0  0  1  0  0  0  0  0  0
  191.5850  177.7830  142.5560 C   0  0  0  0  0  2  0  0  0  0  0  0
  190.0950  177.0340  146.9700 C   0  0  0  0  0  2  0  0  0  0  0  0
  187.1740  178.2360  140.2450 C   0  0  0  0  0  2  0  0  0  0  0  0
  189.3290  177.6120  141.3270 C   0  0  1  0  0  3  0  0  0  0  0  0
  186.6830  178.3740  144.0260 C   0  0  0  0  0  3  0  0  0  0  0  0
  191.3390  176.6260  146.1820 C   0  0  0  0  0  2  0  0  0  0  0  0
  186.5640  178.3640  141.6080 C   0  0  0  0  0  0  0  0  0  0  0  0
  185.1960  178.6450  141.6860 C   0  0  0  0  0  3  0  0  0  0  0  0
  190.8660  177.5510  141.2250 C   0  0  0  0  0  2  0  0  0  0  0  0
  191.0060  176.9620  143.7160 C   0  0  1  0  0  3  0  0  0  0  0  0
  191.5830  177.5500  145.0010 C   0  0  0  0  0  2  0  0  0  0  0  0
  189.2640  178.2810  138.8540 C   0  0  0  0  0  2  0  0  0  0  0  0
  188.1240  176.4300  137.8240 O   0  0  0  0  0  1  0  0  0  0  0  0
  189.3230  176.8090  138.4300 C   0  0  1  0  0  3  0  0  0  0  0  0
  190.1340  176.8090  136.0520 C   0  0  0  0  0  1  0  0  0  0  0  0
  190.5030  176.5150  137.4990 C   0  0  2  0  0  3  0  0  0  0  0  0
  190.3630  174.1750  137.8080 O   0  0  0  0  0  0  0  0  0  0  0  0
  191.1040  175.1400  137.6990 C   0  0  0  0  0  0  0  0  0  0  0  0
  192.5870  174.9220  137.7720 C   0  0  0  0  0  2  0  0  0  0  0  0
  193.3110  176.2240  137.8080 C   0  0  0  0  0  0  0  0  0  0  0  0
  193.7660  176.7240  136.7460 O   0  0  0  0  0  0  0  0  0  0  0  0
  193.4690  176.9140  139.0410 N   0  0  0  0  0  1  0  0  0  0  0  0
  1  9  1  0  0  0  0
  2  5  1  6  0  0  0
  2  3  1  0  0  0  0
  3 19  1  0  0  0  0
  3  7  1  1  0  0  0
  4 11  1  0  0  0  0
  5 14  2  0  0  0  0
  6  1  2  0  0  0  0
  7  4  1  0  0  0  0
  8 21  1  6  0  0  0
  8 13  1  0  0  0  0
 12  8  1  0  0  0  0
 12 16  1  0  0  0  0
 13 18  1  1  0  0  0
 13  2  1  0  0  0  0
 14  1  1  0  0  0  0
 15 11  1  0  0  0  0
 16 17  2  0  0  0  0
 16  5  1  0  0  0  0
 17  6  1  0  0  0  0
 18 10  1  0  0  0  0
 19 10  1  6  0  0  0
 19 20  1  0  0  0  0
 20 15  1  0  0  0  0
 23 22  1  6  0  0  0
 23 21  1  0  0  0  0
 25 24  1  6  0  0  0
 25 27  1  0  0  0  0
 25 23  1  0  0  0  0
 27 28  1  0  0  0  0
 27 26  2  0  0  0  0
 28 29  1  0  0  0  0
 29 31  1  0  0  0  0
 30 29  2  0  0  0  0
M  END
>  <MODEL>
7

>  <REMARK>
 VINA RESULT:      -8.6      3.773      6.815
  Name = 
  6 active torsions:
  status: ('A' for Active; 'I' for Inactive)
    1  A    between atoms: C_1  and  C_24
    2  A    between atoms: C_9  and  C_22
    3  A    between atoms: C_9  and  C_23
    4  A    between atoms: C_15  and  C_23
    5  A    between atoms: C_19  and  C_22
    6  A    between atoms: C_19  and  C_24
                            x       y       z     vdW  Elec       q    Type
                         _______ _______ _______ _____ _____    ______ ____

>  <TORSDO>
F 6

$$$$
=
 OpenBabel10272400133D

 31 34  0  0  1  0  0  0  0  0999 V2000
  185.0670  178.7890  139.6300 C   0  0  0  0  0  0  0  0  0  0  0  0
  188.6270  177.5210  139.0300 C   0  0  2  0  0  3  0  0  0  0  0  0
  189.0430  178.0510  137.6400 C   0  0  2  0  0  3  0  0  0  0  0  0
  187.1300  177.8390  135.9940 C   0  0  0  0  0  2  0  0  0  0  0  0
  187.4240  178.1680  139.7040 C   0  0  0  0  0  0  0  0  0  0  0  0
  185.1000  179.1170  140.9850 C   0  0  0  0  0  3  0  0  0  0  0  0
  188.0320  178.7980  136.7580 C   0  0  0  0  0  2  0  0  0  0  0  0
  189.6150  177.2350  141.3530 C   0  0  1  0  0  3  0  0  0  0  0  0
  183.8110  178.9500  138.8550 C   0  0  0  0  0  1  0  0  0  0  0  0
  190.7920  176.2020  137.9180 C   0  0  0  0  0  2  0  0  0  0  0  0
  187.6930  177.5120  134.6110 C   0  0  0  0  0  2  0  0  0  0  0  0
  188.6510  178.2600  141.9410 C   0  0  0  0  0  2  0  0  0  0  0  0
  189.9000  177.5950  139.8910 C   0  0  1  0  0  3  0  0  0  0  0  0
  186.2160  178.3020  139.0030 C   0  0  0  0  0  3  0  0  0  0  0  0
  189.1900  177.2080  134.6060 C   0  0  0  0  0  2  0  0  0  0  0  0
  187.4270  178.4430  141.0960 C   0  0  0  0  0  0  0  0  0  0  0  0
  186.2750  178.9400  141.7150 C   0  0  0  0  0  3  0  0  0  0  0  0
  191.0890  176.8220  139.2860 C   0  0  0  0  0  2  0  0  0  0  0  0
  190.1190  177.1730  136.9390 C   0  0  1  0  0  3  0  0  0  0  0  0
  189.5880  176.3310  135.7810 C   0  0  0  0  0  2  0  0  0  0  0  0
  190.8790  177.1350  142.2150 C   0  0  0  0  0  2  0  0  0  0  0  0
  191.5700  175.5510  143.8870 O   0  0  0  0  0  1  0  0  0  0  0  0
  190.6260  176.5400  143.6040 C   0  0  1  0  0  3  0  0  0  0  0  0
  191.5720  178.7440  144.3540 C   0  0  0  0  0  1  0  0  0  0  0  0
  190.6270  177.6030  144.7060 C   0  0  2  0  0  3  0  0  0  0  0  0
  191.9890  177.0180  146.5480 O   0  0  0  0  0  0  0  0  0  0  0  0
  190.8560  177.0400  146.0920 C   0  0  0  0  0  0  0  0  0  0  0  0
  189.7320  176.4990  146.9270 C   0  0  0  0  0  2  0  0  0  0  0  0
  188.8110  177.5940  147.3460 C   0  0  0  0  0  0  0  0  0  0  0  0
  189.1530  178.3960  148.2540 O   0  0  0  0  0  0  0  0  0  0  0  0
  187.5520  177.7470  146.7020 N   0  0  0  0  0  1  0  0  0  0  0  0
  1  6  1  0  0  0  0
  2  5  1  1  0  0  0
  2 13  1  0  0  0  0
  3  7  1  6  0  0  0
  3  2  1  0  0  0  0
  4  7  1  0  0  0  0
  5 16  2  0  0  0  0
  6 17  2  0  0  0  0
  8 12  1  0  0  0  0
  8 21  1  1  0  0  0
  9  1  1  0  0  0  0
 10 18  1  0  0  0  0
 11  4  1  0  0  0  0
 13 18  1  6  0  0  0
 13  8  1  0  0  0  0
 14  1  2  0  0  0  0
 14  5  1  0  0  0  0
 15 11  1  0  0  0  0
 15 20  1  0  0  0  0
 16 17  1  0  0  0  0
 16 12  1  0  0  0  0
 19 20  1  6  0  0  0
 19  3  1  0  0  0  0
 19 10  1  0  0  0  0
 21 23  1  0  0  0  0
 23 22  1  1  0  0  0
 23 25  1  0  0  0  0
 25 24  1  6  0  0  0
 25 27  1  0  0  0  0
 27 26  2  0  0  0  0
 27 28  1  0  0  0  0
 28 29  1  0  0  0  0
 29 30  2  0  0  0  0
 31 29  1  0  0  0  0
M  END
>  <MODEL>
8

>  <REMARK>
 VINA RESULT:      -8.3      4.155      8.520
  Name = 
  6 active torsions:
  status: ('A' for Active; 'I' for Inactive)
    1  A    between atoms: C_1  and  C_24
    2  A    between atoms: C_9  and  C_22
    3  A    between atoms: C_9  and  C_23
    4  A    between atoms: C_15  and  C_23
    5  A    between atoms: C_19  and  C_22
    6  A    between atoms: C_19  and  C_24
                            x       y       z     vdW  Elec       q    Type
                         _______ _______ _______ _____ _____    ______ ____

>  <TORSDO>
F 6

$$$$
=
 OpenBabel10272400133D

 31 34  0  0  1  0  0  0  0  0999 V2000
  183.8820  178.5920  138.6770 C   0  0  0  0  0  0  0  0  0  0  0  0
  187.6250  177.9120  139.0770 C   0  0  2  0  0  3  0  0  0  0  0  0
  188.2920  178.3940  137.7700 C   0  0  2  0  0  3  0  0  0  0  0  0
  186.9030  177.7260  135.7610 C   0  0  0  0  0  2  0  0  0  0  0  0
  186.2100  178.3940  139.3710 C   0  0  0  0  0  0  0  0  0  0  0  0
  183.5270  179.0270  139.9530 C   0  0  0  0  0  3  0  0  0  0  0  0
  187.4340  178.8830  136.5940 C   0  0  0  0  0  2  0  0  0  0  0  0
  188.0350  177.9860  141.5830 C   0  0  1  0  0  3  0  0  0  0  0  0
  182.8490  178.4720  137.6170 C   0  0  0  0  0  1  0  0  0  0  0  0
  190.1700  176.9010  138.6650 C   0  0  0  0  0  2  0  0  0  0  0  0
  187.8340  177.3910  134.5960 C   0  0  0  0  0  2  0  0  0  0  0  0
  186.8140  178.8730  141.8040 C   0  0  0  0  0  2  0  0  0  0  0  0
  188.6190  178.2720  140.1970 C   0  0  1  0  0  3  0  0  0  0  0  0
  185.2090  178.2620  138.3970 C   0  0  0  0  0  3  0  0  0  0  0  0
  189.3130  177.3500  134.9760 C   0  0  0  0  0  2  0  0  0  0  0  0
  185.8260  178.7740  140.6820 C   0  0  0  0  0  0  0  0  0  0  0  0
  184.4960  179.1140  140.9520 C   0  0  0  0  0  3  0  0  0  0  0  0
  190.0220  177.6690  139.9810 C   0  0  0  0  0  2  0  0  0  0  0  0
  189.6260  177.6610  137.4480 C   0  0  1  0  0  3  0  0  0  0  0  0
  189.5300  176.6510  136.3070 C   0  0  0  0  0  2  0  0  0  0  0  0
  189.0450  178.1740  142.7220 C   0  0  0  0  0  2  0  0  0  0  0  0
  189.9200  176.1820  143.7460 O   0  0  0  0  0  1  0  0  0  0  0  0
  188.9050  177.1350  143.8400 C   0  0  1  0  0  3  0  0  0  0  0  0
  190.0970  177.2890  146.0470 C   0  0  0  0  0  1  0  0  0  0  0  0
  188.9040  177.7720  145.2340 C   0  0  2  0  0  3  0  0  0  0  0  0
  187.5830  177.2850  147.1330 O   0  0  0  0  0  0  0  0  0  0  0  0
  187.5850  177.6330  145.9620 C   0  0  0  0  0  0  0  0  0  0  0  0
  186.2720  177.9080  145.2900 C   0  0  0  0  0  2  0  0  0  0  0  0
  185.4220  178.7960  146.1330 C   0  0  0  0  0  0  0  0  0  0  0  0
  185.9530  179.5680  146.9730 O   0  0  0  0  0  0  0  0  0  0  0  0
  184.0090  178.7870  145.9720 N   0  0  0  0  0  1  0  0  0  0  0  0
  1  6  1  0  0  0  0
  2  5  1  1  0  0  0
  2 13  1  0  0  0  0
  3  7  1  6  0  0  0
  3  2  1  0  0  0  0
  4  7  1  0  0  0  0
  5 16  2  0  0  0  0
  6 17  2  0  0  0  0
  8 12  1  0  0  0  0
  8 21  1  1  0  0  0
  9  1  1  0  0  0  0
 10 18  1  0  0  0  0
 11 15  1  0  0  0  0
 11  4  1  0  0  0  0
 13 18  1  6  0  0  0
 13  8  1  0  0  0  0
 14  1  2  0  0  0  0
 14  5  1  0  0  0  0
 15 20  1  0  0  0  0
 16 17  1  0  0  0  0
 16 12  1  0  0  0  0
 19 20  1  6  0  0  0
 19  3  1  0  0  0  0
 19 10  1  0  0  0  0
 21 23  1  0  0  0  0
 23 22  1  1  0  0  0
 23 25  1  0  0  0  0
 25 27  1  0  0  0  0
 25 24  1  1  0  0  0
 27 26  2  0  0  0  0
 28 27  1  0  0  0  0
 28 29  1  0  0  0  0
 29 30  2  0  0  0  0
 31 29  1  0  0  0  0
M  END
>  <MODEL>
9

>  <REMARK>
 VINA RESULT:      -8.3      3.349      7.597
  Name = 
  6 active torsions:
  status: ('A' for Active; 'I' for Inactive)
    1  A    between atoms: C_1  and  C_24
    2  A    between atoms: C_9  and  C_22
    3  A    between atoms: C_9  and  C_23
    4  A    between atoms: C_15  and  C_23
    5  A    between atoms: C_19  and  C_22
    6  A    between atoms: C_19  and  C_24
                            x       y       z     vdW  Elec       q    Type
                         _______ _______ _______ _____ _____    ______ ____

>  <TORSDO>
F 6

$$$$
