=
 OpenBabel10272414513D

 37 39  0  0  1  0  0  0  0  0999 V2000
  189.6560  177.0850  142.9010 C   0  0  1  0  0  0  0  0  0  0  0  0
  191.1870  177.0090  140.0380 C   0  0  0  0  0  0  0  0  0  0  0  0
  188.0820  178.7980  138.8160 C   0  0  0  0  0  3  0  0  0  0  0  0
  189.8070  177.5700  144.3700 C   0  0  2  0  0  3  0  0  0  0  0  0
  184.7150  178.4810  143.0320 C   0  0  0  0  0  2  0  0  0  0  0  0
  189.5790  176.1440  138.4090 C   0  0  0  0  0  3  0  0  0  0  0  0
  186.9820  178.8700  144.0820 C   0  0  0  0  0  2  0  0  0  0  0  0
  186.2050  177.0090  145.3290 F   0  0  0  0  0  0  0  0  0  0  0  0
  189.3680  178.5400  139.0540 C   0  0  0  0  0  3  0  0  0  0  0  0
  184.4260  178.1530  140.5530 C   0  0  0  0  0  3  0  0  0  0  0  0
  188.4510  176.1000  137.4580 C   0  0  0  0  0  3  0  0  0  0  0  0
  188.5580  177.3000  145.2500 C   0  0  2  0  0  3  0  0  0  0  0  0
  190.9320  176.6540  142.4540 O   0  0  0  0  0  0  0  0  0  0  0  0
  191.6280  178.2270  140.5350 F   0  0  0  0  0  0  0  0  0  0  0  0
  185.6780  178.3780  138.4460 C   0  0  0  0  0  2  0  0  0  0  0  0
  187.3370  176.8250  137.5460 C   0  0  0  0  0  3  0  0  0  0  0  0
  190.8300  176.0520  141.1800 C   0  0  0  0  0  2  0  0  0  0  0  0
  187.2270  177.4020  144.4850 C   0  0  2  0  0  0  0  0  0  0  0  0
  186.0980  179.0890  142.8550 C   0  0  0  0  0  2  0  0  0  0  0  0
  187.0350  177.7370  138.6880 C   0  0  1  0  0  3  0  0  0  0  0  0
  188.6170  175.9470  142.8580 C   0  0  0  0  0  2  0  0  0  0  0  0
  189.9800  177.1920  139.1500 C   0  0  0  0  0  0  0  0  0  0  0  0
  183.8410  178.7370  141.8070 C   0  0  1  0  0  3  0  0  0  0  0  0
  192.2190  176.4490  139.3040 F   0  0  0  0  0  0  0  0  0  0  0  0
  187.2270  176.4450  143.2720 C   0  0  0  0  0  2  0  0  0  0  0  0
  188.5520  178.0710  146.4170 O   0  0  0  0  0  1  0  0  0  0  0  0
  189.2080  178.1430  142.0980 O   0  0  0  0  0  1  0  0  0  0  0  0
  185.0960  178.9340  139.7060 C   0  0  0  0  0  3  0  0  0  0  0  0
  191.8090  179.0780  144.2860 C   0  0  0  0  0  1  0  0  0  0  0  0
  190.3060  179.0150  144.4790 C   0  0  0  0  0  2  0  0  0  0  0  0
  182.4020  178.2650  142.0570 C   0  0  2  0  0  3  0  0  0  0  0  0
  181.6730  177.7330  140.8130 C   0  0  0  0  0  2  0  0  0  0  0  0
  181.3900  179.6130  139.1920 C   0  0  0  0  0  1  0  0  0  0  0  0
  180.6910  178.7260  140.2040 C   0  0  0  0  0  2  0  0  0  0  0  0
  181.6550  179.2490  142.7140 O   0  0  0  0  0  0  0  0  0  0  0  0
  179.9820  178.2120  144.0460 C   0  0  0  0  0  1  0  0  0  0  0  0
  181.4060  178.7240  143.9830 C   0  0  0  0  0  2  0  0  0  0  0  0
  1 27  1  6  0  0  0
  1  4  1  0  0  0  0
  2 14  1  0  0  0  0
  2 17  1  0  0  0  0
  3  9  2  0  0  0  0
  4 30  1  6  0  0  0
  4 12  1  0  0  0  0
  6 22  2  0  0  0  0
  7 18  1  0  0  0  0
  9 22  1  0  0  0  0
 10 23  1  0  0  0  0
 11 16  2  0  0  0  0
 11  6  1  0  0  0  0
 12 26  1  1  0  0  0
 13  1  1  0  0  0  0
 15 20  1  0  0  0  0
 15 28  1  0  0  0  0
 17 13  1  0  0  0  0
 18 12  1  0  0  0  0
 18  8  1  1  0  0  0
 19  5  1  0  0  0  0
 19  7  1  0  0  0  0
 20 16  1  6  0  0  0
 20  3  1  0  0  0  0
 21  1  1  0  0  0  0
 21 25  1  0  0  0  0
 22  2  1  0  0  0  0
 23 31  1  1  0  0  0
 23  5  1  0  0  0  0
 24  2  1  0  0  0  0
 25 18  1  0  0  0  0
 28 10  2  0  0  0  0
 29 30  1  0  0  0  0
 31 32  1  6  0  0  0
 31 35  1  0  0  0  0
 33 34  1  0  0  0  0
 34 32  1  0  0  0  0
 35 37  1  0  0  0  0
 37 36  1  0  0  0  0
M  END
>  <MODEL>
1

>  <REMARK>
 VINA RESULT:      -6.6      0.000      0.000
  Name = 
  6 active torsions:
  status: ('A' for Active; 'I' for Inactive)
    1  A    between atoms: C_2  and  C_6
    2  A    between atoms: C_2  and  C_35
    3  A    between atoms: C_5  and  C_23
    4  A    between atoms: C_6  and  O_8
    5  A    between atoms: C_6  and  C_31
    6  A    between atoms: O_8  and  C_19
                            x       y       z     vdW  Elec       q    Type
                         _______ _______ _______ _____ _____    ______ ____

>  <TORSDO>
F 6

$$$$
=
 OpenBabel10272414513D

 37 39  0  0  1  0  0  0  0  0999 V2000
  186.9030  176.3230  136.2450 C   0  0  1  0  0  0  0  0  0  0  0  0
  183.7060  176.8280  135.9770 C   0  0  0  0  0  0  0  0  0  0  0  0
  184.2010  178.8730  139.1260 C   0  0  0  0  0  3  0  0  0  0  0  0
  188.2480  176.4870  135.4840 C   0  0  2  0  0  3  0  0  0  0  0  0
  189.2790  177.7230  140.5780 C   0  0  0  0  0  2  0  0  0  0  0  0
  182.7370  176.3440  138.1710 C   0  0  0  0  0  3  0  0  0  0  0  0
  189.3750  177.8550  138.0560 C   0  0  0  0  0  2  0  0  0  0  0  0
  190.4580  175.7840  138.4550 F   0  0  0  0  0  0  0  0  0  0  0  0
  183.8470  178.5550  137.8800 C   0  0  0  0  0  3  0  0  0  0  0  0
  187.1140  177.9250  141.8480 C   0  0  0  0  0  3  0  0  0  0  0  0
  182.3330  176.5140  139.5810 C   0  0  0  0  0  3  0  0  0  0  0  0
  189.4900  176.0550  136.3050 C   0  0  2  0  0  3  0  0  0  0  0  0
  185.9070  175.9790  135.2950 O   0  0  0  0  0  0  0  0  0  0  0  0
  184.2000  177.9100  135.2620 F   0  0  0  0  0  0  0  0  0  0  0  0
  184.7630  178.5700  141.5100 C   0  0  0  0  0  2  0  0  0  0  0  0
  182.9970  177.2190  140.4940 C   0  0  0  0  0  3  0  0  0  0  0  0
  184.6950  175.6590  135.9460 C   0  0  0  0  0  2  0  0  0  0  0  0
  189.3620  176.3320  137.8130 C   0  0  2  0  0  0  0  0  0  0  0  0
  188.6740  178.3370  139.3250 C   0  0  0  0  0  2  0  0  0  0  0  0
  184.3120  177.8750  140.2350 C   0  0  1  0  0  3  0  0  0  0  0  0
  187.0720  175.2320  137.3220 C   0  0  0  0  0  2  0  0  0  0  0  0
  183.4340  177.2090  137.4120 C   0  0  0  0  0  0  0  0  0  0  0  0
  188.5830  178.2400  141.8350 C   0  0  1  0  0  3  0  0  0  0  0  0
  182.5280  176.4220  135.3750 F   0  0  0  0  0  0  0  0  0  0  0  0
  188.0980  175.6500  138.3820 C   0  0  0  0  0  2  0  0  0  0  0  0
  190.6820  176.5650  135.7790 O   0  0  0  0  0  1  0  0  0  0  0  0
  186.5630  177.5320  136.8690 O   0  0  0  0  0  1  0  0  0  0  0  0
  186.2310  178.8570  141.4930 C   0  0  0  0  0  3  0  0  0  0  0  0
  187.0800  178.3950  134.3480 C   0  0  0  0  0  1  0  0  0  0  0  0
  188.4140  177.8710  134.8450 C   0  0  0  0  0  2  0  0  0  0  0  0
  189.3010  177.7450  143.0980 C   0  0  2  0  0  3  0  0  0  0  0  0
  188.4080  176.9800  144.0880 C   0  0  0  0  0  2  0  0  0  0  0  0
  186.5960  177.6470  145.6740 C   0  0  0  0  0  1  0  0  0  0  0  0
  188.0720  177.7680  145.3480 C   0  0  0  0  0  2  0  0  0  0  0  0
  189.9970  178.7850  143.7240 O   0  0  0  0  0  0  0  0  0  0  0  0
  191.7360  177.6090  144.8370 C   0  0  0  0  0  1  0  0  0  0  0  0
  191.3420  178.4270  143.6250 C   0  0  0  0  0  2  0  0  0  0  0  0
  1 27  1  1  0  0  0
  1 21  1  0  0  0  0
  2 22  1  0  0  0  0
  4 30  1  1  0  0  0
  4  1  1  0  0  0  0
  4 12  1  0  0  0  0
  5 23  1  0  0  0  0
  6 11  1  0  0  0  0
  7 19  1  0  0  0  0
  9  3  2  0  0  0  0
 11 16  2  0  0  0  0
 12 26  1  6  0  0  0
 12 18  1  0  0  0  0
 13 17  1  0  0  0  0
 13  1  1  0  0  0  0
 14  2  1  0  0  0  0
 17  2  1  0  0  0  0
 18  7  1  0  0  0  0
 18 25  1  0  0  0  0
 18  8  1  1  0  0  0
 19  5  1  0  0  0  0
 20  3  1  6  0  0  0
 20 16  1  0  0  0  0
 20 15  1  0  0  0  0
 21 25  1  0  0  0  0
 22  9  1  0  0  0  0
 22  6  2  0  0  0  0
 23 10  1  0  0  0  0
 23 31  1  1  0  0  0
 24  2  1  0  0  0  0
 28 15  1  0  0  0  0
 28 10  2  0  0  0  0
 29 30  1  0  0  0  0
 31 35  1  0  0  0  0
 31 32  1  1  0  0  0
 32 34  1  0  0  0  0
 34 33  1  0  0  0  0
 37 35  1  0  0  0  0
 37 36  1  0  0  0  0
M  END
>  <MODEL>
2

>  <REMARK>
 VINA RESULT:      -5.8      3.490      7.533
  Name = 
  6 active torsions:
  status: ('A' for Active; 'I' for Inactive)
    1  A    between atoms: C_2  and  C_6
    2  A    between atoms: C_2  and  C_35
    3  A    between atoms: C_5  and  C_23
    4  A    between atoms: C_6  and  O_8
    5  A    between atoms: C_6  and  C_31
    6  A    between atoms: O_8  and  C_19
                            x       y       z     vdW  Elec       q    Type
                         _______ _______ _______ _____ _____    ______ ____

>  <TORSDO>
F 6

$$$$
=
 OpenBabel10272414513D

 37 39  0  0  1  0  0  0  0  0999 V2000
  187.0220  177.7960  146.1150 C   0  0  1  0  0  0  0  0  0  0  0  0
  190.1000  177.3620  147.0550 C   0  0  0  0  0  0  0  0  0  0  0  0
  190.8860  178.5170  143.5350 C   0  0  0  0  0  3  0  0  0  0  0  0
  185.7180  178.5620  146.4710 C   0  0  2  0  0  3  0  0  0  0  0  0
  186.0430  178.6090  141.1390 C   0  0  0  0  0  2  0  0  0  0  0  0
  191.1810  176.0260  145.3120 C   0  0  0  0  0  3  0  0  0  0  0  0
  185.5880  179.4490  143.4790 C   0  0  0  0  0  2  0  0  0  0  0  0
  183.9210  177.7780  143.2520 F   0  0  0  0  0  0  0  0  0  0  0  0
  190.8960  178.4600  144.8670 C   0  0  0  0  0  3  0  0  0  0  0  0
  188.3150  177.7910  140.4280 C   0  0  0  0  0  3  0  0  0  0  0  0
  191.8440  175.6730  144.0410 C   0  0  0  0  0  3  0  0  0  0  0  0
  184.5560  178.3190  145.4730 C   0  0  2  0  0  3  0  0  0  0  0  0
  187.6620  177.4400  147.3300 O   0  0  0  0  0  0  0  0  0  0  0  0
  189.9120  178.6940  147.3920 F   0  0  0  0  0  0  0  0  0  0  0  0
  190.6520  177.7590  141.1980 C   0  0  0  0  0  2  0  0  0  0  0  0
  191.6320  176.2680  142.8690 C   0  0  0  0  0  3  0  0  0  0  0  0
  188.7700  176.6020  147.0760 C   0  0  0  0  0  2  0  0  0  0  0  0
  185.0190  178.1210  144.0190 C   0  0  2  0  0  0  0  0  0  0  0  0
  186.6120  179.3290  142.3510 C   0  0  0  0  0  2  0  0  0  0  0  0
  190.6120  177.3370  142.6580 C   0  0  1  0  0  3  0  0  0  0  0  0
  186.6560  176.5570  145.2720 C   0  0  0  0  0  2  0  0  0  0  0  0
  190.7210  177.2340  145.6840 C   0  0  0  0  0  0  0  0  0  0  0  0
  187.0730  178.5270  140.0150 C   0  0  1  0  0  3  0  0  0  0  0  0
  190.9420  176.7980  147.9980 F   0  0  0  0  0  0  0  0  0  0  0  0
  186.0340  176.9590  143.9300 C   0  0  0  0  0  2  0  0  0  0  0  0
  183.5540  179.2900  145.5750 O   0  0  0  0  0  1  0  0  0  0  0  0
  187.8660  178.6260  145.3630 O   0  0  0  0  0  1  0  0  0  0  0  0
  189.4010  178.4710  140.7940 C   0  0  0  0  0  3  0  0  0  0  0  0
  186.3010  180.2680  148.2150 C   0  0  0  0  0  1  0  0  0  0  0  0
  185.9520  180.0500  146.7560 C   0  0  0  0  0  2  0  0  0  0  0  0
  186.4430  177.9470  138.7400 C   0  0  2  0  0  3  0  0  0  0  0  0
  187.4490  177.3730  137.7290 C   0  0  0  0  0  2  0  0  0  0  0  0
  189.0710  179.1560  137.0710 C   0  0  0  0  0  1  0  0  0  0  0  0
  187.8550  178.3590  136.6400 C   0  0  0  0  0  2  0  0  0  0  0  0
  185.5740  178.8670  138.1430 O   0  0  0  0  0  0  0  0  0  0  0  0
  183.2630  178.9960  138.6810 C   0  0  0  0  0  1  0  0  0  0  0  0
  184.3610  178.1870  138.0220 C   0  0  0  0  0  2  0  0  0  0  0  0
  1 27  1  6  0  0  0
  1  4  1  0  0  0  0
  1 13  1  0  0  0  0
  2 17  1  0  0  0  0
  2 14  1  0  0  0  0
  2 24  1  0  0  0  0
  3  9  2  0  0  0  0
  4 30  1  6  0  0  0
  5 19  1  0  0  0  0
  6 22  2  0  0  0  0
  7 18  1  0  0  0  0
  9 22  1  0  0  0  0
 10 28  2  0  0  0  0
 11  6  1  0  0  0  0
 12 26  1  6  0  0  0
 12  4  1  0  0  0  0
 16 11  2  0  0  0  0
 17 13  1  0  0  0  0
 18  8  1  6  0  0  0
 18 12  1  0  0  0  0
 19  7  1  0  0  0  0
 20 15  1  6  0  0  0
 20 16  1  0  0  0  0
 20  3  1  0  0  0  0
 21  1  1  0  0  0  0
 22  2  1  0  0  0  0
 23 31  1  6  0  0  0
 23 10  1  0  0  0  0
 23  5  1  0  0  0  0
 25 18  1  0  0  0  0
 25 21  1  0  0  0  0
 28 15  1  0  0  0  0
 30 29  1  0  0  0  0
 31 32  1  6  0  0  0
 34 33  1  0  0  0  0
 34 32  1  0  0  0  0
 35 31  1  0  0  0  0
 37 35  1  0  0  0  0
 37 36  1  0  0  0  0
M  END
>  <MODEL>
3

>  <REMARK>
 VINA RESULT:      -5.6      2.908      5.575
  Name = 
  6 active torsions:
  status: ('A' for Active; 'I' for Inactive)
    1  A    between atoms: C_2  and  C_6
    2  A    between atoms: C_2  and  C_35
    3  A    between atoms: C_5  and  C_23
    4  A    between atoms: C_6  and  O_8
    5  A    between atoms: C_6  and  C_31
    6  A    between atoms: O_8  and  C_19
                            x       y       z     vdW  Elec       q    Type
                         _______ _______ _______ _____ _____    ______ ____

>  <TORSDO>
F 6

$$$$
=
 OpenBabel10272414513D

 37 39  0  0  1  0  0  0  0  0999 V2000
  190.6130  177.4970  145.0280 C   0  0  1  0  0  0  0  0  0  0  0  0
  188.9750  177.5580  147.8320 C   0  0  0  0  0  0  0  0  0  0  0  0
  185.9580  177.1420  145.5810 C   0  0  0  0  0  3  0  0  0  0  0  0
  191.7430  176.7420  144.2730 C   0  0  2  0  0  3  0  0  0  0  0  0
  187.9950  177.8190  140.6210 C   0  0  0  0  0  2  0  0  0  0  0  0
  187.1620  179.1770  147.5460 C   0  0  0  0  0  3  0  0  0  0  0  0
  189.7840  176.5240  141.8500 C   0  0  0  0  0  2  0  0  0  0  0  0
  191.0540  178.2900  140.9060 F   0  0  0  0  0  0  0  0  0  0  0  0
  186.8310  176.9120  146.5630 C   0  0  0  0  0  3  0  0  0  0  0  0
  185.9150  178.6500  141.7710 C   0  0  0  0  0  3  0  0  0  0  0  0
  185.8690  179.7570  147.1350 C   0  0  0  0  0  3  0  0  0  0  0  0
  191.9810  177.2530  142.8290 C   0  0  2  0  0  3  0  0  0  0  0  0
  190.9700  177.5500  146.4000 O   0  0  0  0  0  0  0  0  0  0  0  0
  189.1990  176.1960  147.6930 F   0  0  0  0  0  0  0  0  0  0  0  0
  184.6770  178.3940  143.8830 C   0  0  0  0  0  2  0  0  0  0  0  0
  185.1960  179.4390  146.0310 C   0  0  0  0  0  3  0  0  0  0  0  0
  190.0620  178.3640  147.1140 C   0  0  0  0  0  2  0  0  0  0  0  0
  190.7010  177.7330  142.1220 C   0  0  2  0  0  0  0  0  0  0  0  0
  188.2910  176.8280  141.7360 C   0  0  0  0  0  2  0  0  0  0  0  0
  185.7090  178.4950  144.9950 C   0  0  1  0  0  3  0  0  0  0  0  0
  190.4620  178.9040  144.4170 C   0  0  0  0  0  2  0  0  0  0  0  0
  187.6250  177.9420  147.2770 C   0  0  0  0  0  0  0  0  0  0  0  0
  186.4960  178.0850  140.5070 C   0  0  1  0  0  3  0  0  0  0  0  0
  189.0230  177.8620  149.1820 F   0  0  0  0  0  0  0  0  0  0  0  0
  190.0040  178.8320  142.9560 C   0  0  0  0  0  2  0  0  0  0  0  0
  192.6960  176.3370  142.0500 O   0  0  0  0  0  1  0  0  0  0  0  0
  189.4030  176.8040  144.8820 O   0  0  0  0  0  1  0  0  0  0  0  0
  185.2740  177.8520  142.6230 C   0  0  0  0  0  3  0  0  0  0  0  0
  192.3570  174.6640  145.5370 C   0  0  0  0  0  1  0  0  0  0  0  0
  191.6000  175.2170  144.3450 C   0  0  0  0  0  2  0  0  0  0  0  0
  186.1900  178.9570  139.2800 C   0  0  2  0  0  3  0  0  0  0  0  0
  184.7730  178.7900  138.7090 C   0  0  0  0  0  2  0  0  0  0  0  0
  182.6510  179.1510  139.9790 C   0  0  0  0  0  1  0  0  0  0  0  0
  183.7790  179.8250  139.2210 C   0  0  0  0  0  2  0  0  0  0  0  0
  187.1690  178.8000  138.2930 O   0  0  0  0  0  0  0  0  0  0  0  0
  187.4060  176.8240  136.9950 C   0  0  0  0  0  1  0  0  0  0  0  0
  186.5550  178.0400  137.2960 C   0  0  0  0  0  2  0  0  0  0  0  0
  1 27  1  6  0  0  0
  1 13  1  0  0  0  0
  2 24  1  0  0  0  0
  3  9  2  0  0  0  0
  4 30  1  6  0  0  0
  4  1  1  0  0  0  0
  5 19  1  0  0  0  0
  7 18  1  0  0  0  0
  9 22  1  0  0  0  0
 10 28  2  0  0  0  0
 11  6  1  0  0  0  0
 12 26  1  6  0  0  0
 12  4  1  0  0  0  0
 13 17  1  0  0  0  0
 14  2  1  0  0  0  0
 16 11  2  0  0  0  0
 17  2  1  0  0  0  0
 18  8  1  6  0  0  0
 18 12  1  0  0  0  0
 18 25  1  0  0  0  0
 19  7  1  0  0  0  0
 20 15  1  6  0  0  0
 20  3  1  0  0  0  0
 20 16  1  0  0  0  0
 21  1  1  0  0  0  0
 22  6  2  0  0  0  0
 22  2  1  0  0  0  0
 23 31  1  6  0  0  0
 23  5  1  0  0  0  0
 23 10  1  0  0  0  0
 25 21  1  0  0  0  0
 28 15  1  0  0  0  0
 30 29  1  0  0  0  0
 31 32  1  6  0  0  0
 32 34  1  0  0  0  0
 34 33  1  0  0  0  0
 35 31  1  0  0  0  0
 36 37  1  0  0  0  0
 37 35  1  0  0  0  0
M  END
>  <MODEL>
4

>  <REMARK>
 VINA RESULT:      -5.6      2.350      6.168
  Name = 
  6 active torsions:
  status: ('A' for Active; 'I' for Inactive)
    1  A    between atoms: C_2  and  C_6
    2  A    between atoms: C_2  and  C_35
    3  A    between atoms: C_5  and  C_23
    4  A    between atoms: C_6  and  O_8
    5  A    between atoms: C_6  and  C_31
    6  A    between atoms: O_8  and  C_19
                            x       y       z     vdW  Elec       q    Type
                         _______ _______ _______ _____ _____    ______ ____

>  <TORSDO>
F 6

$$$$
=
 OpenBabel10272414513D

 37 39  0  0  1  0  0  0  0  0999 V2000
  190.9560  177.3390  144.5580 C   0  0  1  0  0  0  0  0  0  0  0  0
  190.7290  177.1700  147.7930 C   0  0  0  0  0  0  0  0  0  0  0  0
  187.0180  176.9000  147.0880 C   0  0  0  0  0  3  0  0  0  0  0  0
  191.6150  176.6550  143.3280 C   0  0  2  0  0  3  0  0  0  0  0  0
  186.6680  177.9740  141.8030 C   0  0  0  0  0  2  0  0  0  0  0  0
  189.0190  178.7900  148.4580 C   0  0  0  0  0  3  0  0  0  0  0  0
  188.7820  176.6050  142.0140 C   0  0  0  0  0  2  0  0  0  0  0  0
  189.5480  178.4490  140.7370 F   0  0  0  0  0  0  0  0  0  0  0  0
  188.2290  176.6050  147.5620 C   0  0  0  0  0  3  0  0  0  0  0  0
  185.3330  178.6960  143.8120 C   0  0  0  0  0  3  0  0  0  0  0  0
  187.6920  179.3880  148.7060 C   0  0  0  0  0  3  0  0  0  0  0  0
  191.2030  177.2770  141.9690 C   0  0  2  0  0  3  0  0  0  0  0  0
  191.8840  177.2910  145.6300 O   0  0  0  0  0  0  0  0  0  0  0  0
  190.8330  175.8250  147.4710 F   0  0  0  0  0  0  0  0  0  0  0  0
  185.1510  178.2670  146.2280 C   0  0  0  0  0  2  0  0  0  0  0  0
  186.5930  179.1500  147.9940 C   0  0  0  0  0  3  0  0  0  0  0  0
  191.4060  178.0390  146.7290 C   0  0  0  0  0  2  0  0  0  0  0  0
  189.7560  177.7980  141.9390 C   0  0  2  0  0  0  0  0  0  0  0  0
  187.4010  176.9030  142.5960 C   0  0  0  0  0  2  0  0  0  0  0  0
  186.5700  178.2930  146.7730 C   0  0  1  0  0  3  0  0  0  0  0  0
  190.5860  178.7880  144.1810 C   0  0  0  0  0  2  0  0  0  0  0  0
  189.2830  177.5840  147.9230 C   0  0  0  0  0  0  0  0  0  0  0  0
  185.2800  178.2340  142.3840 C   0  0  1  0  0  3  0  0  0  0  0  0
  191.3770  177.3710  149.0000 F   0  0  0  0  0  0  0  0  0  0  0  0
  189.5280  178.8240  143.0730 C   0  0  0  0  0  2  0  0  0  0  0  0
  191.4770  176.4300  140.8900 O   0  0  0  0  0  1  0  0  0  0  0  0
  189.7890  176.6480  144.9130 O   0  0  0  0  0  1  0  0  0  0  0  0
  185.1140  177.8280  144.7990 C   0  0  0  0  0  3  0  0  0  0  0  0
  192.2990  174.5290  144.4720 C   0  0  0  0  0  1  0  0  0  0  0  0
  191.4800  175.1280  143.3450 C   0  0  0  0  0  2  0  0  0  0  0  0
  184.4860  179.1940  141.4860 C   0  0  2  0  0  3  0  0  0  0  0  0
  183.0690  178.7180  141.1300 C   0  0  0  0  0  2  0  0  0  0  0  0
  180.7700  179.3900  141.8400 C   0  0  0  0  0  1  0  0  0  0  0  0
  182.0860  178.7880  142.2920 C   0  0  0  0  0  2  0  0  0  0  0  0
  185.2180  179.5430  140.3460 O   0  0  0  0  0  0  0  0  0  0  0  0
  185.2380  178.3320  138.3010 C   0  0  0  0  0  1  0  0  0  0  0  0
  184.4160  179.1540  139.2720 C   0  0  0  0  0  2  0  0  0  0  0  0
  1 27  1  1  0  0  0
  1 13  1  0  0  0  0
  2 22  1  0  0  0  0
  2 24  1  0  0  0  0
  3  9  2  0  0  0  0
  4 30  1  6  0  0  0
  4  1  1  0  0  0  0
  5 23  1  0  0  0  0
  5 19  1  0  0  0  0
  6 11  1  0  0  0  0
  7 19  1  0  0  0  0
  9 22  1  0  0  0  0
 10 28  2  0  0  0  0
 12 26  1  6  0  0  0
 12  4  1  0  0  0  0
 13 17  1  0  0  0  0
 14  2  1  0  0  0  0
 16 11  2  0  0  0  0
 17  2  1  0  0  0  0
 18  8  1  6  0  0  0
 18 12  1  0  0  0  0
 18  7  1  0  0  0  0
 18 25  1  0  0  0  0
 20 15  1  1  0  0  0
 20  3  1  0  0  0  0
 20 16  1  0  0  0  0
 21  1  1  0  0  0  0
 22  6  2  0  0  0  0
 23 31  1  6  0  0  0
 23 10  1  0  0  0  0
 25 21  1  0  0  0  0
 28 15  1  0  0  0  0
 30 29  1  0  0  0  0
 31 32  1  6  0  0  0
 32 34  1  0  0  0  0
 33 34  1  0  0  0  0
 35 31  1  0  0  0  0
 36 37  1  0  0  0  0
 37 35  1  0  0  0  0
M  END
>  <MODEL>
5

>  <REMARK>
 VINA RESULT:      -5.1      2.638      6.069
  Name = 
  6 active torsions:
  status: ('A' for Active; 'I' for Inactive)
    1  A    between atoms: C_2  and  C_6
    2  A    between atoms: C_2  and  C_35
    3  A    between atoms: C_5  and  C_23
    4  A    between atoms: C_6  and  O_8
    5  A    between atoms: C_6  and  C_31
    6  A    between atoms: O_8  and  C_19
                            x       y       z     vdW  Elec       q    Type
                         _______ _______ _______ _____ _____    ______ ____

>  <TORSDO>
F 6

$$$$
=
 OpenBabel10272414513D

 37 39  0  0  1  0  0  0  0  0999 V2000
  182.3240  176.5870  137.9100 C   0  0  1  0  0  0  0  0  0  0  0  0
  181.8860  178.5010  140.4960 C   0  0  0  0  0  0  0  0  0  0  0  0
  185.5230  179.3850  139.9190 C   0  0  0  0  0  3  0  0  0  0  0  0
  181.7840  176.2980  136.4810 C   0  0  2  0  0  3  0  0  0  0  0  0
  187.0960  175.8220  136.1720 C   0  0  0  0  0  2  0  0  0  0  0  0
  183.7370  178.0380  142.0290 C   0  0  0  0  0  3  0  0  0  0  0  0
  184.7420  176.4360  135.4880 C   0  0  0  0  0  2  0  0  0  0  0  0
  184.6380  174.0680  135.4370 F   0  0  0  0  0  0  0  0  0  0  0  0
  184.2090  179.5330  140.0930 C   0  0  0  0  0  3  0  0  0  0  0  0
  188.1420  176.6850  138.2940 C   0  0  0  0  0  3  0  0  0  0  0  0
  185.0870  178.0630  142.6250 C   0  0  0  0  0  3  0  0  0  0  0  0
  182.5700  175.1940  135.7260 C   0  0  2  0  0  3  0  0  0  0  0  0
  181.2180  176.9330  138.7280 O   0  0  0  0  0  0  0  0  0  0  0  0
  181.5660  179.3770  139.4690 F   0  0  0  0  0  0  0  0  0  0  0  0
  187.7640  178.3600  140.0560 C   0  0  0  0  0  2  0  0  0  0  0  0
  186.2280  178.1850  141.9500 C   0  0  0  0  0  3  0  0  0  0  0  0
  181.6230  177.0510  140.0770 C   0  0  0  0  0  2  0  0  0  0  0  0
  184.0720  175.1680  136.0560 C   0  0  2  0  0  0  0  0  0  0  0  0
  186.0170  176.8930  136.1940 C   0  0  0  0  0  2  0  0  0  0  0  0
  186.3040  178.2300  140.4600 C   0  0  1  0  0  3  0  0  0  0  0  0
  183.0540  175.3320  138.4280 C   0  0  0  0  0  2  0  0  0  0  0  0
  183.3340  178.6450  140.8970 C   0  0  0  0  0  0  0  0  0  0  0  0
  188.3700  176.3110  136.8570 C   0  0  1  0  0  3  0  0  0  0  0  0
  181.0750  178.7990  141.5780 F   0  0  0  0  0  0  0  0  0  0  0  0
  184.2880  175.0130  137.5780 C   0  0  0  0  0  2  0  0  0  0  0  0
  182.3370  175.2230  134.3470 O   0  0  0  0  0  1  0  0  0  0  0  0
  183.2300  177.6560  137.8640 O   0  0  0  0  0  1  0  0  0  0  0  0
  187.9810  177.9630  138.6310 C   0  0  0  0  0  3  0  0  0  0  0  0
  180.1560  178.0500  135.7250 C   0  0  0  0  0  1  0  0  0  0  0  0
  181.5900  177.5660  135.6420 C   0  0  0  0  0  2  0  0  0  0  0  0
  189.5050  175.2910  136.6890 C   0  0  2  0  0  3  0  0  0  0  0  0
  189.1080  174.0020  135.9500 C   0  0  0  0  0  2  0  0  0  0  0  0
  187.6580  171.9960  136.2920 C   0  0  0  0  0  1  0  0  0  0  0  0
  188.7740  172.8400  136.8770 C   0  0  0  0  0  2  0  0  0  0  0  0
  190.1230  175.0160  137.9140 O   0  0  0  0  0  0  0  0  0  0  0  0
  191.9540  176.4590  138.3740 C   0  0  0  0  0  1  0  0  0  0  0  0
  191.4860  175.1980  137.6770 C   0  0  0  0  0  2  0  0  0  0  0  0
  1 27  1  6  0  0  0
  1 21  1  0  0  0  0
  1 13  1  0  0  0  0
  2 22  1  0  0  0  0
  2 24  1  0  0  0  0
  3  9  2  0  0  0  0
  4 30  1  6  0  0  0
  4  1  1  0  0  0  0
  5 19  1  0  0  0  0
  5 23  1  0  0  0  0
  6 11  1  0  0  0  0
  7 18  1  0  0  0  0
  7 19  1  0  0  0  0
  9 22  1  0  0  0  0
 10 28  2  0  0  0  0
 12 26  1  6  0  0  0
 12 18  1  0  0  0  0
 12  4  1  0  0  0  0
 13 17  1  0  0  0  0
 14  2  1  0  0  0  0
 15 20  1  0  0  0  0
 16 11  2  0  0  0  0
 17  2  1  0  0  0  0
 18  8  1  6  0  0  0
 18 25  1  0  0  0  0
 20  3  1  1  0  0  0
 20 16  1  0  0  0  0
 22  6  2  0  0  0  0
 23 31  1  1  0  0  0
 23 10  1  0  0  0  0
 25 21  1  0  0  0  0
 28 15  1  0  0  0  0
 30 29  1  0  0  0  0
 31 32  1  1  0  0  0
 31 35  1  0  0  0  0
 32 34  1  0  0  0  0
 33 34  1  0  0  0  0
 37 35  1  0  0  0  0
 37 36  1  0  0  0  0
M  END
>  <MODEL>
6

>  <REMARK>
 VINA RESULT:      -5.1      3.949      9.144
  Name = 
  6 active torsions:
  status: ('A' for Active; 'I' for Inactive)
    1  A    between atoms: C_2  and  C_6
    2  A    between atoms: C_2  and  C_35
    3  A    between atoms: C_5  and  C_23
    4  A    between atoms: C_6  and  O_8
    5  A    between atoms: C_6  and  C_31
    6  A    between atoms: O_8  and  C_19
                            x       y       z     vdW  Elec       q    Type
                         _______ _______ _______ _____ _____    ______ ____

>  <TORSDO>
F 6

$$$$
=
 OpenBabel10272414513D

 37 39  0  0  1  0  0  0  0  0999 V2000
  185.6740  177.0950  136.6310 C   0  0  1  0  0  0  0  0  0  0  0  0
  183.0770  175.1560  136.8460 C   0  0  0  0  0  0  0  0  0  0  0  0
  185.6800  172.4250  137.1740 C   0  0  0  0  0  3  0  0  0  0  0  0
  186.3510  178.3300  137.2880 C   0  0  2  0  0  3  0  0  0  0  0  0
  190.3120  174.9690  136.0390 C   0  0  0  0  0  2  0  0  0  0  0  0
  183.4420  173.3220  135.2670 C   0  0  0  0  0  3  0  0  0  0  0  0
  188.9900  176.6610  137.3720 C   0  0  0  0  0  2  0  0  0  0  0  0
  189.6470  177.9560  135.4970 F   0  0  0  0  0  0  0  0  0  0  0  0
  184.6260  173.1930  137.4540 C   0  0  0  0  0  3  0  0  0  0  0  0
  189.3440  172.7430  135.3680 C   0  0  0  0  0  3  0  0  0  0  0  0
  183.9520  172.0600  134.6960 C   0  0  0  0  0  3  0  0  0  0  0  0
  187.7160  178.7060  136.6550 C   0  0  2  0  0  3  0  0  0  0  0  0
  184.2700  177.2950  136.6770 O   0  0  0  0  0  0  0  0  0  0  0  0
  183.2930  175.4480  138.1850 F   0  0  0  0  0  0  0  0  0  0  0  0
  187.4130  171.2900  135.8310 C   0  0  0  0  0  2  0  0  0  0  0  0
  185.1460  171.5270  134.9450 C   0  0  0  0  0  3  0  0  0  0  0  0
  183.6040  176.2820  135.9510 C   0  0  0  0  0  2  0  0  0  0  0  0
  188.5240  177.4940  136.1600 C   0  0  2  0  0  0  0  0  0  0  0  0
  189.2490  175.1790  137.1070 C   0  0  0  0  0  2  0  0  0  0  0  0
  186.1860  172.1880  135.7860 C   0  0  1  0  0  3  0  0  0  0  0  0
  186.1890  176.9560  135.1840 C   0  0  0  0  0  2  0  0  0  0  0  0
  183.7510  173.8610  136.4600 C   0  0  0  0  0  0  0  0  0  0  0  0
  190.5750  173.4820  135.8110 C   0  0  1  0  0  3  0  0  0  0  0  0
  181.7120  175.0420  136.6500 F   0  0  0  0  0  0  0  0  0  0  0  0
  187.6940  176.6650  135.1540 C   0  0  0  0  0  2  0  0  0  0  0  0
  188.4760  179.5390  137.4830 O   0  0  0  0  0  1  0  0  0  0  0  0
  186.0080  175.9370  137.3480 O   0  0  0  0  0  1  0  0  0  0  0  0
  188.6340  172.0440  136.2520 C   0  0  0  0  0  3  0  0  0  0  0  0
  185.1380  178.7830  139.4360 C   0  0  0  0  0  1  0  0  0  0  0  0
  186.4120  178.2410  138.8170 C   0  0  0  0  0  2  0  0  0  0  0  0
  191.7580  173.2790  134.8540 C   0  0  2  0  0  3  0  0  0  0  0  0
  192.6670  172.0880  135.1980 C   0  0  0  0  0  2  0  0  0  0  0  0
  192.7460  169.5940  135.3340 C   0  0  0  0  0  1  0  0  0  0  0  0
  192.2470  170.7820  134.5350 C   0  0  0  0  0  2  0  0  0  0  0  0
  192.4900  174.4610  134.6970 O   0  0  0  0  0  0  0  0  0  0  0  0
  194.3880  175.3400  135.8250 C   0  0  0  0  0  1  0  0  0  0  0  0
  193.7800  174.1440  135.1220 C   0  0  0  0  0  2  0  0  0  0  0  0
  1 13  1  0  0  0  0
  1  4  1  0  0  0  0
  1 27  1  1  0  0  0
  2 14  1  0  0  0  0
  3  9  2  0  0  0  0
  4 30  1  1  0  0  0
  5 19  1  0  0  0  0
  6 22  2  0  0  0  0
 10 23  1  0  0  0  0
 10 28  2  0  0  0  0
 11 16  2  0  0  0  0
 11  6  1  0  0  0  0
 12  4  1  0  0  0  0
 12 26  1  1  0  0  0
 15 28  1  0  0  0  0
 17 13  1  0  0  0  0
 17  2  1  0  0  0  0
 18  8  1  6  0  0  0
 18 12  1  0  0  0  0
 18  7  1  0  0  0  0
 19  7  1  0  0  0  0
 20 16  1  6  0  0  0
 20 15  1  0  0  0  0
 20  3  1  0  0  0  0
 21  1  1  0  0  0  0
 22  2  1  0  0  0  0
 22  9  1  0  0  0  0
 23 31  1  6  0  0  0
 23  5  1  0  0  0  0
 24  2  1  0  0  0  0
 25 21  1  0  0  0  0
 25 18  1  0  0  0  0
 30 29  1  0  0  0  0
 31 32  1  1  0  0  0
 34 32  1  0  0  0  0
 34 33  1  0  0  0  0
 35 31  1  0  0  0  0
 35 37  1  0  0  0  0
 37 36  1  0  0  0  0
M  END
>  <MODEL>
7

>  <REMARK>
 VINA RESULT:      -4.8      5.056      9.876
  Name = 
  6 active torsions:
  status: ('A' for Active; 'I' for Inactive)
    1  A    between atoms: C_2  and  C_6
    2  A    between atoms: C_2  and  C_35
    3  A    between atoms: C_5  and  C_23
    4  A    between atoms: C_6  and  O_8
    5  A    between atoms: C_6  and  C_31
    6  A    between atoms: O_8  and  C_19
                            x       y       z     vdW  Elec       q    Type
                         _______ _______ _______ _____ _____    ______ ____

>  <TORSDO>
F 6

$$$$
=
 OpenBabel10272414513D

 37 39  0  0  1  0  0  0  0  0999 V2000
  186.9490  177.7390  145.9120 C   0  0  1  0  0  0  0  0  0  0  0  0
  190.0870  177.3300  146.6410 C   0  0  0  0  0  0  0  0  0  0  0  0
  190.6320  178.6870  143.1470 C   0  0  0  0  0  3  0  0  0  0  0  0
  185.6540  178.4540  146.3870 C   0  0  2  0  0  3  0  0  0  0  0  0
  185.6490  178.7880  141.0550 C   0  0  0  0  0  2  0  0  0  0  0  0
  191.0860  176.1130  144.7670 C   0  0  0  0  0  3  0  0  0  0  0  0
  185.3220  179.4930  143.4610 C   0  0  0  0  0  2  0  0  0  0  0  0
  183.6790  177.7970  143.2450 F   0  0  0  0  0  0  0  0  0  0  0  0
  190.7240  178.5600  144.4720 C   0  0  0  0  0  3  0  0  0  0  0  0
  187.8900  178.0630  140.1660 C   0  0  0  0  0  3  0  0  0  0  0  0
  191.6770  175.8440  143.4410 C   0  0  0  0  0  3  0  0  0  0  0  0
  184.4380  178.2360  145.4500 C   0  0  2  0  0  3  0  0  0  0  0  0
  187.6690  177.3360  147.0660 O   0  0  0  0  0  0  0  0  0  0  0  0
  189.8930  178.6380  147.0600 F   0  0  0  0  0  0  0  0  0  0  0  0
  190.2700  178.0470  140.7910 C   0  0  0  0  0  2  0  0  0  0  0  0
  191.3820  176.4940  142.3170 C   0  0  0  0  0  3  0  0  0  0  0  0
  188.7770  176.5390  146.7010 C   0  0  0  0  0  2  0  0  0  0  0  0
  184.8150  178.1250  143.9620 C   0  0  2  0  0  0  0  0  0  0  0  0
  186.2770  179.4570  142.2690 C   0  0  0  0  0  2  0  0  0  0  0  0
  190.3290  177.5480  142.2260 C   0  0  1  0  0  3  0  0  0  0  0  0
  186.5580  176.5380  145.0280 C   0  0  0  0  0  2  0  0  0  0  0  0
  190.6260  177.2890  145.2310 C   0  0  0  0  0  0  0  0  0  0  0  0
  186.6100  178.7900  139.8690 C   0  0  1  0  0  3  0  0  0  0  0  0
  190.9970  176.7380  147.4990 F   0  0  0  0  0  0  0  0  0  0  0  0
  185.8460  176.9950  143.7490 C   0  0  0  0  0  2  0  0  0  0  0  0
  183.4240  179.1760  145.6640 O   0  0  0  0  0  1  0  0  0  0  0  0
  187.7280  178.6270  145.1570 O   0  0  0  0  0  1  0  0  0  0  0  0
  188.9820  178.7480  140.5020 C   0  0  0  0  0  3  0  0  0  0  0  0
  186.3570  180.0760  148.1670 C   0  0  0  0  0  1  0  0  0  0  0  0
  185.8740  179.9300  146.7370 C   0  0  0  0  0  2  0  0  0  0  0  0
  185.9150  178.2630  138.6050 C   0  0  2  0  0  3  0  0  0  0  0  0
  184.5200  177.6620  138.8400 C   0  0  0  0  0  2  0  0  0  0  0  0
  182.9170  179.5790  138.8490 C   0  0  0  0  0  1  0  0  0  0  0  0
  183.4090  178.3710  138.0750 C   0  0  0  0  0  2  0  0  0  0  0  0
  186.7460  177.3850  137.9010 O   0  0  0  0  0  0  0  0  0  0  0  0
  186.2880  177.2340  135.5740 C   0  0  0  0  0  1  0  0  0  0  0  0
  186.9760  178.0120  136.6760 C   0  0  0  0  0  2  0  0  0  0  0  0
  1 27  1  6  0  0  0
  1  4  1  0  0  0  0
  1 13  1  0  0  0  0
  2 17  1  0  0  0  0
  2 14  1  0  0  0  0
  2 24  1  0  0  0  0
  3  9  2  0  0  0  0
  4 30  1  6  0  0  0
  5 19  1  0  0  0  0
  6 22  2  0  0  0  0
  7 18  1  0  0  0  0
  9 22  1  0  0  0  0
 10 28  2  0  0  0  0
 11  6  1  0  0  0  0
 12 26  1  6  0  0  0
 12  4  1  0  0  0  0
 16 11  2  0  0  0  0
 17 13  1  0  0  0  0
 18  8  1  6  0  0  0
 18 12  1  0  0  0  0
 19  7  1  0  0  0  0
 20 15  1  6  0  0  0
 20 16  1  0  0  0  0
 20  3  1  0  0  0  0
 21  1  1  0  0  0  0
 22  2  1  0  0  0  0
 23 31  1  6  0  0  0
 23 10  1  0  0  0  0
 23  5  1  0  0  0  0
 25 18  1  0  0  0  0
 25 21  1  0  0  0  0
 28 15  1  0  0  0  0
 30 29  1  0  0  0  0
 31 32  1  1  0  0  0
 34 32  1  0  0  0  0
 34 33  1  0  0  0  0
 35 31  1  0  0  0  0
 36 37  1  0  0  0  0
 37 35  1  0  0  0  0
M  END
>  <MODEL>
8

>  <REMARK>
 VINA RESULT:      -4.8      2.833      5.316
  Name = 
  6 active torsions:
  status: ('A' for Active; 'I' for Inactive)
    1  A    between atoms: C_2  and  C_6
    2  A    between atoms: C_2  and  C_35
    3  A    between atoms: C_5  and  C_23
    4  A    between atoms: C_6  and  O_8
    5  A    between atoms: C_6  and  C_31
    6  A    between atoms: O_8  and  C_19
                            x       y       z     vdW  Elec       q    Type
                         _______ _______ _______ _____ _____    ______ ____

>  <TORSDO>
F 6

$$$$
=
 OpenBabel10272414513D

 37 39  0  0  1  0  0  0  0  0999 V2000
  186.9190  177.7190  145.5510 C   0  0  1  0  0  0  0  0  0  0  0  0
  189.8450  177.3040  146.8980 C   0  0  0  0  0  0  0  0  0  0  0  0
  191.0910  178.4390  143.5060 C   0  0  0  0  0  3  0  0  0  0  0  0
  185.5760  178.4810  145.7240 C   0  0  2  0  0  3  0  0  0  0  0  0
  186.6120  178.4930  140.4820 C   0  0  0  0  0  2  0  0  0  0  0  0
  191.1530  175.9610  145.3250 C   0  0  0  0  0  3  0  0  0  0  0  0
  185.8450  179.3470  142.7350 C   0  0  0  0  0  2  0  0  0  0  0  0
  184.2290  177.6670  142.2990 F   0  0  0  0  0  0  0  0  0  0  0  0
  190.9220  178.3900  144.8280 C   0  0  0  0  0  3  0  0  0  0  0  0
  188.9620  177.6790  140.0880 C   0  0  0  0  0  3  0  0  0  0  0  0
  191.9820  175.6030  144.1570 C   0  0  0  0  0  3  0  0  0  0  0  0
  184.5590  178.2270  144.5810 C   0  0  2  0  0  3  0  0  0  0  0  0
  187.3910  177.3740  146.8430 O   0  0  0  0  0  0  0  0  0  0  0  0
  189.6090  178.6380  147.1970 F   0  0  0  0  0  0  0  0  0  0  0  0
  191.1750  177.6630  141.1640 C   0  0  0  0  0  2  0  0  0  0  0  0
  191.9270  176.1880  142.9630 C   0  0  0  0  0  3  0  0  0  0  0  0
  188.5260  176.5390  146.7460 C   0  0  0  0  0  2  0  0  0  0  0  0
  185.2130  178.0200  143.2040 C   0  0  2  0  0  0  0  0  0  0  0  0
  187.0110  179.2240  141.7550 C   0  0  0  0  0  2  0  0  0  0  0  0
  190.9410  177.2510  142.6090 C   0  0  1  0  0  3  0  0  0  0  0  0
  186.6730  176.4730  144.6760 C   0  0  0  0  0  2  0  0  0  0  0  0
  190.6440  177.1700  145.6240 C   0  0  0  0  0  0  0  0  0  0  0  0
  187.7840  178.4080  139.5070 C   0  0  1  0  0  3  0  0  0  0  0  0
  190.5550  176.7500  147.9490 F   0  0  0  0  0  0  0  0  0  0  0  0
  186.2350  176.8630  143.2600 C   0  0  0  0  0  2  0  0  0  0  0  0
  183.5490  179.1940  144.5410 O   0  0  0  0  0  1  0  0  0  0  0  0
  187.8530  178.5470  144.9130 O   0  0  0  0  0  1  0  0  0  0  0  0
  189.9860  178.3670  140.5910 C   0  0  0  0  0  3  0  0  0  0  0  0
  186.0270  180.1910  147.5040 C   0  0  0  0  0  1  0  0  0  0  0  0
  185.7650  179.9720  146.0260 C   0  0  0  0  0  2  0  0  0  0  0  0
  187.3320  177.8160  138.1640 C   0  0  2  0  0  3  0  0  0  0  0  0
  185.8840  178.1470  137.7690 C   0  0  0  0  0  2  0  0  0  0  0  0
  183.7230  177.0970  138.4550 C   0  0  0  0  0  1  0  0  0  0  0  0
  184.9880  176.9220  137.6370 C   0  0  0  0  0  2  0  0  0  0  0  0
  187.5840  176.4410  138.1080 O   0  0  0  0  0  0  0  0  0  0  0  0
  188.6290  174.7880  136.7580 C   0  0  0  0  0  1  0  0  0  0  0  0
  188.2590  176.2500  136.9020 C   0  0  0  0  0  2  0  0  0  0  0  0
  1 27  1  6  0  0  0
  1  4  1  0  0  0  0
  1 13  1  0  0  0  0
  2 14  1  0  0  0  0
  2 24  1  0  0  0  0
  3  9  2  0  0  0  0
  4 30  1  6  0  0  0
  5 19  1  0  0  0  0
  6 22  2  0  0  0  0
  7 18  1  0  0  0  0
  9 22  1  0  0  0  0
 10 28  2  0  0  0  0
 11  6  1  0  0  0  0
 12 26  1  6  0  0  0
 12  4  1  0  0  0  0
 16 11  2  0  0  0  0
 17 13  1  0  0  0  0
 17  2  1  0  0  0  0
 18  8  1  6  0  0  0
 18 25  1  0  0  0  0
 18 12  1  0  0  0  0
 19  7  1  0  0  0  0
 20 15  1  6  0  0  0
 20 16  1  0  0  0  0
 20  3  1  0  0  0  0
 21  1  1  0  0  0  0
 22  2  1  0  0  0  0
 23 31  1  6  0  0  0
 23 10  1  0  0  0  0
 23  5  1  0  0  0  0
 25 21  1  0  0  0  0
 28 15  1  0  0  0  0
 30 29  1  0  0  0  0
 31 32  1  1  0  0  0
 34 32  1  0  0  0  0
 34 33  1  0  0  0  0
 35 31  1  0  0  0  0
 36 37  1  0  0  0  0
 37 35  1  0  0  0  0
M  END
>  <MODEL>
9

>  <REMARK>
 VINA RESULT:      -4.7      2.861      5.853
  Name = 
  6 active torsions:
  status: ('A' for Active; 'I' for Inactive)
    1  A    between atoms: C_2  and  C_6
    2  A    between atoms: C_2  and  C_35
    3  A    between atoms: C_5  and  C_23
    4  A    between atoms: C_6  and  O_8
    5  A    between atoms: C_6  and  C_31
    6  A    between atoms: O_8  and  C_19
                            x       y       z     vdW  Elec       q    Type
                         _______ _______ _______ _____ _____    ______ ____

>  <TORSDO>
F 6

$$$$
