=
 OpenBabel10272414453D

 37 42  0  0  1  0  0  0  0  0999 V2000
  188.4390  177.0640  141.0610 C   0  0  0  0  0  2  0  0  0  0  0  0
  186.7140  178.6260  145.3910 C   0  0  1  0  0  3  0  0  0  0  0  0
  189.5770  176.3470  140.3090 C   0  0  2  0  0  3  0  0  0  0  0  0
  190.2170  178.4500  144.8430 C   0  0  0  0  0  3  0  0  0  0  0  0
  185.3230  177.8700  143.5490 O   0  0  0  0  0  0  0  0  0  0  0  0
  187.7690  177.8300  144.6170 C   0  0  2  0  0  3  0  0  0  0  0  0
  185.4650  178.8680  144.5410 C   0  0  1  0  0  3  0  0  0  0  0  0
  189.1150  177.8380  145.3260 C   0  0  0  0  0  0  0  0  0  0  0  0
  184.2890  178.7920  145.4970 C   0  0  0  0  0  2  0  0  0  0  0  0
  190.8430  176.1530  141.1600 C   0  0  0  0  0  2  0  0  0  0  0  0
  186.3210  178.0460  142.5530 C   0  0  2  0  0  3  0  0  0  0  0  0
  187.0250  178.1320  147.8740 C   0  0  0  0  0  2  0  0  0  0  0  0
  184.7820  178.1440  146.7800 C   0  0  0  0  0  2  0  0  0  0  0  0
  191.2330  177.3920  141.9850 C   0  0  2  0  0  3  0  0  0  0  0  0
  190.3030  179.1780  143.5350 C   0  0  0  0  0  2  0  0  0  0  0  0
  186.2480  177.8190  146.5900 C   0  0  1  0  0  3  0  0  0  0  0  0
  187.7570  178.2060  143.1290 C   0  0  2  0  0  3  0  0  0  0  0  0
  189.1330  177.2420  146.7200 C   0  0  2  0  0  3  0  0  0  0  0  0
  190.0280  178.2810  142.3160 C   0  0  2  0  0  3  0  0  0  0  0  0
  188.8160  177.4540  142.4280 N   0  0  2  0  0  0  0  0  0  0  0  0
  188.5490  178.2430  147.7160 C   0  0  0  0  0  2  0  0  0  0  0  0
  191.0630  175.6650  146.4520 C   0  0  0  0  0  3  0  0  0  0  0  0
  190.4770  176.7230  147.1560 C   0  0  0  0  0  0  0  0  0  0  0  0
  191.1690  177.3070  148.2310 C   0  0  0  0  0  3  0  0  0  0  0  0
  193.0830  177.3880  149.6440 F   0  0  0  0  0  0  0  0  0  0  0  0
  193.0020  175.7610  147.9010 C   0  0  0  0  0  3  0  0  0  0  0  0
  192.4260  176.8260  148.6020 C   0  0  0  0  0  0  0  0  0  0  0  0
  192.3230  175.1820  146.8270 C   0  0  0  0  0  3  0  0  0  0  0  0
  192.3650  178.1800  141.3330 C   0  0  0  0  0  2  0  0  0  0  0  0
  192.9980  177.4260  140.3420 O   0  0  0  0  0  1  0  0  0  0  0  0
  190.5010  176.1150  138.3100 C   0  0  0  0  0  1  0  0  0  0  0  0
  189.8850  177.0490  139.1430 O   0  0  0  0  0  0  0  0  0  0  0  0
  185.9850  179.2040  141.6150 C   0  0  0  0  0  2  0  0  0  0  0  0
  184.5550  179.0860  141.1000 C   0  0  0  0  0  2  0  0  0  0  0  0
  184.4890  179.0870  139.5770 C   0  0  2  0  0  3  0  0  0  0  0  0
  185.7390  178.4730  138.9720 C   0  0  0  0  0  1  0  0  0  0  0  0
  184.2970  180.3800  139.0850 O   0  0  0  0  0  1  0  0  0  0  0  0
  1 20  1  0  0  0  0
  2 16  1  0  0  0  0
  3  1  1  0  0  0  0
  3 10  1  0  0  0  0
  4  8  2  0  0  0  0
  5  7  1  0  0  0  0
  6  8  1  0  0  0  0
  6  2  1  0  0  0  0
  7  2  1  0  0  0  0
  7  9  1  0  0  0  0
  8 18  1  0  0  0  0
  9 13  1  0  0  0  0
 10 14  1  0  0  0  0
 11 17  1  0  0  0  0
 11  5  1  0  0  0  0
 14 19  1  0  0  0  0
 15  4  1  0  0  0  0
 16 13  1  0  0  0  0
 16 12  1  0  0  0  0
 17  6  1  0  0  0  0
 18 23  1  0  0  0  0
 18 21  1  0  0  0  0
 19 20  1  0  0  0  0
 19 15  1  0  0  0  0
 20 17  1  0  0  0  0
 21 12  1  0  0  0  0
 22 28  2  0  0  0  0
 22 23  1  0  0  0  0
 23 24  2  0  0  0  0
 24 27  1  0  0  0  0
 26 27  2  0  0  0  0
 27 25  1  0  0  0  0
 28 26  1  0  0  0  0
 29 14  1  0  0  0  0
 30 29  1  0  0  0  0
 31 32  1  0  0  0  0
 32  3  1  0  0  0  0
 33 11  1  0  0  0  0
 34 33  1  0  0  0  0
 35 34  1  0  0  0  0
 36 35  1  0  0  0  0
 37 35  1  0  0  0  0
M  END
>  <MODEL>
1

>  <REMARK>
 VINA RESULT:      -7.8      0.000      0.000
  Name = 
  6 active torsions:
  status: ('A' for Active; 'I' for Inactive)
    1  A    between atoms: C_3  and  C_21
    2  A    between atoms: C_5  and  O_23
    3  A    between atoms: C_6  and  C_31
    4  A    between atoms: C_11  and  C_26
    5  A    between atoms: C_20  and  C_25
    6  A    between atoms: C_21  and  C_25
                            x       y       z     vdW  Elec       q    Type
                         _______ _______ _______ _____ _____    ______ ____

>  <TORSDO>
F 6

$$$$
=
 OpenBabel10272414453D

 37 42  0  0  1  0  0  0  0  0999 V2000
  182.9330  176.7330  137.8520 C   0  0  0  0  0  2  0  0  0  0  0  0
  182.2820  178.9990  142.1660 C   0  0  1  0  0  3  0  0  0  0  0  0
  183.9040  175.9710  136.9290 C   0  0  2  0  0  3  0  0  0  0  0  0
  185.4860  178.9930  140.6370 C   0  0  0  0  0  3  0  0  0  0  0  0
  180.5500  177.7780  140.9790 O   0  0  0  0  0  0  0  0  0  0  0  0
  183.1780  178.1480  141.2600 C   0  0  2  0  0  3  0  0  0  0  0  0
  180.8250  178.9640  141.6970 C   0  0  1  0  0  3  0  0  0  0  0  0
  184.6540  178.4070  141.5240 C   0  0  0  0  0  0  0  0  0  0  0  0
  179.9820  178.9900  142.9590 C   0  0  0  0  0  2  0  0  0  0  0  0
  185.3710  176.0540  137.3850 C   0  0  0  0  0  2  0  0  0  0  0  0
  181.1990  177.8270  139.7170 C   0  0  2  0  0  3  0  0  0  0  0  0
  183.3320  179.0460  144.4890 C   0  0  0  0  0  2  0  0  0  0  0  0
  180.8940  178.6570  144.1280 C   0  0  0  0  0  2  0  0  0  0  0  0
  185.8030  177.4620  137.8310 C   0  0  2  0  0  3  0  0  0  0  0  0
  185.1070  179.4460  139.2590 C   0  0  0  0  0  2  0  0  0  0  0  0
  182.2790  178.4180  143.5680 C   0  0  1  0  0  3  0  0  0  0  0  0
  182.7030  178.2130  139.8020 C   0  0  2  0  0  3  0  0  0  0  0  0
  185.1380  178.1100  142.9290 C   0  0  2  0  0  3  0  0  0  0  0  0
  184.6290  178.3010  138.3490 C   0  0  2  0  0  3  0  0  0  0  0  0
  183.6180  177.4200  138.9570 N   0  0  2  0  0  0  0  0  0  0  0  0
  184.7230  179.2430  143.8680 C   0  0  0  0  0  2  0  0  0  0  0  0
  187.1120  177.2460  144.2100 C   0  0  0  0  0  3  0  0  0  0  0  0
  186.6070  177.7980  143.0280 C   0  0  0  0  0  0  0  0  0  0  0  0
  187.4720  178.0160  141.9410 C   0  0  0  0  0  3  0  0  0  0  0  0
  189.6550  177.9170  140.9990 F   0  0  0  0  0  0  0  0  0  0  0  0
  189.3270  177.1540  143.2350 C   0  0  0  0  0  3  0  0  0  0  0  0
  188.8270  177.6960  142.0470 C   0  0  0  0  0  0  0  0  0  0  0  0
  188.4710  176.9270  144.3150 C   0  0  0  0  0  3  0  0  0  0  0  0
  186.5930  178.1890  136.7470 C   0  0  0  0  0  2  0  0  0  0  0  0
  187.7080  178.8370  137.2850 O   0  0  0  0  0  1  0  0  0  0  0  0
  182.5090  177.0170  135.5640 C   0  0  0  0  0  1  0  0  0  0  0  0
  183.7790  176.4440  135.6230 O   0  0  0  0  0  0  0  0  0  0  0  0
  180.4630  178.7390  138.7370 C   0  0  0  0  0  2  0  0  0  0  0  0
  181.3150  179.9530  138.3830 C   0  0  0  0  0  2  0  0  0  0  0  0
  180.5940  180.9070  137.4380 C   0  0  2  0  0  3  0  0  0  0  0  0
  180.6940  180.4350  135.9980 C   0  0  0  0  0  1  0  0  0  0  0  0
  181.0970  182.2050  137.5580 O   0  0  0  0  0  1  0  0  0  0  0  0
  1 20  1  0  0  0  0
  2 16  1  0  0  0  0
  3 10  1  0  0  0  0
  3  1  1  0  0  0  0
  4  8  2  0  0  0  0
  5  7  1  0  0  0  0
  6  8  1  0  0  0  0
  6  2  1  0  0  0  0
  7  2  1  0  0  0  0
  7  9  1  0  0  0  0
  8 18  1  0  0  0  0
  9 13  1  0  0  0  0
 10 14  1  0  0  0  0
 11 17  1  0  0  0  0
 11  5  1  0  0  0  0
 14 19  1  0  0  0  0
 15  4  1  0  0  0  0
 16 13  1  0  0  0  0
 16 12  1  0  0  0  0
 17  6  1  0  0  0  0
 18 23  1  0  0  0  0
 18 21  1  0  0  0  0
 19 20  1  0  0  0  0
 19 15  1  0  0  0  0
 20 17  1  0  0  0  0
 21 12  1  0  0  0  0
 22 28  1  0  0  0  0
 23 22  2  0  0  0  0
 24 27  2  0  0  0  0
 24 23  1  0  0  0  0
 25 27  1  0  0  0  0
 26 28  2  0  0  0  0
 27 26  1  0  0  0  0
 29 30  1  0  0  0  0
 29 14  1  0  0  0  0
 31 32  1  0  0  0  0
 32  3  1  0  0  0  0
 33 11  1  0  0  0  0
 34 33  1  0  0  0  0
 35 37  1  0  0  0  0
 35 34  1  0  0  0  0
 36 35  1  0  0  0  0
M  END
>  <MODEL>
2

>  <REMARK>
 VINA RESULT:      -7.5      3.643      6.147
  Name = 
  6 active torsions:
  status: ('A' for Active; 'I' for Inactive)
    1  A    between atoms: C_3  and  C_21
    2  A    between atoms: C_5  and  O_23
    3  A    between atoms: C_6  and  C_31
    4  A    between atoms: C_11  and  C_26
    5  A    between atoms: C_20  and  C_25
    6  A    between atoms: C_21  and  C_25
                            x       y       z     vdW  Elec       q    Type
                         _______ _______ _______ _____ _____    ______ ____

>  <TORSDO>
F 6

$$$$
=
 OpenBabel10272414453D

 37 42  0  0  1  0  0  0  0  0999 V2000
  185.6830  177.4460  138.3330 C   0  0  0  0  0  2  0  0  0  0  0  0
  184.9800  178.9820  142.9500 C   0  0  1  0  0  3  0  0  0  0  0  0
  186.5990  176.6890  137.3510 C   0  0  2  0  0  3  0  0  0  0  0  0
  188.2790  178.6300  141.6860 C   0  0  0  0  0  3  0  0  0  0  0  0
  183.1990  178.3530  141.4240 O   0  0  0  0  0  0  0  0  0  0  0  0
  185.8050  178.1510  141.9620 C   0  0  2  0  0  3  0  0  0  0  0  0
  183.6000  179.3150  142.3790 C   0  0  1  0  0  3  0  0  0  0  0  0
  187.2660  178.0670  142.3780 C   0  0  0  0  0  0  0  0  0  0  0  0
  182.6430  179.2770  143.5570 C   0  0  0  0  0  2  0  0  0  0  0  0
  187.9990  176.4030  137.9190 C   0  0  0  0  0  2  0  0  0  0  0  0
  183.9790  178.5020  140.2460 C   0  0  2  0  0  3  0  0  0  0  0  0
  185.7650  178.4060  145.3060 C   0  0  0  0  0  2  0  0  0  0  0  0
  183.3500  178.5690  144.7000 C   0  0  0  0  0  2  0  0  0  0  0  0
  188.6220  177.5970  138.6640 C   0  0  2  0  0  3  0  0  0  0  0  0
  188.1370  179.3880  140.4000 C   0  0  0  0  0  2  0  0  0  0  0  0
  184.7240  178.1700  144.2060 C   0  0  1  0  0  3  0  0  0  0  0  0
  185.5090  178.5680  140.5150 C   0  0  2  0  0  3  0  0  0  0  0  0
  187.5350  177.4340  143.7280 C   0  0  2  0  0  3  0  0  0  0  0  0
  187.5650  178.5400  139.2500 C   0  0  2  0  0  3  0  0  0  0  0  0
  186.3550  177.7780  139.5980 N   0  0  2  0  0  0  0  0  0  0  0  0
  187.2280  178.4380  144.8390 C   0  0  0  0  0  2  0  0  0  0  0  0
  189.3250  175.8590  142.9520 C   0  0  0  0  0  3  0  0  0  0  0  0
  188.9070  176.8310  143.8690 C   0  0  0  0  0  0  0  0  0  0  0  0
  189.7880  177.2530  144.8800 C   0  0  0  0  0  3  0  0  0  0  0  0
  191.9050  177.1050  145.9570 F   0  0  0  0  0  0  0  0  0  0  0  0
  191.4730  175.7200  144.0630 C   0  0  0  0  0  3  0  0  0  0  0  0
  191.0660  176.6980  144.9760 C   0  0  0  0  0  0  0  0  0  0  0  0
  190.6060  175.3030  143.0510 C   0  0  0  0  0  3  0  0  0  0  0  0
  189.6400  178.3390  137.8040 C   0  0  0  0  0  2  0  0  0  0  0  0
  189.0700  179.4680  137.2100 O   0  0  0  0  0  1  0  0  0  0  0  0
  185.5030  177.1620  135.4860 C   0  0  0  0  0  1  0  0  0  0  0  0
  186.7010  177.4040  136.1580 O   0  0  0  0  0  0  0  0  0  0  0  0
  183.5260  179.7000  139.4150 C   0  0  0  0  0  2  0  0  0  0  0  0
  182.3140  179.3410  138.5620 C   0  0  0  0  0  2  0  0  0  0  0  0
  181.2180  180.3970  138.6440 C   0  0  2  0  0  3  0  0  0  0  0  0
  181.7740  181.7880  138.3940 C   0  0  0  0  0  1  0  0  0  0  0  0
  180.5700  180.3510  139.8810 O   0  0  0  0  0  1  0  0  0  0  0  0
  1 20  1  0  0  0  0
  2 16  1  0  0  0  0
  3 10  1  0  0  0  0
  3  1  1  0  0  0  0
  4  8  2  0  0  0  0
  5  7  1  0  0  0  0
  6  8  1  0  0  0  0
  6  2  1  0  0  0  0
  7  2  1  0  0  0  0
  7  9  1  0  0  0  0
  8 18  1  0  0  0  0
  9 13  1  0  0  0  0
 10 14  1  0  0  0  0
 11 17  1  0  0  0  0
 11  5  1  0  0  0  0
 14 19  1  0  0  0  0
 15  4  1  0  0  0  0
 16 13  1  0  0  0  0
 16 12  1  0  0  0  0
 17  6  1  0  0  0  0
 18 23  1  0  0  0  0
 18 21  1  0  0  0  0
 19 20  1  0  0  0  0
 19 15  1  0  0  0  0
 20 17  1  0  0  0  0
 21 12  1  0  0  0  0
 22 28  2  0  0  0  0
 22 23  1  0  0  0  0
 23 24  2  0  0  0  0
 24 27  1  0  0  0  0
 26 27  2  0  0  0  0
 27 25  1  0  0  0  0
 28 26  1  0  0  0  0
 29 14  1  0  0  0  0
 30 29  1  0  0  0  0
 31 32  1  0  0  0  0
 32  3  1  0  0  0  0
 33 11  1  0  0  0  0
 34 35  1  0  0  0  0
 34 33  1  0  0  0  0
 35 37  1  0  0  0  0
 36 35  1  0  0  0  0
M  END
>  <MODEL>
3

>  <REMARK>
 VINA RESULT:      -7.2      2.505      3.813
  Name = 
  6 active torsions:
  status: ('A' for Active; 'I' for Inactive)
    1  A    between atoms: C_3  and  C_21
    2  A    between atoms: C_5  and  O_23
    3  A    between atoms: C_6  and  C_31
    4  A    between atoms: C_11  and  C_26
    5  A    between atoms: C_20  and  C_25
    6  A    between atoms: C_21  and  C_25
                            x       y       z     vdW  Elec       q    Type
                         _______ _______ _______ _____ _____    ______ ____

>  <TORSDO>
F 6

$$$$
=
 OpenBabel10272414453D

 37 42  0  0  1  0  0  0  0  0999 V2000
  190.1430  176.1760  141.5210 C   0  0  0  0  0  2  0  0  0  0  0  0
  186.9120  178.2150  138.4280 C   0  0  1  0  0  3  0  0  0  0  0  0
  190.4500  175.7520  142.9700 C   0  0  2  0  0  3  0  0  0  0  0  0
  186.9790  179.2220  141.8320 C   0  0  0  0  0  3  0  0  0  0  0  0
  188.4790  176.4620  137.8200 O   0  0  0  0  0  0  0  0  0  0  0  0
  187.2180  177.6830  139.8310 C   0  0  2  0  0  3  0  0  0  0  0  0
  187.9190  177.6920  137.4020 C   0  0  1  0  0  3  0  0  0  0  0  0
  186.4240  178.4190  140.9000 C   0  0  0  0  0  0  0  0  0  0  0  0
  187.1340  177.4730  136.1220 C   0  0  0  0  0  2  0  0  0  0  0  0
  189.4580  176.3240  143.9970 C   0  0  0  0  0  2  0  0  0  0  0  0
  189.3570  176.6880  138.9140 C   0  0  2  0  0  3  0  0  0  0  0  0
  184.4060  178.6660  138.2900 C   0  0  0  0  0  2  0  0  0  0  0  0
  185.6580  177.4880  136.4810 C   0  0  0  0  0  2  0  0  0  0  0  0
  189.1150  177.8070  143.7690 C   0  0  2  0  0  3  0  0  0  0  0  0
  188.4470  179.4890  141.9850 C   0  0  0  0  0  2  0  0  0  0  0  0
  185.5560  177.7030  137.9750 C   0  0  1  0  0  3  0  0  0  0  0  0
  188.7320  177.5500  140.0480 C   0  0  2  0  0  3  0  0  0  0  0  0
  184.9150  178.3340  140.7790 C   0  0  2  0  0  3  0  0  0  0  0  0
  189.2680  178.2270  142.3020 C   0  0  2  0  0  3  0  0  0  0  0  0
  188.9870  177.0790  141.4240 N   0  0  2  0  0  0  0  0  0  0  0  0
  184.4300  179.2920  139.6920 C   0  0  0  0  0  2  0  0  0  0  0  0
  182.8030  178.7880  142.0500 C   0  0  0  0  0  3  0  0  0  0  0  0
  184.1770  178.5250  142.0780 C   0  0  0  0  0  0  0  0  0  0  0  0
  184.8350  178.4060  143.3140 C   0  0  0  0  0  3  0  0  0  0  0  0
  184.7670  178.4540  145.6930 F   0  0  0  0  0  0  0  0  0  0  0  0
  182.7530  178.8360  144.4710 C   0  0  0  0  0  3  0  0  0  0  0  0
  184.1240  178.5620  144.5060 C   0  0  0  0  0  0  0  0  0  0  0  0
  182.0920  178.9460  143.2460 C   0  0  0  0  0  3  0  0  0  0  0  0
  189.8880  178.7240  144.7120 C   0  0  0  0  0  2  0  0  0  0  0  0
  191.0400  179.2220  144.0970 O   0  0  0  0  0  1  0  0  0  0  0  0
  191.9820  175.5570  144.5570 C   0  0  0  0  0  1  0  0  0  0  0  0
  191.7520  176.1230  143.3030 O   0  0  0  0  0  0  0  0  0  0  0  0
  190.6880  177.2830  138.4570 C   0  0  0  0  0  2  0  0  0  0  0  0
  191.6200  176.1920  137.9430 C   0  0  0  0  0  2  0  0  0  0  0  0
  193.0560  176.3900  138.4150 C   0  0  2  0  0  3  0  0  0  0  0  0
  193.1130  177.2880  139.6390 C   0  0  0  0  0  1  0  0  0  0  0  0
  193.8510  176.9130  137.3930 O   0  0  0  0  0  1  0  0  0  0  0  0
  1  3  1  0  0  0  0
  2  6  1  0  0  0  0
  3 32  1  0  0  0  0
  3 10  1  0  0  0  0
  4 15  1  0  0  0  0
  5 11  1  0  0  0  0
  6 17  1  0  0  0  0
  6  8  1  0  0  0  0
  7  5  1  0  0  0  0
  7  2  1  0  0  0  0
  8  4  2  0  0  0  0
  9 13  1  0  0  0  0
  9  7  1  0  0  0  0
 11 17  1  0  0  0  0
 12 21  1  0  0  0  0
 13 16  1  0  0  0  0
 14 10  1  0  0  0  0
 14 29  1  0  0  0  0
 15 19  1  0  0  0  0
 16 12  1  0  0  0  0
 16  2  1  0  0  0  0
 17 20  1  0  0  0  0
 18  8  1  0  0  0  0
 18 23  1  0  0  0  0
 19 14  1  0  0  0  0
 20  1  1  0  0  0  0
 20 19  1  0  0  0  0
 21 18  1  0  0  0  0
 22 23  2  0  0  0  0
 22 28  1  0  0  0  0
 23 24  1  0  0  0  0
 24 27  2  0  0  0  0
 26 27  1  0  0  0  0
 27 25  1  0  0  0  0
 28 26  2  0  0  0  0
 30 29  1  0  0  0  0
 32 31  1  0  0  0  0
 33 11  1  0  0  0  0
 34 35  1  0  0  0  0
 34 33  1  0  0  0  0
 35 36  1  0  0  0  0
 37 35  1  0  0  0  0
M  END
>  <MODEL>
4

>  <REMARK>
 VINA RESULT:      -6.9      2.969      7.214
  Name = 
  6 active torsions:
  status: ('A' for Active; 'I' for Inactive)
    1  A    between atoms: C_3  and  C_21
    2  A    between atoms: C_5  and  O_23
    3  A    between atoms: C_6  and  C_31
    4  A    between atoms: C_11  and  C_26
    5  A    between atoms: C_20  and  C_25
    6  A    between atoms: C_21  and  C_25
                            x       y       z     vdW  Elec       q    Type
                         _______ _______ _______ _____ _____    ______ ____

>  <TORSDO>
F 6

$$$$
=
 OpenBabel10272414453D

 37 42  0  0  1  0  0  0  0  0999 V2000
  188.5360  178.6660  138.6360 C   0  0  0  0  0  2  0  0  0  0  0  0
  185.0350  178.1060  142.0420 C   0  0  1  0  0  3  0  0  0  0  0  0
  188.8750  179.0840  137.1920 C   0  0  2  0  0  3  0  0  0  0  0  0
  184.2380  177.7110  138.6050 C   0  0  0  0  0  3  0  0  0  0  0  0
  187.3350  178.7210  142.5220 O   0  0  0  0  0  0  0  0  0  0  0  0
  185.4350  178.6090  140.6510 C   0  0  2  0  0  3  0  0  0  0  0  0
  186.2620  177.8950  142.9310 C   0  0  1  0  0  3  0  0  0  0  0  0
  184.2740  178.5390  139.6710 C   0  0  0  0  0  0  0  0  0  0  0  0
  185.8340  178.2900  144.3320 C   0  0  0  0  0  2  0  0  0  0  0  0
  187.6350  179.2470  136.2970 C   0  0  0  0  0  2  0  0  0  0  0  0
  187.8560  178.2460  141.2900 C   0  0  2  0  0  3  0  0  0  0  0  0
  182.6860  178.9640  142.5420 C   0  0  0  0  0  2  0  0  0  0  0  0
  184.5370  179.0720  144.2120 C   0  0  0  0  0  2  0  0  0  0  0  0
  186.5970  178.1230  136.4650 C   0  0  2  0  0  3  0  0  0  0  0  0
  185.3310  176.7670  138.2010 C   0  0  0  0  0  2  0  0  0  0  0  0
  184.1940  179.1590  142.7410 C   0  0  1  0  0  3  0  0  0  0  0  0
  186.7680  177.9920  140.2070 C   0  0  2  0  0  3  0  0  0  0  0  0
  183.0490  179.3530  140.0350 C   0  0  2  0  0  3  0  0  0  0  0  0
  186.6520  177.4750  137.8530 C   0  0  2  0  0  3  0  0  0  0  0  0
  187.0940  178.4650  138.8480 N   0  0  2  0  0  0  0  0  0  0  0  0
  182.2450  178.6230  141.1110 C   0  0  0  0  0  2  0  0  0  0  0  0
  181.5140  178.7610  138.1420 C   0  0  0  0  0  3  0  0  0  0  0  0
  182.1960  179.7510  138.8600 C   0  0  0  0  0  0  0  0  0  0  0  0
  182.0410  181.1000  138.4960 C   0  0  0  0  0  3  0  0  0  0  0  0
  181.0880  182.7490  137.0690 F   0  0  0  0  0  0  0  0  0  0  0  0
  180.5550  180.4530  136.6990 C   0  0  0  0  0  3  0  0  0  0  0  0
  181.2250  181.4480  137.4180 C   0  0  0  0  0  0  0  0  0  0  0  0
  180.6970  179.1120  137.0610 C   0  0  0  0  0  3  0  0  0  0  0  0
  186.6860  177.0910  135.3450 C   0  0  0  0  0  2  0  0  0  0  0  0
  187.5220  176.0300  135.7030 O   0  0  0  0  0  1  0  0  0  0  0  0
  190.2220  177.4030  137.7050 C   0  0  0  0  0  1  0  0  0  0  0  0
  189.7560  178.1610  136.6300 O   0  0  0  0  0  0  0  0  0  0  0  0
  188.7230  177.0030  141.4830 C   0  0  0  0  0  2  0  0  0  0  0  0
  189.9650  177.3310  142.3030 C   0  0  0  0  0  2  0  0  0  0  0  0
  190.0980  176.4390  143.5320 C   0  0  2  0  0  3  0  0  0  0  0  0
  189.5740  177.1350  144.7760 C   0  0  0  0  0  1  0  0  0  0  0  0
  191.4240  176.0420  143.7210 O   0  0  0  0  0  1  0  0  0  0  0  0
  1 20  1  0  0  0  0
  2 16  1  0  0  0  0
  2  7  1  0  0  0  0
  3  1  1  0  0  0  0
  4  8  2  0  0  0  0
  5  7  1  0  0  0  0
  6  2  1  0  0  0  0
  7  9  1  0  0  0  0
  8 18  1  0  0  0  0
  8  6  1  0  0  0  0
 10 14  1  0  0  0  0
 10  3  1  0  0  0  0
 11 33  1  0  0  0  0
 11  5  1  0  0  0  0
 12 16  1  0  0  0  0
 13  9  1  0  0  0  0
 14 19  1  0  0  0  0
 15  4  1  0  0  0  0
 16 13  1  0  0  0  0
 17  6  1  0  0  0  0
 17 11  1  0  0  0  0
 18 21  1  0  0  0  0
 19 15  1  0  0  0  0
 19 20  1  0  0  0  0
 20 17  1  0  0  0  0
 21 12  1  0  0  0  0
 22 23  1  0  0  0  0
 23 18  1  0  0  0  0
 24 23  2  0  0  0  0
 25 27  1  0  0  0  0
 26 28  1  0  0  0  0
 26 27  2  0  0  0  0
 27 24  1  0  0  0  0
 28 22  2  0  0  0  0
 29 30  1  0  0  0  0
 29 14  1  0  0  0  0
 32  3  1  0  0  0  0
 32 31  1  0  0  0  0
 33 34  1  0  0  0  0
 34 35  1  0  0  0  0
 35 37  1  0  0  0  0
 35 36  1  0  0  0  0
M  END
>  <MODEL>
5

>  <REMARK>
 VINA RESULT:      -6.9      3.995      8.550
  Name = 
  6 active torsions:
  status: ('A' for Active; 'I' for Inactive)
    1  A    between atoms: C_3  and  C_21
    2  A    between atoms: C_5  and  O_23
    3  A    between atoms: C_6  and  C_31
    4  A    between atoms: C_11  and  C_26
    5  A    between atoms: C_20  and  C_25
    6  A    between atoms: C_21  and  C_25
                            x       y       z     vdW  Elec       q    Type
                         _______ _______ _______ _____ _____    ______ ____

>  <TORSDO>
F 6

$$$$
=
 OpenBabel10272414453D

 37 42  0  0  1  0  0  0  0  0999 V2000
  183.8470  176.6870  137.7450 C   0  0  0  0  0  2  0  0  0  0  0  0
  182.3870  178.9000  141.8850 C   0  0  1  0  0  3  0  0  0  0  0  0
  184.9810  175.9480  137.0090 C   0  0  2  0  0  3  0  0  0  0  0  0
  185.8160  178.9530  140.9650 C   0  0  0  0  0  3  0  0  0  0  0  0
  180.9190  177.6680  140.3930 O   0  0  0  0  0  0  0  0  0  0  0  0
  183.4460  178.0710  141.1510 C   0  0  2  0  0  3  0  0  0  0  0  0
  181.0410  178.8510  141.1580 C   0  0  1  0  0  3  0  0  0  0  0  0
  184.8450  178.3470  141.6820 C   0  0  0  0  0  0  0  0  0  0  0  0
  179.9820  178.8530  142.2460 C   0  0  0  0  0  2  0  0  0  0  0  0
  186.3380  176.0460  137.7240 C   0  0  0  0  0  2  0  0  0  0  0  0
  181.7860  177.7390  139.2700 C   0  0  2  0  0  3  0  0  0  0  0  0
  182.9970  178.9370  144.3600 C   0  0  0  0  0  2  0  0  0  0  0  0
  180.6700  178.5200  143.5580 C   0  0  0  0  0  2  0  0  0  0  0  0
  186.6610  177.4540  138.2530 C   0  0  2  0  0  3  0  0  0  0  0  0
  185.6870  179.4140  139.5440 C   0  0  0  0  0  2  0  0  0  0  0  0
  182.1380  178.3050  143.2590 C   0  0  1  0  0  3  0  0  0  0  0  0
  183.2440  178.1440  139.6320 C   0  0  2  0  0  3  0  0  0  0  0  0
  185.0690  178.0410  143.1490 C   0  0  2  0  0  3  0  0  0  0  0  0
  185.4000  178.2720  138.5540 C   0  0  2  0  0  3  0  0  0  0  0  0
  184.3080  177.3720  138.9610 N   0  0  2  0  0  0  0  0  0  0  0  0
  184.4740  179.1590  144.0050 C   0  0  0  0  0  2  0  0  0  0  0  0
  187.4650  177.6940  142.4980 C   0  0  0  0  0  3  0  0  0  0  0  0
  186.5010  177.7490  143.5110 C   0  0  0  0  0  0  0  0  0  0  0  0
  186.8920  177.5690  144.8490 C   0  0  0  0  0  3  0  0  0  0  0  0
  188.5970  177.1430  146.4540 F   0  0  0  0  0  0  0  0  0  0  0  0
  189.1870  177.2590  144.1450 C   0  0  0  0  0  3  0  0  0  0  0  0
  188.2300  177.3230  145.1630 C   0  0  0  0  0  0  0  0  0  0  0  0
  188.8060  177.4460  142.8150 C   0  0  0  0  0  3  0  0  0  0  0  0
  187.6240  178.2020  137.3360 C   0  0  0  0  0  2  0  0  0  0  0  0
  188.6160  178.8560  138.0730 O   0  0  0  0  0  1  0  0  0  0  0  0
  185.9640  175.5550  135.0640 C   0  0  0  0  0  1  0  0  0  0  0  0
  185.0890  176.4320  135.7050 O   0  0  0  0  0  0  0  0  0  0  0  0
  181.2270  178.6510  138.1800 C   0  0  0  0  0  2  0  0  0  0  0  0
  179.9940  178.0310  137.5340 C   0  0  0  0  0  2  0  0  0  0  0  0
  180.3180  177.3480  136.2110 C   0  0  2  0  0  3  0  0  0  0  0  0
  180.5490  175.8590  136.4020 C   0  0  0  0  0  1  0  0  0  0  0  0
  181.4300  177.9360  135.6030 O   0  0  0  0  0  1  0  0  0  0  0  0
  1 20  1  0  0  0  0
  2 16  1  0  0  0  0
  3 10  1  0  0  0  0
  3  1  1  0  0  0  0
  4  8  2  0  0  0  0
  5  7  1  0  0  0  0
  6  8  1  0  0  0  0
  6  2  1  0  0  0  0
  7  2  1  0  0  0  0
  7  9  1  0  0  0  0
  8 18  1  0  0  0  0
  9 13  1  0  0  0  0
 10 14  1  0  0  0  0
 11 17  1  0  0  0  0
 11  5  1  0  0  0  0
 14 19  1  0  0  0  0
 15  4  1  0  0  0  0
 16 13  1  0  0  0  0
 16 12  1  0  0  0  0
 17  6  1  0  0  0  0
 18 23  1  0  0  0  0
 18 21  1  0  0  0  0
 19 20  1  0  0  0  0
 19 15  1  0  0  0  0
 20 17  1  0  0  0  0
 21 12  1  0  0  0  0
 22 28  2  0  0  0  0
 22 23  1  0  0  0  0
 23 24  2  0  0  0  0
 24 27  1  0  0  0  0
 26 27  2  0  0  0  0
 27 25  1  0  0  0  0
 28 26  1  0  0  0  0
 29 30  1  0  0  0  0
 29 14  1  0  0  0  0
 31 32  1  0  0  0  0
 32  3  1  0  0  0  0
 33 11  1  0  0  0  0
 34 33  1  0  0  0  0
 35 36  1  0  0  0  0
 35 34  1  0  0  0  0
 37 35  1  0  0  0  0
M  END
>  <MODEL>
6

>  <REMARK>
 VINA RESULT:      -6.1      3.311      5.649
  Name = 
  6 active torsions:
  status: ('A' for Active; 'I' for Inactive)
    1  A    between atoms: C_3  and  C_21
    2  A    between atoms: C_5  and  O_23
    3  A    between atoms: C_6  and  C_31
    4  A    between atoms: C_11  and  C_26
    5  A    between atoms: C_20  and  C_25
    6  A    between atoms: C_21  and  C_25
                            x       y       z     vdW  Elec       q    Type
                         _______ _______ _______ _____ _____    ______ ____

>  <TORSDO>
F 6

$$$$
=
 OpenBabel10272414453D

 37 42  0  0  1  0  0  0  0  0999 V2000
  187.6950  177.2740  144.1320 C   0  0  0  0  0  2  0  0  0  0  0  0
  188.3980  178.1280  139.3420 C   0  0  1  0  0  3  0  0  0  0  0  0
  186.6780  176.9940  145.2560 C   0  0  2  0  0  3  0  0  0  0  0  0
  185.3800  179.1640  140.8980 C   0  0  0  0  0  3  0  0  0  0  0  0
  189.9680  176.9520  140.7740 O   0  0  0  0  0  0  0  0  0  0  0  0
  187.4380  177.7450  140.4720 C   0  0  2  0  0  3  0  0  0  0  0  0
  189.8570  177.9330  139.7620 C   0  0  1  0  0  3  0  0  0  0  0  0
  186.0170  178.2090  140.1870 C   0  0  0  0  0  0  0  0  0  0  0  0
  190.5870  177.4540  138.5200 C   0  0  0  0  0  2  0  0  0  0  0  0
  185.2200  177.2400  144.8350 C   0  0  0  0  0  2  0  0  0  0  0  0
  189.4430  177.4640  141.9900 C   0  0  2  0  0  3  0  0  0  0  0  0
  187.1900  177.7570  137.1270 C   0  0  0  0  0  2  0  0  0  0  0  0
  189.5390  177.0070  137.5160 C   0  0  0  0  0  2  0  0  0  0  0  0
  185.0170  178.5330  144.0270 C   0  0  2  0  0  3  0  0  0  0  0  0
  185.9450  179.8850  142.0850 C   0  0  0  0  0  2  0  0  0  0  0  0
  188.1820  177.2040  138.1570 C   0  0  1  0  0  3  0  0  0  0  0  0
  188.0320  178.1030  141.8410 C   0  0  2  0  0  3  0  0  0  0  0  0
  185.3760  177.6480  138.9340 C   0  0  2  0  0  3  0  0  0  0  0  0
  186.2780  178.9540  143.2640 C   0  0  2  0  0  3  0  0  0  0  0  0
  187.0600  177.7610  142.8980 N   0  0  2  0  0  0  0  0  0  0  0  0
  185.9130  178.3830  137.7060 C   0  0  0  0  0  2  0  0  0  0  0  0
  183.1530  178.6690  138.3840 C   0  0  0  0  0  3  0  0  0  0  0  0
  183.8710  177.6180  138.9660 C   0  0  0  0  0  0  0  0  0  0  0  0
  183.1760  176.5360  139.5340 C   0  0  0  0  0  3  0  0  0  0  0  0
  181.1180  175.4760  140.0870 F   0  0  0  0  0  0  0  0  0  0  0  0
  181.0690  177.5760  138.9560 C   0  0  0  0  0  3  0  0  0  0  0  0
  181.7800  176.5180  139.5300 C   0  0  0  0  0  0  0  0  0  0  0  0
  181.7540  178.6490  138.3820 C   0  0  0  0  0  3  0  0  0  0  0  0
  184.4620  179.6640  144.8870 C   0  0  0  0  0  2  0  0  0  0  0  0
  183.7370  179.1630  145.9710 O   0  0  0  0  0  1  0  0  0  0  0  0
  188.2190  177.2740  146.8210 C   0  0  0  0  0  1  0  0  0  0  0  0
  186.9920  177.7650  146.3750 O   0  0  0  0  0  0  0  0  0  0  0  0
  190.4090  178.4420  142.6570 C   0  0  0  0  0  2  0  0  0  0  0  0
  191.6060  177.7040  143.2440 C   0  0  0  0  0  2  0  0  0  0  0  0
  191.1860  176.5620  144.1620 C   0  0  2  0  0  3  0  0  0  0  0  0
  191.6060  176.8280  145.5980 C   0  0  0  0  0  1  0  0  0  0  0  0
  191.7120  175.3450  143.7210 O   0  0  0  0  0  1  0  0  0  0  0  0
  1  3  1  0  0  0  0
  2  7  1  0  0  0  0
  2  6  1  0  0  0  0
  3 32  1  0  0  0  0
  4 15  1  0  0  0  0
  5 11  1  0  0  0  0
  6 17  1  0  0  0  0
  7  5  1  0  0  0  0
  8  6  1  0  0  0  0
  8  4  2  0  0  0  0
  9  7  1  0  0  0  0
 10  3  1  0  0  0  0
 11 33  1  0  0  0  0
 12 21  1  0  0  0  0
 12 16  1  0  0  0  0
 13 16  1  0  0  0  0
 13  9  1  0  0  0  0
 14 10  1  0  0  0  0
 14 29  1  0  0  0  0
 15 19  1  0  0  0  0
 16  2  1  0  0  0  0
 17 11  1  0  0  0  0
 17 20  1  0  0  0  0
 18 23  1  0  0  0  0
 18  8  1  0  0  0  0
 19 14  1  0  0  0  0
 20 19  1  0  0  0  0
 20  1  1  0  0  0  0
 21 18  1  0  0  0  0
 22 23  1  0  0  0  0
 23 24  2  0  0  0  0
 26 27  2  0  0  0  0
 27 24  1  0  0  0  0
 27 25  1  0  0  0  0
 28 22  2  0  0  0  0
 28 26  1  0  0  0  0
 29 30  1  0  0  0  0
 32 31  1  0  0  0  0
 33 34  1  0  0  0  0
 34 35  1  0  0  0  0
 35 36  1  0  0  0  0
 37 35  1  0  0  0  0
M  END
>  <MODEL>
7

>  <REMARK>
 VINA RESULT:      -5.9      3.288      8.820
  Name = 
  6 active torsions:
  status: ('A' for Active; 'I' for Inactive)
    1  A    between atoms: C_3  and  C_21
    2  A    between atoms: C_5  and  O_23
    3  A    between atoms: C_6  and  C_31
    4  A    between atoms: C_11  and  C_26
    5  A    between atoms: C_20  and  C_25
    6  A    between atoms: C_21  and  C_25
                            x       y       z     vdW  Elec       q    Type
                         _______ _______ _______ _____ _____    ______ ____

>  <TORSDO>
F 6

$$$$
=
 OpenBabel10272414453D

 37 42  0  0  1  0  0  0  0  0999 V2000
  182.6780  178.0160  141.9550 C   0  0  0  0  0  2  0  0  0  0  0  0
  187.5380  178.4240  141.3430 C   0  0  1  0  0  3  0  0  0  0  0  0
  181.3170  177.7140  141.3000 C   0  0  2  0  0  3  0  0  0  0  0  0
  185.3490  179.1590  138.6470 C   0  0  0  0  0  3  0  0  0  0  0  0
  186.4690  177.6680  143.3880 O   0  0  0  0  0  0  0  0  0  0  0  0
  186.1780  178.0300  140.7600 C   0  0  2  0  0  3  0  0  0  0  0  0
  187.4870  178.5010  142.8710 C   0  0  1  0  0  3  0  0  0  0  0  0
  186.1280  178.2380  139.2540 C   0  0  0  0  0  0  0  0  0  0  0  0
  188.8360  178.0020  143.3570 C   0  0  0  0  0  2  0  0  0  0  0  0
  181.3720  177.6870  139.7630 C   0  0  0  0  0  2  0  0  0  0  0  0
  185.1990  178.2280  143.0850 C   0  0  2  0  0  3  0  0  0  0  0  0
  189.3440  177.6290  139.7280 C   0  0  0  0  0  2  0  0  0  0  0  0
  189.5090  177.2910  142.1960 C   0  0  0  0  0  2  0  0  0  0  0  0
  182.1930  178.8350  139.1510 C   0  0  2  0  0  3  0  0  0  0  0  0
  184.3970  180.0860  139.3420 C   0  0  0  0  0  2  0  0  0  0  0  0
  188.5620  177.3520  141.0170 C   0  0  1  0  0  3  0  0  0  0  0  0
  185.0320  178.6250  141.5900 C   0  0  2  0  0  3  0  0  0  0  0  0
  187.1350  177.4490  138.4420 C   0  0  2  0  0  3  0  0  0  0  0  0
  183.2770  179.3540  140.1030 C   0  0  2  0  0  3  0  0  0  0  0  0
  183.7430  178.2610  140.9710 N   0  0  2  0  0  0  0  0  0  0  0  0
  188.5080  178.1150  138.5360 C   0  0  0  0  0  2  0  0  0  0  0  0
  187.3630  177.8910  135.9850 C   0  0  0  0  0  3  0  0  0  0  0  0
  186.7220  177.1950  137.0170 C   0  0  0  0  0  0  0  0  0  0  0  0
  185.7340  176.2460  136.7030 C   0  0  0  0  0  3  0  0  0  0  0  0
  184.4280  175.0980  135.0780 F   0  0  0  0  0  0  0  0  0  0  0  0
  186.0220  176.7150  134.3460 C   0  0  0  0  0  3  0  0  0  0  0  0
  185.3850  176.0090  135.3720 C   0  0  0  0  0  0  0  0  0  0  0  0
  187.0100  177.6530  134.6510 C   0  0  0  0  0  3  0  0  0  0  0  0
  181.3030  179.9580  138.6280 C   0  0  0  0  0  2  0  0  0  0  0  0
  181.4790  180.1410  137.2530 O   0  0  0  0  0  1  0  0  0  0  0  0
  180.8160  179.0610  142.9840 C   0  0  0  0  0  1  0  0  0  0  0  0
  180.3700  178.6440  141.7300 O   0  0  0  0  0  0  0  0  0  0  0  0
  184.8700  179.4100  143.9960 C   0  0  0  0  0  2  0  0  0  0  0  0
  184.6850  178.9480  145.4370 C   0  0  0  0  0  2  0  0  0  0  0  0
  185.9460  179.1430  146.2710 C   0  0  2  0  0  3  0  0  0  0  0  0
  186.6390  177.8180  146.5380 C   0  0  0  0  0  1  0  0  0  0  0  0
  185.6550  179.7890  147.4750 O   0  0  0  0  0  1  0  0  0  0  0  0
  2  7  1  0  0  0  0
  3 32  1  0  0  0  0
  3  1  1  0  0  0  0
  4  8  2  0  0  0  0
  4 15  1  0  0  0  0
  6  2  1  0  0  0  0
  6 17  1  0  0  0  0
  7  9  1  0  0  0  0
  7  5  1  0  0  0  0
  8  6  1  0  0  0  0
 10  3  1  0  0  0  0
 11  5  1  0  0  0  0
 11 33  1  0  0  0  0
 12 16  1  0  0  0  0
 13  9  1  0  0  0  0
 14 10  1  0  0  0  0
 14 19  1  0  0  0  0
 15 19  1  0  0  0  0
 16  2  1  0  0  0  0
 16 13  1  0  0  0  0
 17 11  1  0  0  0  0
 18 21  1  0  0  0  0
 18  8  1  0  0  0  0
 19 20  1  0  0  0  0
 20 17  1  0  0  0  0
 20  1  1  0  0  0  0
 21 12  1  0  0  0  0
 22 23  1  0  0  0  0
 23 18  1  0  0  0  0
 24 23  2  0  0  0  0
 25 27  1  0  0  0  0
 26 28  1  0  0  0  0
 26 27  2  0  0  0  0
 27 24  1  0  0  0  0
 28 22  2  0  0  0  0
 29 14  1  0  0  0  0
 30 29  1  0  0  0  0
 32 31  1  0  0  0  0
 33 34  1  0  0  0  0
 34 35  1  0  0  0  0
 35 36  1  0  0  0  0
 35 37  1  0  0  0  0
M  END
>  <MODEL>
8

>  <REMARK>
 VINA RESULT:      -5.9      4.205      8.969
  Name = 
  6 active torsions:
  status: ('A' for Active; 'I' for Inactive)
    1  A    between atoms: C_3  and  C_21
    2  A    between atoms: C_5  and  O_23
    3  A    between atoms: C_6  and  C_31
    4  A    between atoms: C_11  and  C_26
    5  A    between atoms: C_20  and  C_25
    6  A    between atoms: C_21  and  C_25
                            x       y       z     vdW  Elec       q    Type
                         _______ _______ _______ _____ _____    ______ ____

>  <TORSDO>
F 6

$$$$
=
 OpenBabel10272414453D

 37 42  0  0  1  0  0  0  0  0999 V2000
  188.8610  175.1430  137.3740 C   0  0  0  0  0  2  0  0  0  0  0  0
  184.5420  173.1690  136.1040 C   0  0  1  0  0  3  0  0  0  0  0  0
  189.5910  176.2650  138.1380 C   0  0  2  0  0  3  0  0  0  0  0  0
  184.7940  176.6680  136.6510 C   0  0  0  0  0  3  0  0  0  0  0  0
  186.5790  171.8990  136.4710 O   0  0  0  0  0  0  0  0  0  0  0  0
  185.3120  174.2020  136.9330 C   0  0  2  0  0  3  0  0  0  0  0  0
  185.4640  172.0500  135.6150 C   0  0  1  0  0  3  0  0  0  0  0  0
  184.4900  175.4600  137.1710 C   0  0  0  0  0  0  0  0  0  0  0  0
  184.6320  170.7800  135.6520 C   0  0  0  0  0  2  0  0  0  0  0  0
  188.6620  177.4070  138.5820 C   0  0  0  0  0  2  0  0  0  0  0  0
  187.4530  173.0070  136.3100 C   0  0  2  0  0  3  0  0  0  0  0  0
  182.1210  173.1660  136.9060 C   0  0  0  0  0  2  0  0  0  0  0  0
  183.4000  171.0620  136.4950 C   0  0  0  0  0  2  0  0  0  0  0  0
  187.6590  177.8470  137.5000 C   0  0  2  0  0  3  0  0  0  0  0  0
  185.9900  176.9690  135.7970 C   0  0  0  0  0  2  0  0  0  0  0  0
  183.4980  172.4940  136.9750 C   0  0  1  0  0  3  0  0  0  0  0  0
  186.7370  174.3850  136.3940 C   0  0  2  0  0  3  0  0  0  0  0  0
  183.1840  175.2670  137.9160 C   0  0  2  0  0  3  0  0  0  0  0  0
  187.3300  176.7220  136.5120 C   0  0  2  0  0  3  0  0  0  0  0  0
  187.4280  175.4190  137.1890 N   0  0  2  0  0  0  0  0  0  0  0  0
  182.1280  174.7000  136.9680 C   0  0  0  0  0  2  0  0  0  0  0  0
  181.6920  177.2760  138.0660 C   0  0  0  0  0  3  0  0  0  0  0  0
  182.6970  176.4920  138.6430 C   0  0  0  0  0  0  0  0  0  0  0  0
  183.2060  176.8400  139.9070 C   0  0  0  0  0  3  0  0  0  0  0  0
  183.2220  178.2990  141.7870 F   0  0  0  0  0  0  0  0  0  0  0  0
  181.7240  178.7520  139.9860 C   0  0  0  0  0  3  0  0  0  0  0  0
  182.7210  177.9670  140.5740 C   0  0  0  0  0  0  0  0  0  0  0  0
  181.2080  178.4060  138.7350 C   0  0  0  0  0  3  0  0  0  0  0  0
  188.1060  179.1210  136.7910 C   0  0  0  0  0  2  0  0  0  0  0  0
  188.9910  179.8560  137.5840 O   0  0  0  0  0  1  0  0  0  0  0  0
  191.7970  176.4450  138.0470 C   0  0  0  0  0  1  0  0  0  0  0  0
  190.6300  176.7680  137.3540 O   0  0  0  0  0  0  0  0  0  0  0  0
  188.2680  172.9020  135.0220 C   0  0  0  0  0  2  0  0  0  0  0  0
  189.6180  172.2440  135.2880 C   0  0  0  0  0  2  0  0  0  0  0  0
  190.7820  173.1000  134.8010 C   0  0  2  0  0  3  0  0  0  0  0  0
  191.8240  173.2820  135.8910 C   0  0  0  0  0  1  0  0  0  0  0  0
  190.3340  174.3430  134.3470 O   0  0  0  0  0  1  0  0  0  0  0  0
  1  3  1  0  0  0  0
  2  6  1  0  0  0  0
  2 16  1  0  0  0  0
  3 10  1  0  0  0  0
  4  8  2  0  0  0  0
  6  8  1  0  0  0  0
  7  9  1  0  0  0  0
  7  2  1  0  0  0  0
  7  5  1  0  0  0  0
  8 18  1  0  0  0  0
  9 13  1  0  0  0  0
 11 17  1  0  0  0  0
 11  5  1  0  0  0  0
 12 21  1  0  0  0  0
 12 16  1  0  0  0  0
 13 16  1  0  0  0  0
 14 10  1  0  0  0  0
 15 19  1  0  0  0  0
 15  4  1  0  0  0  0
 17  6  1  0  0  0  0
 17 20  1  0  0  0  0
 18 23  1  0  0  0  0
 19 20  1  0  0  0  0
 19 14  1  0  0  0  0
 20  1  1  0  0  0  0
 21 18  1  0  0  0  0
 22 23  2  0  0  0  0
 22 28  1  0  0  0  0
 23 24  1  0  0  0  0
 24 27  2  0  0  0  0
 26 27  1  0  0  0  0
 27 25  1  0  0  0  0
 28 26  2  0  0  0  0
 29 14  1  0  0  0  0
 29 30  1  0  0  0  0
 32 31  1  0  0  0  0
 32  3  1  0  0  0  0
 33 34  1  0  0  0  0
 33 11  1  0  0  0  0
 35 34  1  0  0  0  0
 35 36  1  0  0  0  0
 37 35  1  0  0  0  0
M  END
>  <MODEL>
9

>  <REMARK>
 VINA RESULT:      -5.8      6.425      9.788
  Name = 
  6 active torsions:
  status: ('A' for Active; 'I' for Inactive)
    1  A    between atoms: C_3  and  C_21
    2  A    between atoms: C_5  and  O_23
    3  A    between atoms: C_6  and  C_31
    4  A    between atoms: C_11  and  C_26
    5  A    between atoms: C_20  and  C_25
    6  A    between atoms: C_21  and  C_25
                            x       y       z     vdW  Elec       q    Type
                         _______ _______ _______ _____ _____    ______ ____

>  <TORSDO>
F 6

$$$$
