=
 OpenBabel10272401053D

 27 31  0  0  1  0  0  0  0  0999 V2000
  190.0790  178.1510  141.1550 N   0  0  0  0  0  2  0  0  0  0  0  0
  187.6570  177.8180  141.3290 C   0  0  0  0  0  0  0  0  0  0  0  0
  188.4580  176.8450  143.6330 C   0  0  0  0  0  2  0  0  0  0  0  0
  183.9590  179.1000  143.1300 C   0  0  0  0  0  2  0  0  0  0  0  0
  182.7890  179.2530  145.2250 N   0  0  0  0  0  2  0  0  0  0  0  0
  186.6420  178.4770  140.6230 C   0  0  0  0  0  3  0  0  0  0  0  0
  185.9690  177.6760  144.7750 C   0  0  0  0  0  2  0  0  0  0  0  0
  191.2080  176.4390  145.2500 C   0  0  0  0  0  2  0  0  0  0  0  0
  185.1300  178.7700  145.4190 C   0  0  0  0  0  2  0  0  0  0  0  0
  192.2220  177.4320  144.9330 N   0  0  0  0  0  2  0  0  0  0  0  0
  186.2490  177.9790  143.3250 C   0  0  0  0  0  0  0  0  0  0  0  0
  188.9360  177.4420  140.5920 C   0  0  1  0  0  3  0  0  0  0  0  0
  183.8790  178.9540  144.6230 C   0  0  0  0  0  0  0  0  0  0  0  0
  185.2660  178.6270  142.5460 C   0  0  0  0  0  0  0  0  0  0  0  0
  190.4850  177.8410  142.4810 C   0  0  0  0  0  0  0  0  0  0  0  0
  187.4600  177.5620  142.7230 C   0  0  0  0  0  0  0  0  0  0  0  0
  190.7570  175.7400  143.9770 C   0  0  0  0  0  2  0  0  0  0  0  0
  185.4930  178.8570  141.2300 N   0  0  0  0  0  0  0  0  0  0  0  0
  191.5200  178.6640  144.6160 C   0  0  0  0  0  2  0  0  0  0  0  0
  191.2100  178.7410  143.1540 C   0  0  0  0  0  3  0  0  0  0  0  0
  189.8640  176.6160  143.0960 C   0  0  1  0  0  3  0  0  0  0  0  0
  188.7490  177.8410  136.3110 C   0  0  0  0  0  3  0  0  0  0  0  0
  188.8900  177.5930  139.0980 C   0  0  0  0  0  0  0  0  0  0  0  0
  188.5530  176.4880  138.3100 C   0  0  0  0  0  3  0  0  0  0  0  0
  188.4840  176.6100  136.9190 C   0  0  0  0  0  3  0  0  0  0  0  0
  189.0810  178.9510  137.0940 C   0  0  0  0  0  3  0  0  0  0  0  0
  189.1500  178.8290  138.4840 C   0  0  0  0  0  3  0  0  0  0  0  0
  1 15  1  0  0  0  0
  2 16  1  0  0  0  0
  4 13  1  0  0  0  0
  6 18  1  0  0  0  0
  6  2  2  0  0  0  0
  7  9  1  0  0  0  0
 10  8  1  0  0  0  0
 11  7  1  0  0  0  0
 12 23  1  6  0  0  0
 12  1  1  0  0  0  0
 12  2  1  0  0  0  0
 13  5  2  0  0  0  0
 13  9  1  0  0  0  0
 14  4  1  0  0  0  0
 14 11  1  0  0  0  0
 15 21  1  0  0  0  0
 15 20  2  0  0  0  0
 16 11  2  0  0  0  0
 16  3  1  0  0  0  0
 17  8  1  0  0  0  0
 18 14  2  0  0  0  0
 19 10  1  0  0  0  0
 20 19  1  0  0  0  0
 21  3  1  1  0  0  0
 21 17  1  0  0  0  0
 22 25  2  0  0  0  0
 22 26  1  0  0  0  0
 24 23  2  0  0  0  0
 25 24  1  0  0  0  0
 26 27  2  0  0  0  0
 27 23  1  0  0  0  0
M  END
>  <MODEL>
1

>  <REMARK>
 VINA RESULT:      -8.3      0.000      0.000
  Name = 
  1 active torsions:
  status: ('A' for Active; 'I' for Inactive)
    1  A    between atoms: C_9  and  C_15
                            x       y       z     vdW  Elec       q    Type
                         _______ _______ _______ _____ _____    ______ ____

>  <TORSDO>
F 1

$$$$
=
 OpenBabel10272401053D

 27 31  0  0  1  0  0  0  0  0999 V2000
  187.0340  177.2670  143.2150 N   0  0  0  0  0  2  0  0  0  0  0  0
  186.6450  178.4120  141.0830 C   0  0  0  0  0  0  0  0  0  0  0  0
  189.2650  178.5030  141.2230 C   0  0  0  0  0  2  0  0  0  0  0  0
  186.8590  178.2060  136.7850 C   0  0  0  0  0  2  0  0  0  0  0  0
  188.3920  178.0380  134.9390 N   0  0  0  0  0  2  0  0  0  0  0  0
  185.5160  178.3370  140.2560 C   0  0  0  0  0  3  0  0  0  0  0  0
  189.3570  178.4080  138.3650 C   0  0  0  0  0  2  0  0  0  0  0  0
  191.6070  177.5200  143.1960 C   0  0  0  0  0  2  0  0  0  0  0  0
  189.3570  177.5830  137.0860 C   0  0  0  0  0  2  0  0  0  0  0  0
  191.2710  176.3200  143.9460 N   0  0  0  0  0  2  0  0  0  0  0  0
  188.0200  178.3460  139.0590 C   0  0  0  0  0  0  0  0  0  0  0  0
  186.4460  178.4470  142.5930 C   0  0  1  0  0  3  0  0  0  0  0  0
  188.2380  178.0430  136.2100 C   0  0  0  0  0  0  0  0  0  0  0  0
  186.8380  178.2850  138.2910 C   0  0  0  0  0  0  0  0  0  0  0  0
  188.4460  177.1130  143.1780 C   0  0  0  0  0  0  0  0  0  0  0  0
  187.9380  178.4130  140.4700 C   0  0  0  0  0  0  0  0  0  0  0  0
  190.5590  178.5920  143.4470 C   0  0  0  0  0  2  0  0  0  0  0  0
  185.6320  178.2800  138.9080 N   0  0  0  0  0  0  0  0  0  0  0  0
  190.3930  175.5280  143.1020 C   0  0  0  0  0  2  0  0  0  0  0  0
  188.9590  175.8880  143.3360 C   0  0  0  0  0  3  0  0  0  0  0  0
  189.2340  178.3150  142.7340 C   0  0  1  0  0  3  0  0  0  0  0  0
  182.4100  179.0820  143.9490 C   0  0  0  0  0  3  0  0  0  0  0  0
  185.0300  178.6500  143.0540 C   0  0  0  0  0  0  0  0  0  0  0  0
  184.7870  178.9500  144.3990 C   0  0  0  0  0  3  0  0  0  0  0  0
  183.4790  179.1630  144.8460 C   0  0  0  0  0  3  0  0  0  0  0  0
  182.6490  178.7880  142.6030 C   0  0  0  0  0  3  0  0  0  0  0  0
  183.9550  178.5750  142.1550 C   0  0  0  0  0  3  0  0  0  0  0  0
  2 12  1  0  0  0  0
  4 14  1  0  0  0  0
  5 13  2  0  0  0  0
  6  2  2  0  0  0  0
  7 11  1  0  0  0  0
  8 17  1  0  0  0  0
  8 10  1  0  0  0  0
  9  7  1  0  0  0  0
 11 16  2  0  0  0  0
 12 23  1  6  0  0  0
 12  1  1  0  0  0  0
 13  4  1  0  0  0  0
 13  9  1  0  0  0  0
 14 18  2  0  0  0  0
 14 11  1  0  0  0  0
 15  1  1  0  0  0  0
 15 20  2  0  0  0  0
 16  2  1  0  0  0  0
 16  3  1  0  0  0  0
 18  6  1  0  0  0  0
 19 20  1  0  0  0  0
 19 10  1  0  0  0  0
 21  3  1  6  0  0  0
 21 15  1  0  0  0  0
 21 17  1  0  0  0  0
 22 25  1  0  0  0  0
 23 24  1  0  0  0  0
 24 25  2  0  0  0  0
 26 22  2  0  0  0  0
 27 26  1  0  0  0  0
 27 23  2  0  0  0  0
M  END
>  <MODEL>
2

>  <REMARK>
 VINA RESULT:      -7.9      1.831      5.963
  Name = 
  1 active torsions:
  status: ('A' for Active; 'I' for Inactive)
    1  A    between atoms: C_9  and  C_15
                            x       y       z     vdW  Elec       q    Type
                         _______ _______ _______ _____ _____    ______ ____

>  <TORSDO>
F 1

$$$$
=
 OpenBabel10272401053D

 27 31  0  0  1  0  0  0  0  0999 V2000
  189.6110  176.7640  140.5300 N   0  0  0  0  0  2  0  0  0  0  0  0
  187.8980  178.0330  141.7390 C   0  0  0  0  0  0  0  0  0  0  0  0
  187.3950  178.7570  139.2670 C   0  0  0  0  0  2  0  0  0  0  0  0
  183.7220  178.4230  142.7270 C   0  0  0  0  0  2  0  0  0  0  0  0
  181.5550  178.8750  141.7860 N   0  0  0  0  0  2  0  0  0  0  0  0
  187.3790  177.7810  143.0170 C   0  0  0  0  0  3  0  0  0  0  0  0
  184.6390  179.0440  139.9790 C   0  0  0  0  0  2  0  0  0  0  0  0
  188.5020  178.1530  136.3080 C   0  0  0  0  0  2  0  0  0  0  0  0
  183.2690  178.4120  140.1750 C   0  0  0  0  0  2  0  0  0  0  0  0
  189.0730  176.8230  136.1600 N   0  0  0  0  0  2  0  0  0  0  0  0
  185.6200  178.5650  141.0190 C   0  0  0  0  0  0  0  0  0  0  0  0
  189.3880  177.8280  141.5010 C   0  0  1  0  0  3  0  0  0  0  0  0
  182.8020  178.6830  141.5670 C   0  0  0  0  0  0  0  0  0  0  0  0
  185.1730  178.3060  142.3330 C   0  0  0  0  0  0  0  0  0  0  0  0
  189.1950  176.9740  139.1860 C   0  0  0  0  0  0  0  0  0  0  0  0
  186.9930  178.4330  140.7050 C   0  0  0  0  0  0  0  0  0  0  0  0
  189.2030  178.8900  137.4380 C   0  0  0  0  0  2  0  0  0  0  0  0
  186.0590  177.9230  143.2820 N   0  0  0  0  0  0  0  0  0  0  0  0
  188.3410  175.9480  137.0600 C   0  0  0  0  0  2  0  0  0  0  0  0
  188.9880  175.9060  138.4090 C   0  0  0  0  0  3  0  0  0  0  0  0
  188.8030  178.3810  138.8250 C   0  0  1  0  0  3  0  0  0  0  0  0
  191.8030  177.1700  145.0030 C   0  0  0  0  0  3  0  0  0  0  0  0
  190.2170  177.6120  142.7360 C   0  0  0  0  0  0  0  0  0  0  0  0
  190.6670  176.3230  143.0390 C   0  0  0  0  0  3  0  0  0  0  0  0
  191.4560  176.1010  144.1720 C   0  0  0  0  0  3  0  0  0  0  0  0
  191.3610  178.4620  144.7020 C   0  0  0  0  0  3  0  0  0  0  0  0
  190.5720  178.6840  143.5700 C   0  0  0  0  0  3  0  0  0  0  0  0
  1 12  1  0  0  0  0
  2  6  1  0  0  0  0
  3 16  1  0  0  0  0
  6 18  2  0  0  0  0
  7  9  1  0  0  0  0
  7 11  1  0  0  0  0
  8 17  1  0  0  0  0
  9 13  1  0  0  0  0
 10  8  1  0  0  0  0
 10 19  1  0  0  0  0
 11 14  2  0  0  0  0
 12  2  1  0  0  0  0
 12 23  1  1  0  0  0
 13  5  2  0  0  0  0
 13  4  1  0  0  0  0
 14  4  1  0  0  0  0
 14 18  1  0  0  0  0
 15  1  1  0  0  0  0
 16 11  1  0  0  0  0
 16  2  2  0  0  0  0
 19 20  1  0  0  0  0
 20 15  2  0  0  0  0
 21 17  1  6  0  0  0
 21 15  1  0  0  0  0
 21  3  1  0  0  0  0
 23 24  2  0  0  0  0
 23 27  1  0  0  0  0
 24 25  1  0  0  0  0
 25 22  2  0  0  0  0
 26 22  1  0  0  0  0
 27 26  2  0  0  0  0
M  END
>  <MODEL>
3

>  <REMARK>
 VINA RESULT:      -7.8      1.712      5.417
  Name = 
  1 active torsions:
  status: ('A' for Active; 'I' for Inactive)
    1  A    between atoms: C_9  and  C_15
                            x       y       z     vdW  Elec       q    Type
                         _______ _______ _______ _____ _____    ______ ____

>  <TORSDO>
F 1

$$$$
=
 OpenBabel10272401053D

 27 31  0  0  1  0  0  0  0  0999 V2000
  185.3930  177.3100  138.0880 N   0  0  0  0  0  2  0  0  0  0  0  0
  186.9730  178.0460  139.8120 C   0  0  0  0  0  0  0  0  0  0  0  0
  184.7560  179.1630  140.6640 C   0  0  0  0  0  2  0  0  0  0  0  0
  188.3420  177.6110  143.8740 C   0  0  0  0  0  2  0  0  0  0  0  0
  187.6890  177.9140  146.1680 N   0  0  0  0  0  2  0  0  0  0  0  0
  188.2050  177.4720  140.1540 C   0  0  0  0  0  3  0  0  0  0  0  0
  185.7250  178.8930  143.3420 C   0  0  0  0  0  2  0  0  0  0  0  0
  181.6600  179.3280  139.8100 C   0  0  0  0  0  2  0  0  0  0  0  0
  185.8880  178.0380  144.5910 C   0  0  0  0  0  2  0  0  0  0  0  0
  181.1900  178.1530  139.0920 N   0  0  0  0  0  2  0  0  0  0  0  0
  186.5600  178.3670  142.2020 C   0  0  0  0  0  0  0  0  0  0  0  0
  186.5820  178.1150  138.3410 C   0  0  1  0  0  3  0  0  0  0  0  0
  187.3390  177.9560  144.9380 C   0  0  0  0  0  0  0  0  0  0  0  0
  187.8200  177.7900  142.4700 C   0  0  0  0  0  0  0  0  0  0  0  0
  184.1610  177.7180  138.6680 C   0  0  0  0  0  0  0  0  0  0  0  0
  186.1210  178.5050  140.8650 C   0  0  0  0  0  0  0  0  0  0  0  0
  182.8620  179.9220  139.0930 C   0  0  0  0  0  2  0  0  0  0  0  0
  188.5960  177.3610  141.4460 N   0  0  0  0  0  0  0  0  0  0  0  0
  181.9390  177.0190  139.6050 C   0  0  0  0  0  2  0  0  0  0  0  0
  183.1940  176.8070  138.8180 C   0  0  0  0  0  3  0  0  0  0  0  0
  184.1360  179.0950  139.2740 C   0  0  1  0  0  3  0  0  0  0  0  0
  189.6690  177.1370  135.5050 C   0  0  0  0  0  3  0  0  0  0  0  0
  187.6760  177.7840  137.3640 C   0  0  0  0  0  0  0  0  0  0  0  0
  187.7100  176.5110  136.7850 C   0  0  0  0  0  3  0  0  0  0  0  0
  188.7060  176.1870  135.8590 C   0  0  0  0  0  3  0  0  0  0  0  0
  189.6350  178.4130  136.0760 C   0  0  0  0  0  3  0  0  0  0  0  0
  188.6390  178.7370  137.0020 C   0  0  0  0  0  3  0  0  0  0  0  0
  1 12  1  0  0  0  0
  1 15  1  0  0  0  0
  2  6  2  0  0  0  0
  2 16  1  0  0  0  0
  3 16  1  0  0  0  0
  4 13  1  0  0  0  0
  6 18  1  0  0  0  0
  7  9  1  0  0  0  0
  9 13  1  0  0  0  0
 10 19  1  0  0  0  0
 10  8  1  0  0  0  0
 11 14  1  0  0  0  0
 11  7  1  0  0  0  0
 12 23  1  6  0  0  0
 12  2  1  0  0  0  0
 13  5  2  0  0  0  0
 14  4  1  0  0  0  0
 15 20  2  0  0  0  0
 15 21  1  0  0  0  0
 16 11  2  0  0  0  0
 17  8  1  0  0  0  0
 18 14  2  0  0  0  0
 20 19  1  0  0  0  0
 21 17  1  1  0  0  0
 21  3  1  0  0  0  0
 22 25  2  0  0  0  0
 22 26  1  0  0  0  0
 24 23  2  0  0  0  0
 25 24  1  0  0  0  0
 26 27  2  0  0  0  0
 27 23  1  0  0  0  0
M  END
>  <MODEL>
4

>  <REMARK>
 VINA RESULT:      -6.7      2.567      5.742
  Name = 
  1 active torsions:
  status: ('A' for Active; 'I' for Inactive)
    1  A    between atoms: C_9  and  C_15
                            x       y       z     vdW  Elec       q    Type
                         _______ _______ _______ _____ _____    ______ ____

>  <TORSDO>
F 1

$$$$
=
 OpenBabel10272401053D

 27 31  0  0  1  0  0  0  0  0999 V2000
  182.8300  179.3080  140.3570 N   0  0  0  0  0  2  0  0  0  0  0  0
  184.9630  178.2010  139.8730 C   0  0  0  0  0  0  0  0  0  0  0  0
  183.5330  177.4430  137.8060 C   0  0  0  0  0  2  0  0  0  0  0  0
  188.5300  178.1400  137.4560 C   0  0  0  0  0  2  0  0  0  0  0  0
  189.3290  177.8160  135.2110 N   0  0  0  0  0  2  0  0  0  0  0  0
  186.2350  178.5270  140.3640 C   0  0  0  0  0  3  0  0  0  0  0  0
  185.9340  177.3740  136.2520 C   0  0  0  0  0  2  0  0  0  0  0  0
  180.5680  177.8790  136.6390 C   0  0  0  0  0  2  0  0  0  0  0  0
  186.9560  178.1080  135.3970 C   0  0  0  0  0  2  0  0  0  0  0  0
  179.9820  179.1600  137.0020 N   0  0  0  0  0  2  0  0  0  0  0  0
  186.0040  177.8120  137.6930 C   0  0  0  0  0  0  0  0  0  0  0  0
  183.7700  178.2910  140.8150 C   0  0  1  0  0  3  0  0  0  0  0  0
  188.3140  177.9120  135.9870 C   0  0  0  0  0  0  0  0  0  0  0  0
  187.2540  178.1410  138.2610 C   0  0  0  0  0  0  0  0  0  0  0  0
  182.1370  179.0890  139.1350 C   0  0  0  0  0  0  0  0  0  0  0  0
  184.8400  177.8360  138.4950 C   0  0  0  0  0  0  0  0  0  0  0  0
  180.9790  177.1270  137.8950 C   0  0  0  0  0  2  0  0  0  0  0  0
  187.3290  178.4870  139.5680 N   0  0  0  0  0  0  0  0  0  0  0  0
  181.0760  180.1110  137.1010 C   0  0  0  0  0  2  0  0  0  0  0  0
  181.6290  180.1460  138.4920 C   0  0  0  0  0  3  0  0  0  0  0  0
  182.2330  177.7040  138.5560 C   0  0  1  0  0  3  0  0  0  0  0  0
  184.6700  178.8180  144.9910 C   0  0  0  0  0  3  0  0  0  0  0  0
  184.1050  178.4840  142.2680 C   0  0  0  0  0  0  0  0  0  0  0  0
  183.1400  179.0240  143.1250 C   0  0  0  0  0  3  0  0  0  0  0  0
  183.4230  179.1930  144.4830 C   0  0  0  0  0  3  0  0  0  0  0  0
  185.6350  178.2720  144.1400 C   0  0  0  0  0  3  0  0  0  0  0  0
  185.3540  178.1020  142.7820 C   0  0  0  0  0  3  0  0  0  0  0  0
  1 12  1  0  0  0  0
  2  6  1  0  0  0  0
  2 12  1  0  0  0  0
  3 16  1  0  0  0  0
  4 14  1  0  0  0  0
  5 13  2  0  0  0  0
  7 11  1  0  0  0  0
  8 10  1  0  0  0  0
  8 17  1  0  0  0  0
  9 13  1  0  0  0  0
  9  7  1  0  0  0  0
 10 19  1  0  0  0  0
 11 14  2  0  0  0  0
 11 16  1  0  0  0  0
 12 23  1  1  0  0  0
 13  4  1  0  0  0  0
 14 18  1  0  0  0  0
 15  1  1  0  0  0  0
 16  2  2  0  0  0  0
 17 21  1  0  0  0  0
 18  6  2  0  0  0  0
 19 20  1  0  0  0  0
 20 15  2  0  0  0  0
 21  3  1  6  0  0  0
 21 15  1  0  0  0  0
 23 27  2  0  0  0  0
 23 24  1  0  0  0  0
 24 25  2  0  0  0  0
 25 22  1  0  0  0  0
 26 22  2  0  0  0  0
 27 26  1  0  0  0  0
M  END
>  <MODEL>
5

>  <REMARK>
 VINA RESULT:      -6.6      3.721      8.741
  Name = 
  1 active torsions:
  status: ('A' for Active; 'I' for Inactive)
    1  A    between atoms: C_9  and  C_15
                            x       y       z     vdW  Elec       q    Type
                         _______ _______ _______ _____ _____    ______ ____

>  <TORSDO>
F 1

$$$$
=
 OpenBabel10272401053D

 27 31  0  0  1  0  0  0  0  0999 V2000
  189.4060  175.5810  137.4150 N   0  0  0  0  0  2  0  0  0  0  0  0
  190.0180  176.6680  139.5250 C   0  0  0  0  0  0  0  0  0  0  0  0
  187.8530  178.0090  138.8870 C   0  0  0  0  0  2  0  0  0  0  0  0
  189.1300  177.1810  143.7100 C   0  0  0  0  0  2  0  0  0  0  0  0
  187.4830  178.0390  145.2370 N   0  0  0  0  0  2  0  0  0  0  0  0
  190.8250  176.1630  140.5530 C   0  0  0  0  0  3  0  0  0  0  0  0
  187.3270  178.3620  141.6770 C   0  0  0  0  0  2  0  0  0  0  0  0
  185.6380  178.0390  136.5550 C   0  0  0  0  0  2  0  0  0  0  0  0
  186.7310  177.8260  142.9710 C   0  0  0  0  0  2  0  0  0  0  0  0
  185.4220  176.7390  135.9400 N   0  0  0  0  0  2  0  0  0  0  0  0
  188.5310  177.5600  141.2520 C   0  0  0  0  0  0  0  0  0  0  0  0
  190.4160  176.3950  138.0800 C   0  0  1  0  0  3  0  0  0  0  0  0
  187.7940  177.7940  144.0190 C   0  0  0  0  0  0  0  0  0  0  0  0
  189.3990  177.0340  142.2330 C   0  0  0  0  0  0  0  0  0  0  0  0
  188.1200  176.1440  137.1910 C   0  0  0  0  0  0  0  0  0  0  0  0
  188.8320  177.3850  139.8810 C   0  0  0  0  0  0  0  0  0  0  0  0
  187.1080  178.4160  136.4560 C   0  0  0  0  0  2  0  0  0  0  0  0
  190.5090  176.3550  141.8560 N   0  0  0  0  0  0  0  0  0  0  0  0
  185.6510  175.7420  136.9720 C   0  0  0  0  0  2  0  0  0  0  0  0
  187.0870  175.3180  136.9970 C   0  0  0  0  0  3  0  0  0  0  0  0
  187.9960  177.6260  137.4200 C   0  0  1  0  0  3  0  0  0  0  0  0
  194.3270  174.7030  137.4690 C   0  0  0  0  0  3  0  0  0  0  0  0
  191.7890  175.8140  137.8860 C   0  0  0  0  0  0  0  0  0  0  0  0
  191.9150  174.4840  137.4720 C   0  0  0  0  0  3  0  0  0  0  0  0
  193.1810  173.9290  137.2660 C   0  0  0  0  0  3  0  0  0  0  0  0
  194.2070  176.0350  137.8780 C   0  0  0  0  0  3  0  0  0  0  0  0
  192.9410  176.5910  138.0840 C   0  0  0  0  0  3  0  0  0  0  0  0
  1 12  1  0  0  0  0
  2 16  2  0  0  0  0
  2  6  1  0  0  0  0
  3 16  1  0  0  0  0
  4 13  1  0  0  0  0
  6 18  2  0  0  0  0
  7  9  1  0  0  0  0
  9 13  1  0  0  0  0
 10  8  1  0  0  0  0
 10 19  1  0  0  0  0
 11  7  1  0  0  0  0
 11 14  2  0  0  0  0
 12 23  1  1  0  0  0
 12  2  1  0  0  0  0
 13  5  2  0  0  0  0
 14  4  1  0  0  0  0
 15  1  1  0  0  0  0
 15 21  1  0  0  0  0
 16 11  1  0  0  0  0
 17  8  1  0  0  0  0
 18 14  1  0  0  0  0
 19 20  1  0  0  0  0
 20 15  2  0  0  0  0
 21 17  1  6  0  0  0
 21  3  1  0  0  0  0
 22 26  1  0  0  0  0
 23 27  1  0  0  0  0
 24 23  2  0  0  0  0
 25 22  2  0  0  0  0
 25 24  1  0  0  0  0
 26 27  2  0  0  0  0
M  END
>  <MODEL>
6

>  <REMARK>
 VINA RESULT:      -6.6      3.144      5.971
  Name = 
  1 active torsions:
  status: ('A' for Active; 'I' for Inactive)
    1  A    between atoms: C_9  and  C_15
                            x       y       z     vdW  Elec       q    Type
                         _______ _______ _______ _____ _____    ______ ____

>  <TORSDO>
F 1

$$$$
=
 OpenBabel10272401053D

 27 31  0  0  1  0  0  0  0  0999 V2000
  188.6370  177.7020  139.3590 N   0  0  0  0  0  2  0  0  0  0  0  0
  190.7620  176.5380  138.9870 C   0  0  0  0  0  0  0  0  0  0  0  0
  189.3480  175.6430  136.9650 C   0  0  0  0  0  2  0  0  0  0  0  0
  194.3560  176.2540  136.6280 C   0  0  0  0  0  2  0  0  0  0  0  0
  195.1780  175.7540  134.4250 N   0  0  0  0  0  2  0  0  0  0  0  0
  192.0320  176.8850  139.4690 C   0  0  0  0  0  3  0  0  0  0  0  0
  191.7660  175.4300  135.4510 C   0  0  0  0  0  2  0  0  0  0  0  0
  186.4030  176.0240  135.7300 C   0  0  0  0  0  2  0  0  0  0  0  0
  192.8070  176.0860  134.5570 C   0  0  0  0  0  2  0  0  0  0  0  0
  185.8280  177.3350  135.9890 N   0  0  0  0  0  2  0  0  0  0  0  0
  191.8240  175.9740  136.8560 C   0  0  0  0  0  0  0  0  0  0  0  0
  189.5590  176.7120  139.9050 C   0  0  1  0  0  3  0  0  0  0  0  0
  194.1560  175.9190  135.1770 C   0  0  0  0  0  0  0  0  0  0  0  0
  193.0710  176.3300  137.4140 C   0  0  0  0  0  0  0  0  0  0  0  0
  187.9560  177.4000  138.1490 C   0  0  0  0  0  0  0  0  0  0  0  0
  190.6500  176.0720  137.6390 C   0  0  0  0  0  0  0  0  0  0  0  0
  186.7890  175.3640  137.0440 C   0  0  0  0  0  2  0  0  0  0  0  0
  193.1350  176.7730  138.6920 N   0  0  0  0  0  0  0  0  0  0  0  0
  186.9320  178.2780  136.0310 C   0  0  0  0  0  2  0  0  0  0  0  0
  187.4700  178.4110  137.4210 C   0  0  0  0  0  3  0  0  0  0  0  0
  188.0420  175.9750  137.6760 C   0  0  1  0  0  3  0  0  0  0  0  0
  190.4150  177.5910  144.0310 C   0  0  0  0  0  3  0  0  0  0  0  0
  189.8790  177.0100  141.3430 C   0  0  0  0  0  0  0  0  0  0  0  0
  189.5330  178.2560  141.8750 C   0  0  0  0  0  3  0  0  0  0  0  0
  189.8030  178.5470  143.2160 C   0  0  0  0  0  3  0  0  0  0  0  0
  190.7570  176.3410  143.5050 C   0  0  0  0  0  3  0  0  0  0  0  0
  190.4880  176.0490  142.1650 C   0  0  0  0  0  3  0  0  0  0  0  0
  1 12  1  0  0  0  0
  2  6  1  0  0  0  0
  2 12  1  0  0  0  0
  3 16  1  0  0  0  0
  4 14  1  0  0  0  0
  5 13  2  0  0  0  0
  7 11  1  0  0  0  0
  8 10  1  0  0  0  0
  8 17  1  0  0  0  0
  9 13  1  0  0  0  0
  9  7  1  0  0  0  0
 10 19  1  0  0  0  0
 11 14  2  0  0  0  0
 11 16  1  0  0  0  0
 12 23  1  1  0  0  0
 13  4  1  0  0  0  0
 14 18  1  0  0  0  0
 15  1  1  0  0  0  0
 16  2  2  0  0  0  0
 17 21  1  0  0  0  0
 18  6  2  0  0  0  0
 19 20  1  0  0  0  0
 20 15  2  0  0  0  0
 21  3  1  6  0  0  0
 21 15  1  0  0  0  0
 23 24  2  0  0  0  0
 23 27  1  0  0  0  0
 24 25  1  0  0  0  0
 25 22  2  0  0  0  0
 26 22  1  0  0  0  0
 27 26  2  0  0  0  0
M  END
>  <MODEL>
7

>  <REMARK>
 VINA RESULT:      -6.4      3.483      8.689
  Name = 
  1 active torsions:
  status: ('A' for Active; 'I' for Inactive)
    1  A    between atoms: C_9  and  C_15
                            x       y       z     vdW  Elec       q    Type
                         _______ _______ _______ _____ _____    ______ ____

>  <TORSDO>
F 1

$$$$
=
 OpenBabel10272401053D

 27 31  0  0  1  0  0  0  0  0999 V2000
  191.7010  177.4250  140.9470 N   0  0  0  0  0  2  0  0  0  0  0  0
  189.4810  177.0980  139.9610 C   0  0  0  0  0  0  0  0  0  0  0  0
  188.9120  176.9510  142.5200 C   0  0  0  0  0  2  0  0  0  0  0  0
  185.5980  178.7910  139.1720 C   0  0  0  0  0  2  0  0  0  0  0  0
  183.5920  179.5840  140.2330 N   0  0  0  0  0  2  0  0  0  0  0  0
  189.0430  177.4630  138.6800 C   0  0  0  0  0  3  0  0  0  0  0  0
  186.3290  178.0380  141.9420 C   0  0  0  0  0  2  0  0  0  0  0  0
  190.4380  177.1720  145.3420 C   0  0  0  0  0  2  0  0  0  0  0  0
  185.4470  179.2570  141.7170 C   0  0  0  0  0  2  0  0  0  0  0  0
  191.6070  178.0360  145.3060 N   0  0  0  0  0  2  0  0  0  0  0  0
  187.3190  177.8590  140.8180 C   0  0  0  0  0  0  0  0  0  0  0  0
  190.8890  176.5390  140.1210 C   0  0  1  0  0  3  0  0  0  0  0  0
  184.7820  179.1370  140.3840 C   0  0  0  0  0  0  0  0  0  0  0  0
  186.9430  178.1910  139.4990 C   0  0  0  0  0  0  0  0  0  0  0  0
  191.3610  177.5760  142.3190 C   0  0  0  0  0  0  0  0  0  0  0  0
  188.5960  177.3040  141.0660 C   0  0  0  0  0  0  0  0  0  0  0  0
  190.5700  176.0840  144.2880 C   0  0  0  0  0  2  0  0  0  0  0  0
  187.8110  177.9860  138.4790 N   0  0  0  0  0  0  0  0  0  0  0  0
  191.3310  179.0780  144.3310 C   0  0  0  0  0  2  0  0  0  0  0  0
  191.7860  178.6650  142.9660 C   0  0  0  0  0  3  0  0  0  0  0  0
  190.3530  176.6000  142.8640 C   0  0  1  0  0  3  0  0  0  0  0  0
  192.9780  175.5530  136.4900 C   0  0  0  0  0  3  0  0  0  0  0  0
  191.5980  176.1950  138.8420 C   0  0  0  0  0  0  0  0  0  0  0  0
  192.7880  176.8570  138.5220 C   0  0  0  0  0  3  0  0  0  0  0  0
  193.4760  176.5390  137.3470 C   0  0  0  0  0  3  0  0  0  0  0  0
  191.7920  174.8830  136.8080 C   0  0  0  0  0  3  0  0  0  0  0  0
  191.1050  175.2010  137.9830 C   0  0  0  0  0  3  0  0  0  0  0  0
  1 15  1  0  0  0  0
  2 12  1  0  0  0  0
  2 16  1  0  0  0  0
  4 14  1  0  0  0  0
  4 13  1  0  0  0  0
  5 13  2  0  0  0  0
  6  2  2  0  0  0  0
  9  7  1  0  0  0  0
 10  8  1  0  0  0  0
 11 16  2  0  0  0  0
 11  7  1  0  0  0  0
 12 23  1  6  0  0  0
 12  1  1  0  0  0  0
 13  9  1  0  0  0  0
 14 11  1  0  0  0  0
 15 21  1  0  0  0  0
 15 20  2  0  0  0  0
 16  3  1  0  0  0  0
 17  8  1  0  0  0  0
 18  6  1  0  0  0  0
 18 14  2  0  0  0  0
 19 10  1  0  0  0  0
 20 19  1  0  0  0  0
 21  3  1  1  0  0  0
 21 17  1  0  0  0  0
 22 26  2  0  0  0  0
 22 25  1  0  0  0  0
 24 23  1  0  0  0  0
 25 24  2  0  0  0  0
 26 27  1  0  0  0  0
 27 23  2  0  0  0  0
M  END
>  <MODEL>
8

>  <REMARK>
 VINA RESULT:      -6.4      2.266      3.160
  Name = 
  1 active torsions:
  status: ('A' for Active; 'I' for Inactive)
    1  A    between atoms: C_9  and  C_15
                            x       y       z     vdW  Elec       q    Type
                         _______ _______ _______ _____ _____    ______ ____

>  <TORSDO>
F 1

$$$$
=
 OpenBabel10272401053D

 27 31  0  0  1  0  0  0  0  0999 V2000
  187.8190  177.4530  142.8580 N   0  0  0  0  0  2  0  0  0  0  0  0
  188.3960  177.8280  140.5050 C   0  0  0  0  0  0  0  0  0  0  0  0
  190.7160  178.2540  141.6570 C   0  0  0  0  0  2  0  0  0  0  0  0
  190.3900  176.3240  136.9940 C   0  0  0  0  0  2  0  0  0  0  0  0
  192.5500  175.7670  136.0970 N   0  0  0  0  0  2  0  0  0  0  0  0
  187.7170  177.3720  139.3670 C   0  0  0  0  0  3  0  0  0  0  0  0
  191.9970  177.2880  139.2880 C   0  0  0  0  0  2  0  0  0  0  0  0
  191.9820  178.2040  144.6130 C   0  0  0  0  0  2  0  0  0  0  0  0
  192.5110  176.1130  138.4690 C   0  0  0  0  0  2  0  0  0  0  0  0
  191.3280  177.2660  145.5110 N   0  0  0  0  0  2  0  0  0  0  0  0
  190.4910  177.2940  139.3580 C   0  0  0  0  0  0  0  0  0  0  0  0
  187.5820  178.3070  141.7000 C   0  0  1  0  0  3  0  0  0  0  0  0
  191.8770  176.1490  137.1170 C   0  0  0  0  0  0  0  0  0  0  0  0
  189.7400  176.8640  138.2430 C   0  0  0  0  0  0  0  0  0  0  0  0
  189.1120  177.4560  143.4500 C   0  0  0  0  0  0  0  0  0  0  0  0
  189.8260  177.7860  140.5060 C   0  0  0  0  0  0  0  0  0  0  0  0
  190.9580  179.1760  144.0490 C   0  0  0  0  0  2  0  0  0  0  0  0
  188.3870  176.9130  138.2830 N   0  0  0  0  0  0  0  0  0  0  0  0
  190.8630  176.1570  144.6960 C   0  0  0  0  0  2  0  0  0  0  0  0
  189.4740  176.4070  144.1960 C   0  0  0  0  0  3  0  0  0  0  0  0
  190.0480  178.5420  142.9950 C   0  0  1  0  0  3  0  0  0  0  0  0
  183.3600  178.8370  141.0490 C   0  0  0  0  0  3  0  0  0  0  0  0
  186.1100  178.4810  141.4520 C   0  0  0  0  0  0  0  0  0  0  0  0
  185.2090  178.2380  142.4940 C   0  0  0  0  0  3  0  0  0  0  0  0
  183.8360  178.4130  142.2930 C   0  0  0  0  0  3  0  0  0  0  0  0
  184.2570  179.0870  140.0050 C   0  0  0  0  0  3  0  0  0  0  0  0
  185.6290  178.9130  140.2060 C   0  0  0  0  0  3  0  0  0  0  0  0
  1 15  1  0  0  0  0
  2 16  1  0  0  0  0
  2 12  1  0  0  0  0
  4 13  1  0  0  0  0
  4 14  1  0  0  0  0
  5 13  2  0  0  0  0
  6  2  2  0  0  0  0
  7 11  1  0  0  0  0
  8 10  1  0  0  0  0
  9  7  1  0  0  0  0
 11 16  2  0  0  0  0
 12 23  1  6  0  0  0
 12  1  1  0  0  0  0
 13  9  1  0  0  0  0
 14 18  2  0  0  0  0
 14 11  1  0  0  0  0
 15 20  2  0  0  0  0
 16  3  1  0  0  0  0
 17  8  1  0  0  0  0
 18  6  1  0  0  0  0
 19 10  1  0  0  0  0
 20 19  1  0  0  0  0
 21  3  1  6  0  0  0
 21 15  1  0  0  0  0
 21 17  1  0  0  0  0
 22 25  1  0  0  0  0
 23 24  1  0  0  0  0
 25 24  2  0  0  0  0
 26 27  1  0  0  0  0
 26 22  2  0  0  0  0
 27 23  2  0  0  0  0
M  END
>  <MODEL>
9

>  <REMARK>
 VINA RESULT:      -6.2      2.186      5.954
  Name = 
  1 active torsions:
  status: ('A' for Active; 'I' for Inactive)
    1  A    between atoms: C_9  and  C_15
                            x       y       z     vdW  Elec       q    Type
                         _______ _______ _______ _____ _____    ______ ____

>  <TORSDO>
F 1

$$$$
