=
 OpenBabel10272400503D

 25 28  0  0  1  0  0  0  0  0999 V2000
  187.1240  177.8690  145.4310 C   0  0  0  0  0  0  0  0  0  0  0  0
  188.3970  177.4430  145.0080 C   0  0  0  0  0  0  0  0  0  0  0  0
  187.8470  177.7990  147.7430 C   0  0  0  0  0  3  0  0  0  0  0  0
  185.9910  178.1660  144.6500 C   0  0  0  0  0  0  0  0  0  0  0  0
  190.5440  176.8780  142.0270 C   0  0  0  0  0  0  0  0  0  0  0  0
  183.5570  178.8460  143.5140 C   0  0  0  0  0  3  0  0  0  0  0  0
  189.0750  177.3870  147.3260 N   0  0  0  0  0  0  0  0  0  0  0  0
  184.9020  178.5580  145.4200 C   0  0  0  0  0  0  0  0  0  0  0  0
  183.7090  178.8910  144.8690 N   0  0  0  0  0  0  0  0  0  0  0  0
  190.7390  176.7690  145.6260 C   0  0  0  0  0  0  0  0  0  0  0  0
  191.9350  176.4110  146.8580 Cl  0  0  0  0  0  0  0  0  0  0  0  0
  190.9380  176.8010  140.7860 C   0  0  0  0  0  3  0  0  0  0  0  0
  188.6930  177.1950  143.5490 C   0  0  0  0  0  2  0  0  0  0  0  0
  184.6280  178.4570  142.6890 C   0  0  0  0  0  3  0  0  0  0  0  0
  186.8690  178.0420  146.7890 C   0  0  0  0  0  0  0  0  0  0  0  0
  185.2830  178.5540  147.0590 S   0  0  0  0  0  0  0  0  0  0  0  0
  191.0950  176.6680  144.3460 C   0  0  0  0  0  3  0  0  0  0  0  0
  185.8600  178.1130  143.2610 C   0  0  0  0  0  3  0  0  0  0  0  0
  190.1460  176.9560  143.2640 C   0  0  0  0  0  0  0  0  0  0  0  0
  189.3780  177.2020  146.0050 C   0  0  0  0  0  0  0  0  0  0  0  0
  190.1990  177.5170  139.7050 C   0  0  2  0  0  3  0  0  0  0  0  0
  188.7990  177.6760  140.0690 N   0  0  0  0  0  1  0  0  0  0  0  0
  190.3100  176.7690  138.4190 C   0  0  0  0  0  0  0  0  0  0  0  0
  190.5670  175.4040  138.4390 O   0  0  0  0  0  1  0  0  0  0  0  0
  190.1620  177.3600  137.3160 O   0  0  0  0  0  0  0  0  0  0  0  0
  1 15  1  0  0  0  0
  2  1  2  0  0  0  0
  2 20  1  0  0  0  0
  4  8  1  0  0  0  0
  4  1  1  0  0  0  0
  5 19  2  0  0  0  0
  6  9  1  0  0  0  0
  7  3  1  0  0  0  0
  8 16  1  0  0  0  0
  9  8  2  0  0  0  0
 10 20  1  0  0  0  0
 10 11  1  0  0  0  0
 12  5  2  0  0  0  0
 13  2  1  0  0  0  0
 14 18  1  0  0  0  0
 14  6  2  0  0  0  0
 15 16  1  0  0  0  0
 15  3  2  0  0  0  0
 17 10  2  0  0  0  0
 18  4  2  0  0  0  0
 19 13  1  0  0  0  0
 19 17  1  0  0  0  0
 20  7  2  0  0  0  0
 21 22  1  1  0  0  0
 21 12  1  0  0  0  0
 23 24  1  0  0  0  0
 23 21  1  0  0  0  0
 25 23  2  0  0  0  0
M  END
>  <MODEL>
1

>  <REMARK>
 VINA RESULT:     -10.3      0.000      0.000
  Name = 
  2 active torsions:
  status: ('A' for Active; 'I' for Inactive)
    1  A    between atoms: C_2  and  CA_21
    2  A    between atoms: C_15  and  CA_21
                            x       y       z     vdW  Elec       q    Type
                         _______ _______ _______ _____ _____    ______ ____

>  <TORSDO>
F 2

$$$$
=
 OpenBabel10272400503D

 25 28  0  0  1  0  0  0  0  0999 V2000
  186.8950  177.9200  145.1280 C   0  0  0  0  0  0  0  0  0  0  0  0
  188.0830  177.5540  144.4680 C   0  0  0  0  0  0  0  0  0  0  0  0
  187.9400  177.5100  147.2760 C   0  0  0  0  0  3  0  0  0  0  0  0
  185.6700  178.3320  144.5710 C   0  0  0  0  0  0  0  0  0  0  0  0
  189.7660  177.4200  141.1560 C   0  0  0  0  0  0  0  0  0  0  0  0
  183.1160  179.1810  143.9120 C   0  0  0  0  0  3  0  0  0  0  0  0
  189.0850  177.1580  146.6300 N   0  0  0  0  0  0  0  0  0  0  0  0
  184.7130  178.6120  145.5390 C   0  0  0  0  0  0  0  0  0  0  0  0
  183.4620  179.0270  145.2220 N   0  0  0  0  0  0  0  0  0  0  0  0
  190.4710  176.7870  144.6340 C   0  0  0  0  0  0  0  0  0  0  0  0
  191.8220  176.2480  145.6160 Cl  0  0  0  0  0  0  0  0  0  0  0  0
  189.9750  177.5230  139.8720 C   0  0  0  0  0  3  0  0  0  0  0  0
  188.1600  177.5200  142.9610 C   0  0  0  0  0  2  0  0  0  0  0  0
  184.0470  178.9110  142.8920 C   0  0  0  0  0  3  0  0  0  0  0  0
  186.8430  177.8940  146.5200 C   0  0  0  0  0  0  0  0  0  0  0  0
  185.3250  178.3680  147.0880 S   0  0  0  0  0  0  0  0  0  0  0  0
  190.6380  176.8720  143.3160 C   0  0  0  0  0  3  0  0  0  0  0  0
  185.3400  178.4830  143.2230 C   0  0  0  0  0  3  0  0  0  0  0  0
  189.5510  177.3190  142.4360 C   0  0  0  0  0  0  0  0  0  0  0  0
  189.1900  177.1660  145.2660 C   0  0  0  0  0  0  0  0  0  0  0  0
  189.1070  178.3920  139.0240 C   0  0  2  0  0  3  0  0  0  0  0  0
  187.7400  178.3780  139.5200 N   0  0  0  0  0  1  0  0  0  0  0  0
  189.1410  177.9310  137.6060 C   0  0  0  0  0  0  0  0  0  0  0  0
  189.1460  176.5700  137.3270 O   0  0  0  0  0  1  0  0  0  0  0  0
  189.1530  178.7620  136.6600 O   0  0  0  0  0  0  0  0  0  0  0  0
  1 15  1  0  0  0  0
  2  1  2  0  0  0  0
  2 20  1  0  0  0  0
  4  1  1  0  0  0  0
  4  8  1  0  0  0  0
  5 19  2  0  0  0  0
  6  9  1  0  0  0  0
  7  3  1  0  0  0  0
  8 16  1  0  0  0  0
  9  8  2  0  0  0  0
 10 20  1  0  0  0  0
 10 11  1  0  0  0  0
 12  5  2  0  0  0  0
 13  2  1  0  0  0  0
 14 18  1  0  0  0  0
 14  6  2  0  0  0  0
 15 16  1  0  0  0  0
 15  3  2  0  0  0  0
 17 10  2  0  0  0  0
 18  4  2  0  0  0  0
 19 13  1  0  0  0  0
 19 17  1  0  0  0  0
 20  7  2  0  0  0  0
 21 22  1  1  0  0  0
 21 12  1  0  0  0  0
 23 21  1  0  0  0  0
 24 23  1  0  0  0  0
 25 23  2  0  0  0  0
M  END
>  <MODEL>
2

>  <REMARK>
 VINA RESULT:     -10.3      0.953      1.086
  Name = 
  2 active torsions:
  status: ('A' for Active; 'I' for Inactive)
    1  A    between atoms: C_2  and  CA_21
    2  A    between atoms: C_15  and  CA_21
                            x       y       z     vdW  Elec       q    Type
                         _______ _______ _______ _____ _____    ______ ____

>  <TORSDO>
F 2

$$$$
=
 OpenBabel10272400503D

 25 28  0  0  1  0  0  0  0  0999 V2000
  189.2860  177.5020  143.9440 C   0  0  0  0  0  0  0  0  0  0  0  0
  188.2710  177.7930  144.8750 C   0  0  0  0  0  0  0  0  0  0  0  0
  190.8120  176.9630  145.7470 C   0  0  0  0  0  3  0  0  0  0  0  0
  189.2350  177.5660  142.5390 C   0  0  0  0  0  0  0  0  0  0  0  0
  184.6630  178.6150  145.2350 C   0  0  0  0  0  0  0  0  0  0  0  0
  189.5740  177.5500  139.7890 C   0  0  0  0  0  3  0  0  0  0  0  0
  189.8260  177.2470  146.6410 N   0  0  0  0  0  0  0  0  0  0  0  0
  190.4400  177.2050  141.9460 C   0  0  0  0  0  0  0  0  0  0  0  0
  190.6110  177.1960  140.6010 N   0  0  0  0  0  0  0  0  0  0  0  0
  187.5530  177.9290  147.2800 C   0  0  0  0  0  0  0  0  0  0  0  0
  187.9480  177.8170  148.9860 Cl  0  0  0  0  0  0  0  0  0  0  0  0
  183.4230  178.8860  144.9360 C   0  0  0  0  0  3  0  0  0  0  0  0
  186.9190  178.2910  144.4260 C   0  0  0  0  0  2  0  0  0  0  0  0
  188.3330  177.9240  140.3370 C   0  0  0  0  0  3  0  0  0  0  0  0
  190.5380  177.0900  144.3940 C   0  0  0  0  0  0  0  0  0  0  0  0
  191.5910  176.8010  143.1060 S   0  0  0  0  0  0  0  0  0  0  0  0
  186.3030  178.2370  146.9370 C   0  0  0  0  0  3  0  0  0  0  0  0
  188.1590  177.9320  141.7280 C   0  0  0  0  0  3  0  0  0  0  0  0
  185.9030  178.3440  145.5280 C   0  0  0  0  0  0  0  0  0  0  0  0
  188.5790  177.6540  146.2530 C   0  0  0  0  0  0  0  0  0  0  0  0
  182.8700  178.5460  143.5920 C   0  0  2  0  0  3  0  0  0  0  0  0
  183.6960  179.1250  142.5440 N   0  0  0  0  0  1  0  0  0  0  0  0
  181.4680  179.0400  143.4690 C   0  0  0  0  0  0  0  0  0  0  0  0
  180.4770  178.4980  144.2770 O   0  0  0  0  0  1  0  0  0  0  0  0
  181.1770  179.9510  142.6500 O   0  0  0  0  0  0  0  0  0  0  0  0
  1 15  1  0  0  0  0
  1  2  2  0  0  0  0
  2 20  1  0  0  0  0
  3  7  1  0  0  0  0
  4  1  1  0  0  0  0
  5 19  2  0  0  0  0
  6 14  2  0  0  0  0
  6  9  1  0  0  0  0
  8  4  1  0  0  0  0
  8 16  1  0  0  0  0
  9  8  2  0  0  0  0
 10 11  1  0  0  0  0
 12  5  2  0  0  0  0
 13  2  1  0  0  0  0
 13 19  1  0  0  0  0
 14 18  1  0  0  0  0
 15  3  2  0  0  0  0
 16 15  1  0  0  0  0
 17 10  2  0  0  0  0
 18  4  2  0  0  0  0
 19 17  1  0  0  0  0
 20  7  2  0  0  0  0
 20 10  1  0  0  0  0
 21 22  1  6  0  0  0
 21 12  1  0  0  0  0
 23 21  1  0  0  0  0
 23 24  1  0  0  0  0
 25 23  2  0  0  0  0
M  END
>  <MODEL>
3

>  <REMARK>
 VINA RESULT:      -9.9      3.860      6.350
  Name = 
  2 active torsions:
  status: ('A' for Active; 'I' for Inactive)
    1  A    between atoms: C_2  and  CA_21
    2  A    between atoms: C_15  and  CA_21
                            x       y       z     vdW  Elec       q    Type
                         _______ _______ _______ _____ _____    ______ ____

>  <TORSDO>
F 2

$$$$
=
 OpenBabel10272400503D

 25 28  0  0  1  0  0  0  0  0999 V2000
  187.6940  177.7860  145.6780 C   0  0  0  0  0  0  0  0  0  0  0  0
  186.9440  178.1460  144.5420 C   0  0  0  0  0  0  0  0  0  0  0  0
  185.7410  178.0800  147.0820 C   0  0  0  0  0  3  0  0  0  0  0  0
  189.0530  177.4290  145.7580 C   0  0  0  0  0  0  0  0  0  0  0  0
  187.0230  178.3690  140.8320 C   0  0  0  0  0  0  0  0  0  0  0  0
  191.6490  176.6760  146.3680 C   0  0  0  0  0  3  0  0  0  0  0  0
  185.0240  178.4280  145.9790 N   0  0  0  0  0  0  0  0  0  0  0  0
  189.4490  177.1360  147.0570 C   0  0  0  0  0  0  0  0  0  0  0  0
  190.7190  176.7670  147.3610 N   0  0  0  0  0  0  0  0  0  0  0  0
  184.7310  178.8420  143.5750 C   0  0  0  0  0  0  0  0  0  0  0  0
  183.0550  179.3050  143.8110 Cl  0  0  0  0  0  0  0  0  0  0  0  0
  187.4490  178.3130  139.6000 C   0  0  0  0  0  3  0  0  0  0  0  0
  187.5870  178.2390  143.1790 C   0  0  0  0  0  2  0  0  0  0  0  0
  191.2990  176.9620  145.0350 C   0  0  0  0  0  3  0  0  0  0  0  0
  187.0810  177.7570  146.9280 C   0  0  0  0  0  0  0  0  0  0  0  0
  188.1690  177.3010  148.1370 S   0  0  0  0  0  0  0  0  0  0  0  0
  185.2110  178.8060  142.3330 C   0  0  0  0  0  3  0  0  0  0  0  0
  189.9870  177.3420  144.7240 C   0  0  0  0  0  3  0  0  0  0  0  0
  186.6030  178.4240  142.0630 C   0  0  0  0  0  0  0  0  0  0  0  0
  185.5760  178.4720  144.7290 C   0  0  0  0  0  0  0  0  0  0  0  0
  188.6510  177.5020  139.2450 C   0  0  2  0  0  3  0  0  0  0  0  0
  189.5680  177.4360  140.3730 N   0  0  0  0  0  1  0  0  0  0  0  0
  189.3400  178.0900  138.0600 C   0  0  0  0  0  0  0  0  0  0  0  0
  189.0470  179.3910  137.6720 O   0  0  0  0  0  1  0  0  0  0  0  0
  190.1940  177.4240  137.4160 O   0  0  0  0  0  0  0  0  0  0  0  0
  1  4  1  0  0  0  0
  1 15  2  0  0  0  0
  2 20  2  0  0  0  0
  2  1  1  0  0  0  0
  4  8  1  0  0  0  0
  5 19  2  0  0  0  0
  6  9  1  0  0  0  0
  7  3  2  0  0  0  0
  8  9  2  0  0  0  0
  8 16  1  0  0  0  0
 10 11  1  0  0  0  0
 10 20  1  0  0  0  0
 12  5  2  0  0  0  0
 13  2  1  0  0  0  0
 14  6  2  0  0  0  0
 15  3  1  0  0  0  0
 15 16  1  0  0  0  0
 17 10  2  0  0  0  0
 18 14  1  0  0  0  0
 18  4  2  0  0  0  0
 19 17  1  0  0  0  0
 19 13  1  0  0  0  0
 20  7  1  0  0  0  0
 21 12  1  0  0  0  0
 21 22  1  1  0  0  0
 23 21  1  0  0  0  0
 24 23  1  0  0  0  0
 25 23  2  0  0  0  0
M  END
>  <MODEL>
4

>  <REMARK>
 VINA RESULT:      -9.8      2.492      4.745
  Name = 
  2 active torsions:
  status: ('A' for Active; 'I' for Inactive)
    1  A    between atoms: C_2  and  CA_21
    2  A    between atoms: C_15  and  CA_21
                            x       y       z     vdW  Elec       q    Type
                         _______ _______ _______ _____ _____    ______ ____

>  <TORSDO>
F 2

$$$$
=
 OpenBabel10272400503D

 25 28  0  0  1  0  0  0  0  0999 V2000
  188.6030  177.6330  143.1790 C   0  0  0  0  0  0  0  0  0  0  0  0
  187.2770  177.9510  143.5290 C   0  0  0  0  0  0  0  0  0  0  0  0
  189.1750  177.3560  145.5170 C   0  0  0  0  0  3  0  0  0  0  0  0
  189.1800  177.5610  141.8970 C   0  0  0  0  0  0  0  0  0  0  0  0
  183.8770  178.5930  142.1720 C   0  0  0  0  0  0  0  0  0  0  0  0
  190.7040  177.3040  139.5970 C   0  0  0  0  0  3  0  0  0  0  0  0
  187.8920  177.6660  145.8480 N   0  0  0  0  0  0  0  0  0  0  0  0
  190.5260  177.2150  141.9390 C   0  0  0  0  0  0  0  0  0  0  0  0
  191.2760  177.0890  140.8170 N   0  0  0  0  0  0  0  0  0  0  0  0
  185.5650  178.2720  145.3420 C   0  0  0  0  0  0  0  0  0  0  0  0
  185.1640  178.3460  147.0490 Cl  0  0  0  0  0  0  0  0  0  0  0  0
  182.8960  178.7640  141.3300 C   0  0  0  0  0  3  0  0  0  0  0  0
  186.2600  178.3260  142.4800 C   0  0  0  0  0  2  0  0  0  0  0  0
  189.3460  177.6560  139.4990 C   0  0  0  0  0  3  0  0  0  0  0  0
  189.5290  177.3380  144.1760 C   0  0  0  0  0  0  0  0  0  0  0  0
  191.0470  176.9900  143.5230 S   0  0  0  0  0  0  0  0  0  0  0  0
  184.5950  178.4740  144.4520 C   0  0  0  0  0  3  0  0  0  0  0  0
  188.5720  177.7860  140.6600 C   0  0  0  0  0  3  0  0  0  0  0  0
  184.8600  178.4240  143.0090 C   0  0  0  0  0  0  0  0  0  0  0  0
  186.9430  177.9610  144.9090 C   0  0  0  0  0  0  0  0  0  0  0  0
  183.0000  178.2660  139.9260 C   0  0  2  0  0  3  0  0  0  0  0  0
  183.0650  176.8130  139.9090 N   0  0  0  0  0  1  0  0  0  0  0  0
  184.2060  178.8400  139.2620 C   0  0  0  0  0  0  0  0  0  0  0  0
  184.3350  180.2170  139.1450 O   0  0  0  0  0  1  0  0  0  0  0  0
  185.1150  178.0880  138.8200 O   0  0  0  0  0  0  0  0  0  0  0  0
  1  2  2  0  0  0  0
  1 15  1  0  0  0  0
  2 20  1  0  0  0  0
  3  7  1  0  0  0  0
  4  8  1  0  0  0  0
  4  1  1  0  0  0  0
  5 19  2  0  0  0  0
  6  9  1  0  0  0  0
  8 16  1  0  0  0  0
  9  8  2  0  0  0  0
 10 11  1  0  0  0  0
 12  5  2  0  0  0  0
 13 19  1  0  0  0  0
 13  2  1  0  0  0  0
 14  6  2  0  0  0  0
 14 18  1  0  0  0  0
 15  3  2  0  0  0  0
 16 15  1  0  0  0  0
 17 10  2  0  0  0  0
 18  4  2  0  0  0  0
 19 17  1  0  0  0  0
 20 10  1  0  0  0  0
 20  7  2  0  0  0  0
 21 22  1  1  0  0  0
 21 12  1  0  0  0  0
 23 21  1  0  0  0  0
 24 23  1  0  0  0  0
 25 23  2  0  0  0  0
M  END
>  <MODEL>
5

>  <REMARK>
 VINA RESULT:      -9.5      3.185      5.820
  Name = 
  2 active torsions:
  status: ('A' for Active; 'I' for Inactive)
    1  A    between atoms: C_2  and  CA_21
    2  A    between atoms: C_15  and  CA_21
                            x       y       z     vdW  Elec       q    Type
                         _______ _______ _______ _____ _____    ______ ____

>  <TORSDO>
F 2

$$$$
=
 OpenBabel10272400503D

 25 28  0  0  1  0  0  0  0  0999 V2000
  185.4360  178.2320  144.2610 C   0  0  0  0  0  0  0  0  0  0  0  0
  186.7780  177.8270  144.3830 C   0  0  0  0  0  0  0  0  0  0  0  0
  185.2860  178.5240  146.6620 C   0  0  0  0  0  3  0  0  0  0  0  0
  184.6560  178.3520  143.0960 C   0  0  0  0  0  0  0  0  0  0  0  0
  189.8530  176.9810  142.4720 C   0  0  0  0  0  0  0  0  0  0  0  0
  182.7850  178.7260  141.0860 C   0  0  0  0  0  3  0  0  0  0  0  0
  186.5830  178.1300  146.7720 N   0  0  0  0  0  0  0  0  0  0  0  0
  183.3620  178.7820  143.3640 C   0  0  0  0  0  0  0  0  0  0  0  0
  182.4430  178.9660  142.3840 N   0  0  0  0  0  0  0  0  0  0  0  0
  188.7480  177.3810  145.8810 C   0  0  0  0  0  0  0  0  0  0  0  0
  189.4260  177.2670  147.4950 Cl  0  0  0  0  0  0  0  0  0  0  0  0
  190.6640  176.7570  141.4760 C   0  0  0  0  0  3  0  0  0  0  0  0
  187.5770  177.3980  143.1770 C   0  0  0  0  0  2  0  0  0  0  0  0
  184.0820  178.2890  140.7600 C   0  0  0  0  0  3  0  0  0  0  0  0
  184.7120  178.5760  145.4000 C   0  0  0  0  0  0  0  0  0  0  0  0
  183.1310  179.0270  145.0130 S   0  0  0  0  0  0  0  0  0  0  0  0
  189.5390  177.1260  144.8400 C   0  0  0  0  0  3  0  0  0  0  0  0
  185.0310  178.1000  141.7740 C   0  0  0  0  0  3  0  0  0  0  0  0
  189.0370  177.2060  143.4620 C   0  0  0  0  0  0  0  0  0  0  0  0
  187.3390  177.7830  145.6860 C   0  0  0  0  0  0  0  0  0  0  0  0
  190.3570  177.2720  140.1090 C   0  0  2  0  0  3  0  0  0  0  0  0
  188.9220  177.2490  139.8710 N   0  0  0  0  0  1  0  0  0  0  0  0
  191.0590  176.4550  139.0780 C   0  0  0  0  0  0  0  0  0  0  0  0
  192.3520  176.7930  138.6980 O   0  0  0  0  0  1  0  0  0  0  0  0
  190.4980  175.4550  138.5580 O   0  0  0  0  0  0  0  0  0  0  0  0
  1  2  2  0  0  0  0
  1 15  1  0  0  0  0
  2 20  1  0  0  0  0
  3  7  1  0  0  0  0
  4  8  1  0  0  0  0
  4  1  1  0  0  0  0
  5 19  2  0  0  0  0
  6  9  1  0  0  0  0
  8 16  1  0  0  0  0
  9  8  2  0  0  0  0
 10 11  1  0  0  0  0
 12  5  2  0  0  0  0
 13 19  1  0  0  0  0
 13  2  1  0  0  0  0
 14  6  2  0  0  0  0
 14 18  1  0  0  0  0
 15  3  2  0  0  0  0
 16 15  1  0  0  0  0
 17 10  2  0  0  0  0
 18  4  2  0  0  0  0
 19 17  1  0  0  0  0
 20 10  1  0  0  0  0
 20  7  2  0  0  0  0
 21 22  1  6  0  0  0
 21 12  1  0  0  0  0
 23 21  1  0  0  0  0
 24 23  1  0  0  0  0
 25 23  2  0  0  0  0
M  END
>  <MODEL>
6

>  <REMARK>
 VINA RESULT:      -9.5      1.511      2.061
  Name = 
  2 active torsions:
  status: ('A' for Active; 'I' for Inactive)
    1  A    between atoms: C_2  and  CA_21
    2  A    between atoms: C_15  and  CA_21
                            x       y       z     vdW  Elec       q    Type
                         _______ _______ _______ _____ _____    ______ ____

>  <TORSDO>
F 2

$$$$
=
 OpenBabel10272400503D

 25 28  0  0  1  0  0  0  0  0999 V2000
  187.4970  177.9890  141.8600 C   0  0  0  0  0  0  0  0  0  0  0  0
  187.3390  177.8780  143.2540 C   0  0  0  0  0  0  0  0  0  0  0  0
  185.2210  178.7920  141.6460 C   0  0  0  0  0  3  0  0  0  0  0  0
  188.6280  177.6920  141.0760 C   0  0  0  0  0  0  0  0  0  0  0  0
  189.1280  177.1990  146.4410 C   0  0  0  0  0  0  0  0  0  0  0  0
  190.5950  177.2420  139.1770 C   0  0  0  0  0  3  0  0  0  0  0  0
  185.0750  178.6810  142.9950 N   0  0  0  0  0  0  0  0  0  0  0  0
  188.4140  177.9250  139.7230 C   0  0  0  0  0  0  0  0  0  0  0  0
  189.3730  177.7060  138.7900 N   0  0  0  0  0  0  0  0  0  0  0  0
  185.8580  178.1600  145.2660 C   0  0  0  0  0  0  0  0  0  0  0  0
  184.2880  178.5480  145.9460 Cl  0  0  0  0  0  0  0  0  0  0  0  0
  190.0790  176.9050  147.2850 C   0  0  0  0  0  3  0  0  0  0  0  0
  188.4470  177.3380  144.1250 C   0  0  0  0  0  2  0  0  0  0  0  0
  190.8640  176.9890  140.5350 C   0  0  0  0  0  3  0  0  0  0  0  0
  186.4380  178.4460  141.0790 C   0  0  0  0  0  0  0  0  0  0  0  0
  186.8550  178.4950  139.4430 S   0  0  0  0  0  0  0  0  0  0  0  0
  186.8440  177.8230  146.0950 C   0  0  0  0  0  3  0  0  0  0  0  0
  189.8720  177.2160  141.4980 C   0  0  0  0  0  3  0  0  0  0  0  0
  188.1830  177.4910  145.5940 C   0  0  0  0  0  0  0  0  0  0  0  0
  186.0830  178.2390  143.8070 C   0  0  0  0  0  0  0  0  0  0  0  0
  191.5130  177.0270  146.8910 C   0  0  2  0  0  3  0  0  0  0  0  0
  191.6240  177.3470  145.4770 N   0  0  0  0  0  1  0  0  0  0  0  0
  192.2400  175.7580  147.1870 C   0  0  0  0  0  0  0  0  0  0  0  0
  192.7700  175.5500  148.4530 O   0  0  0  0  0  1  0  0  0  0  0  0
  192.3660  174.8690  146.3040 O   0  0  0  0  0  0  0  0  0  0  0  0
  1  2  2  0  0  0  0
  2 20  1  0  0  0  0
  2 13  1  0  0  0  0
  3  7  1  0  0  0  0
  4 18  1  0  0  0  0
  4  1  1  0  0  0  0
  5 12  2  0  0  0  0
  6 14  1  0  0  0  0
  7 20  2  0  0  0  0
  8  4  2  0  0  0  0
  9  6  2  0  0  0  0
  9  8  1  0  0  0  0
 10 11  1  0  0  0  0
 10 17  2  0  0  0  0
 13 19  1  0  0  0  0
 14 18  2  0  0  0  0
 15  3  2  0  0  0  0
 15  1  1  0  0  0  0
 16  8  1  0  0  0  0
 16 15  1  0  0  0  0
 19 17  1  0  0  0  0
 19  5  2  0  0  0  0
 20 10  1  0  0  0  0
 21 22  1  6  0  0  0
 21 23  1  0  0  0  0
 21 12  1  0  0  0  0
 23 24  1  0  0  0  0
 25 23  2  0  0  0  0
M  END
>  <MODEL>
7

>  <REMARK>
 VINA RESULT:      -9.5      3.729      6.442
  Name = 
  2 active torsions:
  status: ('A' for Active; 'I' for Inactive)
    1  A    between atoms: C_2  and  CA_21
    2  A    between atoms: C_15  and  CA_21
                            x       y       z     vdW  Elec       q    Type
                         _______ _______ _______ _____ _____    ______ ____

>  <TORSDO>
F 2

$$$$
=
 OpenBabel10272400503D

 25 28  0  0  1  0  0  0  0  0999 V2000
  188.0780  177.6100  145.3300 C   0  0  0  0  0  0  0  0  0  0  0  0
  187.5730  177.9490  144.0610 C   0  0  0  0  0  0  0  0  0  0  0  0
  185.8880  177.9450  146.3120 C   0  0  0  0  0  3  0  0  0  0  0  0
  189.3900  177.2470  145.6870 C   0  0  0  0  0  0  0  0  0  0  0  0
  188.3900  178.0900  140.4370 C   0  0  0  0  0  0  0  0  0  0  0  0
  191.8060  176.4930  146.8160 C   0  0  0  0  0  3  0  0  0  0  0  0
  185.4070  178.2720  145.0810 N   0  0  0  0  0  0  0  0  0  0  0  0
  189.5180  176.9800  147.0450 C   0  0  0  0  0  0  0  0  0  0  0  0
  190.6980  176.6110  147.6020 N   0  0  0  0  0  0  0  0  0  0  0  0
  185.6030  178.6360  142.6580 C   0  0  0  0  0  0  0  0  0  0  0  0
  183.9180  179.1120  142.5470 Cl  0  0  0  0  0  0  0  0  0  0  0  0
  189.0520  178.0050  139.3170 C   0  0  0  0  0  3  0  0  0  0  0  0
  188.4750  178.0080  142.8520 C   0  0  0  0  0  2  0  0  0  0  0  0
  191.7310  176.7520  145.4350 C   0  0  0  0  0  3  0  0  0  0  0  0
  187.2280  177.6110  146.4340 C   0  0  0  0  0  0  0  0  0  0  0  0
  188.0500  177.1760  147.8440 S   0  0  0  0  0  0  0  0  0  0  0  0
  186.3200  178.5690  141.5380 C   0  0  0  0  0  3  0  0  0  0  0  0
  190.5100  177.1330  144.8610 C   0  0  0  0  0  3  0  0  0  0  0  0
  187.7340  178.1750  141.5590 C   0  0  0  0  0  0  0  0  0  0  0  0
  186.1980  178.2860  143.9650 C   0  0  0  0  0  0  0  0  0  0  0  0
  190.2930  177.1800  139.2240 C   0  0  2  0  0  3  0  0  0  0  0  0
  189.9890  175.8710  138.6700 N   0  0  0  0  0  1  0  0  0  0  0  0
  190.9170  177.0330  140.5710 C   0  0  0  0  0  0  0  0  0  0  0  0
  190.5340  175.9810  141.3940 O   0  0  0  0  0  1  0  0  0  0  0  0
  191.7970  177.8440  140.9640 O   0  0  0  0  0  0  0  0  0  0  0  0
  1  4  1  0  0  0  0
  1 15  2  0  0  0  0
  2  1  1  0  0  0  0
  3 15  1  0  0  0  0
  4  8  1  0  0  0  0
  5 19  2  0  0  0  0
  6  9  1  0  0  0  0
  7  3  2  0  0  0  0
  8  9  2  0  0  0  0
  8 16  1  0  0  0  0
 10 20  1  0  0  0  0
 11 10  1  0  0  0  0
 12  5  2  0  0  0  0
 13  2  1  0  0  0  0
 14  6  2  0  0  0  0
 15 16  1  0  0  0  0
 17 19  1  0  0  0  0
 17 10  2  0  0  0  0
 18 14  1  0  0  0  0
 18  4  2  0  0  0  0
 19 13  1  0  0  0  0
 20  2  2  0  0  0  0
 20  7  1  0  0  0  0
 21 22  1  1  0  0  0
 21 12  1  0  0  0  0
 21 23  1  0  0  0  0
 23 25  2  0  0  0  0
 23 24  1  0  0  0  0
M  END
>  <MODEL>
8

>  <REMARK>
 VINA RESULT:      -9.4      2.560      4.706
  Name = 
  2 active torsions:
  status: ('A' for Active; 'I' for Inactive)
    1  A    between atoms: C_2  and  CA_21
    2  A    between atoms: C_15  and  CA_21
                            x       y       z     vdW  Elec       q    Type
                         _______ _______ _______ _____ _____    ______ ____

>  <TORSDO>
F 2

$$$$
=
 OpenBabel10272400503D

 25 28  0  0  1  0  0  0  0  0999 V2000
  185.9730  178.4130  141.9870 C   0  0  0  0  0  0  0  0  0  0  0  0
  186.3540  178.1650  143.3190 C   0  0  0  0  0  0  0  0  0  0  0  0
  183.7710  179.1060  142.7250 C   0  0  0  0  0  3  0  0  0  0  0  0
  186.7300  178.2530  140.8110 C   0  0  0  0  0  0  0  0  0  0  0  0
  189.2230  177.2940  145.5160 C   0  0  0  0  0  0  0  0  0  0  0  0
  187.8430  178.0900  138.2790 C   0  0  0  0  0  3  0  0  0  0  0  0
  184.1460  178.8620  144.0100 N   0  0  0  0  0  0  0  0  0  0  0  0
  186.0180  178.5980  139.6690 C   0  0  0  0  0  0  0  0  0  0  0  0
  186.5580  178.5200  138.4280 N   0  0  0  0  0  0  0  0  0  0  0  0
  185.7360  178.1780  145.7560 C   0  0  0  0  0  0  0  0  0  0  0  0
  184.5320  178.4130  147.0100 Cl  0  0  0  0  0  0  0  0  0  0  0  0
  190.4260  176.9760  145.9080 C   0  0  0  0  0  3  0  0  0  0  0  0
  187.7170  177.6090  143.6510 C   0  0  0  0  0  2  0  0  0  0  0  0
  188.6090  177.7280  139.4030 C   0  0  0  0  0  3  0  0  0  0  0  0
  184.6910  178.8810  141.7110 C   0  0  0  0  0  0  0  0  0  0  0  0
  184.4590  179.1050  140.0530 S   0  0  0  0  0  0  0  0  0  0  0  0
  186.9670  177.8210  146.1160 C   0  0  0  0  0  3  0  0  0  0  0  0
  188.0480  177.8100  140.6850 C   0  0  0  0  0  3  0  0  0  0  0  0
  188.0240  177.6100  145.1190 C   0  0  0  0  0  0  0  0  0  0  0  0
  185.3930  178.4040  144.3360 C   0  0  0  0  0  0  0  0  0  0  0  0
  191.6040  177.2130  145.0230 C   0  0  2  0  0  3  0  0  0  0  0  0
  191.5760  178.5680  144.4950 N   0  0  0  0  0  1  0  0  0  0  0  0
  191.6160  176.2290  143.9020 C   0  0  0  0  0  0  0  0  0  0  0  0
  191.2330  176.6330  142.6300 O   0  0  0  0  0  0  0  0  0  0  0  0
  191.9820  175.0390  144.0960 O   0  0  0  0  0  1  0  0  0  0  0  0
  1  2  2  0  0  0  0
  2 13  1  0  0  0  0
  2 20  1  0  0  0  0
  3  7  1  0  0  0  0
  4  1  1  0  0  0  0
  5 12  2  0  0  0  0
  6  9  2  0  0  0  0
  6 14  1  0  0  0  0
  7 20  2  0  0  0  0
  8 16  1  0  0  0  0
  8  4  2  0  0  0  0
  9  8  1  0  0  0  0
 10 17  2  0  0  0  0
 10 11  1  0  0  0  0
 13 19  1  0  0  0  0
 14 18  2  0  0  0  0
 15  1  1  0  0  0  0
 15  3  2  0  0  0  0
 16 15  1  0  0  0  0
 18  4  1  0  0  0  0
 19  5  2  0  0  0  0
 19 17  1  0  0  0  0
 20 10  1  0  0  0  0
 21 22  1  6  0  0  0
 21 12  1  0  0  0  0
 23 25  1  0  0  0  0
 23 21  1  0  0  0  0
 24 23  2  0  0  0  0
M  END
>  <MODEL>
9

>  <REMARK>
 VINA RESULT:      -9.4      3.039      5.329
  Name = 
  2 active torsions:
  status: ('A' for Active; 'I' for Inactive)
    1  A    between atoms: C_2  and  CA_21
    2  A    between atoms: C_15  and  CA_21
                            x       y       z     vdW  Elec       q    Type
                         _______ _______ _______ _____ _____    ______ ____

>  <TORSDO>
F 2

$$$$
