=
 OpenBabel10272413213D

 32 36  0  0  0  0  0  0  0  0999 V2000
  191.8760  177.2220  141.1340 C   0  0  0  0  0  3  0  0  0  0  0  0
  186.8600  178.1340  142.5560 N   0  0  0  0  0  0  0  0  0  0  0  0
  187.3430  178.0200  147.4980 C   0  0  0  0  0  3  0  0  0  0  0  0
  185.9780  178.2700  147.6350 C   0  0  0  0  0  3  0  0  0  0  0  0
  184.5660  178.5600  141.5960 C   0  0  0  0  0  0  0  0  0  0  0  0
  183.1990  178.8090  141.7840 C   0  0  0  0  0  0  0  0  0  0  0  0
  188.7630  177.7930  141.0660 C   0  0  0  0  0  0  0  0  0  0  0  0
  189.0090  177.7350  143.5800 C   0  0  0  0  0  3  0  0  0  0  0  0
  190.9370  177.3880  142.2480 C   0  0  0  0  0  3  0  0  0  0  0  0
  187.9070  177.9230  146.2240 C   0  0  0  0  0  3  0  0  0  0  0  0
  187.7000  177.9740  143.7230 C   0  0  0  0  0  0  0  0  0  0  0  0
  187.1120  178.0760  145.0750 C   0  0  0  0  0  0  0  0  0  0  0  0
  184.8840  178.4890  144.0100 C   0  0  0  0  0  0  0  0  0  0  0  0
  190.3970  177.5030  139.1540 C   0  0  0  0  0  3  0  0  0  0  0  0
  189.6290  177.6280  142.2540 C   0  0  0  0  0  0  0  0  0  0  0  0
  182.3850  178.9640  140.6660 O   0  0  0  0  0  1  0  0  0  0  0  0
  189.1910  177.7210  139.6670 C   0  0  0  0  0  3  0  0  0  0  0  0
  191.6850  177.2640  139.8140 C   0  0  0  0  0  0  0  0  0  0  0  0
  185.1800  178.4220  146.5000 C   0  0  0  0  0  3  0  0  0  0  0  0
  185.7360  178.3260  145.2110 C   0  0  0  0  0  0  0  0  0  0  0  0
  183.5160  178.7390  144.1710 C   0  0  0  0  0  3  0  0  0  0  0  0
  187.4630  178.0300  141.2500 C   0  0  0  0  0  3  0  0  0  0  0  0
  185.0340  178.4800  140.2880 O   0  0  0  0  0  1  0  0  0  0  0  0
  185.4360  178.3940  142.7100 C   0  0  0  0  0  0  0  0  0  0  0  0
  182.6630  178.9010  143.0790 C   0  0  0  0  0  0  0  0  0  0  0  0
  193.0250  175.9650  138.0360 C   0  0  0  0  0  0  0  0  0  0  0  0
  192.7990  177.0640  138.9300 N   0  0  0  0  0  2  0  0  0  0  0  0
  194.2000  175.9490  137.2360 N   0  0  0  0  0  1  0  0  0  0  0  0
  192.2040  175.0150  137.9450 O   0  0  0  0  0  0  0  0  0  0  0  0
  181.2270  179.1620  143.3310 C   0  0  0  0  0  0  0  0  0  0  0  0
  180.6170  180.3240  142.8730 O   0  0  0  0  0  0  0  0  0  0  0  0
  180.5350  178.3270  143.9710 O   0  0  0  0  0  1  0  0  0  0  0  0
  1  9  1  0  0  0  0
  2 24  1  0  0  0  0
  2 11  1  0  0  0  0
  3  4  1  0  0  0  0
  5  6  2  0  0  0  0
  5 24  1  0  0  0  0
  6 25  1  0  0  0  0
  7 22  2  0  0  0  0
  7 15  1  0  0  0  0
  8 11  2  0  0  0  0
  9 15  2  0  0  0  0
 10  3  2  0  0  0  0
 11 12  1  0  0  0  0
 12 20  2  0  0  0  0
 12 10  1  0  0  0  0
 13 21  1  0  0  0  0
 13 20  1  0  0  0  0
 14 17  2  0  0  0  0
 14 18  1  0  0  0  0
 15  8  1  0  0  0  0
 16  6  1  0  0  0  0
 17  7  1  0  0  0  0
 18  1  2  0  0  0  0
 19  4  2  0  0  0  0
 20 19  1  0  0  0  0
 22  2  1  0  0  0  0
 23  5  1  0  0  0  0
 24 13  2  0  0  0  0
 25 30  1  0  0  0  0
 25 21  2  0  0  0  0
 26 27  1  0  0  0  0
 27 18  1  0  0  0  0
 28 26  1  0  0  0  0
 29 26  2  0  0  0  0
 30 32  1  0  0  0  0
 31 30  2  0  0  0  0
M  END
>  <MODEL>
1

>  <REMARK>
 VINA RESULT:     -11.2      0.000      0.000
  Name = 
  2 active torsions:
  status: ('A' for Active; 'I' for Inactive)
    1  A    between atoms: N_10  and  C_24
    2  A    between atoms: C_11  and  C_32
                            x       y       z     vdW  Elec       q    Type
                         _______ _______ _______ _____ _____    ______ ____

>  <TORSDO>
F 2

$$$$
=
 OpenBabel10272413213D

 32 36  0  0  0  0  0  0  0  0999 V2000
  190.3840  176.8760  147.9250 C   0  0  0  0  0  3  0  0  0  0  0  0
  188.1160  177.7130  143.2170 N   0  0  0  0  0  0  0  0  0  0  0  0
  183.5130  178.8640  144.6840 C   0  0  0  0  0  3  0  0  0  0  0  0
  183.1320  179.0320  143.3530 C   0  0  0  0  0  3  0  0  0  0  0  0
  188.6070  177.7060  140.7420 C   0  0  0  0  0  0  0  0  0  0  0  0
  188.1780  177.8850  139.4190 C   0  0  0  0  0  0  0  0  0  0  0  0
  189.8790  177.1650  144.8140 C   0  0  0  0  0  0  0  0  0  0  0  0
  187.5370  177.7510  145.5600 C   0  0  0  0  0  3  0  0  0  0  0  0
  189.1550  177.2380  147.2120 C   0  0  0  0  0  3  0  0  0  0  0  0
  184.8250  178.5000  144.9910 C   0  0  0  0  0  3  0  0  0  0  0  0
  187.1620  177.9140  144.2850 C   0  0  0  0  0  0  0  0  0  0  0  0
  185.7710  178.3000  143.9710 C   0  0  0  0  0  0  0  0  0  0  0  0
  186.3730  178.2600  141.5400 C   0  0  0  0  0  0  0  0  0  0  0  0
  191.9930  176.5410  146.0580 C   0  0  0  0  0  3  0  0  0  0  0  0
  188.9100  177.3680  145.9120 C   0  0  0  0  0  0  0  0  0  0  0  0
  189.0910  177.6940  138.3860 O   0  0  0  0  0  1  0  0  0  0  0  0
  191.2860  176.7840  144.9600 C   0  0  0  0  0  3  0  0  0  0  0  0
  191.6030  176.5750  147.4710 C   0  0  0  0  0  0  0  0  0  0  0  0
  184.0640  178.8350  142.3320 C   0  0  0  0  0  3  0  0  0  0  0  0
  185.3890  178.4670  142.6280 C   0  0  0  0  0  0  0  0  0  0  0  0
  185.9700  178.4330  140.2110 C   0  0  0  0  0  3  0  0  0  0  0  0
  189.4660  177.3380  143.5560 C   0  0  0  0  0  3  0  0  0  0  0  0
  189.9350  177.3420  140.9470 O   0  0  0  0  0  1  0  0  0  0  0  0
  187.7090  177.8900  141.8300 C   0  0  0  0  0  0  0  0  0  0  0  0
  186.8500  178.2520  139.1440 C   0  0  0  0  0  0  0  0  0  0  0  0
  193.2040  177.0900  149.4250 C   0  0  0  0  0  0  0  0  0  0  0  0
  192.6460  176.2510  148.4040 N   0  0  0  0  0  2  0  0  0  0  0  0
  194.2410  176.5810  150.2540 N   0  0  0  0  0  1  0  0  0  0  0  0
  192.7940  178.2670  149.6000 O   0  0  0  0  0  0  0  0  0  0  0  0
  186.3480  178.4540  137.7650 C   0  0  0  0  0  0  0  0  0  0  0  0
  186.9780  179.3320  136.8930 O   0  0  0  0  0  0  0  0  0  0  0  0
  185.3320  177.8260  137.3640 O   0  0  0  0  0  1  0  0  0  0  0  0
  2 22  1  0  0  0  0
  2 11  1  0  0  0  0
  3 10  1  0  0  0  0
  4  3  2  0  0  0  0
  5 23  1  0  0  0  0
  5 24  1  0  0  0  0
  6  5  2  0  0  0  0
  7 17  1  0  0  0  0
  7 15  1  0  0  0  0
  8 15  1  0  0  0  0
  9  1  1  0  0  0  0
 11  8  2  0  0  0  0
 12 11  1  0  0  0  0
 12 10  2  0  0  0  0
 13 24  2  0  0  0  0
 13 20  1  0  0  0  0
 14 18  1  0  0  0  0
 15  9  2  0  0  0  0
 16  6  1  0  0  0  0
 17 14  2  0  0  0  0
 18  1  2  0  0  0  0
 18 27  1  0  0  0  0
 19 20  2  0  0  0  0
 19  4  1  0  0  0  0
 20 12  1  0  0  0  0
 21 13  1  0  0  0  0
 22  7  2  0  0  0  0
 24  2  1  0  0  0  0
 25  6  1  0  0  0  0
 25 21  2  0  0  0  0
 26 29  2  0  0  0  0
 26 28  1  0  0  0  0
 27 26  1  0  0  0  0
 30 25  1  0  0  0  0
 31 30  2  0  0  0  0
 32 30  1  0  0  0  0
M  END
>  <MODEL>
2

>  <REMARK>
 VINA RESULT:     -10.7      4.045      6.361
  Name = 
  2 active torsions:
  status: ('A' for Active; 'I' for Inactive)
    1  A    between atoms: N_10  and  C_24
    2  A    between atoms: C_11  and  C_32
                            x       y       z     vdW  Elec       q    Type
                         _______ _______ _______ _____ _____    ______ ____

>  <TORSDO>
F 2

$$$$
=
 OpenBabel10272413213D

 32 36  0  0  0  0  0  0  0  0999 V2000
  190.8440  177.2450  145.1870 C   0  0  0  0  0  3  0  0  0  0  0  0
  186.1260  178.1930  142.9840 N   0  0  0  0  0  0  0  0  0  0  0  0
  187.4190  178.2350  138.1890 C   0  0  0  0  0  3  0  0  0  0  0  0
  186.0940  178.4860  137.8350 C   0  0  0  0  0  3  0  0  0  0  0  0
  183.7020  178.5840  143.5640 C   0  0  0  0  0  0  0  0  0  0  0  0
  182.3830  178.8370  143.1600 C   0  0  0  0  0  0  0  0  0  0  0  0
  187.7590  177.8080  144.7570 C   0  0  0  0  0  0  0  0  0  0  0  0
  188.4170  177.8290  142.3170 C   0  0  0  0  0  3  0  0  0  0  0  0
  190.1010  177.4450  143.9380 C   0  0  0  0  0  3  0  0  0  0  0  0
  187.7660  178.0990  139.5340 C   0  0  0  0  0  3  0  0  0  0  0  0
  187.1480  178.0710  141.9670 C   0  0  0  0  0  0  0  0  0  0  0  0
  186.7910  178.2120  140.5410 C   0  0  0  0  0  0  0  0  0  0  0  0
  184.4150  178.5900  141.2340 C   0  0  0  0  0  0  0  0  0  0  0  0
  189.0570  177.4620  146.9030 C   0  0  0  0  0  3  0  0  0  0  0  0
  188.8100  177.6820  143.7240 C   0  0  0  0  0  0  0  0  0  0  0  0
  181.3950  178.9550  144.1320 O   0  0  0  0  0  1  0  0  0  0  0  0
  187.9510  177.6940  146.2040 C   0  0  0  0  0  3  0  0  0  0  0  0
  190.4370  177.2450  146.4580 C   0  0  0  0  0  0  0  0  0  0  0  0
  185.1190  178.6010  138.8270 C   0  0  0  0  0  3  0  0  0  0  0  0
  185.4550  178.4660  140.1860 C   0  0  0  0  0  0  0  0  0  0  0  0
  183.0910  178.8420  140.8570 C   0  0  0  0  0  3  0  0  0  0  0  0
  186.5060  178.0490  144.3680 C   0  0  0  0  0  3  0  0  0  0  0  0
  183.9480  178.4650  144.9290 O   0  0  0  0  0  1  0  0  0  0  0  0
  184.7450  178.4550  142.6050 C   0  0  0  0  0  0  0  0  0  0  0  0
  182.0680  178.9690  141.7970 C   0  0  0  0  0  0  0  0  0  0  0  0
  192.3430  175.9520  147.6160 C   0  0  0  0  0  0  0  0  0  0  0  0
  191.3920  177.0200  147.5070 N   0  0  0  0  0  2  0  0  0  0  0  0
  193.2090  175.9030  148.7420 N   0  0  0  0  0  1  0  0  0  0  0  0
  192.4260  175.0580  146.7340 O   0  0  0  0  0  0  0  0  0  0  0  0
  180.6920  179.2360  141.3200 C   0  0  0  0  0  0  0  0  0  0  0  0
  180.1240  180.4990  141.4350 O   0  0  0  0  0  1  0  0  0  0  0  0
  180.0120  178.3120  140.8000 O   0  0  0  0  0  0  0  0  0  0  0  0
  1 18  2  0  0  0  0
  2 22  1  0  0  0  0
  3 10  1  0  0  0  0
  4  3  2  0  0  0  0
  4 19  1  0  0  0  0
  5 23  1  0  0  0  0
  6  5  1  0  0  0  0
  6 16  1  0  0  0  0
  7 17  1  0  0  0  0
  8 15  1  0  0  0  0
  9  1  1  0  0  0  0
 10 12  2  0  0  0  0
 11  8  2  0  0  0  0
 11  2  1  0  0  0  0
 12 11  1  0  0  0  0
 13 24  1  0  0  0  0
 15  9  2  0  0  0  0
 15  7  1  0  0  0  0
 17 14  2  0  0  0  0
 18 14  1  0  0  0  0
 18 27  1  0  0  0  0
 19 20  2  0  0  0  0
 20 12  1  0  0  0  0
 20 13  1  0  0  0  0
 21 13  2  0  0  0  0
 21 25  1  0  0  0  0
 22  7  2  0  0  0  0
 24  2  1  0  0  0  0
 24  5  2  0  0  0  0
 25  6  2  0  0  0  0
 26 28  1  0  0  0  0
 27 26  1  0  0  0  0
 29 26  2  0  0  0  0
 30 31  1  0  0  0  0
 30 25  1  0  0  0  0
 32 30  2  0  0  0  0
M  END
>  <MODEL>
3

>  <REMARK>
 VINA RESULT:     -10.4      3.435      5.589
  Name = 
  2 active torsions:
  status: ('A' for Active; 'I' for Inactive)
    1  A    between atoms: N_10  and  C_24
    2  A    between atoms: C_11  and  C_32
                            x       y       z     vdW  Elec       q    Type
                         _______ _______ _______ _____ _____    ______ ____

>  <TORSDO>
F 2

$$$$
=
 OpenBabel10272413213D

 32 36  0  0  0  0  0  0  0  0999 V2000
  191.3750  177.2130  144.6740 C   0  0  0  0  0  3  0  0  0  0  0  0
  186.9840  178.1150  141.8610 N   0  0  0  0  0  0  0  0  0  0  0  0
  188.9140  178.2380  137.2870 C   0  0  0  0  0  3  0  0  0  0  0  0
  187.6450  178.4730  136.7590 C   0  0  0  0  0  3  0  0  0  0  0  0
  184.4970  178.4600  142.1110 C   0  0  0  0  0  0  0  0  0  0  0  0
  183.2410  178.6980  141.5340 C   0  0  0  0  0  0  0  0  0  0  0  0
  188.3680  177.7330  143.8360 C   0  0  0  0  0  0  0  0  0  0  0  0
  189.3500  177.7960  141.5080 C   0  0  0  0  0  3  0  0  0  0  0  0
  190.8050  177.4170  143.3390 C   0  0  0  0  0  3  0  0  0  0  0  0
  189.0780  178.0910  138.6650 C   0  0  0  0  0  3  0  0  0  0  0  0
  188.1360  178.0220  140.9920 C   0  0  0  0  0  0  0  0  0  0  0  0
  187.9740  178.1760  139.5310 C   0  0  0  0  0  0  0  0  0  0  0  0
  185.5190  178.5070  139.9000 C   0  0  0  0  0  0  0  0  0  0  0  0
  189.3680  177.3800  146.1340 C   0  0  0  0  0  3  0  0  0  0  0  0
  189.5510  177.6370  142.9540 C   0  0  0  0  0  0  0  0  0  0  0  0
  182.1280  178.7880  142.3650 O   0  0  0  0  0  1  0  0  0  0  0  0
  188.3630  177.6040  145.2940 C   0  0  0  0  0  3  0  0  0  0  0  0
  190.8000  177.1900  145.8780 C   0  0  0  0  0  0  0  0  0  0  0  0
  186.5420  178.5600  137.6110 C   0  0  0  0  0  3  0  0  0  0  0  0
  186.6930  178.4130  139.0020 C   0  0  0  0  0  0  0  0  0  0  0  0
  184.2540  178.7430  139.3490 C   0  0  0  0  0  3  0  0  0  0  0  0
  187.1740  177.9590  143.2820 C   0  0  0  0  0  3  0  0  0  0  0  0
  184.5580  178.3280  143.4950 O   0  0  0  0  0  1  0  0  0  0  0  0
  185.6630  178.3600  141.3010 C   0  0  0  0  0  0  0  0  0  0  0  0
  183.1110  178.8420  140.1430 C   0  0  0  0  0  0  0  0  0  0  0  0
  192.3570  175.7920  147.3840 C   0  0  0  0  0  0  0  0  0  0  0  0
  191.6070  176.9670  147.0450 N   0  0  0  0  0  2  0  0  0  0  0  0
  193.0990  175.7650  148.5960 N   0  0  0  0  0  1  0  0  0  0  0  0
  192.3700  174.7850  146.6290 O   0  0  0  0  0  0  0  0  0  0  0  0
  181.8080  179.0940  139.4860 C   0  0  0  0  0  0  0  0  0  0  0  0
  180.9580  178.0470  139.1500 O   0  0  0  0  0  0  0  0  0  0  0  0
  181.4510  180.2720  139.2200 O   0  0  0  0  0  1  0  0  0  0  0  0
  1 18  2  0  0  0  0
  2 22  1  0  0  0  0
  3 10  1  0  0  0  0
  4  3  2  0  0  0  0
  4 19  1  0  0  0  0
  5 23  1  0  0  0  0
  6  5  1  0  0  0  0
  6 16  1  0  0  0  0
  7 17  1  0  0  0  0
  8 15  1  0  0  0  0
  9  1  1  0  0  0  0
 10 12  2  0  0  0  0
 11  8  2  0  0  0  0
 11  2  1  0  0  0  0
 12 11  1  0  0  0  0
 13 24  1  0  0  0  0
 15  9  2  0  0  0  0
 15  7  1  0  0  0  0
 17 14  2  0  0  0  0
 18 14  1  0  0  0  0
 18 27  1  0  0  0  0
 19 20  2  0  0  0  0
 20 12  1  0  0  0  0
 20 13  1  0  0  0  0
 21 13  2  0  0  0  0
 21 25  1  0  0  0  0
 22  7  2  0  0  0  0
 24  2  1  0  0  0  0
 24  5  2  0  0  0  0
 25  6  2  0  0  0  0
 26 28  1  0  0  0  0
 27 26  1  0  0  0  0
 29 26  2  0  0  0  0
 30 25  1  0  0  0  0
 31 30  2  0  0  0  0
 32 30  1  0  0  0  0
M  END
>  <MODEL>
4

>  <REMARK>
 VINA RESULT:     -10.0      3.216      5.824
  Name = 
  2 active torsions:
  status: ('A' for Active; 'I' for Inactive)
    1  A    between atoms: N_10  and  C_24
    2  A    between atoms: C_11  and  C_32
                            x       y       z     vdW  Elec       q    Type
                         _______ _______ _______ _____ _____    ______ ____

>  <TORSDO>
F 2

$$$$
=
 OpenBabel10272413213D

 32 36  0  0  0  0  0  0  0  0999 V2000
  192.8860  176.5380  138.9190 C   0  0  0  0  0  3  0  0  0  0  0  0
  189.0820  177.4850  142.4740 N   0  0  0  0  0  0  0  0  0  0  0  0
  191.6080  176.6470  146.6670 C   0  0  0  0  0  3  0  0  0  0  0  0
  190.4660  176.9420  147.4120 C   0  0  0  0  0  3  0  0  0  0  0  0
  186.6560  178.1550  142.6620 C   0  0  0  0  0  0  0  0  0  0  0  0
  185.5340  178.4420  143.4530 C   0  0  0  0  0  0  0  0  0  0  0  0
  190.1210  177.2650  140.2760 C   0  0  0  0  0  0  0  0  0  0  0  0
  191.4060  176.8400  142.4100 C   0  0  0  0  0  3  0  0  0  0  0  0
  192.5340  176.5900  140.3420 C   0  0  0  0  0  3  0  0  0  0  0  0
  191.5620  176.7040  145.2730 C   0  0  0  0  0  3  0  0  0  0  0  0
  190.3160  177.1200  143.1340 C   0  0  0  0  0  0  0  0  0  0  0  0
  190.3750  177.0570  144.6090 C   0  0  0  0  0  0  0  0  0  0  0  0
  187.9620  177.7270  144.6730 C   0  0  0  0  0  0  0  0  0  0  0  0
  190.7440  177.1700  137.8250 C   0  0  0  0  0  3  0  0  0  0  0  0
  191.3870  176.8910  140.9430 C   0  0  0  0  0  0  0  0  0  0  0  0
  184.3430  178.7940  142.8250 O   0  0  0  0  0  1  0  0  0  0  0  0
  189.9020  177.3720  138.8320 C   0  0  0  0  0  3  0  0  0  0  0  0
  192.1570  176.7760  137.8270 C   0  0  0  0  0  0  0  0  0  0  0  0
  189.2820  177.2930  146.7610 C   0  0  0  0  0  3  0  0  0  0  0  0
  189.2230  177.3540  145.3570 C   0  0  0  0  0  0  0  0  0  0  0  0
  186.8290  178.0180  145.4400 C   0  0  0  0  0  3  0  0  0  0  0  0
  189.0560  177.5380  141.0330 C   0  0  0  0  0  3  0  0  0  0  0  0
  186.5110  178.2390  141.2800 O   0  0  0  0  0  1  0  0  0  0  0  0
  187.8950  177.7910  143.2600 C   0  0  0  0  0  0  0  0  0  0  0  0
  185.6140  178.3750  144.8540 C   0  0  0  0  0  0  0  0  0  0  0  0
  192.7320  175.5120  135.6550 C   0  0  0  0  0  0  0  0  0  0  0  0
  192.7600  176.6490  136.5300 N   0  0  0  0  0  2  0  0  0  0  0  0
  193.3970  175.5830  134.4010 N   0  0  0  0  0  1  0  0  0  0  0  0
  192.1310  174.4540  135.9770 O   0  0  0  0  0  0  0  0  0  0  0  0
  184.4590  178.6690  145.7330 C   0  0  0  0  0  0  0  0  0  0  0  0
  184.5080  178.4070  147.0960 O   0  0  0  0  0  1  0  0  0  0  0  0
  183.4060  179.1630  145.2490 O   0  0  0  0  0  0  0  0  0  0  0  0
  1  9  1  0  0  0  0
  2 11  1  0  0  0  0
  2 24  1  0  0  0  0
  3  4  1  0  0  0  0
  5 24  2  0  0  0  0
  5  6  1  0  0  0  0
  6 25  2  0  0  0  0
  7 15  1  0  0  0  0
  7 22  2  0  0  0  0
  8 11  2  0  0  0  0
  9 15  2  0  0  0  0
 10  3  2  0  0  0  0
 11 12  1  0  0  0  0
 12 10  1  0  0  0  0
 12 20  2  0  0  0  0
 13 20  1  0  0  0  0
 13 21  2  0  0  0  0
 14 18  1  0  0  0  0
 14 17  2  0  0  0  0
 15  8  1  0  0  0  0
 16  6  1  0  0  0  0
 17  7  1  0  0  0  0
 18  1  2  0  0  0  0
 19  4  2  0  0  0  0
 20 19  1  0  0  0  0
 22  2  1  0  0  0  0
 23  5  1  0  0  0  0
 24 13  1  0  0  0  0
 25 21  1  0  0  0  0
 25 30  1  0  0  0  0
 26 29  2  0  0  0  0
 26 27  1  0  0  0  0
 27 18  1  0  0  0  0
 28 26  1  0  0  0  0
 30 31  1  0  0  0  0
 32 30  2  0  0  0  0
M  END
>  <MODEL>
5

>  <REMARK>
 VINA RESULT:     -10.0      2.031      3.120
  Name = 
  2 active torsions:
  status: ('A' for Active; 'I' for Inactive)
    1  A    between atoms: N_10  and  C_24
    2  A    between atoms: C_11  and  C_32
                            x       y       z     vdW  Elec       q    Type
                         _______ _______ _______ _____ _____    ______ ____

>  <TORSDO>
F 2

$$$$
=
 OpenBabel10272413213D

 32 36  0  0  0  0  0  0  0  0999 V2000
  181.7140  179.3620  139.6340 C   0  0  0  0  0  3  0  0  0  0  0  0
  186.1930  178.1780  142.1920 N   0  0  0  0  0  0  0  0  0  0  0  0
  184.6040  178.5070  146.8860 C   0  0  0  0  0  3  0  0  0  0  0  0
  185.8800  178.1740  147.3400 C   0  0  0  0  0  3  0  0  0  0  0  0
  188.6090  177.5680  141.7950 C   0  0  0  0  0  0  0  0  0  0  0  0
  189.8750  177.2370  142.2990 C   0  0  0  0  0  0  0  0  0  0  0  0
  184.7100  178.5870  140.2960 C   0  0  0  0  0  0  0  0  0  0  0  0
  183.9010  178.7540  142.6850 C   0  0  0  0  0  3  0  0  0  0  0  0
  182.3590  179.1760  140.9370 C   0  0  0  0  0  3  0  0  0  0  0  0
  184.3540  178.5930  145.5150 C   0  0  0  0  0  3  0  0  0  0  0  0
  185.1230  178.4360  143.1300 C   0  0  0  0  0  0  0  0  0  0  0  0
  185.3770  178.3460  144.5830 C   0  0  0  0  0  0  0  0  0  0  0  0
  187.7540  177.7490  144.0700 C   0  0  0  0  0  0  0  0  0  0  0  0
  183.5820  178.9110  138.0540 C   0  0  0  0  0  3  0  0  0  0  0  0
  183.6100  178.8520  141.2490 C   0  0  0  0  0  0  0  0  0  0  0  0
  190.9100  176.9870  141.4020 O   0  0  0  0  0  1  0  0  0  0  0  0
  184.6190  178.6340  138.8350 C   0  0  0  0  0  3  0  0  0  0  0  0
  182.1980  179.2580  138.3940 C   0  0  0  0  0  0  0  0  0  0  0  0
  186.9030  177.9280  146.4220 C   0  0  0  0  0  3  0  0  0  0  0  0
  186.6640  178.0110  145.0380 C   0  0  0  0  0  0  0  0  0  0  0  0
  189.0270  177.4160  144.5470 C   0  0  0  0  0  3  0  0  0  0  0  0
  185.9130  178.2720  140.7800 C   0  0  0  0  0  3  0  0  0  0  0  0
  188.4590  177.6290  140.4130 O   0  0  0  0  0  1  0  0  0  0  0  0
  187.5220  177.8310  142.6750 C   0  0  0  0  0  0  0  0  0  0  0  0
  190.0930  177.1590  143.6850 C   0  0  0  0  0  0  0  0  0  0  0  0
  180.8360  180.7580  136.7990 C   0  0  0  0  0  0  0  0  0  0  0  0
  181.3320  179.4980  137.2730 N   0  0  0  0  0  2  0  0  0  0  0  0
  179.9820  180.7860  135.6630 N   0  0  0  0  0  1  0  0  0  0  0  0
  181.1430  181.8370  137.3690 O   0  0  0  0  0  0  0  0  0  0  0  0
  191.4110  176.8140  144.2660 C   0  0  0  0  0  0  0  0  0  0  0  0
  191.9920  175.5710  144.0420 O   0  0  0  0  0  0  0  0  0  0  0  0
  192.0260  177.6500  144.9790 O   0  0  0  0  0  1  0  0  0  0  0  0
  1  9  1  0  0  0  0
  2 24  1  0  0  0  0
  2 11  1  0  0  0  0
  3  4  1  0  0  0  0
  5  6  2  0  0  0  0
  5 24  1  0  0  0  0
  6 25  1  0  0  0  0
  7 22  2  0  0  0  0
  7 15  1  0  0  0  0
  8 11  2  0  0  0  0
  9 15  2  0  0  0  0
 10  3  2  0  0  0  0
 11 12  1  0  0  0  0
 12 20  2  0  0  0  0
 12 10  1  0  0  0  0
 13 21  1  0  0  0  0
 13 20  1  0  0  0  0
 14 18  1  0  0  0  0
 14 17  2  0  0  0  0
 15  8  1  0  0  0  0
 16  6  1  0  0  0  0
 17  7  1  0  0  0  0
 18  1  2  0  0  0  0
 19  4  2  0  0  0  0
 20 19  1  0  0  0  0
 22  2  1  0  0  0  0
 23  5  1  0  0  0  0
 24 13  2  0  0  0  0
 25 30  1  0  0  0  0
 25 21  2  0  0  0  0
 26 27  1  0  0  0  0
 26 29  2  0  0  0  0
 27 18  1  0  0  0  0
 28 26  1  0  0  0  0
 30 32  1  0  0  0  0
 31 30  2  0  0  0  0
M  END
>  <MODEL>
6

>  <REMARK>
 VINA RESULT:      -9.9      3.553      7.597
  Name = 
  2 active torsions:
  status: ('A' for Active; 'I' for Inactive)
    1  A    between atoms: N_10  and  C_24
    2  A    between atoms: C_11  and  C_32
                            x       y       z     vdW  Elec       q    Type
                         _______ _______ _______ _____ _____    ______ ____

>  <TORSDO>
F 2

$$$$
=
 OpenBabel10272413213D

 32 36  0  0  0  0  0  0  0  0999 V2000
  189.5000  177.3520  147.4130 C   0  0  0  0  0  3  0  0  0  0  0  0
  187.8010  177.9450  142.4360 N   0  0  0  0  0  0  0  0  0  0  0  0
  182.9610  178.6820  143.2730 C   0  0  0  0  0  3  0  0  0  0  0  0
  182.7440  178.8050  141.9010 C   0  0  0  0  0  3  0  0  0  0  0  0
  188.6100  177.9650  140.0460 C   0  0  0  0  0  0  0  0  0  0  0  0
  188.3430  178.0950  138.6760 C   0  0  0  0  0  0  0  0  0  0  0  0
  189.3820  177.5710  144.2580 C   0  0  0  0  0  0  0  0  0  0  0  0
  186.9200  177.9470  144.6830 C   0  0  0  0  0  3  0  0  0  0  0  0
  188.3470  177.5950  146.5410 C   0  0  0  0  0  3  0  0  0  0  0  0
  184.2490  178.4410  143.7540 C   0  0  0  0  0  3  0  0  0  0  0  0
  186.7010  178.0650  143.3680 C   0  0  0  0  0  0  0  0  0  0  0  0
  185.3340  178.3210  142.8690 C   0  0  0  0  0  0  0  0  0  0  0  0
  186.2500  178.3190  140.5380 C   0  0  0  0  0  0  0  0  0  0  0  0
  191.3630  177.1520  145.7760 C   0  0  0  0  0  3  0  0  0  0  0  0
  188.2640  177.6930  145.2170 C   0  0  0  0  0  0  0  0  0  0  0  0
  189.3960  177.9810  137.7730 O   0  0  0  0  0  1  0  0  0  0  0  0
  190.7860  177.3210  144.5920 C   0  0  0  0  0  3  0  0  0  0  0  0
  190.7900  177.1600  147.1270 C   0  0  0  0  0  0  0  0  0  0  0  0
  183.8150  178.6870  141.0130 C   0  0  0  0  0  3  0  0  0  0  0  0
  185.1180  178.4440  141.4850 C   0  0  0  0  0  0  0  0  0  0  0  0
  186.0100  178.4450  139.1650 C   0  0  0  0  0  3  0  0  0  0  0  0
  189.1230  177.6970  142.9540 C   0  0  0  0  0  3  0  0  0  0  0  0
  189.9260  177.7250  140.4280 O   0  0  0  0  0  1  0  0  0  0  0  0
  187.5640  178.0750  141.0050 C   0  0  0  0  0  0  0  0  0  0  0  0
  187.0340  178.3370  138.2240 C   0  0  0  0  0  0  0  0  0  0  0  0
  192.7400  175.9260  148.2760 C   0  0  0  0  0  0  0  0  0  0  0  0
  191.7270  176.9390  148.1920 N   0  0  0  0  0  2  0  0  0  0  0  0
  193.5760  175.8710  149.4240 N   0  0  0  0  0  1  0  0  0  0  0  0
  192.9030  175.0860  147.3520 O   0  0  0  0  0  0  0  0  0  0  0  0
  186.7010  178.4830  136.7890 C   0  0  0  0  0  0  0  0  0  0  0  0
  185.9720  177.5080  136.1180 O   0  0  0  0  0  0  0  0  0  0  0  0
  187.0790  179.5020  136.1510 O   0  0  0  0  0  1  0  0  0  0  0  0
  2 22  1  0  0  0  0
  2 11  1  0  0  0  0
  3 10  1  0  0  0  0
  4  3  2  0  0  0  0
  5 23  1  0  0  0  0
  5 24  1  0  0  0  0
  6  5  2  0  0  0  0
  7 17  1  0  0  0  0
  7 15  1  0  0  0  0
  8 15  1  0  0  0  0
  9  1  1  0  0  0  0
 11  8  2  0  0  0  0
 12 11  1  0  0  0  0
 12 10  2  0  0  0  0
 13 24  2  0  0  0  0
 13 20  1  0  0  0  0
 14 18  1  0  0  0  0
 15  9  2  0  0  0  0
 16  6  1  0  0  0  0
 17 14  2  0  0  0  0
 18  1  2  0  0  0  0
 18 27  1  0  0  0  0
 19 20  2  0  0  0  0
 19  4  1  0  0  0  0
 20 12  1  0  0  0  0
 21 13  1  0  0  0  0
 22  7  2  0  0  0  0
 24  2  1  0  0  0  0
 25  6  1  0  0  0  0
 25 21  2  0  0  0  0
 26 28  1  0  0  0  0
 27 26  1  0  0  0  0
 29 26  2  0  0  0  0
 30 25  1  0  0  0  0
 31 30  2  0  0  0  0
 32 30  1  0  0  0  0
M  END
>  <MODEL>
7

>  <REMARK>
 VINA RESULT:      -9.9      3.710      6.402
  Name = 
  2 active torsions:
  status: ('A' for Active; 'I' for Inactive)
    1  A    between atoms: N_10  and  C_24
    2  A    between atoms: C_11  and  C_32
                            x       y       z     vdW  Elec       q    Type
                         _______ _______ _______ _____ _____    ______ ____

>  <TORSDO>
F 2

$$$$
=
 OpenBabel10272413213D

 32 36  0  0  0  0  0  0  0  0999 V2000
  184.0620  179.0330  139.4380 C   0  0  0  0  0  3  0  0  0  0  0  0
  187.7910  177.8360  142.9970 N   0  0  0  0  0  0  0  0  0  0  0  0
  191.7440  177.5030  140.0080 C   0  0  0  0  0  3  0  0  0  0  0  0
  192.5470  177.2000  141.1060 C   0  0  0  0  0  3  0  0  0  0  0  0
  188.1300  177.4310  145.4640 C   0  0  0  0  0  0  0  0  0  0  0  0
  188.9780  177.1220  146.5380 C   0  0  0  0  0  0  0  0  0  0  0  0
  185.5690  178.3740  142.1420 C   0  0  0  0  0  0  0  0  0  0  0  0
  187.5800  178.2050  140.6210 C   0  0  0  0  0  3  0  0  0  0  0  0
  185.4800  178.7340  139.6630 C   0  0  0  0  0  3  0  0  0  0  0  0
  190.3790  177.7360  140.1880 C   0  0  0  0  0  3  0  0  0  0  0  0
  188.3600  177.9120  141.6690 C   0  0  0  0  0  0  0  0  0  0  0  0
  189.8030  177.6680  141.4680 C   0  0  0  0  0  0  0  0  0  0  0  0
  190.0200  177.2850  143.9340 C   0  0  0  0  0  0  0  0  0  0  0  0
  183.1250  178.8920  141.7380 C   0  0  0  0  0  3  0  0  0  0  0  0
  186.1420  178.4540  140.7810 C   0  0  0  0  0  0  0  0  0  0  0  0
  188.4380  177.0460  147.8190 O   0  0  0  0  0  1  0  0  0  0  0  0
  184.1660  178.5890  142.5040 C   0  0  0  0  0  3  0  0  0  0  0  0
  183.0370  179.1090  140.2900 C   0  0  0  0  0  0  0  0  0  0  0  0
  191.9840  177.1290  142.3820 C   0  0  0  0  0  3  0  0  0  0  0  0
  190.6110  177.3620  142.5770 C   0  0  0  0  0  0  0  0  0  0  0  0
  190.8450  176.9790  145.0220 C   0  0  0  0  0  3  0  0  0  0  0  0
  186.3790  178.0800  143.1610 C   0  0  0  0  0  3  0  0  0  0  0  0
  186.7840  177.6460  145.7450 O   0  0  0  0  0  1  0  0  0  0  0  0
  188.6380  177.5180  144.1380 C   0  0  0  0  0  0  0  0  0  0  0  0
  190.3470  176.8930  146.3230 C   0  0  0  0  0  0  0  0  0  0  0  0
  181.3430  180.5270  138.9610 C   0  0  0  0  0  0  0  0  0  0  0  0
  181.7260  179.4250  139.7950 N   0  0  0  0  0  2  0  0  0  0  0  0
  179.9820  180.6690  138.5760 N   0  0  0  0  0  1  0  0  0  0  0  0
  182.1880  181.3710  138.5650 O   0  0  0  0  0  0  0  0  0  0  0  0
  191.2830  176.5630  147.4220 C   0  0  0  0  0  0  0  0  0  0  0  0
  191.7020  177.5340  148.3240 O   0  0  0  0  0  1  0  0  0  0  0  0
  191.7150  175.3870  147.5540 O   0  0  0  0  0  0  0  0  0  0  0  0
  1  9  1  0  0  0  0
  1 18  2  0  0  0  0
  2 22  1  0  0  0  0
  2 24  1  0  0  0  0
  3 10  2  0  0  0  0
  3  4  1  0  0  0  0
  4 19  2  0  0  0  0
  5 23  1  0  0  0  0
  5  6  1  0  0  0  0
  6 16  1  0  0  0  0
  7 17  1  0  0  0  0
  7 22  2  0  0  0  0
  8 15  1  0  0  0  0
  8 11  2  0  0  0  0
  9 15  2  0  0  0  0
 10 12  1  0  0  0  0
 11  2  1  0  0  0  0
 12 11  1  0  0  0  0
 12 20  2  0  0  0  0
 13 24  1  0  0  0  0
 13 21  2  0  0  0  0
 14 17  2  0  0  0  0
 15  7  1  0  0  0  0
 18 14  1  0  0  0  0
 19 20  1  0  0  0  0
 20 13  1  0  0  0  0
 21 25  1  0  0  0  0
 24  5  2  0  0  0  0
 25  6  2  0  0  0  0
 25 30  1  0  0  0  0
 26 27  1  0  0  0  0
 27 18  1  0  0  0  0
 28 26  1  0  0  0  0
 29 26  2  0  0  0  0
 30 32  2  0  0  0  0
 30 31  1  0  0  0  0
M  END
>  <MODEL>
8

>  <REMARK>
 VINA RESULT:      -9.7      3.918      8.141
  Name = 
  2 active torsions:
  status: ('A' for Active; 'I' for Inactive)
    1  A    between atoms: N_10  and  C_24
    2  A    between atoms: C_11  and  C_32
                            x       y       z     vdW  Elec       q    Type
                         _______ _______ _______ _____ _____    ______ ____

>  <TORSDO>
F 2

$$$$
=
 OpenBabel10272413213D

 32 36  0  0  0  0  0  0  0  0999 V2000
  189.5630  177.5560  146.0500 C   0  0  0  0  0  3  0  0  0  0  0  0
  188.8740  177.5490  140.8030 N   0  0  0  0  0  0  0  0  0  0  0  0
  184.1840  179.1630  140.5580 C   0  0  0  0  0  3  0  0  0  0  0  0
  184.2300  179.0820  139.1670 C   0  0  0  0  0  3  0  0  0  0  0  0
  190.0680  177.0330  138.6400 C   0  0  0  0  0  0  0  0  0  0  0  0
  190.0670  176.9680  137.2400 C   0  0  0  0  0  0  0  0  0  0  0  0
  190.0260  177.2490  142.9340 C   0  0  0  0  0  0  0  0  0  0  0  0
  187.6390  178.0720  142.8100 C   0  0  0  0  0  3  0  0  0  0  0  0
  188.6400  177.8240  144.9430 C   0  0  0  0  0  3  0  0  0  0  0  0
  185.3040  178.8100  141.3130 C   0  0  0  0  0  3  0  0  0  0  0  0
  187.6740  177.9960  141.4740 C   0  0  0  0  0  0  0  0  0  0  0  0
  186.4830  178.3730  140.6840 C   0  0  0  0  0  0  0  0  0  0  0  0
  187.7660  177.8300  138.6030 C   0  0  0  0  0  0  0  0  0  0  0  0
  191.6070  176.7920  144.8570 C   0  0  0  0  0  3  0  0  0  0  0  0
  188.8020  177.7060  143.6280 C   0  0  0  0  0  0  0  0  0  0  0  0
  191.2180  176.5380  136.5870 O   0  0  0  0  0  1  0  0  0  0  0  0
  191.2810  176.8440  143.5710 C   0  0  0  0  0  3  0  0  0  0  0  0
  190.8240  177.1200  146.0540 C   0  0  0  0  0  0  0  0  0  0  0  0
  185.3960  178.6480  138.5330 C   0  0  0  0  0  3  0  0  0  0  0  0
  186.5310  178.2890  139.2820 C   0  0  0  0  0  0  0  0  0  0  0  0
  187.7900  177.7560  137.2060 C   0  0  0  0  0  3  0  0  0  0  0  0
  190.0200  177.1890  141.6010 C   0  0  0  0  0  3  0  0  0  0  0  0
  191.2330  176.6600  139.3040 O   0  0  0  0  0  1  0  0  0  0  0  0
  188.9130  177.4670  139.3500 C   0  0  0  0  0  0  0  0  0  0  0  0
  188.9220  177.3300  136.5100 C   0  0  0  0  0  0  0  0  0  0  0  0
  192.4270  175.8980  147.6600 C   0  0  0  0  0  0  0  0  0  0  0  0
  191.5080  176.9400  147.3030 N   0  0  0  0  0  2  0  0  0  0  0  0
  193.0050  175.8940  148.9590 N   0  0  0  0  0  1  0  0  0  0  0  0
  192.7310  174.9870  146.8470 O   0  0  0  0  0  0  0  0  0  0  0  0
  188.8710  177.2780  135.0310 C   0  0  0  0  0  0  0  0  0  0  0  0
  187.8820  176.5580  134.3710 O   0  0  0  0  0  1  0  0  0  0  0  0
  189.7320  177.8920  134.3460 O   0  0  0  0  0  0  0  0  0  0  0  0
  1 18  2  0  0  0  0
  2 11  1  0  0  0  0
  2 22  1  0  0  0  0
  3 10  1  0  0  0  0
  4  3  2  0  0  0  0
  5 23  1  0  0  0  0
  5 24  1  0  0  0  0
  6  5  2  0  0  0  0
  7 17  1  0  0  0  0
  7 15  1  0  0  0  0
  8 15  1  0  0  0  0
  9  1  1  0  0  0  0
 11  8  2  0  0  0  0
 12 10  2  0  0  0  0
 12 11  1  0  0  0  0
 13 20  1  0  0  0  0
 13 24  2  0  0  0  0
 14 18  1  0  0  0  0
 15  9  2  0  0  0  0
 16  6  1  0  0  0  0
 17 14  2  0  0  0  0
 18 27  1  0  0  0  0
 19  4  1  0  0  0  0
 19 20  2  0  0  0  0
 20 12  1  0  0  0  0
 21 13  1  0  0  0  0
 22  7  2  0  0  0  0
 24  2  1  0  0  0  0
 25 21  2  0  0  0  0
 25  6  1  0  0  0  0
 26 28  1  0  0  0  0
 27 26  1  0  0  0  0
 29 26  2  0  0  0  0
 30 25  1  0  0  0  0
 31 30  1  0  0  0  0
 32 30  2  0  0  0  0
M  END
>  <MODEL>
9

>  <REMARK>
 VINA RESULT:      -9.3      4.309      7.404
  Name = 
  2 active torsions:
  status: ('A' for Active; 'I' for Inactive)
    1  A    between atoms: N_10  and  C_24
    2  A    between atoms: C_11  and  C_32
                            x       y       z     vdW  Elec       q    Type
                         _______ _______ _______ _____ _____    ______ ____

>  <TORSDO>
F 2

$$$$
