=
 OpenBabel10272414163D

 43 49  0  0  1  0  0  0  0  0999 V2000
  191.3560  176.7210  147.1720 C   0  0  0  0  0  0  0  0  0  0  0  0
  187.3560  177.6820  144.2660 C   0  0  0  0  0  0  0  0  0  0  0  0
  188.2450  177.6440  141.5080 C   0  0  1  0  0  3  0  0  0  0  0  0
  189.1200  177.1550  146.3540 C   0  0  0  0  0  0  0  0  0  0  0  0
  191.8490  176.7900  145.8650 C   0  0  0  0  0  3  0  0  0  0  0  0
  192.2210  176.4720  148.2270 O   0  0  0  0  0  1  0  0  0  0  0  0
  189.6120  177.2270  145.0320 C   0  0  0  0  0  0  0  0  0  0  0  0
  189.9910  176.9030  147.4160 C   0  0  0  0  0  3  0  0  0  0  0  0
  190.9810  177.0410  144.7980 C   0  0  0  0  0  3  0  0  0  0  0  0
  189.1820  177.5580  142.6250 N   0  0  0  0  0  2  0  0  0  0  0  0
  188.7200  177.4760  143.9780 C   0  0  0  0  0  0  0  0  0  0  0  0
  186.9140  177.5850  145.5510 N   0  0  0  0  0  0  0  0  0  0  0  0
  186.3720  177.9230  143.1470 C   0  0  2  0  0  3  0  0  0  0  0  0
  187.0590  178.5180  141.9140 C   0  0  0  0  0  2  0  0  0  0  0  0
  187.7570  177.3330  146.5870 C   0  0  0  0  0  3  0  0  0  0  0  0
  188.9420  178.2070  140.2690 C   0  0  1  0  0  3  0  0  0  0  0  0
  190.2580  177.4910  140.0280 C   0  0  0  0  0  2  0  0  0  0  0  0
  188.1200  177.9200  139.0300 C   0  0  0  0  0  2  0  0  0  0  0  0
  190.0250  176.4640  139.0250 N   0  0  0  0  0  0  0  0  0  0  0  0
  188.9620  176.9890  138.1820 C   0  0  0  0  0  2  0  0  0  0  0  0
  191.2250  176.3900  138.2080 C   0  0  0  0  0  2  0  0  0  0  0  0
  191.0540  175.3330  137.1210 C   0  0  2  0  0  3  0  0  0  0  0  0
  192.2940  174.0860  135.6230 O   0  0  0  0  0  0  0  0  0  0  0  0
  191.1640  174.0570  137.6540 O   0  0  0  0  0  0  0  0  0  0  0  0
  192.0890  175.4060  136.0300 C   0  0  1  0  0  0  0  0  0  0  0  0
  191.5430  176.2340  134.8780 C   0  0  0  0  0  1  0  0  0  0  0  0
  191.6340  173.2870  136.5780 C   0  0  0  0  0  2  0  0  0  0  0  0
  193.3190  175.9610  136.5170 O   0  0  0  0  0  0  0  0  0  0  0  0
  194.4730  175.2220  136.8170 C   0  0  0  0  0  0  0  0  0  0  0  0
  196.6300  174.2760  136.2140 C   0  0  0  0  0  3  0  0  0  0  0  0
  195.7380  173.9290  138.4370 C   0  0  0  0  0  3  0  0  0  0  0  0
  196.7510  173.7320  137.4950 C   0  0  0  0  0  3  0  0  0  0  0  0
  194.6030  174.6730  138.0980 C   0  0  0  0  0  3  0  0  0  0  0  0
  195.4950  175.0190  135.8750 C   0  0  0  0  0  3  0  0  0  0  0  0
  185.3070  178.8170  143.5900 N   0  0  0  0  0  2  0  0  0  0  0  0
  181.5770  179.0480  143.3630 C   0  0  0  0  0  3  0  0  0  0  0  0
  181.3770  178.6930  142.0250 C   0  0  0  0  0  0  0  0  0  0  0  0
  183.7660  178.4130  141.7440 C   0  0  0  0  0  3  0  0  0  0  0  0
  182.8710  179.0920  143.8880 C   0  0  0  0  0  3  0  0  0  0  0  0
  183.9730  178.7730  143.0790 C   0  0  0  0  0  0  0  0  0  0  0  0
  182.4710  178.3690  141.2180 C   0  0  0  0  0  3  0  0  0  0  0  0
  179.9820  179.1330  140.1750 O   0  0  0  0  0  1  0  0  0  0  0  0
  179.9980  178.6230  141.4730 C   0  0  0  0  0  2  0  0  0  0  0  0
  1  8  1  0  0  0  0
  1  6  1  0  0  0  0
  2 12  1  0  0  0  0
  3 14  1  1  0  0  0
  3 10  1  0  0  0  0
  4 15  1  0  0  0  0
  4  8  2  0  0  0  0
  5  1  2  0  0  0  0
  7  4  1  0  0  0  0
  9  7  2  0  0  0  0
  9  5  1  0  0  0  0
 10 11  1  0  0  0  0
 11  2  2  0  0  0  0
 11  7  1  0  0  0  0
 12 15  2  0  0  0  0
 13 35  1  1  0  0  0
 13  2  1  0  0  0  0
 14 13  1  0  0  0  0
 16 18  1  6  0  0  0
 16  3  1  0  0  0  0
 17 16  1  0  0  0  0
 19 17  1  0  0  0  0
 20 19  1  0  0  0  0
 20 18  1  0  0  0  0
 21 19  1  0  0  0  0
 22 24  1  0  0  0  0
 22 21  1  1  0  0  0
 23 25  1  0  0  0  0
 23 27  1  0  0  0  0
 25 26  1  6  0  0  0
 25 28  1  0  0  0  0
 25 22  1  0  0  0  0
 27 24  1  0  0  0  0
 28 29  1  0  0  0  0
 29 33  1  0  0  0  0
 30 32  2  0  0  0  0
 32 31  1  0  0  0  0
 33 31  2  0  0  0  0
 34 30  1  0  0  0  0
 34 29  2  0  0  0  0
 36 39  1  0  0  0  0
 37 36  2  0  0  0  0
 38 40  1  0  0  0  0
 40 35  1  0  0  0  0
 40 39  2  0  0  0  0
 41 38  2  0  0  0  0
 41 37  1  0  0  0  0
 42 43  1  0  0  0  0
 43 37  1  0  0  0  0
M  END
>  <MODEL>
1

>  <REMARK>
 VINA RESULT:     -10.3      0.000      0.000
  Name = 
  8 active torsions:
  status: ('A' for Active; 'I' for Inactive)
    1  A    between atoms: N_1  and  C_34
    2  A    between atoms: N_1  and  C_35
    3  A    between atoms: C_2  and  C_13
    4  A    between atoms: C_3  and  C_4
    5  A    between atoms: C_3  and  N_12
    6  A    between atoms: C_11  and  O_14
    7  A    between atoms: O_14  and  C_22
    8  A    between atoms: C_19  and  C_37
                            x       y       z     vdW  Elec       q    Type
                         _______ _______ _______ _____ _____    ______ ____

>  <TORSDO>
F 8

$$$$
=
 OpenBabel10272414163D

 43 49  0  0  1  0  0  0  0  0999 V2000
  182.0000  179.2520  139.9730 C   0  0  0  0  0  0  0  0  0  0  0  0
  186.4190  178.1710  142.1340 C   0  0  0  0  0  0  0  0  0  0  0  0
  188.5020  178.7350  140.2000 C   0  0  1  0  0  3  0  0  0  0  0  0
  183.7390  178.6310  141.5370 C   0  0  0  0  0  0  0  0  0  0  0  0
  182.9620  179.4440  138.9760 C   0  0  0  0  0  3  0  0  0  0  0  0
  180.6580  179.4640  139.6920 O   0  0  0  0  0  1  0  0  0  0  0  0
  184.7150  178.8230  140.5350 C   0  0  0  0  0  0  0  0  0  0  0  0
  182.3890  178.8470  141.2540 C   0  0  0  0  0  3  0  0  0  0  0  0
  184.3150  179.2310  139.2550 C   0  0  0  0  0  3  0  0  0  0  0  0
  187.0860  178.7880  139.8490 N   0  0  0  0  0  2  0  0  0  0  0  0
  186.0670  178.6060  140.8400 C   0  0  0  0  0  0  0  0  0  0  0  0
  185.4520  178.0170  143.0820 N   0  0  0  0  0  0  0  0  0  0  0  0
  187.8690  177.9590  142.4960 C   0  0  2  0  0  3  0  0  0  0  0  0
  188.7180  177.6530  141.2580 C   0  0  0  0  0  2  0  0  0  0  0  0
  184.1370  178.2310  142.8120 C   0  0  0  0  0  3  0  0  0  0  0  0
  189.3500  178.4620  138.9570 C   0  0  1  0  0  3  0  0  0  0  0  0
  190.0180  177.1040  139.0570 C   0  0  0  0  0  2  0  0  0  0  0  0
  188.4640  178.3610  137.7320 C   0  0  0  0  0  2  0  0  0  0  0  0
  189.2080  176.1560  138.3090 N   0  0  0  0  0  0  0  0  0  0  0  0
  188.6000  176.9340  137.2420 C   0  0  0  0  0  2  0  0  0  0  0  0
  190.1240  175.2150  137.6870 C   0  0  0  0  0  2  0  0  0  0  0  0
  191.1140  175.9590  136.7950 C   0  0  2  0  0  3  0  0  0  0  0  0
  193.2010  175.7100  135.8360 O   0  0  0  0  0  0  0  0  0  0  0  0
  190.9080  175.6420  135.4600 O   0  0  0  0  0  0  0  0  0  0  0  0
  192.5560  175.6250  137.0710 C   0  0  1  0  0  0  0  0  0  0  0  0
  193.1300  176.6510  138.0360 C   0  0  0  0  0  1  0  0  0  0  0  0
  192.1740  175.8180  134.8780 C   0  0  0  0  0  2  0  0  0  0  0  0
  192.6910  174.2990  137.6010 O   0  0  0  0  0  0  0  0  0  0  0  0
  193.8350  173.4970  137.4840 C   0  0  0  0  0  0  0  0  0  0  0  0
  196.1140  172.9120  138.0960 C   0  0  0  0  0  3  0  0  0  0  0  0
  194.9370  171.6060  136.4330 C   0  0  0  0  0  3  0  0  0  0  0  0
  196.0860  171.8470  137.1920 C   0  0  0  0  0  3  0  0  0  0  0  0
  193.8160  172.4280  136.5800 C   0  0  0  0  0  3  0  0  0  0  0  0
  194.9930  173.7350  138.2420 C   0  0  0  0  0  3  0  0  0  0  0  0
  187.9990  176.8700  143.4580 N   0  0  0  0  0  2  0  0  0  0  0  0
  189.3600  177.2380  146.9270 C   0  0  0  0  0  3  0  0  0  0  0  0
  190.7030  176.9150  146.7130 C   0  0  0  0  0  0  0  0  0  0  0  0
  190.2470  176.5800  144.3580 C   0  0  0  0  0  3  0  0  0  0  0  0
  188.4600  177.2250  145.8580 C   0  0  0  0  0  3  0  0  0  0  0  0
  188.9010  176.8960  144.5670 C   0  0  0  0  0  0  0  0  0  0  0  0
  191.1480  176.5930  145.4270 C   0  0  0  0  0  3  0  0  0  0  0  0
  192.5980  175.9240  147.7070 O   0  0  0  0  0  1  0  0  0  0  0  0
  191.6670  176.9520  147.8460 C   0  0  0  0  0  2  0  0  0  0  0  0
  1  8  1  0  0  0  0
  2 13  1  0  0  0  0
  2 12  1  0  0  0  0
  3 14  1  1  0  0  0
  4 15  1  0  0  0  0
  5  9  1  0  0  0  0
  5  1  2  0  0  0  0
  6  1  1  0  0  0  0
  7 11  1  0  0  0  0
  7  4  1  0  0  0  0
  8  4  2  0  0  0  0
  9  7  2  0  0  0  0
 10  3  1  0  0  0  0
 10 11  1  0  0  0  0
 11  2  2  0  0  0  0
 13 35  1  1  0  0  0
 14 13  1  0  0  0  0
 15 12  2  0  0  0  0
 16 18  1  6  0  0  0
 16 17  1  0  0  0  0
 16  3  1  0  0  0  0
 19 17  1  0  0  0  0
 20 18  1  0  0  0  0
 20 19  1  0  0  0  0
 21 19  1  0  0  0  0
 22 25  1  0  0  0  0
 22 21  1  1  0  0  0
 23 25  1  0  0  0  0
 24 22  1  0  0  0  0
 25 28  1  0  0  0  0
 25 26  1  1  0  0  0
 27 24  1  0  0  0  0
 27 23  1  0  0  0  0
 29 28  1  0  0  0  0
 29 34  1  0  0  0  0
 30 34  2  0  0  0  0
 31 33  1  0  0  0  0
 31 32  2  0  0  0  0
 32 30  1  0  0  0  0
 33 29  2  0  0  0  0
 35 40  1  0  0  0  0
 37 36  1  0  0  0  0
 37 43  1  0  0  0  0
 38 40  2  0  0  0  0
 38 41  1  0  0  0  0
 39 36  2  0  0  0  0
 40 39  1  0  0  0  0
 41 37  2  0  0  0  0
 42 43  1  0  0  0  0
M  END
>  <MODEL>
2

>  <REMARK>
 VINA RESULT:      -9.3      1.463      6.416
  Name = 
  8 active torsions:
  status: ('A' for Active; 'I' for Inactive)
    1  A    between atoms: N_1  and  C_34
    2  A    between atoms: N_1  and  C_35
    3  A    between atoms: C_2  and  C_13
    4  A    between atoms: C_3  and  C_4
    5  A    between atoms: C_3  and  N_12
    6  A    between atoms: C_11  and  O_14
    7  A    between atoms: O_14  and  C_22
    8  A    between atoms: C_19  and  C_37
                            x       y       z     vdW  Elec       q    Type
                         _______ _______ _______ _____ _____    ______ ____

>  <TORSDO>
F 8

$$$$
=
 OpenBabel10272414163D

 43 49  0  0  1  0  0  0  0  0999 V2000
  191.3220  176.4560  146.6670 C   0  0  0  0  0  0  0  0  0  0  0  0
  188.0940  177.7570  143.0260 C   0  0  0  0  0  0  0  0  0  0  0  0
  189.3080  177.0640  140.4880 C   0  0  1  0  0  3  0  0  0  0  0  0
  189.3850  177.2190  145.4330 C   0  0  0  0  0  0  0  0  0  0  0  0
  191.9870  176.1950  145.4650 C   0  0  0  0  0  3  0  0  0  0  0  0
  191.9530  176.2060  147.8770 O   0  0  0  0  0  1  0  0  0  0  0  0
  190.0510  176.9590  144.2160 C   0  0  0  0  0  0  0  0  0  0  0  0
  190.0200  176.9660  146.6510 C   0  0  0  0  0  3  0  0  0  0  0  0
  191.3550  176.4450  144.2430 C   0  0  0  0  0  3  0  0  0  0  0  0
  190.0400  176.9660  141.7480 N   0  0  0  0  0  2  0  0  0  0  0  0
  189.3950  177.2150  143.0030 C   0  0  0  0  0  0  0  0  0  0  0  0
  187.4740  177.9750  144.2200 N   0  0  0  0  0  0  0  0  0  0  0  0
  187.3550  178.0130  141.7350 C   0  0  2  0  0  3  0  0  0  0  0  0
  188.3220  178.2290  140.5680 C   0  0  0  0  0  2  0  0  0  0  0  0
  188.0850  177.7240  145.4070 C   0  0  0  0  0  3  0  0  0  0  0  0
  190.2790  177.2460  139.3210 C   0  0  1  0  0  3  0  0  0  0  0  0
  191.1880  176.0390  139.1920 C   0  0  0  0  0  2  0  0  0  0  0  0
  189.5200  177.2930  138.0110 C   0  0  0  0  0  2  0  0  0  0  0  0
  190.6320  175.1750  138.1640 N   0  0  0  0  0  0  0  0  0  0  0  0
  189.9630  176.0700  137.2340 C   0  0  0  0  0  2  0  0  0  0  0  0
  191.7540  174.5810  137.4570 C   0  0  0  0  0  2  0  0  0  0  0  0
  192.9170  175.5680  137.3970 C   0  0  2  0  0  3  0  0  0  0  0  0
  195.0810  175.7420  136.6070 O   0  0  0  0  0  0  0  0  0  0  0  0
  192.8610  176.3240  136.2340 O   0  0  0  0  0  0  0  0  0  0  0  0
  194.2740  174.9140  137.3890 C   0  0  1  0  0  0  0  0  0  0  0  0
  194.8060  174.8520  138.8120 C   0  0  0  0  0  1  0  0  0  0  0  0
  194.2030  176.6560  135.9900 C   0  0  0  0  0  2  0  0  0  0  0  0
  194.2160  173.6030  136.8090 O   0  0  0  0  0  0  0  0  0  0  0  0
  195.2410  172.6480  136.8750 C   0  0  0  0  0  0  0  0  0  0  0  0
  196.1710  170.5550  137.6890 C   0  0  0  0  0  3  0  0  0  0  0  0
  197.4560  171.9410  136.1790 C   0  0  0  0  0  3  0  0  0  0  0  0
  197.3360  170.7840  136.9540 C   0  0  0  0  0  3  0  0  0  0  0  0
  196.4120  172.8700  136.1410 C   0  0  0  0  0  3  0  0  0  0  0  0
  195.1260  171.4840  137.6510 C   0  0  0  0  0  3  0  0  0  0  0  0
  186.4860  179.1770  141.8700 N   0  0  0  0  0  2  0  0  0  0  0  0
  183.3910  179.3970  143.9670 C   0  0  0  0  0  3  0  0  0  0  0  0
  182.4290  178.9540  143.0550 C   0  0  0  0  0  0  0  0  0  0  0  0
  184.1540  178.6530  141.3820 C   0  0  0  0  0  3  0  0  0  0  0  0
  184.7330  179.4740  143.5840 C   0  0  0  0  0  3  0  0  0  0  0  0
  185.1200  179.1010  142.2880 C   0  0  0  0  0  0  0  0  0  0  0  0
  182.8120  178.5760  141.7650 C   0  0  0  0  0  3  0  0  0  0  0  0
  180.2430  179.8010  142.7910 O   0  0  0  0  0  1  0  0  0  0  0  0
  181.0040  178.8490  143.4690 C   0  0  0  0  0  2  0  0  0  0  0  0
  1  6  1  0  0  0  0
  2 12  1  0  0  0  0
  3 14  1  1  0  0  0
  3 10  1  0  0  0  0
  4  8  2  0  0  0  0
  5  1  2  0  0  0  0
  7  9  2  0  0  0  0
  7  4  1  0  0  0  0
  8  1  1  0  0  0  0
  9  5  1  0  0  0  0
 10 11  1  0  0  0  0
 11  2  2  0  0  0  0
 11  7  1  0  0  0  0
 12 15  2  0  0  0  0
 13 35  1  1  0  0  0
 13  2  1  0  0  0  0
 14 13  1  0  0  0  0
 15  4  1  0  0  0  0
 16 18  1  6  0  0  0
 16  3  1  0  0  0  0
 17 16  1  0  0  0  0
 19 17  1  0  0  0  0
 20 18  1  0  0  0  0
 20 19  1  0  0  0  0
 21 19  1  0  0  0  0
 22 21  1  6  0  0  0
 23 25  1  0  0  0  0
 24 22  1  0  0  0  0
 25 22  1  0  0  0  0
 25 26  1  1  0  0  0
 27 24  1  0  0  0  0
 27 23  1  0  0  0  0
 28 29  1  0  0  0  0
 28 25  1  0  0  0  0
 29 34  1  0  0  0  0
 31 32  2  0  0  0  0
 32 30  1  0  0  0  0
 33 31  1  0  0  0  0
 33 29  2  0  0  0  0
 34 30  2  0  0  0  0
 35 40  1  0  0  0  0
 37 43  1  0  0  0  0
 37 36  2  0  0  0  0
 38 41  2  0  0  0  0
 38 40  1  0  0  0  0
 39 36  1  0  0  0  0
 40 39  2  0  0  0  0
 41 37  1  0  0  0  0
 42 43  1  0  0  0  0
M  END
>  <MODEL>
3

>  <REMARK>
 VINA RESULT:      -9.3      1.472      2.303
  Name = 
  8 active torsions:
  status: ('A' for Active; 'I' for Inactive)
    1  A    between atoms: N_1  and  C_34
    2  A    between atoms: N_1  and  C_35
    3  A    between atoms: C_2  and  C_13
    4  A    between atoms: C_3  and  C_4
    5  A    between atoms: C_3  and  N_12
    6  A    between atoms: C_11  and  O_14
    7  A    between atoms: O_14  and  C_22
    8  A    between atoms: C_19  and  C_37
                            x       y       z     vdW  Elec       q    Type
                         _______ _______ _______ _____ _____    ______ ____

>  <TORSDO>
F 8

$$$$
=
 OpenBabel10272414163D

 43 49  0  0  1  0  0  0  0  0999 V2000
  188.5000  177.5970  147.2630 C   0  0  0  0  0  0  0  0  0  0  0  0
  186.5210  178.2170  142.6730 C   0  0  0  0  0  0  0  0  0  0  0  0
  188.5130  177.3870  140.7390 C   0  0  1  0  0  3  0  0  0  0  0  0
  187.0130  178.0480  145.4080 C   0  0  0  0  0  0  0  0  0  0  0  0
  189.5250  177.2790  146.3660 C   0  0  0  0  0  3  0  0  0  0  0  0
  188.7290  177.5320  148.6290 O   0  0  0  0  0  1  0  0  0  0  0  0
  188.0430  177.7300  144.4980 C   0  0  0  0  0  0  0  0  0  0  0  0
  187.2430  177.9800  146.7840 C   0  0  0  0  0  3  0  0  0  0  0  0
  189.2990  177.3450  144.9880 C   0  0  0  0  0  3  0  0  0  0  0  0
  188.8130  177.4860  142.1650 N   0  0  0  0  0  2  0  0  0  0  0  0
  187.7910  177.7990  143.1200 C   0  0  0  0  0  0  0  0  0  0  0  0
  185.5440  178.4960  143.5810 N   0  0  0  0  0  0  0  0  0  0  0  0
  186.2150  178.2710  141.1960 C   0  0  2  0  0  3  0  0  0  0  0  0
  187.4880  178.4570  140.3650 C   0  0  0  0  0  2  0  0  0  0  0  0
  185.7620  178.4250  144.9210 C   0  0  0  0  0  3  0  0  0  0  0  0
  189.7910  177.5400  139.9140 C   0  0  1  0  0  3  0  0  0  0  0  0
  190.2700  176.1880  139.4200 C   0  0  0  0  0  2  0  0  0  0  0  0
  189.5080  178.3280  138.6520 C   0  0  0  0  0  2  0  0  0  0  0  0
  189.8000  176.0250  138.0540 N   0  0  0  0  0  0  0  0  0  0  0  0
  189.7530  177.3710  137.5040 C   0  0  0  0  0  2  0  0  0  0  0  0
  190.8350  175.3020  137.3330 C   0  0  0  0  0  2  0  0  0  0  0  0
  191.9950  176.2380  137.0060 C   0  0  2  0  0  3  0  0  0  0  0  0
  194.2990  176.2430  136.8350 O   0  0  0  0  0  0  0  0  0  0  0  0
  192.2990  176.1910  135.6520 O   0  0  0  0  0  0  0  0  0  0  0  0
  193.2770  175.8940  137.7190 C   0  0  1  0  0  0  0  0  0  0  0  0
  193.3770  176.7190  138.9920 C   0  0  0  0  0  1  0  0  0  0  0  0
  193.6640  176.5150  135.6070 C   0  0  0  0  0  2  0  0  0  0  0  0
  193.3470  174.4920  138.0150 O   0  0  0  0  0  0  0  0  0  0  0  0
  194.3710  173.6300  137.5950 C   0  0  0  0  0  0  0  0  0  0  0  0
  195.3140  172.0230  136.0330 C   0  0  0  0  0  3  0  0  0  0  0  0
  196.5690  172.6810  137.9950 C   0  0  0  0  0  3  0  0  0  0  0  0
  196.4630  171.9280  136.8220 C   0  0  0  0  0  3  0  0  0  0  0  0
  195.5260  173.5290  138.3790 C   0  0  0  0  0  3  0  0  0  0  0  0
  194.2700  172.8700  136.4180 C   0  0  0  0  0  3  0  0  0  0  0  0
  185.2830  179.3570  140.9100 N   0  0  0  0  0  2  0  0  0  0  0  0
  181.6410  178.5940  140.4950 C   0  0  0  0  0  3  0  0  0  0  0  0
  181.4870  178.8070  139.1210 C   0  0  0  0  0  0  0  0  0  0  0  0
  183.8370  179.3660  138.9460 C   0  0  0  0  0  3  0  0  0  0  0  0
  182.8910  178.7740  141.0930 C   0  0  0  0  0  3  0  0  0  0  0  0
  183.9960  179.1610  140.3200 C   0  0  0  0  0  0  0  0  0  0  0  0
  182.5870  179.1860  138.3460 C   0  0  0  0  0  3  0  0  0  0  0  0
  180.0920  179.3160  137.2890 O   0  0  0  0  0  1  0  0  0  0  0  0
  180.1630  178.5930  138.4790 C   0  0  0  0  0  2  0  0  0  0  0  0
  1  6  1  0  0  0  0
  2 11  2  0  0  0  0
  2 12  1  0  0  0  0
  3 14  1  6  0  0  0
  3 10  1  0  0  0  0
  4  8  2  0  0  0  0
  5  1  2  0  0  0  0
  7  9  2  0  0  0  0
  7  4  1  0  0  0  0
  8  1  1  0  0  0  0
  9  5  1  0  0  0  0
 10 11  1  0  0  0  0
 11  7  1  0  0  0  0
 12 15  2  0  0  0  0
 13 35  1  1  0  0  0
 13  2  1  0  0  0  0
 14 13  1  0  0  0  0
 15  4  1  0  0  0  0
 16 18  1  6  0  0  0
 16  3  1  0  0  0  0
 17 16  1  0  0  0  0
 19 17  1  0  0  0  0
 20 19  1  0  0  0  0
 20 18  1  0  0  0  0
 21 19  1  0  0  0  0
 22 21  1  6  0  0  0
 22 25  1  0  0  0  0
 23 25  1  0  0  0  0
 24 22  1  0  0  0  0
 25 28  1  0  0  0  0
 25 26  1  1  0  0  0
 27 24  1  0  0  0  0
 27 23  1  0  0  0  0
 29 28  1  0  0  0  0
 29 33  1  0  0  0  0
 30 34  1  0  0  0  0
 30 32  2  0  0  0  0
 31 33  2  0  0  0  0
 32 31  1  0  0  0  0
 34 29  2  0  0  0  0
 36 39  1  0  0  0  0
 37 36  2  0  0  0  0
 38 40  1  0  0  0  0
 40 35  1  0  0  0  0
 40 39  2  0  0  0  0
 41 38  2  0  0  0  0
 41 37  1  0  0  0  0
 42 43  1  0  0  0  0
 43 37  1  0  0  0  0
M  END
>  <MODEL>
4

>  <REMARK>
 VINA RESULT:      -9.0      1.716      2.428
  Name = 
  8 active torsions:
  status: ('A' for Active; 'I' for Inactive)
    1  A    between atoms: N_1  and  C_34
    2  A    between atoms: N_1  and  C_35
    3  A    between atoms: C_2  and  C_13
    4  A    between atoms: C_3  and  C_4
    5  A    between atoms: C_3  and  N_12
    6  A    between atoms: C_11  and  O_14
    7  A    between atoms: O_14  and  C_22
    8  A    between atoms: C_19  and  C_37
                            x       y       z     vdW  Elec       q    Type
                         _______ _______ _______ _____ _____    ______ ____

>  <TORSDO>
F 8

$$$$
=
 OpenBabel10272414163D

 43 49  0  0  1  0  0  0  0  0999 V2000
  182.2690  179.2780  140.7530 C   0  0  0  0  0  0  0  0  0  0  0  0
  186.9540  177.9580  142.0470 C   0  0  0  0  0  0  0  0  0  0  0  0
  188.6620  178.4220  139.7520 C   0  0  1  0  0  3  0  0  0  0  0  0
  184.2380  178.5610  141.9640 C   0  0  0  0  0  0  0  0  0  0  0  0
  183.0350  179.4250  139.5910 C   0  0  0  0  0  3  0  0  0  0  0  0
  180.9120  179.5600  140.7280 O   0  0  0  0  0  1  0  0  0  0  0  0
  185.0160  178.7050  140.7950 C   0  0  0  0  0  0  0  0  0  0  0  0
  182.8720  178.8470  141.9390 C   0  0  0  0  0  3  0  0  0  0  0  0
  184.4040  179.1400  139.6110 C   0  0  0  0  0  3  0  0  0  0  0  0
  187.2100  178.5510  139.6740 N   0  0  0  0  0  2  0  0  0  0  0  0
  186.3880  178.4180  140.8410 C   0  0  0  0  0  0  0  0  0  0  0  0
  186.1770  177.8510  143.1610 N   0  0  0  0  0  0  0  0  0  0  0  0
  188.4340  177.6700  142.1300 C   0  0  2  0  0  3  0  0  0  0  0  0
  189.0170  177.3260  140.7560 C   0  0  0  0  0  2  0  0  0  0  0  0
  184.8480  178.1350  143.1430 C   0  0  0  0  0  3  0  0  0  0  0  0
  189.2450  178.1110  138.3730 C   0  0  1  0  0  3  0  0  0  0  0  0
  188.6680  176.8170  137.8320 C   0  0  0  0  0  2  0  0  0  0  0  0
  188.8160  179.1660  137.3740 C   0  0  0  0  0  2  0  0  0  0  0  0
  187.5800  177.1600  136.9310 N   0  0  0  0  0  0  0  0  0  0  0  0
  187.9480  178.4470  136.3620 C   0  0  0  0  0  2  0  0  0  0  0  0
  187.6030  176.1890  135.8500 C   0  0  0  0  0  2  0  0  0  0  0  0
  188.9410  175.4570  135.8320 C   0  0  2  0  0  3  0  0  0  0  0  0
  189.9830  173.6500  134.8380 O   0  0  0  0  0  0  0  0  0  0  0  0
  189.7670  175.9640  134.8380 O   0  0  0  0  0  0  0  0  0  0  0  0
  188.8280  173.9820  135.5470 C   0  0  1  0  0  0  0  0  0  0  0  0
  188.7820  173.2220  136.8640 C   0  0  0  0  0  1  0  0  0  0  0  0
  190.5890  174.8770  134.5020 C   0  0  0  0  0  2  0  0  0  0  0  0
  187.6680  173.6940  134.7530 O   0  0  0  0  0  0  0  0  0  0  0  0
  186.7380  172.6800  135.0250 C   0  0  0  0  0  0  0  0  0  0  0  0
  184.6530  171.8880  135.9930 C   0  0  0  0  0  3  0  0  0  0  0  0
  186.1000  170.3480  134.8150 C   0  0  0  0  0  3  0  0  0  0  0  0
  184.9260  170.5990  135.5290 C   0  0  0  0  0  3  0  0  0  0  0  0
  187.0030  171.3860  134.5650 C   0  0  0  0  0  3  0  0  0  0  0  0
  185.5560  172.9260  135.7430 C   0  0  0  0  0  3  0  0  0  0  0  0
  188.6860  176.5710  143.0560 N   0  0  0  0  0  2  0  0  0  0  0  0
  191.5840  176.6310  145.4270 C   0  0  0  0  0  3  0  0  0  0  0  0
  190.9400  176.9970  146.6130 C   0  0  0  0  0  0  0  0  0  0  0  0
  188.8210  177.0630  145.4410 C   0  0  0  0  0  3  0  0  0  0  0  0
  190.8470  176.4890  144.2480 C   0  0  0  0  0  3  0  0  0  0  0  0
  189.4610  176.7040  144.2510 C   0  0  0  0  0  0  0  0  0  0  0  0
  189.5580  177.2060  146.6210 C   0  0  0  0  0  3  0  0  0  0  0  0
  192.6180  176.0650  147.9820 O   0  0  0  0  0  1  0  0  0  0  0  0
  191.7190  177.1240  147.8730 C   0  0  0  0  0  2  0  0  0  0  0  0
  1  8  1  0  0  0  0
  2 13  1  0  0  0  0
  2 12  1  0  0  0  0
  3 14  1  1  0  0  0
  4 15  1  0  0  0  0
  5  9  1  0  0  0  0
  5  1  2  0  0  0  0
  6  1  1  0  0  0  0
  7 11  1  0  0  0  0
  7  4  1  0  0  0  0
  8  4  2  0  0  0  0
  9  7  2  0  0  0  0
 10  3  1  0  0  0  0
 10 11  1  0  0  0  0
 11  2  2  0  0  0  0
 13 35  1  1  0  0  0
 14 13  1  0  0  0  0
 15 12  2  0  0  0  0
 16 18  1  6  0  0  0
 16  3  1  0  0  0  0
 17 16  1  0  0  0  0
 19 17  1  0  0  0  0
 20 19  1  0  0  0  0
 20 18  1  0  0  0  0
 21 19  1  0  0  0  0
 22 21  1  6  0  0  0
 23 25  1  0  0  0  0
 24 22  1  0  0  0  0
 25 22  1  0  0  0  0
 25 26  1  1  0  0  0
 27 23  1  0  0  0  0
 27 24  1  0  0  0  0
 28 29  1  0  0  0  0
 28 25  1  0  0  0  0
 29 34  1  0  0  0  0
 31 32  2  0  0  0  0
 32 30  1  0  0  0  0
 33 31  1  0  0  0  0
 33 29  2  0  0  0  0
 34 30  2  0  0  0  0
 35 40  1  0  0  0  0
 36 37  1  0  0  0  0
 37 41  2  0  0  0  0
 37 43  1  0  0  0  0
 38 41  1  0  0  0  0
 39 40  1  0  0  0  0
 39 36  2  0  0  0  0
 40 38  2  0  0  0  0
 43 42  1  0  0  0  0
M  END
>  <MODEL>
5

>  <REMARK>
 VINA RESULT:      -8.8      2.941      7.606
  Name = 
  8 active torsions:
  status: ('A' for Active; 'I' for Inactive)
    1  A    between atoms: N_1  and  C_34
    2  A    between atoms: N_1  and  C_35
    3  A    between atoms: C_2  and  C_13
    4  A    between atoms: C_3  and  C_4
    5  A    between atoms: C_3  and  N_12
    6  A    between atoms: C_11  and  O_14
    7  A    between atoms: O_14  and  C_22
    8  A    between atoms: C_19  and  C_37
                            x       y       z     vdW  Elec       q    Type
                         _______ _______ _______ _____ _____    ______ ____

>  <TORSDO>
F 8

$$$$
=
 OpenBabel10272414163D

 43 49  0  0  1  0  0  0  0  0999 V2000
  190.3370  176.6230  135.5460 C   0  0  0  0  0  0  0  0  0  0  0  0
  189.2310  177.5520  140.3710 C   0  0  0  0  0  0  0  0  0  0  0  0
  186.4220  178.2470  140.5100 C   0  0  1  0  0  3  0  0  0  0  0  0
  190.4270  176.8690  137.9520 C   0  0  0  0  0  0  0  0  0  0  0  0
  189.0040  177.0470  135.5510 C   0  0  0  0  0  3  0  0  0  0  0  0
  190.9540  176.2900  134.3490 O   0  0  0  0  0  1  0  0  0  0  0  0
  189.0830  177.2990  137.9640 C   0  0  0  0  0  0  0  0  0  0  0  0
  191.0470  176.5320  136.7470 C   0  0  0  0  0  3  0  0  0  0  0  0
  188.3780  177.3840  136.7550 C   0  0  0  0  0  3  0  0  0  0  0  0
  187.1130  178.0700  139.2360 N   0  0  0  0  0  2  0  0  0  0  0  0
  188.4750  177.6280  139.1840 C   0  0  0  0  0  0  0  0  0  0  0  0
  190.5210  177.1130  140.3240 N   0  0  0  0  0  0  0  0  0  0  0  0
  188.5930  177.8720  141.7010 C   0  0  2  0  0  3  0  0  0  0  0  0
  187.3990  178.8180  141.5370 C   0  0  0  0  0  2  0  0  0  0  0  0
  191.1270  176.7780  139.1550 C   0  0  0  0  0  3  0  0  0  0  0  0
  185.2110  179.1650  140.3360 C   0  0  1  0  0  3  0  0  0  0  0  0
  184.5660  178.9430  138.9820 C   0  0  0  0  0  2  0  0  0  0  0  0
  184.1330  178.8040  141.3370 C   0  0  0  0  0  2  0  0  0  0  0  0
  183.4400  178.0420  139.1710 N   0  0  0  0  0  0  0  0  0  0  0  0
  182.9580  178.3130  140.5160 C   0  0  0  0  0  2  0  0  0  0  0  0
  182.4000  178.4640  138.2480 C   0  0  0  0  0  2  0  0  0  0  0  0
  181.6700  177.2460  137.6900 C   0  0  2  0  0  3  0  0  0  0  0  0
  182.0510  175.3550  136.4190 O   0  0  0  0  0  0  0  0  0  0  0  0
  181.7500  176.1770  138.5720 O   0  0  0  0  0  0  0  0  0  0  0  0
  182.2350  176.7380  136.3890 C   0  0  1  0  0  0  0  0  0  0  0  0
  181.4550  177.3480  135.2350 C   0  0  0  0  0  1  0  0  0  0  0  0
  181.6600  175.0510  137.7380 C   0  0  0  0  0  2  0  0  0  0  0  0
  183.6320  177.0420  136.2750 O   0  0  0  0  0  0  0  0  0  0  0  0
  184.6460  176.0980  136.0590 C   0  0  0  0  0  0  0  0  0  0  0  0
  186.0920  174.8030  134.5950 C   0  0  0  0  0  3  0  0  0  0  0  0
  186.2570  174.5420  136.9950 C   0  0  0  0  0  3  0  0  0  0  0  0
  186.6820  174.1990  135.7090 C   0  0  0  0  0  3  0  0  0  0  0  0
  185.2430  175.4880  137.1690 C   0  0  0  0  0  3  0  0  0  0  0  0
  185.0770  175.7490  134.7690 C   0  0  0  0  0  3  0  0  0  0  0  0
  189.5700  178.4720  142.6030 N   0  0  0  0  0  2  0  0  0  0  0  0
  189.5620  177.3760  146.1830 C   0  0  0  0  0  3  0  0  0  0  0  0
  190.7820  176.6970  146.2480 C   0  0  0  0  0  0  0  0  0  0  0  0
  191.1910  177.2080  143.9170 C   0  0  0  0  0  3  0  0  0  0  0  0
  189.1540  177.9650  144.9830 C   0  0  0  0  0  3  0  0  0  0  0  0
  189.9680  177.8830  143.8440 C   0  0  0  0  0  0  0  0  0  0  0  0
  191.5990  176.6190  145.1170 C   0  0  0  0  0  3  0  0  0  0  0  0
  192.6020  176.2710  147.6860 O   0  0  0  0  0  1  0  0  0  0  0  0
  191.2290  176.0910  147.5310 C   0  0  0  0  0  2  0  0  0  0  0  0
  1  5  2  0  0  0  0
  1  8  1  0  0  0  0
  2 13  1  0  0  0  0
  3 14  1  1  0  0  0
  4  7  1  0  0  0  0
  4 15  1  0  0  0  0
  5  9  1  0  0  0  0
  6  1  1  0  0  0  0
  7 11  1  0  0  0  0
  8  4  2  0  0  0  0
  9  7  2  0  0  0  0
 10  3  1  0  0  0  0
 11 10  1  0  0  0  0
 11  2  2  0  0  0  0
 12  2  1  0  0  0  0
 13 35  1  1  0  0  0
 14 13  1  0  0  0  0
 15 12  2  0  0  0  0
 16 17  1  6  0  0  0
 16  3  1  0  0  0  0
 16 18  1  0  0  0  0
 17 19  1  0  0  0  0
 19 20  1  0  0  0  0
 20 18  1  0  0  0  0
 21 19  1  0  0  0  0
 22 21  1  1  0  0  0
 22 24  1  0  0  0  0
 23 27  1  0  0  0  0
 25 26  1  6  0  0  0
 25 23  1  0  0  0  0
 25 22  1  0  0  0  0
 27 24  1  0  0  0  0
 28 25  1  0  0  0  0
 29 28  1  0  0  0  0
 29 33  1  0  0  0  0
 30 34  1  0  0  0  0
 30 32  2  0  0  0  0
 31 33  2  0  0  0  0
 32 31  1  0  0  0  0
 34 29  2  0  0  0  0
 35 40  1  0  0  0  0
 36 37  1  0  0  0  0
 37 43  1  0  0  0  0
 38 41  1  0  0  0  0
 39 36  2  0  0  0  0
 40 38  2  0  0  0  0
 40 39  1  0  0  0  0
 41 37  2  0  0  0  0
 43 42  1  0  0  0  0
M  END
>  <MODEL>
6

>  <REMARK>
 VINA RESULT:      -8.8      3.073      8.783
  Name = 
  8 active torsions:
  status: ('A' for Active; 'I' for Inactive)
    1  A    between atoms: N_1  and  C_34
    2  A    between atoms: N_1  and  C_35
    3  A    between atoms: C_2  and  C_13
    4  A    between atoms: C_3  and  C_4
    5  A    between atoms: C_3  and  N_12
    6  A    between atoms: C_11  and  O_14
    7  A    between atoms: O_14  and  C_22
    8  A    between atoms: C_19  and  C_37
                            x       y       z     vdW  Elec       q    Type
                         _______ _______ _______ _____ _____    ______ ____

>  <TORSDO>
F 8

$$$$
=
 OpenBabel10272414163D

 43 49  0  0  1  0  0  0  0  0999 V2000
  182.3520  179.2540  140.7660 C   0  0  0  0  0  0  0  0  0  0  0  0
  187.1070  177.9460  141.7890 C   0  0  0  0  0  0  0  0  0  0  0  0
  188.7010  178.5220  139.4390 C   0  0  1  0  0  3  0  0  0  0  0  0
  184.3830  178.5150  141.8550 C   0  0  0  0  0  0  0  0  0  0  0  0
  183.0620  179.4560  139.5770 C   0  0  0  0  0  3  0  0  0  0  0  0
  180.9920  179.5190  140.8150 O   0  0  0  0  0  1  0  0  0  0  0  0
  185.1040  178.7160  140.6590 C   0  0  0  0  0  0  0  0  0  0  0  0
  183.0140  178.7850  141.9050 C   0  0  0  0  0  3  0  0  0  0  0  0
  184.4330  179.1890  139.5230 C   0  0  0  0  0  3  0  0  0  0  0  0
  187.2450  178.6350  139.4330 N   0  0  0  0  0  2  0  0  0  0  0  0
  186.4800  178.4450  140.6300 C   0  0  0  0  0  0  0  0  0  0  0  0
  186.3830  177.7840  142.9330 N   0  0  0  0  0  0  0  0  0  0  0  0
  188.5920  177.6740  141.7930 C   0  0  2  0  0  3  0  0  0  0  0  0
  189.1140  177.3920  140.3810 C   0  0  0  0  0  2  0  0  0  0  0  0
  185.0520  178.0510  142.9880 C   0  0  0  0  0  3  0  0  0  0  0  0
  189.2220  178.2730  138.0230 C   0  0  1  0  0  3  0  0  0  0  0  0
  189.3150  176.7850  137.7450 C   0  0  0  0  0  2  0  0  0  0  0  0
  188.2300  178.7900  137.0020 C   0  0  0  0  0  2  0  0  0  0  0  0
  188.1180  176.3960  137.0180 N   0  0  0  0  0  0  0  0  0  0  0  0
  187.7400  177.5710  136.2500 C   0  0  0  0  0  2  0  0  0  0  0  0
  188.5140  175.3700  136.0680 C   0  0  0  0  0  2  0  0  0  0  0  0
  188.0630  173.9980  136.5610 C   0  0  2  0  0  3  0  0  0  0  0  0
  186.6090  172.2870  136.0160 O   0  0  0  0  0  0  0  0  0  0  0  0
  188.8240  172.9920  135.9810 O   0  0  0  0  0  0  0  0  0  0  0  0
  186.6330  173.6670  136.2230 C   0  0  1  0  0  0  0  0  0  0  0  0
  185.7440  174.0380  137.4000 C   0  0  0  0  0  1  0  0  0  0  0  0
  187.9590  171.8860  135.9710 C   0  0  0  0  0  2  0  0  0  0  0  0
  186.2090  174.3460  135.0320 O   0  0  0  0  0  0  0  0  0  0  0  0
  184.9200  174.8500  134.8080 C   0  0  0  0  0  0  0  0  0  0  0  0
  182.5520  174.5510  134.3460 C   0  0  0  0  0  3  0  0  0  0  0  0
  183.4590  176.7790  134.6090 C   0  0  0  0  0  3  0  0  0  0  0  0
  182.3710  175.9360  134.3680 C   0  0  0  0  0  3  0  0  0  0  0  0
  184.7290  176.2360  134.8280 C   0  0  0  0  0  3  0  0  0  0  0  0
  183.8220  174.0090  134.5640 C   0  0  0  0  0  3  0  0  0  0  0  0
  188.8990  176.5430  142.6620 N   0  0  0  0  0  2  0  0  0  0  0  0
  191.4470  176.5760  145.4060 C   0  0  0  0  0  3  0  0  0  0  0  0
  190.6550  176.9690  146.4890 C   0  0  0  0  0  0  0  0  0  0  0  0
  188.7180  177.0610  145.0380 C   0  0  0  0  0  3  0  0  0  0  0  0
  190.8750  176.4340  144.1380 C   0  0  0  0  0  3  0  0  0  0  0  0
  189.5060  176.6760  143.9500 C   0  0  0  0  0  0  0  0  0  0  0  0
  189.2890  177.2040  146.3060 C   0  0  0  0  0  3  0  0  0  0  0  0
  192.4330  176.3510  147.9090 O   0  0  0  0  0  1  0  0  0  0  0  0
  191.2570  177.0970  147.8430 C   0  0  0  0  0  2  0  0  0  0  0  0
  1  6  1  0  0  0  0
  1  8  1  0  0  0  0
  2 13  1  0  0  0  0
  2 12  1  0  0  0  0
  3 14  1  1  0  0  0
  4  8  2  0  0  0  0
  4 15  1  0  0  0  0
  5  1  2  0  0  0  0
  7  4  1  0  0  0  0
  9  5  1  0  0  0  0
  9  7  2  0  0  0  0
 10  3  1  0  0  0  0
 10 11  1  0  0  0  0
 11  7  1  0  0  0  0
 11  2  2  0  0  0  0
 12 15  2  0  0  0  0
 13 35  1  1  0  0  0
 14 13  1  0  0  0  0
 16 18  1  6  0  0  0
 16  3  1  0  0  0  0
 17 16  1  0  0  0  0
 19 17  1  0  0  0  0
 20 18  1  0  0  0  0
 20 19  1  0  0  0  0
 21 19  1  0  0  0  0
 22 21  1  6  0  0  0
 23 25  1  0  0  0  0
 24 22  1  0  0  0  0
 25 22  1  0  0  0  0
 25 26  1  1  0  0  0
 27 24  1  0  0  0  0
 27 23  1  0  0  0  0
 28 25  1  0  0  0  0
 29 33  1  0  0  0  0
 29 28  1  0  0  0  0
 30 32  2  0  0  0  0
 30 34  1  0  0  0  0
 31 33  2  0  0  0  0
 32 31  1  0  0  0  0
 34 29  2  0  0  0  0
 35 40  1  0  0  0  0
 36 37  1  0  0  0  0
 37 43  1  0  0  0  0
 38 41  1  0  0  0  0
 39 36  2  0  0  0  0
 40 39  1  0  0  0  0
 40 38  2  0  0  0  0
 41 37  2  0  0  0  0
 43 42  1  0  0  0  0
M  END
>  <MODEL>
7

>  <REMARK>
 VINA RESULT:      -8.8      3.319      8.082
  Name = 
  8 active torsions:
  status: ('A' for Active; 'I' for Inactive)
    1  A    between atoms: N_1  and  C_34
    2  A    between atoms: N_1  and  C_35
    3  A    between atoms: C_2  and  C_13
    4  A    between atoms: C_3  and  C_4
    5  A    between atoms: C_3  and  N_12
    6  A    between atoms: C_11  and  O_14
    7  A    between atoms: O_14  and  C_22
    8  A    between atoms: C_19  and  C_37
                            x       y       z     vdW  Elec       q    Type
                         _______ _______ _______ _____ _____    ______ ____

>  <TORSDO>
F 8

$$$$
=
 OpenBabel10272414163D

 43 49  0  0  1  0  0  0  0  0999 V2000
  182.3160  179.1640  140.4090 C   0  0  0  0  0  0  0  0  0  0  0  0
  187.0390  177.9710  141.6890 C   0  0  0  0  0  0  0  0  0  0  0  0
  188.7520  178.6430  139.4510 C   0  0  1  0  0  3  0  0  0  0  0  0
  184.3000  178.4610  141.6030 C   0  0  0  0  0  0  0  0  0  0  0  0
  183.0880  179.4130  139.2700 C   0  0  0  0  0  3  0  0  0  0  0  0
  180.9480  179.3900  140.3820 O   0  0  0  0  0  1  0  0  0  0  0  0
  185.0850  178.7080  140.4560 C   0  0  0  0  0  0  0  0  0  0  0  0
  182.9230  178.6900  141.5760 C   0  0  0  0  0  3  0  0  0  0  0  0
  184.4680  179.1860  139.2920 C   0  0  0  0  0  3  0  0  0  0  0  0
  187.2960  178.7140  139.3600 N   0  0  0  0  0  2  0  0  0  0  0  0
  186.4670  178.4770  140.5040 C   0  0  0  0  0  0  0  0  0  0  0  0
  186.2540  177.7640  142.7840 N   0  0  0  0  0  0  0  0  0  0  0  0
  188.5290  177.7420  141.7760 C   0  0  2  0  0  3  0  0  0  0  0  0
  189.1420  177.5050  140.3930 C   0  0  0  0  0  2  0  0  0  0  0  0
  184.9140  177.9920  142.7640 C   0  0  0  0  0  3  0  0  0  0  0  0
  189.3630  178.4400  138.0640 C   0  0  1  0  0  3  0  0  0  0  0  0
  189.4900  176.9620  137.7500 C   0  0  0  0  0  2  0  0  0  0  0  0
  188.4310  178.9770  136.9970 C   0  0  0  0  0  2  0  0  0  0  0  0
  188.3440  176.5820  136.9390 N   0  0  0  0  0  0  0  0  0  0  0  0
  188.0020  177.7750  136.1810 C   0  0  0  0  0  2  0  0  0  0  0  0
  188.8100  175.5870  135.9870 C   0  0  0  0  0  2  0  0  0  0  0  0
  187.9750  174.3160  136.1070 C   0  0  2  0  0  3  0  0  0  0  0  0
  187.9020  172.3230  137.2730 O   0  0  0  0  0  0  0  0  0  0  0  0
  187.0010  174.4570  137.0860 O   0  0  0  0  0  0  0  0  0  0  0  0
  188.7690  173.0980  136.5010 C   0  0  1  0  0  0  0  0  0  0  0  0
  189.1770  172.3410  135.2470 C   0  0  0  0  0  1  0  0  0  0  0  0
  186.7870  173.1440  137.5330 C   0  0  0  0  0  2  0  0  0  0  0  0
  189.9220  173.4570  137.2760 O   0  0  0  0  0  0  0  0  0  0  0  0
  191.2300  173.5460  136.7790 C   0  0  0  0  0  0  0  0  0  0  0  0
  193.0700  172.7140  135.4250 C   0  0  0  0  0  3  0  0  0  0  0  0
  193.3370  174.7500  136.7040 C   0  0  0  0  0  3  0  0  0  0  0  0
  193.8580  173.7940  135.8280 C   0  0  0  0  0  3  0  0  0  0  0  0
  192.0270  174.6260  137.1770 C   0  0  0  0  0  3  0  0  0  0  0  0
  191.7600  172.5890  135.8990 C   0  0  0  0  0  3  0  0  0  0  0  0
  188.8170  176.6020  142.6390 N   0  0  0  0  0  2  0  0  0  0  0  0
  189.3040  177.2760  146.2900 C   0  0  0  0  0  3  0  0  0  0  0  0
  190.6460  176.9110  146.4440 C   0  0  0  0  0  0  0  0  0  0  0  0
  190.7650  176.3610  144.0880 C   0  0  0  0  0  3  0  0  0  0  0  0
  188.6930  177.1770  145.0380 C   0  0  0  0  0  3  0  0  0  0  0  0
  189.4220  176.7180  143.9300 C   0  0  0  0  0  0  0  0  0  0  0  0
  191.3770  176.4610  145.3410 C   0  0  0  0  0  3  0  0  0  0  0  0
  192.5140  176.3480  147.7670 O   0  0  0  0  0  1  0  0  0  0  0  0
  191.3040  177.0400  147.7710 C   0  0  0  0  0  2  0  0  0  0  0  0
  1  8  1  0  0  0  0
  2 13  1  0  0  0  0
  2 12  1  0  0  0  0
  3 14  1  1  0  0  0
  4 15  1  0  0  0  0
  5  9  1  0  0  0  0
  5  1  2  0  0  0  0
  6  1  1  0  0  0  0
  7 11  1  0  0  0  0
  7  4  1  0  0  0  0
  8  4  2  0  0  0  0
  9  7  2  0  0  0  0
 10  3  1  0  0  0  0
 10 11  1  0  0  0  0
 11  2  2  0  0  0  0
 13 35  1  1  0  0  0
 14 13  1  0  0  0  0
 15 12  2  0  0  0  0
 16 18  1  6  0  0  0
 16  3  1  0  0  0  0
 17 16  1  0  0  0  0
 19 17  1  0  0  0  0
 20 19  1  0  0  0  0
 20 18  1  0  0  0  0
 21 19  1  0  0  0  0
 22 21  1  1  0  0  0
 22 25  1  0  0  0  0
 22 24  1  0  0  0  0
 23 27  1  0  0  0  0
 24 27  1  0  0  0  0
 25 26  1  6  0  0  0
 25 23  1  0  0  0  0
 25 28  1  0  0  0  0
 29 33  1  0  0  0  0
 29 28  1  0  0  0  0
 30 32  2  0  0  0  0
 30 34  1  0  0  0  0
 31 33  2  0  0  0  0
 32 31  1  0  0  0  0
 34 29  2  0  0  0  0
 35 40  1  0  0  0  0
 36 37  1  0  0  0  0
 37 43  1  0  0  0  0
 38 41  1  0  0  0  0
 39 36  2  0  0  0  0
 40 38  2  0  0  0  0
 40 39  1  0  0  0  0
 41 37  2  0  0  0  0
 42 43  1  0  0  0  0
M  END
>  <MODEL>
8

>  <REMARK>
 VINA RESULT:      -8.7      1.972      6.612
  Name = 
  8 active torsions:
  status: ('A' for Active; 'I' for Inactive)
    1  A    between atoms: N_1  and  C_34
    2  A    between atoms: N_1  and  C_35
    3  A    between atoms: C_2  and  C_13
    4  A    between atoms: C_3  and  C_4
    5  A    between atoms: C_3  and  N_12
    6  A    between atoms: C_11  and  O_14
    7  A    between atoms: O_14  and  C_22
    8  A    between atoms: C_19  and  C_37
                            x       y       z     vdW  Elec       q    Type
                         _______ _______ _______ _____ _____    ______ ____

>  <TORSDO>
F 8

$$$$
=
 OpenBabel10272414163D

 43 49  0  0  1  0  0  0  0  0999 V2000
  185.7300  173.6420  135.3990 C   0  0  0  0  0  0  0  0  0  0  0  0
  190.5960  173.9710  136.6540 C   0  0  0  0  0  0  0  0  0  0  0  0
  190.8200  175.9010  138.8030 C   0  0  1  0  0  3  0  0  0  0  0  0
  188.1210  173.3090  135.5660 C   0  0  0  0  0  0  0  0  0  0  0  0
  185.8010  174.6500  136.3660 C   0  0  0  0  0  3  0  0  0  0  0  0
  184.5070  173.3060  134.8360 O   0  0  0  0  0  1  0  0  0  0  0  0
  188.2000  174.3270  136.5410 C   0  0  0  0  0  0  0  0  0  0  0  0
  186.8900  172.9700  135.0010 C   0  0  0  0  0  3  0  0  0  0  0  0
  187.0310  174.9920  136.9350 C   0  0  0  0  0  3  0  0  0  0  0  0
  189.5640  175.6770  138.0910 N   0  0  0  0  0  2  0  0  0  0  0  0
  189.4450  174.6490  137.1010 C   0  0  0  0  0  0  0  0  0  0  0  0
  190.4790  172.9790  135.7260 N   0  0  0  0  0  0  0  0  0  0  0  0
  191.9440  174.2780  137.2620 C   0  0  2  0  0  3  0  0  0  0  0  0
  191.9880  175.6960  137.8390 C   0  0  0  0  0  2  0  0  0  0  0  0
  189.2820  172.6420  135.1780 C   0  0  0  0  0  3  0  0  0  0  0  0
  190.8470  177.3060  139.4070 C   0  0  1  0  0  3  0  0  0  0  0  0
  189.4440  177.7610  139.7570 C   0  0  0  0  0  2  0  0  0  0  0  0
  191.5850  177.2930  140.7300 C   0  0  0  0  0  2  0  0  0  0  0  0
  189.2400  177.5140  141.1750 N   0  0  0  0  0  0  0  0  0  0  0  0
  190.5550  177.6550  141.7800 C   0  0  0  0  0  2  0  0  0  0  0  0
  188.4160  178.5990  141.6810 C   0  0  0  0  0  2  0  0  0  0  0  0
  187.1070  178.0470  142.2370 C   0  0  2  0  0  3  0  0  0  0  0  0
  185.9360  177.8700  144.2210 O   0  0  0  0  0  0  0  0  0  0  0  0
  186.1110  179.0140  142.2050 O   0  0  0  0  0  0  0  0  0  0  0  0
  187.1920  177.6040  143.6750 C   0  0  1  0  0  0  0  0  0  0  0  0
  187.4810  176.1120  143.7210 C   0  0  0  0  0  1  0  0  0  0  0  0
  185.2610  178.6500  143.2610 C   0  0  0  0  0  2  0  0  0  0  0  0
  188.1980  178.3390  144.3860 O   0  0  0  0  0  0  0  0  0  0  0  0
  189.0150  177.8130  145.3980 C   0  0  0  0  0  0  0  0  0  0  0  0
  191.1280  176.9130  146.1960 C   0  0  0  0  0  3  0  0  0  0  0  0
  189.2610  177.1450  147.7180 C   0  0  0  0  0  3  0  0  0  0  0  0
  190.5850  176.7690  147.4750 C   0  0  0  0  0  3  0  0  0  0  0  0
  188.4800  177.6650  146.6820 C   0  0  0  0  0  3  0  0  0  0  0  0
  190.3450  177.4330  145.1600 C   0  0  0  0  0  3  0  0  0  0  0  0
  192.9970  174.1240  136.2650 N   0  0  0  0  0  2  0  0  0  0  0  0
  196.6760  174.8090  136.1260 C   0  0  0  0  0  3  0  0  0  0  0  0
  197.1130  174.1060  137.2530 C   0  0  0  0  0  0  0  0  0  0  0  0
  194.8360  173.4160  137.7030 C   0  0  0  0  0  3  0  0  0  0  0  0
  195.3190  174.8210  135.7930 C   0  0  0  0  0  3  0  0  0  0  0  0
  194.3920  174.1230  136.5810 C   0  0  0  0  0  0  0  0  0  0  0  0
  196.1930  173.4040  138.0370 C   0  0  0  0  0  3  0  0  0  0  0  0
  199.2420  175.0370  136.8530 O   0  0  0  0  0  1  0  0  0  0  0  0
  198.5600  174.0730  137.5940 C   0  0  0  0  0  2  0  0  0  0  0  0
  1  5  1  0  0  0  0
  2 11  1  0  0  0  0
  2 13  1  0  0  0  0
  3 14  1  6  0  0  0
  3 16  1  0  0  0  0
  4  7  1  0  0  0  0
  5  9  2  0  0  0  0
  6  1  1  0  0  0  0
  7  9  1  0  0  0  0
  7 11  2  0  0  0  0
  8  1  2  0  0  0  0
  8  4  1  0  0  0  0
 10  3  1  0  0  0  0
 11 10  1  0  0  0  0
 12  2  2  0  0  0  0
 13 35  1  6  0  0  0
 13 14  1  0  0  0  0
 15  4  2  0  0  0  0
 15 12  1  0  0  0  0
 16 17  1  1  0  0  0
 16 18  1  0  0  0  0
 17 19  1  0  0  0  0
 18 20  1  0  0  0  0
 19 21  1  0  0  0  0
 19 20  1  0  0  0  0
 22 21  1  1  0  0  0
 22 25  1  0  0  0  0
 24 22  1  0  0  0  0
 24 27  1  0  0  0  0
 25 26  1  1  0  0  0
 25 23  1  0  0  0  0
 25 28  1  0  0  0  0
 27 23  1  0  0  0  0
 28 29  1  0  0  0  0
 29 33  1  0  0  0  0
 30 32  2  0  0  0  0
 32 31  1  0  0  0  0
 33 31  2  0  0  0  0
 34 29  2  0  0  0  0
 34 30  1  0  0  0  0
 35 40  1  0  0  0  0
 36 37  1  0  0  0  0
 37 43  1  0  0  0  0
 37 41  2  0  0  0  0
 38 41  1  0  0  0  0
 39 36  2  0  0  0  0
 39 40  1  0  0  0  0
 40 38  2  0  0  0  0
 42 43  1  0  0  0  0
M  END
>  <MODEL>
9

>  <REMARK>
 VINA RESULT:      -8.5      3.100     11.213
  Name = 
  8 active torsions:
  status: ('A' for Active; 'I' for Inactive)
    1  A    between atoms: N_1  and  C_34
    2  A    between atoms: N_1  and  C_35
    3  A    between atoms: C_2  and  C_13
    4  A    between atoms: C_3  and  C_4
    5  A    between atoms: C_3  and  N_12
    6  A    between atoms: C_11  and  O_14
    7  A    between atoms: O_14  and  C_22
    8  A    between atoms: C_19  and  C_37
                            x       y       z     vdW  Elec       q    Type
                         _______ _______ _______ _____ _____    ______ ____

>  <TORSDO>
F 8

$$$$
