=
 OpenBabel10272414093D

 43 48  0  0  1  0  0  0  0  0999 V2000
  187.8360  177.6320  147.5380 C   0  0  0  0  0  0  0  0  0  0  0  0
  186.5920  178.6590  142.7680 C   0  0  2  0  0  3  0  0  0  0  0  0
  188.7360  177.6710  141.2470 C   0  0  0  0  0  0  0  0  0  0  0  0
  186.6110  178.1050  145.5600 C   0  0  0  0  0  0  0  0  0  0  0  0
  188.8880  177.1040  146.7860 C   0  0  0  0  0  3  0  0  0  0  0  0
  187.9200  177.6590  148.9570 N   0  0  0  0  0  1  0  0  0  0  0  0
  187.6580  177.5950  144.7680 C   0  0  0  0  0  0  0  0  0  0  0  0
  186.7230  178.1080  146.9180 N   0  0  0  0  0  0  0  0  0  0  0  0
  188.7910  177.0730  145.3950 C   0  0  0  0  0  3  0  0  0  0  0  0
  188.6950  177.3880  142.5170 N   0  0  0  0  0  0  0  0  0  0  0  0
  187.4450  177.4880  143.2790 C   0  0  2  0  0  3  0  0  0  0  0  0
  185.3400  178.8130  143.5930 C   0  0  0  0  0  3  0  0  0  0  0  0
  186.3140  178.4170  141.2890 C   0  0  2  0  0  3  0  0  0  0  0  0
  187.5860  178.2380  140.5880 N   0  0  0  0  0  2  0  0  0  0  0  0
  185.3760  178.6020  144.9150 C   0  0  0  0  0  3  0  0  0  0  0  0
  190.0100  177.4930  140.4900 C   0  0  1  0  0  3  0  0  0  0  0  0
  191.1870  177.6340  141.4480 C   0  0  0  0  0  1  0  0  0  0  0  0
  190.0200  176.2350  139.8660 O   0  0  0  0  0  0  0  0  0  0  0  0
  190.3580  176.4690  138.5270 C   0  0  1  0  0  3  0  0  0  0  0  0
  191.7980  176.0550  138.2990 C   0  0  0  0  0  1  0  0  0  0  0  0
  189.4600  175.6650  137.5790 C   0  0  0  0  0  2  0  0  0  0  0  0
  188.3780  176.4430  136.9540 N   0  0  0  0  0  0  0  0  0  0  0  0
  186.8990  178.1850  135.2770 C   0  0  0  0  0  2  0  0  0  0  0  0
  188.8040  177.8420  136.9260 C   0  0  0  0  0  2  0  0  0  0  0  0
  188.0230  175.9360  135.6010 C   0  0  2  0  0  3  0  0  0  0  0  0
  187.6580  177.0460  134.5950 C   0  0  0  0  0  2  0  0  0  0  0  0
  187.6470  178.7390  136.4940 C   0  0  0  0  0  2  0  0  0  0  0  0
  186.1500  174.9070  136.9950 C   0  0  0  0  0  2  0  0  0  0  0  0
  186.9280  174.8650  135.6580 C   0  0  2  0  0  3  0  0  0  0  0  0
  187.9680  170.8800  135.8690 Cl  0  0  0  0  0  0  0  0  0  0  0  0
  186.1610  172.4460  137.0930 C   0  0  0  0  0  3  0  0  0  0  0  0
  187.5150  172.4950  136.4510 C   0  0  2  0  0  3  0  0  0  0  0  0
  185.5090  173.5900  137.3340 C   0  0  0  0  0  3  0  0  0  0  0  0
  187.4930  173.4750  135.2730 C   0  0  0  0  0  2  0  0  0  0  0  0
  185.5900  179.5430  140.7140 N   0  0  0  0  0  2  0  0  0  0  0  0
  182.9800  177.0270  140.2540 C   0  0  0  0  0  3  0  0  0  0  0  0
  182.8490  176.9740  138.7470 C   0  0  0  0  0  0  0  0  0  0  0  0
  182.5800  175.5460  138.3120 C   0  0  0  0  0  1  0  0  0  0  0  0
  184.8730  178.4100  138.6710 C   0  0  0  0  0  3  0  0  0  0  0  0
  183.7350  177.9730  140.8400 C   0  0  0  0  0  3  0  0  0  0  0  0
  184.4440  179.0020  139.9950 C   0  0  1  0  0  3  0  0  0  0  0  0
  181.6890  177.8450  138.3080 C   0  0  0  0  0  1  0  0  0  0  0  0
  184.1180  177.4650  138.0870 C   0  0  0  0  0  3  0  0  0  0  0  0
  1  6  1  0  0  0  0
  2 11  1  0  0  0  0
  2 12  1  1  0  0  0
  3 10  2  0  0  0  0
  4  8  2  0  0  0  0
  5  1  2  0  0  0  0
  7  9  2  0  0  0  0
  7  4  1  0  0  0  0
  8  1  1  0  0  0  0
  9  5  1  0  0  0  0
 11 10  1  6  0  0  0
 11  7  1  0  0  0  0
 12 15  2  0  0  0  0
 13 35  1  6  0  0  0
 13  2  1  0  0  0  0
 14  3  1  0  0  0  0
 14 13  1  0  0  0  0
 15  4  1  0  0  0  0
 16  3  1  0  0  0  0
 16 17  1  1  0  0  0
 18 16  1  0  0  0  0
 19 20  1  1  0  0  0
 19 18  1  0  0  0  0
 21 19  1  0  0  0  0
 22 21  1  0  0  0  0
 23 27  1  0  0  0  0
 24 22  1  0  0  0  0
 25 26  1  6  0  0  0
 25 29  1  0  0  0  0
 25 22  1  0  0  0  0
 26 23  1  0  0  0  0
 27 24  1  0  0  0  0
 28 33  1  0  0  0  0
 29 34  1  1  0  0  0
 29 28  1  0  0  0  0
 31 33  2  0  0  0  0
 32 30  1  6  0  0  0
 32 31  1  0  0  0  0
 34 32  1  0  0  0  0
 36 40  2  0  0  0  0
 37 36  1  0  0  0  0
 38 37  1  0  0  0  0
 39 41  1  0  0  0  0
 41 35  1  1  0  0  0
 41 40  1  0  0  0  0
 42 37  1  0  0  0  0
 43 39  2  0  0  0  0
 43 37  1  0  0  0  0
M  END
>  <MODEL>
1

>  <REMARK>
 VINA RESULT:      -9.6      0.000      0.000
  Name = 
  8 active torsions:
  status: ('A' for Active; 'I' for Inactive)
    1  A    between atoms: N_1  and  C_34
    2  A    between atoms: N_1  and  C_35
    3  A    between atoms: C_2  and  O_6
    4  A    between atoms: C_2  and  C_13
    5  A    between atoms: C_3  and  N_4
    6  A    between atoms: C_3  and  C_12
    7  A    between atoms: O_6  and  C_12
    8  A    between atoms: C_14  and  C_22
                            x       y       z     vdW  Elec       q    Type
                         _______ _______ _______ _____ _____    ______ ____

>  <TORSDO>
F 8

$$$$
=
 OpenBabel10272414093D

 43 48  0  0  1  0  0  0  0  0999 V2000
  191.2730  176.6990  146.8920 C   0  0  0  0  0  0  0  0  0  0  0  0
  188.4610  177.8790  142.8860 C   0  0  2  0  0  3  0  0  0  0  0  0
  189.9930  177.0610  140.6790 C   0  0  0  0  0  0  0  0  0  0  0  0
  189.4380  177.2020  145.4720 C   0  0  0  0  0  0  0  0  0  0  0  0
  192.0230  176.2550  145.8030 C   0  0  0  0  0  3  0  0  0  0  0  0
  191.8310  176.6660  148.2000 N   0  0  0  0  0  1  0  0  0  0  0  0
  190.1700  176.7780  144.3470 C   0  0  0  0  0  0  0  0  0  0  0  0
  190.0020  177.1490  146.7110 N   0  0  0  0  0  0  0  0  0  0  0  0
  191.4640  176.2820  144.5250 C   0  0  0  0  0  3  0  0  0  0  0  0
  190.3920  176.7210  141.8700 N   0  0  0  0  0  0  0  0  0  0  0  0
  189.4700  176.7270  143.0120 C   0  0  2  0  0  3  0  0  0  0  0  0
  187.5580  177.9370  144.0910 C   0  0  0  0  0  3  0  0  0  0  0  0
  187.7070  177.6900  141.5740 C   0  0  2  0  0  3  0  0  0  0  0  0
  188.6720  177.6030  140.4780 N   0  0  0  0  0  2  0  0  0  0  0  0
  188.0440  177.6690  145.3090 C   0  0  0  0  0  3  0  0  0  0  0  0
  190.9410  176.9770  139.5290 C   0  0  1  0  0  3  0  0  0  0  0  0
  192.3380  177.3630  140.0010 C   0  0  0  0  0  1  0  0  0  0  0  0
  190.9320  175.6760  139.0000 O   0  0  0  0  0  0  0  0  0  0  0  0
  190.6770  175.8160  137.6300 C   0  0  1  0  0  3  0  0  0  0  0  0
  191.7480  175.0810  136.8480 C   0  0  0  0  0  1  0  0  0  0  0  0
  189.3100  175.2330  137.2570 C   0  0  0  0  0  2  0  0  0  0  0  0
  188.2310  176.2270  137.1400 N   0  0  0  0  0  0  0  0  0  0  0  0
  186.4040  178.1540  136.1480 C   0  0  0  0  0  2  0  0  0  0  0  0
  188.8090  177.4330  136.5460 C   0  0  0  0  0  2  0  0  0  0  0  0
  187.0710  175.7180  136.3600 C   0  0  2  0  0  3  0  0  0  0  0  0
  186.4010  176.7830  135.4700 C   0  0  0  0  0  2  0  0  0  0  0  0
  187.8050  178.5810  136.5960 C   0  0  0  0  0  2  0  0  0  0  0  0
  186.2290  173.4860  137.2660 C   0  0  0  0  0  2  0  0  0  0  0  0
  186.0390  175.0220  137.2550 C   0  0  2  0  0  3  0  0  0  0  0  0
  182.0660  174.9750  136.1490 Cl  0  0  0  0  0  0  0  0  0  0  0  0
  183.7880  173.1710  137.1470 C   0  0  0  0  0  3  0  0  0  0  0  0
  183.7410  174.4030  136.2930 C   0  0  2  0  0  3  0  0  0  0  0  0
  184.9670  172.7500  137.6210 C   0  0  0  0  0  3  0  0  0  0  0  0
  184.6040  175.5020  136.9220 C   0  0  0  0  0  2  0  0  0  0  0  0
  186.8000  178.8060  141.3420 N   0  0  0  0  0  2  0  0  0  0  0  0
  183.8550  178.8740  139.1790 C   0  0  0  0  0  3  0  0  0  0  0  0
  182.7830  178.3020  140.0810 C   0  0  0  0  0  0  0  0  0  0  0  0
  181.4680  179.0100  139.8160 C   0  0  0  0  0  1  0  0  0  0  0  0
  184.4480  178.4650  141.9150 C   0  0  0  0  0  3  0  0  0  0  0  0
  185.1450  178.8570  139.5590 C   0  0  0  0  0  3  0  0  0  0  0  0
  185.5330  178.2490  140.8840 C   0  0  1  0  0  3  0  0  0  0  0  0
  182.6090  176.8250  139.7890 C   0  0  0  0  0  1  0  0  0  0  0  0
  183.1600  178.4820  141.5350 C   0  0  0  0  0  3  0  0  0  0  0  0
  1  6  1  0  0  0  0
  2 11  1  0  0  0  0
  2 12  1  1  0  0  0
  3 10  2  0  0  0  0
  4  8  2  0  0  0  0
  5  1  2  0  0  0  0
  7  9  2  0  0  0  0
  7  4  1  0  0  0  0
  8  1  1  0  0  0  0
  9  5  1  0  0  0  0
 11 10  1  6  0  0  0
 11  7  1  0  0  0  0
 12 15  2  0  0  0  0
 13 35  1  6  0  0  0
 13  2  1  0  0  0  0
 14  3  1  0  0  0  0
 14 13  1  0  0  0  0
 15  4  1  0  0  0  0
 16 17  1  1  0  0  0
 16  3  1  0  0  0  0
 18 16  1  0  0  0  0
 19 20  1  6  0  0  0
 19 18  1  0  0  0  0
 21 19  1  0  0  0  0
 22 21  1  0  0  0  0
 23 27  1  0  0  0  0
 24 27  1  0  0  0  0
 24 22  1  0  0  0  0
 25 26  1  1  0  0  0
 25 22  1  0  0  0  0
 25 29  1  0  0  0  0
 26 23  1  0  0  0  0
 28 33  1  0  0  0  0
 29 34  1  6  0  0  0
 29 28  1  0  0  0  0
 31 33  2  0  0  0  0
 32 30  1  1  0  0  0
 32 34  1  0  0  0  0
 32 31  1  0  0  0  0
 36 40  2  0  0  0  0
 36 37  1  0  0  0  0
 37 43  1  0  0  0  0
 38 37  1  0  0  0  0
 40 41  1  0  0  0  0
 41 35  1  1  0  0  0
 41 39  1  0  0  0  0
 42 37  1  0  0  0  0
 43 39  2  0  0  0  0
M  END
>  <MODEL>
2

>  <REMARK>
 VINA RESULT:      -9.1      1.946      2.589
  Name = 
  8 active torsions:
  status: ('A' for Active; 'I' for Inactive)
    1  A    between atoms: N_1  and  C_34
    2  A    between atoms: N_1  and  C_35
    3  A    between atoms: C_2  and  O_6
    4  A    between atoms: C_2  and  C_13
    5  A    between atoms: C_3  and  N_4
    6  A    between atoms: C_3  and  C_12
    7  A    between atoms: O_6  and  C_12
    8  A    between atoms: C_14  and  C_22
                            x       y       z     vdW  Elec       q    Type
                         _______ _______ _______ _____ _____    ______ ____

>  <TORSDO>
F 8

$$$$
=
 OpenBabel10272414093D

 43 48  0  0  1  0  0  0  0  0999 V2000
  191.1630  176.8450  147.0440 C   0  0  0  0  0  0  0  0  0  0  0  0
  187.5080  178.0580  143.8010 C   0  0  2  0  0  3  0  0  0  0  0  0
  188.6280  177.6000  141.2660 C   0  0  0  0  0  0  0  0  0  0  0  0
  189.0430  177.2690  146.0640 C   0  0  0  0  0  0  0  0  0  0  0  0
  191.7140  176.5780  145.7890 C   0  0  0  0  0  3  0  0  0  0  0  0
  191.9750  176.7590  148.2090 N   0  0  0  0  0  1  0  0  0  0  0  0
  189.5670  177.0230  144.7800 C   0  0  0  0  0  0  0  0  0  0  0  0
  189.8480  177.1710  147.1590 N   0  0  0  0  0  0  0  0  0  0  0  0
  190.9080  176.6550  144.6530 C   0  0  0  0  0  3  0  0  0  0  0  0
  189.2880  177.2030  142.3150 N   0  0  0  0  0  0  0  0  0  0  0  0
  188.6190  177.0130  143.6080 C   0  0  2  0  0  3  0  0  0  0  0  0
  186.8650  177.9160  145.1560 C   0  0  0  0  0  3  0  0  0  0  0  0
  186.5240  177.9030  142.6460 C   0  0  2  0  0  3  0  0  0  0  0  0
  187.2520  178.0130  141.3820 N   0  0  0  0  0  2  0  0  0  0  0  0
  187.6090  177.5970  146.2230 C   0  0  0  0  0  3  0  0  0  0  0  0
  189.3280  177.7170  139.9530 C   0  0  1  0  0  3  0  0  0  0  0  0
  190.8060  177.3980  140.1420 C   0  0  0  0  0  1  0  0  0  0  0  0
  188.7410  176.8430  139.0230 O   0  0  0  0  0  0  0  0  0  0  0  0
  188.1670  177.6550  138.0360 C   0  0  1  0  0  3  0  0  0  0  0  0
  189.0830  178.8320  137.7680 C   0  0  0  0  0  1  0  0  0  0  0  0
  187.9660  176.8810  136.7290 C   0  0  0  0  0  2  0  0  0  0  0  0
  188.1360  175.4240  136.8470 N   0  0  0  0  0  0  0  0  0  0  0  0
  188.2260  172.6430  136.3070 C   0  0  0  0  0  2  0  0  0  0  0  0
  186.8850  174.8000  136.4160 C   0  0  0  0  0  2  0  0  0  0  0  0
  189.3070  174.9240  136.0780 C   0  0  2  0  0  3  0  0  0  0  0  0
  189.0810  173.5490  135.4190 C   0  0  0  0  0  2  0  0  0  0  0  0
  186.9070  173.3040  136.7180 C   0  0  0  0  0  2  0  0  0  0  0  0
  191.4550  176.1780  136.6490 C   0  0  0  0  0  2  0  0  0  0  0  0
  190.5890  174.9250  136.9200 C   0  0  2  0  0  3  0  0  0  0  0  0
  193.5490  172.1580  136.1520 Cl  0  0  0  0  0  0  0  0  0  0  0  0
  193.4910  174.7920  136.6760 C   0  0  0  0  0  3  0  0  0  0  0  0
  192.6720  173.6990  136.0560 C   0  0  2  0  0  3  0  0  0  0  0  0
  192.9070  175.9590  136.9720 C   0  0  0  0  0  3  0  0  0  0  0  0
  191.3350  173.5730  136.7940 C   0  0  0  0  0  2  0  0  0  0  0  0
  185.4950  178.9310  142.7120 N   0  0  0  0  0  2  0  0  0  0  0  0
  183.1210  179.1590  139.9430 C   0  0  0  0  0  3  0  0  0  0  0  0
  181.8480  178.6340  140.5690 C   0  0  0  0  0  0  0  0  0  0  0  0
  180.6610  179.4070  140.0270 C   0  0  0  0  0  1  0  0  0  0  0  0
  183.0620  178.7020  142.7340 C   0  0  0  0  0  3  0  0  0  0  0  0
  184.2900  179.0770  140.6030 C   0  0  0  0  0  3  0  0  0  0  0  0
  184.3400  178.4410  141.9700 C   0  0  1  0  0  3  0  0  0  0  0  0
  181.6770  177.1690  140.2190 C   0  0  0  0  0  1  0  0  0  0  0  0
  181.8950  178.7840  142.0740 C   0  0  0  0  0  3  0  0  0  0  0  0
  1  8  1  0  0  0  0
  1  6  1  0  0  0  0
  2 12  1  1  0  0  0
  3 14  1  0  0  0  0
  3 10  2  0  0  0  0
  4 15  1  0  0  0  0
  4  8  2  0  0  0  0
  5  1  2  0  0  0  0
  7  4  1  0  0  0  0
  9  7  2  0  0  0  0
  9  5  1  0  0  0  0
 11 10  1  6  0  0  0
 11  2  1  0  0  0  0
 11  7  1  0  0  0  0
 12 15  2  0  0  0  0
 13 35  1  6  0  0  0
 13  2  1  0  0  0  0
 14 13  1  0  0  0  0
 16 17  1  1  0  0  0
 16  3  1  0  0  0  0
 18 16  1  0  0  0  0
 19 20  1  6  0  0  0
 19 18  1  0  0  0  0
 21 22  1  0  0  0  0
 21 19  1  0  0  0  0
 23 27  1  0  0  0  0
 24 27  1  0  0  0  0
 24 22  1  0  0  0  0
 25 26  1  1  0  0  0
 25 22  1  0  0  0  0
 25 29  1  0  0  0  0
 26 23  1  0  0  0  0
 28 33  1  0  0  0  0
 29 28  1  6  0  0  0
 31 33  2  0  0  0  0
 32 30  1  1  0  0  0
 32 31  1  0  0  0  0
 32 34  1  0  0  0  0
 34 29  1  0  0  0  0
 36 37  1  0  0  0  0
 36 40  2  0  0  0  0
 37 43  1  0  0  0  0
 38 37  1  0  0  0  0
 40 41  1  0  0  0  0
 41 35  1  1  0  0  0
 41 39  1  0  0  0  0
 42 37  1  0  0  0  0
 43 39  2  0  0  0  0
M  END
>  <MODEL>
3

>  <REMARK>
 VINA RESULT:      -8.7      1.981      3.566
  Name = 
  8 active torsions:
  status: ('A' for Active; 'I' for Inactive)
    1  A    between atoms: N_1  and  C_34
    2  A    between atoms: N_1  and  C_35
    3  A    between atoms: C_2  and  O_6
    4  A    between atoms: C_2  and  C_13
    5  A    between atoms: C_3  and  N_4
    6  A    between atoms: C_3  and  C_12
    7  A    between atoms: O_6  and  C_12
    8  A    between atoms: C_14  and  C_22
                            x       y       z     vdW  Elec       q    Type
                         _______ _______ _______ _____ _____    ______ ____

>  <TORSDO>
F 8

$$$$
=
 OpenBabel10272414093D

 43 48  0  0  1  0  0  0  0  0999 V2000
  191.2080  176.9030  147.0530 C   0  0  0  0  0  0  0  0  0  0  0  0
  187.5540  177.9840  143.7630 C   0  0  2  0  0  3  0  0  0  0  0  0
  188.6290  177.3030  141.2600 C   0  0  0  0  0  0  0  0  0  0  0  0
  189.0900  177.3200  146.0650 C   0  0  0  0  0  0  0  0  0  0  0  0
  191.7350  176.5260  145.8170 C   0  0  0  0  0  3  0  0  0  0  0  0
  192.0300  176.8800  148.2140 N   0  0  0  0  0  1  0  0  0  0  0  0
  189.5910  176.9620  144.7980 C   0  0  0  0  0  0  0  0  0  0  0  0
  189.9050  177.2790  147.1560 N   0  0  0  0  0  0  0  0  0  0  0  0
  190.9180  176.5430  144.6860 C   0  0  0  0  0  3  0  0  0  0  0  0
  189.2880  176.9650  142.3290 N   0  0  0  0  0  0  0  0  0  0  0  0
  188.6290  176.8940  143.6390 C   0  0  2  0  0  3  0  0  0  0  0  0
  186.9230  177.9660  145.1310 C   0  0  0  0  0  3  0  0  0  0  0  0
  186.5520  177.7750  142.6330 C   0  0  2  0  0  3  0  0  0  0  0  0
  187.2670  177.7670  141.3570 N   0  0  0  0  0  2  0  0  0  0  0  0
  187.6690  177.7040  146.2120 C   0  0  0  0  0  3  0  0  0  0  0  0
  189.3160  177.2990  139.9350 C   0  0  1  0  0  3  0  0  0  0  0  0
  189.2080  178.6840  139.3080 C   0  0  0  0  0  1  0  0  0  0  0  0
  190.6610  176.9260  140.0990 O   0  0  0  0  0  0  0  0  0  0  0  0
  191.2090  176.8750  138.8110 C   0  0  1  0  0  3  0  0  0  0  0  0
  192.7220  176.9060  138.9140 C   0  0  0  0  0  1  0  0  0  0  0  0
  190.7930  175.5940  138.0810 C   0  0  0  0  0  2  0  0  0  0  0  0
  189.8870  175.8050  136.9410 N   0  0  0  0  0  0  0  0  0  0  0  0
  188.6800  175.7420  134.3770 C   0  0  0  0  0  2  0  0  0  0  0  0
  190.6930  176.3010  135.8260 C   0  0  0  0  0  2  0  0  0  0  0  0
  189.1280  174.5770  136.5830 C   0  0  2  0  0  3  0  0  0  0  0  0
  188.9100  174.3970  135.0670 C   0  0  0  0  0  2  0  0  0  0  0  0
  189.7910  176.7520  134.6790 C   0  0  0  0  0  2  0  0  0  0  0  0
  186.9470  173.2810  136.8630 C   0  0  0  0  0  2  0  0  0  0  0  0
  187.8000  174.4800  137.3440 C   0  0  2  0  0  3  0  0  0  0  0  0
  184.8980  177.3540  136.7770 Cl  0  0  0  0  0  0  0  0  0  0  0  0
  184.9170  174.6740  136.9560 C   0  0  0  0  0  3  0  0  0  0  0  0
  185.7730  175.8290  136.5310 C   0  0  2  0  0  3  0  0  0  0  0  0
  185.4800  173.4720  137.1300 C   0  0  0  0  0  3  0  0  0  0  0  0
  187.0670  175.8440  137.3530 C   0  0  0  0  0  2  0  0  0  0  0  0
  185.5550  178.8370  142.6310 N   0  0  0  0  0  2  0  0  0  0  0  0
  183.3670  179.1630  139.7220 C   0  0  0  0  0  3  0  0  0  0  0  0
  182.0440  178.6610  140.2590 C   0  0  0  0  0  0  0  0  0  0  0  0
  180.9130  179.4710  139.6560 C   0  0  0  0  0  1  0  0  0  0  0  0
  183.1210  178.6690  142.4960 C   0  0  0  0  0  3  0  0  0  0  0  0
  184.4900  179.0430  140.4530 C   0  0  0  0  0  3  0  0  0  0  0  0
  184.4380  178.3860  141.8100 C   0  0  1  0  0  3  0  0  0  0  0  0
  181.8610  177.2060  139.8760 C   0  0  0  0  0  1  0  0  0  0  0  0
  182.0000  178.7890  141.7660 C   0  0  0  0  0  3  0  0  0  0  0  0
  1  8  1  0  0  0  0
  1  6  1  0  0  0  0
  2 12  1  1  0  0  0
  3 14  1  0  0  0  0
  3 10  2  0  0  0  0
  4 15  1  0  0  0  0
  4  8  2  0  0  0  0
  5  1  2  0  0  0  0
  7  4  1  0  0  0  0
  9  7  2  0  0  0  0
  9  5  1  0  0  0  0
 11 10  1  6  0  0  0
 11  2  1  0  0  0  0
 11  7  1  0  0  0  0
 12 15  2  0  0  0  0
 13 35  1  6  0  0  0
 13  2  1  0  0  0  0
 14 13  1  0  0  0  0
 16 17  1  1  0  0  0
 16 18  1  0  0  0  0
 16  3  1  0  0  0  0
 19 20  1  1  0  0  0
 19 18  1  0  0  0  0
 21 19  1  0  0  0  0
 22 21  1  0  0  0  0
 23 27  1  0  0  0  0
 23 26  1  0  0  0  0
 24 22  1  0  0  0  0
 25 26  1  6  0  0  0
 25 22  1  0  0  0  0
 25 29  1  0  0  0  0
 27 24  1  0  0  0  0
 28 33  1  0  0  0  0
 29 28  1  6  0  0  0
 29 34  1  0  0  0  0
 31 33  2  0  0  0  0
 32 30  1  1  0  0  0
 32 31  1  0  0  0  0
 32 34  1  0  0  0  0
 36 37  1  0  0  0  0
 36 40  2  0  0  0  0
 37 43  1  0  0  0  0
 38 37  1  0  0  0  0
 40 41  1  0  0  0  0
 41 39  1  0  0  0  0
 41 35  1  1  0  0  0
 42 37  1  0  0  0  0
 43 39  2  0  0  0  0
M  END
>  <MODEL>
4

>  <REMARK>
 VINA RESULT:      -8.6      1.982      2.729
  Name = 
  8 active torsions:
  status: ('A' for Active; 'I' for Inactive)
    1  A    between atoms: N_1  and  C_34
    2  A    between atoms: N_1  and  C_35
    3  A    between atoms: C_2  and  O_6
    4  A    between atoms: C_2  and  C_13
    5  A    between atoms: C_3  and  N_4
    6  A    between atoms: C_3  and  C_12
    7  A    between atoms: O_6  and  C_12
    8  A    between atoms: C_14  and  C_22
                            x       y       z     vdW  Elec       q    Type
                         _______ _______ _______ _____ _____    ______ ____

>  <TORSDO>
F 8

$$$$
=
 OpenBabel10272414093D

 43 48  0  0  1  0  0  0  0  0999 V2000
  187.9930  177.7440  147.3090 C   0  0  0  0  0  0  0  0  0  0  0  0
  186.0450  178.7210  142.7710 C   0  0  2  0  0  3  0  0  0  0  0  0
  188.0450  177.9460  140.9580 C   0  0  0  0  0  0  0  0  0  0  0  0
  186.4800  178.1330  145.5210 C   0  0  0  0  0  0  0  0  0  0  0  0
  188.9770  177.3200  146.4140 C   0  0  0  0  0  3  0  0  0  0  0  0
  188.2610  177.7580  148.7060 N   0  0  0  0  0  1  0  0  0  0  0  0
  187.4530  177.7280  144.5870 C   0  0  0  0  0  0  0  0  0  0  0  0
  186.7710  178.1280  146.8520 N   0  0  0  0  0  0  0  0  0  0  0  0
  188.7000  177.3000  145.0470 C   0  0  0  0  0  3  0  0  0  0  0  0
  188.1970  177.6450  142.2150 N   0  0  0  0  0  0  0  0  0  0  0  0
  187.0550  177.6230  143.1360 C   0  0  2  0  0  3  0  0  0  0  0  0
  184.9050  178.7530  143.7550 C   0  0  0  0  0  3  0  0  0  0  0  0
  185.5950  178.4750  141.3340 C   0  0  2  0  0  3  0  0  0  0  0  0
  186.7740  178.4190  140.4690 N   0  0  0  0  0  2  0  0  0  0  0  0
  185.1330  178.5280  145.0550 C   0  0  0  0  0  3  0  0  0  0  0  0
  189.2180  177.8920  140.0370 C   0  0  1  0  0  3  0  0  0  0  0  0
  190.4620  177.5070  140.8300 C   0  0  0  0  0  1  0  0  0  0  0  0
  188.9720  176.9670  139.0090 O   0  0  0  0  0  0  0  0  0  0  0  0
  188.3670  177.6900  137.9730 C   0  0  1  0  0  3  0  0  0  0  0  0
  189.2990  178.8020  137.5330 C   0  0  0  0  0  1  0  0  0  0  0  0
  188.0720  176.7910  136.7670 C   0  0  0  0  0  2  0  0  0  0  0  0
  188.0890  175.3490  137.0600 N   0  0  0  0  0  0  0  0  0  0  0  0
  187.7970  172.5350  136.8880 C   0  0  0  0  0  2  0  0  0  0  0  0
  186.7320  174.8430  136.8510 C   0  0  0  0  0  2  0  0  0  0  0  0
  189.0940  174.6150  136.2450 C   0  0  2  0  0  3  0  0  0  0  0  0
  188.6350  173.2120  135.8020 C   0  0  0  0  0  2  0  0  0  0  0  0
  186.6220  173.4030  137.3460 C   0  0  0  0  0  2  0  0  0  0  0  0
  191.2890  175.8370  136.6920 C   0  0  0  0  0  2  0  0  0  0  0  0
  190.4610  174.5530  136.9370 C   0  0  2  0  0  3  0  0  0  0  0  0
  193.3230  171.9060  135.5920 Cl  0  0  0  0  0  0  0  0  0  0  0  0
  193.3190  174.4790  136.3660 C   0  0  0  0  0  3  0  0  0  0  0  0
  192.4380  173.4390  135.7380 C   0  0  2  0  0  3  0  0  0  0  0  0
  192.7680  175.6060  136.8330 C   0  0  0  0  0  3  0  0  0  0  0  0
  191.1900  173.2280  136.6030 C   0  0  0  0  0  2  0  0  0  0  0  0
  184.7080  179.5410  140.8880 N   0  0  0  0  0  2  0  0  0  0  0  0
  182.6080  176.7370  139.8460 C   0  0  0  0  0  3  0  0  0  0  0  0
  182.5780  176.9020  138.3420 C   0  0  0  0  0  0  0  0  0  0  0  0
  182.5880  175.5360  137.6830 C   0  0  0  0  0  1  0  0  0  0  0  0
  184.3220  178.6430  138.6480 C   0  0  0  0  0  3  0  0  0  0  0  0
  183.1510  177.6890  140.6250 C   0  0  0  0  0  3  0  0  0  0  0  0
  183.7180  178.9410  140.0020 C   0  0  1  0  0  3  0  0  0  0  0  0
  181.3120  177.6300  137.9370 C   0  0  0  0  0  1  0  0  0  0  0  0
  183.7790  177.6920  137.8700 C   0  0  0  0  0  3  0  0  0  0  0  0
  1  6  1  0  0  0  0
  2 11  1  0  0  0  0
  2 12  1  1  0  0  0
  3 10  2  0  0  0  0
  4  8  2  0  0  0  0
  5  1  2  0  0  0  0
  7  9  2  0  0  0  0
  7  4  1  0  0  0  0
  8  1  1  0  0  0  0
  9  5  1  0  0  0  0
 11 10  1  6  0  0  0
 11  7  1  0  0  0  0
 12 15  2  0  0  0  0
 13 35  1  6  0  0  0
 13  2  1  0  0  0  0
 14  3  1  0  0  0  0
 14 13  1  0  0  0  0
 15  4  1  0  0  0  0
 16 17  1  1  0  0  0
 16  3  1  0  0  0  0
 18 16  1  0  0  0  0
 19 20  1  6  0  0  0
 19 18  1  0  0  0  0
 21 22  1  0  0  0  0
 21 19  1  0  0  0  0
 23 27  1  0  0  0  0
 24 22  1  0  0  0  0
 24 27  1  0  0  0  0
 25 26  1  1  0  0  0
 25 29  1  0  0  0  0
 25 22  1  0  0  0  0
 26 23  1  0  0  0  0
 28 33  1  0  0  0  0
 28 29  1  0  0  0  0
 29 34  1  6  0  0  0
 31 33  2  0  0  0  0
 32 30  1  1  0  0  0
 32 31  1  0  0  0  0
 32 34  1  0  0  0  0
 36 40  2  0  0  0  0
 37 36  1  0  0  0  0
 38 37  1  0  0  0  0
 39 41  1  0  0  0  0
 41 40  1  0  0  0  0
 41 35  1  1  0  0  0
 42 37  1  0  0  0  0
 43 37  1  0  0  0  0
 43 39  2  0  0  0  0
M  END
>  <MODEL>
5

>  <REMARK>
 VINA RESULT:      -8.6      1.482      2.901
  Name = 
  8 active torsions:
  status: ('A' for Active; 'I' for Inactive)
    1  A    between atoms: N_1  and  C_34
    2  A    between atoms: N_1  and  C_35
    3  A    between atoms: C_2  and  O_6
    4  A    between atoms: C_2  and  C_13
    5  A    between atoms: C_3  and  N_4
    6  A    between atoms: C_3  and  C_12
    7  A    between atoms: O_6  and  C_12
    8  A    between atoms: C_14  and  C_22
                            x       y       z     vdW  Elec       q    Type
                         _______ _______ _______ _____ _____    ______ ____

>  <TORSDO>
F 8

$$$$
=
 OpenBabel10272414093D

 43 48  0  0  1  0  0  0  0  0999 V2000
  191.3980  176.5380  146.8510 C   0  0  0  0  0  0  0  0  0  0  0  0
  187.9910  177.9400  143.4200 C   0  0  2  0  0  3  0  0  0  0  0  0
  189.1840  177.3390  140.9490 C   0  0  0  0  0  0  0  0  0  0  0  0
  189.3610  177.0950  145.7670 C   0  0  0  0  0  0  0  0  0  0  0  0
  191.9820  176.2010  145.6290 C   0  0  0  0  0  3  0  0  0  0  0  0
  192.1490  176.4210  148.0530 N   0  0  0  0  0  1  0  0  0  0  0  0
  189.9210  176.7800  144.5140 C   0  0  0  0  0  0  0  0  0  0  0  0
  190.1070  176.9640  146.8990 N   0  0  0  0  0  0  0  0  0  0  0  0
  191.2340  176.3100  144.4560 C   0  0  0  0  0  3  0  0  0  0  0  0
  189.7640  176.9200  142.0350 N   0  0  0  0  0  0  0  0  0  0  0  0
  189.0270  176.8120  143.3000 C   0  0  2  0  0  3  0  0  0  0  0  0
  187.2800  177.8800  144.7470 C   0  0  0  0  0  3  0  0  0  0  0  0
  187.0500  177.8310  142.2250 C   0  0  2  0  0  3  0  0  0  0  0  0
  187.8380  177.8560  140.9930 N   0  0  0  0  0  2  0  0  0  0  0  0
  187.9500  177.5330  145.8530 C   0  0  0  0  0  3  0  0  0  0  0  0
  189.9470  177.3720  139.6670 C   0  0  1  0  0  3  0  0  0  0  0  0
  191.4400  177.3290  139.9710 C   0  0  0  0  0  1  0  0  0  0  0  0
  189.5680  176.2850  138.8610 O   0  0  0  0  0  0  0  0  0  0  0  0
  188.7460  176.8150  137.8580 C   0  0  1  0  0  3  0  0  0  0  0  0
  188.9810  178.3100  137.7620 C   0  0  0  0  0  1  0  0  0  0  0  0
  189.0540  176.1820  136.4970 C   0  0  0  0  0  2  0  0  0  0  0  0
  188.2300  175.0080  136.1670 N   0  0  0  0  0  0  0  0  0  0  0  0
  186.8510  172.5340  136.2790 C   0  0  0  0  0  2  0  0  0  0  0  0
  189.0410  173.8170  136.4200 C   0  0  0  0  0  2  0  0  0  0  0  0
  186.9470  174.9840  136.9200 C   0  0  2  0  0  3  0  0  0  0  0  0
  186.4980  173.5720  137.3460 C   0  0  0  0  0  2  0  0  0  0  0  0
  188.3330  172.5720  135.8930 C   0  0  0  0  0  2  0  0  0  0  0  0
  185.2890  176.9230  136.9700 C   0  0  0  0  0  2  0  0  0  0  0  0
  185.8260  175.7130  136.1690 C   0  0  2  0  0  3  0  0  0  0  0  0
  182.1770  173.8680  135.6360 Cl  0  0  0  0  0  0  0  0  0  0  0  0
  182.9820  176.3330  136.3350 C   0  0  0  0  0  3  0  0  0  0  0  0
  183.4040  174.8960  136.4040 C   0  0  2  0  0  3  0  0  0  0  0  0
  183.8820  177.2920  136.5860 C   0  0  0  0  0  3  0  0  0  0  0  0
  184.7450  174.7160  135.6840 C   0  0  0  0  0  2  0  0  0  0  0  0
  186.0990  178.9350  142.2220 N   0  0  0  0  0  2  0  0  0  0  0  0
  183.5100  179.2600  139.6640 C   0  0  0  0  0  3  0  0  0  0  0  0
  182.2930  178.7000  140.3680 C   0  0  0  0  0  0  0  0  0  0  0  0
  181.0630  179.4870  139.9550 C   0  0  0  0  0  1  0  0  0  0  0  0
  183.6760  178.6880  142.4290 C   0  0  0  0  0  3  0  0  0  0  0  0
  184.7280  179.1590  140.2240 C   0  0  0  0  0  3  0  0  0  0  0  0
  184.8900  178.4670  141.5550 C   0  0  1  0  0  3  0  0  0  0  0  0
  182.1000  177.2500  139.9710 C   0  0  0  0  0  1  0  0  0  0  0  0
  182.4600  178.7890  141.8680 C   0  0  0  0  0  3  0  0  0  0  0  0
  1  8  1  0  0  0  0
  1  6  1  0  0  0  0
  2 12  1  1  0  0  0
  3 14  1  0  0  0  0
  3 10  2  0  0  0  0
  4 15  1  0  0  0  0
  4  8  2  0  0  0  0
  5  1  2  0  0  0  0
  7  4  1  0  0  0  0
  9  7  2  0  0  0  0
  9  5  1  0  0  0  0
 11 10  1  6  0  0  0
 11  2  1  0  0  0  0
 11  7  1  0  0  0  0
 12 15  2  0  0  0  0
 13 35  1  6  0  0  0
 13  2  1  0  0  0  0
 14 13  1  0  0  0  0
 16 17  1  1  0  0  0
 16  3  1  0  0  0  0
 18 16  1  0  0  0  0
 19 20  1  6  0  0  0
 19 18  1  0  0  0  0
 21 19  1  0  0  0  0
 22 24  1  0  0  0  0
 22 21  1  0  0  0  0
 22 25  1  0  0  0  0
 23 26  1  0  0  0  0
 25 26  1  6  0  0  0
 27 23  1  0  0  0  0
 27 24  1  0  0  0  0
 29 34  1  1  0  0  0
 29 25  1  0  0  0  0
 29 28  1  0  0  0  0
 31 32  1  0  0  0  0
 31 33  2  0  0  0  0
 32 30  1  6  0  0  0
 33 28  1  0  0  0  0
 34 32  1  0  0  0  0
 36 40  2  0  0  0  0
 36 37  1  0  0  0  0
 37 43  1  0  0  0  0
 38 37  1  0  0  0  0
 40 41  1  0  0  0  0
 41 35  1  1  0  0  0
 41 39  1  0  0  0  0
 42 37  1  0  0  0  0
 43 39  2  0  0  0  0
M  END
>  <MODEL>
6

>  <REMARK>
 VINA RESULT:      -8.5      1.980      3.221
  Name = 
  8 active torsions:
  status: ('A' for Active; 'I' for Inactive)
    1  A    between atoms: N_1  and  C_34
    2  A    between atoms: N_1  and  C_35
    3  A    between atoms: C_2  and  O_6
    4  A    between atoms: C_2  and  C_13
    5  A    between atoms: C_3  and  N_4
    6  A    between atoms: C_3  and  C_12
    7  A    between atoms: O_6  and  C_12
    8  A    between atoms: C_14  and  C_22
                            x       y       z     vdW  Elec       q    Type
                         _______ _______ _______ _____ _____    ______ ____

>  <TORSDO>
F 8

$$$$
=
 OpenBabel10272414093D

 43 48  0  0  1  0  0  0  0  0999 V2000
  188.2470  177.6600  146.7280 C   0  0  0  0  0  0  0  0  0  0  0  0
  186.0530  178.6980  142.3170 C   0  0  2  0  0  3  0  0  0  0  0  0
  187.9620  177.9750  140.3880 C   0  0  0  0  0  0  0  0  0  0  0  0
  186.6390  178.0660  145.0300 C   0  0  0  0  0  0  0  0  0  0  0  0
  189.1860  177.2620  145.7740 C   0  0  0  0  0  3  0  0  0  0  0  0
  188.5890  177.6520  148.1080 N   0  0  0  0  0  1  0  0  0  0  0  0
  187.5640  177.6870  144.0380 C   0  0  0  0  0  0  0  0  0  0  0  0
  186.9990  178.0400  146.3430 N   0  0  0  0  0  0  0  0  0  0  0  0
  188.8380  177.2630  144.4230 C   0  0  0  0  0  3  0  0  0  0  0  0
  188.1830  177.6520  141.6290 N   0  0  0  0  0  0  0  0  0  0  0  0
  187.0910  177.6030  142.6080 C   0  0  2  0  0  3  0  0  0  0  0  0
  184.9670  178.7020  143.3610 C   0  0  0  0  0  3  0  0  0  0  0  0
  185.5310  178.4730  140.9020 C   0  0  2  0  0  3  0  0  0  0  0  0
  186.6620  178.4430  139.9750 N   0  0  0  0  0  2  0  0  0  0  0  0
  185.2650  178.4560  144.6430 C   0  0  0  0  0  3  0  0  0  0  0  0
  189.0850  177.9480  139.4050 C   0  0  1  0  0  3  0  0  0  0  0  0
  188.9820  179.1640  138.4910 C   0  0  0  0  0  1  0  0  0  0  0  0
  190.3130  177.9370  140.0880 O   0  0  0  0  0  0  0  0  0  0  0  0
  191.2380  177.3530  139.2130 C   0  0  1  0  0  3  0  0  0  0  0  0
  192.5790  177.2420  139.9100 C   0  0  0  0  0  1  0  0  0  0  0  0
  190.7890  175.9520  138.7850 C   0  0  0  0  0  2  0  0  0  0  0  0
  191.3210  175.5080  137.4870 N   0  0  0  0  0  0  0  0  0  0  0  0
  192.4620  173.9710  135.3970 C   0  0  0  0  0  2  0  0  0  0  0  0
  192.6650  174.9810  137.7210 C   0  0  0  0  0  2  0  0  0  0  0  0
  190.4370  174.5140  136.8200 C   0  0  2  0  0  3  0  0  0  0  0  0
  191.1990  173.4140  136.0550 C   0  0  0  0  0  2  0  0  0  0  0  0
  193.3650  174.7060  136.3920 C   0  0  0  0  0  2  0  0  0  0  0  0
  189.7370  176.6710  135.6500 C   0  0  0  0  0  2  0  0  0  0  0  0
  189.3940  175.1870  135.9190 C   0  0  2  0  0  3  0  0  0  0  0  0
  185.5820  175.8590  137.3440 Cl  0  0  0  0  0  0  0  0  0  0  0  0
  187.3670  177.2830  135.9290 C   0  0  0  0  0  3  0  0  0  0  0  0
  187.2830  176.2050  136.9680 C   0  0  2  0  0  3  0  0  0  0  0  0
  188.5280  177.4900  135.2940 C   0  0  0  0  0  3  0  0  0  0  0  0
  187.9600  174.9320  136.4470 C   0  0  0  0  0  2  0  0  0  0  0  0
  184.6120  179.5380  140.5220 N   0  0  0  0  0  2  0  0  0  0  0  0
  182.6210  176.5820  139.7130 C   0  0  0  0  0  3  0  0  0  0  0  0
  181.9320  177.0010  138.4330 C   0  0  0  0  0  0  0  0  0  0  0  0
  181.8240  175.8080  137.5030 C   0  0  0  0  0  1  0  0  0  0  0  0
  183.4170  178.9910  138.4620 C   0  0  0  0  0  3  0  0  0  0  0  0
  183.3260  177.4740  140.4320 C   0  0  0  0  0  3  0  0  0  0  0  0
  183.4180  178.9080  139.9720 C   0  0  1  0  0  3  0  0  0  0  0  0
  180.5370  177.5020  138.7480 C   0  0  0  0  0  1  0  0  0  0  0  0
  182.7130  178.1000  137.7450 C   0  0  0  0  0  3  0  0  0  0  0  0
  1  6  1  0  0  0  0
  2 11  1  0  0  0  0
  2 12  1  1  0  0  0
  3 10  2  0  0  0  0
  4  8  2  0  0  0  0
  5  1  2  0  0  0  0
  7  9  2  0  0  0  0
  7  4  1  0  0  0  0
  8  1  1  0  0  0  0
  9  5  1  0  0  0  0
 11 10  1  6  0  0  0
 11  7  1  0  0  0  0
 12 15  2  0  0  0  0
 13 35  1  6  0  0  0
 13  2  1  0  0  0  0
 14  3  1  0  0  0  0
 14 13  1  0  0  0  0
 15  4  1  0  0  0  0
 16 17  1  6  0  0  0
 16 18  1  0  0  0  0
 16  3  1  0  0  0  0
 19 20  1  1  0  0  0
 19 18  1  0  0  0  0
 21 19  1  0  0  0  0
 22 24  1  0  0  0  0
 22 21  1  0  0  0  0
 23 26  1  0  0  0  0
 23 27  1  0  0  0  0
 25 26  1  6  0  0  0
 25 22  1  0  0  0  0
 27 24  1  0  0  0  0
 29 28  1  1  0  0  0
 29 34  1  0  0  0  0
 29 25  1  0  0  0  0
 31 32  1  0  0  0  0
 32 30  1  6  0  0  0
 33 28  1  0  0  0  0
 33 31  2  0  0  0  0
 34 32  1  0  0  0  0
 36 40  2  0  0  0  0
 37 42  1  0  0  0  0
 37 36  1  0  0  0  0
 38 37  1  0  0  0  0
 39 41  1  0  0  0  0
 41 40  1  0  0  0  0
 41 35  1  6  0  0  0
 43 37  1  0  0  0  0
 43 39  2  0  0  0  0
M  END
>  <MODEL>
7

>  <REMARK>
 VINA RESULT:      -8.4      1.738      2.862
  Name = 
  8 active torsions:
  status: ('A' for Active; 'I' for Inactive)
    1  A    between atoms: N_1  and  C_34
    2  A    between atoms: N_1  and  C_35
    3  A    between atoms: C_2  and  O_6
    4  A    between atoms: C_2  and  C_13
    5  A    between atoms: C_3  and  N_4
    6  A    between atoms: C_3  and  C_12
    7  A    between atoms: O_6  and  C_12
    8  A    between atoms: C_14  and  C_22
                            x       y       z     vdW  Elec       q    Type
                         _______ _______ _______ _____ _____    ______ ____

>  <TORSDO>
F 8

$$$$
=
 OpenBabel10272414093D

 43 48  0  0  1  0  0  0  0  0999 V2000
  191.0490  176.8610  146.6260 C   0  0  0  0  0  0  0  0  0  0  0  0
  189.5540  177.3680  141.8450 C   0  0  2  0  0  3  0  0  0  0  0  0
  186.8710  178.1780  142.0220 C   0  0  0  0  0  0  0  0  0  0  0  0
  191.0250  177.1920  144.2750 C   0  0  0  0  0  0  0  0  0  0  0  0
  189.7270  177.3010  146.7230 C   0  0  0  0  0  3  0  0  0  0  0  0
  191.7540  176.4640  147.7950 N   0  0  0  0  0  1  0  0  0  0  0  0
  189.6860  177.6250  144.3310 C   0  0  0  0  0  0  0  0  0  0  0  0
  191.6710  176.8260  145.4170 N   0  0  0  0  0  0  0  0  0  0  0  0
  189.0470  177.6980  145.5710 C   0  0  0  0  0  3  0  0  0  0  0  0
  187.5790  178.1380  143.1130 N   0  0  0  0  0  0  0  0  0  0  0  0
  189.0460  178.1450  143.0690 C   0  0  2  0  0  3  0  0  0  0  0  0
  191.0590  177.3080  141.8310 C   0  0  0  0  0  3  0  0  0  0  0  0
  188.9650  178.0280  140.6030 C   0  0  2  0  0  3  0  0  0  0  0  0
  187.5080  178.0750  140.7340 N   0  0  0  0  0  2  0  0  0  0  0  0
  191.7370  177.1710  142.9780 C   0  0  0  0  0  3  0  0  0  0  0  0
  185.3820  178.2380  142.1090 C   0  0  1  0  0  3  0  0  0  0  0  0
  184.9750  178.5740  143.5390 C   0  0  0  0  0  1  0  0  0  0  0  0
  184.8920  179.1990  141.2080 O   0  0  0  0  0  0  0  0  0  0  0  0
  183.8970  178.5570  140.4600 C   0  0  1  0  0  3  0  0  0  0  0  0
  182.5870  178.6190  141.2210 C   0  0  0  0  0  1  0  0  0  0  0  0
  183.7060  179.2330  139.0970 C   0  0  0  0  0  2  0  0  0  0  0  0
  182.3140  179.5920  138.7820 N   0  0  0  0  0  0  0  0  0  0  0  0
  180.0000  180.7710  137.6470 C   0  0  0  0  0  2  0  0  0  0  0  0
  182.2040  181.0480  138.8830 C   0  0  0  0  0  2  0  0  0  0  0  0
  181.8850  179.0870  137.4500 C   0  0  2  0  0  3  0  0  0  0  0  0
  180.9500  180.0490  136.6900 C   0  0  0  0  0  2  0  0  0  0  0  0
  180.7420  181.4760  138.7860 C   0  0  0  0  0  2  0  0  0  0  0  0
  180.5560  177.4510  138.8880 C   0  0  0  0  0  2  0  0  0  0  0  0
  181.2750  177.6830  137.5380 C   0  0  2  0  0  3  0  0  0  0  0  0
  183.7430  174.3870  137.7690 Cl  0  0  0  0  0  0  0  0  0  0  0  0
  181.4960  175.1770  139.0100 C   0  0  0  0  0  3  0  0  0  0  0  0
  182.7230  175.7220  138.3430 C   0  0  2  0  0  3  0  0  0  0  0  0
  180.4640  175.9950  139.2510 C   0  0  0  0  0  3  0  0  0  0  0  0
  182.3170  176.6030  137.1560 C   0  0  0  0  0  2  0  0  0  0  0  0
  189.3270  177.2790  139.4070 N   0  0  0  0  0  2  0  0  0  0  0  0
  187.4340  176.1010  136.5110 C   0  0  0  0  0  3  0  0  0  0  0  0
  186.9410  177.3960  135.9030 C   0  0  0  0  0  0  0  0  0  0  0  0
  186.9520  177.2810  134.3910 C   0  0  0  0  0  1  0  0  0  0  0  0
  188.4320  178.5480  137.5200 C   0  0  0  0  0  3  0  0  0  0  0  0
  188.0410  176.0980  137.7110 C   0  0  0  0  0  3  0  0  0  0  0  0
  188.2160  177.3910  138.4690 C   0  0  1  0  0  3  0  0  0  0  0  0
  185.5220  177.6630  136.3620 C   0  0  0  0  0  1  0  0  0  0  0  0
  187.8260  178.5490  136.3210 C   0  0  0  0  0  3  0  0  0  0  0  0
  1  5  1  0  0  0  0
  1  6  1  0  0  0  0
  2 12  1  6  0  0  0
  2 11  1  0  0  0  0
  3 16  1  0  0  0  0
  3 10  2  0  0  0  0
  4  7  2  0  0  0  0
  4  8  1  0  0  0  0
  7  9  1  0  0  0  0
  8  1  2  0  0  0  0
  9  5  2  0  0  0  0
 11 10  1  1  0  0  0
 11  7  1  0  0  0  0
 12 15  2  0  0  0  0
 13 35  1  6  0  0  0
 13 14  1  0  0  0  0
 13  2  1  0  0  0  0
 14  3  1  0  0  0  0
 15  4  1  0  0  0  0
 16 17  1  1  0  0  0
 18 16  1  0  0  0  0
 19 18  1  0  0  0  0
 19 20  1  1  0  0  0
 21 19  1  0  0  0  0
 22 24  1  0  0  0  0
 22 21  1  0  0  0  0
 23 27  1  0  0  0  0
 25 26  1  1  0  0  0
 25 29  1  0  0  0  0
 25 22  1  0  0  0  0
 26 23  1  0  0  0  0
 27 24  1  0  0  0  0
 28 33  1  0  0  0  0
 29 34  1  1  0  0  0
 29 28  1  0  0  0  0
 31 33  2  0  0  0  0
 32 30  1  6  0  0  0
 32 31  1  0  0  0  0
 34 32  1  0  0  0  0
 36 40  2  0  0  0  0
 37 43  1  0  0  0  0
 37 42  1  0  0  0  0
 37 36  1  0  0  0  0
 38 37  1  0  0  0  0
 39 41  1  0  0  0  0
 40 41  1  0  0  0  0
 41 35  1  1  0  0  0
 43 39  2  0  0  0  0
M  END
>  <MODEL>
8

>  <REMARK>
 VINA RESULT:      -8.4      2.337      5.544
  Name = 
  8 active torsions:
  status: ('A' for Active; 'I' for Inactive)
    1  A    between atoms: N_1  and  C_34
    2  A    between atoms: N_1  and  C_35
    3  A    between atoms: C_2  and  O_6
    4  A    between atoms: C_2  and  C_13
    5  A    between atoms: C_3  and  N_4
    6  A    between atoms: C_3  and  C_12
    7  A    between atoms: O_6  and  C_12
    8  A    between atoms: C_14  and  C_22
                            x       y       z     vdW  Elec       q    Type
                         _______ _______ _______ _____ _____    ______ ____

>  <TORSDO>
F 8

$$$$
=
 OpenBabel10272414093D

 43 48  0  0  1  0  0  0  0  0999 V2000
  195.7300  172.8760  137.3800 C   0  0  0  0  0  0  0  0  0  0  0  0
  190.8730  174.1540  137.0200 C   0  0  2  0  0  3  0  0  0  0  0  0
  190.5980  176.3780  138.7130 C   0  0  0  0  0  0  0  0  0  0  0  0
  193.5050  173.1550  136.5990 C   0  0  0  0  0  0  0  0  0  0  0  0
  195.6100  174.0040  138.1930 C   0  0  0  0  0  3  0  0  0  0  0  0
  196.9490  172.1440  137.3560 N   0  0  0  0  0  1  0  0  0  0  0  0
  193.3410  174.2890  137.4190 C   0  0  0  0  0  0  0  0  0  0  0  0
  194.6900  172.4820  136.5970 N   0  0  0  0  0  0  0  0  0  0  0  0
  194.4130  174.7220  138.2020 C   0  0  0  0  0  3  0  0  0  0  0  0
  191.7950  175.9330  138.4650 N   0  0  0  0  0  0  0  0  0  0  0  0
  192.0650  175.0830  137.2990 C   0  0  2  0  0  3  0  0  0  0  0  0
  191.1710  173.2270  135.8700 C   0  0  0  0  0  3  0  0  0  0  0  0
  189.6490  175.0320  136.7860 C   0  0  2  0  0  3  0  0  0  0  0  0
  189.4730  175.9200  137.9350 N   0  0  0  0  0  2  0  0  0  0  0  0
  192.4010  172.7220  135.7150 C   0  0  0  0  0  3  0  0  0  0  0  0
  190.3740  177.2950  139.8690 C   0  0  1  0  0  3  0  0  0  0  0  0
  189.1310  178.1390  139.6070 C   0  0  0  0  0  1  0  0  0  0  0  0
  190.2320  176.5460  141.0490 O   0  0  0  0  0  0  0  0  0  0  0  0
  191.2720  176.9540  141.8950 C   0  0  1  0  0  3  0  0  0  0  0  0
  192.3450  177.6350  141.0680 C   0  0  0  0  0  1  0  0  0  0  0  0
  190.7690  177.9410  142.9550 C   0  0  0  0  0  2  0  0  0  0  0  0
  190.3880  177.3230  144.2350 N   0  0  0  0  0  0  0  0  0  0  0  0
  189.9730  176.8120  146.9920 C   0  0  0  0  0  2  0  0  0  0  0  0
  191.5790  177.3030  145.0840 C   0  0  0  0  0  2  0  0  0  0  0  0
  189.2460  178.0200  144.8850 C   0  0  2  0  0  3  0  0  0  0  0  0
  189.3490  178.0870  146.4220 C   0  0  0  0  0  2  0  0  0  0  0  0
  191.3200  176.4800  146.3420 C   0  0  0  0  0  2  0  0  0  0  0  0
  187.4250  178.0270  143.0980 C   0  0  0  0  0  2  0  0  0  0  0  0
  187.8960  177.4400  144.4500 C   0  0  2  0  0  3  0  0  0  0  0  0
  184.4820  178.3830  146.5630 Cl  0  0  0  0  0  0  0  0  0  0  0  0
  185.1240  178.2010  143.9610 C   0  0  0  0  0  3  0  0  0  0  0  0
  185.7230  178.5110  145.3000 C   0  0  2  0  0  3  0  0  0  0  0  0
  185.9340  177.9540  142.9230 C   0  0  0  0  0  3  0  0  0  0  0  0
  186.8600  177.5270  145.5980 C   0  0  0  0  0  2  0  0  0  0  0  0
  188.4580  174.2110  136.6130 N   0  0  0  0  0  2  0  0  0  0  0  0
  184.8710  174.8220  136.9600 C   0  0  0  0  0  3  0  0  0  0  0  0
  184.6500  175.9740  136.0040 C   0  0  0  0  0  0  0  0  0  0  0  0
  183.3030  175.8150  135.3240 C   0  0  0  0  0  1  0  0  0  0  0  0
  186.9820  175.5960  135.2430 C   0  0  0  0  0  3  0  0  0  0  0  0
  186.1170  174.4070  137.2500 C   0  0  0  0  0  3  0  0  0  0  0  0
  187.3060  175.1040  136.6360 C   0  0  1  0  0  3  0  0  0  0  0  0
  184.6560  177.2800  136.7740 C   0  0  0  0  0  1  0  0  0  0  0  0
  185.7370  176.0100  134.9540 C   0  0  0  0  0  3  0  0  0  0  0  0
  1  5  1  0  0  0  0
  2 12  1  6  0  0  0
  2 11  1  0  0  0  0
  3 16  1  0  0  0  0
  4  7  2  0  0  0  0
  5  9  2  0  0  0  0
  6  1  1  0  0  0  0
  7  9  1  0  0  0  0
  8  4  1  0  0  0  0
  8  1  2  0  0  0  0
 10  3  2  0  0  0  0
 11  7  1  1  0  0  0
 11 10  1  0  0  0  0
 13 35  1  1  0  0  0
 13  2  1  0  0  0  0
 13 14  1  0  0  0  0
 14  3  1  0  0  0  0
 15 12  2  0  0  0  0
 15  4  1  0  0  0  0
 16 17  1  6  0  0  0
 16 18  1  0  0  0  0
 18 19  1  0  0  0  0
 19 20  1  6  0  0  0
 19 21  1  0  0  0  0
 21 22  1  0  0  0  0
 22 25  1  0  0  0  0
 22 24  1  0  0  0  0
 24 27  1  0  0  0  0
 25 26  1  1  0  0  0
 26 23  1  0  0  0  0
 27 23  1  0  0  0  0
 29 28  1  6  0  0  0
 29 25  1  0  0  0  0
 29 34  1  0  0  0  0
 31 32  1  0  0  0  0
 32 34  1  0  0  0  0
 32 30  1  1  0  0  0
 33 28  1  0  0  0  0
 33 31  2  0  0  0  0
 36 40  2  0  0  0  0
 37 42  1  0  0  0  0
 37 36  1  0  0  0  0
 38 37  1  0  0  0  0
 39 41  1  0  0  0  0
 41 35  1  6  0  0  0
 41 40  1  0  0  0  0
 43 39  2  0  0  0  0
 43 37  1  0  0  0  0
M  END
>  <MODEL>
9

>  <REMARK>
 VINA RESULT:      -8.0      3.487      8.667
  Name = 
  8 active torsions:
  status: ('A' for Active; 'I' for Inactive)
    1  A    between atoms: N_1  and  C_34
    2  A    between atoms: N_1  and  C_35
    3  A    between atoms: C_2  and  O_6
    4  A    between atoms: C_2  and  C_13
    5  A    between atoms: C_3  and  N_4
    6  A    between atoms: C_3  and  C_12
    7  A    between atoms: O_6  and  C_12
    8  A    between atoms: C_14  and  C_22
                            x       y       z     vdW  Elec       q    Type
                         _______ _______ _______ _____ _____    ______ ____

>  <TORSDO>
F 8

$$$$
