=
 OpenBabel10272413283D

 32 36  0  0  0  0  0  0  0  0999 V2000
  186.2920  178.2410  143.1000 C   0  0  0  0  0  0  0  0  0  0  0  0
  189.5140  176.9420  139.4460 S   0  0  0  0  0  0  0  0  0  0  0  0
  190.5510  176.6610  140.9430 C   0  0  0  0  0  2  0  0  0  0  0  0
  186.8750  177.7740  145.4940 C   0  0  0  0  0  0  0  0  0  0  0  0
  187.8710  177.4740  146.4190 C   0  0  0  0  0  0  0  0  0  0  0  0
  183.9980  178.7140  142.3880 C   0  0  0  0  0  0  0  0  0  0  0  0
  185.7820  178.6850  140.7550 C   0  0  0  0  0  3  0  0  0  0  0  0
  189.9230  177.0270  147.2430 C   0  0  0  0  0  0  0  0  0  0  0  0
  188.5590  178.4000  140.0100 C   0  0  0  0  0  2  0  0  0  0  0  0
  186.7210  178.3850  141.7550 C   0  0  0  0  0  0  0  0  0  0  0  0
  188.0750  178.2270  141.4210 C   0  0  0  0  0  0  0  0  0  0  0  0
  188.6180  177.7810  143.7520 C   0  0  0  0  0  0  0  0  0  0  0  0
  189.1520  176.9820  148.2820 N   0  0  0  0  0  0  0  0  0  0  0  0
  184.4290  178.8430  141.0580 C   0  0  0  0  0  0  0  0  0  0  0  0
  187.7650  177.2570  147.8920 C   0  0  0  0  0  2  0  0  0  0  0  0
  190.4470  177.7600  141.9940 C   0  0  0  0  0  2  0  0  0  0  0  0
  189.0150  177.9300  142.4120 C   0  0  0  0  0  0  0  0  0  0  0  0
  189.5840  177.4770  144.7320 C   0  0  0  0  0  3  0  0  0  0  0  0
  184.9260  178.4100  143.3860 C   0  0  0  0  0  3  0  0  0  0  0  0
  185.5650  177.9040  145.9440 O   0  0  0  0  0  1  0  0  0  0  0  0
  191.3910  176.7900  147.3090 C   0  0  0  0  0  1  0  0  0  0  0  0
  187.2380  177.9350  144.1190 C   0  0  0  0  0  0  0  0  0  0  0  0
  189.1740  177.3320  146.0480 C   0  0  0  0  0  0  0  0  0  0  0  0
  182.4050  178.7990  144.2710 C   0  0  0  0  0  1  0  0  0  0  0  0
  182.5610  178.8670  142.7640 C   0  0  0  0  0  2  0  0  0  0  0  0
  183.4800  179.1860  139.9550 C   0  0  0  0  0  2  0  0  0  0  0  0
  183.0790  177.9800  139.2470 N   0  0  0  0  0  2  0  0  0  0  0  0
  183.5090  178.1310  137.8680 C   0  0  0  0  0  2  0  0  0  0  0  0
  185.8790  177.4650  137.3400 C   0  0  0  0  0  0  0  0  0  0  0  0
  184.5110  177.1250  137.5610 N   0  0  0  0  0  2  0  0  0  0  0  0
  186.7970  176.4640  137.0510 O   0  0  0  0  0  0  0  0  0  0  0  0
  186.2610  178.6630  137.4050 O   0  0  0  0  0  1  0  0  0  0  0  0
  1 19  1  0  0  0  0
  1 22  1  0  0  0  0
  2  9  1  0  0  0  0
  2  3  1  0  0  0  0
  3 16  1  0  0  0  0
  4 20  1  0  0  0  0
  4  5  1  0  0  0  0
  5 15  1  0  0  0  0
  6 25  1  0  0  0  0
  6 19  2  0  0  0  0
  7 14  2  0  0  0  0
  7 10  1  0  0  0  0
  8 21  1  0  0  0  0
  8 13  2  0  0  0  0
  9 11  1  0  0  0  0
 10  1  2  0  0  0  0
 11 10  1  0  0  0  0
 11 17  2  0  0  0  0
 12 22  1  0  0  0  0
 12 18  2  0  0  0  0
 14  6  1  0  0  0  0
 15 13  1  0  0  0  0
 16 17  1  0  0  0  0
 17 12  1  0  0  0  0
 18 23  1  0  0  0  0
 22  4  2  0  0  0  0
 23  5  2  0  0  0  0
 23  8  1  0  0  0  0
 25 24  1  0  0  0  0
 26 14  1  0  0  0  0
 27 26  1  0  0  0  0
 28 27  1  0  0  0  0
 29 32  1  0  0  0  0
 29 30  1  0  0  0  0
 30 28  1  0  0  0  0
 31 29  2  0  0  0  0
M  END
>  <MODEL>
1

>  <REMARK>
 VINA RESULT:      -9.7      0.000      0.000
  Name = 
  5 active torsions:
  status: ('A' for Active; 'I' for Inactive)
    1  A    between atoms: N_2  and  C_12
    2  A    between atoms: N_2  and  C_24
    3  A    between atoms: C_8  and  C_23
    4  A    between atoms: N_10  and  C_24
    5  A    between atoms: C_12  and  C_21
                            x       y       z     vdW  Elec       q    Type
                         _______ _______ _______ _____ _____    ______ ____

>  <TORSDO>
F 5

$$$$
=
 OpenBabel10272413283D

 32 36  0  0  0  0  0  0  0  0999 V2000
  186.4070  178.2250  142.8910 C   0  0  0  0  0  0  0  0  0  0  0  0
  189.3730  176.9840  139.0080 S   0  0  0  0  0  0  0  0  0  0  0  0
  190.5030  176.6620  140.4280 C   0  0  0  0  0  2  0  0  0  0  0  0
  187.1380  177.7000  145.2320 C   0  0  0  0  0  0  0  0  0  0  0  0
  188.1900  177.3720  146.0830 C   0  0  0  0  0  0  0  0  0  0  0  0
  184.0760  178.7320  142.3400 C   0  0  0  0  0  0  0  0  0  0  0  0
  185.7500  178.7260  140.5940 C   0  0  0  0  0  3  0  0  0  0  0  0
  190.2870  176.8900  146.7620 C   0  0  0  0  0  0  0  0  0  0  0  0
  188.4700  178.4370  139.6650 C   0  0  0  0  0  2  0  0  0  0  0  0
  186.7480  178.3970  141.5240 C   0  0  0  0  0  0  0  0  0  0  0  0
  188.0770  178.2360  141.1000 C   0  0  0  0  0  0  0  0  0  0  0  0
  188.7650  177.7340  143.3800 C   0  0  0  0  0  0  0  0  0  0  0  0
  189.5840  176.8280  147.8480 N   0  0  0  0  0  0  0  0  0  0  0  0
  184.4210  178.8880  140.9880 C   0  0  0  0  0  0  0  0  0  0  0  0
  188.1770  177.1220  147.5550 C   0  0  0  0  0  2  0  0  0  0  0  0
  190.4770  177.7370  141.5070 C   0  0  0  0  0  2  0  0  0  0  0  0
  189.0770  177.9090  142.0210 C   0  0  0  0  0  0  0  0  0  0  0  0
  189.7900  177.3990  144.2890 C   0  0  0  0  0  3  0  0  0  0  0  0
  185.0640  178.3990  143.2690 C   0  0  0  0  0  3  0  0  0  0  0  0
  185.8610  177.8300  145.7680 O   0  0  0  0  0  1  0  0  0  0  0  0
  191.7530  176.6410  146.7270 C   0  0  0  0  0  1  0  0  0  0  0  0
  187.4130  177.8900  143.8390 C   0  0  0  0  0  0  0  0  0  0  0  0
  189.4640  177.2280  145.6250 C   0  0  0  0  0  0  0  0  0  0  0  0
  182.6180  178.8640  144.3270 C   0  0  0  0  0  1  0  0  0  0  0  0
  182.6670  178.8880  142.8110 C   0  0  0  0  0  2  0  0  0  0  0  0
  183.4060  179.2630  139.9560 C   0  0  0  0  0  2  0  0  0  0  0  0
  183.9110  178.9640  138.6260 N   0  0  0  0  0  2  0  0  0  0  0  0
  182.8810  178.2050  137.9390 C   0  0  0  0  0  2  0  0  0  0  0  0
  183.2220  175.7580  138.4200 C   0  0  0  0  0  0  0  0  0  0  0  0
  183.4020  176.8970  137.5810 N   0  0  0  0  0  2  0  0  0  0  0  0
  183.7390  174.5290  138.0310 O   0  0  0  0  0  0  0  0  0  0  0  0
  182.6010  175.8560  139.5110 O   0  0  0  0  0  1  0  0  0  0  0  0
  1 19  1  0  0  0  0
  1 22  1  0  0  0  0
  2  9  1  0  0  0  0
  2  3  1  0  0  0  0
  3 16  1  0  0  0  0
  4 20  1  0  0  0  0
  4  5  1  0  0  0  0
  5 15  1  0  0  0  0
  6 25  1  0  0  0  0
  6 19  2  0  0  0  0
  7 14  2  0  0  0  0
  7 10  1  0  0  0  0
  8 13  2  0  0  0  0
  9 11  1  0  0  0  0
 10  1  2  0  0  0  0
 11 10  1  0  0  0  0
 11 17  2  0  0  0  0
 12 22  1  0  0  0  0
 12 18  2  0  0  0  0
 14  6  1  0  0  0  0
 15 13  1  0  0  0  0
 16 17  1  0  0  0  0
 17 12  1  0  0  0  0
 18 23  1  0  0  0  0
 21  8  1  0  0  0  0
 22  4  2  0  0  0  0
 23  5  2  0  0  0  0
 23  8  1  0  0  0  0
 25 24  1  0  0  0  0
 26 14  1  0  0  0  0
 27 26  1  0  0  0  0
 28 27  1  0  0  0  0
 29 32  1  0  0  0  0
 30 28  1  0  0  0  0
 30 29  1  0  0  0  0
 31 29  2  0  0  0  0
M  END
>  <MODEL>
2

>  <REMARK>
 VINA RESULT:      -9.7      1.320      1.356
  Name = 
  5 active torsions:
  status: ('A' for Active; 'I' for Inactive)
    1  A    between atoms: N_2  and  C_12
    2  A    between atoms: N_2  and  C_24
    3  A    between atoms: C_8  and  C_23
    4  A    between atoms: N_10  and  C_24
    5  A    between atoms: C_12  and  C_21
                            x       y       z     vdW  Elec       q    Type
                         _______ _______ _______ _____ _____    ______ ____

>  <TORSDO>
F 5

$$$$
=
 OpenBabel10272413283D

 32 36  0  0  0  0  0  0  0  0999 V2000
  186.2350  178.2330  142.7110 C   0  0  0  0  0  0  0  0  0  0  0  0
  189.3490  176.9370  138.9650 S   0  0  0  0  0  0  0  0  0  0  0  0
  190.4320  176.6610  140.4310 C   0  0  0  0  0  2  0  0  0  0  0  0
  186.8890  177.7710  145.0880 C   0  0  0  0  0  0  0  0  0  0  0  0
  187.9130  177.4750  145.9830 C   0  0  0  0  0  0  0  0  0  0  0  0
  183.9190  178.7000  142.0670 C   0  0  0  0  0  0  0  0  0  0  0  0
  185.6540  178.6730  140.3820 C   0  0  0  0  0  3  0  0  0  0  0  0
  189.9900  177.0340  146.7460 C   0  0  0  0  0  0  0  0  0  0  0  0
  188.4080  178.3940  139.5550 C   0  0  0  0  0  2  0  0  0  0  0  0
  186.6220  178.3770  141.3540 C   0  0  0  0  0  0  0  0  0  0  0  0
  187.9670  178.2220  140.9800 C   0  0  0  0  0  0  0  0  0  0  0  0
  188.5800  177.7810  143.2940 C   0  0  0  0  0  0  0  0  0  0  0  0
  189.2500  176.9880  147.8080 N   0  0  0  0  0  0  0  0  0  0  0  0
  184.3100  178.8280  140.7250 C   0  0  0  0  0  0  0  0  0  0  0  0
  187.8510  177.2590  147.4590 C   0  0  0  0  0  2  0  0  0  0  0  0
  190.3560  177.7610  141.4830 C   0  0  0  0  0  2  0  0  0  0  0  0
  188.9370  177.9280  141.9430 C   0  0  0  0  0  0  0  0  0  0  0  0
  189.5760  177.4800  144.2460 C   0  0  0  0  0  3  0  0  0  0  0  0
  184.8770  178.3990  143.0370 C   0  0  0  0  0  3  0  0  0  0  0  0
  185.5920  177.8980  145.5760 O   0  0  0  0  0  1  0  0  0  0  0  0
  191.4590  176.8010  146.7690 C   0  0  0  0  0  1  0  0  0  0  0  0
  187.2110  177.9310  143.7020 C   0  0  0  0  0  0  0  0  0  0  0  0
  189.2050  177.3360  145.5730 C   0  0  0  0  0  0  0  0  0  0  0  0
  182.3900  178.8500  143.9990 C   0  0  0  0  0  1  0  0  0  0  0  0
  182.4930  178.8500  142.4850 C   0  0  0  0  0  2  0  0  0  0  0  0
  183.3280  179.1680  139.6500 C   0  0  0  0  0  2  0  0  0  0  0  0
  183.6910  180.4270  139.0200 N   0  0  0  0  0  2  0  0  0  0  0  0
  182.4540  181.1300  138.7270 C   0  0  0  0  0  2  0  0  0  0  0  0
  181.8300  183.3500  137.7170 C   0  0  0  0  0  0  0  0  0  0  0  0
  182.7470  182.5220  138.4300 N   0  0  0  0  0  2  0  0  0  0  0  0
  182.1570  184.6750  137.4600 O   0  0  0  0  0  1  0  0  0  0  0  0
  180.7270  182.8910  137.3180 O   0  0  0  0  0  0  0  0  0  0  0  0
  1 19  1  0  0  0  0
  1 22  1  0  0  0  0
  2  9  1  0  0  0  0
  2  3  1  0  0  0  0
  3 16  1  0  0  0  0
  4 20  1  0  0  0  0
  4  5  1  0  0  0  0
  5 15  1  0  0  0  0
  6 25  1  0  0  0  0
  6 19  2  0  0  0  0
  7 14  2  0  0  0  0
  7 10  1  0  0  0  0
  8 21  1  0  0  0  0
  8 13  2  0  0  0  0
  9 11  1  0  0  0  0
 10  1  2  0  0  0  0
 11 10  1  0  0  0  0
 11 17  2  0  0  0  0
 12 22  1  0  0  0  0
 12 18  2  0  0  0  0
 14  6  1  0  0  0  0
 15 13  1  0  0  0  0
 16 17  1  0  0  0  0
 17 12  1  0  0  0  0
 18 23  1  0  0  0  0
 22  4  2  0  0  0  0
 23  5  2  0  0  0  0
 23  8  1  0  0  0  0
 25 24  1  0  0  0  0
 26 14  1  0  0  0  0
 27 26  1  0  0  0  0
 28 27  1  0  0  0  0
 29 30  1  0  0  0  0
 30 28  1  0  0  0  0
 31 29  1  0  0  0  0
 32 29  2  0  0  0  0
M  END
>  <MODEL>
3

>  <REMARK>
 VINA RESULT:      -9.6      2.275      2.761
  Name = 
  5 active torsions:
  status: ('A' for Active; 'I' for Inactive)
    1  A    between atoms: N_2  and  C_12
    2  A    between atoms: N_2  and  C_24
    3  A    between atoms: C_8  and  C_23
    4  A    between atoms: N_10  and  C_24
    5  A    between atoms: C_12  and  C_21
                            x       y       z     vdW  Elec       q    Type
                         _______ _______ _______ _____ _____    ______ ____

>  <TORSDO>
F 5

$$$$
=
 OpenBabel10272413283D

 32 36  0  0  0  0  0  0  0  0999 V2000
  186.8070  178.0730  142.7580 C   0  0  0  0  0  0  0  0  0  0  0  0
  191.7020  177.7240  143.9140 S   0  0  0  0  0  0  0  0  0  0  0  0
  191.7720  177.6580  142.0740 C   0  0  0  0  0  2  0  0  0  0  0  0
  186.1160  178.4190  140.3720 C   0  0  0  0  0  0  0  0  0  0  0  0
  186.4740  178.3510  139.0280 C   0  0  0  0  0  0  0  0  0  0  0  0
  185.2940  178.5190  144.6290 C   0  0  0  0  0  0  0  0  0  0  0  0
  187.5350  177.7210  145.0610 C   0  0  0  0  0  3  0  0  0  0  0  0
  187.7360  177.9850  137.1940 C   0  0  0  0  0  0  0  0  0  0  0  0
  190.1360  176.8140  144.1890 C   0  0  0  0  0  2  0  0  0  0  0  0
  187.8080  177.6810  143.6840 C   0  0  0  0  0  0  0  0  0  0  0  0
  189.0680  177.2580  143.2310 C   0  0  0  0  0  0  0  0  0  0  0  0
  188.3730  177.5970  140.9230 C   0  0  0  0  0  0  0  0  0  0  0  0
  186.6060  178.4040  136.7190 N   0  0  0  0  0  0  0  0  0  0  0  0
  186.2940  178.1420  145.5390 C   0  0  0  0  0  0  0  0  0  0  0  0
  185.6720  178.6870  137.8140 C   0  0  0  0  0  3  0  0  0  0  0  0
  190.7140  176.7650  141.4370 C   0  0  0  0  0  2  0  0  0  0  0  0
  189.3460  177.2140  141.8620 C   0  0  0  0  0  0  0  0  0  0  0  0
  188.6800  177.5490  139.5470 C   0  0  0  0  0  3  0  0  0  0  0  0
  185.5610  178.4870  143.2590 C   0  0  0  0  0  2  0  0  0  0  0  0
  184.8370  178.8570  140.7000 O   0  0  0  0  0  1  0  0  0  0  0  0
  188.8920  177.6140  136.3340 C   0  0  0  0  0  1  0  0  0  0  0  0
  187.0780  178.0360  141.3610 C   0  0  0  0  0  0  0  0  0  0  0  0
  187.7080  177.9310  138.6360 C   0  0  0  0  0  0  0  0  0  0  0  0
  182.9470  178.8840  143.9560 C   0  0  0  0  0  1  0  0  0  0  0  0
  183.9500  178.9830  145.0890 C   0  0  0  0  0  2  0  0  0  0  0  0
  186.0520  178.1400  147.0150 C   0  0  0  0  0  2  0  0  0  0  0  0
  187.0620  178.9420  147.6870 N   0  0  0  0  0  2  0  0  0  0  0  0
  187.7790  178.0580  148.5890 C   0  0  0  0  0  2  0  0  0  0  0  0
  190.0030  177.1930  147.7880 C   0  0  0  0  0  0  0  0  0  0  0  0
  189.2090  178.2160  148.3870 N   0  0  0  0  0  2  0  0  0  0  0  0
  191.3660  177.3940  147.6150 O   0  0  0  0  0  1  0  0  0  0  0  0
  189.4800  176.1100  147.4150 O   0  0  0  0  0  0  0  0  0  0  0  0
  1 19  1  0  0  0  0
  1 10  1  0  0  0  0
  2  9  1  0  0  0  0
  3  2  1  0  0  0  0
  4 20  1  0  0  0  0
  4 22  1  0  0  0  0
  5  4  2  0  0  0  0
  6 25  1  0  0  0  0
  6 14  2  0  0  0  0
  7 14  1  0  0  0  0
  8 23  2  0  0  0  0
 10  7  2  0  0  0  0
 11 10  1  0  0  0  0
 11  9  1  0  0  0  0
 12 22  1  0  0  0  0
 12 17  1  0  0  0  0
 13  8  1  0  0  0  0
 13 15  2  0  0  0  0
 14 26  1  0  0  0  0
 15  5  1  0  0  0  0
 16 17  1  0  0  0  0
 16  3  1  0  0  0  0
 17 11  2  0  0  0  0
 18 12  2  0  0  0  0
 19  6  1  0  0  0  0
 21  8  1  0  0  0  0
 22  1  2  0  0  0  0
 23  5  1  0  0  0  0
 23 18  1  0  0  0  0
 24 25  1  0  0  0  0
 26 27  1  0  0  0  0
 27 28  1  0  0  0  0
 29 30  1  0  0  0  0
 30 28  1  0  0  0  0
 31 29  1  0  0  0  0
 32 29  2  0  0  0  0
M  END
>  <MODEL>
4

>  <REMARK>
 VINA RESULT:      -9.0      2.194      7.117
  Name = 
  5 active torsions:
  status: ('A' for Active; 'I' for Inactive)
    1  A    between atoms: N_2  and  C_12
    2  A    between atoms: N_2  and  C_24
    3  A    between atoms: C_8  and  C_23
    4  A    between atoms: N_10  and  C_24
    5  A    between atoms: C_12  and  C_21
                            x       y       z     vdW  Elec       q    Type
                         _______ _______ _______ _____ _____    ______ ____

>  <TORSDO>
F 5

$$$$
=
 OpenBabel10272413283D

 32 36  0  0  0  0  0  0  0  0999 V2000
  188.1560  177.8100  141.3120 C   0  0  0  0  0  0  0  0  0  0  0  0
  191.8990  175.7320  143.9750 S   0  0  0  0  0  0  0  0  0  0  0  0
  190.7100  176.1590  145.3170 C   0  0  0  0  0  2  0  0  0  0  0  0
  185.9730  178.3280  142.4330 C   0  0  0  0  0  0  0  0  0  0  0  0
  185.2890  178.5240  143.6300 C   0  0  0  0  0  0  0  0  0  0  0  0
  188.3680  177.6720  138.8770 C   0  0  0  0  0  0  0  0  0  0  0  0
  190.3060  177.2990  140.2760 C   0  0  0  0  0  2  0  0  0  0  0  0
  184.9220  178.6930  145.8490 C   0  0  0  0  0  0  0  0  0  0  0  0
  191.6070  177.1490  142.8510 C   0  0  0  0  0  2  0  0  0  0  0  0
  189.5390  177.5140  141.4320 C   0  0  0  0  0  0  0  0  0  0  0  0
  190.1400  177.4340  142.6980 C   0  0  0  0  0  0  0  0  0  0  0  0
  188.0120  177.9430  143.7630 C   0  0  0  0  0  0  0  0  0  0  0  0
  183.7620  178.9220  145.3210 N   0  0  0  0  0  0  0  0  0  0  0  0
  189.7330  177.3680  139.0050 C   0  0  0  0  0  0  0  0  0  0  0  0
  183.8490  178.8430  143.8590 C   0  0  0  0  0  3  0  0  0  0  0  0
  190.0770  177.5380  145.1790 C   0  0  0  0  0  2  0  0  0  0  0  0
  189.3830  177.6500  143.8530 C   0  0  0  0  0  0  0  0  0  0  0  0
  187.2680  178.1510  144.9430 C   0  0  0  0  0  3  0  0  0  0  0  0
  187.5990  177.8810  140.0240 C   0  0  0  0  0  3  0  0  0  0  0  0
  185.2680  178.4300  141.2370 O   0  0  0  0  0  1  0  0  0  0  0  0
  185.1620  178.7010  147.3170 C   0  0  0  0  0  1  0  0  0  0  0  0
  187.3720  178.0280  142.4800 C   0  0  0  0  0  0  0  0  0  0  0  0
  185.9170  178.4380  144.8350 C   0  0  0  0  0  0  0  0  0  0  0  0
  186.2580  178.1770  137.7000 C   0  0  0  0  0  1  0  0  0  0  0  0
  187.7050  177.7510  137.5410 C   0  0  0  0  0  2  0  0  0  0  0  0
  190.6050  177.1530  137.8100 C   0  0  0  0  0  2  0  0  0  0  0  0
  191.4990  176.0300  138.0390 N   0  0  0  0  0  2  0  0  0  0  0  0
  192.5750  176.1360  137.0690 C   0  0  0  0  0  2  0  0  0  0  0  0
  194.5080  174.8350  138.0220 C   0  0  0  0  0  0  0  0  0  0  0  0
  193.8540  176.0740  137.7560 N   0  0  0  0  0  2  0  0  0  0  0  0
  195.7300  174.8310  138.6810 O   0  0  0  0  0  1  0  0  0  0  0  0
  193.9880  173.7450  137.6660 O   0  0  0  0  0  0  0  0  0  0  0  0
  1 10  1  0  0  0  0
  1 22  1  0  0  0  0
  2  3  1  0  0  0  0
  4 22  2  0  0  0  0
  4  5  1  0  0  0  0
  5 15  2  0  0  0  0
  5 23  1  0  0  0  0
  6 14  2  0  0  0  0
  6 19  1  0  0  0  0
  7 10  1  0  0  0  0
  8 21  1  0  0  0  0
  9  2  1  0  0  0  0
 10 11  2  0  0  0  0
 11  9  1  0  0  0  0
 11 17  1  0  0  0  0
 12 17  2  0  0  0  0
 12 18  1  0  0  0  0
 13  8  2  0  0  0  0
 14  7  1  0  0  0  0
 15 13  1  0  0  0  0
 16  3  1  0  0  0  0
 17 16  1  0  0  0  0
 19  1  2  0  0  0  0
 20  4  1  0  0  0  0
 22 12  1  0  0  0  0
 23 18  2  0  0  0  0
 23  8  1  0  0  0  0
 25 24  1  0  0  0  0
 25  6  1  0  0  0  0
 26 27  1  0  0  0  0
 26 14  1  0  0  0  0
 28 30  1  0  0  0  0
 28 27  1  0  0  0  0
 29 31  1  0  0  0  0
 30 29  1  0  0  0  0
 32 29  2  0  0  0  0
M  END
>  <MODEL>
5

>  <REMARK>
 VINA RESULT:      -8.5      3.794      5.871
  Name = 
  5 active torsions:
  status: ('A' for Active; 'I' for Inactive)
    1  A    between atoms: N_2  and  C_12
    2  A    between atoms: N_2  and  C_24
    3  A    between atoms: C_8  and  C_23
    4  A    between atoms: N_10  and  C_24
    5  A    between atoms: C_12  and  C_21
                            x       y       z     vdW  Elec       q    Type
                         _______ _______ _______ _____ _____    ______ ____

>  <TORSDO>
F 5

$$$$
=
 OpenBabel10272413283D

 32 36  0  0  0  0  0  0  0  0999 V2000
  188.7530  177.8020  140.9390 C   0  0  0  0  0  0  0  0  0  0  0  0
  183.8380  178.2160  141.9780 S   0  0  0  0  0  0  0  0  0  0  0  0
  183.8010  178.1500  140.1370 C   0  0  0  0  0  2  0  0  0  0  0  0
  189.4900  177.2890  138.5970 C   0  0  0  0  0  0  0  0  0  0  0  0
  189.1570  177.2600  137.2450 C   0  0  0  0  0  0  0  0  0  0  0  0
  190.2330  177.4960  142.8650 C   0  0  0  0  0  0  0  0  0  0  0  0
  187.9820  178.3150  143.1970 C   0  0  0  0  0  3  0  0  0  0  0  0
  187.9280  177.4900  135.3670 C   0  0  0  0  0  0  0  0  0  0  0  0
  185.3960  179.1490  142.2150 C   0  0  0  0  0  2  0  0  0  0  0  0
  187.7350  178.2560  141.8170 C   0  0  0  0  0  0  0  0  0  0  0  0
  186.4830  178.6410  141.3110 C   0  0  0  0  0  0  0  0  0  0  0  0
  187.2210  178.1410  139.0470 C   0  0  0  0  0  0  0  0  0  0  0  0
  189.0670  177.0410  134.9440 N   0  0  0  0  0  0  0  0  0  0  0  0
  189.2160  177.9340  143.7270 C   0  0  0  0  0  0  0  0  0  0  0  0
  189.9810  176.8410  136.0740 C   0  0  0  0  0  3  0  0  0  0  0  0
  184.8690  178.9990  139.4570 C   0  0  0  0  0  2  0  0  0  0  0  0
  186.2300  178.5860  139.9370 C   0  0  0  0  0  0  0  0  0  0  0  0
  186.9390  178.0900  137.6660 C   0  0  0  0  0  3  0  0  0  0  0  0
  189.9910  177.4290  141.4910 C   0  0  0  0  0  2  0  0  0  0  0  0
  190.7630  176.8790  138.9790 O   0  0  0  0  0  1  0  0  0  0  0  0
  186.7870  177.7940  134.4620 C   0  0  0  0  0  1  0  0  0  0  0  0
  188.5090  177.7380  139.5380 C   0  0  0  0  0  0  0  0  0  0  0  0
  187.9280  177.6460  136.8020 C   0  0  0  0  0  0  0  0  0  0  0  0
  191.5450  175.5970  143.7400 C   0  0  0  0  0  1  0  0  0  0  0  0
  191.5690  177.0700  143.3810 C   0  0  0  0  0  2  0  0  0  0  0  0
  189.4300  178.0420  145.2030 C   0  0  0  0  0  2  0  0  0  0  0  0
  188.6650  177.0170  145.8950 N   0  0  0  0  0  2  0  0  0  0  0  0
  187.7920  177.6970  146.8350 C   0  0  0  0  0  2  0  0  0  0  0  0
  185.5050  178.7320  146.6450 C   0  0  0  0  0  0  0  0  0  0  0  0
  186.4330  177.6980  146.3210 N   0  0  0  0  0  2  0  0  0  0  0  0
  184.2180  178.6870  146.1260 O   0  0  0  0  0  0  0  0  0  0  0  0
  185.8410  179.6830  147.3990 O   0  0  0  0  0  1  0  0  0  0  0  0
  1 19  1  0  0  0  0
  1 10  1  0  0  0  0
  2  9  1  0  0  0  0
  3  2  1  0  0  0  0
  4 20  1  0  0  0  0
  4 22  1  0  0  0  0
  5  4  2  0  0  0  0
  6 25  1  0  0  0  0
  6 14  2  0  0  0  0
  7 14  1  0  0  0  0
  8 23  2  0  0  0  0
 10  7  2  0  0  0  0
 11 10  1  0  0  0  0
 11  9  1  0  0  0  0
 12 22  1  0  0  0  0
 12 17  1  0  0  0  0
 13  8  1  0  0  0  0
 13 15  2  0  0  0  0
 14 26  1  0  0  0  0
 15  5  1  0  0  0  0
 16 17  1  0  0  0  0
 16  3  1  0  0  0  0
 17 11  2  0  0  0  0
 18 12  2  0  0  0  0
 19  6  1  0  0  0  0
 21  8  1  0  0  0  0
 22  1  2  0  0  0  0
 23  5  1  0  0  0  0
 23 18  1  0  0  0  0
 25 24  1  0  0  0  0
 26 27  1  0  0  0  0
 27 28  1  0  0  0  0
 29 32  1  0  0  0  0
 30 29  1  0  0  0  0
 30 28  1  0  0  0  0
 31 29  2  0  0  0  0
M  END
>  <MODEL>
6

>  <REMARK>
 VINA RESULT:      -8.5      2.760      8.160
  Name = 
  5 active torsions:
  status: ('A' for Active; 'I' for Inactive)
    1  A    between atoms: N_2  and  C_12
    2  A    between atoms: N_2  and  C_24
    3  A    between atoms: C_8  and  C_23
    4  A    between atoms: N_10  and  C_24
    5  A    between atoms: C_12  and  C_21
                            x       y       z     vdW  Elec       q    Type
                         _______ _______ _______ _____ _____    ______ ____

>  <TORSDO>
F 5

$$$$
=
 OpenBabel10272413283D

 32 36  0  0  0  0  0  0  0  0999 V2000
  188.2290  177.8540  141.2590 C   0  0  0  0  0  0  0  0  0  0  0  0
  191.8470  175.7890  144.0980 S   0  0  0  0  0  0  0  0  0  0  0  0
  190.5780  176.1770  145.3770 C   0  0  0  0  0  2  0  0  0  0  0  0
  185.9780  178.3220  142.2620 C   0  0  0  0  0  0  0  0  0  0  0  0
  185.2250  178.4890  143.4210 C   0  0  0  0  0  0  0  0  0  0  0  0
  188.5800  177.7570  138.8390 C   0  0  0  0  0  0  0  0  0  0  0  0
  190.4410  177.3900  140.3390 C   0  0  0  0  0  2  0  0  0  0  0  0
  184.7300  178.6180  145.6180 C   0  0  0  0  0  0  0  0  0  0  0  0
  191.5970  177.2190  142.9810 C   0  0  0  0  0  2  0  0  0  0  0  0
  189.6070  177.5770  141.4520 C   0  0  0  0  0  0  0  0  0  0  0  0
  190.1370  177.4850  142.7490 C   0  0  0  0  0  0  0  0  0  0  0  0
  187.9440  177.9460  143.7000 C   0  0  0  0  0  0  0  0  0  0  0  0
  183.5980  178.8380  145.0290 N   0  0  0  0  0  0  0  0  0  0  0  0
  189.9400  177.4710  139.0390 C   0  0  0  0  0  0  0  0  0  0  0  0
  183.7690  178.7840  143.5730 C   0  0  0  0  0  3  0  0  0  0  0  0
  189.9330  177.5490  145.2240 C   0  0  0  0  0  2  0  0  0  0  0  0
  189.3120  177.6710  143.8630 C   0  0  0  0  0  0  0  0  0  0  0  0
  187.1320  178.1250  144.8390 C   0  0  0  0  0  3  0  0  0  0  0  0
  187.7440  177.9370  139.9430 C   0  0  0  0  0  3  0  0  0  0  0  0
  185.3400  178.4320  141.0300 O   0  0  0  0  0  1  0  0  0  0  0  0
  184.8870  178.6070  147.0980 C   0  0  0  0  0  1  0  0  0  0  0  0
  187.3760  178.0420  142.3840 C   0  0  0  0  0  0  0  0  0  0  0  0
  185.7850  178.3940  144.6580 C   0  0  0  0  0  0  0  0  0  0  0  0
  186.4780  177.8290  137.5470 C   0  0  0  0  0  1  0  0  0  0  0  0
  187.9920  177.8470  137.4680 C   0  0  0  0  0  2  0  0  0  0  0  0
  190.8810  177.2880  137.8920 C   0  0  0  0  0  2  0  0  0  0  0  0
  191.8310  176.2270  138.1890 N   0  0  0  0  0  2  0  0  0  0  0  0
  191.7260  175.2490  137.1200 C   0  0  0  0  0  2  0  0  0  0  0  0
  189.5470  174.0290  136.8060 C   0  0  0  0  0  0  0  0  0  0  0  0
  190.7790  174.2160  137.5010 N   0  0  0  0  0  2  0  0  0  0  0  0
  188.6770  173.0250  137.2080 O   0  0  0  0  0  1  0  0  0  0  0  0
  189.2420  174.7670  135.8310 O   0  0  0  0  0  0  0  0  0  0  0  0
  1 10  1  0  0  0  0
  1 22  1  0  0  0  0
  2  3  1  0  0  0  0
  4 22  2  0  0  0  0
  4  5  1  0  0  0  0
  5 15  2  0  0  0  0
  5 23  1  0  0  0  0
  6 14  2  0  0  0  0
  6 19  1  0  0  0  0
  7 10  1  0  0  0  0
  8 21  1  0  0  0  0
  9  2  1  0  0  0  0
 10 11  2  0  0  0  0
 11  9  1  0  0  0  0
 11 17  1  0  0  0  0
 12 17  2  0  0  0  0
 12 18  1  0  0  0  0
 13  8  2  0  0  0  0
 14  7  1  0  0  0  0
 15 13  1  0  0  0  0
 16  3  1  0  0  0  0
 17 16  1  0  0  0  0
 19  1  2  0  0  0  0
 20  4  1  0  0  0  0
 22 12  1  0  0  0  0
 23 18  2  0  0  0  0
 23  8  1  0  0  0  0
 25 24  1  0  0  0  0
 25  6  1  0  0  0  0
 26 27  1  0  0  0  0
 26 14  1  0  0  0  0
 28 30  1  0  0  0  0
 28 27  1  0  0  0  0
 29 31  1  0  0  0  0
 29 30  1  0  0  0  0
 32 29  2  0  0  0  0
M  END
>  <MODEL>
7

>  <REMARK>
 VINA RESULT:      -8.3      3.051      5.337
  Name = 
  5 active torsions:
  status: ('A' for Active; 'I' for Inactive)
    1  A    between atoms: N_2  and  C_12
    2  A    between atoms: N_2  and  C_24
    3  A    between atoms: C_8  and  C_23
    4  A    between atoms: N_10  and  C_24
    5  A    between atoms: C_12  and  C_21
                            x       y       z     vdW  Elec       q    Type
                         _______ _______ _______ _____ _____    ______ ____

>  <TORSDO>
F 5

$$$$
=
 OpenBabel10272413283D

 32 36  0  0  0  0  0  0  0  0999 V2000
  189.5420  177.4030  141.8910 C   0  0  0  0  0  0  0  0  0  0  0  0
  185.0040  179.5530  141.4460 S   0  0  0  0  0  0  0  0  0  0  0  0
  185.1170  179.3510  143.2740 C   0  0  0  0  0  2  0  0  0  0  0  0
  190.5760  177.1420  144.1600 C   0  0  0  0  0  0  0  0  0  0  0  0
  190.3840  177.1240  145.5390 C   0  0  0  0  0  0  0  0  0  0  0  0
  190.8610  177.2490  139.8340 C   0  0  0  0  0  0  0  0  0  0  0  0
  188.4820  177.6670  139.7080 C   0  0  0  0  0  3  0  0  0  0  0  0
  189.3180  177.2310  147.5240 C   0  0  0  0  0  0  0  0  0  0  0  0
  185.8850  178.0360  140.9190 C   0  0  0  0  0  2  0  0  0  0  0  0
  188.3800  177.6300  141.1070 C   0  0  0  0  0  0  0  0  0  0  0  0
  187.1340  177.8190  141.7250 C   0  0  0  0  0  0  0  0  0  0  0  0
  188.1590  177.5590  143.9170 C   0  0  0  0  0  0  0  0  0  0  0  0
  190.5540  177.0100  147.8430 N   0  0  0  0  0  0  0  0  0  0  0  0
  189.7090  177.4870  139.0680 C   0  0  0  0  0  0  0  0  0  0  0  0
  191.3780  176.9160  146.6330 C   0  0  0  0  0  2  0  0  0  0  0  0
  185.6690  178.0040  143.7230 C   0  0  0  0  0  2  0  0  0  0  0  0
  187.0250  177.7820  143.1190 C   0  0  0  0  0  0  0  0  0  0  0  0
  188.0240  177.5300  145.3210 C   0  0  0  0  0  3  0  0  0  0  0  0
  190.7670  177.2170  141.2270 C   0  0  0  0  0  3  0  0  0  0  0  0
  191.8610  176.9450  143.6630 O   0  0  0  0  0  1  0  0  0  0  0  0
  188.2330  177.3770  148.5310 C   0  0  0  0  0  1  0  0  0  0  0  0
  189.4460  177.3650  143.3100 C   0  0  0  0  0  0  0  0  0  0  0  0
  189.1540  177.3110  146.0930 C   0  0  0  0  0  0  0  0  0  0  0  0
  193.2990  177.2950  140.2140 C   0  0  0  0  0  1  0  0  0  0  0  0
  192.1980  177.0560  139.1980 C   0  0  0  0  0  2  0  0  0  0  0  0
  189.7510  177.5130  137.5730 C   0  0  0  0  0  2  0  0  0  0  0  0
  188.9380  178.6070  137.0690 N   0  0  0  0  0  2  0  0  0  0  0  0
  188.0840  178.0610  136.0290 C   0  0  0  0  0  2  0  0  0  0  0  0
  186.0540  176.9630  137.0360 C   0  0  0  0  0  0  0  0  0  0  0  0
  186.6990  178.1020  136.4690 N   0  0  0  0  0  2  0  0  0  0  0  0
  184.7300  177.0550  137.4420 O   0  0  0  0  0  1  0  0  0  0  0  0
  186.6740  175.8750  137.1710 O   0  0  0  0  0  0  0  0  0  0  0  0
  1 22  1  0  0  0  0
  2  3  1  0  0  0  0
  3 16  1  0  0  0  0
  4  5  1  0  0  0  0
  5 23  2  0  0  0  0
  5 15  1  0  0  0  0
  6 19  2  0  0  0  0
  7 10  1  0  0  0  0
  8 13  2  0  0  0  0
  8 21  1  0  0  0  0
  9  2  1  0  0  0  0
  9 11  1  0  0  0  0
 10 11  1  0  0  0  0
 10  1  2  0  0  0  0
 11 17  2  0  0  0  0
 12 18  2  0  0  0  0
 14  7  2  0  0  0  0
 14  6  1  0  0  0  0
 15 13  1  0  0  0  0
 17 16  1  0  0  0  0
 17 12  1  0  0  0  0
 18 23  1  0  0  0  0
 19  1  1  0  0  0  0
 20  4  1  0  0  0  0
 22 12  1  0  0  0  0
 22  4  2  0  0  0  0
 23  8  1  0  0  0  0
 25  6  1  0  0  0  0
 25 24  1  0  0  0  0
 26 14  1  0  0  0  0
 27 26  1  0  0  0  0
 28 30  1  0  0  0  0
 28 27  1  0  0  0  0
 29 32  2  0  0  0  0
 29 31  1  0  0  0  0
 30 29  1  0  0  0  0
M  END
>  <MODEL>
8

>  <REMARK>
 VINA RESULT:      -8.2      2.257      4.852
  Name = 
  5 active torsions:
  status: ('A' for Active; 'I' for Inactive)
    1  A    between atoms: N_2  and  C_12
    2  A    between atoms: N_2  and  C_24
    3  A    between atoms: C_8  and  C_23
    4  A    between atoms: N_10  and  C_24
    5  A    between atoms: C_12  and  C_21
                            x       y       z     vdW  Elec       q    Type
                         _______ _______ _______ _____ _____    ______ ____

>  <TORSDO>
F 5

$$$$
=
 OpenBabel10272413283D

 32 36  0  0  1  0  0  0  0  0999 V2000
  187.0300  177.8340  143.3740 C   0  0  0  0  0  0  0  0  0  0  0  0
  192.0050  177.2600  142.7970 S   0  0  0  0  0  0  0  0  0  0  0  0
  191.4750  177.4910  141.0470 C   0  0  0  0  0  2  0  0  0  0  0  0
  185.6300  178.5670  141.4270 C   0  0  0  0  0  0  0  0  0  0  0  0
  185.5310  178.7130  140.0450 C   0  0  0  0  0  0  0  0  0  0  0  0
  186.2300  177.9870  145.6820 C   0  0  0  0  0  0  0  0  0  0  0  0
  188.4380  177.1100  145.2310 C   0  0  0  0  0  3  0  0  0  0  0  0
  186.1100  178.6370  137.8670 C   0  0  0  0  0  0  0  0  0  0  0  0
  190.5590  176.3310  143.4300 C   0  0  0  0  0  2  0  0  0  0  0  0
  188.2510  177.2890  143.8520 C   0  0  0  0  0  0  0  0  0  0  0  0
  189.2680  176.9340  142.9530 C   0  0  0  0  0  0  0  0  0  0  0  0
  187.8900  177.6460  141.0780 C   0  0  0  0  0  0  0  0  0  0  0  0
  184.9160  179.1370  137.8560 N   0  0  0  0  0  0  0  0  0  0  0  0
  187.4450  177.4590  146.1470 C   0  0  0  0  0  0  0  0  0  0  0  0
  184.4040  179.2480  139.2260 C   0  0  0  0  0  3  0  0  0  0  0  0
  190.2160  176.7220  140.6660 C   0  0  0  0  0  2  0  0  0  0  0  0
  189.0880  177.1090  141.5780 C   0  0  1  0  0  3  0  0  0  0  0  0
  187.7330  177.8180  139.6870 C   0  0  0  0  0  3  0  0  0  0  0  0
  186.0400  178.1740  144.3120 C   0  0  0  0  0  3  0  0  0  0  0  0
  184.5540  178.9580  142.2180 O   0  0  0  0  0  1  0  0  0  0  0  0
  186.9030  178.3990  136.6300 C   0  0  0  0  0  1  0  0  0  0  0  0
  186.8340  178.0210  141.9770 C   0  0  0  0  0  0  0  0  0  0  0  0
  186.5460  178.3510  139.2130 C   0  0  0  0  0  0  0  0  0  0  0  0
  183.9080  178.8100  145.8420 C   0  0  0  0  0  1  0  0  0  0  0  0
  185.1380  178.3820  146.6210 C   0  0  0  0  0  2  0  0  0  0  0  0
  187.6920  177.2210  147.6030 C   0  0  0  0  0  2  0  0  0  0  0  0
  188.3350  178.3820  148.1960 N   0  0  0  0  0  2  0  0  0  0  0  0
  189.7160  178.3820  147.7460 C   0  0  0  0  0  2  0  0  0  0  0  0
  191.4400  176.5810  147.4000 C   0  0  0  0  0  0  0  0  0  0  0  0
  190.3530  177.1370  148.1370 N   0  0  0  0  0  2  0  0  0  0  0  0
  192.0160  175.3890  147.8170 O   0  0  0  0  0  1  0  0  0  0  0  0
  191.8830  177.1620  146.3730 O   0  0  0  0  0  0  0  0  0  0  0  0
  1 10  1  0  0  0  0
  1 19  1  0  0  0  0
  2  9  1  0  0  0  0
  3  2  1  0  0  0  0
  4 22  1  0  0  0  0
  4 20  1  0  0  0  0
  5  4  2  0  0  0  0
  6 14  1  0  0  0  0
  6 25  1  0  0  0  0
  7 14  2  0  0  0  0
  8 23  2  0  0  0  0
 10  7  1  0  0  0  0
 11  9  1  0  0  0  0
 11 10  2  0  0  0  0
 12 17  1  0  0  0  0
 12 22  1  0  0  0  0
 13  8  1  0  0  0  0
 13 15  2  0  0  0  0
 14 26  1  0  0  0  0
 15  5  1  0  0  0  0
 16  3  1  0  0  0  0
 17 16  1  1  0  0  0
 17 11  1  0  0  0  0
 18 12  2  0  0  0  0
 19  6  2  0  0  0  0
 21  8  1  0  0  0  0
 22  1  2  0  0  0  0
 23 18  1  0  0  0  0
 23  5  1  0  0  0  0
 24 25  1  0  0  0  0
 26 27  1  0  0  0  0
 28 30  1  0  0  0  0
 28 27  1  0  0  0  0
 29 31  1  0  0  0  0
 29 30  1  0  0  0  0
 32 29  2  0  0  0  0
M  END
>  <MODEL>
9

>  <REMARK>
 VINA RESULT:      -8.1      2.306      7.230
  Name = 
  5 active torsions:
  status: ('A' for Active; 'I' for Inactive)
    1  A    between atoms: N_2  and  C_12
    2  A    between atoms: N_2  and  C_24
    3  A    between atoms: C_8  and  C_23
    4  A    between atoms: N_10  and  C_24
    5  A    between atoms: C_12  and  C_21
                            x       y       z     vdW  Elec       q    Type
                         _______ _______ _______ _____ _____    ______ ____

>  <TORSDO>
F 5

$$$$
