=
 OpenBabel10272402093D

 32 35  0  0  1  0  0  0  0  0999 V2000
  190.8260  177.3310  141.1110 C   0  0  1  0  0  3  0  0  0  0  0  0
  188.9110  176.4670  139.5110 C   0  0  0  0  0  2  0  0  0  0  0  0
  192.3380  177.3060  141.3310 C   0  0  0  0  0  2  0  0  0  0  0  0
  190.3430  176.9440  139.6830 C   0  0  2  0  0  0  0  0  0  0  0  0
  189.6890  175.4550  136.9880 C   0  0  0  0  0  2  0  0  0  0  0  0
  188.5890  177.7010  136.7790 N   0  0  0  0  0  0  0  0  0  0  0  0
  191.3800  176.6650  138.5370 C   0  0  2  0  0  3  0  0  0  0  0  0
  189.4500  176.6990  136.1310 C   0  0  0  0  0  2  0  0  0  0  0  0
  191.0780  175.4310  137.6450 C   0  0  2  0  0  3  0  0  0  0  0  0
  192.8280  176.6290  139.0380 C   0  0  0  0  0  2  0  0  0  0  0  0
  189.2290  177.9340  139.2860 C   0  0  1  0  0  3  0  0  0  0  0  0
  193.0870  177.6980  140.0770 C   0  0  0  0  0  2  0  0  0  0  0  0
  189.3380  178.4300  137.8190 C   0  0  0  0  0  2  0  0  0  0  0  0
  192.8560  173.9540  136.8260 N   0  0  0  0  0  2  0  0  0  0  0  0
  191.8360  174.0290  135.7730 C   0  0  0  0  0  2  0  0  0  0  0  0
  192.1440  175.2160  136.5680 C   0  0  1  0  0  3  0  0  0  0  0  0
  186.3390  178.3680  137.5310 C   0  0  0  0  0  1  0  0  0  0  0  0
  187.2570  177.2040  137.1780 C   0  0  1  0  0  3  0  0  0  0  0  0
  185.9690  175.1450  136.5960 C   0  0  0  0  0  1  0  0  0  0  0  0
  186.6110  176.4070  136.0500 C   0  0  0  0  0  2  0  0  0  0  0  0
  191.0940  175.8210  143.0720 C   0  0  0  0  0  1  0  0  0  0  0  0
  190.0940  176.6760  142.3010 C   0  0  1  0  0  3  0  0  0  0  0  0
  189.3930  177.6470  143.1770 N   0  0  0  0  0  0  0  0  0  0  0  0
  189.5250  178.0600  145.6100 C   0  0  0  0  0  1  0  0  0  0  0  0
  190.2450  178.1380  144.2770 C   0  0  2  0  0  3  0  0  0  0  0  0
  190.7260  179.4320  144.0450 O   0  0  0  0  0  1  0  0  0  0  0  0
  188.2580  176.9780  143.8120 C   0  0  0  0  0  2  0  0  0  0  0  0
  186.9300  177.4440  143.2110 C   0  0  1  0  0  3  0  0  0  0  0  0
  185.9930  178.0300  144.2580 C   0  0  0  0  0  2  0  0  0  0  0  0
  186.1220  177.3380  145.4470 F   0  0  0  0  0  0  0  0  0  0  0  0
  185.5990  179.0370  141.5250 S   0  0  0  0  0  1  0  0  0  0  0  0
  187.1420  178.3640  142.0920 N   0  0  0  0  0  2  0  0  0  0  0  0
  1  3  1  0  0  0  0
  1 22  1  1  0  0  0
  4  2  1  1  0  0  0
  4  1  1  0  0  0  0
  6 18  1  0  0  0  0
  6 13  1  0  0  0  0
  7 10  1  1  0  0  0
  7  4  1  0  0  0  0
  8  6  1  0  0  0  0
  8  5  1  0  0  0  0
  9  5  1  6  0  0  0
  9  7  1  0  0  0  0
 10 12  1  0  0  0  0
 11 13  1  6  0  0  0
 11  2  1  0  0  0  0
 11  4  1  0  0  0  0
 12  3  1  0  0  0  0
 15 14  1  0  0  0  0
 16 15  1  6  0  0  0
 16 14  1  0  0  0  0
 16  9  1  0  0  0  0
 18 17  1  6  0  0  0
 20 19  1  0  0  0  0
 20 18  1  0  0  0  0
 22 21  1  1  0  0  0
 22 23  1  0  0  0  0
 23 27  1  0  0  0  0
 23 25  1  0  0  0  0
 25 24  1  1  0  0  0
 26 25  1  0  0  0  0
 28 27  1  1  0  0  0
 28 29  1  0  0  0  0
 29 30  1  0  0  0  0
 31 32  1  0  0  0  0
 32 28  1  0  0  0  0
M  END
>  <MODEL>
1

>  <REMARK>
 VINA RESULT:      -5.9      0.000      0.000
  Name = 
  10 active torsions:
  status: ('A' for Active; 'I' for Inactive)
    1  A    between atoms: C_1  and  C_27
    2  A    between atoms: C_3  and  C_7
    3  A    between atoms: C_7  and  C_20
    4  A    between atoms: C_7  and  N_26
    5  A    between atoms: N_10  and  C_12
    6  A    between atoms: C_12  and  C_31
    7  A    between atoms: N_16  and  C_20
    8  A    between atoms: N_16  and  C_22
    9  A    between atoms: N_16  and  C_27
   10  A    between atoms: C_18  and  C_29
                            x       y       z     vdW  Elec       q    Type
                         _______ _______ _______ _____ _____    ______ ____

>  <TORSDO>
F 10

$$$$
=
 OpenBabel10272402093D

 32 35  0  0  1  0  0  0  0  0999 V2000
  190.4950  176.7890  142.1700 C   0  0  1  0  0  3  0  0  0  0  0  0
  188.5530  178.3720  143.0040 C   0  0  0  0  0  2  0  0  0  0  0  0
  191.6950  175.9730  142.6480 C   0  0  0  0  0  2  0  0  0  0  0  0
  189.4690  177.1890  143.2690 C   0  0  2  0  0  0  0  0  0  0  0  0
  188.0140  178.4100  145.7800 C   0  0  0  0  0  2  0  0  0  0  0  0
  186.2210  177.1960  144.5110 N   0  0  0  0  0  0  0  0  0  0  0  0
  189.6310  176.6690  144.7420 C   0  0  2  0  0  3  0  0  0  0  0  0
  186.8430  177.4270  145.8240 C   0  0  0  0  0  2  0  0  0  0  0  0
  189.3850  177.7210  145.8560 C   0  0  2  0  0  3  0  0  0  0  0  0
  190.9560  175.9350  144.9730 C   0  0  0  0  0  2  0  0  0  0  0  0
  188.0560  176.9740  142.6860 C   0  0  1  0  0  3  0  0  0  0  0  0
  191.3240  175.0590  143.7950 C   0  0  0  0  0  2  0  0  0  0  0  0
  187.0690  176.3150  143.6850 C   0  0  0  0  0  2  0  0  0  0  0  0
  190.7140  177.8170  147.9150 N   0  0  0  0  0  2  0  0  0  0  0  0
  189.3330  178.1620  148.2740 C   0  0  0  0  0  2  0  0  0  0  0  0
  189.5830  177.1410  147.2590 C   0  0  1  0  0  3  0  0  0  0  0  0
  184.8500  178.0450  142.6480 C   0  0  0  0  0  1  0  0  0  0  0  0
  185.7220  178.4130  143.8420 C   0  0  1  0  0  3  0  0  0  0  0  0
  183.4130  179.1120  144.4900 C   0  0  0  0  0  1  0  0  0  0  0  0
  184.8910  179.2610  144.8010 C   0  0  0  0  0  2  0  0  0  0  0  0
  192.4650  178.0110  141.2620 C   0  0  0  0  0  1  0  0  0  0  0  0
  190.9460  177.8960  141.1950 C   0  0  1  0  0  3  0  0  0  0  0  0
  190.4590  177.7020  139.8070 N   0  0  0  0  0  0  0  0  0  0  0  0
  188.1090  177.2330  139.2040 C   0  0  0  0  0  1  0  0  0  0  0  0
  189.1260  178.2930  139.5840 C   0  0  2  0  0  3  0  0  0  0  0  0
  189.1490  179.3250  138.6380 O   0  0  0  0  0  1  0  0  0  0  0  0
  190.3150  176.2690  139.5510 C   0  0  0  0  0  2  0  0  0  0  0  0
  190.9540  175.8740  138.2170 C   0  0  1  0  0  3  0  0  0  0  0  0
  192.4750  175.8760  138.2800 C   0  0  0  0  0  2  0  0  0  0  0  0
  192.9660  177.0740  137.7980 F   0  0  0  0  0  0  0  0  0  0  0  0
  191.5900  173.8110  136.6400 S   0  0  0  0  0  1  0  0  0  0  0  0
  190.4290  174.5980  137.7290 N   0  0  0  0  0  2  0  0  0  0  0  0
  1 22  1  1  0  0  0
  1  3  1  0  0  0  0
  1  4  1  0  0  0  0
  3 12  1  0  0  0  0
  4  2  1  1  0  0  0
  4  7  1  0  0  0  0
  5  8  1  0  0  0  0
  6  8  1  0  0  0  0
  7 10  1  6  0  0  0
  7  9  1  0  0  0  0
  9  5  1  1  0  0  0
  9 16  1  0  0  0  0
 11  2  1  1  0  0  0
 11  4  1  0  0  0  0
 11 13  1  0  0  0  0
 12 10  1  0  0  0  0
 13  6  1  0  0  0  0
 14 15  1  0  0  0  0
 16 14  1  0  0  0  0
 16 15  1  1  0  0  0
 18 17  1  6  0  0  0
 18  6  1  0  0  0  0
 18 20  1  0  0  0  0
 19 20  1  0  0  0  0
 22 21  1  6  0  0  0
 23 22  1  0  0  0  0
 25 24  1  6  0  0  0
 25 23  1  0  0  0  0
 26 25  1  0  0  0  0
 27 23  1  0  0  0  0
 28 29  1  1  0  0  0
 28 27  1  0  0  0  0
 30 29  1  0  0  0  0
 31 32  1  0  0  0  0
 32 28  1  0  0  0  0
M  END
>  <MODEL>
2

>  <REMARK>
 VINA RESULT:      -5.0      3.290      7.363
  Name = 
  10 active torsions:
  status: ('A' for Active; 'I' for Inactive)
    1  A    between atoms: C_1  and  C_27
    2  A    between atoms: C_3  and  C_7
    3  A    between atoms: C_7  and  C_20
    4  A    between atoms: C_7  and  N_26
    5  A    between atoms: N_10  and  C_12
    6  A    between atoms: C_12  and  C_31
    7  A    between atoms: N_16  and  C_20
    8  A    between atoms: N_16  and  C_22
    9  A    between atoms: N_16  and  C_27
   10  A    between atoms: C_18  and  C_29
                            x       y       z     vdW  Elec       q    Type
                         _______ _______ _______ _____ _____    ______ ____

>  <TORSDO>
F 10

$$$$
=
 OpenBabel10272402093D

 32 35  0  0  1  0  0  0  0  0999 V2000
  190.1340  177.2180  142.1040 C   0  0  1  0  0  3  0  0  0  0  0  0
  188.7430  176.4740  139.9870 C   0  0  0  0  0  2  0  0  0  0  0  0
  191.5580  177.3700  142.6380 C   0  0  0  0  0  2  0  0  0  0  0  0
  190.0000  177.1080  140.5580 C   0  0  2  0  0  0  0  0  0  0  0  0
  190.1420  176.2100  137.5440 C   0  0  0  0  0  2  0  0  0  0  0  0
  188.6800  178.2510  137.5510 N   0  0  0  0  0  0  0  0  0  0  0  0
  191.2590  177.2640  139.6330 C   0  0  2  0  0  3  0  0  0  0  0  0
  189.8220  177.5700  136.9200 C   0  0  0  0  0  2  0  0  0  0  0  0
  191.3680  176.2430  138.4690 C   0  0  2  0  0  3  0  0  0  0  0  0
  192.5730  177.3310  140.4200 C   0  0  0  0  0  2  0  0  0  0  0  0
  188.8030  177.9840  140.1320 C   0  0  1  0  0  3  0  0  0  0  0  0
  192.4280  178.1540  141.6810 C   0  0  0  0  0  2  0  0  0  0  0  0
  189.0750  178.8210  138.8540 C   0  0  0  0  0  2  0  0  0  0  0  0
  193.5160  175.2830  137.7790 N   0  0  0  0  0  2  0  0  0  0  0  0
  192.7070  175.4500  136.5660 C   0  0  0  0  0  2  0  0  0  0  0  0
  192.6310  176.4490  137.6290 C   0  0  1  0  0  3  0  0  0  0  0  0
  186.2490  178.3730  137.9270 C   0  0  0  0  0  1  0  0  0  0  0  0
  187.4220  177.4790  137.5440 C   0  0  1  0  0  3  0  0  0  0  0  0
  185.6720  176.9950  135.8290 C   0  0  0  0  0  1  0  0  0  0  0  0
  187.1490  176.8930  136.1630 C   0  0  0  0  0  2  0  0  0  0  0  0
  190.2780  175.0590  143.3350 C   0  0  0  0  0  1  0  0  0  0  0  0
  189.3430  176.2010  142.9520 C   0  0  1  0  0  3  0  0  0  0  0  0
  188.6760  176.8000  144.1340 N   0  0  0  0  0  0  0  0  0  0  0  0
  186.6860  178.0200  144.9460 C   0  0  0  0  0  1  0  0  0  0  0  0
  187.5940  177.7320  143.7650 C   0  0  2  0  0  3  0  0  0  0  0  0
  186.8530  177.2830  142.6640 O   0  0  0  0  0  1  0  0  0  0  0  0
  189.6550  177.5900  144.8800 C   0  0  0  0  0  2  0  0  0  0  0  0
  189.7640  177.1170  146.3310 C   0  0  1  0  0  3  0  0  0  0  0  0
  191.1490  176.5790  146.6630 C   0  0  0  0  0  2  0  0  0  0  0  0
  192.0540  176.9760  145.6980 F   0  0  0  0  0  0  0  0  0  0  0  0
  188.1130  177.5460  148.3900 S   0  0  0  0  0  1  0  0  0  0  0  0
  189.3440  178.1600  147.2680 N   0  0  0  0  0  2  0  0  0  0  0  0
  1  3  1  0  0  0  0
  1 22  1  1  0  0  0
  2 11  1  0  0  0  0
  4  2  1  6  0  0  0
  4  1  1  0  0  0  0
  6 13  1  0  0  0  0
  7 10  1  1  0  0  0
  7  4  1  0  0  0  0
  8  5  1  0  0  0  0
  8  6  1  0  0  0  0
  9  5  1  6  0  0  0
  9  7  1  0  0  0  0
 10 12  1  0  0  0  0
 11 13  1  6  0  0  0
 11  4  1  0  0  0  0
 12  3  1  0  0  0  0
 15 14  1  0  0  0  0
 16 15  1  6  0  0  0
 16 14  1  0  0  0  0
 16  9  1  0  0  0  0
 18  6  1  0  0  0  0
 18 17  1  6  0  0  0
 19 20  1  0  0  0  0
 20 18  1  0  0  0  0
 22 21  1  1  0  0  0
 22 23  1  0  0  0  0
 23 27  1  0  0  0  0
 25 23  1  0  0  0  0
 25 24  1  1  0  0  0
 26 25  1  0  0  0  0
 28 27  1  6  0  0  0
 28 29  1  0  0  0  0
 28 32  1  0  0  0  0
 30 29  1  0  0  0  0
 32 31  1  0  0  0  0
M  END
>  <MODEL>
3

>  <REMARK>
 VINA RESULT:      -4.9      2.262      2.820
  Name = 
  10 active torsions:
  status: ('A' for Active; 'I' for Inactive)
    1  A    between atoms: C_1  and  C_27
    2  A    between atoms: C_3  and  C_7
    3  A    between atoms: C_7  and  C_20
    4  A    between atoms: C_7  and  N_26
    5  A    between atoms: N_10  and  C_12
    6  A    between atoms: C_12  and  C_31
    7  A    between atoms: N_16  and  C_20
    8  A    between atoms: N_16  and  C_22
    9  A    between atoms: N_16  and  C_27
   10  A    between atoms: C_18  and  C_29
                            x       y       z     vdW  Elec       q    Type
                         _______ _______ _______ _____ _____    ______ ____

>  <TORSDO>
F 10

$$$$
=
 OpenBabel10272402093D

 32 35  0  0  1  0  0  0  0  0999 V2000
  183.4290  178.3550  142.9440 C   0  0  1  0  0  3  0  0  0  0  0  0
  184.0830  178.3910  140.3860 C   0  0  0  0  0  2  0  0  0  0  0  0
  182.4210  178.9000  143.9550 C   0  0  0  0  0  2  0  0  0  0  0  0
  183.0000  178.4340  141.4510 C   0  0  2  0  0  0  0  0  0  0  0  0
  182.1550  179.3820  138.5700 C   0  0  0  0  0  2  0  0  0  0  0  0
  182.3860  176.8880  138.3980 N   0  0  0  0  0  0  0  0  0  0  0  0
  181.5670  178.9420  141.0570 C   0  0  2  0  0  3  0  0  0  0  0  0
  181.5460  178.0600  138.1010 C   0  0  0  0  0  2  0  0  0  0  0  0
  181.5100  179.9230  139.8550 C   0  0  2  0  0  3  0  0  0  0  0  0
  180.7830  179.5000  142.2490 C   0  0  0  0  0  2  0  0  0  0  0  0
  183.3920  177.0990  140.7840 C   0  0  1  0  0  3  0  0  0  0  0  0
  180.9980  178.6720  143.4970 C   0  0  0  0  0  2  0  0  0  0  0  0
  182.3010  176.5430  139.8300 C   0  0  0  0  0  2  0  0  0  0  0  0
  179.9870  181.8410  139.7440 N   0  0  0  0  0  2  0  0  0  0  0  0
  180.0730  181.2780  138.3920 C   0  0  0  0  0  2  0  0  0  0  0  0
  180.0830  180.3860  139.5490 C   0  0  1  0  0  3  0  0  0  0  0  0
  184.3710  175.5560  137.8020 C   0  0  0  0  0  1  0  0  0  0  0  0
  183.7480  176.9470  137.8320 C   0  0  1  0  0  3  0  0  0  0  0  0
  183.2030  176.4430  135.4470 C   0  0  0  0  0  1  0  0  0  0  0  0
  183.7250  177.4950  136.4090 C   0  0  0  0  0  2  0  0  0  0  0  0
  184.8230  180.3370  143.5130 C   0  0  0  0  0  1  0  0  0  0  0  0
  184.8550  178.8290  143.2910 C   0  0  1  0  0  3  0  0  0  0  0  0
  185.4630  178.1070  144.4360 N   0  0  0  0  0  0  0  0  0  0  0  0
  186.5000  178.6930  146.6000 C   0  0  0  0  0  1  0  0  0  0  0  0
  185.2720  178.8110  145.7180 C   0  0  2  0  0  3  0  0  0  0  0  0
  184.1260  178.3820  146.3990 O   0  0  0  0  0  1  0  0  0  0  0  0
  186.9080  178.0230  144.2300 C   0  0  0  0  0  2  0  0  0  0  0  0
  187.2460  177.2720  142.9410 C   0  0  1  0  0  3  0  0  0  0  0  0
  188.0460  178.1250  141.9660 C   0  0  0  0  0  2  0  0  0  0  0  0
  187.2160  178.6200  140.9790 F   0  0  0  0  0  0  0  0  0  0  0  0
  189.6560  176.1150  142.9380 S   0  0  0  0  0  1  0  0  0  0  0  0
  187.9070  175.9970  143.2210 N   0  0  0  0  0  2  0  0  0  0  0  0
  1 22  1  6  0  0  0
  1  3  1  0  0  0  0
  2 11  1  0  0  0  0
  4  2  1  6  0  0  0
  4  1  1  0  0  0  0
  6 13  1  0  0  0  0
  7  4  1  0  0  0  0
  7 10  1  1  0  0  0
  8  6  1  0  0  0  0
  8  5  1  0  0  0  0
  9  5  1  6  0  0  0
  9  7  1  0  0  0  0
 10 12  1  0  0  0  0
 11 13  1  6  0  0  0
 11  4  1  0  0  0  0
 12  3  1  0  0  0  0
 15 14  1  0  0  0  0
 16 15  1  6  0  0  0
 16 14  1  0  0  0  0
 16  9  1  0  0  0  0
 18 17  1  6  0  0  0
 18  6  1  0  0  0  0
 19 20  1  0  0  0  0
 20 18  1  0  0  0  0
 22 21  1  1  0  0  0
 22 23  1  0  0  0  0
 23 25  1  0  0  0  0
 25 26  1  0  0  0  0
 25 24  1  1  0  0  0
 27 23  1  0  0  0  0
 28 29  1  6  0  0  0
 28 32  1  0  0  0  0
 28 27  1  0  0  0  0
 30 29  1  0  0  0  0
 31 32  1  0  0  0  0
M  END
>  <MODEL>
4

>  <REMARK>
 VINA RESULT:      -4.9      4.599      7.921
  Name = 
  10 active torsions:
  status: ('A' for Active; 'I' for Inactive)
    1  A    between atoms: C_1  and  C_27
    2  A    between atoms: C_3  and  C_7
    3  A    between atoms: C_7  and  C_20
    4  A    between atoms: C_7  and  N_26
    5  A    between atoms: N_10  and  C_12
    6  A    between atoms: C_12  and  C_31
    7  A    between atoms: N_16  and  C_20
    8  A    between atoms: N_16  and  C_22
    9  A    between atoms: N_16  and  C_27
   10  A    between atoms: C_18  and  C_29
                            x       y       z     vdW  Elec       q    Type
                         _______ _______ _______ _____ _____    ______ ____

>  <TORSDO>
F 10

$$$$
=
 OpenBabel10272402093D

 32 35  0  0  1  0  0  0  0  0999 V2000
  184.2960  177.4040  137.6690 C   0  0  1  0  0  3  0  0  0  0  0  0
  186.7330  176.4340  137.3630 C   0  0  0  0  0  2  0  0  0  0  0  0
  183.3920  178.1490  138.6500 C   0  0  0  0  0  2  0  0  0  0  0  0
  185.8230  177.5010  137.9480 C   0  0  2  0  0  0  0  0  0  0  0  0
  188.7130  177.3090  139.1830 C   0  0  0  0  0  2  0  0  0  0  0  0
  189.0380  178.3250  136.9100 N   0  0  0  0  0  0  0  0  0  0  0  0
  186.3670  178.4120  139.1060 C   0  0  2  0  0  3  0  0  0  0  0  0
  189.3570  178.4140  138.3440 C   0  0  0  0  0  2  0  0  0  0  0  0
  187.4900  177.7890  139.9790 C   0  0  2  0  0  3  0  0  0  0  0  0
  185.2530  178.9880  139.9860 C   0  0  0  0  0  2  0  0  0  0  0  0
  186.5290  177.7270  136.5950 C   0  0  1  0  0  3  0  0  0  0  0  0
  184.0530  179.4070  139.1670 C   0  0  0  0  0  2  0  0  0  0  0  0
  187.6600  178.7880  136.6580 C   0  0  0  0  0  2  0  0  0  0  0  0
  187.6050  178.1470  142.4020 N   0  0  0  0  0  2  0  0  0  0  0  0
  188.9860  178.0940  141.9060 C   0  0  0  0  0  2  0  0  0  0  0  0
  187.9500  178.7300  141.0950 C   0  0  1  0  0  3  0  0  0  0  0  0
  189.4930  177.2080  134.7620 C   0  0  0  0  0  1  0  0  0  0  0  0
  189.4090  177.0450  136.2750 C   0  0  1  0  0  3  0  0  0  0  0  0
  190.7050  175.0700  137.0860 C   0  0  0  0  0  1  0  0  0  0  0  0
  190.7620  176.5560  136.7820 C   0  0  0  0  0  2  0  0  0  0  0  0
  182.5550  175.7420  138.3050 C   0  0  0  0  0  1  0  0  0  0  0  0
  183.7260  176.0030  137.3640 C   0  0  1  0  0  3  0  0  0  0  0  0
  183.3560  175.8070  135.9400 N   0  0  0  0  0  0  0  0  0  0  0  0
  181.1580  175.3360  134.9130 C   0  0  0  0  0  1  0  0  0  0  0  0
  182.0270  176.3610  135.6170 C   0  0  2  0  0  3  0  0  0  0  0  0
  182.1070  177.5430  134.8710 O   0  0  0  0  0  1  0  0  0  0  0  0
  183.2740  174.3730  135.6650 C   0  0  0  0  0  2  0  0  0  0  0  0
  184.5950  173.6690  135.9820 C   0  0  1  0  0  3  0  0  0  0  0  0
  184.4270  172.5530  137.0050 C   0  0  0  0  0  2  0  0  0  0  0  0
  185.2390  172.7880  138.0980 F   0  0  0  0  0  0  0  0  0  0  0  0
  186.9260  173.7980  134.6790 S   0  0  0  0  0  1  0  0  0  0  0  0
  185.2580  173.1980  134.7640 N   0  0  0  0  0  2  0  0  0  0  0  0
  1 22  1  1  0  0  0
  1  4  1  0  0  0  0
  1  3  1  0  0  0  0
  3 12  1  0  0  0  0
  4  2  1  1  0  0  0
  4  7  1  0  0  0  0
  6  8  1  0  0  0  0
  7  9  1  0  0  0  0
  7 10  1  1  0  0  0
  8  5  1  0  0  0  0
  9  5  1  6  0  0  0
  9 16  1  0  0  0  0
 11 13  1  1  0  0  0
 11  2  1  0  0  0  0
 11  4  1  0  0  0  0
 12 10  1  0  0  0  0
 13  6  1  0  0  0  0
 15 14  1  0  0  0  0
 16 15  1  1  0  0  0
 16 14  1  0  0  0  0
 18 17  1  6  0  0  0
 18 20  1  0  0  0  0
 18  6  1  0  0  0  0
 20 19  1  0  0  0  0
 22 21  1  1  0  0  0
 23 22  1  0  0  0  0
 25 24  1  6  0  0  0
 25 23  1  0  0  0  0
 26 25  1  0  0  0  0
 27 23  1  0  0  0  0
 28 27  1  6  0  0  0
 28 29  1  0  0  0  0
 29 30  1  0  0  0  0
 31 32  1  0  0  0  0
 32 28  1  0  0  0  0
M  END
>  <MODEL>
5

>  <REMARK>
 VINA RESULT:      -4.5      4.061      7.727
  Name = 
  10 active torsions:
  status: ('A' for Active; 'I' for Inactive)
    1  A    between atoms: C_1  and  C_27
    2  A    between atoms: C_3  and  C_7
    3  A    between atoms: C_7  and  C_20
    4  A    between atoms: C_7  and  N_26
    5  A    between atoms: N_10  and  C_12
    6  A    between atoms: C_12  and  C_31
    7  A    between atoms: N_16  and  C_20
    8  A    between atoms: N_16  and  C_22
    9  A    between atoms: N_16  and  C_27
   10  A    between atoms: C_18  and  C_29
                            x       y       z     vdW  Elec       q    Type
                         _______ _______ _______ _____ _____    ______ ____

>  <TORSDO>
F 10

$$$$
=
 OpenBabel10272402093D

 32 35  0  0  1  0  0  0  0  0999 V2000
  190.1880  176.4800  142.2120 C   0  0  1  0  0  3  0  0  0  0  0  0
  188.4380  178.2010  143.1860 C   0  0  0  0  0  2  0  0  0  0  0  0
  191.4030  175.6310  142.5830 C   0  0  0  0  0  2  0  0  0  0  0  0
  189.3280  176.9890  143.4040 C   0  0  2  0  0  0  0  0  0  0  0  0
  188.2600  178.4140  146.0000 C   0  0  0  0  0  2  0  0  0  0  0  0
  186.2690  177.2240  145.0400 N   0  0  0  0  0  0  0  0  0  0  0  0
  189.6550  176.5410  144.8740 C   0  0  2  0  0  3  0  0  0  0  0  0
  187.0640  177.4950  146.2490 C   0  0  0  0  0  2  0  0  0  0  0  0
  189.5990  177.6630  145.9450 C   0  0  2  0  0  3  0  0  0  0  0  0
  190.9660  175.7550  144.9800 C   0  0  0  0  0  2  0  0  0  0  0  0
  187.8450  176.8130  143.0160 C   0  0  1  0  0  3  0  0  0  0  0  0
  191.1430  174.8010  143.8200 C   0  0  0  0  0  2  0  0  0  0  0  0
  186.9670  176.2590  144.1690 C   0  0  0  0  0  2  0  0  0  0  0  0
  191.2400  177.7180  147.7660 N   0  0  0  0  0  2  0  0  0  0  0  0
  189.9830  178.2550  148.3000 C   0  0  0  0  0  2  0  0  0  0  0  0
  189.9500  177.1500  147.3440 C   0  0  1  0  0  3  0  0  0  0  0  0
  184.9530  178.0390  143.1230 C   0  0  0  0  0  1  0  0  0  0  0  0
  185.7410  178.4280  144.3680 C   0  0  1  0  0  3  0  0  0  0  0  0
  183.3770  179.0790  144.8410 C   0  0  0  0  0  1  0  0  0  0  0  0
  184.8180  179.2110  145.2960 C   0  0  0  0  0  2  0  0  0  0  0  0
  192.0740  177.6650  141.1000 C   0  0  0  0  0  1  0  0  0  0  0  0
  190.5570  177.5080  141.1230 C   0  0  1  0  0  3  0  0  0  0  0  0
  190.0070  177.1840  139.7840 N   0  0  0  0  0  0  0  0  0  0  0  0
  190.7650  177.2850  137.4340 C   0  0  0  0  0  1  0  0  0  0  0  0
  191.0480  176.7600  138.8290 C   0  0  2  0  0  3  0  0  0  0  0  0
  191.2260  175.3710  138.8130 O   0  0  0  0  0  1  0  0  0  0  0  0
  189.4020  178.3880  139.2160 C   0  0  0  0  0  2  0  0  0  0  0  0
  188.0960  178.0650  138.4870 C   0  0  1  0  0  3  0  0  0  0  0  0
  186.8910  178.0910  139.4170 C   0  0  0  0  0  2  0  0  0  0  0  0
  187.1960  178.7970  140.5650 F   0  0  0  0  0  0  0  0  0  0  0  0
  186.9660  178.0980  136.0640 S   0  0  0  0  0  1  0  0  0  0  0  0
  187.9050  178.9290  137.3210 N   0  0  0  0  0  2  0  0  0  0  0  0
  1 22  1  1  0  0  0
  1  3  1  0  0  0  0
  1  4  1  0  0  0  0
  3 12  1  0  0  0  0
  4  2  1  1  0  0  0
  4  7  1  0  0  0  0
  5  8  1  0  0  0  0
  6  8  1  0  0  0  0
  7 10  1  6  0  0  0
  7  9  1  0  0  0  0
  9  5  1  1  0  0  0
  9 16  1  0  0  0  0
 11  2  1  1  0  0  0
 11  4  1  0  0  0  0
 11 13  1  0  0  0  0
 12 10  1  0  0  0  0
 13  6  1  0  0  0  0
 14 15  1  0  0  0  0
 16 14  1  0  0  0  0
 16 15  1  1  0  0  0
 18 17  1  6  0  0  0
 18  6  1  0  0  0  0
 18 20  1  0  0  0  0
 19 20  1  0  0  0  0
 22 21  1  6  0  0  0
 23 22  1  0  0  0  0
 25 24  1  6  0  0  0
 25 23  1  0  0  0  0
 26 25  1  0  0  0  0
 27 23  1  0  0  0  0
 28 27  1  1  0  0  0
 28 29  1  0  0  0  0
 29 30  1  0  0  0  0
 31 32  1  0  0  0  0
 32 28  1  0  0  0  0
M  END
>  <MODEL>
6

>  <REMARK>
 VINA RESULT:      -4.2      2.757      7.083
  Name = 
  10 active torsions:
  status: ('A' for Active; 'I' for Inactive)
    1  A    between atoms: C_1  and  C_27
    2  A    between atoms: C_3  and  C_7
    3  A    between atoms: C_7  and  C_20
    4  A    between atoms: C_7  and  N_26
    5  A    between atoms: N_10  and  C_12
    6  A    between atoms: C_12  and  C_31
    7  A    between atoms: N_16  and  C_20
    8  A    between atoms: N_16  and  C_22
    9  A    between atoms: N_16  and  C_27
   10  A    between atoms: C_18  and  C_29
                            x       y       z     vdW  Elec       q    Type
                         _______ _______ _______ _____ _____    ______ ____

>  <TORSDO>
F 10

$$$$
=
 OpenBabel10272402093D

 32 35  0  0  1  0  0  0  0  0999 V2000
  186.2190  177.1140  137.2260 C   0  0  1  0  0  3  0  0  0  0  0  0
  184.8060  175.4790  135.7090 C   0  0  0  0  0  2  0  0  0  0  0  0
  186.1380  178.4130  138.0270 C   0  0  0  0  0  2  0  0  0  0  0  0
  184.8560  176.4480  136.8780 C   0  0  2  0  0  0  0  0  0  0  0  0
  181.9940  175.7740  135.7540 C   0  0  0  0  0  2  0  0  0  0  0  0
  182.7220  173.7060  136.9760 N   0  0  0  0  0  0  0  0  0  0  0  0
  183.5120  177.0420  137.4310 C   0  0  2  0  0  3  0  0  0  0  0  0
  181.6410  174.6820  136.7650 C   0  0  0  0  0  2  0  0  0  0  0  0
  182.3420  177.1170  136.4140 C   0  0  2  0  0  3  0  0  0  0  0  0
  183.7010  178.3870  138.1410 C   0  0  0  0  0  2  0  0  0  0  0  0
  185.0090  174.9300  137.1100 C   0  0  1  0  0  3  0  0  0  0  0  0
  184.9620  178.4060  138.9770 C   0  0  0  0  0  2  0  0  0  0  0  0
  183.7850  174.2880  137.8160 C   0  0  0  0  0  2  0  0  0  0  0  0
  180.7930  179.0180  136.3810 N   0  0  0  0  0  2  0  0  0  0  0  0
  180.0210  177.8230  136.0200 C   0  0  0  0  0  2  0  0  0  0  0  0
  181.0770  177.7250  137.0250 C   0  0  1  0  0  3  0  0  0  0  0  0
  184.0660  171.8310  136.1120 C   0  0  0  0  0  1  0  0  0  0  0  0
  183.1770  173.0160  135.7540 C   0  0  1  0  0  3  0  0  0  0  0  0
  181.5500  171.1440  135.4610 C   0  0  0  0  0  1  0  0  0  0  0  0
  181.9920  172.5000  134.9440 C   0  0  0  0  0  2  0  0  0  0  0  0
  187.5020  178.7260  135.8290 C   0  0  0  0  0  1  0  0  0  0  0  0
  187.2490  177.2440  136.0850 C   0  0  1  0  0  3  0  0  0  0  0  0
  188.5050  176.4940  136.3270 N   0  0  0  0  0  0  0  0  0  0  0  0
  188.4170  174.0390  136.5980 C   0  0  0  0  0  1  0  0  0  0  0  0
  188.5370  175.1970  135.6250 C   0  0  2  0  0  3  0  0  0  0  0  0
  189.6710  175.0530  134.8170 O   0  0  0  0  0  1  0  0  0  0  0  0
  188.6060  176.1850  137.7530 C   0  0  0  0  0  2  0  0  0  0  0  0
  189.8570  176.8110  138.3720 C   0  0  1  0  0  3  0  0  0  0  0  0
  189.5220  177.8590  139.4250 C   0  0  0  0  0  2  0  0  0  0  0  0
  189.3560  179.0930  138.8270 F   0  0  0  0  0  0  0  0  0  0  0  0
  192.0560  175.4360  137.7200 S   0  0  0  0  0  1  0  0  0  0  0  0
  190.7680  175.7880  138.8900 N   0  0  0  0  0  2  0  0  0  0  0  0
  1 22  1  6  0  0  0
  1  3  1  0  0  0  0
  3 12  1  0  0  0  0
  4  2  1  6  0  0  0
  4 11  1  0  0  0  0
  4  1  1  0  0  0  0
  4  7  1  0  0  0  0
  5  8  1  0  0  0  0
  6 13  1  0  0  0  0
  7 10  1  6  0  0  0
  8  6  1  0  0  0  0
  9  5  1  1  0  0  0
  9 16  1  0  0  0  0
  9  7  1  0  0  0  0
 10 12  1  0  0  0  0
 11  2  1  6  0  0  0
 11 13  1  0  0  0  0
 14 16  1  0  0  0  0
 15 14  1  0  0  0  0
 16 15  1  6  0  0  0
 18 17  1  1  0  0  0
 18  6  1  0  0  0  0
 20 19  1  0  0  0  0
 20 18  1  0  0  0  0
 22 21  1  1  0  0  0
 22 23  1  0  0  0  0
 23 27  1  0  0  0  0
 25 23  1  0  0  0  0
 25 24  1  1  0  0  0
 26 25  1  0  0  0  0
 28 27  1  1  0  0  0
 28 32  1  0  0  0  0
 28 29  1  0  0  0  0
 30 29  1  0  0  0  0
 31 32  1  0  0  0  0
M  END
>  <MODEL>
7

>  <REMARK>
 VINA RESULT:      -4.2      4.421      8.005
  Name = 
  10 active torsions:
  status: ('A' for Active; 'I' for Inactive)
    1  A    between atoms: C_1  and  C_27
    2  A    between atoms: C_3  and  C_7
    3  A    between atoms: C_7  and  C_20
    4  A    between atoms: C_7  and  N_26
    5  A    between atoms: N_10  and  C_12
    6  A    between atoms: C_12  and  C_31
    7  A    between atoms: N_16  and  C_20
    8  A    between atoms: N_16  and  C_22
    9  A    between atoms: N_16  and  C_27
   10  A    between atoms: C_18  and  C_29
                            x       y       z     vdW  Elec       q    Type
                         _______ _______ _______ _____ _____    ______ ____

>  <TORSDO>
F 10

$$$$
=
 OpenBabel10272402093D

 32 35  0  0  1  0  0  0  0  0999 V2000
  184.4350  178.8390  142.4490 C   0  0  1  0  0  3  0  0  0  0  0  0
  186.5350  177.2880  142.0540 C   0  0  0  0  0  2  0  0  0  0  0  0
  183.6140  179.5290  143.5370 C   0  0  0  0  0  2  0  0  0  0  0  0
  185.8620  178.3820  142.8660 C   0  0  2  0  0  0  0  0  0  0  0  0
  188.3430  176.9810  144.2070 C   0  0  0  0  0  2  0  0  0  0  0  0
  189.3070  178.4270  142.3950 N   0  0  0  0  0  0  0  0  0  0  0  0
  186.4290  178.7290  144.2890 C   0  0  2  0  0  3  0  0  0  0  0  0
  189.3920  178.0190  143.8060 C   0  0  0  0  0  2  0  0  0  0  0  0
  187.1790  177.5780  145.0120 C   0  0  2  0  0  3  0  0  0  0  0  0
  185.3800  179.3570  145.2120 C   0  0  0  0  0  2  0  0  0  0  0  0
  186.8200  178.7400  141.7110 C   0  0  1  0  0  3  0  0  0  0  0  0
  184.4930  180.3320  144.4700 C   0  0  0  0  0  2  0  0  0  0  0  0
  188.1680  179.3420  142.1900 C   0  0  0  0  0  2  0  0  0  0  0  0
  187.0850  177.1120  147.4180 N   0  0  0  0  0  2  0  0  0  0  0  0
  188.4760  176.9190  146.9930 C   0  0  0  0  0  2  0  0  0  0  0  0
  187.6810  177.9900  146.3980 C   0  0  1  0  0  3  0  0  0  0  0  0
  189.4510  177.8600  140.0010 C   0  0  0  0  0  1  0  0  0  0  0  0
  189.4210  177.3190  141.4260 C   0  0  1  0  0  3  0  0  0  0  0  0
  191.9050  177.2890  141.1700 C   0  0  0  0  0  1  0  0  0  0  0  0
  190.6960  176.5160  141.6620 C   0  0  0  0  0  2  0  0  0  0  0  0
  182.1080  178.0420  142.0610 C   0  0  0  0  0  1  0  0  0  0  0  0
  183.5680  177.8200  141.6800 C   0  0  1  0  0  3  0  0  0  0  0  0
  183.7750  177.8500  140.2110 N   0  0  0  0  0  0  0  0  0  0  0  0
  182.9350  179.8580  139.0410 C   0  0  0  0  0  1  0  0  0  0  0  0
  184.1220  179.1950  139.7130 C   0  0  2  0  0  3  0  0  0  0  0  0
  185.2330  179.1800  138.8610 O   0  0  0  0  0  1  0  0  0  0  0  0
  182.5230  177.4840  139.5490 C   0  0  0  0  0  2  0  0  0  0  0  0
  182.5970  176.0740  138.9590 C   0  0  1  0  0  3  0  0  0  0  0  0
  181.2500  175.3650  138.9800 C   0  0  0  0  0  2  0  0  0  0  0  0
  180.3930  176.0060  139.8540 F   0  0  0  0  0  0  0  0  0  0  0  0
  184.1630  174.6260  137.3460 S   0  0  0  0  0  1  0  0  0  0  0  0
  183.1870  176.0840  137.6190 N   0  0  0  0  0  2  0  0  0  0  0  0
  1 22  1  1  0  0  0
  1  4  1  0  0  0  0
  1  3  1  0  0  0  0
  3 12  1  0  0  0  0
  4  2  1  6  0  0  0
  4  7  1  0  0  0  0
  6  8  1  0  0  0  0
  7  9  1  0  0  0  0
  7 10  1  1  0  0  0
  8  5  1  0  0  0  0
  9  5  1  6  0  0  0
  9 16  1  0  0  0  0
 11  2  1  1  0  0  0
 11 13  1  0  0  0  0
 11  4  1  0  0  0  0
 12 10  1  0  0  0  0
 13  6  1  0  0  0  0
 15 14  1  0  0  0  0
 16 15  1  6  0  0  0
 16 14  1  0  0  0  0
 18 17  1  6  0  0  0
 18 20  1  0  0  0  0
 18  6  1  0  0  0  0
 19 20  1  0  0  0  0
 22 21  1  6  0  0  0
 23 22  1  0  0  0  0
 25 24  1  6  0  0  0
 25 23  1  0  0  0  0
 26 25  1  0  0  0  0
 27 23  1  0  0  0  0
 28 29  1  6  0  0  0
 28 27  1  0  0  0  0
 29 30  1  0  0  0  0
 31 32  1  0  0  0  0
 32 28  1  0  0  0  0
M  END
>  <MODEL>
8

>  <REMARK>
 VINA RESULT:      -4.2      3.858      7.786
  Name = 
  10 active torsions:
  status: ('A' for Active; 'I' for Inactive)
    1  A    between atoms: C_1  and  C_27
    2  A    between atoms: C_3  and  C_7
    3  A    between atoms: C_7  and  C_20
    4  A    between atoms: C_7  and  N_26
    5  A    between atoms: N_10  and  C_12
    6  A    between atoms: C_12  and  C_31
    7  A    between atoms: N_16  and  C_20
    8  A    between atoms: N_16  and  C_22
    9  A    between atoms: N_16  and  C_27
   10  A    between atoms: C_18  and  C_29
                            x       y       z     vdW  Elec       q    Type
                         _______ _______ _______ _____ _____    ______ ____

>  <TORSDO>
F 10

$$$$
=
 OpenBabel10272402093D

 32 35  0  0  1  0  0  0  0  0999 V2000
  190.4260  176.9190  138.8660 C   0  0  1  0  0  3  0  0  0  0  0  0
  190.0150  176.1420  141.3560 C   0  0  0  0  0  2  0  0  0  0  0  0
  189.7860  177.6700  137.7000 C   0  0  0  0  0  2  0  0  0  0  0  0
  189.7940  177.1760  140.2640 C   0  0  2  0  0  0  0  0  0  0  0  0
  187.8760  177.3530  142.7550 C   0  0  0  0  0  2  0  0  0  0  0  0
  190.0990  178.1770  143.5800 N   0  0  0  0  0  0  0  0  0  0  0  0
  188.6480  178.2340  140.4410 C   0  0  2  0  0  3  0  0  0  0  0  0
  188.6500  178.4270  143.5200 C   0  0  0  0  0  2  0  0  0  0  0  0
  187.4630  177.7960  141.3430 C   0  0  2  0  0  3  0  0  0  0  0  0
  188.1370  178.7890  139.1070 C   0  0  0  0  0  2  0  0  0  0  0  0
  190.9500  177.3360  141.2740 C   0  0  1  0  0  3  0  0  0  0  0  0
  189.2680  179.0240  138.1290 C   0  0  0  0  0  2  0  0  0  0  0  0
  190.7310  178.4930  142.2850 C   0  0  0  0  0  2  0  0  0  0  0  0
  185.1470  178.3940  140.8040 N   0  0  0  0  0  2  0  0  0  0  0  0
  185.2660  178.4010  142.2670 C   0  0  0  0  0  2  0  0  0  0  0  0
  186.3800  178.8730  141.4470 C   0  0  1  0  0  3  0  0  0  0  0  0
  191.9810  176.8230  144.4120 C   0  0  0  0  0  1  0  0  0  0  0  0
  190.4770  176.8820  144.1780 C   0  0  1  0  0  3  0  0  0  0  0  0
  190.7380  176.9160  146.6620 C   0  0  0  0  0  1  0  0  0  0  0  0
  189.7740  176.6720  145.5150 C   0  0  0  0  0  2  0  0  0  0  0  0
  189.7240  175.0470  137.3820 C   0  0  0  0  0  1  0  0  0  0  0  0
  190.7030  175.4510  138.4790 C   0  0  1  0  0  3  0  0  0  0  0  0
  192.1130  175.1910  138.0970 N   0  0  0  0  0  0  0  0  0  0  0  0
  193.6240  176.6130  136.7540 C   0  0  0  0  0  1  0  0  0  0  0  0
  192.9360  176.4150  138.0920 C   0  0  2  0  0  3  0  0  0  0  0  0
  193.8650  176.4400  139.1390 O   0  0  0  0  0  1  0  0  0  0  0  0
  192.1450  174.6760  136.7280 C   0  0  0  0  0  2  0  0  0  0  0  0
  192.7330  173.2650  136.6770 C   0  0  1  0  0  3  0  0  0  0  0  0
  192.0760  172.4010  135.6080 C   0  0  0  0  0  2  0  0  0  0  0  0
  192.6940  171.1670  135.5530 F   0  0  0  0  0  0  0  0  0  0  0  0
  194.9840  173.0330  138.1010 S   0  0  0  0  0  1  0  0  0  0  0  0
  194.1890  173.2960  136.5350 N   0  0  0  0  0  2  0  0  0  0  0  0
  1 22  1  6  0  0  0
  1  4  1  0  0  0  0
  3 12  1  0  0  0  0
  3  1  1  0  0  0  0
  4  7  1  0  0  0  0
  4 11  1  0  0  0  0
  4  2  1  1  0  0  0
  5  8  1  0  0  0  0
  6 18  1  0  0  0  0
  7 10  1  6  0  0  0
  7  9  1  0  0  0  0
  8  6  1  0  0  0  0
  9 16  1  0  0  0  0
  9  5  1  1  0  0  0
 11  2  1  1  0  0  0
 11 13  1  0  0  0  0
 12 10  1  0  0  0  0
 13  6  1  0  0  0  0
 14 16  1  0  0  0  0
 14 15  1  0  0  0  0
 16 15  1  1  0  0  0
 18 17  1  1  0  0  0
 18 20  1  0  0  0  0
 20 19  1  0  0  0  0
 22 21  1  6  0  0  0
 23 22  1  0  0  0  0
 25 24  1  6  0  0  0
 25 23  1  0  0  0  0
 25 26  1  0  0  0  0
 27 23  1  0  0  0  0
 28 29  1  6  0  0  0
 28 27  1  0  0  0  0
 30 29  1  0  0  0  0
 32 28  1  0  0  0  0
 32 31  1  0  0  0  0
M  END
>  <MODEL>
9

>  <REMARK>
 VINA RESULT:      -4.1      3.806      7.798
  Name = 
  10 active torsions:
  status: ('A' for Active; 'I' for Inactive)
    1  A    between atoms: C_1  and  C_27
    2  A    between atoms: C_3  and  C_7
    3  A    between atoms: C_7  and  C_20
    4  A    between atoms: C_7  and  N_26
    5  A    between atoms: N_10  and  C_12
    6  A    between atoms: C_12  and  C_31
    7  A    between atoms: N_16  and  C_20
    8  A    between atoms: N_16  and  C_22
    9  A    between atoms: N_16  and  C_27
   10  A    between atoms: C_18  and  C_29
                            x       y       z     vdW  Elec       q    Type
                         _______ _______ _______ _____ _____    ______ ____

>  <TORSDO>
F 10

$$$$
