=
 OpenBabel10272414003D

 30 32  0  0  1  0  0  0  0  0999 V2000
  190.2580  173.7850  137.3080 C   0  0  1  0  0  3  0  0  0  0  0  0
  187.1430  173.6300  136.4140 C   0  0  0  0  0  2  0  0  0  0  0  0
  189.0220  177.9120  134.9620 C   0  0  0  0  0  1  0  0  0  0  0  0
  191.6920  173.9910  136.7600 C   0  0  2  0  0  3  0  0  0  0  0  0
  189.6580  175.0890  137.6310 N   0  0  0  0  0  2  0  0  0  0  0  0
  191.6820  176.1000  138.1680 C   0  0  2  0  0  3  0  0  0  0  0  0
  193.3260  174.6270  134.9200 C   0  0  0  0  0  2  0  0  0  0  0  0
  191.5500  176.6220  134.3460 O   0  0  0  0  0  0  0  0  0  0  0  0
  190.3860  175.6670  138.6880 N   0  0  0  0  0  2  0  0  0  0  0  0
  192.4880  174.8610  137.7570 C   0  0  2  0  0  3  0  0  0  0  0  0
  187.2190  173.6890  134.8910 C   0  0  0  0  0  2  0  0  0  0  0  0
  193.9560  175.6560  135.8490 C   0  0  2  0  0  3  0  0  0  0  0  0
  188.2560  172.7500  136.9780 C   0  0  0  0  0  2  0  0  0  0  0  0
  189.5710  175.5260  134.9090 N   0  0  0  0  0  2  0  0  0  0  0  0
  186.6070  174.9760  134.3470 C   0  0  0  0  0  2  0  0  0  0  0  0
  189.4780  173.0820  136.3750 O   0  0  0  0  0  0  0  0  0  0  0  0
  191.4390  173.2090  134.3810 C   0  0  0  0  0  1  0  0  0  0  0  0
  191.0010  175.5900  134.8230 C   0  0  0  0  0  0  0  0  0  0  0  0
  191.8430  174.3920  135.2470 C   0  0  1  0  0  0  0  0  0  0  0  0
  195.3630  175.9990  135.3940 C   0  0  0  0  0  1  0  0  0  0  0  0
  188.6350  176.5410  134.4320 C   0  0  1  0  0  3  0  0  0  0  0  0
  187.2330  176.2340  134.9510 C   0  0  0  0  0  2  0  0  0  0  0  0
  193.9190  175.1790  137.3040 C   0  0  2  0  0  3  0  0  0  0  0  0
  195.6290  174.0710  138.6530 C   0  0  0  0  0  2  0  0  0  0  0  0
  194.8590  172.9080  136.7680 O   0  0  0  0  0  1  0  0  0  0  0  0
  194.8370  174.0260  137.5920 C   0  0  0  0  0  0  0  0  0  0  0  0
  192.4080  176.9240  139.2290 C   0  0  0  0  0  2  0  0  0  0  0  0
  191.4950  177.4980  140.1200 O   0  0  0  0  0  0  0  0  0  0  0  0
  192.0530  177.3640  141.3070 O   0  0  0  0  0  0  0  0  0  0  0  0
  190.9820  177.3240  142.2020 C   0  0  0  0  0  1  0  0  0  0  0  0
  1 16  1  6  0  0  0
  1  5  1  0  0  0  0
  2 13  1  0  0  0  0
  4  1  1  0  0  0  0
  4 10  1  0  0  0  0
  5  9  1  0  0  0  0
  6  9  1  0  0  0  0
  6 27  1  0  0  0  0
  7 19  1  0  0  0  0
  7 12  1  0  0  0  0
  8 18  2  0  0  0  0
 10  6  1  0  0  0  0
 11  2  1  0  0  0  0
 12 23  1  0  0  0  0
 15 11  1  0  0  0  0
 15 22  1  0  0  0  0
 16 13  1  0  0  0  0
 17 19  1  0  0  0  0
 18 14  1  0  0  0  0
 18 19  1  0  0  0  0
 19  4  1  0  0  0  0
 20 12  1  0  0  0  0
 21 14  1  0  0  0  0
 21 22  1  0  0  0  0
 21  3  1  0  0  0  0
 23 26  1  0  0  0  0
 23 10  1  0  0  0  0
 25 26  1  0  0  0  0
 26 24  2  0  0  0  0
 27 28  1  0  0  0  0
 28 29  1  0  0  0  0
 29 30  1  0  0  0  0
M  END
>  <MODEL>
1

>  <REMARK>
 VINA RESULT:      -4.9      0.000      0.000
  Name = 
  4 active torsions:
  status: ('A' for Active; 'I' for Inactive)
    1  A    between atoms: C_6  and  C_8
    2  A    between atoms: C_6  and  O_21
    3  A    between atoms: O_9  and  O_21
    4  A    between atoms: C_27  and  C_30
                            x       y       z     vdW  Elec       q    Type
                         _______ _______ _______ _____ _____    ______ ____

>  <TORSDO>
F 4

$$$$
=
 OpenBabel10272414003D

 30 32  0  0  1  0  0  0  0  0999 V2000
  193.6140  176.6140  135.9700 C   0  0  1  0  0  3  0  0  0  0  0  0
  196.8270  176.4240  135.5540 C   0  0  0  0  0  2  0  0  0  0  0  0
  195.4540  173.2040  138.9790 C   0  0  0  0  0  1  0  0  0  0  0  0
  192.3120  175.7750  135.9360 C   0  0  2  0  0  3  0  0  0  0  0  0
  194.2130  176.5480  137.3120 N   0  0  0  0  0  2  0  0  0  0  0  0
  192.1790  176.3020  138.4130 C   0  0  2  0  0  3  0  0  0  0  0  0
  191.0650  173.5630  135.8290 C   0  0  0  0  0  2  0  0  0  0  0  0
  193.0130  172.6440  137.5080 O   0  0  0  0  0  0  0  0  0  0  0  0
  193.3390  177.1720  138.2220 N   0  0  0  0  0  2  0  0  0  0  0  0
  191.3970  176.2260  137.0960 C   0  0  2  0  0  3  0  0  0  0  0  0
  197.0240  174.9960  135.0530 C   0  0  0  0  0  2  0  0  0  0  0  0
  190.3330  173.9250  137.1140 C   0  0  2  0  0  3  0  0  0  0  0  0
  195.5880  177.0530  134.9210 C   0  0  0  0  0  2  0  0  0  0  0  0
  194.8020  173.9170  136.7280 N   0  0  0  0  0  2  0  0  0  0  0  0
  197.7870  174.1450  136.0640 C   0  0  0  0  0  2  0  0  0  0  0  0
  194.5110  176.1580  134.9890 O   0  0  0  0  0  0  0  0  0  0  0  0
  192.9420  173.9290  134.3460 C   0  0  0  0  0  1  0  0  0  0  0  0
  193.4160  173.5540  136.7310 C   0  0  0  0  0  0  0  0  0  0  0  0
  192.4530  174.2190  135.7560 C   0  0  1  0  0  0  0  0  0  0  0  0
  189.0480  173.1270  137.2430 C   0  0  0  0  0  1  0  0  0  0  0  0
  195.8590  173.2860  137.5160 C   0  0  1  0  0  3  0  0  0  0  0  0
  197.1290  174.1290  137.4440 C   0  0  0  0  0  2  0  0  0  0  0  0
  190.0870  175.4340  137.2010 C   0  0  2  0  0  3  0  0  0  0  0  0
  188.0670  176.6920  136.6440 C   0  0  0  0  0  2  0  0  0  0  0  0
  189.1880  175.6580  134.8620 O   0  0  0  0  0  1  0  0  0  0  0  0
  189.0750  175.9460  136.2160 C   0  0  0  0  0  0  0  0  0  0  0  0
  191.3200  176.8410  139.5540 C   0  0  0  0  0  2  0  0  0  0  0  0
  192.0780  177.6500  140.4070 O   0  0  0  0  0  0  0  0  0  0  0  0
  191.6820  177.3260  141.6210 O   0  0  0  0  0  0  0  0  0  0  0  0
  190.2990  177.1690  141.5150 C   0  0  0  0  0  1  0  0  0  0  0  0
  1 16  1  6  0  0  0
  1  5  1  0  0  0  0
  4  1  1  0  0  0  0
  4 10  1  0  0  0  0
  5  9  1  0  0  0  0
  6 27  1  0  0  0  0
  7 12  1  0  0  0  0
  9  6  1  0  0  0  0
 10 23  1  0  0  0  0
 10  6  1  0  0  0  0
 11  2  1  0  0  0  0
 11 15  1  0  0  0  0
 12 23  1  0  0  0  0
 12 20  1  0  0  0  0
 13 16  1  0  0  0  0
 13  2  1  0  0  0  0
 14 18  1  0  0  0  0
 14 21  1  0  0  0  0
 15 22  1  0  0  0  0
 17 19  1  0  0  0  0
 18  8  2  0  0  0  0
 19  7  1  0  0  0  0
 19  4  1  0  0  0  0
 19 18  1  0  0  0  0
 21  3  1  0  0  0  0
 22 21  1  0  0  0  0
 25 26  1  0  0  0  0
 26 24  2  0  0  0  0
 26 23  1  0  0  0  0
 27 28  1  0  0  0  0
 28 29  1  0  0  0  0
 30 29  1  0  0  0  0
M  END
>  <MODEL>
2

>  <REMARK>
 VINA RESULT:      -4.4      2.138      6.023
  Name = 
  4 active torsions:
  status: ('A' for Active; 'I' for Inactive)
    1  A    between atoms: C_6  and  C_8
    2  A    between atoms: C_6  and  O_21
    3  A    between atoms: O_9  and  O_21
    4  A    between atoms: C_27  and  C_30
                            x       y       z     vdW  Elec       q    Type
                         _______ _______ _______ _____ _____    ______ ____

>  <TORSDO>
F 4

$$$$
=
 OpenBabel10272414003D

 30 32  0  0  1  0  0  0  0  0999 V2000
  183.4120  176.8650  139.1410 C   0  0  1  0  0  3  0  0  0  0  0  0
  182.1390  179.5300  140.4840 C   0  0  0  0  0  2  0  0  0  0  0  0
  180.8070  179.3050  135.7770 C   0  0  0  0  0  1  0  0  0  0  0  0
  183.0420  175.5670  138.3790 C   0  0  2  0  0  3  0  0  0  0  0  0
  183.6180  177.9620  138.1840 N   0  0  0  0  0  2  0  0  0  0  0  0
  184.3740  176.5790  136.4730 C   0  0  2  0  0  3  0  0  0  0  0  0
  181.4030  174.0930  137.1150 C   0  0  0  0  0  2  0  0  0  0  0  0
  180.5520  176.4190  135.9620 O   0  0  0  0  0  0  0  0  0  0  0  0
  184.7410  177.6580  137.3900 N   0  0  0  0  0  2  0  0  0  0  0  0
  184.1050  175.3080  137.2880 C   0  0  2  0  0  3  0  0  0  0  0  0
  180.6370  179.2900  140.3660 C   0  0  0  0  0  2  0  0  0  0  0  0
  182.3730  174.0380  135.9420 C   0  0  2  0  0  3  0  0  0  0  0  0
  182.8650  178.2430  140.8700 C   0  0  0  0  0  2  0  0  0  0  0  0
  180.8950  177.8660  137.7560 N   0  0  0  0  0  2  0  0  0  0  0  0
  179.9820  180.2820  139.4100 C   0  0  0  0  0  2  0  0  0  0  0  0
  182.4100  177.1820  140.0740 O   0  0  0  0  0  0  0  0  0  0  0  0
  180.6750  175.1900  139.1450 C   0  0  0  0  0  1  0  0  0  0  0  0
  180.9870  176.5770  137.1360 C   0  0  0  0  0  0  0  0  0  0  0  0
  181.5490  175.3950  137.9180 C   0  0  1  0  0  0  0  0  0  0  0  0
  182.0880  172.8320  135.0660 C   0  0  0  0  0  1  0  0  0  0  0  0
  180.2740  179.0560  137.1780 C   0  0  1  0  0  3  0  0  0  0  0  0
  180.6220  180.2790  138.0210 C   0  0  0  0  0  2  0  0  0  0  0  0
  183.8250  174.0710  136.4270 C   0  0  2  0  0  3  0  0  0  0  0  0
  185.4430  172.7840  137.7310 C   0  0  0  0  0  2  0  0  0  0  0  0
  183.4350  171.7030  137.1810 O   0  0  0  0  0  1  0  0  0  0  0  0
  184.2610  172.8190  137.1340 C   0  0  0  0  0  0  0  0  0  0  0  0
  185.4920  176.3750  135.4540 C   0  0  0  0  0  2  0  0  0  0  0  0
  186.7260  176.7630  135.9870 O   0  0  0  0  0  0  0  0  0  0  0  0
  187.3980  175.6400  136.1400 O   0  0  0  0  0  0  0  0  0  0  0  0
  188.0770  175.7910  137.3490 C   0  0  0  0  0  1  0  0  0  0  0  0
  1  5  1  6  0  0  0
  1 16  1  0  0  0  0
  2 13  1  0  0  0  0
  3 21  1  0  0  0  0
  4  1  1  0  0  0  0
  6 10  1  0  0  0  0
  6  9  1  0  0  0  0
  7 19  1  0  0  0  0
  8 18  2  0  0  0  0
  9  5  1  0  0  0  0
 10  4  1  0  0  0  0
 11  2  1  0  0  0  0
 12 23  1  0  0  0  0
 12  7  1  0  0  0  0
 15 11  1  0  0  0  0
 16 13  1  0  0  0  0
 18 14  1  0  0  0  0
 18 19  1  0  0  0  0
 19  4  1  0  0  0  0
 19 17  1  0  0  0  0
 20 12  1  0  0  0  0
 21 14  1  0  0  0  0
 21 22  1  0  0  0  0
 22 15  1  0  0  0  0
 23 26  1  0  0  0  0
 23 10  1  0  0  0  0
 26 25  1  0  0  0  0
 26 24  2  0  0  0  0
 27 28  1  0  0  0  0
 27  6  1  0  0  0  0
 28 29  1  0  0  0  0
 29 30  1  0  0  0  0
M  END
>  <MODEL>
3

>  <REMARK>
 VINA RESULT:      -3.9      6.346      9.481
  Name = 
  4 active torsions:
  status: ('A' for Active; 'I' for Inactive)
    1  A    between atoms: C_6  and  C_8
    2  A    between atoms: C_6  and  O_21
    3  A    between atoms: O_9  and  O_21
    4  A    between atoms: C_27  and  C_30
                            x       y       z     vdW  Elec       q    Type
                         _______ _______ _______ _____ _____    ______ ____

>  <TORSDO>
F 4

$$$$
=
 OpenBabel10272414003D

 30 32  0  0  1  0  0  0  0  0999 V2000
  183.9550  176.9810  138.4890 C   0  0  1  0  0  3  0  0  0  0  0  0
  181.8700  179.3350  139.2900 C   0  0  0  0  0  2  0  0  0  0  0  0
  181.9770  178.8690  134.4160 C   0  0  0  0  0  1  0  0  0  0  0  0
  184.0680  175.6390  137.7220 C   0  0  2  0  0  3  0  0  0  0  0  0
  184.2060  178.1010  137.5690 N   0  0  0  0  0  2  0  0  0  0  0  0
  185.6600  176.9030  136.2060 C   0  0  2  0  0  3  0  0  0  0  0  0
  183.1630  173.8730  136.1340 C   0  0  0  0  0  2  0  0  0  0  0  0
  182.2390  175.9890  134.6730 O   0  0  0  0  0  0  0  0  0  0  0  0
  185.5420  178.0290  137.1320 N   0  0  0  0  0  2  0  0  0  0  0  0
  185.4230  175.6000  136.9810 C   0  0  2  0  0  3  0  0  0  0  0  0
  180.5360  178.8020  138.7760 C   0  0  0  0  0  2  0  0  0  0  0  0
  184.4140  174.0170  135.2770 C   0  0  2  0  0  3  0  0  0  0  0  0
  182.6920  178.2160  139.9260 C   0  0  0  0  0  2  0  0  0  0  0  0
  181.7820  177.4680  136.4150 N   0  0  0  0  0  2  0  0  0  0  0  0
  179.9970  179.6480  137.6260 C   0  0  0  0  0  2  0  0  0  0  0  0
  182.6900  177.0890  139.0920 O   0  0  0  0  0  0  0  0  0  0  0  0
  181.7000  174.7960  137.8260 C   0  0  0  0  0  1  0  0  0  0  0  0
  182.2900  176.2250  135.9120 C   0  0  0  0  0  0  0  0  0  0  0  0
  182.8260  175.1750  136.8780 C   0  0  1  0  0  0  0  0  0  0  0  0
  184.6220  172.7820  134.4200 C   0  0  0  0  0  1  0  0  0  0  0  0
  181.1320  178.5130  135.6280 C   0  0  1  0  0  3  0  0  0  0  0  0
  180.9890  179.7780  136.4690 C   0  0  0  0  0  2  0  0  0  0  0  0
  185.6380  174.3350  136.1410 C   0  0  2  0  0  3  0  0  0  0  0  0
  187.2270  172.5730  136.7260 C   0  0  0  0  0  2  0  0  0  0  0  0
  185.3370  172.7840  138.0980 O   0  0  0  0  0  1  0  0  0  0  0  0
  186.0900  173.1930  137.0040 C   0  0  0  0  0  0  0  0  0  0  0  0
  187.0370  176.9280  135.5460 C   0  0  0  0  0  2  0  0  0  0  0  0
  188.0460  177.0590  136.5070 O   0  0  0  0  0  0  0  0  0  0  0  0
  188.7430  178.1090  136.1240 O   0  0  0  0  0  0  0  0  0  0  0  0
  189.0230  178.8020  137.3030 C   0  0  0  0  0  1  0  0  0  0  0  0
  1  5  1  6  0  0  0
  1 16  1  0  0  0  0
  2 13  1  0  0  0  0
  3 21  1  0  0  0  0
  4  1  1  0  0  0  0
  6 10  1  0  0  0  0
  6  9  1  0  0  0  0
  7 19  1  0  0  0  0
  8 18  2  0  0  0  0
  9  5  1  0  0  0  0
 10  4  1  0  0  0  0
 11  2  1  0  0  0  0
 12  7  1  0  0  0  0
 12 23  1  0  0  0  0
 15 11  1  0  0  0  0
 16 13  1  0  0  0  0
 18 14  1  0  0  0  0
 18 19  1  0  0  0  0
 19  4  1  0  0  0  0
 19 17  1  0  0  0  0
 20 12  1  0  0  0  0
 21 14  1  0  0  0  0
 21 22  1  0  0  0  0
 22 15  1  0  0  0  0
 23 10  1  0  0  0  0
 23 26  1  0  0  0  0
 24 26  2  0  0  0  0
 26 25  1  0  0  0  0
 27  6  1  0  0  0  0
 27 28  1  0  0  0  0
 29 28  1  0  0  0  0
 29 30  1  0  0  0  0
M  END
>  <MODEL>
4

>  <REMARK>
 VINA RESULT:      -3.8      5.356      8.197
  Name = 
  4 active torsions:
  status: ('A' for Active; 'I' for Inactive)
    1  A    between atoms: C_6  and  C_8
    2  A    between atoms: C_6  and  O_21
    3  A    between atoms: O_9  and  O_21
    4  A    between atoms: C_27  and  C_30
                            x       y       z     vdW  Elec       q    Type
                         _______ _______ _______ _____ _____    ______ ____

>  <TORSDO>
F 4

$$$$
=
 OpenBabel10272414003D

 30 32  0  0  1  0  0  0  0  0999 V2000
  189.1910  176.2320  138.5960 C   0  0  1  0  0  3  0  0  0  0  0  0
  192.3980  175.8970  138.9590 C   0  0  0  0  0  2  0  0  0  0  0  0
  191.1750  174.7850  134.3490 C   0  0  0  0  0  1  0  0  0  0  0  0
  188.1120  176.9630  137.7570 C   0  0  2  0  0  3  0  0  0  0  0  0
  189.5630  174.9710  137.9360 N   0  0  0  0  0  2  0  0  0  0  0  0
  187.4720  174.6370  136.9760 C   0  0  2  0  0  3  0  0  0  0  0  0
  187.3800  178.3750  135.7740 C   0  0  0  0  0  2  0  0  0  0  0  0
  189.1750  176.8910  134.3460 O   0  0  0  0  0  0  0  0  0  0  0  0
  188.4430  174.1180  137.9380 N   0  0  0  0  0  2  0  0  0  0  0  0
  186.9470  175.9860  137.4820 C   0  0  2  0  0  3  0  0  0  0  0  0
  192.9630  176.9330  137.9930 C   0  0  0  0  0  2  0  0  0  0  0  0
  186.3900  177.2870  135.3790 C   0  0  2  0  0  3  0  0  0  0  0  0
  191.1760  176.4480  139.6910 C   0  0  0  0  0  2  0  0  0  0  0  0
  190.7680  176.5370  136.0110 N   0  0  0  0  0  2  0  0  0  0  0  0
  193.7100  176.2760  136.8360 C   0  0  0  0  0  2  0  0  0  0  0  0
  190.3090  177.0630  138.7770 O   0  0  0  0  0  0  0  0  0  0  0  0
  189.3590  179.0170  137.0120 C   0  0  0  0  0  1  0  0  0  0  0  0
  189.5030  177.0380  135.5560 C   0  0  0  0  0  0  0  0  0  0  0  0
  188.5970  177.7980  136.5160 C   0  0  1  0  0  0  0  0  0  0  0  0
  185.2930  177.8560  134.4970 C   0  0  0  0  0  1  0  0  0  0  0  0
  191.7880  175.8990  135.1830 C   0  0  1  0  0  3  0  0  0  0  0  0
  192.8520  175.2650  136.0740 C   0  0  0  0  0  2  0  0  0  0  0  0
  185.8290  176.5780  136.6150 C   0  0  2  0  0  3  0  0  0  0  0  0
  183.6260  177.1070  137.5320 C   0  0  0  0  0  2  0  0  0  0  0  0
  185.3840  178.5420  138.1230 O   0  0  0  0  0  1  0  0  0  0  0  0
  184.9070  177.4290  137.4420 C   0  0  0  0  0  0  0  0  0  0  0  0
  186.3460  173.6230  136.7920 C   0  0  0  0  0  2  0  0  0  0  0  0
  185.8710  173.1770  138.0310 O   0  0  0  0  0  0  0  0  0  0  0  0
  184.7470  172.5480  137.7550 O   0  0  0  0  0  0  0  0  0  0  0  0
  184.0690  173.3950  136.8770 C   0  0  0  0  0  1  0  0  0  0  0  0
  1  5  1  6  0  0  0
  1 16  1  0  0  0  0
  2 13  1  0  0  0  0
  3 21  1  0  0  0  0
  4  1  1  0  0  0  0
  5  9  1  0  0  0  0
  6 10  1  0  0  0  0
  6  9  1  0  0  0  0
  7 19  1  0  0  0  0
  8 18  2  0  0  0  0
 10  4  1  0  0  0  0
 11  2  1  0  0  0  0
 12  7  1  0  0  0  0
 12 23  1  0  0  0  0
 15 11  1  0  0  0  0
 16 13  1  0  0  0  0
 18 14  1  0  0  0  0
 18 19  1  0  0  0  0
 19 17  1  0  0  0  0
 19  4  1  0  0  0  0
 20 12  1  0  0  0  0
 21 14  1  0  0  0  0
 21 22  1  0  0  0  0
 22 15  1  0  0  0  0
 23 26  1  0  0  0  0
 23 10  1  0  0  0  0
 26 24  2  0  0  0  0
 26 25  1  0  0  0  0
 27  6  1  0  0  0  0
 27 28  1  0  0  0  0
 29 28  1  0  0  0  0
 30 29  1  0  0  0  0
M  END
>  <MODEL>
5

>  <REMARK>
 VINA RESULT:      -3.5      2.593      6.825
  Name = 
  4 active torsions:
  status: ('A' for Active; 'I' for Inactive)
    1  A    between atoms: C_6  and  C_8
    2  A    between atoms: C_6  and  O_21
    3  A    between atoms: O_9  and  O_21
    4  A    between atoms: C_27  and  C_30
                            x       y       z     vdW  Elec       q    Type
                         _______ _______ _______ _____ _____    ______ ____

>  <TORSDO>
F 4

$$$$
=
 OpenBabel10272414003D

 30 32  0  0  1  0  0  0  0  0999 V2000
  185.6200  177.8690  136.4180 C   0  0  1  0  0  3  0  0  0  0  0  0
  187.9990  176.0470  135.1730 C   0  0  0  0  0  2  0  0  0  0  0  0
  185.1900  173.2690  138.0680 C   0  0  0  0  0  1  0  0  0  0  0  0
  184.0790  177.9770  136.5360 C   0  0  2  0  0  3  0  0  0  0  0  0
  186.1470  177.0490  137.5190 N   0  0  0  0  0  2  0  0  0  0  0  0
  184.4770  177.6540  139.0200 C   0  0  2  0  0  3  0  0  0  0  0  0
  181.7330  177.0330  136.2800 C   0  0  0  0  0  2  0  0  0  0  0  0
  182.8210  174.6940  137.1770 O   0  0  0  0  0  0  0  0  0  0  0  0
  185.9090  177.7220  138.7320 N   0  0  0  0  0  2  0  0  0  0  0  0
  183.7200  178.4620  137.9580 C   0  0  2  0  0  3  0  0  0  0  0  0
  187.2420  175.0110  134.3470 C   0  0  0  0  0  2  0  0  0  0  0  0
  181.4730  177.3070  137.7550 C   0  0  2  0  0  3  0  0  0  0  0  0
  187.3660  177.4280  135.0230 C   0  0  0  0  0  2  0  0  0  0  0  0
  184.9530  174.9040  136.2600 N   0  0  0  0  0  2  0  0  0  0  0  0
  187.3920  173.6080  134.9270 C   0  0  0  0  0  2  0  0  0  0  0  0
  185.9740  177.3330  135.1680 O   0  0  0  0  0  0  0  0  0  0  0  0
  183.3270  176.7300  134.4840 C   0  0  0  0  0  1  0  0  0  0  0  0
  183.6400  175.4090  136.5360 C   0  0  0  0  0  0  0  0  0  0  0  0
  183.2210  176.7730  136.0000 C   0  0  1  0  0  0  0  0  0  0  0  0
  179.9820  177.3830  138.0310 C   0  0  0  0  0  1  0  0  0  0  0  0
  185.4530  173.5750  136.6030 C   0  0  1  0  0  3  0  0  0  0  0  0
  186.9640  173.5220  136.3930 C   0  0  0  0  0  2  0  0  0  0  0  0
  182.2120  178.5650  138.2200 C   0  0  2  0  0  3  0  0  0  0  0  0
  181.6850  180.9450  138.3880 C   0  0  0  0  0  2  0  0  0  0  0  0
  181.1320  179.8840  136.3700 O   0  0  0  0  0  1  0  0  0  0  0  0
  181.6590  179.8420  137.6550 C   0  0  0  0  0  0  0  0  0  0  0  0
  184.2140  178.1800  140.4290 C   0  0  0  0  0  2  0  0  0  0  0  0
  184.6660  179.4980  140.5580 O   0  0  0  0  0  0  0  0  0  0  0  0
  185.3230  179.5190  141.7010 O   0  0  0  0  0  0  0  0  0  0  0  0
  184.7150  178.5340  142.4800 C   0  0  0  0  0  1  0  0  0  0  0  0
  1 16  1  6  0  0  0
  1  4  1  0  0  0  0
  1  5  1  0  0  0  0
  4 10  1  0  0  0  0
  5  9  1  0  0  0  0
  6 27  1  0  0  0  0
  7 12  1  0  0  0  0
  9  6  1  0  0  0  0
 10 23  1  0  0  0  0
 10  6  1  0  0  0  0
 11 15  1  0  0  0  0
 11  2  1  0  0  0  0
 12 20  1  0  0  0  0
 12 23  1  0  0  0  0
 13 16  1  0  0  0  0
 13  2  1  0  0  0  0
 14 18  1  0  0  0  0
 14 21  1  0  0  0  0
 15 22  1  0  0  0  0
 17 19  1  0  0  0  0
 18  8  2  0  0  0  0
 19  7  1  0  0  0  0
 19 18  1  0  0  0  0
 19  4  1  0  0  0  0
 21  3  1  0  0  0  0
 22 21  1  0  0  0  0
 25 26  1  0  0  0  0
 26 23  1  0  0  0  0
 26 24  2  0  0  0  0
 27 28  1  0  0  0  0
 28 29  1  0  0  0  0
 29 30  1  0  0  0  0
M  END
>  <MODEL>
6

>  <REMARK>
 VINA RESULT:      -3.5      5.366      8.895
  Name = 
  4 active torsions:
  status: ('A' for Active; 'I' for Inactive)
    1  A    between atoms: C_6  and  C_8
    2  A    between atoms: C_6  and  O_21
    3  A    between atoms: O_9  and  O_21
    4  A    between atoms: C_27  and  C_30
                            x       y       z     vdW  Elec       q    Type
                         _______ _______ _______ _____ _____    ______ ____

>  <TORSDO>
F 4

$$$$
=
 OpenBabel10272414003D

 30 32  0  0  1  0  0  0  0  0999 V2000
  181.6050  177.2920  135.7350 C   0  0  1  0  0  3  0  0  0  0  0  0
  180.2830  180.1300  136.5860 C   0  0  0  0  0  2  0  0  0  0  0  0
  180.5530  177.2350  140.5260 C   0  0  0  0  0  1  0  0  0  0  0  0
  182.7750  176.3280  136.0560 C   0  0  2  0  0  3  0  0  0  0  0  0
  180.4550  176.9830  136.5980 N   0  0  0  0  0  2  0  0  0  0  0  0
  180.9500  174.7170  136.7650 C   0  0  2  0  0  3  0  0  0  0  0  0
  184.7160  175.5520  137.5010 C   0  0  0  0  0  2  0  0  0  0  0  0
  183.1020  176.1880  139.6120 O   0  0  0  0  0  0  0  0  0  0  0  0
  179.9840  175.6970  136.2710 N   0  0  0  0  0  2  0  0  0  0  0  0
  182.2590  174.8740  135.9820 C   0  0  2  0  0  3  0  0  0  0  0  0
  181.2860  180.6890  137.5900 C   0  0  0  0  0  2  0  0  0  0  0  0
  184.0710  174.1770  137.6110 C   0  0  2  0  0  3  0  0  0  0  0  0
  181.0020  179.4650  135.4150 C   0  0  0  0  0  2  0  0  0  0  0  0
  181.9650  177.9930  138.6740 N   0  0  0  0  0  2  0  0  0  0  0  0
  180.6940  180.7650  138.9940 C   0  0  0  0  0  2  0  0  0  0  0  0
  182.0180  178.6260  135.8940 O   0  0  0  0  0  0  0  0  0  0  0  0
  184.4850  177.9100  137.0080 C   0  0  0  0  0  1  0  0  0  0  0  0
  182.8950  176.9050  138.5940 C   0  0  0  0  0  0  0  0  0  0  0  0
  183.6710  176.6610  137.3050 C   0  0  1  0  0  0  0  0  0  0  0  0
  185.1030  173.1280  137.9810 C   0  0  0  0  0  1  0  0  0  0  0  0
  181.2420  178.4200  139.8700 C   0  0  1  0  0  3  0  0  0  0  0  0
  180.1560  179.4210  139.4860 C   0  0  0  0  0  2  0  0  0  0  0  0
  183.3170  173.8190  136.3270 C   0  0  2  0  0  3  0  0  0  0  0  0
  184.0130  172.4680  134.4140 C   0  0  0  0  0  2  0  0  0  0  0  0
  185.2290  174.4330  134.8140 O   0  0  0  0  0  1  0  0  0  0  0  0
  184.2090  173.5520  135.1490 C   0  0  0  0  0  0  0  0  0  0  0  0
  180.3690  173.3120  136.6240 C   0  0  0  0  0  2  0  0  0  0  0  0
  180.5990  172.5610  137.7820 O   0  0  0  0  0  0  0  0  0  0  0  0
  180.1880  171.3450  137.4830 O   0  0  0  0  0  0  0  0  0  0  0  0
  180.3990  171.2250  136.1080 C   0  0  0  0  0  1  0  0  0  0  0  0
  1 16  1  1  0  0  0
  1  4  1  0  0  0  0
  1  5  1  0  0  0  0
  2 11  1  0  0  0  0
  4 19  1  0  0  0  0
  7 12  1  0  0  0  0
  9  5  1  0  0  0  0
  9  6  1  0  0  0  0
 10  4  1  0  0  0  0
 10 23  1  0  0  0  0
 10  6  1  0  0  0  0
 11 15  1  0  0  0  0
 12 20  1  0  0  0  0
 13 16  1  0  0  0  0
 13  2  1  0  0  0  0
 14 21  1  0  0  0  0
 15 22  1  0  0  0  0
 17 19  1  0  0  0  0
 18 14  1  0  0  0  0
 18  8  2  0  0  0  0
 19  7  1  0  0  0  0
 19 18  1  0  0  0  0
 21  3  1  0  0  0  0
 22 21  1  0  0  0  0
 23 12  1  0  0  0  0
 24 26  2  0  0  0  0
 25 26  1  0  0  0  0
 26 23  1  0  0  0  0
 27  6  1  0  0  0  0
 27 28  1  0  0  0  0
 29 28  1  0  0  0  0
 30 29  1  0  0  0  0
M  END
>  <MODEL>
7

>  <REMARK>
 VINA RESULT:      -3.5      7.491     10.380
  Name = 
  4 active torsions:
  status: ('A' for Active; 'I' for Inactive)
    1  A    between atoms: C_6  and  C_8
    2  A    between atoms: C_6  and  O_21
    3  A    between atoms: O_9  and  O_21
    4  A    between atoms: C_27  and  C_30
                            x       y       z     vdW  Elec       q    Type
                         _______ _______ _______ _____ _____    ______ ____

>  <TORSDO>
F 4

$$$$
=
 OpenBabel10272414003D

 30 32  0  0  1  0  0  0  0  0999 V2000
  183.6500  175.9400  137.8530 C   0  0  1  0  0  3  0  0  0  0  0  0
  184.6750  173.0720  136.7350 C   0  0  0  0  0  2  0  0  0  0  0  0
  179.9840  173.7060  135.4810 C   0  0  0  0  0  1  0  0  0  0  0  0
  183.0170  177.2840  137.4120 C   0  0  2  0  0  3  0  0  0  0  0  0
  182.5900  174.9650  138.1500 N   0  0  0  0  0  2  0  0  0  0  0  0
  181.0520  176.5660  138.8450 C   0  0  2  0  0  3  0  0  0  0  0  0
  181.8710  178.7760  135.7030 C   0  0  0  0  0  2  0  0  0  0  0  0
  180.4610  176.5340  135.0310 O   0  0  0  0  0  0  0  0  0  0  0  0
  181.8610  175.4220  139.2640 N   0  0  0  0  0  2  0  0  0  0  0  0
  181.9870  177.7240  138.4760 C   0  0  2  0  0  3  0  0  0  0  0  0
  184.5440  173.2270  135.2220 C   0  0  0  0  0  2  0  0  0  0  0  0
  180.7350  179.0150  136.6900 C   0  0  2  0  0  3  0  0  0  0  0  0
  185.2110  174.3550  137.3660 C   0  0  0  0  0  2  0  0  0  0  0  0
  182.1040  174.9310  135.4350 N   0  0  0  0  0  2  0  0  0  0  0  0
  183.4730  172.3010  134.6530 C   0  0  0  0  0  2  0  0  0  0  0  0
  184.5180  175.4630  136.8570 O   0  0  0  0  0  0  0  0  0  0  0  0
  183.7570  177.4260  135.0110 C   0  0  0  0  0  1  0  0  0  0  0  0
  181.6230  176.2820  135.4530 C   0  0  0  0  0  0  0  0  0  0  0  0
  182.5380  177.4080  135.9200 C   0  0  1  0  0  0  0  0  0  0  0  0
  179.9820  180.2870  136.3420 C   0  0  0  0  0  1  0  0  0  0  0  0
  181.3890  173.7720  134.9060 C   0  0  1  0  0  3  0  0  0  0  0  0
  182.1090  172.4910  135.3180 C   0  0  0  0  0  2  0  0  0  0  0  0
  181.2520  179.0250  138.1310 C   0  0  2  0  0  3  0  0  0  0  0  0
  183.2680  180.0460  139.0620 C   0  0  0  0  0  2  0  0  0  0  0  0
  181.6710  181.5060  138.1570 O   0  0  0  0  0  1  0  0  0  0  0  0
  182.0970  180.2200  138.4690 C   0  0  0  0  0  0  0  0  0  0  0  0
  180.0890  176.9480  139.9660 C   0  0  0  0  0  2  0  0  0  0  0  0
  180.7910  177.3680  141.1010 O   0  0  0  0  0  0  0  0  0  0  0  0
  180.2280  178.5090  141.4440 O   0  0  0  0  0  0  0  0  0  0  0  0
  181.1830  179.1580  142.2270 C   0  0  0  0  0  1  0  0  0  0  0  0
  1 16  1  6  0  0  0
  1  5  1  0  0  0  0
  2 13  1  0  0  0  0
  4  1  1  0  0  0  0
  4 10  1  0  0  0  0
  5  9  1  0  0  0  0
  6  9  1  0  0  0  0
  6 27  1  0  0  0  0
  7 19  1  0  0  0  0
  7 12  1  0  0  0  0
  8 18  2  0  0  0  0
 10  6  1  0  0  0  0
 11  2  1  0  0  0  0
 12 23  1  0  0  0  0
 14 18  1  0  0  0  0
 15 11  1  0  0  0  0
 15 22  1  0  0  0  0
 16 13  1  0  0  0  0
 17 19  1  0  0  0  0
 18 19  1  0  0  0  0
 19  4  1  0  0  0  0
 20 12  1  0  0  0  0
 21 22  1  0  0  0  0
 21 14  1  0  0  0  0
 21  3  1  0  0  0  0
 23 26  1  0  0  0  0
 23 10  1  0  0  0  0
 25 26  1  0  0  0  0
 26 24  2  0  0  0  0
 27 28  1  0  0  0  0
 28 29  1  0  0  0  0
 29 30  1  0  0  0  0
M  END
>  <MODEL>
8

>  <REMARK>
 VINA RESULT:      -3.3      7.272     10.203
  Name = 
  4 active torsions:
  status: ('A' for Active; 'I' for Inactive)
    1  A    between atoms: C_6  and  C_8
    2  A    between atoms: C_6  and  O_21
    3  A    between atoms: O_9  and  O_21
    4  A    between atoms: C_27  and  C_30
                            x       y       z     vdW  Elec       q    Type
                         _______ _______ _______ _____ _____    ______ ____

>  <TORSDO>
F 4

$$$$
=
 OpenBabel10272414003D

 30 32  0  0  1  0  0  0  0  0999 V2000
  183.6040  175.9640  135.2140 C   0  0  1  0  0  3  0  0  0  0  0  0
  180.9990  177.8790  135.4900 C   0  0  0  0  0  2  0  0  0  0  0  0
  183.2930  177.6480  139.8110 C   0  0  0  0  0  1  0  0  0  0  0  0
  185.1410  175.9330  135.4080 C   0  0  2  0  0  3  0  0  0  0  0  0
  182.9370  175.5940  136.4710 N   0  0  0  0  0  2  0  0  0  0  0  0
  184.6510  174.1960  137.1890 C   0  0  2  0  0  3  0  0  0  0  0  0
  187.3200  176.9240  136.2650 C   0  0  0  0  0  2  0  0  0  0  0  0
  185.8680  177.6270  138.4700 O   0  0  0  0  0  0  0  0  0  0  0  0
  183.2520  174.2540  136.7670 N   0  0  0  0  0  2  0  0  0  0  0  0
  185.5430  174.5630  135.9960 C   0  0  2  0  0  3  0  0  0  0  0  0
  181.6050  179.2330  135.8450 C   0  0  0  0  0  2  0  0  0  0  0  0
  187.5900  175.6380  137.0340 C   0  0  2  0  0  3  0  0  0  0  0  0
  181.8390  177.1710  134.4290 C   0  0  0  0  0  2  0  0  0  0  0  0
  183.8120  178.0210  137.4470 N   0  0  0  0  0  2  0  0  0  0  0  0
  181.2290  179.6640  137.2600 C   0  0  0  0  0  2  0  0  0  0  0  0
  183.1970  177.2350  134.7750 O   0  0  0  0  0  0  0  0  0  0  0  0
  185.7330  178.3640  135.1390 C   0  0  0  0  0  1  0  0  0  0  0  0
  185.1810  177.5980  137.4110 C   0  0  0  0  0  0  0  0  0  0  0  0
  185.8150  177.1810  136.0900 C   0  0  1  0  0  0  0  0  0  0  0  0
  189.0690  175.5010  137.3470 C   0  0  0  0  0  1  0  0  0  0  0  0
  183.1080  178.5590  138.6090 C   0  0  1  0  0  3  0  0  0  0  0  0
  181.6110  178.6280  138.3180 C   0  0  0  0  0  2  0  0  0  0  0  0
  187.0430  174.4210  136.2810 C   0  0  2  0  0  3  0  0  0  0  0  0
  187.7660  172.8550  134.5500 C   0  0  0  0  0  2  0  0  0  0  0  0
  188.5140  175.0690  134.3460 O   0  0  0  0  0  1  0  0  0  0  0  0
  187.7960  174.0920  135.0250 C   0  0  0  0  0  0  0  0  0  0  0  0
  184.9640  172.8010  137.7240 C   0  0  0  0  0  2  0  0  0  0  0  0
  184.1280  171.8450  137.1370 O   0  0  0  0  0  0  0  0  0  0  0  0
  184.8730  171.2610  136.2200 O   0  0  0  0  0  0  0  0  0  0  0  0
  184.0010  171.0000  135.1630 C   0  0  0  0  0  1  0  0  0  0  0  0
  1 16  1  1  0  0  0
  1  4  1  0  0  0  0
  1  5  1  0  0  0  0
  2 11  1  0  0  0  0
  4 10  1  0  0  0  0
  4 19  1  0  0  0  0
  5  9  1  0  0  0  0
  6 27  1  0  0  0  0
  7 12  1  0  0  0  0
  9  6  1  0  0  0  0
 10 23  1  0  0  0  0
 10  6  1  0  0  0  0
 11 15  1  0  0  0  0
 12 20  1  0  0  0  0
 13 16  1  0  0  0  0
 13  2  1  0  0  0  0
 14 21  1  0  0  0  0
 15 22  1  0  0  0  0
 17 19  1  0  0  0  0
 18 14  1  0  0  0  0
 18  8  2  0  0  0  0
 19  7  1  0  0  0  0
 19 18  1  0  0  0  0
 21  3  1  0  0  0  0
 22 21  1  0  0  0  0
 23 12  1  0  0  0  0
 24 26  2  0  0  0  0
 25 26  1  0  0  0  0
 26 23  1  0  0  0  0
 28 27  1  0  0  0  0
 29 28  1  0  0  0  0
 30 29  1  0  0  0  0
M  END
>  <MODEL>
9

>  <REMARK>
 VINA RESULT:      -3.1      4.711      7.760
  Name = 
  4 active torsions:
  status: ('A' for Active; 'I' for Inactive)
    1  A    between atoms: C_6  and  C_8
    2  A    between atoms: C_6  and  O_21
    3  A    between atoms: O_9  and  O_21
    4  A    between atoms: C_27  and  C_30
                            x       y       z     vdW  Elec       q    Type
                         _______ _______ _______ _____ _____    ______ ____

>  <TORSDO>
F 4

$$$$
