=
 OpenBabel10272414273D

 43 48  0  0  1  0  0  0  0  0999 V2000
  191.7220  176.4470  147.5210 C   0  0  0  0  0  0  0  0  0  0  0  0
  189.4760  176.8330  143.0490 C   0  0  0  0  0  0  0  0  0  0  0  0
  190.9990  176.0980  145.1800 C   0  0  2  0  0  3  0  0  0  0  0  0
  190.4690  177.2520  147.8210 C   0  0  0  0  0  2  0  0  0  0  0  0
  192.6550  176.3110  148.4960 F   0  0  0  0  0  0  0  0  0  0  0  0
  190.1580  177.3710  145.3430 C   0  0  2  0  0  3  0  0  0  0  0  0
  192.0000  175.9840  146.2890 C   0  0  0  0  0  3  0  0  0  0  0  0
  189.4400  177.2700  146.6790 C   0  0  0  0  0  2  0  0  0  0  0  0
  188.0910  178.3000  144.0930 N   0  0  0  0  0  2  0  0  0  0  0  0
  189.2230  177.4580  144.1780 C   0  0  0  0  0  0  0  0  0  0  0  0
  190.5910  175.8190  142.9540 C   0  0  0  0  0  2  0  0  0  0  0  0
  188.4230  177.1100  142.0380 C   0  0  1  0  0  3  0  0  0  0  0  0
  187.5230  178.1350  142.7560 C   0  0  1  0  0  3  0  0  0  0  0  0
  191.6100  176.0780  143.9080 O   0  0  0  0  0  0  0  0  0  0  0  0
  189.0450  177.7400  140.8040 C   0  0  0  0  0  2  0  0  0  0  0  0
  188.0430  178.1350  139.9150 O   0  0  0  0  0  0  0  0  0  0  0  0
  188.1060  178.0970  136.2290 C   0  0  0  0  0  2  0  0  0  0  0  0
  190.0040  175.8290  137.7640 C   0  0  0  0  0  2  0  0  0  0  0  0
  190.0350  176.4360  136.3660 C   0  0  0  0  0  2  0  0  0  0  0  0
  188.4770  178.6140  137.6220 C   0  0  0  0  0  2  0  0  0  0  0  0
  188.3900  177.5410  138.7010 C   0  0  0  0  0  3  0  0  0  0  0  0
  188.6140  176.6920  135.8870 C   0  0  0  0  0  2  0  0  0  0  0  0
  189.7550  176.8750  138.8440 C   0  0  0  0  0  2  0  0  0  0  0  0
  186.2260  177.6280  142.8570 O   0  0  0  0  0  0  0  0  0  0  0  0
  185.4060  178.6460  142.3690 C   0  0  1  0  0  3  0  0  0  0  0  0
  184.3410  178.0400  141.4730 C   0  0  1  0  0  3  0  0  0  0  0  0
  184.0000  178.4480  142.8930 C   0  0  0  0  0  2  0  0  0  0  0  0
  183.8170  179.0960  140.5030 C   0  0  1  0  0  3  0  0  0  0  0  0
  184.8680  179.5570  139.7070 O   0  0  0  0  0  1  0  0  0  0  0  0
  182.5250  177.2020  139.8010 O   0  0  0  0  0  1  0  0  0  0  0  0
  182.6710  178.5850  139.6080 C   0  0  1  0  0  0  0  0  0  0  0  0
  181.3620  179.3150  139.9550 C   0  0  0  0  0  2  0  0  0  0  0  0
  180.3760  179.6700  141.8980 C   0  0  0  0  0  1  0  0  0  0  0  0
  180.6720  178.6630  140.9800 O   0  0  0  0  0  0  0  0  0  0  0  0
  183.0280  178.8710  138.2650 O   0  0  0  0  0  0  0  0  0  0  0  0
  182.7000  177.7840  137.4310 C   0  0  1  0  0  3  0  0  0  0  0  0
  181.6200  178.1420  136.6210 O   0  0  0  0  0  1  0  0  0  0  0  0
  183.9020  177.4170  136.5600 C   0  0  0  0  0  3  0  0  0  0  0  0
  183.0980  175.2780  135.5100 C   0  0  0  0  0  2  0  0  0  0  0  0
  184.3690  175.0810  137.3610 C   0  0  0  0  0  2  0  0  0  0  0  0
  184.2020  174.5970  136.0530 O   0  0  0  0  0  0  0  0  0  0  0  0
  184.8890  176.5210  137.3190 C   0  0  0  0  0  2  0  0  0  0  0  0
  183.4640  176.7430  135.2540 C   0  0  0  0  0  2  0  0  0  0  0  0
  1  4  1  0  0  0  0
  1  5  1  0  0  0  0
  2 10  2  0  0  0  0
  3  6  1  0  0  0  0
  3  7  1  1  0  0  0
  6  8  1  1  0  0  0
  7  1  2  0  0  0  0
  8  4  1  0  0  0  0
  9 10  1  0  0  0  0
 10  6  1  0  0  0  0
 11  2  1  0  0  0  0
 11 14  1  0  0  0  0
 12 15  1  6  0  0  0
 12 13  1  0  0  0  0
 12  2  1  0  0  0  0
 13 24  1  1  0  0  0
 13  9  1  0  0  0  0
 14  3  1  0  0  0  0
 16 15  1  0  0  0  0
 17 20  1  0  0  0  0
 18 23  1  0  0  0  0
 19 18  1  0  0  0  0
 20 21  1  0  0  0  0
 21 23  1  0  0  0  0
 21 16  1  0  0  0  0
 22 17  1  0  0  0  0
 22 19  1  0  0  0  0
 25 24  1  1  0  0  0
 25 27  1  0  0  0  0
 26 28  1  6  0  0  0
 26 25  1  0  0  0  0
 26 27  1  0  0  0  0
 28 29  1  6  0  0  0
 31 30  1  1  0  0  0
 31 32  1  0  0  0  0
 31 28  1  0  0  0  0
 32 34  1  0  0  0  0
 34 33  1  0  0  0  0
 35 31  1  0  0  0  0
 36 37  1  6  0  0  0
 36 35  1  0  0  0  0
 38 42  1  0  0  0  0
 38 36  1  0  0  0  0
 39 41  1  0  0  0  0
 41 40  1  0  0  0  0
 42 40  1  0  0  0  0
 43 39  1  0  0  0  0
 43 38  1  0  0  0  0
M  END
>  <MODEL>
1

>  <REMARK>
 VINA RESULT:      -7.7      0.000      0.000
  Name = 
  12 active torsions:
  status: ('A' for Active; 'I' for Inactive)
    1  A    between atoms: C_1  and  O_28
    2  A    between atoms: C_1  and  C_34
    3  A    between atoms: C_2  and  O_13
    4  A    between atoms: C_4  and  C_12
    5  A    between atoms: C_4  and  C_15
    6  A    between atoms: C_4  and  O_22
    7  A    between atoms: C_6  and  C_12
    8  A    between atoms: C_11  and  C_14
    9  A    between atoms: O_13  and  C_38
   10  A    between atoms: C_14  and  O_22
   11  A    between atoms: C_15  and  O_42
   12  A    between atoms: O_28  and  C_35
                            x       y       z     vdW  Elec       q    Type
                         _______ _______ _______ _____ _____    ______ ____

>  <TORSDO>
F 12

$$$$
=
 OpenBabel10272414273D

 43 48  0  0  1  0  0  0  0  0999 V2000
  192.1370  175.5640  146.4940 C   0  0  0  0  0  0  0  0  0  0  0  0
  189.6440  178.0120  142.8910 C   0  0  0  0  0  0  0  0  0  0  0  0
  190.9650  177.2840  145.1550 C   0  0  2  0  0  3  0  0  0  0  0  0
  192.3950  174.7280  145.2520 C   0  0  0  0  0  2  0  0  0  0  0  0
  192.5300  175.0770  147.6980 F   0  0  0  0  0  0  0  0  0  0  0  0
  190.6900  176.1730  144.1330 C   0  0  2  0  0  3  0  0  0  0  0  0
  191.4140  176.6970  146.4590 C   0  0  0  0  0  3  0  0  0  0  0  0
  191.9890  175.4090  143.9350 C   0  0  0  0  0  2  0  0  0  0  0  0
  190.1050  176.1940  141.6110 N   0  0  0  0  0  2  0  0  0  0  0  0
  190.1900  176.8170  142.8770 C   0  0  0  0  0  0  0  0  0  0  0  0
  189.7070  178.8820  144.1250 C   0  0  0  0  0  2  0  0  0  0  0  0
  189.1920  178.4090  141.5330 C   0  0  1  0  0  3  0  0  0  0  0  0
  189.4790  177.1460  140.6970 C   0  0  1  0  0  3  0  0  0  0  0  0
  189.8240  178.1020  145.3040 O   0  0  0  0  0  0  0  0  0  0  0  0
  187.7010  178.6950  141.5470 C   0  0  0  0  0  2  0  0  0  0  0  0
  187.0190  177.6370  142.1510 O   0  0  0  0  0  0  0  0  0  0  0  0
  183.7040  179.0750  142.8870 C   0  0  0  0  0  2  0  0  0  0  0  0
  185.7130  178.5770  145.4980 C   0  0  0  0  0  2  0  0  0  0  0  0
  184.2030  178.7330  145.3630 C   0  0  0  0  0  2  0  0  0  0  0  0
  184.6910  177.9530  142.5520 C   0  0  0  0  0  2  0  0  0  0  0  0
  186.1120  178.2480  143.0200 C   0  0  0  0  0  3  0  0  0  0  0  0
  183.8870  179.7310  144.2590 C   0  0  0  0  0  2  0  0  0  0  0  0
  186.3000  177.6740  144.4200 C   0  0  0  0  0  2  0  0  0  0  0  0
  190.3670  177.4600  139.6660 O   0  0  0  0  0  0  0  0  0  0  0  0
  191.0250  176.2630  139.3840 C   0  0  1  0  0  3  0  0  0  0  0  0
  191.2080  176.1380  137.8820 C   0  0  1  0  0  3  0  0  0  0  0  0
  192.3690  176.5670  138.7580 C   0  0  0  0  0  2  0  0  0  0  0  0
  191.3770  174.6700  137.5010 C   0  0  1  0  0  3  0  0  0  0  0  0
  190.1460  174.0170  137.6090 O   0  0  0  0  0  1  0  0  0  0  0  0
  192.2700  173.1140  135.9100 O   0  0  0  0  0  1  0  0  0  0  0  0
  191.9500  174.4700  136.0850 C   0  0  1  0  0  0  0  0  0  0  0  0
  190.9230  174.9180  135.0300 C   0  0  0  0  0  2  0  0  0  0  0  0
  190.1080  176.8830  134.4430 C   0  0  0  0  0  1  0  0  0  0  0  0
  191.2850  176.1370  134.4520 O   0  0  0  0  0  0  0  0  0  0  0  0
  193.1120  175.2780  135.9840 O   0  0  0  0  0  0  0  0  0  0  0  0
  194.2490  174.4730  135.7750 C   0  0  1  0  0  3  0  0  0  0  0  0
  194.7730  174.7440  134.5090 O   0  0  0  0  0  1  0  0  0  0  0  0
  195.3000  174.7740  136.8460 C   0  0  0  0  0  3  0  0  0  0  0  0
  196.8980  172.8640  136.4970 C   0  0  0  0  0  2  0  0  0  0  0  0
  195.3340  172.5950  138.0970 C   0  0  0  0  0  2  0  0  0  0  0  0
  196.7070  172.4600  137.8300 O   0  0  0  0  0  0  0  0  0  0  0  0
  194.9620  174.0780  138.1710 C   0  0  0  0  0  2  0  0  0  0  0  0
  196.7060  174.3790  136.3780 C   0  0  0  0  0  2  0  0  0  0  0  0
  1  5  1  0  0  0  0
  2 11  1  0  0  0  0
  3 14  1  0  0  0  0
  3  7  1  1  0  0  0
  4  1  1  0  0  0  0
  6  8  1  6  0  0  0
  6  3  1  0  0  0  0
  7  1  2  0  0  0  0
  8  4  1  0  0  0  0
  9 10  1  0  0  0  0
 10  2  2  0  0  0  0
 10  6  1  0  0  0  0
 11 14  1  0  0  0  0
 12 15  1  1  0  0  0
 12  2  1  0  0  0  0
 13 24  1  6  0  0  0
 13 12  1  0  0  0  0
 13  9  1  0  0  0  0
 15 16  1  0  0  0  0
 16 21  1  0  0  0  0
 17 22  1  0  0  0  0
 19 18  1  0  0  0  0
 20 17  1  0  0  0  0
 20 21  1  0  0  0  0
 21 23  1  0  0  0  0
 22 19  1  0  0  0  0
 23 18  1  0  0  0  0
 25 24  1  6  0  0  0
 26 28  1  1  0  0  0
 26 27  1  0  0  0  0
 26 25  1  0  0  0  0
 27 25  1  0  0  0  0
 28 29  1  6  0  0  0
 31 30  1  6  0  0  0
 31 28  1  0  0  0  0
 32 31  1  0  0  0  0
 33 34  1  0  0  0  0
 34 32  1  0  0  0  0
 35 31  1  0  0  0  0
 36 37  1  6  0  0  0
 36 35  1  0  0  0  0
 36 38  1  0  0  0  0
 38 42  1  0  0  0  0
 39 41  1  0  0  0  0
 40 42  1  0  0  0  0
 41 40  1  0  0  0  0
 43 39  1  0  0  0  0
 43 38  1  0  0  0  0
M  END
>  <MODEL>
2

>  <REMARK>
 VINA RESULT:      -7.5      3.957      8.393
  Name = 
  12 active torsions:
  status: ('A' for Active; 'I' for Inactive)
    1  A    between atoms: C_1  and  O_28
    2  A    between atoms: C_1  and  C_34
    3  A    between atoms: C_2  and  O_13
    4  A    between atoms: C_4  and  C_12
    5  A    between atoms: C_4  and  C_15
    6  A    between atoms: C_4  and  O_22
    7  A    between atoms: C_6  and  C_12
    8  A    between atoms: C_11  and  C_14
    9  A    between atoms: O_13  and  C_38
   10  A    between atoms: C_14  and  O_22
   11  A    between atoms: C_15  and  O_42
   12  A    between atoms: O_28  and  C_35
                            x       y       z     vdW  Elec       q    Type
                         _______ _______ _______ _____ _____    ______ ____

>  <TORSDO>
F 12

$$$$
=
 OpenBabel10272414273D

 43 48  0  0  1  0  0  0  0  0999 V2000
  182.0300  179.1340  143.1830 C   0  0  0  0  0  0  0  0  0  0  0  0
  186.9000  177.9360  142.9580 C   0  0  0  0  0  0  0  0  0  0  0  0
  184.2810  178.2090  143.6400 C   0  0  2  0  0  3  0  0  0  0  0  0
  182.3840  179.3550  141.7220 C   0  0  0  0  0  2  0  0  0  0  0  0
  180.8140  179.5380  143.6250 F   0  0  0  0  0  0  0  0  0  0  0  0
  184.7600  179.0070  142.4210 C   0  0  2  0  0  3  0  0  0  0  0  0
  182.9270  178.6800  144.0770 C   0  0  0  0  0  3  0  0  0  0  0  0
  183.7490  178.7810  141.3070 C   0  0  0  0  0  2  0  0  0  0  0  0
  186.8090  178.7880  140.8550 N   0  0  0  0  0  2  0  0  0  0  0  0
  186.1350  178.5330  142.0710 C   0  0  0  0  0  0  0  0  0  0  0  0
  186.3460  177.4960  144.2920 C   0  0  0  0  0  2  0  0  0  0  0  0
  188.2270  177.6020  142.3800 C   0  0  1  0  0  3  0  0  0  0  0  0
  188.1520  178.2240  140.9730 C   0  0  1  0  0  3  0  0  0  0  0  0
  185.2330  178.2880  144.6780 O   0  0  0  0  0  0  0  0  0  0  0  0
  189.3250  178.2710  143.1870 C   0  0  0  0  0  2  0  0  0  0  0  0
  190.3850  177.3830  143.3780 O   0  0  0  0  0  0  0  0  0  0  0  0
  191.9910  176.0970  146.4380 C   0  0  0  0  0  2  0  0  0  0  0  0
  189.1270  177.7490  146.8530 C   0  0  0  0  0  2  0  0  0  0  0  0
  190.2900  177.4320  147.7860 C   0  0  0  0  0  2  0  0  0  0  0  0
  191.8000  177.0690  145.2690 C   0  0  0  0  0  2  0  0  0  0  0  0
  190.3690  177.0970  144.7440 C   0  0  0  0  0  3  0  0  0  0  0  0
  190.8500  176.0570  147.4600 C   0  0  0  0  0  2  0  0  0  0  0  0
  189.5980  178.1930  145.4730 C   0  0  0  0  0  2  0  0  0  0  0  0
  188.3280  177.2280  140.0110 O   0  0  0  0  0  0  0  0  0  0  0  0
  189.5910  177.4720  139.4700 C   0  0  1  0  0  3  0  0  0  0  0  0
  189.6580  176.8760  138.0760 C   0  0  1  0  0  3  0  0  0  0  0  0
  189.4510  178.3670  138.2590 C   0  0  0  0  0  2  0  0  0  0  0  0
  191.1130  176.6110  137.6950 C   0  0  1  0  0  3  0  0  0  0  0  0
  191.8860  176.5180  138.8550 O   0  0  0  0  0  1  0  0  0  0  0  0
  191.4300  174.2340  137.6980 O   0  0  0  0  0  1  0  0  0  0  0  0
  191.2970  175.3400  136.8430 C   0  0  1  0  0  0  0  0  0  0  0  0
  190.0890  175.1490  135.9080 C   0  0  0  0  0  2  0  0  0  0  0  0
  188.3020  173.8800  136.1660 C   0  0  0  0  0  1  0  0  0  0  0  0
  189.6660  173.8180  135.8880 O   0  0  0  0  0  0  0  0  0  0  0  0
  192.4700  175.5200  136.0670 O   0  0  0  0  0  0  0  0  0  0  0  0
  193.2010  174.3180  136.0020 C   0  0  1  0  0  3  0  0  0  0  0  0
  192.9930  173.7250  134.7540 O   0  0  0  0  0  1  0  0  0  0  0  0
  194.6910  174.6070  136.1950 C   0  0  0  0  0  3  0  0  0  0  0  0
  195.5560  172.3120  136.7490 C   0  0  0  0  0  2  0  0  0  0  0  0
  195.0620  173.6540  138.4910 C   0  0  0  0  0  2  0  0  0  0  0  0
  196.0450  172.7920  137.9760 O   0  0  0  0  0  0  0  0  0  0  0  0
  195.0110  174.9390  137.6590 C   0  0  0  0  0  2  0  0  0  0  0  0
  195.5580  173.4380  135.7110 C   0  0  0  0  0  2  0  0  0  0  0  0
  1  5  1  0  0  0  0
  1  7  2  0  0  0  0
  2 11  1  0  0  0  0
  3  7  1  1  0  0  0
  3 14  1  0  0  0  0
  4  1  1  0  0  0  0
  6  8  1  6  0  0  0
  6  3  1  0  0  0  0
  8  4  1  0  0  0  0
  9 13  1  0  0  0  0
  9 10  1  0  0  0  0
 10  6  1  0  0  0  0
 10  2  2  0  0  0  0
 11 14  1  0  0  0  0
 12  2  1  0  0  0  0
 12 15  1  1  0  0  0
 13 24  1  6  0  0  0
 13 12  1  0  0  0  0
 15 16  1  0  0  0  0
 16 21  1  0  0  0  0
 17 22  1  0  0  0  0
 18 19  1  0  0  0  0
 20 17  1  0  0  0  0
 21 20  1  0  0  0  0
 21 23  1  0  0  0  0
 22 19  1  0  0  0  0
 23 18  1  0  0  0  0
 25 24  1  1  0  0  0
 26 28  1  6  0  0  0
 26 27  1  0  0  0  0
 26 25  1  0  0  0  0
 27 25  1  0  0  0  0
 28 29  1  1  0  0  0
 31 28  1  0  0  0  0
 31 30  1  1  0  0  0
 32 31  1  0  0  0  0
 34 32  1  0  0  0  0
 34 33  1  0  0  0  0
 35 31  1  0  0  0  0
 36 37  1  6  0  0  0
 36 35  1  0  0  0  0
 36 38  1  0  0  0  0
 38 42  1  0  0  0  0
 39 41  1  0  0  0  0
 41 40  1  0  0  0  0
 42 40  1  0  0  0  0
 43 38  1  0  0  0  0
 43 39  1  0  0  0  0
M  END
>  <MODEL>
3

>  <REMARK>
 VINA RESULT:      -7.1      3.969      8.939
  Name = 
  12 active torsions:
  status: ('A' for Active; 'I' for Inactive)
    1  A    between atoms: C_1  and  O_28
    2  A    between atoms: C_1  and  C_34
    3  A    between atoms: C_2  and  O_13
    4  A    between atoms: C_4  and  C_12
    5  A    between atoms: C_4  and  C_15
    6  A    between atoms: C_4  and  O_22
    7  A    between atoms: C_6  and  C_12
    8  A    between atoms: C_11  and  C_14
    9  A    between atoms: O_13  and  C_38
   10  A    between atoms: C_14  and  O_22
   11  A    between atoms: C_15  and  O_42
   12  A    between atoms: O_28  and  C_35
                            x       y       z     vdW  Elec       q    Type
                         _______ _______ _______ _____ _____    ______ ____

>  <TORSDO>
F 12

$$$$
=
 OpenBabel10272414273D

 43 48  0  0  1  0  0  0  0  0999 V2000
  182.5000  179.0300  141.0800 C   0  0  0  0  0  0  0  0  0  0  0  0
  187.2380  177.9950  142.3740 C   0  0  0  0  0  0  0  0  0  0  0  0
  184.5340  178.2760  142.2720 C   0  0  2  0  0  3  0  0  0  0  0  0
  183.2380  179.0260  139.7520 C   0  0  0  0  0  2  0  0  0  0  0  0
  181.2120  179.4560  141.1060 F   0  0  0  0  0  0  0  0  0  0  0  0
  185.3320  178.8840  141.1120 C   0  0  2  0  0  3  0  0  0  0  0  0
  183.1160  178.7610  142.2450 C   0  0  0  0  0  3  0  0  0  0  0  0
  184.6600  178.4440  139.8210 C   0  0  0  0  0  2  0  0  0  0  0  0
  187.7280  178.4910  140.2130 N   0  0  0  0  0  2  0  0  0  0  0  0
  186.7480  178.4110  141.2280 C   0  0  0  0  0  0  0  0  0  0  0  0
  186.3390  177.7560  143.5640 C   0  0  0  0  0  2  0  0  0  0  0  0
  188.6690  177.6210  142.2380 C   0  0  1  0  0  3  0  0  0  0  0  0
  188.9840  178.0050  140.7790 C   0  0  1  0  0  3  0  0  0  0  0  0
  185.1700  178.5570  143.5000 O   0  0  0  0  0  0  0  0  0  0  0  0
  189.5130  178.4520  143.1880 C   0  0  0  0  0  2  0  0  0  0  0  0
  190.7400  177.8230  143.4100 O   0  0  0  0  0  0  0  0  0  0  0  0
  189.0980  177.7070  146.7100 C   0  0  0  0  0  2  0  0  0  0  0  0
  192.0410  176.1650  146.4680 C   0  0  0  0  0  2  0  0  0  0  0  0
  190.8730  176.0290  147.4360 C   0  0  0  0  0  2  0  0  0  0  0  0
  189.3270  177.2920  145.2540 C   0  0  0  0  0  2  0  0  0  0  0  0
  190.7530  177.5420  144.7780 C   0  0  0  0  0  3  0  0  0  0  0  0
  190.2440  177.3930  147.6770 C   0  0  0  0  0  2  0  0  0  0  0  0
  191.5810  176.2850  145.0190 C   0  0  0  0  0  2  0  0  0  0  0  0
  189.4060  176.8730  140.0790 O   0  0  0  0  0  0  0  0  0  0  0  0
  190.3780  177.3420  139.1940 C   0  0  1  0  0  3  0  0  0  0  0  0
  191.1000  176.1580  138.5760 C   0  0  1  0  0  3  0  0  0  0  0  0
  190.0320  176.8940  137.7910 C   0  0  0  0  0  2  0  0  0  0  0  0
  192.4790  176.5910  138.0850 C   0  0  1  0  0  3  0  0  0  0  0  0
  193.2320  177.0550  139.1660 O   0  0  0  0  0  1  0  0  0  0  0  0
  192.6410  174.2380  137.6550 O   0  0  0  0  0  1  0  0  0  0  0  0
  193.2460  175.4700  137.3580 C   0  0  1  0  0  0  0  0  0  0  0  0
  193.2360  175.7190  135.8400 C   0  0  0  0  0  2  0  0  0  0  0  0
  191.5660  175.2220  134.4850 C   0  0  0  0  0  1  0  0  0  0  0  0
  191.9890  176.1770  135.4080 O   0  0  0  0  0  0  0  0  0  0  0  0
  194.5830  175.5000  137.8320 O   0  0  0  0  0  0  0  0  0  0  0  0
  195.4510  174.9280  136.8810 C   0  0  1  0  0  3  0  0  0  0  0  0
  196.1330  175.9480  136.2140 O   0  0  0  0  0  1  0  0  0  0  0  0
  196.4510  174.0060  137.5810 C   0  0  0  0  0  3  0  0  0  0  0  0
  196.6840  172.1710  135.8790 C   0  0  0  0  0  2  0  0  0  0  0  0
  195.1980  171.8290  137.5380 C   0  0  0  0  0  2  0  0  0  0  0  0
  196.2560  171.2310  136.8330 O   0  0  0  0  0  0  0  0  0  0  0  0
  195.7370  172.9490  138.4320 C   0  0  0  0  0  2  0  0  0  0  0  0
  197.3950  173.3350  136.5750 C   0  0  0  0  0  2  0  0  0  0  0  0
  1  5  1  0  0  0  0
  1  7  2  0  0  0  0
  2 11  1  0  0  0  0
  3  7  1  1  0  0  0
  3 14  1  0  0  0  0
  4  8  1  0  0  0  0
  4  1  1  0  0  0  0
  6  8  1  6  0  0  0
  6 10  1  0  0  0  0
  6  3  1  0  0  0  0
  9 13  1  0  0  0  0
  9 10  1  0  0  0  0
 10  2  2  0  0  0  0
 12  2  1  0  0  0  0
 12 15  1  1  0  0  0
 13 24  1  6  0  0  0
 13 12  1  0  0  0  0
 14 11  1  0  0  0  0
 15 16  1  0  0  0  0
 16 21  1  0  0  0  0
 17 22  1  0  0  0  0
 18 19  1  0  0  0  0
 19 22  1  0  0  0  0
 20 17  1  0  0  0  0
 21 23  1  0  0  0  0
 21 20  1  0  0  0  0
 23 18  1  0  0  0  0
 25 24  1  1  0  0  0
 26 28  1  6  0  0  0
 26 25  1  0  0  0  0
 27 26  1  0  0  0  0
 27 25  1  0  0  0  0
 28 29  1  1  0  0  0
 31 30  1  1  0  0  0
 31 35  1  0  0  0  0
 31 28  1  0  0  0  0
 32 31  1  0  0  0  0
 33 34  1  0  0  0  0
 34 32  1  0  0  0  0
 36 37  1  1  0  0  0
 36 38  1  0  0  0  0
 36 35  1  0  0  0  0
 38 42  1  0  0  0  0
 39 43  1  0  0  0  0
 39 41  1  0  0  0  0
 40 42  1  0  0  0  0
 41 40  1  0  0  0  0
 43 38  1  0  0  0  0
M  END
>  <MODEL>
4

>  <REMARK>
 VINA RESULT:      -7.0      4.555      9.769
  Name = 
  12 active torsions:
  status: ('A' for Active; 'I' for Inactive)
    1  A    between atoms: C_1  and  O_28
    2  A    between atoms: C_1  and  C_34
    3  A    between atoms: C_2  and  O_13
    4  A    between atoms: C_4  and  C_12
    5  A    between atoms: C_4  and  C_15
    6  A    between atoms: C_4  and  O_22
    7  A    between atoms: C_6  and  C_12
    8  A    between atoms: C_11  and  C_14
    9  A    between atoms: O_13  and  C_38
   10  A    between atoms: C_14  and  O_22
   11  A    between atoms: C_15  and  O_42
   12  A    between atoms: O_28  and  C_35
                            x       y       z     vdW  Elec       q    Type
                         _______ _______ _______ _____ _____    ______ ____

>  <TORSDO>
F 12

$$$$
=
 OpenBabel10272414273D

 43 48  0  0  1  0  0  0  0  0999 V2000
  181.8360  179.1550  143.1830 C   0  0  0  0  0  0  0  0  0  0  0  0
  186.7300  178.0470  143.0300 C   0  0  0  0  0  0  0  0  0  0  0  0
  184.1000  178.2870  143.6830 C   0  0  2  0  0  3  0  0  0  0  0  0
  182.1970  179.3410  141.7190 C   0  0  0  0  0  2  0  0  0  0  0  0
  180.6080  179.5480  143.6040 F   0  0  0  0  0  0  0  0  0  0  0  0
  184.5730  179.0600  142.4460 C   0  0  2  0  0  3  0  0  0  0  0  0
  182.7330  178.7440  144.0960 C   0  0  0  0  0  3  0  0  0  0  0  0
  183.5760  178.7820  141.3310 C   0  0  0  0  0  2  0  0  0  0  0  0
  186.6390  178.8360  140.9030 N   0  0  0  0  0  2  0  0  0  0  0  0
  185.9610  178.6030  142.1200 C   0  0  0  0  0  0  0  0  0  0  0  0
  186.1730  177.6340  144.3720 C   0  0  0  0  0  2  0  0  0  0  0  0
  188.0670  177.7210  142.4730 C   0  0  1  0  0  3  0  0  0  0  0  0
  187.9920  178.3020  141.0470 C   0  0  1  0  0  3  0  0  0  0  0  0
  185.0420  178.4140  144.7270 O   0  0  0  0  0  0  0  0  0  0  0  0
  189.1460  178.4350  143.2680 C   0  0  0  0  0  2  0  0  0  0  0  0
  190.2680  177.6130  143.3940 O   0  0  0  0  0  0  0  0  0  0  0  0
  191.9580  176.2040  146.3530 C   0  0  0  0  0  2  0  0  0  0  0  0
  188.9730  177.5900  146.8750 C   0  0  0  0  0  2  0  0  0  0  0  0
  190.1530  177.2870  147.7900 C   0  0  0  0  0  2  0  0  0  0  0  0
  191.6960  177.2520  145.2670 C   0  0  0  0  0  2  0  0  0  0  0  0
  190.2690  177.2140  144.7320 C   0  0  0  0  0  3  0  0  0  0  0  0
  190.8190  175.9910  147.3560 C   0  0  0  0  0  2  0  0  0  0  0  0
  189.4130  178.1830  145.5410 C   0  0  0  0  0  2  0  0  0  0  0  0
  188.1960  177.2820  140.1160 O   0  0  0  0  0  0  0  0  0  0  0  0
  189.4380  177.5620  139.5450 C   0  0  1  0  0  3  0  0  0  0  0  0
  189.5090  176.9210  138.1710 C   0  0  1  0  0  3  0  0  0  0  0  0
  189.2380  178.4070  138.3060 C   0  0  0  0  0  2  0  0  0  0  0  0
  190.9670  176.7060  137.7740 C   0  0  1  0  0  3  0  0  0  0  0  0
  191.6950  176.2890  138.8910 O   0  0  0  0  0  1  0  0  0  0  0  0
  190.3780  176.1080  135.5280 O   0  0  0  0  0  1  0  0  0  0  0  0
  191.1420  175.6890  136.6290 C   0  0  1  0  0  0  0  0  0  0  0  0
  192.6270  175.5820  136.2390 C   0  0  0  0  0  2  0  0  0  0  0  0
  194.0950  176.1600  134.6960 C   0  0  0  0  0  1  0  0  0  0  0  0
  192.7980  175.6750  134.8560 O   0  0  0  0  0  0  0  0  0  0  0  0
  190.6880  174.4340  137.1080 O   0  0  0  0  0  0  0  0  0  0  0  0
  189.9040  173.7920  136.1290 C   0  0  1  0  0  3  0  0  0  0  0  0
  190.6640  172.7890  135.5220 O   0  0  0  0  0  1  0  0  0  0  0  0
  188.6620  173.1810  136.7790 C   0  0  0  0  0  3  0  0  0  0  0  0
  187.3860  172.4200  134.7510 C   0  0  0  0  0  2  0  0  0  0  0  0
  186.8400  174.4390  135.5900 C   0  0  0  0  0  2  0  0  0  0  0  0
  186.2990  173.2260  135.1320 O   0  0  0  0  0  0  0  0  0  0  0  0
  187.5430  174.2190  136.9330 C   0  0  0  0  0  2  0  0  0  0  0  0
  188.1580  171.9640  135.9920 C   0  0  0  0  0  2  0  0  0  0  0  0
  1  5  1  0  0  0  0
  1  7  2  0  0  0  0
  2 11  1  0  0  0  0
  3  7  1  1  0  0  0
  3 14  1  0  0  0  0
  4  1  1  0  0  0  0
  6  8  1  6  0  0  0
  6  3  1  0  0  0  0
  8  4  1  0  0  0  0
  9 13  1  0  0  0  0
  9 10  1  0  0  0  0
 10  6  1  0  0  0  0
 10  2  2  0  0  0  0
 11 14  1  0  0  0  0
 12  2  1  0  0  0  0
 12 15  1  1  0  0  0
 13 24  1  6  0  0  0
 13 12  1  0  0  0  0
 15 16  1  0  0  0  0
 16 21  1  0  0  0  0
 17 22  1  0  0  0  0
 18 19  1  0  0  0  0
 20 17  1  0  0  0  0
 21 20  1  0  0  0  0
 21 23  1  0  0  0  0
 22 19  1  0  0  0  0
 23 18  1  0  0  0  0
 25 24  1  1  0  0  0
 26 28  1  6  0  0  0
 26 27  1  0  0  0  0
 26 25  1  0  0  0  0
 27 25  1  0  0  0  0
 28 29  1  1  0  0  0
 31 30  1  6  0  0  0
 31 35  1  0  0  0  0
 31 28  1  0  0  0  0
 32 31  1  0  0  0  0
 33 34  1  0  0  0  0
 34 32  1  0  0  0  0
 36 37  1  1  0  0  0
 36 38  1  0  0  0  0
 36 35  1  0  0  0  0
 38 42  1  0  0  0  0
 39 41  1  0  0  0  0
 39 43  1  0  0  0  0
 40 42  1  0  0  0  0
 41 40  1  0  0  0  0
 43 38  1  0  0  0  0
M  END
>  <MODEL>
5

>  <REMARK>
 VINA RESULT:      -7.0      3.482      8.167
  Name = 
  12 active torsions:
  status: ('A' for Active; 'I' for Inactive)
    1  A    between atoms: C_1  and  O_28
    2  A    between atoms: C_1  and  C_34
    3  A    between atoms: C_2  and  O_13
    4  A    between atoms: C_4  and  C_12
    5  A    between atoms: C_4  and  C_15
    6  A    between atoms: C_4  and  O_22
    7  A    between atoms: C_6  and  C_12
    8  A    between atoms: C_11  and  C_14
    9  A    between atoms: O_13  and  C_38
   10  A    between atoms: C_14  and  O_22
   11  A    between atoms: C_15  and  O_42
   12  A    between atoms: O_28  and  C_35
                            x       y       z     vdW  Elec       q    Type
                         _______ _______ _______ _____ _____    ______ ____

>  <TORSDO>
F 12

$$$$
=
 OpenBabel10272414273D

 43 48  0  0  1  0  0  0  0  0999 V2000
  187.8490  177.9050  148.2220 C   0  0  0  0  0  0  0  0  0  0  0  0
  185.6260  178.6550  143.7850 C   0  0  0  0  0  0  0  0  0  0  0  0
  186.3720  178.6960  146.4000 C   0  0  2  0  0  3  0  0  0  0  0  0
  188.8970  177.4540  147.2190 C   0  0  0  0  0  2  0  0  0  0  0  0
  188.0660  177.6660  149.5400 F   0  0  0  0  0  0  0  0  0  0  0  0
  187.1040  177.6990  145.4930 C   0  0  2  0  0  3  0  0  0  0  0  0
  186.6590  178.4030  147.8420 C   0  0  0  0  0  3  0  0  0  0  0  0
  188.5920  177.8500  145.7650 C   0  0  0  0  0  2  0  0  0  0  0  0
  187.4020  177.5300  142.9280 N   0  0  0  0  0  2  0  0  0  0  0  0
  186.7310  178.0060  144.0770 C   0  0  0  0  0  0  0  0  0  0  0  0
  184.8060  179.3210  144.8650 C   0  0  0  0  0  2  0  0  0  0  0  0
  185.4620  178.7960  142.3150 C   0  0  1  0  0  3  0  0  0  0  0  0
  186.6540  177.9920  141.7610 C   0  0  1  0  0  3  0  0  0  0  0  0
  184.9880  178.6850  146.1210 O   0  0  0  0  0  0  0  0  0  0  0  0
  184.1550  178.1580  141.8780 C   0  0  0  0  0  2  0  0  0  0  0  0
  183.3290  179.1180  141.2910 O   0  0  0  0  0  0  0  0  0  0  0  0
  182.2110  178.9370  137.7820 C   0  0  0  0  0  2  0  0  0  0  0  0
  182.0300  176.1120  139.5390 C   0  0  0  0  0  2  0  0  0  0  0  0
  182.0840  176.4050  138.0450 C   0  0  0  0  0  2  0  0  0  0  0  0
  183.2420  178.9840  138.9130 C   0  0  0  0  0  2  0  0  0  0  0  0
  182.7030  178.4510  140.2360 C   0  0  0  0  0  3  0  0  0  0  0  0
  181.3240  177.6870  137.7460 C   0  0  0  0  0  2  0  0  0  0  0  0
  183.0160  176.9620  140.3320 C   0  0  0  0  0  2  0  0  0  0  0  0
  187.4610  178.8270  140.9870 O   0  0  0  0  0  0  0  0  0  0  0  0
  187.4280  178.2710  139.7070 C   0  0  1  0  0  3  0  0  0  0  0  0
  188.7990  178.4070  139.0710 C   0  0  1  0  0  3  0  0  0  0  0  0
  188.3600  177.0800  139.6570 C   0  0  0  0  0  2  0  0  0  0  0  0
  188.6720  178.3570  137.5510 C   0  0  1  0  0  3  0  0  0  0  0  0
  189.0810  179.5780  137.0090 O   0  0  0  0  0  1  0  0  0  0  0  0
  189.6800  177.4970  135.5520 O   0  0  0  0  0  1  0  0  0  0  0  0
  189.4760  177.2080  136.9100 C   0  0  1  0  0  0  0  0  0  0  0  0
  190.8260  177.0410  137.6300 C   0  0  0  0  0  2  0  0  0  0  0  0
  191.9880  175.1660  137.7090 C   0  0  0  0  0  1  0  0  0  0  0  0
  191.7060  176.2540  136.8840 O   0  0  0  0  0  0  0  0  0  0  0  0
  188.7110  176.0230  137.0630 O   0  0  0  0  0  0  0  0  0  0  0  0
  187.6610  175.9960  136.1240 C   0  0  1  0  0  3  0  0  0  0  0  0
  187.8600  174.9270  135.2480 O   0  0  0  0  0  1  0  0  0  0  0  0
  186.3230  175.8300  136.8480 C   0  0  0  0  0  3  0  0  0  0  0  0
  184.8970  174.8810  135.0070 C   0  0  0  0  0  2  0  0  0  0  0  0
  184.7970  177.1110  135.3170 C   0  0  0  0  0  2  0  0  0  0  0  0
  184.0080  175.9620  135.1390 O   0  0  0  0  0  0  0  0  0  0  0  0
  185.4500  177.0830  136.7020 C   0  0  0  0  0  2  0  0  0  0  0  0
  185.5670  174.5910  136.3530 C   0  0  0  0  0  2  0  0  0  0  0  0
  1  5  1  0  0  0  0
  2 10  2  0  0  0  0
  2 11  1  0  0  0  0
  3  7  1  1  0  0  0
  4  1  1  0  0  0  0
  6  8  1  6  0  0  0
  6  3  1  0  0  0  0
  7  1  2  0  0  0  0
  8  4  1  0  0  0  0
  9 10  1  0  0  0  0
 10  6  1  0  0  0  0
 11 14  1  0  0  0  0
 12 15  1  6  0  0  0
 12  2  1  0  0  0  0
 13 24  1  6  0  0  0
 13 12  1  0  0  0  0
 13  9  1  0  0  0  0
 14  3  1  0  0  0  0
 16 15  1  0  0  0  0
 17 20  1  0  0  0  0
 18 23  1  0  0  0  0
 19 18  1  0  0  0  0
 20 21  1  0  0  0  0
 21 23  1  0  0  0  0
 21 16  1  0  0  0  0
 22 17  1  0  0  0  0
 22 19  1  0  0  0  0
 25 24  1  1  0  0  0
 26 28  1  6  0  0  0
 26 27  1  0  0  0  0
 26 25  1  0  0  0  0
 27 25  1  0  0  0  0
 28 29  1  6  0  0  0
 31 30  1  6  0  0  0
 31 35  1  0  0  0  0
 31 28  1  0  0  0  0
 31 32  1  0  0  0  0
 34 32  1  0  0  0  0
 34 33  1  0  0  0  0
 36 37  1  6  0  0  0
 36 38  1  0  0  0  0
 36 35  1  0  0  0  0
 39 41  1  0  0  0  0
 39 43  1  0  0  0  0
 40 42  1  0  0  0  0
 41 40  1  0  0  0  0
 42 38  1  0  0  0  0
 43 38  1  0  0  0  0
M  END
>  <MODEL>
6

>  <REMARK>
 VINA RESULT:      -6.9      2.302      5.889
  Name = 
  12 active torsions:
  status: ('A' for Active; 'I' for Inactive)
    1  A    between atoms: C_1  and  O_28
    2  A    between atoms: C_1  and  C_34
    3  A    between atoms: C_2  and  O_13
    4  A    between atoms: C_4  and  C_12
    5  A    between atoms: C_4  and  C_15
    6  A    between atoms: C_4  and  O_22
    7  A    between atoms: C_6  and  C_12
    8  A    between atoms: C_11  and  C_14
    9  A    between atoms: O_13  and  C_38
   10  A    between atoms: C_14  and  O_22
   11  A    between atoms: C_15  and  O_42
   12  A    between atoms: O_28  and  C_35
                            x       y       z     vdW  Elec       q    Type
                         _______ _______ _______ _____ _____    ______ ____

>  <TORSDO>
F 12

$$$$
=
 OpenBabel10272414273D

 43 48  0  0  1  0  0  0  0  0999 V2000
  191.6980  176.1450  147.3860 C   0  0  0  0  0  0  0  0  0  0  0  0
  188.0170  177.7640  144.3820 C   0  0  0  0  0  0  0  0  0  0  0  0
  189.7140  177.2980  146.4550 C   0  0  2  0  0  3  0  0  0  0  0  0
  192.2300  175.8670  145.9900 C   0  0  0  0  0  2  0  0  0  0  0  0
  192.3830  175.6590  148.4510 F   0  0  0  0  0  0  0  0  0  0  0  0
  189.9420  176.4720  145.1830 C   0  0  2  0  0  3  0  0  0  0  0  0
  190.5070  176.7330  147.5960 C   0  0  0  0  0  3  0  0  0  0  0  0
  191.4270  176.5350  144.8620 C   0  0  0  0  0  2  0  0  0  0  0  0
  189.2100  176.7790  142.7190 N   0  0  0  0  0  2  0  0  0  0  0  0
  189.0820  177.0470  144.1010 C   0  0  0  0  0  0  0  0  0  0  0  0
  187.7450  178.2340  145.7910 C   0  0  0  0  0  2  0  0  0  0  0  0
  187.3130  178.1820  143.1420 C   0  0  1  0  0  3  0  0  0  0  0  0
  188.1170  177.4690  142.0380 C   0  0  1  0  0  3  0  0  0  0  0  0
  188.3360  177.3700  146.7490 O   0  0  0  0  0  0  0  0  0  0  0  0
  185.8850  177.6670  143.1610 C   0  0  0  0  0  2  0  0  0  0  0  0
  185.2290  178.0380  141.9860 O   0  0  0  0  0  0  0  0  0  0  0  0
  182.6230  178.8330  144.4710 C   0  0  0  0  0  2  0  0  0  0  0  0
  181.6110  178.5340  141.3100 C   0  0  0  0  0  2  0  0  0  0  0  0
  181.0180  179.2280  142.5310 C   0  0  0  0  0  2  0  0  0  0  0  0
  183.7980  179.1430  143.5370 C   0  0  0  0  0  2  0  0  0  0  0  0
  183.8910  178.1840  142.3550 C   0  0  0  0  0  3  0  0  0  0  0  0
  181.3210  178.4150  143.7800 C   0  0  0  0  0  2  0  0  0  0  0  0
  183.1120  178.7710  141.1830 C   0  0  0  0  0  2  0  0  0  0  0  0
  188.6380  178.4160  141.1540 O   0  0  0  0  0  0  0  0  0  0  0  0
  188.1940  178.0120  139.8940 C   0  0  1  0  0  3  0  0  0  0  0  0
  189.3450  178.1010  138.9090 C   0  0  1  0  0  3  0  0  0  0  0  0
  188.9340  176.7590  139.4820 C   0  0  0  0  0  2  0  0  0  0  0  0
  188.8030  178.2330  137.4890 C   0  0  1  0  0  3  0  0  0  0  0  0
  189.0440  179.5260  137.0180 O   0  0  0  0  0  1  0  0  0  0  0  0
  189.3120  177.7110  135.2050 O   0  0  0  0  0  1  0  0  0  0  0  0
  189.4010  177.2030  136.5110 C   0  0  1  0  0  0  0  0  0  0  0  0
  190.8680  176.9160  136.8750 C   0  0  0  0  0  2  0  0  0  0  0  0
  192.5020  175.4960  136.4440 C   0  0  0  0  0  1  0  0  0  0  0  0
  191.1550  175.5510  136.7950 O   0  0  0  0  0  0  0  0  0  0  0  0
  188.6410  176.0110  136.6390 O   0  0  0  0  0  0  0  0  0  0  0  0
  187.3940  176.1570  136.0020 C   0  0  1  0  0  3  0  0  0  0  0  0
  187.3650  175.3460  134.8650 O   0  0  0  0  0  1  0  0  0  0  0  0
  186.2730  175.7460  136.9590 C   0  0  0  0  0  3  0  0  0  0  0  0
  184.4280  175.2140  135.3360 C   0  0  0  0  0  2  0  0  0  0  0  0
  184.4320  177.2880  136.2180 C   0  0  0  0  0  2  0  0  0  0  0  0
  183.6100  176.1800  135.9470 O   0  0  0  0  0  0  0  0  0  0  0  0
  185.4040  176.9480  137.3510 C   0  0  0  0  0  2  0  0  0  0  0  0
  185.4040  174.6320  136.3620 C   0  0  0  0  0  2  0  0  0  0  0  0
  1  7  2  0  0  0  0
  1  5  1  0  0  0  0
  2 11  1  0  0  0  0
  3 14  1  0  0  0  0
  3  7  1  1  0  0  0
  4  1  1  0  0  0  0
  6  8  1  6  0  0  0
  6  3  1  0  0  0  0
  8  4  1  0  0  0  0
  9 10  1  0  0  0  0
 10  2  2  0  0  0  0
 10  6  1  0  0  0  0
 11 14  1  0  0  0  0
 12 15  1  1  0  0  0
 12  2  1  0  0  0  0
 13 24  1  6  0  0  0
 13  9  1  0  0  0  0
 13 12  1  0  0  0  0
 16 21  1  0  0  0  0
 16 15  1  0  0  0  0
 18 19  1  0  0  0  0
 19 22  1  0  0  0  0
 20 17  1  0  0  0  0
 21 20  1  0  0  0  0
 22 17  1  0  0  0  0
 23 18  1  0  0  0  0
 23 21  1  0  0  0  0
 25 24  1  1  0  0  0
 26 28  1  6  0  0  0
 26 27  1  0  0  0  0
 26 25  1  0  0  0  0
 27 25  1  0  0  0  0
 28 29  1  6  0  0  0
 31 30  1  6  0  0  0
 31 35  1  0  0  0  0
 31 32  1  0  0  0  0
 31 28  1  0  0  0  0
 33 34  1  0  0  0  0
 34 32  1  0  0  0  0
 36 37  1  6  0  0  0
 36 35  1  0  0  0  0
 36 38  1  0  0  0  0
 38 42  1  0  0  0  0
 39 41  1  0  0  0  0
 39 43  1  0  0  0  0
 40 42  1  0  0  0  0
 41 40  1  0  0  0  0
 43 38  1  0  0  0  0
M  END
>  <MODEL>
7

>  <REMARK>
 VINA RESULT:      -6.9      1.996      6.000
  Name = 
  12 active torsions:
  status: ('A' for Active; 'I' for Inactive)
    1  A    between atoms: C_1  and  O_28
    2  A    between atoms: C_1  and  C_34
    3  A    between atoms: C_2  and  O_13
    4  A    between atoms: C_4  and  C_12
    5  A    between atoms: C_4  and  C_15
    6  A    between atoms: C_4  and  O_22
    7  A    between atoms: C_6  and  C_12
    8  A    between atoms: C_11  and  C_14
    9  A    between atoms: O_13  and  C_38
   10  A    between atoms: C_14  and  O_22
   11  A    between atoms: C_15  and  O_42
   12  A    between atoms: O_28  and  C_35
                            x       y       z     vdW  Elec       q    Type
                         _______ _______ _______ _____ _____    ______ ____

>  <TORSDO>
F 12

$$$$
=
 OpenBabel10272414273D

 43 48  0  0  1  0  0  0  0  0999 V2000
  193.4780  174.2770  136.9870 C   0  0  0  0  0  0  0  0  0  0  0  0
  188.9250  176.2940  137.6100 C   0  0  0  0  0  0  0  0  0  0  0  0
  191.0570  174.6230  137.3650 C   0  0  2  0  0  3  0  0  0  0  0  0
  193.7770  175.7130  137.3820 C   0  0  0  0  0  2  0  0  0  0  0  0
  194.5030  173.4920  136.5690 F   0  0  0  0  0  0  0  0  0  0  0  0
  191.3220  176.1140  137.1250 C   0  0  2  0  0  3  0  0  0  0  0  0
  192.2230  173.8010  136.9050 C   0  0  0  0  0  3  0  0  0  0  0  0
  192.5630  176.4860  137.9220 C   0  0  0  0  0  2  0  0  0  0  0  0
  190.0380  178.2670  137.7690 N   0  0  0  0  0  2  0  0  0  0  0  0
  190.1030  176.8730  137.5460 C   0  0  0  0  0  0  0  0  0  0  0  0
  188.7870  174.7950  137.4880 C   0  0  0  0  0  2  0  0  0  0  0  0
  187.8740  177.2640  138.0120 C   0  0  1  0  0  3  0  0  0  0  0  0
  188.6470  178.5960  138.0720 C   0  0  1  0  0  3  0  0  0  0  0  0
  189.8530  174.2350  136.7380 O   0  0  0  0  0  0  0  0  0  0  0  0
  186.8000  177.3350  136.9410 C   0  0  0  0  0  2  0  0  0  0  0  0
  185.9730  178.4370  137.1670 O   0  0  0  0  0  0  0  0  0  0  0  0
  184.0420  178.9570  140.2650 C   0  0  0  0  0  2  0  0  0  0  0  0
  183.2040  176.3070  138.4270 C   0  0  0  0  0  2  0  0  0  0  0  0
  182.4620  177.1150  139.4850 C   0  0  0  0  0  2  0  0  0  0  0  0
  184.4300  179.2170  138.8060 C   0  0  0  0  0  2  0  0  0  0  0  0
  185.0600  178.0050  138.1300 C   0  0  0  0  0  3  0  0  0  0  0  0
  183.4390  177.5790  140.5550 C   0  0  0  0  0  2  0  0  0  0  0  0
  183.9620  177.1960  137.4470 C   0  0  0  0  0  2  0  0  0  0  0  0
  188.5610  179.1280  139.3610 O   0  0  0  0  0  0  0  0  0  0  0  0
  188.2340  178.0430  140.1740 C   0  0  1  0  0  3  0  0  0  0  0  0
  188.9210  178.2040  141.5180 C   0  0  1  0  0  3  0  0  0  0  0  0
  187.4490  178.5350  141.3710 C   0  0  0  0  0  2  0  0  0  0  0  0
  189.0690  176.8420  142.1910 C   0  0  1  0  0  3  0  0  0  0  0  0
  190.1720  176.1760  141.6530 O   0  0  0  0  0  1  0  0  0  0  0  0
  190.2550  176.0880  144.1340 O   0  0  0  0  0  1  0  0  0  0  0  0
  189.2110  176.9320  143.7230 C   0  0  1  0  0  0  0  0  0  0  0  0
  189.5000  178.3840  144.1440 C   0  0  0  0  0  2  0  0  0  0  0  0
  191.6290  178.9320  143.9550 C   0  0  0  0  0  1  0  0  0  0  0  0
  190.6870  178.4750  144.8750 O   0  0  0  0  0  0  0  0  0  0  0  0
  187.9770  176.5150  144.2850 O   0  0  0  0  0  0  0  0  0  0  0  0
  187.3450  177.5960  144.9300 C   0  0  1  0  0  3  0  0  0  0  0  0
  186.2940  178.0530  144.1310 O   0  0  0  0  0  1  0  0  0  0  0  0
  186.8040  177.1440  146.2880 C   0  0  0  0  0  3  0  0  0  0  0  0
  186.3260  179.3610  147.3750 C   0  0  0  0  0  2  0  0  0  0  0  0
  188.3160  178.4140  147.8430 C   0  0  0  0  0  2  0  0  0  0  0  0
  187.1990  179.0340  148.4270 O   0  0  0  0  0  0  0  0  0  0  0  0
  187.9280  177.0260  147.3250 C   0  0  0  0  0  2  0  0  0  0  0  0
  185.7050  178.0860  146.7960 C   0  0  0  0  0  2  0  0  0  0  0  0
  1  4  1  0  0  0  0
  2 12  1  0  0  0  0
  3  7  1  6  0  0  0
  4  8  1  0  0  0  0
  5  1  1  0  0  0  0
  6  3  1  0  0  0  0
  6 10  1  0  0  0  0
  6  8  1  1  0  0  0
  7  1  2  0  0  0  0
  9 13  1  0  0  0  0
 10  2  2  0  0  0  0
 10  9  1  0  0  0  0
 11  2  1  0  0  0  0
 12 15  1  6  0  0  0
 12 13  1  0  0  0  0
 13 24  1  1  0  0  0
 14  3  1  0  0  0  0
 14 11  1  0  0  0  0
 15 16  1  0  0  0  0
 16 21  1  0  0  0  0
 17 22  1  0  0  0  0
 18 19  1  0  0  0  0
 19 22  1  0  0  0  0
 20 17  1  0  0  0  0
 21 20  1  0  0  0  0
 23 21  1  0  0  0  0
 23 18  1  0  0  0  0
 25 24  1  6  0  0  0
 25 27  1  0  0  0  0
 25 26  1  0  0  0  0
 26 28  1  1  0  0  0
 27 26  1  0  0  0  0
 28 29  1  6  0  0  0
 28 31  1  0  0  0  0
 31 30  1  1  0  0  0
 31 32  1  0  0  0  0
 31 35  1  0  0  0  0
 32 34  1  0  0  0  0
 33 34  1  0  0  0  0
 35 36  1  0  0  0  0
 36 37  1  6  0  0  0
 36 38  1  0  0  0  0
 38 43  1  0  0  0  0
 38 42  1  0  0  0  0
 39 41  1  0  0  0  0
 40 41  1  0  0  0  0
 42 40  1  0  0  0  0
 43 39  1  0  0  0  0
M  END
>  <MODEL>
8

>  <REMARK>
 VINA RESULT:      -6.8      3.228      8.264
  Name = 
  12 active torsions:
  status: ('A' for Active; 'I' for Inactive)
    1  A    between atoms: C_1  and  O_28
    2  A    between atoms: C_1  and  C_34
    3  A    between atoms: C_2  and  O_13
    4  A    between atoms: C_4  and  C_12
    5  A    between atoms: C_4  and  C_15
    6  A    between atoms: C_4  and  O_22
    7  A    between atoms: C_6  and  C_12
    8  A    between atoms: C_11  and  C_14
    9  A    between atoms: O_13  and  C_38
   10  A    between atoms: C_14  and  O_22
   11  A    between atoms: C_15  and  O_42
   12  A    between atoms: O_28  and  C_35
                            x       y       z     vdW  Elec       q    Type
                         _______ _______ _______ _____ _____    ______ ____

>  <TORSDO>
F 12

$$$$
=
 OpenBabel10272414273D

 43 48  0  0  1  0  0  0  0  0999 V2000
  192.3740  173.0400  135.3550 C   0  0  0  0  0  0  0  0  0  0  0  0
  190.6710  176.5510  138.5130 C   0  0  0  0  0  0  0  0  0  0  0  0
  192.1800  174.9720  136.8910 C   0  0  2  0  0  3  0  0  0  0  0  0
  190.8780  173.0570  135.0940 C   0  0  0  0  0  2  0  0  0  0  0  0
  193.1230  172.0650  134.7820 F   0  0  0  0  0  0  0  0  0  0  0  0
  190.7190  174.5510  137.0930 C   0  0  2  0  0  3  0  0  0  0  0  0
  192.9580  173.8700  136.2380 C   0  0  0  0  0  3  0  0  0  0  0  0
  190.1400  174.2530  135.7190 C   0  0  0  0  0  2  0  0  0  0  0  0
  188.6110  175.8110  137.9100 N   0  0  0  0  0  2  0  0  0  0  0  0
  190.0120  175.6650  137.7990 C   0  0  0  0  0  0  0  0  0  0  0  0
  192.1790  176.6220  138.4630 C   0  0  0  0  0  2  0  0  0  0  0  0
  189.7440  177.5240  139.1450 C   0  0  1  0  0  3  0  0  0  0  0  0
  188.3570  176.9760  138.7540 C   0  0  1  0  0  3  0  0  0  0  0  0
  192.7470  175.3680  138.1210 O   0  0  0  0  0  0  0  0  0  0  0  0
  189.9100  177.4910  140.6540 C   0  0  0  0  0  2  0  0  0  0  0  0
  188.6750  177.2630  141.2640 O   0  0  0  0  0  0  0  0  0  0  0  0
  187.5980  177.1300  144.7880 C   0  0  0  0  0  2  0  0  0  0  0  0
  190.8330  177.7220  144.2510 C   0  0  0  0  0  2  0  0  0  0  0  0
  190.0590  177.1880  145.4500 C   0  0  0  0  0  2  0  0  0  0  0  0
  187.9960  176.5420  143.4310 C   0  0  0  0  0  2  0  0  0  0  0  0
  188.9080  177.4600  142.6260 C   0  0  0  0  0  3  0  0  0  0  0  0
  188.7060  177.8780  145.5360 C   0  0  0  0  0  2  0  0  0  0  0  0
  190.3600  177.1100  142.9370 C   0  0  0  0  0  2  0  0  0  0  0  0
  187.6620  177.9420  138.0240 O   0  0  0  0  0  0  0  0  0  0  0  0
  186.4040  177.3830  137.7980 C   0  0  1  0  0  3  0  0  0  0  0  0
  185.3940  178.4980  137.5930 C   0  0  1  0  0  3  0  0  0  0  0  0
  185.9440  177.7390  136.4010 C   0  0  0  0  0  2  0  0  0  0  0  0
  183.9910  177.9910  137.9130 C   0  0  1  0  0  3  0  0  0  0  0  0
  184.0750  176.7120  138.4690 O   0  0  0  0  0  1  0  0  0  0  0  0
  184.0690  179.9330  139.3170 O   0  0  0  0  0  1  0  0  0  0  0  0
  183.2090  178.9210  138.8620 C   0  0  1  0  0  0  0  0  0  0  0  0
  182.0030  179.5340  138.1280 C   0  0  0  0  0  2  0  0  0  0  0  0
  180.9420  181.3310  138.8460 C   0  0  0  0  0  1  0  0  0  0  0  0
  182.0650  180.9300  138.1250 O   0  0  0  0  0  0  0  0  0  0  0  0
  182.7490  178.1270  139.9440 O   0  0  0  0  0  0  0  0  0  0  0  0
  182.7660  178.8740  141.1380 C   0  0  1  0  0  3  0  0  0  0  0  0
  181.4510  179.1650  141.5120 O   0  0  0  0  0  1  0  0  0  0  0  0
  183.4520  178.0690  142.2430 C   0  0  0  0  0  3  0  0  0  0  0  0
  183.8730  179.8640  143.9520 C   0  0  0  0  0  2  0  0  0  0  0  0
  185.5680  179.3910  142.5440 C   0  0  0  0  0  2  0  0  0  0  0  0
  185.2520  179.5930  143.8980 O   0  0  0  0  0  0  0  0  0  0  0  0
  184.9760  178.0620  142.0650 C   0  0  0  0  0  2  0  0  0  0  0  0
  183.0790  178.5940  143.6350 C   0  0  0  0  0  2  0  0  0  0  0  0
  1  7  2  0  0  0  0
  2 12  1  0  0  0  0
  3  7  1  1  0  0  0
  3  6  1  0  0  0  0
  3 14  1  0  0  0  0
  4  1  1  0  0  0  0
  4  8  1  0  0  0  0
  5  1  1  0  0  0  0
  6  8  1  6  0  0  0
  6 10  1  0  0  0  0
  9 13  1  0  0  0  0
 10  9  1  0  0  0  0
 10  2  2  0  0  0  0
 11  2  1  0  0  0  0
 12 15  1  1  0  0  0
 13 24  1  6  0  0  0
 13 12  1  0  0  0  0
 14 11  1  0  0  0  0
 15 16  1  0  0  0  0
 16 21  1  0  0  0  0
 17 22  1  0  0  0  0
 18 19  1  0  0  0  0
 19 22  1  0  0  0  0
 20 17  1  0  0  0  0
 21 23  1  0  0  0  0
 21 20  1  0  0  0  0
 23 18  1  0  0  0  0
 25 24  1  6  0  0  0
 26 25  1  0  0  0  0
 26 28  1  1  0  0  0
 27 26  1  0  0  0  0
 27 25  1  0  0  0  0
 28 29  1  1  0  0  0
 28 31  1  0  0  0  0
 31 30  1  1  0  0  0
 31 35  1  0  0  0  0
 32 31  1  0  0  0  0
 34 32  1  0  0  0  0
 34 33  1  0  0  0  0
 35 36  1  0  0  0  0
 36 37  1  1  0  0  0
 36 38  1  0  0  0  0
 38 43  1  0  0  0  0
 40 41  1  0  0  0  0
 41 39  1  0  0  0  0
 42 38  1  0  0  0  0
 42 40  1  0  0  0  0
 43 39  1  0  0  0  0
M  END
>  <MODEL>
9

>  <REMARK>
 VINA RESULT:      -6.8      3.128      6.949
  Name = 
  12 active torsions:
  status: ('A' for Active; 'I' for Inactive)
    1  A    between atoms: C_1  and  O_28
    2  A    between atoms: C_1  and  C_34
    3  A    between atoms: C_2  and  O_13
    4  A    between atoms: C_4  and  C_12
    5  A    between atoms: C_4  and  C_15
    6  A    between atoms: C_4  and  O_22
    7  A    between atoms: C_6  and  C_12
    8  A    between atoms: C_11  and  C_14
    9  A    between atoms: O_13  and  C_38
   10  A    between atoms: C_14  and  O_22
   11  A    between atoms: C_15  and  O_42
   12  A    between atoms: O_28  and  C_35
                            x       y       z     vdW  Elec       q    Type
                         _______ _______ _______ _____ _____    ______ ____

>  <TORSDO>
F 12

$$$$
