=
 OpenBabel10272401033D

 27 31  0  0  1  0  0  0  0  0999 V2000
  191.5310  177.7500  142.3410 N   0  0  0  0  0  0  0  0  0  0  0  0
  189.2200  177.8750  141.4880 C   0  0  0  0  0  0  0  0  0  0  0  0
  188.8880  177.3420  143.9560 N   0  0  0  0  0  2  0  0  0  0  0  0
  184.7950  178.8650  141.3580 S   0  0  0  0  0  0  0  0  0  0  0  0
  184.3140  179.6270  143.9500 C   0  0  0  0  0  1  0  0  0  0  0  0
  188.6270  178.3430  140.3470 N   0  0  0  0  0  0  0  0  0  0  0  0
  186.0470  177.9540  143.5610 N   0  0  0  0  0  0  0  0  0  0  0  0
  186.2270  177.2880  144.8430 C   0  0  0  0  0  1  0  0  0  0  0  0
  187.0340  178.0260  142.5320 C   0  0  0  0  0  0  0  0  0  0  0  0
  190.6820  177.5480  141.3760 C   0  0  0  0  0  0  0  0  0  0  0  0
  184.7260  178.4120  143.1400 C   0  0  2  0  0  3  0  0  0  0  0  0
  186.5320  178.4840  141.3470 C   0  0  0  0  0  0  0  0  0  0  0  0
  191.1790  178.1560  143.6810 C   0  0  0  0  0  0  0  0  0  0  0  0
  188.4040  177.7280  142.6580 C   0  0  0  0  0  0  0  0  0  0  0  0
  187.3310  178.6440  140.2720 N   0  0  0  0  0  0  0  0  0  0  0  0
  191.0930  179.6470  143.9090 C   0  0  0  0  0  2  0  0  0  0  0  0
  192.2970  178.8520  144.4220 C   0  0  0  0  0  2  0  0  0  0  0  0
  190.2570  177.1980  144.4190 C   0  0  1  0  0  3  0  0  0  0  0  0
  192.3090  176.1200  137.7290 N   0  0  0  0  0  0  0  0  0  0  0  0
  191.2320  177.0590  140.0840 C   0  0  0  0  0  0  0  0  0  0  0  0
  190.4500  176.3110  139.1960 C   0  0  0  0  0  3  0  0  0  0  0  0
  191.0080  175.8460  138.0080 C   0  0  0  0  0  3  0  0  0  0  0  0
  193.0670  176.8220  138.5720 N   0  0  0  0  0  0  0  0  0  0  0  0
  192.5690  177.2980  139.7440 C   0  0  0  0  0  3  0  0  0  0  0  0
  190.3280  177.2390  145.9490 C   0  0  0  0  0  2  0  0  0  0  0  0
  191.4120  176.3310  146.5060 C   0  0  0  0  0  2  0  0  0  0  0  0
  191.9000  176.8740  147.7610 N   0  0  0  0  0  1  0  0  0  0  0  0
  1 13  1  0  0  0  0
  2 14  1  0  0  0  0
  3 18  1  0  0  0  0
  4 11  1  0  0  0  0
  6  2  2  0  0  0  0
  7  8  1  0  0  0  0
  9 14  2  0  0  0  0
  9  7  1  0  0  0  0
 10  2  1  0  0  0  0
 10  1  2  0  0  0  0
 11  7  1  0  0  0  0
 11  5  1  1  0  0  0
 12  4  1  0  0  0  0
 12  9  1  0  0  0  0
 13 16  1  0  0  0  0
 13 18  1  0  0  0  0
 13 17  1  0  0  0  0
 14  3  1  0  0  0  0
 15  6  1  0  0  0  0
 15 12  2  0  0  0  0
 16 17  1  0  0  0  0
 18 25  1  1  0  0  0
 19 22  2  0  0  0  0
 19 23  1  0  0  0  0
 20 10  1  0  0  0  0
 21 20  2  0  0  0  0
 22 21  1  0  0  0  0
 23 24  2  0  0  0  0
 24 20  1  0  0  0  0
 25 26  1  0  0  0  0
 26 27  1  0  0  0  0
M  END
>  <MODEL>
1

>  <REMARK>
 VINA RESULT:      -8.4      0.000      0.000
  Name = 
  3 active torsions:
  status: ('A' for Active; 'I' for Inactive)
    1  A    between atoms: C_9  and  C_15
    2  A    between atoms: C_10  and  C_20
    3  A    between atoms: C_20  and  C_26
                            x       y       z     vdW  Elec       q    Type
                         _______ _______ _______ _____ _____    ______ ____

>  <TORSDO>
F 3

$$$$
=
 OpenBabel10272401033D

 27 31  0  0  1  0  0  0  0  0999 V2000
  190.2330  177.4370  140.5620 N   0  0  0  0  0  0  0  0  0  0  0  0
  187.9150  178.0640  141.1240 C   0  0  0  0  0  0  0  0  0  0  0  0
  188.6600  176.7420  143.1700 N   0  0  0  0  0  2  0  0  0  0  0  0
  184.3780  179.4440  143.6080 S   0  0  0  0  0  0  0  0  0  0  0  0
  185.3910  179.3020  146.1540 C   0  0  0  0  0  1  0  0  0  0  0  0
  186.9990  178.9510  140.6290 N   0  0  0  0  0  0  0  0  0  0  0  0
  186.2370  177.7140  144.5050 N   0  0  0  0  0  0  0  0  0  0  0  0
  186.8200  176.6310  145.2850 C   0  0  0  0  0  1  0  0  0  0  0  0
  186.6030  178.0460  143.1670 C   0  0  0  0  0  0  0  0  0  0  0  0
  189.0110  177.6610  140.1790 C   0  0  0  0  0  0  0  0  0  0  0  0
  185.0430  178.4100  144.9770 C   0  0  2  0  0  3  0  0  0  0  0  0
  185.7390  178.9300  142.5850 C   0  0  0  0  0  0  0  0  0  0  0  0
  190.6720  177.3840  141.9360 C   0  0  0  0  0  0  0  0  0  0  0  0
  187.7400  177.5970  142.4680 C   0  0  0  0  0  0  0  0  0  0  0  0
  185.9490  179.3780  141.3290 N   0  0  0  0  0  0  0  0  0  0  0  0
  191.0930  178.7050  142.5370 C   0  0  0  0  0  2  0  0  0  0  0  0
  192.1450  177.6730  142.1180 C   0  0  0  0  0  2  0  0  0  0  0  0
  189.9950  176.3200  142.7850 C   0  0  1  0  0  3  0  0  0  0  0  0
  188.3120  177.5030  135.9980 N   0  0  0  0  0  0  0  0  0  0  0  0
  188.7390  177.6020  138.7180 C   0  0  0  0  0  0  0  0  0  0  0  0
  188.0880  176.5040  138.1420 C   0  0  0  0  0  3  0  0  0  0  0  0
  187.8770  176.4710  136.7660 C   0  0  0  0  0  3  0  0  0  0  0  0
  188.9430  178.5480  136.5340 N   0  0  0  0  0  0  0  0  0  0  0  0
  189.1740  178.6280  137.8710 C   0  0  0  0  0  3  0  0  0  0  0  0
  190.7860  175.8220  143.9990 C   0  0  0  0  0  2  0  0  0  0  0  0
  190.5100  176.6410  145.2500 C   0  0  0  0  0  2  0  0  0  0  0  0
  191.7590  177.1680  145.7680 N   0  0  0  0  0  1  0  0  0  0  0  0
  1 13  1  0  0  0  0
  2 14  1  0  0  0  0
  4 11  1  0  0  0  0
  6  2  2  0  0  0  0
  6 15  1  0  0  0  0
  7 11  1  0  0  0  0
  7  8  1  0  0  0  0
  9  7  1  0  0  0  0
 10  1  2  0  0  0  0
 10  2  1  0  0  0  0
 11  5  1  1  0  0  0
 12  9  1  0  0  0  0
 12  4  1  0  0  0  0
 13 17  1  0  0  0  0
 13 16  1  0  0  0  0
 13 18  1  0  0  0  0
 14  9  2  0  0  0  0
 14  3  1  0  0  0  0
 15 12  2  0  0  0  0
 17 16  1  0  0  0  0
 18  3  1  0  0  0  0
 18 25  1  1  0  0  0
 19 23  2  0  0  0  0
 19 22  1  0  0  0  0
 20 10  1  0  0  0  0
 21 20  1  0  0  0  0
 22 21  2  0  0  0  0
 23 24  1  0  0  0  0
 24 20  2  0  0  0  0
 25 26  1  0  0  0  0
 26 27  1  0  0  0  0
M  END
>  <MODEL>
2

>  <REMARK>
 VINA RESULT:      -7.4      2.046      2.415
  Name = 
  3 active torsions:
  status: ('A' for Active; 'I' for Inactive)
    1  A    between atoms: C_9  and  C_15
    2  A    between atoms: C_10  and  C_20
    3  A    between atoms: C_20  and  C_26
                            x       y       z     vdW  Elec       q    Type
                         _______ _______ _______ _____ _____    ______ ____

>  <TORSDO>
F 3

$$$$
=
 OpenBabel10272401033D

 27 31  0  0  1  0  0  0  0  0999 V2000
  189.1450  176.5630  136.9030 N   0  0  0  0  0  0  0  0  0  0  0  0
  189.7880  176.7360  139.2780 C   0  0  0  0  0  0  0  0  0  0  0  0
  187.6560  178.1240  139.1620 N   0  0  0  0  0  2  0  0  0  0  0  0
  189.3500  176.8850  143.7900 S   0  0  0  0  0  0  0  0  0  0  0  0
  186.6370  177.1720  144.0810 C   0  0  0  0  0  1  0  0  0  0  0  0
  190.6600  176.0770  140.1000 N   0  0  0  0  0  0  0  0  0  0  0  0
  187.6740  178.1380  142.0950 N   0  0  0  0  0  0  0  0  0  0  0  0
  186.7210  179.1260  141.6100 C   0  0  0  0  0  1  0  0  0  0  0  0
  188.6560  177.4860  141.2900 C   0  0  0  0  0  0  0  0  0  0  0  0
  190.0770  176.6350  137.8060 C   0  0  0  0  0  0  0  0  0  0  0  0
  187.8430  177.9070  143.5270 C   0  0  2  0  0  3  0  0  0  0  0  0
  189.5770  176.7990  142.0290 C   0  0  0  0  0  0  0  0  0  0  0  0
  187.7330  176.7250  137.1560 C   0  0  0  0  0  0  0  0  0  0  0  0
  188.7090  177.4600  139.8830 C   0  0  0  0  0  0  0  0  0  0  0  0
  190.5620  176.0990  141.4290 N   0  0  0  0  0  0  0  0  0  0  0  0
  186.9880  175.4650  137.5300 C   0  0  0  0  0  2  0  0  0  0  0  0
  186.8470  176.0620  136.1270 C   0  0  0  0  0  2  0  0  0  0  0  0
  187.3390  178.0700  137.7460 C   0  0  1  0  0  3  0  0  0  0  0  0
  194.1040  176.2470  136.5310 N   0  0  0  0  0  0  0  0  0  0  0  0
  191.4830  176.5140  137.3380 C   0  0  0  0  0  0  0  0  0  0  0  0
  191.7860  176.0280  136.0600 C   0  0  0  0  0  3  0  0  0  0  0  0
  193.1150  175.9020  135.6670 C   0  0  0  0  0  3  0  0  0  0  0  0
  193.8280  176.7020  137.7540 N   0  0  0  0  0  0  0  0  0  0  0  0
  192.5470  176.8430  138.1860 C   0  0  0  0  0  3  0  0  0  0  0  0
  185.8990  178.5250  137.4870 C   0  0  0  0  0  2  0  0  0  0  0  0
  185.0390  178.4750  138.7400 C   0  0  0  0  0  2  0  0  0  0  0  0
  184.5180  179.8000  139.0210 N   0  0  0  0  0  1  0  0  0  0  0  0
  1 13  1  0  0  0  0
  1 10  2  0  0  0  0
  2 14  2  0  0  0  0
  2  6  1  0  0  0  0
  3 14  1  0  0  0  0
  6 15  2  0  0  0  0
  7 11  1  0  0  0  0
  8  7  1  0  0  0  0
  9 12  2  0  0  0  0
  9  7  1  0  0  0  0
 10  2  1  0  0  0  0
 11  4  1  0  0  0  0
 11  5  1  6  0  0  0
 12  4  1  0  0  0  0
 13 16  1  0  0  0  0
 13 18  1  0  0  0  0
 14  9  1  0  0  0  0
 15 12  1  0  0  0  0
 17 13  1  0  0  0  0
 17 16  1  0  0  0  0
 18 25  1  1  0  0  0
 18  3  1  0  0  0  0
 19 23  1  0  0  0  0
 20 10  1  0  0  0  0
 20 24  1  0  0  0  0
 21 20  2  0  0  0  0
 22 21  1  0  0  0  0
 22 19  2  0  0  0  0
 23 24  2  0  0  0  0
 25 26  1  0  0  0  0
 26 27  1  0  0  0  0
M  END
>  <MODEL>
3

>  <REMARK>
 VINA RESULT:      -6.8      2.776      5.687
  Name = 
  3 active torsions:
  status: ('A' for Active; 'I' for Inactive)
    1  A    between atoms: C_9  and  C_15
    2  A    between atoms: C_10  and  C_20
    3  A    between atoms: C_20  and  C_26
                            x       y       z     vdW  Elec       q    Type
                         _______ _______ _______ _____ _____    ______ ____

>  <TORSDO>
F 3

$$$$
=
 OpenBabel10272401033D

 27 31  0  0  1  0  0  0  0  0999 V2000
  188.2840  177.5950  142.0790 N   0  0  0  0  0  0  0  0  0  0  0  0
  189.1170  177.2180  139.7880 C   0  0  0  0  0  0  0  0  0  0  0  0
  191.2590  177.5460  141.1260 N   0  0  0  0  0  2  0  0  0  0  0  0
  191.7420  175.6600  136.4320 S   0  0  0  0  0  0  0  0  0  0  0  0
  193.8990  174.6800  137.8160 C   0  0  0  0  0  1  0  0  0  0  0  0
  188.5780  176.7490  138.6210 N   0  0  0  0  0  0  0  0  0  0  0  0
  192.7130  176.5890  138.7660 N   0  0  0  0  0  0  0  0  0  0  0  0
  193.6510  177.1910  139.7030 C   0  0  0  0  0  1  0  0  0  0  0  0
  191.2930  176.7130  138.8370 C   0  0  0  0  0  0  0  0  0  0  0  0
  188.1330  177.7430  140.7960 C   0  0  0  0  0  0  0  0  0  0  0  0
  193.1870  175.9870  137.5220 C   0  0  2  0  0  3  0  0  0  0  0  0
  190.6640  176.2690  137.7090 C   0  0  0  0  0  0  0  0  0  0  0  0
  189.4640  177.0620  142.7170 C   0  0  0  0  0  0  0  0  0  0  0  0
  190.5420  177.1820  139.9330 C   0  0  0  0  0  0  0  0  0  0  0  0
  189.3180  176.2840  137.6150 N   0  0  0  0  0  0  0  0  0  0  0  0
  189.4910  175.5610  142.8900 C   0  0  0  0  0  2  0  0  0  0  0  0
  189.2070  176.4750  144.0860 C   0  0  0  0  0  2  0  0  0  0  0  0
  190.7430  177.8410  142.4510 C   0  0  1  0  0  3  0  0  0  0  0  0
  184.5230  179.5010  139.4290 N   0  0  0  0  0  0  0  0  0  0  0  0
  186.8720  178.3800  140.3330 C   0  0  0  0  0  0  0  0  0  0  0  0
  185.8830  178.7810  141.2390 C   0  0  0  0  0  3  0  0  0  0  0  0
  184.7030  179.3480  140.7660 C   0  0  0  0  0  3  0  0  0  0  0  0
  185.4540  179.1140  138.5550 N   0  0  0  0  0  0  0  0  0  0  0  0
  186.6230  178.5540  138.9660 C   0  0  0  0  0  3  0  0  0  0  0  0
  191.8430  177.7130  143.5110 C   0  0  0  0  0  2  0  0  0  0  0  0
  191.9670  178.9590  144.3740 C   0  0  0  0  0  2  0  0  0  0  0  0
  190.9320  179.9080  144.0040 N   0  0  0  0  0  1  0  0  0  0  0  0
  1 13  1  0  0  0  0
  2 14  1  0  0  0  0
  2 10  1  0  0  0  0
  3 18  1  0  0  0  0
  4 11  1  0  0  0  0
  4 12  1  0  0  0  0
  6  2  2  0  0  0  0
  7  9  1  0  0  0  0
  7  8  1  0  0  0  0
  9 14  2  0  0  0  0
 10  1  2  0  0  0  0
 11  5  1  1  0  0  0
 11  7  1  0  0  0  0
 12  9  1  0  0  0  0
 13 16  1  0  0  0  0
 13 17  1  0  0  0  0
 14  3  1  0  0  0  0
 15 12  2  0  0  0  0
 15  6  1  0  0  0  0
 16 17  1  0  0  0  0
 18 13  1  0  0  0  0
 18 25  1  1  0  0  0
 19 22  1  0  0  0  0
 20 10  1  0  0  0  0
 20 21  1  0  0  0  0
 22 21  2  0  0  0  0
 23 24  1  0  0  0  0
 23 19  2  0  0  0  0
 24 20  2  0  0  0  0
 25 26  1  0  0  0  0
 27 26  1  0  0  0  0
M  END
>  <MODEL>
4

>  <REMARK>
 VINA RESULT:      -6.6      2.638      6.120
  Name = 
  3 active torsions:
  status: ('A' for Active; 'I' for Inactive)
    1  A    between atoms: C_9  and  C_15
    2  A    between atoms: C_10  and  C_20
    3  A    between atoms: C_20  and  C_26
                            x       y       z     vdW  Elec       q    Type
                         _______ _______ _______ _____ _____    ______ ____

>  <TORSDO>
F 3

$$$$
=
 OpenBabel10272401033D

 27 31  0  0  1  0  0  0  0  0999 V2000
  182.2130  178.7780  141.6820 N   0  0  0  0  0  0  0  0  0  0  0  0
  184.2880  178.3720  140.4130 C   0  0  0  0  0  0  0  0  0  0  0  0
  182.5390  177.0950  139.0710 N   0  0  0  0  0  2  0  0  0  0  0  0
  187.0460  177.8530  136.8490 S   0  0  0  0  0  0  0  0  0  0  0  0
  185.2570  177.6620  134.7770 C   0  0  0  0  0  1  0  0  0  0  0  0
  185.5420  178.9180  140.3970 N   0  0  0  0  0  0  0  0  0  0  0  0
  184.5580  176.8270  136.9620 N   0  0  0  0  0  0  0  0  0  0  0  0
  183.4470  175.9280  136.6870 C   0  0  0  0  0  1  0  0  0  0  0  0
  184.7770  177.5020  138.2000 C   0  0  0  0  0  0  0  0  0  0  0  0
  183.4990  178.5860  141.6740 C   0  0  0  0  0  0  0  0  0  0  0  0
  185.6820  176.9250  136.0340 C   0  0  2  0  0  3  0  0  0  0  0  0
  186.0130  178.0800  138.2780 C   0  0  0  0  0  0  0  0  0  0  0  0
  181.3500  178.6570  140.5310 C   0  0  0  0  0  0  0  0  0  0  0  0
  183.8550  177.6470  139.2550 C   0  0  0  0  0  0  0  0  0  0  0  0
  186.3790  178.7860  139.3680 N   0  0  0  0  0  0  0  0  0  0  0  0
  181.1830  179.9120  139.7060 C   0  0  0  0  0  2  0  0  0  0  0  0
  180.0660  179.4460  140.6440 C   0  0  0  0  0  2  0  0  0  0  0  0
  181.3450  177.2860  139.8770 C   0  0  1  0  0  3  0  0  0  0  0  0
  185.4520  178.8410  145.4300 N   0  0  0  0  0  0  0  0  0  0  0  0
  184.2060  178.6850  142.9780 C   0  0  0  0  0  0  0  0  0  0  0  0
  185.4300  178.0410  143.1940 C   0  0  0  0  0  3  0  0  0  0  0  0
  186.0480  178.1320  144.4380 C   0  0  0  0  0  3  0  0  0  0  0  0
  184.2800  179.4500  145.2400 N   0  0  0  0  0  0  0  0  0  0  0  0
  183.6360  179.3910  144.0450 C   0  0  0  0  0  3  0  0  0  0  0  0
  180.0850  176.9200  139.0860 C   0  0  0  0  0  2  0  0  0  0  0  0
  179.9950  175.4310  138.7890 C   0  0  0  0  0  2  0  0  0  0  0  0
  179.9820  174.6900  140.0370 N   0  0  0  0  0  1  0  0  0  0  0  0
  2 10  1  0  0  0  0
  3 14  1  0  0  0  0
  3 18  1  0  0  0  0
  4 12  1  0  0  0  0
  6  2  1  0  0  0  0
  7  9  1  0  0  0  0
  8  7  1  0  0  0  0
  9 12  2  0  0  0  0
  9 14  1  0  0  0  0
 10  1  2  0  0  0  0
 10 20  1  0  0  0  0
 11  5  1  6  0  0  0
 11  4  1  0  0  0  0
 11  7  1  0  0  0  0
 12 15  1  0  0  0  0
 13 17  1  0  0  0  0
 13  1  1  0  0  0  0
 14  2  2  0  0  0  0
 15  6  2  0  0  0  0
 16 13  1  0  0  0  0
 16 17  1  0  0  0  0
 18 25  1  6  0  0  0
 18 13  1  0  0  0  0
 20 21  2  0  0  0  0
 20 24  1  0  0  0  0
 21 22  1  0  0  0  0
 22 19  2  0  0  0  0
 23 19  1  0  0  0  0
 24 23  2  0  0  0  0
 26 25  1  0  0  0  0
 26 27  1  0  0  0  0
M  END
>  <MODEL>
5

>  <REMARK>
 VINA RESULT:      -6.3      4.735      8.940
  Name = 
  3 active torsions:
  status: ('A' for Active; 'I' for Inactive)
    1  A    between atoms: C_9  and  C_15
    2  A    between atoms: C_10  and  C_20
    3  A    between atoms: C_20  and  C_26
                            x       y       z     vdW  Elec       q    Type
                         _______ _______ _______ _____ _____    ______ ____

>  <TORSDO>
F 3

$$$$
=
 OpenBabel10272401033D

 27 31  0  0  1  0  0  0  0  0999 V2000
  188.5980  177.5050  139.6370 N   0  0  0  0  0  0  0  0  0  0  0  0
  190.8810  176.6710  139.2220 C   0  0  0  0  0  0  0  0  0  0  0  0
  189.5250  175.5680  137.3690 N   0  0  0  0  0  2  0  0  0  0  0  0
  194.5850  175.4160  136.9230 S   0  0  0  0  0  0  0  0  0  0  0  0
  193.6430  175.3230  134.3470 C   0  0  0  0  0  1  0  0  0  0  0  0
  192.1350  177.0110  139.6500 N   0  0  0  0  0  0  0  0  0  0  0  0
  192.0790  174.8030  136.1480 N   0  0  0  0  0  0  0  0  0  0  0  0
  190.9970  174.0670  135.5110 C   0  0  0  0  0  1  0  0  0  0  0  0
  191.9610  175.5430  137.3630 C   0  0  0  0  0  0  0  0  0  0  0  0
  189.7480  177.1160  140.1020 C   0  0  0  0  0  0  0  0  0  0  0  0
  193.4580  174.6430  135.6910 C   0  0  2  0  0  3  0  0  0  0  0  0
  193.1700  175.9270  137.8710 C   0  0  0  0  0  0  0  0  0  0  0  0
  188.1930  177.4190  138.2540 C   0  0  0  0  0  0  0  0  0  0  0  0
  190.7660  175.9220  138.0050 C   0  0  0  0  0  0  0  0  0  0  0  0
  193.2450  176.6600  139.0000 N   0  0  0  0  0  0  0  0  0  0  0  0
  188.5530  178.6060  137.3930 C   0  0  0  0  0  2  0  0  0  0  0  0
  187.1130  178.4040  137.8710 C   0  0  0  0  0  2  0  0  0  0  0  0
  188.1770  176.0120  137.6790 C   0  0  1  0  0  3  0  0  0  0  0  0
  190.2560  177.4270  144.3020 N   0  0  0  0  0  0  0  0  0  0  0  0
  189.9520  177.2180  141.5720 C   0  0  0  0  0  0  0  0  0  0  0  0
  190.4850  176.1540  142.3090 C   0  0  0  0  0  3  0  0  0  0  0  0
  190.6350  176.2760  143.6880 C   0  0  0  0  0  3  0  0  0  0  0  0
  189.7370  178.4430  143.6110 N   0  0  0  0  0  0  0  0  0  0  0  0
  189.5700  178.3730  142.2640 C   0  0  0  0  0  3  0  0  0  0  0  0
  187.2350  175.7780  136.4930 C   0  0  0  0  0  2  0  0  0  0  0  0
  186.0090  174.9650  136.8760 C   0  0  0  0  0  2  0  0  0  0  0  0
  186.4250  173.6630  137.3630 N   0  0  0  0  0  1  0  0  0  0  0  0
  1 10  2  0  0  0  0
  2  6  1  0  0  0  0
  2 10  1  0  0  0  0
  3 18  1  0  0  0  0
  3 14  1  0  0  0  0
  4 12  1  0  0  0  0
  7  9  1  0  0  0  0
  8  7  1  0  0  0  0
  9 12  2  0  0  0  0
  9 14  1  0  0  0  0
 10 20  1  0  0  0  0
 11  5  1  6  0  0  0
 11  7  1  0  0  0  0
 11  4  1  0  0  0  0
 12 15  1  0  0  0  0
 13  1  1  0  0  0  0
 14  2  2  0  0  0  0
 15  6  2  0  0  0  0
 16 17  1  0  0  0  0
 16 13  1  0  0  0  0
 17 13  1  0  0  0  0
 18 25  1  6  0  0  0
 18 13  1  0  0  0  0
 20 24  2  0  0  0  0
 20 21  1  0  0  0  0
 21 22  2  0  0  0  0
 22 19  1  0  0  0  0
 23 19  2  0  0  0  0
 24 23  1  0  0  0  0
 25 26  1  0  0  0  0
 26 27  1  0  0  0  0
M  END
>  <MODEL>
6

>  <REMARK>
 VINA RESULT:      -6.3      3.452      7.952
  Name = 
  3 active torsions:
  status: ('A' for Active; 'I' for Inactive)
    1  A    between atoms: C_9  and  C_15
    2  A    between atoms: C_10  and  C_20
    3  A    between atoms: C_20  and  C_26
                            x       y       z     vdW  Elec       q    Type
                         _______ _______ _______ _____ _____    ______ ____

>  <TORSDO>
F 3

$$$$
=
 OpenBabel10272401033D

 27 31  0  0  1  0  0  0  0  0999 V2000
  182.5950  179.1640  140.7290 N   0  0  0  0  0  0  0  0  0  0  0  0
  184.8040  178.4810  139.8700 C   0  0  0  0  0  0  0  0  0  0  0  0
  183.2080  177.6480  138.0680 N   0  0  0  0  0  2  0  0  0  0  0  0
  188.1550  177.7330  136.9050 S   0  0  0  0  0  0  0  0  0  0  0  0
  186.8560  178.0260  134.5050 C   0  0  0  0  0  1  0  0  0  0  0  0
  186.1020  178.7880  140.1700 N   0  0  0  0  0  0  0  0  0  0  0  0
  185.5700  177.1730  136.3950 N   0  0  0  0  0  0  0  0  0  0  0  0
  184.4150  176.5140  135.8020 C   0  0  0  0  0  1  0  0  0  0  0  0
  185.6190  177.7030  137.7200 C   0  0  0  0  0  0  0  0  0  0  0  0
  183.8030  178.7420  140.9600 C   0  0  0  0  0  0  0  0  0  0  0  0
  186.8710  177.1330  135.7320 C   0  0  2  0  0  3  0  0  0  0  0  0
  186.8840  178.0380  138.1110 C   0  0  0  0  0  0  0  0  0  0  0  0
  181.9980  179.2880  139.4210 C   0  0  0  0  0  0  0  0  0  0  0  0
  184.5240  177.9350  138.5750 C   0  0  0  0  0  0  0  0  0  0  0  0
  187.1110  178.5830  139.3240 N   0  0  0  0  0  0  0  0  0  0  0  0
  182.2220  180.6100  138.7240 C   0  0  0  0  0  2  0  0  0  0  0  0
  180.8650  180.2870  139.3570 C   0  0  0  0  0  2  0  0  0  0  0  0
  181.9140  177.9920  138.6300 C   0  0  1  0  0  3  0  0  0  0  0  0
  185.0370  178.4140  145.0050 N   0  0  0  0  0  0  0  0  0  0  0  0
  184.2130  178.6130  142.3840 C   0  0  0  0  0  0  0  0  0  0  0  0
  183.3730  179.0270  143.4240 C   0  0  0  0  0  3  0  0  0  0  0  0
  183.8030  178.9170  144.7440 C   0  0  0  0  0  3  0  0  0  0  0  0
  185.8500  178.0260  144.0220 N   0  0  0  0  0  0  0  0  0  0  0  0
  185.4770  178.1130  142.7170 C   0  0  0  0  0  3  0  0  0  0  0  0
  180.8150  177.9220  137.5640 C   0  0  0  0  0  2  0  0  0  0  0  0
  181.3290  178.2660  136.1750 C   0  0  0  0  0  2  0  0  0  0  0  0
  180.6390  179.4440  135.6820 N   0  0  0  0  0  1  0  0  0  0  0  0
  1 10  2  0  0  0  0
  2  6  1  0  0  0  0
  2 10  1  0  0  0  0
  3 14  1  0  0  0  0
  3 18  1  0  0  0  0
  4 12  1  0  0  0  0
  7  9  1  0  0  0  0
  8  7  1  0  0  0  0
  9 12  2  0  0  0  0
  9 14  1  0  0  0  0
 10 20  1  0  0  0  0
 11  5  1  6  0  0  0
 11  7  1  0  0  0  0
 11  4  1  0  0  0  0
 12 15  1  0  0  0  0
 13  1  1  0  0  0  0
 14  2  2  0  0  0  0
 15  6  2  0  0  0  0
 16 17  1  0  0  0  0
 16 13  1  0  0  0  0
 17 13  1  0  0  0  0
 18 25  1  6  0  0  0
 18 13  1  0  0  0  0
 20 24  2  0  0  0  0
 20 21  1  0  0  0  0
 21 22  2  0  0  0  0
 22 19  1  0  0  0  0
 23 19  2  0  0  0  0
 24 23  1  0  0  0  0
 26 25  1  0  0  0  0
 27 26  1  0  0  0  0
M  END
>  <MODEL>
7

>  <REMARK>
 VINA RESULT:      -6.2      4.701      9.121
  Name = 
  3 active torsions:
  status: ('A' for Active; 'I' for Inactive)
    1  A    between atoms: C_9  and  C_15
    2  A    between atoms: C_10  and  C_20
    3  A    between atoms: C_20  and  C_26
                            x       y       z     vdW  Elec       q    Type
                         _______ _______ _______ _____ _____    ______ ____

>  <TORSDO>
F 3

$$$$
=
 OpenBabel10272401033D

 27 31  0  0  1  0  0  0  0  0999 V2000
  189.9360  176.9480  144.7510 N   0  0  0  0  0  0  0  0  0  0  0  0
  187.9200  177.7240  143.5600 C   0  0  0  0  0  0  0  0  0  0  0  0
  189.7680  178.0750  141.8430 N   0  0  0  0  0  2  0  0  0  0  0  0
  184.9800  178.3510  140.1620 S   0  0  0  0  0  0  0  0  0  0  0  0
  186.4480  177.5340  137.9920 C   0  0  0  0  0  1  0  0  0  0  0  0
  186.5710  177.6140  143.7550 N   0  0  0  0  0  0  0  0  0  0  0  0
  187.6510  178.5330  139.8660 N   0  0  0  0  0  0  0  0  0  0  0  0
  188.9300  178.9560  139.3140 C   0  0  0  0  0  1  0  0  0  0  0  0
  187.4130  178.2310  141.2400 C   0  0  0  0  0  0  0  0  0  0  0  0
  188.7750  177.5330  144.7810 C   0  0  0  0  0  0  0  0  0  0  0  0
  186.4330  178.6090  139.0630 C   0  0  2  0  0  3  0  0  0  0  0  0
  186.0850  178.1050  141.5340 C   0  0  0  0  0  0  0  0  0  0  0  0
  190.6310  176.5510  143.5500 C   0  0  0  0  0  0  0  0  0  0  0  0
  188.3860  178.0210  142.2370 C   0  0  0  0  0  0  0  0  0  0  0  0
  185.6790  177.7910  142.7810 N   0  0  0  0  0  0  0  0  0  0  0  0
  190.3080  175.1670  143.0370 C   0  0  0  0  0  2  0  0  0  0  0  0
  191.6290  175.4360  143.7630 C   0  0  0  0  0  2  0  0  0  0  0  0
  190.9510  177.6850  142.5900 C   0  0  1  0  0  3  0  0  0  0  0  0
  187.2290  178.6280  148.5760 N   0  0  0  0  0  0  0  0  0  0  0  0
  188.2540  177.9340  146.1150 C   0  0  0  0  0  0  0  0  0  0  0  0
  189.0440  177.8330  147.2660 C   0  0  0  0  0  3  0  0  0  0  0  0
  188.5130  178.1910  148.5020 C   0  0  0  0  0  3  0  0  0  0  0  0
  186.4630  178.7180  147.4880 N   0  0  0  0  0  0  0  0  0  0  0  0
  186.9350  178.3810  146.2590 C   0  0  0  0  0  3  0  0  0  0  0  0
  192.1440  177.4610  141.6550 C   0  0  0  0  0  2  0  0  0  0  0  0
  191.7220  177.2940  140.2040 C   0  0  0  0  0  2  0  0  0  0  0  0
  192.8920  177.0180  139.3890 N   0  0  0  0  0  1  0  0  0  0  0  0
  1 10  2  0  0  0  0
  2  6  1  0  0  0  0
  2 10  1  0  0  0  0
  3 14  1  0  0  0  0
  3 18  1  0  0  0  0
  4 12  1  0  0  0  0
  7  9  1  0  0  0  0
  8  7  1  0  0  0  0
  9 12  2  0  0  0  0
  9 14  1  0  0  0  0
 10 20  1  0  0  0  0
 11  5  1  6  0  0  0
 11  7  1  0  0  0  0
 11  4  1  0  0  0  0
 12 15  1  0  0  0  0
 13 17  1  0  0  0  0
 13  1  1  0  0  0  0
 14  2  2  0  0  0  0
 15  6  2  0  0  0  0
 16 13  1  0  0  0  0
 16 17  1  0  0  0  0
 18 25  1  6  0  0  0
 18 13  1  0  0  0  0
 20 24  2  0  0  0  0
 20 21  1  0  0  0  0
 21 22  2  0  0  0  0
 22 19  1  0  0  0  0
 23 19  2  0  0  0  0
 24 23  1  0  0  0  0
 26 25  1  0  0  0  0
 27 26  1  0  0  0  0
M  END
>  <MODEL>
8

>  <REMARK>
 VINA RESULT:      -6.1      2.100      5.936
  Name = 
  3 active torsions:
  status: ('A' for Active; 'I' for Inactive)
    1  A    between atoms: C_9  and  C_15
    2  A    between atoms: C_10  and  C_20
    3  A    between atoms: C_20  and  C_26
                            x       y       z     vdW  Elec       q    Type
                         _______ _______ _______ _____ _____    ______ ____

>  <TORSDO>
F 3

$$$$
=
 OpenBabel10272401033D

 27 31  0  0  1  0  0  0  0  0999 V2000
  188.9870  177.2080  144.3620 N   0  0  0  0  0  0  0  0  0  0  0  0
  187.2330  177.9060  142.7740 C   0  0  0  0  0  0  0  0  0  0  0  0
  189.3720  178.1850  141.4200 N   0  0  0  0  0  2  0  0  0  0  0  0
  184.9870  178.3370  138.8560 S   0  0  0  0  0  0  0  0  0  0  0  0
  186.8360  177.4230  137.0460 C   0  0  0  0  0  1  0  0  0  0  0  0
  185.8710  177.7950  142.7180 N   0  0  0  0  0  0  0  0  0  0  0  0
  187.6660  178.5250  139.0590 N   0  0  0  0  0  0  0  0  0  0  0  0
  189.0270  178.9300  138.7370 C   0  0  0  0  0  1  0  0  0  0  0  0
  187.1730  178.2920  140.3780 C   0  0  0  0  0  0  0  0  0  0  0  0
  187.8420  177.7840  144.1430 C   0  0  0  0  0  0  0  0  0  0  0  0
  186.6210  178.5510  138.0390 C   0  0  2  0  0  3  0  0  0  0  0  0
  185.8130  178.1690  140.4220 C   0  0  0  0  0  0  0  0  0  0  0  0
  189.8950  176.7560  143.3350 C   0  0  0  0  0  0  0  0  0  0  0  0
  187.9400  178.1390  141.5490 C   0  0  0  0  0  0  0  0  0  0  0  0
  185.1780  177.9160  141.5850 N   0  0  0  0  0  0  0  0  0  0  0  0
  189.6720  175.3450  142.8420 C   0  0  0  0  0  2  0  0  0  0  0  0
  190.8340  175.6610  143.7890 C   0  0  0  0  0  2  0  0  0  0  0  0
  190.3920  177.8430  142.3960 C   0  0  1  0  0  3  0  0  0  0  0  0
  185.6060  179.0660  147.5120 N   0  0  0  0  0  0  0  0  0  0  0  0
  187.0790  178.2470  145.3320 C   0  0  0  0  0  0  0  0  0  0  0  0
  187.5600  178.0410  146.6310 C   0  0  0  0  0  3  0  0  0  0  0  0
  186.8040  178.4630  147.7220 C   0  0  0  0  0  3  0  0  0  0  0  0
  185.1330  179.2580  146.2790 N   0  0  0  0  0  0  0  0  0  0  0  0
  185.8320  178.8640  145.1820 C   0  0  0  0  0  3  0  0  0  0  0  0
  191.7400  177.5820  141.7150 C   0  0  0  0  0  2  0  0  0  0  0  0
  191.5890  177.2240  140.2450 C   0  0  0  0  0  2  0  0  0  0  0  0
  192.8980  177.1880  139.6190 N   0  0  0  0  0  1  0  0  0  0  0  0
  2 10  1  0  0  0  0
  3 14  1  0  0  0  0
  3 18  1  0  0  0  0
  4 12  1  0  0  0  0
  6  2  1  0  0  0  0
  7  9  1  0  0  0  0
  8  7  1  0  0  0  0
  9 12  2  0  0  0  0
  9 14  1  0  0  0  0
 10  1  2  0  0  0  0
 10 20  1  0  0  0  0
 11  5  1  6  0  0  0
 11  4  1  0  0  0  0
 11  7  1  0  0  0  0
 12 15  1  0  0  0  0
 13 17  1  0  0  0  0
 13  1  1  0  0  0  0
 14  2  2  0  0  0  0
 15  6  2  0  0  0  0
 16 13  1  0  0  0  0
 16 17  1  0  0  0  0
 18 25  1  6  0  0  0
 18 13  1  0  0  0  0
 19 22  1  0  0  0  0
 20 21  1  0  0  0  0
 21 22  2  0  0  0  0
 23 19  2  0  0  0  0
 24 20  2  0  0  0  0
 24 23  1  0  0  0  0
 26 25  1  0  0  0  0
 27 26  1  0  0  0  0
M  END
>  <MODEL>
9

>  <REMARK>
 VINA RESULT:      -6.1      2.135      6.058
  Name = 
  3 active torsions:
  status: ('A' for Active; 'I' for Inactive)
    1  A    between atoms: C_9  and  C_15
    2  A    between atoms: C_10  and  C_20
    3  A    between atoms: C_20  and  C_26
                            x       y       z     vdW  Elec       q    Type
                         _______ _______ _______ _____ _____    ______ ____

>  <TORSDO>
F 3

$$$$
