=
 OpenBabel10272415063D

 37 37  0  0  1  0  0  0  0  0999 V2000
  186.3880  179.0020  140.9190 C   0  0  0  0  0  2  0  0  0  0  0  0
  189.2070  174.2380  137.6500 O   0  0  0  0  0  1  0  0  0  0  0  0
  184.9900  178.8870  140.3300 C   0  0  2  0  0  3  0  0  0  0  0  0
  190.6030  176.6930  138.9710 C   0  0  0  0  0  2  0  0  0  0  0  0
  187.3650  175.2980  135.9340 C   0  0  0  0  0  3  0  0  0  0  0  0
  191.7880  175.9250  138.4180 C   0  0  0  0  0  2  0  0  0  0  0  0
  189.5080  177.4640  142.5510 C   0  0  2  0  0  3  0  0  0  0  0  0
  185.7800  176.4760  137.4060 C   0  0  2  0  0  3  0  0  0  0  0  0
  183.5230  177.5380  139.0060 O   0  0  0  0  0  1  0  0  0  0  0  0
  187.5870  176.0110  143.2510 C   0  0  0  0  0  1  0  0  0  0  0  0
  189.3950  177.2720  141.0410 C   0  0  0  0  0  2  0  0  0  0  0  0
  191.7350  176.6430  136.1760 O   0  0  0  0  0  0  0  0  0  0  0  0
  184.8530  177.6700  139.4120 C   0  0  1  0  0  3  0  0  0  0  0  0
  191.2730  174.3420  136.4310 C   0  0  0  0  0  2  0  0  0  0  0  0
  191.6100  175.7090  136.9520 C   0  0  0  0  0  0  0  0  0  0  0  0
  188.1610  177.4380  143.3160 C   0  0  2  0  0  0  0  0  0  0  0  0
  184.6720  180.0620  139.6440 O   0  0  0  0  0  1  0  0  0  0  0  0
  185.7700  177.7730  138.1960 C   0  0  0  0  0  2  0  0  0  0  0  0
  188.9690  175.1970  135.1350 S   0  0  0  0  0  0  0  0  0  0  0  0
  187.2620  178.4090  142.7990 O   0  0  0  0  0  0  0  0  0  0  0  0
  190.7160  176.7950  140.4750 C   0  0  0  0  0  2  0  0  0  0  0  0
  187.0830  176.3560  136.6920 C   0  0  0  0  0  3  0  0  0  0  0  0
  184.7300  176.4830  136.4850 O   0  0  0  0  0  1  0  0  0  0  0  0
  189.7640  174.1020  136.3750 C   0  0  2  0  0  3  0  0  0  0  0  0
  186.6580  177.9020  141.7360 O   0  0  0  0  0  0  0  0  0  0  0  0
  188.8180  176.6660  145.5370 O   0  0  0  0  0  1  0  0  0  0  0  0
  188.4320  177.7880  144.7960 C   0  0  2  0  0  3  0  0  0  0  0  0
  187.2810  178.5200  145.4880 C   0  0  0  0  0  2  0  0  0  0  0  0
  186.2380  177.6320  145.8090 O   0  0  0  0  0  0  0  0  0  0  0  0
  184.2750  178.9320  145.2500 C   0  0  0  0  0  1  0  0  0  0  0  0
  185.1620  178.3670  146.3510 C   0  0  0  0  0  0  0  0  0  0  0  0
  185.7280  179.5310  147.1370 C   0  0  0  0  0  1  0  0  0  0  0  0
  184.4020  177.5950  147.2190 F   0  0  0  0  0  0  0  0  0  0  0  0
  190.3420  178.5750  142.8990 O   0  0  0  0  0  0  0  0  0  0  0  0
  191.4240  178.5130  143.7840 C   0  0  0  0  0  0  0  0  0  0  0  0
  191.8710  177.3010  144.2930 O   0  0  0  0  0  1  0  0  0  0  0  0
  191.9920  179.5780  144.1380 O   0  0  0  0  0  0  0  0  0  0  0  0
  1 25  1  0  0  0  0
  3 17  1  6  0  0  0
  3  1  1  0  0  0  0
  4 21  1  0  0  0  0
  5 22  2  0  0  0  0
  6  4  1  0  0  0  0
  7 34  1  6  0  0  0
  7 16  1  0  0  0  0
  8 23  1  6  0  0  0
  8 18  1  0  0  0  0
 11  7  1  0  0  0  0
 12 15  2  0  0  0  0
 13  9  1  6  0  0  0
 13  3  1  0  0  0  0
 14 15  1  0  0  0  0
 15  6  1  0  0  0  0
 16 10  1  6  0  0  0
 16 27  1  0  0  0  0
 18 13  1  0  0  0  0
 19  5  1  0  0  0  0
 19 24  1  0  0  0  0
 20 16  1  0  0  0  0
 21 11  1  0  0  0  0
 22  8  1  0  0  0  0
 24 14  1  0  0  0  0
 24  2  1  1  0  0  0
 25 20  1  0  0  0  0
 27 28  1  0  0  0  0
 27 26  1  1  0  0  0
 28 29  1  0  0  0  0
 29 31  1  0  0  0  0
 30 31  1  0  0  0  0
 31 32  1  0  0  0  0
 31 33  1  0  0  0  0
 34 35  1  0  0  0  0
 35 37  2  0  0  0  0
 35 36  1  0  0  0  0
M  END
>  <MODEL>
1

>  <REMARK>
 VINA RESULT:      -6.7      0.000      0.000
  Name = 
  6 active torsions:
  status: ('A' for Active; 'I' for Inactive)
    1  A    between atoms: C_4  and  O_22
    2  A    between atoms: C_10  and  O_22
    3  A    between atoms: O_16  and  C_21
    4  A    between atoms: O_16  and  C_30
    5  A    between atoms: C_20  and  C_24
    6  A    between atoms: C_24  and  C_30
                            x       y       z     vdW  Elec       q    Type
                         _______ _______ _______ _____ _____    ______ ____

>  <TORSDO>
F 6

$$$$
=
 OpenBabel10272415063D

 37 37  0  0  1  0  0  0  0  0999 V2000
  185.9440  178.7810  138.0450 C   0  0  0  0  0  2  0  0  0  0  0  0
  186.4710  176.5010  144.0340 O   0  0  0  0  0  1  0  0  0  0  0  0
  187.3050  178.3540  137.5190 C   0  0  2  0  0  3  0  0  0  0  0  0
  184.5990  178.7930  143.0540 C   0  0  0  0  0  2  0  0  0  0  0  0
  188.9920  177.2880  143.3380 C   0  0  0  0  0  3  0  0  0  0  0  0
  184.2220  178.6930  144.5200 C   0  0  0  0  0  2  0  0  0  0  0  0
  182.6370  178.0470  139.8590 C   0  0  2  0  0  3  0  0  0  0  0  0
  188.9470  177.3430  140.8760 C   0  0  2  0  0  3  0  0  0  0  0  0
  189.2460  177.0200  137.9450 O   0  0  0  0  0  1  0  0  0  0  0  0
  183.3510  175.8710  138.8360 C   0  0  0  0  0  1  0  0  0  0  0  0
  183.8450  178.2760  140.7640 C   0  0  0  0  0  2  0  0  0  0  0  0
  185.9560  179.9640  145.4790 O   0  0  0  0  0  0  0  0  0  0  0  0
  188.0670  177.4920  138.5280 C   0  0  1  0  0  3  0  0  0  0  0  0
  186.0300  177.6820  146.0770 C   0  0  0  0  0  2  0  0  0  0  0  0
  185.4390  178.8640  145.3670 C   0  0  0  0  0  0  0  0  0  0  0  0
  182.9470  177.3230  138.5240 C   0  0  2  0  0  0  0  0  0  0  0  0
  188.0510  179.4840  137.1740 O   0  0  0  0  0  1  0  0  0  0  0  0
  188.3800  178.2620  139.8070 C   0  0  0  0  0  2  0  0  0  0  0  0
  188.5370  178.0010  144.9210 S   0  0  0  0  0  0  0  0  0  0  0  0
  183.9440  178.0170  137.7880 O   0  0  0  0  0  0  0  0  0  0  0  0
  183.3940  178.4860  142.1940 C   0  0  0  0  0  2  0  0  0  0  0  0
  188.6250  177.9080  142.2180 C   0  0  0  0  0  3  0  0  0  0  0  0
  190.3310  177.2450  140.7190 O   0  0  0  0  0  1  0  0  0  0  0  0
  187.0610  176.9490  145.2190 C   0  0  2  0  0  3  0  0  0  0  0  0
  185.1340  177.6620  138.2470 O   0  0  0  0  0  0  0  0  0  0  0  0
  180.6580  176.5180  138.2540 O   0  0  0  0  0  1  0  0  0  0  0  0
  181.6610  177.2990  137.6710 C   0  0  2  0  0  3  0  0  0  0  0  0
  181.8830  176.8890  136.2140 C   0  0  0  0  0  2  0  0  0  0  0  0
  181.1020  175.7670  135.8820 O   0  0  0  0  0  0  0  0  0  0  0  0
  183.3450  175.1920  135.1780 C   0  0  0  0  0  1  0  0  0  0  0  0
  181.9580  174.6920  135.5580 C   0  0  0  0  0  0  0  0  0  0  0  0
  181.3800  173.9680  134.3600 C   0  0  0  0  0  1  0  0  0  0  0  0
  182.0550  173.7820  136.6020 F   0  0  0  0  0  0  0  0  0  0  0  0
  181.8440  179.2290  139.6980 O   0  0  0  0  0  0  0  0  0  0  0  0
  180.6350  179.4740  140.3560 C   0  0  0  0  0  0  0  0  0  0  0  0
  180.0820  180.7470  140.4010 O   0  0  0  0  0  0  0  0  0  0  0  0
  180.0440  178.5250  140.9340 O   0  0  0  0  0  1  0  0  0  0  0  0
  1 25  1  0  0  0  0
  3 17  1  1  0  0  0
  3  1  1  0  0  0  0
  3 13  1  0  0  0  0
  4  6  1  0  0  0  0
  5 19  1  0  0  0  0
  6 15  1  0  0  0  0
  7 34  1  6  0  0  0
  7 11  1  0  0  0  0
  8 23  1  6  0  0  0
  8 22  1  0  0  0  0
 11 21  1  0  0  0  0
 13  9  1  6  0  0  0
 13 18  1  0  0  0  0
 15 12  2  0  0  0  0
 15 14  1  0  0  0  0
 16 10  1  1  0  0  0
 16  7  1  0  0  0  0
 18  8  1  0  0  0  0
 19 24  1  0  0  0  0
 20 25  1  0  0  0  0
 20 16  1  0  0  0  0
 21  4  1  0  0  0  0
 22  5  2  0  0  0  0
 24  2  1  6  0  0  0
 24 14  1  0  0  0  0
 27 26  1  1  0  0  0
 27 16  1  0  0  0  0
 28 27  1  0  0  0  0
 29 28  1  0  0  0  0
 30 31  1  0  0  0  0
 31 29  1  0  0  0  0
 31 33  1  0  0  0  0
 32 31  1  0  0  0  0
 34 35  1  0  0  0  0
 35 36  2  0  0  0  0
 35 37  1  0  0  0  0
M  END
>  <MODEL>
2

>  <REMARK>
 VINA RESULT:      -6.6      3.751      8.910
  Name = 
  6 active torsions:
  status: ('A' for Active; 'I' for Inactive)
    1  A    between atoms: C_4  and  O_22
    2  A    between atoms: C_10  and  O_22
    3  A    between atoms: O_16  and  C_21
    4  A    between atoms: O_16  and  C_30
    5  A    between atoms: C_20  and  C_24
    6  A    between atoms: C_24  and  C_30
                            x       y       z     vdW  Elec       q    Type
                         _______ _______ _______ _____ _____    ______ ____

>  <TORSDO>
F 6

$$$$
=
 OpenBabel10272415063D

 37 37  0  0  1  0  0  0  0  0999 V2000
  185.4340  178.9540  141.7520 C   0  0  0  0  0  2  0  0  0  0  0  0
  187.8910  174.9870  137.3300 O   0  0  0  0  0  1  0  0  0  0  0  0
  183.9570  178.7040  141.4880 C   0  0  2  0  0  3  0  0  0  0  0  0
  189.2800  177.4680  138.6080 C   0  0  0  0  0  2  0  0  0  0  0  0
  185.5800  175.9450  136.2340 C   0  0  0  0  0  3  0  0  0  0  0  0
  190.3750  176.9340  137.7030 C   0  0  0  0  0  2  0  0  0  0  0  0
  189.0090  177.7130  142.4130 C   0  0  2  0  0  3  0  0  0  0  0  0
  184.2780  176.7350  138.1700 C   0  0  2  0  0  3  0  0  0  0  0  0
  182.3730  177.3020  140.3680 O   0  0  0  0  0  1  0  0  0  0  0  0
  187.4920  175.9420  143.3360 C   0  0  0  0  0  1  0  0  0  0  0  0
  188.5550  177.6610  140.9570 C   0  0  0  0  0  2  0  0  0  0  0  0
  189.6970  177.8600  135.6470 O   0  0  0  0  0  0  0  0  0  0  0  0
  183.7380  177.5790  140.4740 C   0  0  1  0  0  3  0  0  0  0  0  0
  189.5730  175.5030  135.6970 C   0  0  0  0  0  2  0  0  0  0  0  0
  189.8710  176.8440  136.3010 C   0  0  0  0  0  0  0  0  0  0  0  0
  187.9010  177.4210  143.4550 C   0  0  2  0  0  0  0  0  0  0  0  0
  183.3510  179.8850  141.0530 O   0  0  0  0  0  1  0  0  0  0  0  0
  184.3150  177.9310  139.1050 C   0  0  0  0  0  2  0  0  0  0  0  0
  186.9420  176.1530  135.0840 S   0  0  0  0  0  0  0  0  0  0  0  0
  186.8000  178.3030  143.2890 O   0  0  0  0  0  0  0  0  0  0  0  0
  189.7440  177.4330  140.0460 C   0  0  0  0  0  2  0  0  0  0  0  0
  185.3740  176.8720  137.1680 C   0  0  0  0  0  3  0  0  0  0  0  0
  183.0420  176.6870  137.5220 O   0  0  0  0  0  1  0  0  0  0  0  0
  188.1340  175.0600  135.9550 C   0  0  2  0  0  3  0  0  0  0  0  0
  186.0160  177.8270  142.3340 O   0  0  0  0  0  0  0  0  0  0  0  0
  189.5230  176.7660  145.1580 O   0  0  0  0  0  1  0  0  0  0  0  0
  188.4830  177.6540  144.8670 C   0  0  2  0  0  3  0  0  0  0  0  0
  187.4380  177.6450  145.9850 C   0  0  0  0  0  2  0  0  0  0  0  0
  187.9160  176.9600  147.1160 O   0  0  0  0  0  0  0  0  0  0  0  0
  186.9430  179.0030  147.9750 C   0  0  0  0  0  1  0  0  0  0  0  0
  187.8790  177.8280  148.2280 C   0  0  0  0  0  0  0  0  0  0  0  0
  189.2720  178.3820  148.4460 C   0  0  0  0  0  1  0  0  0  0  0  0
  187.4980  177.1620  149.3850 F   0  0  0  0  0  0  0  0  0  0  0  0
  189.7730  178.8890  142.7040 O   0  0  0  0  0  0  0  0  0  0  0  0
  191.0390  178.8910  143.3000 C   0  0  0  0  0  0  0  0  0  0  0  0
  191.9430  177.8610  143.0760 O   0  0  0  0  0  0  0  0  0  0  0  0
  191.3580  179.8360  144.0660 O   0  0  0  0  0  1  0  0  0  0  0  0
  1 25  1  0  0  0  0
  3 17  1  6  0  0  0
  3  1  1  0  0  0  0
  4 21  1  0  0  0  0
  5 22  2  0  0  0  0
  6  4  1  0  0  0  0
  7 34  1  1  0  0  0
  7 16  1  0  0  0  0
  8 23  1  6  0  0  0
  8 18  1  0  0  0  0
 11  7  1  0  0  0  0
 12 15  2  0  0  0  0
 13  9  1  6  0  0  0
 13  3  1  0  0  0  0
 14 24  1  0  0  0  0
 14 15  1  0  0  0  0
 15  6  1  0  0  0  0
 16 10  1  6  0  0  0
 16 27  1  0  0  0  0
 18 13  1  0  0  0  0
 19 24  1  0  0  0  0
 19  5  1  0  0  0  0
 20 16  1  0  0  0  0
 21 11  1  0  0  0  0
 22  8  1  0  0  0  0
 24  2  1  1  0  0  0
 25 20  1  0  0  0  0
 27 26  1  1  0  0  0
 27 28  1  0  0  0  0
 28 29  1  0  0  0  0
 29 31  1  0  0  0  0
 30 31  1  0  0  0  0
 31 32  1  0  0  0  0
 31 33  1  0  0  0  0
 34 35  1  0  0  0  0
 35 37  1  0  0  0  0
 36 35  2  0  0  0  0
M  END
>  <MODEL>
3

>  <REMARK>
 VINA RESULT:      -6.4      1.638      1.895
  Name = 
  6 active torsions:
  status: ('A' for Active; 'I' for Inactive)
    1  A    between atoms: C_4  and  O_22
    2  A    between atoms: C_10  and  O_22
    3  A    between atoms: O_16  and  C_21
    4  A    between atoms: O_16  and  C_30
    5  A    between atoms: C_20  and  C_24
    6  A    between atoms: C_24  and  C_30
                            x       y       z     vdW  Elec       q    Type
                         _______ _______ _______ _____ _____    ______ ____

>  <TORSDO>
F 6

$$$$
=
 OpenBabel10272415063D

 37 37  0  0  1  0  0  0  0  0999 V2000
  190.1090  176.3970  140.6720 C   0  0  0  0  0  2  0  0  0  0  0  0
  184.8100  179.8920  139.6500 O   0  0  0  0  0  1  0  0  0  0  0  0
  190.6750  176.4250  139.2610 C   0  0  2  0  0  3  0  0  0  0  0  0
  185.2850  177.8240  141.9340 C   0  0  0  0  0  2  0  0  0  0  0  0
  185.2170  178.5060  137.3320 C   0  0  0  0  0  3  0  0  0  0  0  0
  183.8980  178.3380  142.2680 C   0  0  0  0  0  2  0  0  0  0  0  0
  188.6300  178.1440  143.7580 C   0  0  2  0  0  3  0  0  0  0  0  0
  187.5970  177.8790  137.4170 C   0  0  2  0  0  3  0  0  0  0  0  0
  190.5100  177.4360  137.0980 O   0  0  0  0  0  1  0  0  0  0  0  0
  190.1110  179.8430  142.6590 C   0  0  0  0  0  1  0  0  0  0  0  0
  187.6570  177.9140  142.6040 C   0  0  0  0  0  2  0  0  0  0  0  0
  182.6090  177.0290  140.7940 O   0  0  0  0  0  0  0  0  0  0  0  0
  189.8730  177.3450  138.3380 C   0  0  1  0  0  3  0  0  0  0  0  0
  182.5620  179.3330  140.2820 C   0  0  0  0  0  2  0  0  0  0  0  0
  182.9940  178.1480  141.0950 C   0  0  0  0  0  0  0  0  0  0  0  0
  190.0860  178.4600  143.3330 C   0  0  2  0  0  0  0  0  0  0  0  0
  190.7200  175.1270  138.7470 O   0  0  0  0  0  1  0  0  0  0  0  0
  188.4380  176.8550  138.1600 C   0  0  0  0  0  2  0  0  0  0  0  0
  183.5270  178.2870  137.8950 S   0  0  0  0  0  0  0  0  0  0  0  0
  190.6050  177.4370  142.4940 O   0  0  0  0  0  0  0  0  0  0  0  0
  186.2320  178.1380  143.0700 C   0  0  0  0  0  2  0  0  0  0  0  0
  186.1720  177.7190  137.8240 C   0  0  0  0  0  3  0  0  0  0  0  0
  187.7270  177.6770  136.0410 O   0  0  0  0  0  1  0  0  0  0  0  0
  183.5340  179.6360  139.1410 C   0  0  2  0  0  3  0  0  0  0  0  0
  190.2030  177.6630  141.2540 O   0  0  0  0  0  0  0  0  0  0  0  0
  191.9810  179.4730  144.4910 O   0  0  0  0  0  1  0  0  0  0  0  0
  190.9630  178.5200  144.6020 C   0  0  2  0  0  3  0  0  0  0  0  0
  191.5370  177.1690  145.0330 C   0  0  0  0  0  2  0  0  0  0  0  0
  191.9820  177.2110  146.3660 O   0  0  0  0  0  0  0  0  0  0  0  0
  192.7360  175.7880  148.1730 C   0  0  0  0  0  1  0  0  0  0  0  0
  191.8680  175.9220  146.9290 C   0  0  0  0  0  0  0  0  0  0  0  0
  192.3580  174.9140  145.9100 C   0  0  0  0  0  1  0  0  0  0  0  0
  190.5510  175.6120  147.2370 F   0  0  0  0  0  0  0  0  0  0  0  0
  188.5350  177.1270  144.7620 O   0  0  0  0  0  0  0  0  0  0  0  0
  187.9500  177.3010  146.0210 C   0  0  0  0  0  0  0  0  0  0  0  0
  188.6750  177.8140  147.0890 O   0  0  0  0  0  1  0  0  0  0  0  0
  186.7480  176.9710  146.1930 O   0  0  0  0  0  0  0  0  0  0  0  0
  1 25  1  0  0  0  0
  3 17  1  6  0  0  0
  3  1  1  0  0  0  0
  4  6  1  0  0  0  0
  4 21  1  0  0  0  0
  5 22  2  0  0  0  0
  5 19  1  0  0  0  0
  7 34  1  1  0  0  0
  8 23  1  6  0  0  0
  8 22  1  0  0  0  0
  8 18  1  0  0  0  0
 11 21  1  0  0  0  0
 11  7  1  0  0  0  0
 12 15  2  0  0  0  0
 13  9  1  6  0  0  0
 13  3  1  0  0  0  0
 14 15  1  0  0  0  0
 15  6  1  0  0  0  0
 16 10  1  6  0  0  0
 16  7  1  0  0  0  0
 16 27  1  0  0  0  0
 18 13  1  0  0  0  0
 19 24  1  0  0  0  0
 20 16  1  0  0  0  0
 24  2  1  1  0  0  0
 24 14  1  0  0  0  0
 25 20  1  0  0  0  0
 27 26  1  6  0  0  0
 27 28  1  0  0  0  0
 28 29  1  0  0  0  0
 29 31  1  0  0  0  0
 31 33  1  0  0  0  0
 31 30  1  0  0  0  0
 32 31  1  0  0  0  0
 34 35  1  0  0  0  0
 35 37  2  0  0  0  0
 35 36  1  0  0  0  0
M  END
>  <MODEL>
4

>  <REMARK>
 VINA RESULT:      -6.3      2.568      6.075
  Name = 
  6 active torsions:
  status: ('A' for Active; 'I' for Inactive)
    1  A    between atoms: C_4  and  O_22
    2  A    between atoms: C_10  and  O_22
    3  A    between atoms: O_16  and  C_21
    4  A    between atoms: O_16  and  C_30
    5  A    between atoms: C_20  and  C_24
    6  A    between atoms: C_24  and  C_30
                            x       y       z     vdW  Elec       q    Type
                         _______ _______ _______ _____ _____    ______ ____

>  <TORSDO>
F 6

$$$$
=
 OpenBabel10272415063D

 37 37  0  0  1  0  0  0  0  0999 V2000
  186.0470  178.7290  138.4400 C   0  0  0  0  0  2  0  0  0  0  0  0
  186.2250  176.5600  144.4900 O   0  0  0  0  0  1  0  0  0  0  0  0
  187.3950  178.2050  137.9710 C   0  0  2  0  0  3  0  0  0  0  0  0
  184.5360  178.9420  143.3970 C   0  0  0  0  0  2  0  0  0  0  0  0
  188.8130  177.1710  143.8680 C   0  0  0  0  0  3  0  0  0  0  0  0
  184.1040  178.9000  144.8500 C   0  0  0  0  0  2  0  0  0  0  0  0
  182.6400  178.2470  140.1510 C   0  0  2  0  0  3  0  0  0  0  0  0
  188.8550  177.1720  141.4040 C   0  0  2  0  0  3  0  0  0  0  0  0
  189.2310  176.7620  138.4940 O   0  0  0  0  0  1  0  0  0  0  0  0
  183.2480  176.0070  139.2010 C   0  0  0  0  0  1  0  0  0  0  0  0
  183.8290  178.4210  141.0930 C   0  0  0  0  0  2  0  0  0  0  0  0
  185.8830  180.0820  145.8430 O   0  0  0  0  0  0  0  0  0  0  0  0
  188.0650  177.3200  139.0240 C   0  0  1  0  0  3  0  0  0  0  0  0
  185.7910  177.8140  146.4910 C   0  0  0  0  0  2  0  0  0  0  0  0
  185.3010  179.0140  145.7360 C   0  0  0  0  0  0  0  0  0  0  0  0
  182.9490  177.4740  138.8440 C   0  0  2  0  0  0  0  0  0  0  0  0
  188.2220  179.2780  137.6290 O   0  0  0  0  0  1  0  0  0  0  0  0
  188.3840  178.0990  140.2980 C   0  0  0  0  0  2  0  0  0  0  0  0
  188.3510  177.9480  145.4180 S   0  0  0  0  0  0  0  0  0  0  0  0
  184.0120  178.0870  138.1290 O   0  0  0  0  0  0  0  0  0  0  0  0
  183.3440  178.6920  142.5020 C   0  0  0  0  0  2  0  0  0  0  0  0
  188.5240  177.7870  142.7220 C   0  0  0  0  0  3  0  0  0  0  0  0
  190.2340  176.9830  141.2990 O   0  0  0  0  0  1  0  0  0  0  0  0
  186.8020  176.9980  145.6860 C   0  0  2  0  0  3  0  0  0  0  0  0
  185.1600  177.6690  138.6370 O   0  0  0  0  0  0  0  0  0  0  0  0
  180.8830  176.3860  138.1300 O   0  0  0  0  0  1  0  0  0  0  0  0
  181.6930  177.5110  137.9460 C   0  0  2  0  0  3  0  0  0  0  0  0
  181.9910  177.7220  136.4600 C   0  0  0  0  0  2  0  0  0  0  0  0
  182.0080  179.0920  136.1390 O   0  0  0  0  0  0  0  0  0  0  0  0
  180.9520  180.3310  134.3480 C   0  0  0  0  0  1  0  0  0  0  0  0
  180.7650  179.4460  135.5730 C   0  0  0  0  0  0  0  0  0  0  0  0
  179.9820  180.2350  136.6020 C   0  0  0  0  0  1  0  0  0  0  0  0
  180.0180  178.3250  135.2360 F   0  0  0  0  0  0  0  0  0  0  0  0
  181.9300  179.4720  139.9370 O   0  0  0  0  0  0  0  0  0  0  0  0
  180.6840  179.7790  140.4940 C   0  0  0  0  0  0  0  0  0  0  0  0
  180.0180  178.8770  141.3140 O   0  0  0  0  0  1  0  0  0  0  0  0
  180.1480  180.8870  140.2330 O   0  0  0  0  0  0  0  0  0  0  0  0
  1 25  1  0  0  0  0
  3 17  1  1  0  0  0
  3  1  1  0  0  0  0
  3 13  1  0  0  0  0
  4  6  1  0  0  0  0
  5 19  1  0  0  0  0
  6 15  1  0  0  0  0
  7 34  1  6  0  0  0
  7 11  1  0  0  0  0
  8 23  1  1  0  0  0
  8 22  1  0  0  0  0
 11 21  1  0  0  0  0
 13  9  1  6  0  0  0
 13 18  1  0  0  0  0
 15 12  2  0  0  0  0
 15 14  1  0  0  0  0
 16 10  1  1  0  0  0
 16  7  1  0  0  0  0
 18  8  1  0  0  0  0
 19 24  1  0  0  0  0
 20 25  1  0  0  0  0
 20 16  1  0  0  0  0
 21  4  1  0  0  0  0
 22  5  2  0  0  0  0
 24  2  1  6  0  0  0
 24 14  1  0  0  0  0
 27 26  1  6  0  0  0
 27 16  1  0  0  0  0
 28 27  1  0  0  0  0
 29 28  1  0  0  0  0
 30 31  1  0  0  0  0
 31 29  1  0  0  0  0
 31 32  1  0  0  0  0
 33 31  1  0  0  0  0
 34 35  1  0  0  0  0
 35 36  1  0  0  0  0
 37 35  2  0  0  0  0
M  END
>  <MODEL>
5

>  <REMARK>
 VINA RESULT:      -6.1      4.033      8.917
  Name = 
  6 active torsions:
  status: ('A' for Active; 'I' for Inactive)
    1  A    between atoms: C_4  and  O_22
    2  A    between atoms: C_10  and  O_22
    3  A    between atoms: O_16  and  C_21
    4  A    between atoms: O_16  and  C_30
    5  A    between atoms: C_20  and  C_24
    6  A    between atoms: C_24  and  C_30
                            x       y       z     vdW  Elec       q    Type
                         _______ _______ _______ _____ _____    ______ ____

>  <TORSDO>
F 6

$$$$
=
 OpenBabel10272415063D

 37 37  0  0  1  0  0  0  0  0999 V2000
  186.0120  173.7830  136.5460 C   0  0  0  0  0  2  0  0  0  0  0  0
  181.8640  178.6740  137.0100 O   0  0  0  0  0  1  0  0  0  0  0  0
  185.1100  172.7880  135.8330 C   0  0  2  0  0  3  0  0  0  0  0  0
  184.3650  178.1550  138.7990 C   0  0  0  0  0  2  0  0  0  0  0  0
  180.3430  176.4170  137.2310 C   0  0  0  0  0  3  0  0  0  0  0  0
  183.8490  179.4640  139.3630 C   0  0  0  0  0  2  0  0  0  0  0  0
  187.5700  177.2760  136.9100 C   0  0  2  0  0  3  0  0  0  0  0  0
  181.7400  174.6500  136.2320 C   0  0  2  0  0  3  0  0  0  0  0  0
  183.0410  172.4970  134.6660 O   0  0  0  0  0  1  0  0  0  0  0  0
  187.1330  176.9780  134.4590 C   0  0  0  0  0  1  0  0  0  0  0  0
  186.1350  177.1420  137.4120 C   0  0  0  0  0  2  0  0  0  0  0  0
  182.1550  178.6600  140.7870 O   0  0  0  0  0  0  0  0  0  0  0  0
  183.7730  173.4110  135.4290 C   0  0  1  0  0  3  0  0  0  0  0  0
  181.3300  179.9370  138.9810 C   0  0  0  0  0  2  0  0  0  0  0  0
  182.4270  179.3060  139.7870 C   0  0  0  0  0  0  0  0  0  0  0  0
  187.9110  176.4210  135.6650 C   0  0  2  0  0  0  0  0  0  0  0  0
  184.9090  171.6700  136.6470 O   0  0  0  0  0  1  0  0  0  0  0  0
  182.9630  173.8500  136.6460 C   0  0  0  0  0  2  0  0  0  0  0  0
  179.9830  177.5390  138.5840 S   0  0  0  0  0  0  0  0  0  0  0  0
  187.6350  175.0470  135.9000 O   0  0  0  0  0  0  0  0  0  0  0  0
  185.7590  178.3490  138.2470 C   0  0  0  0  0  2  0  0  0  0  0  0
  181.3750  175.5810  137.3380 C   0  0  0  0  0  3  0  0  0  0  0  0
  180.6800  173.7790  135.9720 O   0  0  0  0  0  1  0  0  0  0  0  0
  180.8200  179.0120  137.8760 C   0  0  2  0  0  3  0  0  0  0  0  0
  186.3470  174.8310  135.6850 O   0  0  0  0  0  0  0  0  0  0  0  0
  189.6790  177.4670  134.3470 O   0  0  0  0  0  1  0  0  0  0  0  0
  189.4220  176.5560  135.3760 C   0  0  2  0  0  3  0  0  0  0  0  0
  190.1310  175.2270  135.1080 C   0  0  0  0  0  2  0  0  0  0  0  0
  191.5270  175.3720  135.2020 O   0  0  0  0  0  0  0  0  0  0  0  0
  190.9750  173.6270  136.7860 C   0  0  0  0  0  1  0  0  0  0  0  0
  191.9840  174.6790  136.3440 C   0  0  0  0  0  0  0  0  0  0  0  0
  192.1430  175.6760  137.4730 C   0  0  0  0  0  1  0  0  0  0  0  0
  193.2190  174.0850  136.1210 F   0  0  0  0  0  0  0  0  0  0  0  0
  188.5310  177.1560  137.9670 O   0  0  0  0  0  0  0  0  0  0  0  0
  189.2340  178.2260  138.5300 C   0  0  0  0  0  0  0  0  0  0  0  0
  189.0570  179.5260  138.0740 O   0  0  0  0  0  0  0  0  0  0  0  0
  190.0560  178.0040  139.4560 O   0  0  0  0  0  1  0  0  0  0  0  0
  3  1  1  0  0  0  0
  3 17  1  1  0  0  0
  4  6  1  0  0  0  0
  5 22  2  0  0  0  0
  5 19  1  0  0  0  0
  6 15  1  0  0  0  0
  7 11  1  0  0  0  0
  7 34  1  1  0  0  0
  8 23  1  1  0  0  0
  8 18  1  0  0  0  0
  8 22  1  0  0  0  0
 11 21  1  0  0  0  0
 13  9  1  1  0  0  0
 13  3  1  0  0  0  0
 13 18  1  0  0  0  0
 14 15  1  0  0  0  0
 15 12  2  0  0  0  0
 16 10  1  6  0  0  0
 16 20  1  0  0  0  0
 16  7  1  0  0  0  0
 21  4  1  0  0  0  0
 24  2  1  1  0  0  0
 24 19  1  0  0  0  0
 24 14  1  0  0  0  0
 25 20  1  0  0  0  0
 25  1  1  0  0  0  0
 27 26  1  6  0  0  0
 27 16  1  0  0  0  0
 28 29  1  0  0  0  0
 28 27  1  0  0  0  0
 29 31  1  0  0  0  0
 31 30  1  0  0  0  0
 31 32  1  0  0  0  0
 33 31  1  0  0  0  0
 34 35  1  0  0  0  0
 35 37  1  0  0  0  0
 36 35  2  0  0  0  0
M  END
>  <MODEL>
6

>  <REMARK>
 VINA RESULT:      -5.5      4.961      8.713
  Name = 
  6 active torsions:
  status: ('A' for Active; 'I' for Inactive)
    1  A    between atoms: C_4  and  O_22
    2  A    between atoms: C_10  and  O_22
    3  A    between atoms: O_16  and  C_21
    4  A    between atoms: O_16  and  C_30
    5  A    between atoms: C_20  and  C_24
    6  A    between atoms: C_24  and  C_30
                            x       y       z     vdW  Elec       q    Type
                         _______ _______ _______ _____ _____    ______ ____

>  <TORSDO>
F 6

$$$$
=
 OpenBabel10272415063D

 37 37  0  0  1  0  0  0  0  0999 V2000
  186.7580  179.1390  142.7070 C   0  0  0  0  0  2  0  0  0  0  0  0
  185.4260  175.3100  137.7170 O   0  0  0  0  0  1  0  0  0  0  0  0
  185.3560  179.2560  143.2840 C   0  0  2  0  0  3  0  0  0  0  0  0
  187.8560  177.2420  138.0070 C   0  0  0  0  0  2  0  0  0  0  0  0
  183.2170  176.8840  138.0260 C   0  0  0  0  0  3  0  0  0  0  0  0
  188.1340  176.5970  136.6630 C   0  0  0  0  0  2  0  0  0  0  0  0
  189.6950  177.0640  141.3530 C   0  0  2  0  0  3  0  0  0  0  0  0
  183.3750  177.6940  140.3470 C   0  0  2  0  0  3  0  0  0  0  0  0
  183.1260  178.3910  143.2170 O   0  0  0  0  0  1  0  0  0  0  0  0
  188.4980  175.5720  142.9750 C   0  0  0  0  0  1  0  0  0  0  0  0
  188.5480  177.2960  140.3730 C   0  0  0  0  0  2  0  0  0  0  0  0
  186.7390  177.8990  135.2830 O   0  0  0  0  0  0  0  0  0  0  0  0
  184.3600  178.3430  142.5650 C   0  0  1  0  0  3  0  0  0  0  0  0
  186.0670  175.6400  135.4270 C   0  0  0  0  0  2  0  0  0  0  0  0
  186.9660  176.7960  135.7550 C   0  0  0  0  0  0  0  0  0  0  0  0
  189.2670  176.8980  142.8330 C   0  0  2  0  0  0  0  0  0  0  0  0
  184.9350  180.5870  143.2270 O   0  0  0  0  0  1  0  0  0  0  0  0
  184.1990  178.7270  141.0970 C   0  0  0  0  0  2  0  0  0  0  0  0
  183.7720  176.9270  136.3200 S   0  0  0  0  0  0  0  0  0  0  0  0
  188.5090  178.0150  143.2730 O   0  0  0  0  0  0  0  0  0  0  0  0
  188.9790  176.9270  138.9680 C   0  0  0  0  0  2  0  0  0  0  0  0
  183.7740  177.7100  138.9110 C   0  0  0  0  0  3  0  0  0  0  0  0
  182.0190  178.0030  140.4690 O   0  0  0  0  0  1  0  0  0  0  0  0
  184.9210  175.4980  136.4280 C   0  0  2  0  0  3  0  0  0  0  0  0
  187.2500  177.8470  142.9000 O   0  0  0  0  0  0  0  0  0  0  0  0
  191.1330  175.5530  143.6520 O   0  0  0  0  0  1  0  0  0  0  0  0
  190.5400  176.8180  143.7040 C   0  0  2  0  0  3  0  0  0  0  0  0
  190.3350  177.2570  145.1550 C   0  0  0  0  0  2  0  0  0  0  0  0
  191.5450  177.2150  145.8700 O   0  0  0  0  0  0  0  0  0  0  0  0
  191.9740  175.4060  147.4200 C   0  0  0  0  0  1  0  0  0  0  0  0
  191.2900  176.7450  147.1760 C   0  0  0  0  0  0  0  0  0  0  0  0
  189.7970  176.5390  147.3240 C   0  0  0  0  0  1  0  0  0  0  0  0
  191.6910  177.6620  148.1380 F   0  0  0  0  0  0  0  0  0  0  0  0
  190.7670  177.9970  141.1690 O   0  0  0  0  0  0  0  0  0  0  0  0
  192.0380  177.6660  140.6890 C   0  0  0  0  0  0  0  0  0  0  0  0
  192.2410  177.3290  139.3570 O   0  0  0  0  0  0  0  0  0  0  0  0
  193.0140  177.6580  141.4830 O   0  0  0  0  0  1  0  0  0  0  0  0
  1 25  1  0  0  0  0
  1  3  1  0  0  0  0
  3 17  1  6  0  0  0
  4 21  1  0  0  0  0
  5 22  2  0  0  0  0
  6  4  1  0  0  0  0
  7 34  1  1  0  0  0
  7 16  1  0  0  0  0
  8 23  1  6  0  0  0
  8 18  1  0  0  0  0
 11  7  1  0  0  0  0
 12 15  2  0  0  0  0
 13  9  1  1  0  0  0
 13  3  1  0  0  0  0
 14 15  1  0  0  0  0
 14 24  1  0  0  0  0
 15  6  1  0  0  0  0
 16 10  1  1  0  0  0
 16 20  1  0  0  0  0
 16 27  1  0  0  0  0
 18 13  1  0  0  0  0
 19 24  1  0  0  0  0
 19  5  1  0  0  0  0
 21 11  1  0  0  0  0
 22  8  1  0  0  0  0
 24  2  1  1  0  0  0
 25 20  1  0  0  0  0
 27 26  1  1  0  0  0
 27 28  1  0  0  0  0
 28 29  1  0  0  0  0
 29 31  1  0  0  0  0
 31 32  1  0  0  0  0
 31 30  1  0  0  0  0
 31 33  1  0  0  0  0
 35 34  1  0  0  0  0
 35 37  1  0  0  0  0
 36 35  2  0  0  0  0
M  END
>  <MODEL>
7

>  <REMARK>
 VINA RESULT:      -5.4      2.755      4.182
  Name = 
  6 active torsions:
  status: ('A' for Active; 'I' for Inactive)
    1  A    between atoms: C_4  and  O_22
    2  A    between atoms: C_10  and  O_22
    3  A    between atoms: O_16  and  C_21
    4  A    between atoms: O_16  and  C_30
    5  A    between atoms: C_20  and  C_24
    6  A    between atoms: C_24  and  C_30
                            x       y       z     vdW  Elec       q    Type
                         _______ _______ _______ _____ _____    ______ ____

>  <TORSDO>
F 6

$$$$
=
 OpenBabel10272415063D

 37 37  0  0  1  0  0  0  0  0999 V2000
  189.7440  176.7290  138.1890 C   0  0  0  0  0  2  0  0  0  0  0  0
  183.9260  177.2120  140.8820 O   0  0  0  0  0  1  0  0  0  0  0  0
  190.5740  176.6220  139.4580 C   0  0  2  0  0  3  0  0  0  0  0  0
  184.7670  178.1820  138.0410 C   0  0  0  0  0  2  0  0  0  0  0  0
  185.6240  178.4790  142.6040 C   0  0  0  0  0  3  0  0  0  0  0  0
  183.2900  178.5230  138.0580 C   0  0  0  0  0  2  0  0  0  0  0  0
  186.7810  175.6650  135.9850 C   0  0  2  0  0  3  0  0  0  0  0  0
  187.8440  177.5780  142.0310 C   0  0  2  0  0  3  0  0  0  0  0  0
  190.5050  176.2910  141.8270 O   0  0  0  0  0  1  0  0  0  0  0  0
  187.3780  173.6450  137.3460 C   0  0  0  0  0  1  0  0  0  0  0  0
  186.4400  176.6140  137.1310 C   0  0  0  0  0  2  0  0  0  0  0  0
  183.3530  180.5690  139.2220 O   0  0  0  0  0  0  0  0  0  0  0  0
  189.6990  176.5190  140.7100 C   0  0  1  0  0  3  0  0  0  0  0  0
  182.2410  178.8540  140.4040 C   0  0  0  0  0  2  0  0  0  0  0  0
  182.9880  179.4040  139.2250 C   0  0  0  0  0  0  0  0  0  0  0  0
  187.9010  174.6410  136.2960 C   0  0  2  0  0  0  0  0  0  0  0  0
  191.4370  177.7170  139.5480 O   0  0  0  0  0  1  0  0  0  0  0  0
  188.8540  177.7740  140.9140 C   0  0  0  0  0  2  0  0  0  0  0  0
  184.2270  179.5390  142.2230 S   0  0  0  0  0  0  0  0  0  0  0  0
  189.0900  175.2970  136.7150 O   0  0  0  0  0  0  0  0  0  0  0  0
  185.0490  177.1840  136.9400 C   0  0  0  0  0  2  0  0  0  0  0  0
  186.6710  178.4640  141.7810 C   0  0  0  0  0  3  0  0  0  0  0  0
  188.4350  177.9030  143.2550 O   0  0  0  0  0  1  0  0  0  0  0  0
  183.1760  178.2460  141.4490 C   0  0  2  0  0  3  0  0  0  0  0  0
  188.9910  175.5680  138.0070 O   0  0  0  0  0  0  0  0  0  0  0  0
  187.8400  172.5200  135.0880 O   0  0  0  0  0  1  0  0  0  0  0  0
  188.2240  173.8620  135.0020 C   0  0  2  0  0  3  0  0  0  0  0  0
  189.6810  173.9770  134.5480 C   0  0  0  0  0  2  0  0  0  0  0  0
  190.3940  172.8000  134.8400 O   0  0  0  0  0  0  0  0  0  0  0  0
  192.1390  174.4470  135.1540 C   0  0  0  0  0  1  0  0  0  0  0  0
  191.5270  173.1310  135.6140 C   0  0  0  0  0  0  0  0  0  0  0  0
  192.5640  172.0440  135.4270 C   0  0  0  0  0  1  0  0  0  0  0  0
  191.2200  173.2000  136.9660 F   0  0  0  0  0  0  0  0  0  0  0  0
  186.9640  176.3540  134.7430 O   0  0  0  0  0  0  0  0  0  0  0  0
  187.6360  177.5730  134.5980 C   0  0  0  0  0  0  0  0  0  0  0  0
  189.0150  177.6580  134.7430 O   0  0  0  0  0  1  0  0  0  0  0  0
  186.9770  178.6140  134.3480 O   0  0  0  0  0  0  0  0  0  0  0  0
  1  3  1  0  0  0  0
  3 17  1  1  0  0  0
  3 13  1  0  0  0  0
  4  6  1  0  0  0  0
  6 15  1  0  0  0  0
  7 34  1  6  0  0  0
  7 16  1  0  0  0  0
  7 11  1  0  0  0  0
  8 23  1  1  0  0  0
 12 15  2  0  0  0  0
 13 18  1  0  0  0  0
 13  9  1  1  0  0  0
 14 24  1  0  0  0  0
 15 14  1  0  0  0  0
 16 20  1  0  0  0  0
 16 10  1  1  0  0  0
 18  8  1  0  0  0  0
 19  5  1  0  0  0  0
 20 25  1  0  0  0  0
 21 11  1  0  0  0  0
 21  4  1  0  0  0  0
 22  8  1  0  0  0  0
 22  5  2  0  0  0  0
 24  2  1  6  0  0  0
 24 19  1  0  0  0  0
 25  1  1  0  0  0  0
 27 26  1  1  0  0  0
 27 16  1  0  0  0  0
 28 29  1  0  0  0  0
 28 27  1  0  0  0  0
 29 31  1  0  0  0  0
 30 31  1  0  0  0  0
 31 33  1  0  0  0  0
 32 31  1  0  0  0  0
 35 34  1  0  0  0  0
 35 36  1  0  0  0  0
 37 35  2  0  0  0  0
M  END
>  <MODEL>
8

>  <REMARK>
 VINA RESULT:      -5.3      3.516      9.095
  Name = 
  6 active torsions:
  status: ('A' for Active; 'I' for Inactive)
    1  A    between atoms: C_4  and  O_22
    2  A    between atoms: C_10  and  O_22
    3  A    between atoms: O_16  and  C_21
    4  A    between atoms: O_16  and  C_30
    5  A    between atoms: C_20  and  C_24
    6  A    between atoms: C_24  and  C_30
                            x       y       z     vdW  Elec       q    Type
                         _______ _______ _______ _____ _____    ______ ____

>  <TORSDO>
F 6

$$$$
=
 OpenBabel10272415063D

 37 37  0  0  1  0  0  0  0  0999 V2000
  190.0080  176.9580  139.2140 C   0  0  0  0  0  2  0  0  0  0  0  0
  183.7560  177.0630  140.7090 O   0  0  0  0  0  1  0  0  0  0  0  0
  190.5730  176.7710  140.6140 C   0  0  2  0  0  3  0  0  0  0  0  0
  185.1030  178.2810  138.1750 C   0  0  0  0  0  2  0  0  0  0  0  0
  185.0220  178.2330  142.8260 C   0  0  0  0  0  3  0  0  0  0  0  0
  183.6380  178.5800  137.9180 C   0  0  0  0  0  2  0  0  0  0  0  0
  187.5900  175.9940  136.3870 C   0  0  2  0  0  3  0  0  0  0  0  0
  187.3490  177.4420  142.6480 C   0  0  2  0  0  3  0  0  0  0  0  0
  190.0500  176.2480  142.8890 O   0  0  0  0  0  1  0  0  0  0  0  0
  187.9910  173.8870  137.6880 C   0  0  0  0  0  1  0  0  0  0  0  0
  186.9880  176.8380  137.5080 C   0  0  0  0  0  2  0  0  0  0  0  0
  183.3810  180.5260  139.2190 O   0  0  0  0  0  0  0  0  0  0  0  0
  189.4730  176.5440  141.6520 C   0  0  1  0  0  3  0  0  0  0  0  0
  182.1310  178.6920  140.0240 C   0  0  0  0  0  2  0  0  0  0  0  0
  183.0730  179.3550  139.0620 C   0  0  0  0  0  0  0  0  0  0  0  0
  188.6700  174.9790  136.8410 C   0  0  2  0  0  0  0  0  0  0  0  0
  191.3540  177.8780  140.9560 O   0  0  0  0  0  1  0  0  0  0  0  0
  188.5510  177.7540  141.7740 C   0  0  0  0  0  2  0  0  0  0  0  0
  183.6850  179.2820  142.2500 S   0  0  0  0  0  0  0  0  0  0  0  0
  189.7220  175.6320  137.5380 O   0  0  0  0  0  0  0  0  0  0  0  0
  185.6400  177.3840  137.0830 C   0  0  0  0  0  2  0  0  0  0  0  0
  186.2120  178.3130  142.2320 C   0  0  0  0  0  3  0  0  0  0  0  0
  187.6700  177.6830  143.9850 O   0  0  0  0  0  1  0  0  0  0  0  0
  182.8650  178.0280  141.1880 C   0  0  2  0  0  3  0  0  0  0  0  0
  189.3560  175.7940  138.8000 O   0  0  0  0  0  0  0  0  0  0  0  0
  188.4450  173.3180  135.0660 O   0  0  0  0  0  1  0  0  0  0  0  0
  189.2760  174.3160  135.5850 C   0  0  2  0  0  3  0  0  0  0  0  0
  190.6970  173.7840  135.7810 C   0  0  0  0  0  2  0  0  0  0  0  0
  191.6370  174.6090  135.1380 O   0  0  0  0  0  0  0  0  0  0  0  0
  193.4580  173.0160  135.2020 C   0  0  0  0  0  1  0  0  0  0  0  0
  192.9160  174.3560  135.6800 C   0  0  0  0  0  0  0  0  0  0  0  0
  192.7890  174.2950  137.1880 C   0  0  0  0  0  1  0  0  0  0  0  0
  193.8140  175.3670  135.3680 F   0  0  0  0  0  0  0  0  0  0  0  0
  187.9870  176.7860  135.2610 O   0  0  0  0  0  0  0  0  0  0  0  0
  189.0740  177.6660  135.2480 C   0  0  0  0  0  0  0  0  0  0  0  0
  189.2010  178.6690  136.2010 O   0  0  0  0  0  1  0  0  0  0  0  0
  189.9450  177.5580  134.3470 O   0  0  0  0  0  0  0  0  0  0  0  0
  1  3  1  0  0  0  0
  3 17  1  1  0  0  0
  3 13  1  0  0  0  0
  6  4  1  0  0  0  0
  6 15  1  0  0  0  0
  7 34  1  6  0  0  0
  7 16  1  0  0  0  0
  7 11  1  0  0  0  0
  8 23  1  1  0  0  0
 13 18  1  0  0  0  0
 13  9  1  1  0  0  0
 14 24  1  0  0  0  0
 15 12  2  0  0  0  0
 15 14  1  0  0  0  0
 16 20  1  0  0  0  0
 16 10  1  1  0  0  0
 18  8  1  0  0  0  0
 19  5  1  0  0  0  0
 20 25  1  0  0  0  0
 21 11  1  0  0  0  0
 21  4  1  0  0  0  0
 22  8  1  0  0  0  0
 22  5  2  0  0  0  0
 24  2  1  6  0  0  0
 24 19  1  0  0  0  0
 25  1  1  0  0  0  0
 27 26  1  1  0  0  0
 27 28  1  0  0  0  0
 27 16  1  0  0  0  0
 29 31  1  0  0  0  0
 29 28  1  0  0  0  0
 30 31  1  0  0  0  0
 31 32  1  0  0  0  0
 33 31  1  0  0  0  0
 35 34  1  0  0  0  0
 35 36  1  0  0  0  0
 37 35  2  0  0  0  0
M  END
>  <MODEL>
9

>  <REMARK>
 VINA RESULT:      -4.9      3.654      8.906
  Name = 
  6 active torsions:
  status: ('A' for Active; 'I' for Inactive)
    1  A    between atoms: C_4  and  O_22
    2  A    between atoms: C_10  and  O_22
    3  A    between atoms: O_16  and  C_21
    4  A    between atoms: O_16  and  C_30
    5  A    between atoms: C_20  and  C_24
    6  A    between atoms: C_24  and  C_30
                            x       y       z     vdW  Elec       q    Type
                         _______ _______ _______ _____ _____    ______ ____

>  <TORSDO>
F 6

$$$$
