=
 OpenBabel10272413413D

 30 34  0  0  1  0  0  0  0  0999 V2000
  191.1410  176.2930  137.2000 C   0  0  1  0  0  3  0  0  0  0  0  0
  193.5940  176.0440  136.9070 C   0  0  0  0  0  0  0  0  0  0  0  0
  190.1530  173.1480  135.6280 C   0  0  0  0  0  2  0  0  0  0  0  0
  189.8660  176.8430  136.4900 C   0  0  2  0  0  3  0  0  0  0  0  0
  190.9070  175.7330  138.5360 N   0  0  0  0  0  2  0  0  0  0  0  0
  188.3030  177.8110  139.9490 C   0  0  0  0  0  2  0  0  0  0  0  0
  187.4950  178.2390  135.3990 C   0  0  0  0  0  2  0  0  0  0  0  0
  188.9110  177.0420  138.8030 C   0  0  2  0  0  3  0  0  0  0  0  0
  190.0570  176.4700  140.7530 C   0  0  0  0  0  2  0  0  0  0  0  0
  187.2380  174.4790  135.8720 C   0  0  0  0  0  2  0  0  0  0  0  0
  189.4710  173.7540  136.8520 C   0  0  2  0  0  3  0  0  0  0  0  0
  190.2940  176.8050  139.3030 C   0  0  1  0  0  3  0  0  0  0  0  0
  188.9750  177.7220  137.4320 C   0  0  2  0  0  3  0  0  0  0  0  0
  194.7390  175.4290  136.4000 C   0  0  0  0  0  3  0  0  0  0  0  0
  186.2840  175.5020  135.9160 O   0  0  0  0  0  0  0  0  0  0  0  0
  186.2250  177.6360  134.8080 C   0  0  0  0  0  2  0  0  0  0  0  0
  189.3570  178.3530  141.9740 C   0  0  0  0  0  1  0  0  0  0  0  0
  193.7430  177.0440  137.8630 O   0  0  0  0  0  1  0  0  0  0  0  0
  190.9410  174.1850  134.8340 C   0  0  0  0  0  2  0  0  0  0  0  0
  194.6330  174.4160  135.4520 C   0  0  0  0  0  3  0  0  0  0  0  0
  188.8800  177.2420  141.1700 N   0  0  0  0  0  0  0  0  0  0  0  0
  192.3090  175.6540  136.4710 C   0  0  0  0  0  0  0  0  0  0  0  0
  189.1530  175.8920  135.7260 O   0  0  0  0  0  0  0  0  0  0  0  0
  188.8100  172.7620  137.5760 O   0  0  0  0  0  1  0  0  0  0  0  0
  188.5280  174.9350  136.5490 C   0  0  1  0  0  3  0  0  0  0  0  0
  186.3350  176.1200  134.6610 C   0  0  0  0  0  2  0  0  0  0  0  0
  186.9620  179.0390  137.5780 O   0  0  0  0  0  1  0  0  0  0  0  0
  193.3770  174.0230  134.9980 C   0  0  0  0  0  3  0  0  0  0  0  0
  192.2110  174.6210  135.4910 C   0  0  0  0  0  0  0  0  0  0  0  0
  187.5530  177.9740  136.8980 C   0  0  1  0  0  3  0  0  0  0  0  0
  1 22  1  6  0  0  0
  1  5  1  0  0  0  0
  2 18  1  0  0  0  0
  3 11  1  0  0  0  0
  4 23  1  1  0  0  0
  4  1  1  0  0  0  0
  4 13  1  0  0  0  0
  5 12  1  0  0  0  0
  6 21  1  0  0  0  0
  7 30  1  0  0  0  0
  8 12  1  0  0  0  0
  8  6  1  1  0  0  0
  9 21  1  0  0  0  0
 10 15  1  0  0  0  0
 10 25  1  0  0  0  0
 11 24  1  6  0  0  0
 12  9  1  1  0  0  0
 13  8  1  0  0  0  0
 14  2  2  0  0  0  0
 16  7  1  0  0  0  0
 19 29  1  0  0  0  0
 19  3  1  0  0  0  0
 20 14  1  0  0  0  0
 21 17  1  0  0  0  0
 22  2  1  0  0  0  0
 23 25  1  0  0  0  0
 25 11  1  0  0  0  0
 26 16  1  0  0  0  0
 26 15  1  0  0  0  0
 28 20  2  0  0  0  0
 28 29  1  0  0  0  0
 29 22  2  0  0  0  0
 30 13  1  0  0  0  0
 30 27  1  0  0  0  0
M  END
>  <MODEL>
1

>  <REMARK>
 VINA RESULT:      -6.9      0.000      0.000
  Name = 
  0 active torsions:
  status: ('A' for Active; 'I' for Inactive)
                            x       y       z     vdW  Elec       q    Type
                         _______ _______ _______ _____ _____    ______ ____

>  <TORSDO>
F 0

$$$$
=
 OpenBabel10272413413D

 30 34  0  0  1  0  0  0  0  0999 V2000
  184.0180  177.7270  140.2120 C   0  0  1  0  0  3  0  0  0  0  0  0
  184.6500  178.2130  142.5640 C   0  0  0  0  0  0  0  0  0  0  0  0
  180.9840  179.7560  140.1050 C   0  0  0  0  0  2  0  0  0  0  0  0
  183.1780  176.7430  139.3420 C   0  0  2  0  0  3  0  0  0  0  0  0
  184.7590  178.7410  139.4530 N   0  0  0  0  0  2  0  0  0  0  0  0
  185.7700  177.0450  136.4200 C   0  0  0  0  0  2  0  0  0  0  0  0
  181.9640  174.6720  137.6100 C   0  0  0  0  0  2  0  0  0  0  0  0
  184.7520  177.3620  137.4850 C   0  0  2  0  0  3  0  0  0  0  0  0
  186.5310  178.8530  137.7130 C   0  0  0  0  0  2  0  0  0  0  0  0
  180.6020  178.2050  137.3160 C   0  0  0  0  0  2  0  0  0  0  0  0
  181.9640  179.6060  138.9450 C   0  0  2  0  0  3  0  0  0  0  0  0
  185.6020  177.9960  138.5320 C   0  0  1  0  0  3  0  0  0  0  0  0
  183.9680  176.1990  138.1020 C   0  0  2  0  0  3  0  0  0  0  0  0
  184.4270  178.7360  143.8380 C   0  0  0  0  0  3  0  0  0  0  0  0
  180.7050  177.1550  136.3970 O   0  0  0  0  0  0  0  0  0  0  0  0
  180.7190  174.7740  136.7360 C   0  0  0  0  0  2  0  0  0  0  0  0
  188.0600  177.5510  136.4900 C   0  0  0  0  0  1  0  0  0  0  0  0
  185.9170  177.7290  142.2540 O   0  0  0  0  0  1  0  0  0  0  0  0
  181.1090  178.6210  141.1170 C   0  0  0  0  0  2  0  0  0  0  0  0
  183.1780  179.2420  144.1830 C   0  0  0  0  0  3  0  0  0  0  0  0
  186.7360  178.1470  136.4430 N   0  0  0  0  0  0  0  0  0  0  0  0
  183.6160  178.1840  141.6020 C   0  0  0  0  0  0  0  0  0  0  0  0
  181.8620  177.1740  139.0580 O   0  0  0  0  0  0  0  0  0  0  0  0
  181.8530  180.6910  138.0750 O   0  0  0  0  0  1  0  0  0  0  0  0
  181.8600  178.2740  138.1780 C   0  0  1  0  0  3  0  0  0  0  0  0
  179.9820  176.0940  136.9550 C   0  0  0  0  0  2  0  0  0  0  0  0
  183.8590  174.7610  136.1710 O   0  0  0  0  0  1  0  0  0  0  0  0
  182.1410  179.2150  143.2550 C   0  0  0  0  0  3  0  0  0  0  0  0
  182.3350  178.6970  141.9700 C   0  0  0  0  0  0  0  0  0  0  0  0
  183.0810  175.5330  137.0350 C   0  0  1  0  0  3  0  0  0  0  0  0
  1  5  1  6  0  0  0
  1 22  1  0  0  0  0
  2 14  1  0  0  0  0
  3 19  1  0  0  0  0
  4 23  1  6  0  0  0
  4  1  1  0  0  0  0
  6 21  1  0  0  0  0
  8  6  1  6  0  0  0
  8 13  1  0  0  0  0
  8 12  1  0  0  0  0
 10 25  1  0  0  0  0
 11 24  1  6  0  0  0
 11  3  1  0  0  0  0
 12  9  1  6  0  0  0
 12  5  1  0  0  0  0
 13  4  1  0  0  0  0
 14 20  2  0  0  0  0
 15 26  1  0  0  0  0
 15 10  1  0  0  0  0
 16 26  1  0  0  0  0
 16  7  1  0  0  0  0
 18  2  1  0  0  0  0
 19 29  1  0  0  0  0
 21 17  1  0  0  0  0
 21  9  1  0  0  0  0
 22 29  1  0  0  0  0
 22  2  2  0  0  0  0
 25 11  1  0  0  0  0
 25 23  1  0  0  0  0
 27 30  1  0  0  0  0
 28 20  1  0  0  0  0
 29 28  2  0  0  0  0
 30  7  1  0  0  0  0
 30 13  1  0  0  0  0
M  END
>  <MODEL>
2

>  <REMARK>
 VINA RESULT:      -6.2      5.213      8.846
  Name = 
  0 active torsions:
  status: ('A' for Active; 'I' for Inactive)
                            x       y       z     vdW  Elec       q    Type
                         _______ _______ _______ _____ _____    ______ ____

>  <TORSDO>
F 0

$$$$
=
 OpenBabel10272413413D

 30 34  0  0  1  0  0  0  0  0999 V2000
  190.2060  176.2230  138.8580 C   0  0  1  0  0  3  0  0  0  0  0  0
  190.1560  177.1820  141.1470 C   0  0  0  0  0  0  0  0  0  0  0  0
  187.6910  178.4130  137.3700 C   0  0  0  0  0  2  0  0  0  0  0  0
  189.5330  175.1370  137.9630 C   0  0  2  0  0  3  0  0  0  0  0  0
  191.2860  176.9720  138.2070 N   0  0  0  0  0  2  0  0  0  0  0  0
  192.9060  174.5500  136.0610 C   0  0  0  0  0  2  0  0  0  0  0  0
  188.6060  172.8300  136.3570 C   0  0  0  0  0  2  0  0  0  0  0  0
  191.6720  175.1840  136.6490 C   0  0  2  0  0  3  0  0  0  0  0  0
  193.5000  176.5380  137.1620 C   0  0  0  0  0  2  0  0  0  0  0  0
  187.9480  176.3000  134.9610 C   0  0  0  0  0  2  0  0  0  0  0  0
  188.9440  177.9220  136.6490 C   0  0  2  0  0  3  0  0  0  0  0  0
  192.2480  175.9690  137.7760 C   0  0  1  0  0  3  0  0  0  0  0  0
  190.5710  174.2610  137.1820 C   0  0  2  0  0  3  0  0  0  0  0  0
  189.6380  178.0000  142.1520 C   0  0  0  0  0  3  0  0  0  0  0  0
  188.1660  175.0620  134.3460 O   0  0  0  0  0  0  0  0  0  0  0  0
  187.7170  172.8290  135.1190 C   0  0  0  0  0  2  0  0  0  0  0  0
  195.1150  174.8710  136.7850 C   0  0  0  0  0  1  0  0  0  0  0  0
  191.3690  176.5390  141.3720 O   0  0  0  0  0  1  0  0  0  0  0  0
  187.3290  177.5340  138.5630 C   0  0  0  0  0  2  0  0  0  0  0  0
  188.4340  178.6710  141.9620 C   0  0  0  0  0  3  0  0  0  0  0  0
  193.9740  175.5450  136.1910 N   0  0  0  0  0  0  0  0  0  0  0  0
  189.4730  177.0180  139.9230 C   0  0  0  0  0  0  0  0  0  0  0  0
  188.4470  175.5970  137.1840 O   0  0  0  0  0  0  0  0  0  0  0  0
  189.2680  178.7840  135.6020 O   0  0  0  0  0  1  0  0  0  0  0  0
  188.8790  176.4620  136.1600 C   0  0  1  0  0  3  0  0  0  0  0  0
  187.1570  174.2200  134.8250 C   0  0  0  0  0  2  0  0  0  0  0  0
  190.8410  172.4330  135.6350 O   0  0  0  0  0  1  0  0  0  0  0  0
  187.7370  178.5160  140.7670 C   0  0  0  0  0  3  0  0  0  0  0  0
  188.2330  177.7030  139.7420 C   0  0  0  0  0  0  0  0  0  0  0  0
  189.9620  173.4430  136.0290 C   0  0  1  0  0  3  0  0  0  0  0  0
  1  5  1  6  0  0  0
  1 22  1  0  0  0  0
  2 18  1  0  0  0  0
  2 14  1  0  0  0  0
  3 19  1  0  0  0  0
  4 23  1  6  0  0  0
  4  1  1  0  0  0  0
  6 21  1  0  0  0  0
  8  6  1  1  0  0  0
  8 13  1  0  0  0  0
  8 12  1  0  0  0  0
 10 25  1  0  0  0  0
 11 24  1  6  0  0  0
 11  3  1  0  0  0  0
 12  9  1  6  0  0  0
 12  5  1  0  0  0  0
 13  4  1  0  0  0  0
 15 26  1  0  0  0  0
 15 10  1  0  0  0  0
 16  7  1  0  0  0  0
 19 29  1  0  0  0  0
 20 14  2  0  0  0  0
 21 17  1  0  0  0  0
 21  9  1  0  0  0  0
 22  2  2  0  0  0  0
 25 11  1  0  0  0  0
 25 23  1  0  0  0  0
 26 16  1  0  0  0  0
 27 30  1  0  0  0  0
 28 20  1  0  0  0  0
 29 22  1  0  0  0  0
 29 28  2  0  0  0  0
 30  7  1  0  0  0  0
 30 13  1  0  0  0  0
M  END
>  <MODEL>
3

>  <REMARK>
 VINA RESULT:      -5.4      1.765      5.506
  Name = 
  0 active torsions:
  status: ('A' for Active; 'I' for Inactive)
                            x       y       z     vdW  Elec       q    Type
                         _______ _______ _______ _____ _____    ______ ____

>  <TORSDO>
F 0

$$$$
=
 OpenBabel10272413413D

 30 34  0  0  1  0  0  0  0  0999 V2000
  183.3560  177.1950  139.3190 C   0  0  1  0  0  3  0  0  0  0  0  0
  183.2140  178.1600  141.6030 C   0  0  0  0  0  0  0  0  0  0  0  0
  180.1940  178.5130  138.0500 C   0  0  0  0  0  2  0  0  0  0  0  0
  182.9600  175.9360  138.4880 C   0  0  2  0  0  3  0  0  0  0  0  0
  184.1110  178.2100  138.5760 N   0  0  0  0  0  2  0  0  0  0  0  0
  186.1890  176.3110  136.3020 C   0  0  0  0  0  2  0  0  0  0  0  0
  182.6240  173.4160  136.9720 C   0  0  0  0  0  2  0  0  0  0  0  0
  184.8750  176.5720  136.9930 C   0  0  2  0  0  3  0  0  0  0  0  0
  186.2610  178.4150  137.3440 C   0  0  0  0  0  2  0  0  0  0  0  0
  180.8620  176.5040  135.6320 C   0  0  0  0  0  2  0  0  0  0  0  0
  181.4730  178.3910  137.2250 C   0  0  2  0  0  3  0  0  0  0  0  0
  185.2860  177.5220  138.0650 C   0  0  1  0  0  3  0  0  0  0  0  0
  184.1420  175.3820  137.6210 C   0  0  2  0  0  3  0  0  0  0  0  0
  182.5630  178.8170  142.6470 C   0  0  0  0  0  3  0  0  0  0  0  0
  181.3840  175.3670  135.0020 O   0  0  0  0  0  0  0  0  0  0  0  0
  181.6760  173.1230  135.8150 C   0  0  0  0  0  2  0  0  0  0  0  0
  188.2570  177.2830  136.8320 C   0  0  0  0  0  1  0  0  0  0  0  0
  184.5770  177.9060  141.7230 O   0  0  0  0  0  1  0  0  0  0  0  0
  180.2070  177.5990  139.2720 C   0  0  0  0  0  2  0  0  0  0  0  0
  181.2040  179.1010  142.5600 C   0  0  0  0  0  3  0  0  0  0  0  0
  186.9240  177.5780  136.3370 N   0  0  0  0  0  0  0  0  0  0  0  0
  182.5110  177.7700  140.4420 C   0  0  0  0  0  0  0  0  0  0  0  0
  181.7270  176.0370  137.8050 O   0  0  0  0  0  0  0  0  0  0  0  0
  181.4420  179.2810  136.1520 O   0  0  0  0  0  1  0  0  0  0  0  0
  181.8000  176.9630  136.7460 C   0  0  1  0  0  3  0  0  0  0  0  0
  180.7090  174.2800  135.5690 C   0  0  0  0  0  2  0  0  0  0  0  0
  184.8090  173.6710  136.0600 O   0  0  0  0  0  1  0  0  0  0  0  0
  180.4870  178.7160  141.4310 C   0  0  0  0  0  3  0  0  0  0  0  0
  181.1150  178.0570  140.3680 C   0  0  0  0  0  0  0  0  0  0  0  0
  183.7080  174.3900  136.5270 C   0  0  1  0  0  3  0  0  0  0  0  0
  1  5  1  6  0  0  0
  1 22  1  0  0  0  0
  2 18  1  0  0  0  0
  2 14  1  0  0  0  0
  3 19  1  0  0  0  0
  4 23  1  6  0  0  0
  4  1  1  0  0  0  0
  6 21  1  0  0  0  0
  8  6  1  1  0  0  0
  8 13  1  0  0  0  0
  8 12  1  0  0  0  0
 10 25  1  0  0  0  0
 11 24  1  6  0  0  0
 11  3  1  0  0  0  0
 12  9  1  6  0  0  0
 12  5  1  0  0  0  0
 13  4  1  0  0  0  0
 15 26  1  0  0  0  0
 15 10  1  0  0  0  0
 16  7  1  0  0  0  0
 19 29  1  0  0  0  0
 20 14  2  0  0  0  0
 21 17  1  0  0  0  0
 21  9  1  0  0  0  0
 22  2  2  0  0  0  0
 25 11  1  0  0  0  0
 25 23  1  0  0  0  0
 26 16  1  0  0  0  0
 27 30  1  0  0  0  0
 28 20  1  0  0  0  0
 29 22  1  0  0  0  0
 29 28  2  0  0  0  0
 30  7  1  0  0  0  0
 30 13  1  0  0  0  0
M  END
>  <MODEL>
4

>  <REMARK>
 VINA RESULT:      -5.2      5.230      8.901
  Name = 
  0 active torsions:
  status: ('A' for Active; 'I' for Inactive)
                            x       y       z     vdW  Elec       q    Type
                         _______ _______ _______ _____ _____    ______ ____

>  <TORSDO>
F 0

$$$$
=
 OpenBabel10272413413D

 30 34  0  0  1  0  0  0  0  0999 V2000
  183.3560  176.3550  138.5480 C   0  0  1  0  0  3  0  0  0  0  0  0
  182.7660  177.8240  140.4610 C   0  0  0  0  0  0  0  0  0  0  0  0
  180.1110  176.4270  136.8740 C   0  0  0  0  0  2  0  0  0  0  0  0
  183.3570  174.8620  138.0960 C   0  0  2  0  0  3  0  0  0  0  0  0
  183.9150  177.2940  137.5690 N   0  0  0  0  0  2  0  0  0  0  0  0
  186.6000  175.4570  135.9810 C   0  0  0  0  0  2  0  0  0  0  0  0
  183.7830  172.0310  137.3460 C   0  0  0  0  0  2  0  0  0  0  0  0
  185.2000  175.5470  136.5340 C   0  0  2  0  0  3  0  0  0  0  0  0
  186.0630  177.7090  136.3870 C   0  0  0  0  0  2  0  0  0  0  0  0
  181.4730  174.0880  135.1420 C   0  0  0  0  0  2  0  0  0  0  0  0
  181.4560  176.4230  136.1520 C   0  0  2  0  0  3  0  0  0  0  0  0
  185.2650  176.8200  137.3050 C   0  0  1  0  0  3  0  0  0  0  0  0
  184.7160  174.4200  137.4540 C   0  0  2  0  0  3  0  0  0  0  0  0
  181.8780  178.5450  141.2590 C   0  0  0  0  0  3  0  0  0  0  0  0
  182.3100  172.9990  134.8730 O   0  0  0  0  0  0  0  0  0  0  0  0
  183.0500  171.2060  136.2940 C   0  0  0  0  0  2  0  0  0  0  0  0
  188.3130  177.0340  136.2690 C   0  0  0  0  0  1  0  0  0  0  0  0
  184.1310  177.9700  140.6850 O   0  0  0  0  0  1  0  0  0  0  0  0
  180.2220  175.9080  138.3040 C   0  0  0  0  0  2  0  0  0  0  0  0
  180.5050  178.4360  141.0590 C   0  0  0  0  0  3  0  0  0  0  0  0
  187.0020  176.8330  135.6760 N   0  0  0  0  0  0  0  0  0  0  0  0
  182.2940  176.9710  139.4390 C   0  0  0  0  0  0  0  0  0  0  0  0
  182.2080  174.4570  137.3800 O   0  0  0  0  0  0  0  0  0  0  0  0
  181.3180  176.9560  134.8700 O   0  0  0  0  0  1  0  0  0  0  0  0
  182.1600  175.0530  136.1040 C   0  0  1  0  0  3  0  0  0  0  0  0
  181.8640  171.9660  135.7060 C   0  0  0  0  0  2  0  0  0  0  0  0
  185.9220  172.5870  136.4580 O   0  0  0  0  0  1  0  0  0  0  0  0
  180.0150  177.5940  140.0660 C   0  0  0  0  0  3  0  0  0  0  0  0
  180.8830  176.8590  139.2500 C   0  0  0  0  0  0  0  0  0  0  0  0
  184.6410  173.0960  136.6730 C   0  0  1  0  0  3  0  0  0  0  0  0
  1  5  1  6  0  0  0
  1 22  1  0  0  0  0
  2 18  1  0  0  0  0
  2 14  1  0  0  0  0
  3 19  1  0  0  0  0
  4 23  1  6  0  0  0
  4  1  1  0  0  0  0
  8  6  1  1  0  0  0
  8 12  1  0  0  0  0
  8 13  1  0  0  0  0
 10 25  1  0  0  0  0
 11 24  1  6  0  0  0
 11  3  1  0  0  0  0
 12  9  1  6  0  0  0
 12  5  1  0  0  0  0
 13  4  1  0  0  0  0
 15 10  1  0  0  0  0
 15 26  1  0  0  0  0
 16  7  1  0  0  0  0
 19 29  1  0  0  0  0
 20 14  2  0  0  0  0
 21  6  1  0  0  0  0
 21 17  1  0  0  0  0
 21  9  1  0  0  0  0
 22  2  2  0  0  0  0
 25 11  1  0  0  0  0
 25 23  1  0  0  0  0
 26 16  1  0  0  0  0
 27 30  1  0  0  0  0
 28 20  1  0  0  0  0
 29 22  1  0  0  0  0
 29 28  2  0  0  0  0
 30  7  1  0  0  0  0
 30 13  1  0  0  0  0
M  END
>  <MODEL>
5

>  <REMARK>
 VINA RESULT:      -5.1      5.096      8.755
  Name = 
  0 active torsions:
  status: ('A' for Active; 'I' for Inactive)
                            x       y       z     vdW  Elec       q    Type
                         _______ _______ _______ _____ _____    ______ ____

>  <TORSDO>
F 0

$$$$
=
 OpenBabel10272413413D

 30 34  0  0  1  0  0  0  0  0999 V2000
  190.4120  175.5030  136.4220 C   0  0  1  0  0  3  0  0  0  0  0  0
  192.7290  174.7570  135.9350 C   0  0  0  0  0  0  0  0  0  0  0  0
  188.7010  172.4460  135.3900 C   0  0  0  0  0  2  0  0  0  0  0  0
  189.1800  176.2020  135.7670 C   0  0  2  0  0  3  0  0  0  0  0  0
  190.2410  175.1560  137.8370 N   0  0  0  0  0  2  0  0  0  0  0  0
  188.2340  177.8440  139.1960 C   0  0  0  0  0  2  0  0  0  0  0  0
  186.9830  177.8900  134.7270 C   0  0  0  0  0  2  0  0  0  0  0  0
  188.5550  176.8450  138.1130 C   0  0  2  0  0  3  0  0  0  0  0  0
  189.8030  176.2930  140.0040 C   0  0  0  0  0  2  0  0  0  0  0  0
  186.1190  174.3290  135.7270 C   0  0  0  0  0  2  0  0  0  0  0  0
  188.2870  173.3080  136.5800 C   0  0  2  0  0  3  0  0  0  0  0  0
  189.9240  176.4070  138.5070 C   0  0  1  0  0  3  0  0  0  0  0  0
  188.5770  177.3380  136.6620 C   0  0  2  0  0  3  0  0  0  0  0  0
  193.6780  173.8800  135.4090 C   0  0  0  0  0  3  0  0  0  0  0  0
  185.3750  175.5150  135.7220 O   0  0  0  0  0  0  0  0  0  0  0  0
  185.5660  177.4780  134.3460 C   0  0  0  0  0  2  0  0  0  0  0  0
  189.5990  178.4040  141.0200 C   0  0  0  0  0  1  0  0  0  0  0  0
  193.1660  175.8130  136.7280 O   0  0  0  0  0  1  0  0  0  0  0  0
  189.5620  173.2140  134.3920 C   0  0  0  0  0  2  0  0  0  0  0  0
  193.2820  172.8040  134.6210 C   0  0  0  0  0  3  0  0  0  0  0  0
  188.8410  177.3190  140.4220 N   0  0  0  0  0  0  0  0  0  0  0  0
  191.3530  174.5730  135.6790 C   0  0  0  0  0  0  0  0  0  0  0  0
  188.2240  175.3230  135.2100 O   0  0  0  0  0  0  0  0  0  0  0  0
  187.5500  172.5520  137.4910 O   0  0  0  0  0  1  0  0  0  0  0  0
  187.5400  174.6040  136.2100 C   0  0  1  0  0  3  0  0  0  0  0  0
  185.3860  175.9620  134.3960 C   0  0  0  0  0  2  0  0  0  0  0  0
  186.8620  179.0240  136.8180 O   0  0  0  0  0  1  0  0  0  0  0  0
  191.9320  172.6080  134.3460 C   0  0  0  0  0  3  0  0  0  0  0  0
  190.9580  173.4710  134.8610 C   0  0  0  0  0  0  0  0  0  0  0  0
  187.1700  177.7930  136.2360 C   0  0  1  0  0  3  0  0  0  0  0  0
  1 22  1  6  0  0  0
  1  5  1  0  0  0  0
  2 18  1  0  0  0  0
  3 11  1  0  0  0  0
  4 23  1  1  0  0  0
  4  1  1  0  0  0  0
  4 13  1  0  0  0  0
  5 12  1  0  0  0  0
  6 21  1  0  0  0  0
  7 30  1  0  0  0  0
  8 12  1  0  0  0  0
  8  6  1  1  0  0  0
  9 21  1  0  0  0  0
 10 25  1  0  0  0  0
 11 24  1  1  0  0  0
 12  9  1  1  0  0  0
 13  8  1  0  0  0  0
 14  2  2  0  0  0  0
 15 10  1  0  0  0  0
 16 26  1  0  0  0  0
 16  7  1  0  0  0  0
 19 29  1  0  0  0  0
 19  3  1  0  0  0  0
 20 14  1  0  0  0  0
 21 17  1  0  0  0  0
 22  2  1  0  0  0  0
 23 25  1  0  0  0  0
 25 11  1  0  0  0  0
 26 15  1  0  0  0  0
 28 20  2  0  0  0  0
 28 29  1  0  0  0  0
 29 22  2  0  0  0  0
 30 13  1  0  0  0  0
 30 27  1  0  0  0  0
M  END
>  <MODEL>
6

>  <REMARK>
 VINA RESULT:      -4.8      1.103      1.339
  Name = 
  0 active torsions:
  status: ('A' for Active; 'I' for Inactive)
                            x       y       z     vdW  Elec       q    Type
                         _______ _______ _______ _____ _____    ______ ____

>  <TORSDO>
F 0

$$$$
=
 OpenBabel10272413413D

 30 34  0  0  1  0  0  0  0  0999 V2000
  184.3280  178.8590  139.6550 C   0  0  1  0  0  3  0  0  0  0  0  0
  186.7160  178.7850  140.3330 C   0  0  0  0  0  0  0  0  0  0  0  0
  184.4620  176.2070  137.1480 C   0  0  0  0  0  2  0  0  0  0  0  0
  183.3580  179.5310  138.6350 C   0  0  2  0  0  3  0  0  0  0  0  0
  183.6820  177.9590  140.6160 N   0  0  0  0  0  2  0  0  0  0  0  0
  180.4740  179.4950  141.2860 C   0  0  0  0  0  2  0  0  0  0  0  0
  181.4140  181.0790  137.0270 C   0  0  0  0  0  2  0  0  0  0  0  0
  181.5740  179.0780  140.3430 C   0  0  2  0  0  3  0  0  0  0  0  0
  181.9560  178.0530  142.4030 C   0  0  0  0  0  2  0  0  0  0  0  0
  181.5210  177.3210  136.4870 C   0  0  0  0  0  2  0  0  0  0  0  0
  183.2880  176.4440  138.0940 C   0  0  2  0  0  3  0  0  0  0  0  0
  182.6800  178.7680  141.2920 C   0  0  1  0  0  3  0  0  0  0  0  0
  182.0620  180.0980  139.3090 C   0  0  2  0  0  3  0  0  0  0  0  0
  188.0410  178.3680  140.2070 C   0  0  0  0  0  3  0  0  0  0  0  0
  180.4910  178.2610  136.3730 O   0  0  0  0  0  0  0  0  0  0  0  0
  180.5640  180.6080  135.8530 C   0  0  0  0  0  2  0  0  0  0  0  0
  180.5880  179.5210  143.6300 C   0  0  0  0  0  1  0  0  0  0  0  0
  186.3480  179.5020  141.4670 O   0  0  0  0  0  1  0  0  0  0  0  0
  185.3420  177.4450  137.0000 C   0  0  0  0  0  2  0  0  0  0  0  0
  188.4470  177.6380  139.0940 C   0  0  0  0  0  3  0  0  0  0  0  0
  180.6150  178.6450  142.4720 N   0  0  0  0  0  0  0  0  0  0  0  0
  185.7620  178.4780  139.3370 C   0  0  0  0  0  0  0  0  0  0  0  0
  183.1310  178.7900  137.4540 O   0  0  0  0  0  0  0  0  0  0  0  0
  182.5440  175.2730  138.2420 O   0  0  0  0  0  1  0  0  0  0  0  0
  182.3780  177.6280  137.7120 C   0  0  1  0  0  3  0  0  0  0  0  0
  180.9310  179.1890  135.4220 C   0  0  0  0  0  2  0  0  0  0  0  0
  179.9840  181.2560  138.9220 O   0  0  0  0  0  1  0  0  0  0  0  0
  187.5270  177.3330  138.0940 C   0  0  0  0  0  3  0  0  0  0  0  0
  186.1910  177.7370  138.1940 C   0  0  0  0  0  0  0  0  0  0  0  0
  180.9320  180.4300  138.3180 C   0  0  1  0  0  3  0  0  0  0  0  0
  1 22  1  6  0  0  0
  1  5  1  0  0  0  0
  2 18  1  0  0  0  0
  3 11  1  0  0  0  0
  4 23  1  6  0  0  0
  4 13  1  0  0  0  0
  4  1  1  0  0  0  0
  5 12  1  0  0  0  0
  6 21  1  0  0  0  0
  7 30  1  0  0  0  0
  8  6  1  1  0  0  0
  8 12  1  0  0  0  0
  9 21  1  0  0  0  0
 10 25  1  0  0  0  0
 11 24  1  6  0  0  0
 12  9  1  1  0  0  0
 13  8  1  0  0  0  0
 14  2  1  0  0  0  0
 15 10  1  0  0  0  0
 16  7  1  0  0  0  0
 19  3  1  0  0  0  0
 19 29  1  0  0  0  0
 20 14  2  0  0  0  0
 21 17  1  0  0  0  0
 22  2  2  0  0  0  0
 23 25  1  0  0  0  0
 25 11  1  0  0  0  0
 26 16  1  0  0  0  0
 26 15  1  0  0  0  0
 28 29  2  0  0  0  0
 28 20  1  0  0  0  0
 29 22  1  0  0  0  0
 30 27  1  0  0  0  0
 30 13  1  0  0  0  0
M  END
>  <MODEL>
7

>  <REMARK>
 VINA RESULT:      -4.6      5.351      7.486
  Name = 
  0 active torsions:
  status: ('A' for Active; 'I' for Inactive)
                            x       y       z     vdW  Elec       q    Type
                         _______ _______ _______ _____ _____    ______ ____

>  <TORSDO>
F 0

$$$$
=
 OpenBabel10272413413D

 30 34  0  0  1  0  0  0  0  0999 V2000
  182.3540  176.2340  138.0970 C   0  0  1  0  0  3  0  0  0  0  0  0
  180.8130  174.2870  138.1400 C   0  0  0  0  0  0  0  0  0  0  0  0
  184.3190  175.2210  135.1900 C   0  0  0  0  0  2  0  0  0  0  0  0
  183.7330  176.7250  138.6360 C   0  0  2  0  0  3  0  0  0  0  0  0
  181.6210  177.2190  137.2950 N   0  0  0  0  0  2  0  0  0  0  0  0
  182.3950  180.4010  138.8380 C   0  0  0  0  0  2  0  0  0  0  0  0
  186.1180  177.8700  139.9640 C   0  0  0  0  0  2  0  0  0  0  0  0
  182.7970  179.0360  138.3400 C   0  0  2  0  0  3  0  0  0  0  0  0
  180.6490  179.4940  137.5530 C   0  0  0  0  0  2  0  0  0  0  0  0
  186.1680  177.6590  136.1720 C   0  0  0  0  0  2  0  0  0  0  0  0
  183.9250  176.6610  135.5070 C   0  0  2  0  0  3  0  0  0  0  0  0
  181.4700  178.3830  138.1550 C   0  0  1  0  0  3  0  0  0  0  0  0
  183.6700  178.1650  139.2500 C   0  0  2  0  0  3  0  0  0  0  0  0
  180.3780  173.0240  137.7360 C   0  0  0  0  0  3  0  0  0  0  0  0
  186.7670  178.5450  137.0750 O   0  0  0  0  0  0  0  0  0  0  0  0
  187.4690  178.2200  139.3530 C   0  0  0  0  0  2  0  0  0  0  0  0
  180.2030  181.1880  139.1210 C   0  0  0  0  0  1  0  0  0  0  0  0
  179.9900  175.0410  138.9700 O   0  0  0  0  0  1  0  0  0  0  0  0
  184.2530  174.3210  136.4200 C   0  0  0  0  0  2  0  0  0  0  0  0
  181.1670  172.2440  136.8960 C   0  0  0  0  0  3  0  0  0  0  0  0
  181.1610  180.7440  138.1240 N   0  0  0  0  0  0  0  0  0  0  0  0
  182.0580  174.7960  137.7100 C   0  0  0  0  0  0  0  0  0  0  0  0
  184.8250  176.5030  137.7670 O   0  0  0  0  0  0  0  0  0  0  0  0
  183.9450  177.4340  134.3460 O   0  0  0  0  0  1  0  0  0  0  0  0
  184.7490  177.3260  136.6260 C   0  0  1  0  0  3  0  0  0  0  0  0
  187.5720  177.7520  137.9020 C   0  0  0  0  0  2  0  0  0  0  0  0
  184.9420  179.9090  140.3210 O   0  0  0  0  0  1  0  0  0  0  0  0
  182.4020  172.7210  136.4680 C   0  0  0  0  0  3  0  0  0  0  0  0
  182.8640  173.9830  136.8560 C   0  0  0  0  0  0  0  0  0  0  0  0
  185.0460  178.8230  139.4510 C   0  0  1  0  0  3  0  0  0  0  0  0
  1  5  1  6  0  0  0
  1  4  1  0  0  0  0
  2 18  1  0  0  0  0
  3 11  1  0  0  0  0
  3 19  1  0  0  0  0
  4 23  1  6  0  0  0
  4 13  1  0  0  0  0
  5 12  1  0  0  0  0
  8  6  1  1  0  0  0
  8 13  1  0  0  0  0
  9 21  1  0  0  0  0
 10 25  1  0  0  0  0
 10 15  1  0  0  0  0
 11 24  1  6  0  0  0
 11 25  1  0  0  0  0
 12  9  1  6  0  0  0
 12  8  1  0  0  0  0
 13 30  1  0  0  0  0
 14  2  1  0  0  0  0
 15 26  1  0  0  0  0
 16  7  1  0  0  0  0
 19 29  1  0  0  0  0
 20 14  2  0  0  0  0
 21  6  1  0  0  0  0
 21 17  1  0  0  0  0
 22  1  1  0  0  0  0
 22  2  2  0  0  0  0
 25 23  1  0  0  0  0
 26 16  1  0  0  0  0
 28 29  2  0  0  0  0
 28 20  1  0  0  0  0
 29 22  1  0  0  0  0
 30  7  1  0  0  0  0
 30 27  1  0  0  0  0
M  END
>  <MODEL>
8

>  <REMARK>
 VINA RESULT:      -4.6      5.060      8.400
  Name = 
  0 active torsions:
  status: ('A' for Active; 'I' for Inactive)
                            x       y       z     vdW  Elec       q    Type
                         _______ _______ _______ _____ _____    ______ ____

>  <TORSDO>
F 0

$$$$
=
 OpenBabel10272413413D

 30 34  0  0  1  0  0  0  0  0999 V2000
  191.0670  174.3970  136.4800 C   0  0  1  0  0  3  0  0  0  0  0  0
  191.3210  172.2210  135.3110 C   0  0  0  0  0  0  0  0  0  0  0  0
  194.5990  174.9470  137.2320 C   0  0  0  0  0  2  0  0  0  0  0  0
  190.8520  175.0170  137.8950 C   0  0  2  0  0  3  0  0  0  0  0  0
  191.1190  175.3710  135.3840 N   0  0  0  0  0  2  0  0  0  0  0  0
  188.7610  177.9440  136.3450 C   0  0  0  0  0  2  0  0  0  0  0  0
  190.0220  176.2250  140.4670 C   0  0  0  0  0  2  0  0  0  0  0  0
  189.8690  176.9740  136.6660 C   0  0  2  0  0  3  0  0  0  0  0  0
  189.6640  177.1010  134.3460 C   0  0  0  0  0  2  0  0  0  0  0  0
  193.3690  177.3080  139.0330 C   0  0  0  0  0  2  0  0  0  0  0  0
  193.6170  176.0480  136.8370 C   0  0  2  0  0  3  0  0  0  0  0  0
  189.8640  176.1030  135.4570 C   0  0  1  0  0  3  0  0  0  0  0  0
  189.7240  176.1040  137.9200 C   0  0  2  0  0  3  0  0  0  0  0  0
  192.0370  171.0990  134.8950 C   0  0  0  0  0  3  0  0  0  0  0  0
  192.4310  177.9640  139.8380 O   0  0  0  0  0  0  0  0  0  0  0  0
  190.8400  177.0920  141.4170 C   0  0  0  0  0  2  0  0  0  0  0  0
  187.4930  178.0030  134.3720 C   0  0  0  0  0  1  0  0  0  0  0  0
  190.0400  172.4190  134.8050 O   0  0  0  0  0  1  0  0  0  0  0  0
  193.8890  173.7050  137.7600 C   0  0  0  0  0  2  0  0  0  0  0  0
  193.3260  170.8710  135.3680 C   0  0  0  0  0  3  0  0  0  0  0  0
  188.8350  178.1770  134.9000 N   0  0  0  0  0  0  0  0  0  0  0  0
  191.8850  173.1460  136.2170 C   0  0  0  0  0  0  0  0  0  0  0  0
  192.0380  175.3840  138.5700 O   0  0  0  0  0  0  0  0  0  0  0  0
  194.3050  177.1420  136.3090 O   0  0  0  0  0  1  0  0  0  0  0  0
  192.6570  176.4920  137.9580 C   0  0  1  0  0  3  0  0  0  0  0  0
  192.3030  177.1760  140.9880 C   0  0  0  0  0  2  0  0  0  0  0  0
  188.5120  177.6560  139.3090 O   0  0  0  0  0  1  0  0  0  0  0  0
  193.8990  171.7630  136.2710 C   0  0  0  0  0  3  0  0  0  0  0  0
  193.2040  172.8980  136.7040 C   0  0  0  0  0  0  0  0  0  0  0  0
  189.7300  176.9870  139.1800 C   0  0  1  0  0  3  0  0  0  0  0  0
  1  5  1  6  0  0  0
  1  4  1  0  0  0  0
  2 22  1  0  0  0  0
  3 19  1  0  0  0  0
  4 13  1  0  0  0  0
  4 23  1  6  0  0  0
  5 12  1  0  0  0  0
  7 16  1  0  0  0  0
  8  6  1  6  0  0  0
  8 13  1  0  0  0  0
  9 21  1  0  0  0  0
 10 15  1  0  0  0  0
 11 24  1  1  0  0  0
 11  3  1  0  0  0  0
 11 25  1  0  0  0  0
 12  9  1  6  0  0  0
 12  8  1  0  0  0  0
 13 30  1  0  0  0  0
 14  2  2  0  0  0  0
 14 20  1  0  0  0  0
 15 26  1  0  0  0  0
 17 21  1  0  0  0  0
 18  2  1  0  0  0  0
 20 28  2  0  0  0  0
 21  6  1  0  0  0  0
 22  1  1  0  0  0  0
 22 29  2  0  0  0  0
 25 23  1  0  0  0  0
 25 10  1  0  0  0  0
 26 16  1  0  0  0  0
 28 29  1  0  0  0  0
 29 19  1  0  0  0  0
 30 27  1  0  0  0  0
 30  7  1  0  0  0  0
M  END
>  <MODEL>
9

>  <REMARK>
 VINA RESULT:      -4.6      2.322      5.149
  Name = 
  0 active torsions:
  status: ('A' for Active; 'I' for Inactive)
                            x       y       z     vdW  Elec       q    Type
                         _______ _______ _______ _____ _____    ______ ____

>  <TORSDO>
F 0

$$$$
