=
 OpenBabel10272401163D

 55 60  0  0  1  0  0  0  0  0999 V2000
  182.6060  176.6980  138.7020 N   0  0  0  0  0  0  0  0  0  0  0  0
  187.3030  177.1630  138.0080 C   0  0  0  0  0  2  0  0  0  0  0  0
  188.1740  178.9440  140.3070 O   0  0  0  0  0  1  0  0  0  0  0  0
  185.0890  178.2330  143.9670 C   0  0  0  0  0  3  0  0  0  0  0  0
  184.6270  178.5910  145.2380 C   0  0  0  0  0  3  0  0  0  0  0  0
  182.9490  178.8830  143.0090 C   0  0  0  0  0  0  0  0  0  0  0  0
  182.4950  179.2240  144.2900 C   0  0  0  0  0  3  0  0  0  0  0  0
  185.9260  178.9600  141.0750 C   0  0  0  0  0  2  0  0  0  0  0  0
  183.3320  179.0850  145.3990 C   0  0  0  0  0  3  0  0  0  0  0  0
  181.6040  175.7690  136.7150 C   0  0  0  0  0  2  0  0  0  0  0  0
  184.2620  178.3700  142.8440 C   0  0  0  0  0  0  0  0  0  0  0  0
  184.4970  175.4530  136.1670 C   0  0  1  0  0  3  0  0  0  0  0  0
  183.6530  176.9000  139.6540 C   0  0  0  0  0  3  0  0  0  0  0  0
  183.9050  175.0050  137.5010 C   0  0  0  0  0  2  0  0  0  0  0  0
  182.7340  179.1080  140.5250 C   0  0  1  0  0  3  0  0  0  0  0  0
  187.0100  177.2390  136.6430 O   0  0  0  0  0  0  0  0  0  0  0  0
  181.9870  178.9860  141.8530 C   0  0  0  0  0  2  0  0  0  0  0  0
  186.5210  178.2270  138.7580 C   0  0  0  0  0  2  0  0  0  0  0  0
  186.9640  178.2600  140.2110 C   0  0  1  0  0  3  0  0  0  0  0  0
  182.2150  176.1840  135.3760 C   0  0  0  0  0  2  0  0  0  0  0  0
  187.6620  176.1420  136.0740 C   0  0  1  0  0  3  0  0  0  0  0  0
  182.6680  175.8110  137.7590 C   0  0  0  0  0  0  0  0  0  0  0  0
  184.8150  177.9960  141.4840 C   0  0  1  0  0  3  0  0  0  0  0  0
  183.7330  177.9730  140.4470 C   0  0  0  0  0  0  0  0  0  0  0  0
  186.7480  175.4260  135.0930 C   0  0  0  0  0  2  0  0  0  0  0  0
  185.7100  174.6010  135.8380 C   0  0  0  0  0  2  0  0  0  0  0  0
  183.4530  175.3410  135.0490 C   0  0  0  0  0  2  0  0  0  0  0  0
  181.0410  180.6310  139.4090 C   0  0  0  0  0  2  0  0  0  0  0  0
  180.9270  180.8570  137.0410 C   0  0  2  0  0  3  0  0  0  0  0  0
  182.6350  179.3320  138.0240 C   0  0  0  0  0  2  0  0  0  0  0  0
  181.7200  179.5640  136.8290 C   0  0  0  0  0  2  0  0  0  0  0  0
  180.1330  180.7590  138.2670 N   0  0  0  0  0  2  0  0  0  0  0  0
  181.8150  179.3170  139.3140 C   0  0  1  0  0  3  0  0  0  0  0  0
  180.0040  181.0830  135.8550 C   0  0  0  0  0  3  0  0  0  0  0  0
  180.8350  181.3660  134.6180 C   0  0  0  0  0  2  0  0  0  0  0  0
  180.1540  182.5030  135.3470 C   0  0  0  0  0  2  0  0  0  0  0  0
  188.9180  176.5990  135.3470 C   0  0  0  0  0  2  0  0  0  0  0  0
  190.6510  176.2890  137.5890 O   0  0  0  0  0  0  0  0  0  0  0  0
  190.8400  175.5280  136.5990 C   0  0  0  0  0  0  0  0  0  0  0  0
  189.9570  175.5850  135.4730 N   0  0  0  0  0  2  0  0  0  0  0  0
  191.9100  174.6250  136.5810 O   0  0  0  0  0  0  0  0  0  0  0  0
  192.6220  174.2150  135.4040 C   0  0  2  0  0  3  0  0  0  0  0  0
  192.4490  172.7170  135.0960 C   0  0  0  0  0  3  0  0  0  0  0  0
  192.9460  171.9550  136.1550 O   0  0  0  0  0  1  0  0  0  0  0  0
  191.1060  172.4000  134.9020 O   0  0  0  0  0  1  0  0  0  0  0  0
  194.9310  173.8720  134.4470 C   0  0  0  0  0  1  0  0  0  0  0  0
  194.0790  174.7630  135.3570 C   0  0  2  0  0  0  0  0  0  0  0  0
  194.6210  176.0130  137.3780 O   0  0  0  0  0  1  0  0  0  0  0  0
  194.6960  174.7520  136.7750 C   0  0  2  0  0  3  0  0  0  0  0  0
  196.1310  174.2050  136.8310 C   0  0  1  0  0  3  0  0  0  0  0  0
  197.0560  175.2260  137.0820 O   0  0  0  0  0  1  0  0  0  0  0  0
  196.2680  173.0970  137.8670 C   0  0  0  0  0  2  0  0  0  0  0  0
  195.2350  173.1590  138.8050 O   0  0  0  0  0  1  0  0  0  0  0  0
  194.1130  176.2170  134.8520 C   0  0  0  0  0  2  0  0  0  0  0  0
  195.4160  176.6990  134.7070 O   0  0  0  0  0  1  0  0  0  0  0  0
  1 13  1  0  0  0  0
  2 18  1  0  0  0  0
  4  5  1  0  0  0  0
  5  9  2  0  0  0  0
  6  7  2  0  0  0  0
  7  9  1  0  0  0  0
 10 22  1  0  0  0  0
 11  6  1  0  0  0  0
 11  4  2  0  0  0  0
 12 27  1  6  0  0  0
 12 14  1  0  0  0  0
 13 24  2  0  0  0  0
 14 22  1  0  0  0  0
 15 17  1  1  0  0  0
 16  2  1  0  0  0  0
 17  6  1  0  0  0  0
 18 19  1  0  0  0  0
 19  3  1  6  0  0  0
 19  8  1  0  0  0  0
 20 10  1  0  0  0  0
 21 37  1  6  0  0  0
 21 16  1  0  0  0  0
 22  1  2  0  0  0  0
 23  8  1  6  0  0  0
 23 11  1  0  0  0  0
 24 15  1  0  0  0  0
 24 23  1  0  0  0  0
 25 26  1  0  0  0  0
 25 21  1  0  0  0  0
 26 12  1  0  0  0  0
 27 20  1  0  0  0  0
 29 34  1  6  0  0  0
 29 32  1  0  0  0  0
 31 29  1  0  0  0  0
 31 30  1  0  0  0  0
 32 28  1  0  0  0  0
 33 30  1  6  0  0  0
 33 28  1  0  0  0  0
 33 15  1  0  0  0  0
 35 36  1  0  0  0  0
 35 34  1  0  0  0  0
 36 34  1  0  0  0  0
 37 40  1  0  0  0  0
 39 38  2  0  0  0  0
 40 39  1  0  0  0  0
 41 39  1  0  0  0  0
 42 43  1  1  0  0  0
 42 41  1  0  0  0  0
 43 44  1  0  0  0  0
 45 43  1  0  0  0  0
 47 46  1  6  0  0  0
 47 42  1  0  0  0  0
 47 49  1  0  0  0  0
 49 50  1  0  0  0  0
 49 48  1  6  0  0  0
 50 51  1  1  0  0  0
 50 52  1  0  0  0  0
 52 53  1  0  0  0  0
 54 47  1  0  0  0  0
 55 54  1  0  0  0  0
M  END
>  <MODEL>
1

>  <REMARK>
 VINA RESULT:      -6.9      0.000      0.000
  Name = 
  12 active torsions:
  status: ('A' for Active; 'I' for Inactive)
    1  A    between atoms: C_1  and  C_53
    2  A    between atoms: C_6  and  C_14
    3  A    between atoms: C_8  and  N_22
    4  A    between atoms: C_8  and  C_43
    5  A    between atoms: C_10  and  C_32
    6  A    between atoms: C_11  and  C_29
    7  A    between atoms: C_14  and  C_38
    8  A    between atoms: C_14  and  C_53
    9  A    between atoms: C_20  and  O_42
   10  A    between atoms: C_29  and  C_38
   11  A    between atoms: C_33  and  C_52
   12  A    between atoms: O_42  and  C_53
                            x       y       z     vdW  Elec       q    Type
                         _______ _______ _______ _____ _____    ______ ____

>  <TORSDO>
F 12

$$$$
=
 OpenBabel10272401163D

 55 60  0  0  1  0  0  0  0  0999 V2000
  186.7240  178.6120  138.5370 N   0  0  0  0  0  0  0  0  0  0  0  0
  187.7900  174.7460  135.9540 C   0  0  0  0  0  2  0  0  0  0  0  0
  185.0910  173.8510  134.8920 O   0  0  0  0  0  1  0  0  0  0  0  0
  182.2610  177.7660  134.5860 C   0  0  0  0  0  3  0  0  0  0  0  0
  181.0010  178.3240  134.3480 C   0  0  0  0  0  3  0  0  0  0  0  0
  182.1730  178.5540  136.8860 C   0  0  0  0  0  0  0  0  0  0  0  0
  180.9170  179.1200  136.6290 C   0  0  0  0  0  3  0  0  0  0  0  0
  184.1020  175.7100  135.9930 C   0  0  0  0  0  2  0  0  0  0  0  0
  180.3300  179.0000  135.3680 C   0  0  0  0  0  3  0  0  0  0  0  0
  188.6210  179.1920  139.9090 C   0  0  0  0  0  2  0  0  0  0  0  0
  182.8620  177.8750  135.8470 C   0  0  0  0  0  0  0  0  0  0  0  0
  189.7540  177.1340  138.1050 C   0  0  1  0  0  3  0  0  0  0  0  0
  186.0730  178.0810  137.3810 C   0  0  0  0  0  3  0  0  0  0  0  0
  188.9400  178.2970  137.5440 C   0  0  0  0  0  2  0  0  0  0  0  0
  183.8410  177.6960  138.5430 C   0  0  1  0  0  3  0  0  0  0  0  0
  188.7060  174.4280  136.9610 O   0  0  0  0  0  0  0  0  0  0  0  0
  182.7950  178.7680  138.2420 C   0  0  0  0  0  2  0  0  0  0  0  0
  186.4080  174.9180  136.5580 C   0  0  0  0  0  2  0  0  0  0  0  0
  185.3820  175.0940  135.4500 C   0  0  1  0  0  3  0  0  0  0  0  0
  189.4640  178.0330  140.4450 C   0  0  0  0  0  2  0  0  0  0  0  0
  189.9520  174.4320  136.3280 C   0  0  1  0  0  3  0  0  0  0  0  0
  188.0070  178.7770  138.6150 C   0  0  0  0  0  0  0  0  0  0  0  0
  184.2150  177.2310  136.0670 C   0  0  1  0  0  3  0  0  0  0  0  0
  184.8080  177.6490  137.3790 C   0  0  0  0  0  0  0  0  0  0  0  0
  190.9780  175.1720  137.1700 C   0  0  0  0  0  2  0  0  0  0  0  0
  190.7650  176.6750  137.0700 C   0  0  0  0  0  2  0  0  0  0  0  0
  190.4710  177.5520  139.3950 C   0  0  0  0  0  2  0  0  0  0  0  0
  185.0270  179.1830  140.2210 C   0  0  0  0  0  2  0  0  0  0  0  0
  184.6050  179.0210  142.5590 C   0  0  2  0  0  3  0  0  0  0  0  0
  183.3770  177.5080  141.0060 C   0  0  0  0  0  2  0  0  0  0  0  0
  183.9760  177.6340  142.4000 C   0  0  0  0  0  2  0  0  0  0  0  0
  185.6460  179.2150  141.5480 N   0  0  0  0  0  2  0  0  0  0  0  0
  184.4450  177.7960  139.9510 C   0  0  1  0  0  3  0  0  0  0  0  0
  185.2150  179.1420  143.9460 C   0  0  0  0  0  3  0  0  0  0  0  0
  186.2430  178.0440  144.1400 C   0  0  0  0  0  2  0  0  0  0  0  0
  184.8730  177.9150  144.7690 C   0  0  0  0  0  2  0  0  0  0  0  0
  190.4280  173.0050  136.0990 C   0  0  0  0  0  2  0  0  0  0  0  0
  193.0480  172.8260  137.2070 O   0  0  0  0  0  0  0  0  0  0  0  0
  192.9550  172.9910  135.9580 C   0  0  0  0  0  0  0  0  0  0  0  0
  191.6670  173.0150  135.3330 N   0  0  0  0  0  2  0  0  0  0  0  0
  194.1000  173.1560  135.1680 O   0  0  0  0  0  0  0  0  0  0  0  0
  195.1730  174.0630  135.4550 C   0  0  2  0  0  3  0  0  0  0  0  0
  194.9110  175.4820  134.9180 C   0  0  0  0  0  3  0  0  0  0  0  0
  193.6390  175.5460  134.3470 O   0  0  0  0  0  1  0  0  0  0  0  0
  194.9950  176.4250  135.9410 O   0  0  0  0  0  1  0  0  0  0  0  0
  196.4080  172.1630  134.3460 C   0  0  0  0  0  1  0  0  0  0  0  0
  196.5750  173.4600  135.1450 C   0  0  2  0  0  0  0  0  0  0  0  0
  197.5760  171.7630  136.5810 O   0  0  0  0  0  1  0  0  0  0  0  0
  197.3160  173.1340  136.4630 C   0  0  2  0  0  3  0  0  0  0  0  0
  196.6190  173.6680  137.7230 C   0  0  1  0  0  3  0  0  0  0  0  0
  196.0330  172.6320  138.4600 O   0  0  0  0  0  1  0  0  0  0  0  0
  197.5780  174.4650  138.5980 C   0  0  0  0  0  2  0  0  0  0  0  0
  198.5430  175.1110  137.8230 O   0  0  0  0  0  1  0  0  0  0  0  0
  197.4490  174.4530  134.3590 C   0  0  0  0  0  2  0  0  0  0  0  0
  198.8040  174.3370  134.6770 O   0  0  0  0  0  1  0  0  0  0  0  0
  1 22  2  0  0  0  0
  2 18  1  0  0  0  0
  2 16  1  0  0  0  0
  4 11  1  0  0  0  0
  5  4  2  0  0  0  0
  5  9  1  0  0  0  0
  6 17  1  0  0  0  0
  7  6  1  0  0  0  0
  9  7  2  0  0  0  0
 10 20  1  0  0  0  0
 11 23  1  0  0  0  0
 11  6  2  0  0  0  0
 12 26  1  6  0  0  0
 12 27  1  0  0  0  0
 13  1  1  0  0  0  0
 14 12  1  0  0  0  0
 14 22  1  0  0  0  0
 15 17  1  6  0  0  0
 15 33  1  0  0  0  0
 19  3  1  1  0  0  0
 19  8  1  0  0  0  0
 19 18  1  0  0  0  0
 21 37  1  1  0  0  0
 21 16  1  0  0  0  0
 21 25  1  0  0  0  0
 22 10  1  0  0  0  0
 23  8  1  1  0  0  0
 23 24  1  0  0  0  0
 24 13  2  0  0  0  0
 24 15  1  0  0  0  0
 26 25  1  0  0  0  0
 27 20  1  0  0  0  0
 28 32  1  0  0  0  0
 29 34  1  1  0  0  0
 30 31  1  0  0  0  0
 31 29  1  0  0  0  0
 32 29  1  0  0  0  0
 33 28  1  1  0  0  0
 33 30  1  0  0  0  0
 34 35  1  0  0  0  0
 34 36  1  0  0  0  0
 35 36  1  0  0  0  0
 39 38  2  0  0  0  0
 40 39  1  0  0  0  0
 40 37  1  0  0  0  0
 41 42  1  0  0  0  0
 41 39  1  0  0  0  0
 42 43  1  6  0  0  0
 43 45  1  0  0  0  0
 44 43  1  0  0  0  0
 47 46  1  6  0  0  0
 47 42  1  0  0  0  0
 47 49  1  0  0  0  0
 49 48  1  1  0  0  0
 49 50  1  0  0  0  0
 50 51  1  1  0  0  0
 50 52  1  0  0  0  0
 53 52  1  0  0  0  0
 54 55  1  0  0  0  0
 54 47  1  0  0  0  0
M  END
>  <MODEL>
2

>  <REMARK>
 VINA RESULT:      -4.3      2.198      5.928
  Name = 
  12 active torsions:
  status: ('A' for Active; 'I' for Inactive)
    1  A    between atoms: C_1  and  C_53
    2  A    between atoms: C_6  and  C_14
    3  A    between atoms: C_8  and  N_22
    4  A    between atoms: C_8  and  C_43
    5  A    between atoms: C_10  and  C_32
    6  A    between atoms: C_11  and  C_29
    7  A    between atoms: C_14  and  C_38
    8  A    between atoms: C_14  and  C_53
    9  A    between atoms: C_20  and  O_42
   10  A    between atoms: C_29  and  C_38
   11  A    between atoms: C_33  and  C_52
   12  A    between atoms: O_42  and  C_53
                            x       y       z     vdW  Elec       q    Type
                         _______ _______ _______ _____ _____    ______ ____

>  <TORSDO>
F 12

$$$$
=
 OpenBabel10272401163D

 55 60  0  0  1  0  0  0  0  0999 V2000
  186.7260  178.4670  138.1230 N   0  0  0  0  0  0  0  0  0  0  0  0
  187.5170  174.4250  135.7160 C   0  0  0  0  0  2  0  0  0  0  0  0
  184.7280  173.5350  134.9130 O   0  0  0  0  0  1  0  0  0  0  0  0
  181.9640  177.4930  134.5720 C   0  0  0  0  0  3  0  0  0  0  0  0
  180.7010  178.0660  134.3920 C   0  0  0  0  0  3  0  0  0  0  0  0
  182.0640  178.4220  136.8180 C   0  0  0  0  0  0  0  0  0  0  0  0
  180.8040  179.0020  136.6190 C   0  0  0  0  0  3  0  0  0  0  0  0
  183.8630  175.4810  135.9650 C   0  0  0  0  0  2  0  0  0  0  0  0
  180.1220  178.8200  135.4140 C   0  0  0  0  0  3  0  0  0  0  0  0
  188.7320  179.0810  139.3130 C   0  0  0  0  0  2  0  0  0  0  0  0
  182.6600  177.6630  135.7760 C   0  0  0  0  0  0  0  0  0  0  0  0
  189.6850  176.8900  137.5630 C   0  0  1  0  0  3  0  0  0  0  0  0
  185.9800  177.8820  137.0530 C   0  0  0  0  0  3  0  0  0  0  0  0
  188.8550  178.0360  136.9910 C   0  0  0  0  0  2  0  0  0  0  0  0
  183.8340  177.6240  138.3990 C   0  0  1  0  0  3  0  0  0  0  0  0
  188.5000  174.1460  136.6700 O   0  0  0  0  0  0  0  0  0  0  0  0
  182.7910  178.7020  138.1090 C   0  0  0  0  0  2  0  0  0  0  0  0
  186.1880  174.6680  136.4070 C   0  0  0  0  0  2  0  0  0  0  0  0
  185.0860  174.8020  135.3690 C   0  0  1  0  0  3  0  0  0  0  0  0
  189.5890  177.9360  139.8570 C   0  0  0  0  0  2  0  0  0  0  0  0
  189.6940  174.0800  135.9480 C   0  0  1  0  0  3  0  0  0  0  0  0
  188.0150  178.6030  138.0960 C   0  0  0  0  0  0  0  0  0  0  0  0
  184.0120  177.0000  135.9350 C   0  0  1  0  0  3  0  0  0  0  0  0
  184.7100  177.4830  137.1710 C   0  0  0  0  0  0  0  0  0  0  0  0
  190.7950  174.8450  136.6650 C   0  0  0  0  0  2  0  0  0  0  0  0
  190.6060  176.3440  136.4870 C   0  0  0  0  0  2  0  0  0  0  0  0
  190.5050  177.3670  138.7680 C   0  0  0  0  0  2  0  0  0  0  0  0
  185.1140  179.2020  139.9160 C   0  0  0  0  0  2  0  0  0  0  0  0
  184.8790  179.1310  142.2850 C   0  0  2  0  0  3  0  0  0  0  0  0
  183.5670  177.5320  140.8960 C   0  0  0  0  0  2  0  0  0  0  0  0
  184.2710  177.7270  142.2320 C   0  0  0  0  0  2  0  0  0  0  0  0
  185.8340  179.3020  141.1880 N   0  0  0  0  0  2  0  0  0  0  0  0
  184.5430  177.7950  139.7490 C   0  0  1  0  0  3  0  0  0  0  0  0
  185.5930  179.3220  143.6130 C   0  0  0  0  0  3  0  0  0  0  0  0
  184.8490  178.5660  144.6960 C   0  0  0  0  0  2  0  0  0  0  0  0
  184.6930  180.0660  144.5800 C   0  0  0  0  0  2  0  0  0  0  0  0
  190.1220  172.6310  135.7750 C   0  0  0  0  0  2  0  0  0  0  0  0
  191.4100  170.3050  134.7460 O   0  0  0  0  0  0  0  0  0  0  0  0
  192.1010  171.3580  134.8420 C   0  0  0  0  0  0  0  0  0  0  0  0
  191.4930  172.5760  135.2830 N   0  0  0  0  0  2  0  0  0  0  0  0
  193.4660  171.3520  134.5280 O   0  0  0  0  0  0  0  0  0  0  0  0
  194.5290  171.1870  135.4780 C   0  0  2  0  0  3  0  0  0  0  0  0
  194.1710  170.2010  136.6040 C   0  0  0  0  0  3  0  0  0  0  0  0
  194.1060  168.9020  136.0950 O   0  0  0  0  0  1  0  0  0  0  0  0
  195.1240  170.2400  137.6210 O   0  0  0  0  0  1  0  0  0  0  0  0
  195.0520  173.5550  134.7800 C   0  0  0  0  0  1  0  0  0  0  0  0
  195.1570  172.5410  135.9240 C   0  0  2  0  0  0  0  0  0  0  0  0
  196.9460  172.8170  137.5570 O   0  0  0  0  0  1  0  0  0  0  0  0
  196.6510  172.3440  136.2720 C   0  0  2  0  0  3  0  0  0  0  0  0
  197.6190  172.9360  135.2370 C   0  0  1  0  0  3  0  0  0  0  0  0
  198.5140  173.8350  135.8310 O   0  0  0  0  0  1  0  0  0  0  0  0
  198.3790  171.8440  134.4930 C   0  0  0  0  0  2  0  0  0  0  0  0
  198.0870  170.5840  135.0200 O   0  0  0  0  0  1  0  0  0  0  0  0
  194.4600  173.0920  137.1810 C   0  0  0  0  0  2  0  0  0  0  0  0
  194.3190  174.4810  137.1450 O   0  0  0  0  0  1  0  0  0  0  0  0
  2 18  1  0  0  0  0
  2 16  1  0  0  0  0
  4 11  1  0  0  0  0
  5  4  2  0  0  0  0
  5  9  1  0  0  0  0
  6 17  1  0  0  0  0
  7  6  1  0  0  0  0
  9  7  2  0  0  0  0
 10 20  1  0  0  0  0
 11 23  1  0  0  0  0
 11  6  2  0  0  0  0
 12 26  1  6  0  0  0
 12 27  1  0  0  0  0
 13 24  2  0  0  0  0
 13  1  1  0  0  0  0
 14 12  1  0  0  0  0
 14 22  1  0  0  0  0
 15 17  1  6  0  0  0
 15 33  1  0  0  0  0
 19  3  1  1  0  0  0
 19  8  1  0  0  0  0
 19 18  1  0  0  0  0
 21 37  1  1  0  0  0
 21 25  1  0  0  0  0
 21 16  1  0  0  0  0
 22  1  2  0  0  0  0
 22 10  1  0  0  0  0
 23  8  1  1  0  0  0
 23 24  1  0  0  0  0
 24 15  1  0  0  0  0
 26 25  1  0  0  0  0
 27 20  1  0  0  0  0
 28 32  1  0  0  0  0
 29 34  1  1  0  0  0
 30 31  1  0  0  0  0
 31 29  1  0  0  0  0
 32 29  1  0  0  0  0
 33 28  1  1  0  0  0
 33 30  1  0  0  0  0
 34 36  1  0  0  0  0
 34 35  1  0  0  0  0
 36 35  1  0  0  0  0
 38 39  2  0  0  0  0
 39 40  1  0  0  0  0
 40 37  1  0  0  0  0
 41 39  1  0  0  0  0
 42 41  1  1  0  0  0
 42 47  1  0  0  0  0
 42 43  1  0  0  0  0
 43 45  1  0  0  0  0
 44 43  1  0  0  0  0
 47 46  1  6  0  0  0
 47 49  1  0  0  0  0
 47 54  1  0  0  0  0
 49 48  1  1  0  0  0
 50 51  1  1  0  0  0
 50 49  1  0  0  0  0
 52 53  1  0  0  0  0
 52 50  1  0  0  0  0
 55 54  1  0  0  0  0
M  END
>  <MODEL>
3

>  <REMARK>
 VINA RESULT:      -4.2      2.369      5.965
  Name = 
  12 active torsions:
  status: ('A' for Active; 'I' for Inactive)
    1  A    between atoms: C_1  and  C_53
    2  A    between atoms: C_6  and  C_14
    3  A    between atoms: C_8  and  N_22
    4  A    between atoms: C_8  and  C_43
    5  A    between atoms: C_10  and  C_32
    6  A    between atoms: C_11  and  C_29
    7  A    between atoms: C_14  and  C_38
    8  A    between atoms: C_14  and  C_53
    9  A    between atoms: C_20  and  O_42
   10  A    between atoms: C_29  and  C_38
   11  A    between atoms: C_33  and  C_52
   12  A    between atoms: O_42  and  C_53
                            x       y       z     vdW  Elec       q    Type
                         _______ _______ _______ _____ _____    ______ ____

>  <TORSDO>
F 12

$$$$
=
 OpenBabel10272401163D

 55 60  0  0  1  0  0  0  0  0999 V2000
  186.5850  178.3860  138.1020 N   0  0  0  0  0  0  0  0  0  0  0  0
  187.2670  174.3550  135.6440 C   0  0  0  0  0  2  0  0  0  0  0  0
  184.4550  173.5440  134.8400 O   0  0  0  0  0  1  0  0  0  0  0  0
  181.7880  177.5720  134.5570 C   0  0  0  0  0  3  0  0  0  0  0  0
  180.5390  178.1790  134.3890 C   0  0  0  0  0  3  0  0  0  0  0  0
  181.9190  178.4710  136.8140 C   0  0  0  0  0  0  0  0  0  0  0  0
  180.6730  179.0850  136.6270 C   0  0  0  0  0  3  0  0  0  0  0  0
  183.6410  175.4980  135.9200 C   0  0  0  0  0  2  0  0  0  0  0  0
  179.9830  178.9340  135.4220 C   0  0  0  0  0  3  0  0  0  0  0  0
  188.6100  178.9360  139.2920 C   0  0  0  0  0  2  0  0  0  0  0  0
  182.4920  177.7110  135.7610 C   0  0  0  0  0  0  0  0  0  0  0  0
  189.5020  176.7430  137.5120 C   0  0  1  0  0  3  0  0  0  0  0  0
  185.8210  177.8330  137.0280 C   0  0  0  0  0  3  0  0  0  0  0  0
  188.6990  177.9170  136.9570 C   0  0  0  0  0  2  0  0  0  0  0  0
  183.6740  177.6120  138.3780 C   0  0  1  0  0  3  0  0  0  0  0  0
  188.2460  174.0410  136.5910 O   0  0  0  0  0  0  0  0  0  0  0  0
  182.6560  178.7180  138.1050 C   0  0  0  0  0  2  0  0  0  0  0  0
  185.9470  174.6220  136.3430 C   0  0  0  0  0  2  0  0  0  0  0  0
  184.8450  174.7960  135.3100 C   0  0  1  0  0  3  0  0  0  0  0  0
  189.4400  177.7640  139.8190 C   0  0  0  0  0  2  0  0  0  0  0  0
  189.4360  173.9540  135.8640 C   0  0  1  0  0  3  0  0  0  0  0  0
  187.8760  178.4910  138.0720 C   0  0  0  0  0  0  0  0  0  0  0  0
  183.8280  177.0130  135.9070 C   0  0  1  0  0  3  0  0  0  0  0  0
  184.5410  177.4630  137.1460 C   0  0  0  0  0  0  0  0  0  0  0  0
  190.5580  174.6830  136.5860 C   0  0  0  0  0  2  0  0  0  0  0  0
  190.4050  176.1880  136.4260 C   0  0  0  0  0  2  0  0  0  0  0  0
  190.3370  177.1850  138.7200 C   0  0  0  0  0  2  0  0  0  0  0  0
  184.9250  179.1630  139.9460 C   0  0  0  0  0  2  0  0  0  0  0  0
  184.7160  178.9910  142.3120 C   0  0  2  0  0  3  0  0  0  0  0  0
  183.4350  177.4120  140.8720 C   0  0  0  0  0  2  0  0  0  0  0  0
  184.1460  177.5740  142.2090 C   0  0  0  0  0  2  0  0  0  0  0  0
  185.6540  179.2330  141.2140 N   0  0  0  0  0  2  0  0  0  0  0  0
  184.3920  177.7490  139.7280 C   0  0  1  0  0  3  0  0  0  0  0  0
  185.4370  179.1500  143.6400 C   0  0  0  0  0  3  0  0  0  0  0  0
  184.5320  178.6790  144.7630 C   0  0  0  0  0  2  0  0  0  0  0  0
  184.7090  180.1590  144.5060 C   0  0  0  0  0  2  0  0  0  0  0  0
  189.8280  172.4970  135.6720 C   0  0  0  0  0  2  0  0  0  0  0  0
  191.3990  170.5220  134.3460 O   0  0  0  0  0  0  0  0  0  0  0  0
  191.9940  171.2960  135.1480 C   0  0  0  0  0  0  0  0  0  0  0  0
  191.2740  172.3550  135.7890 N   0  0  0  0  0  2  0  0  0  0  0  0
  193.3570  171.1330  135.4280 O   0  0  0  0  0  0  0  0  0  0  0  0
  194.0880  171.8720  136.4160 C   0  0  2  0  0  3  0  0  0  0  0  0
  194.6320  173.2070  135.8780 C   0  0  0  0  0  3  0  0  0  0  0  0
  194.1230  173.4460  134.6000 O   0  0  0  0  0  1  0  0  0  0  0  0
  194.2730  174.2640  136.7120 O   0  0  0  0  0  1  0  0  0  0  0  0
  195.5220  171.7180  138.4870 C   0  0  0  0  0  1  0  0  0  0  0  0
  195.0970  170.9880  137.2080 C   0  0  2  0  0  0  0  0  0  0  0  0
  196.6530  169.3560  136.2820 O   0  0  0  0  0  1  0  0  0  0  0  0
  196.3570  170.7230  136.3510 C   0  0  2  0  0  3  0  0  0  0  0  0
  197.5920  171.5270  136.7860 C   0  0  1  0  0  3  0  0  0  0  0  0
  198.7030  170.6960  136.9690 O   0  0  0  0  0  1  0  0  0  0  0  0
  197.9150  172.6350  135.7920 C   0  0  0  0  0  2  0  0  0  0  0  0
  198.3910  172.1070  134.5900 O   0  0  0  0  0  1  0  0  0  0  0  0
  194.4840  169.6210  137.5610 C   0  0  0  0  0  2  0  0  0  0  0  0
  195.2770  168.8980  138.4560 O   0  0  0  0  0  1  0  0  0  0  0  0
  2 18  1  0  0  0  0
  2 16  1  0  0  0  0
  4 11  1  0  0  0  0
  5  4  2  0  0  0  0
  5  9  1  0  0  0  0
  6 17  1  0  0  0  0
  7  6  1  0  0  0  0
  9  7  2  0  0  0  0
 10 20  1  0  0  0  0
 11 23  1  0  0  0  0
 11  6  2  0  0  0  0
 12 26  1  6  0  0  0
 12 27  1  0  0  0  0
 13 24  2  0  0  0  0
 13  1  1  0  0  0  0
 14 12  1  0  0  0  0
 14 22  1  0  0  0  0
 15 17  1  6  0  0  0
 15 33  1  0  0  0  0
 19  3  1  1  0  0  0
 19  8  1  0  0  0  0
 19 18  1  0  0  0  0
 21 37  1  1  0  0  0
 21 25  1  0  0  0  0
 21 16  1  0  0  0  0
 22  1  2  0  0  0  0
 22 10  1  0  0  0  0
 23  8  1  1  0  0  0
 23 24  1  0  0  0  0
 24 15  1  0  0  0  0
 26 25  1  0  0  0  0
 27 20  1  0  0  0  0
 28 32  1  0  0  0  0
 29 34  1  1  0  0  0
 30 31  1  0  0  0  0
 31 29  1  0  0  0  0
 32 29  1  0  0  0  0
 33 28  1  1  0  0  0
 33 30  1  0  0  0  0
 34 36  1  0  0  0  0
 34 35  1  0  0  0  0
 36 35  1  0  0  0  0
 37 40  1  0  0  0  0
 38 39  2  0  0  0  0
 39 41  1  0  0  0  0
 39 40  1  0  0  0  0
 42 41  1  6  0  0  0
 42 47  1  0  0  0  0
 43 42  1  0  0  0  0
 43 45  1  0  0  0  0
 44 43  1  0  0  0  0
 47 54  1  0  0  0  0
 47 46  1  1  0  0  0
 49 48  1  1  0  0  0
 49 50  1  0  0  0  0
 49 47  1  0  0  0  0
 50 51  1  6  0  0  0
 52 50  1  0  0  0  0
 53 52  1  0  0  0  0
 54 55  1  0  0  0  0
M  END
>  <MODEL>
4

>  <REMARK>
 VINA RESULT:      -4.1      2.435      6.172
  Name = 
  12 active torsions:
  status: ('A' for Active; 'I' for Inactive)
    1  A    between atoms: C_1  and  C_53
    2  A    between atoms: C_6  and  C_14
    3  A    between atoms: C_8  and  N_22
    4  A    between atoms: C_8  and  C_43
    5  A    between atoms: C_10  and  C_32
    6  A    between atoms: C_11  and  C_29
    7  A    between atoms: C_14  and  C_38
    8  A    between atoms: C_14  and  C_53
    9  A    between atoms: C_20  and  O_42
   10  A    between atoms: C_29  and  C_38
   11  A    between atoms: C_33  and  C_52
   12  A    between atoms: O_42  and  C_53
                            x       y       z     vdW  Elec       q    Type
                         _______ _______ _______ _____ _____    ______ ____

>  <TORSDO>
F 12

$$$$
=
 OpenBabel10272401163D

 55 60  0  0  1  0  0  0  0  0999 V2000
  184.3390  175.8370  135.1030 N   0  0  0  0  0  0  0  0  0  0  0  0
  188.3940  173.8540  136.6460 C   0  0  0  0  0  2  0  0  0  0  0  0
  187.5500  171.0360  137.3970 O   0  0  0  0  0  1  0  0  0  0  0  0
  183.7390  169.8640  134.6540 C   0  0  0  0  0  3  0  0  0  0  0  0
  182.7080  168.9710  134.3460 C   0  0  0  0  0  3  0  0  0  0  0  0
  182.0940  171.5510  135.2600 C   0  0  0  0  0  0  0  0  0  0  0  0
  181.0710  170.6510  134.9340 C   0  0  0  0  0  3  0  0  0  0  0  0
  185.3460  171.5650  136.6840 C   0  0  0  0  0  2  0  0  0  0  0  0
  181.3760  169.3640  134.4850 C   0  0  0  0  0  3  0  0  0  0  0  0
  184.6390  178.2260  134.9500 C   0  0  0  0  0  2  0  0  0  0  0  0
  183.4490  171.1580  135.1090 C   0  0  0  0  0  0  0  0  0  0  0  0
  187.4040  177.2740  135.4180 C   0  0  1  0  0  3  0  0  0  0  0  0
  184.7600  174.4720  135.0600 C   0  0  0  0  0  3  0  0  0  0  0  0
  186.5310  176.6280  134.3460 C   0  0  0  0  0  2  0  0  0  0  0  0
  182.8350  173.6060  136.4830 C   0  0  1  0  0  3  0  0  0  0  0  0
  188.6720  175.0870  137.2440 O   0  0  0  0  0  0  0  0  0  0  0  0
  181.7160  172.9500  135.6750 C   0  0  0  0  0  2  0  0  0  0  0  0
  187.0490  173.3440  137.1300 C   0  0  0  0  0  2  0  0  0  0  0  0
  186.8210  171.9310  136.6170 C   0  0  1  0  0  3  0  0  0  0  0  0
  185.5420  178.8760  135.9990 C   0  0  0  0  0  2  0  0  0  0  0  0
  189.8490  175.5270  136.6310 C   0  0  1  0  0  3  0  0  0  0  0  0
  185.0950  176.8230  134.7300 C   0  0  0  0  0  0  0  0  0  0  0  0
  184.5990  172.0810  135.4570 C   0  0  1  0  0  3  0  0  0  0  0  0
  184.1170  173.4820  135.6880 C   0  0  0  0  0  0  0  0  0  0  0  0
  189.7370  176.9950  136.2530 C   0  0  0  0  0  2  0  0  0  0  0  0
  188.8640  177.1630  135.0190 C   0  0  0  0  0  2  0  0  0  0  0  0
  187.0190  178.7470  135.6110 C   0  0  0  0  0  2  0  0  0  0  0  0
  181.0440  175.0500  137.5500 C   0  0  0  0  0  2  0  0  0  0  0  0
  181.5790  176.7430  139.1380 C   0  0  2  0  0  3  0  0  0  0  0  0
  183.4240  175.3850  138.1580 C   0  0  0  0  0  2  0  0  0  0  0  0
  183.0480  176.7550  138.7050 C   0  0  0  0  0  2  0  0  0  0  0  0
  180.7250  176.4080  137.9960 N   0  0  0  0  0  2  0  0  0  0  0  0
  182.4770  174.9970  137.0220 C   0  0  1  0  0  3  0  0  0  0  0  0
  181.1990  178.1140  139.6710 C   0  0  0  0  0  3  0  0  0  0  0  0
  180.9140  179.0440  138.5080 C   0  0  0  0  0  2  0  0  0  0  0  0
  182.2320  179.1380  139.2440 C   0  0  0  0  0  2  0  0  0  0  0  0
  191.0310  175.3390  137.5700 C   0  0  0  0  0  2  0  0  0  0  0  0
  192.4350  177.4300  138.9050 O   0  0  0  0  0  0  0  0  0  0  0  0
  191.4910  176.8710  139.5320 C   0  0  0  0  0  0  0  0  0  0  0  0
  190.7010  175.8650  138.8890 N   0  0  0  0  0  2  0  0  0  0  0  0
  191.2050  177.2180  140.8580 O   0  0  0  0  0  0  0  0  0  0  0  0
  189.9680  176.9420  141.5320 C   0  0  2  0  0  3  0  0  0  0  0  0
  188.8700  177.9700  141.2040 C   0  0  0  0  0  3  0  0  0  0  0  0
  188.7500  178.1110  139.8200 O   0  0  0  0  0  1  0  0  0  0  0  0
  187.6420  177.5700  141.7260 O   0  0  0  0  0  1  0  0  0  0  0  0
  189.7070  175.1640  143.3030 C   0  0  0  0  0  1  0  0  0  0  0  0
  190.1640  176.6030  143.0390 C   0  0  2  0  0  0  0  0  0  0  0  0
  190.0910  178.5950  144.4420 O   0  0  0  0  0  1  0  0  0  0  0  0
  189.3150  177.5570  143.9130 C   0  0  2  0  0  3  0  0  0  0  0  0
  188.5190  176.8510  145.0210 C   0  0  1  0  0  3  0  0  0  0  0  0
  189.0830  177.0830  146.2810 O   0  0  0  0  0  1  0  0  0  0  0  0
  187.0540  177.2680  145.0100 C   0  0  0  0  0  2  0  0  0  0  0  0
  186.8500  178.4010  145.8000 O   0  0  0  0  0  1  0  0  0  0  0  0
  191.6330  176.7750  143.4640 C   0  0  0  0  0  2  0  0  0  0  0  0
  192.0540  175.7710  144.3410 O   0  0  0  0  0  1  0  0  0  0  0  0
  2 18  1  0  0  0  0
  2 16  1  0  0  0  0
  4 11  1  0  0  0  0
  5  9  1  0  0  0  0
  5  4  2  0  0  0  0
  6 17  1  0  0  0  0
  7  6  1  0  0  0  0
  9  7  2  0  0  0  0
 10 20  1  0  0  0  0
 11  6  2  0  0  0  0
 11 23  1  0  0  0  0
 12 14  1  6  0  0  0
 12 27  1  0  0  0  0
 13  1  1  0  0  0  0
 13 24  2  0  0  0  0
 14 22  1  0  0  0  0
 15 17  1  6  0  0  0
 15 33  1  0  0  0  0
 19  8  1  0  0  0  0
 19 18  1  0  0  0  0
 19  3  1  1  0  0  0
 21 16  1  0  0  0  0
 21 37  1  1  0  0  0
 22 10  1  0  0  0  0
 22  1  2  0  0  0  0
 23 24  1  0  0  0  0
 23  8  1  1  0  0  0
 24 15  1  0  0  0  0
 25 21  1  0  0  0  0
 26 12  1  0  0  0  0
 26 25  1  0  0  0  0
 27 20  1  0  0  0  0
 28 32  1  0  0  0  0
 29 34  1  6  0  0  0
 30 31  1  0  0  0  0
 31 29  1  0  0  0  0
 32 29  1  0  0  0  0
 33 28  1  1  0  0  0
 33 30  1  0  0  0  0
 35 36  1  0  0  0  0
 35 34  1  0  0  0  0
 36 34  1  0  0  0  0
 37 40  1  0  0  0  0
 38 39  2  0  0  0  0
 39 41  1  0  0  0  0
 40 39  1  0  0  0  0
 42 41  1  1  0  0  0
 42 47  1  0  0  0  0
 43 42  1  0  0  0  0
 43 45  1  0  0  0  0
 44 43  1  0  0  0  0
 47 46  1  1  0  0  0
 47 54  1  0  0  0  0
 47 49  1  0  0  0  0
 49 48  1  1  0  0  0
 49 50  1  0  0  0  0
 50 51  1  1  0  0  0
 52 50  1  0  0  0  0
 52 53  1  0  0  0  0
 54 55  1  0  0  0  0
M  END
>  <MODEL>
5

>  <REMARK>
 VINA RESULT:      -4.0      3.423      7.779
  Name = 
  12 active torsions:
  status: ('A' for Active; 'I' for Inactive)
    1  A    between atoms: C_1  and  C_53
    2  A    between atoms: C_6  and  C_14
    3  A    between atoms: C_8  and  N_22
    4  A    between atoms: C_8  and  C_43
    5  A    between atoms: C_10  and  C_32
    6  A    between atoms: C_11  and  C_29
    7  A    between atoms: C_14  and  C_38
    8  A    between atoms: C_14  and  C_53
    9  A    between atoms: C_20  and  O_42
   10  A    between atoms: C_29  and  C_38
   11  A    between atoms: C_33  and  C_52
   12  A    between atoms: O_42  and  C_53
                            x       y       z     vdW  Elec       q    Type
                         _______ _______ _______ _____ _____    ______ ____

>  <TORSDO>
F 12

$$$$
