=
 OpenBabel10272415093D

 34 40  0  0  0  0  0  0  0  0999 V2000
  187.6270  177.8750  145.0700 C   0  0  0  0  0  0  0  0  0  0  0  0
  184.0600  178.8090  145.5790 C   0  0  0  0  0  3  0  0  0  0  0  0
  185.7860  178.5760  147.0910 C   0  0  0  0  0  3  0  0  0  0  0  0
  190.0660  177.2040  144.7500 C   0  0  0  0  0  0  0  0  0  0  0  0
  188.7150  177.4790  144.0860 C   0  0  0  0  0  3  0  0  0  0  0  0
  189.1560  177.7150  146.8870 C   0  0  0  0  0  0  0  0  0  0  0  0
  189.1470  177.8890  148.3770 C   0  0  0  0  0  2  0  0  0  0  0  0
  190.2390  177.3140  146.0430 N   0  0  0  0  0  0  0  0  0  0  0  0
  187.1120  178.2890  147.3840 C   0  0  0  0  0  0  0  0  0  0  0  0
  187.9720  177.9570  146.4040 C   0  0  0  0  0  0  0  0  0  0  0  0
  187.7530  178.2760  148.6550 N   0  0  0  0  0  0  0  0  0  0  0  0
  183.2160  178.8640  144.3840 C   0  0  0  0  0  3  0  0  0  0  0  0
  183.5210  178.6350  143.1110 C   0  0  0  0  0  0  0  0  0  0  0  0
  184.8420  178.2590  142.6090 C   0  0  0  0  0  3  0  0  0  0  0  0
  185.3510  178.5170  145.7470 C   0  0  0  0  0  0  0  0  0  0  0  0
  185.9760  178.0650  143.2700 C   0  0  0  0  0  3  0  0  0  0  0  0
  186.2830  178.1620  144.7090 C   0  0  0  0  0  0  0  0  0  0  0  0
  182.4770  178.7630  142.1540 N   0  0  0  0  0  0  0  0  0  0  0  0
  181.0650  179.0490  141.7640 C   0  0  0  0  0  2  0  0  0  0  0  0
  181.9480  178.7130  140.7590 C   0  0  0  0  0  2  0  0  0  0  0  0
  191.2020  176.7460  143.9010 C   0  0  0  0  0  2  0  0  0  0  0  0
  191.6640  177.3050  140.1900 N   0  0  0  0  0  2  0  0  0  0  0  0
  189.5180  177.2600  142.0280 C   0  0  0  0  0  3  0  0  0  0  0  0
  188.6930  178.0690  138.0630 N   0  0  0  0  0  0  0  0  0  0  0  0
  188.4060  178.3540  136.6880 C   0  0  0  0  0  0  0  0  0  0  0  0
  190.0500  177.8170  138.4790 C   0  0  0  0  0  3  0  0  0  0  0  0
  187.1010  178.6080  136.2820 O   0  0  0  0  0  1  0  0  0  0  0  0
  190.3250  177.5540  139.7570 C   0  0  0  0  0  0  0  0  0  0  0  0
  189.3310  178.3730  135.8320 O   0  0  0  0  0  0  0  0  0  0  0  0
  187.8560  177.7800  140.3120 C   0  0  0  0  0  3  0  0  0  0  0  0
  189.2350  177.5210  140.7490 C   0  0  0  0  0  0  0  0  0  0  0  0
  187.6180  178.0400  139.0230 C   0  0  0  0  0  3  0  0  0  0  0  0
  190.9120  177.0030  142.4610 C   0  0  0  0  0  0  0  0  0  0  0  0
  191.9180  177.0320  141.5760 C   0  0  0  0  0  3  0  0  0  0  0  0
  1 10  1  0  0  0  0
  2 15  1  0  0  0  0
  3  9  1  0  0  0  0
  4  8  2  0  0  0  0
  5  4  1  0  0  0  0
  5  1  2  0  0  0  0
  6  7  1  0  0  0  0
  7 11  1  0  0  0  0
  8  6  1  0  0  0  0
  9 11  2  0  0  0  0
 10  6  2  0  0  0  0
 10  9  1  0  0  0  0
 12  2  2  0  0  0  0
 13 12  1  0  0  0  0
 14 13  2  0  0  0  0
 14 16  1  0  0  0  0
 15  3  2  0  0  0  0
 16 17  2  0  0  0  0
 17  1  1  0  0  0  0
 17 15  1  0  0  0  0
 18 13  1  0  0  0  0
 19 18  1  0  0  0  0
 20 19  1  0  0  0  0
 20 18  1  0  0  0  0
 21  4  1  0  0  0  0
 22 34  1  0  0  0  0
 23 33  1  0  0  0  0
 24 26  1  0  0  0  0
 24 32  1  0  0  0  0
 25 24  1  0  0  0  0
 26 28  2  0  0  0  0
 27 25  1  0  0  0  0
 28 22  1  0  0  0  0
 28 31  1  0  0  0  0
 29 25  2  0  0  0  0
 30 31  1  0  0  0  0
 31 23  2  0  0  0  0
 32 30  2  0  0  0  0
 33 21  1  0  0  0  0
 34 33  2  0  0  0  0
M  END
>  <MODEL>
1

>  <REMARK>
 VINA RESULT:     -12.1      0.000      0.000
  Name = 
  3 active torsions:
  status: ('A' for Active; 'I' for Inactive)
    1  A    between atoms: N_3  and  C_25
    2  A    between atoms: C_8  and  C_18
    3  A    between atoms: C_18  and  C_30
                            x       y       z     vdW  Elec       q    Type
                         _______ _______ _______ _____ _____    ______ ____

>  <TORSDO>
F 3

$$$$
=
 OpenBabel10272415093D

 34 40  0  0  1  0  0  0  0  0999 V2000
  189.1360  177.5040  144.2250 C   0  0  0  0  0  0  0  0  0  0  0  0
  191.3920  177.0650  141.2980 C   0  0  0  0  0  3  0  0  0  0  0  0
  191.7430  176.6670  143.5420 C   0  0  0  0  0  3  0  0  0  0  0  0
  187.6190  177.8280  146.2480 C   0  0  0  0  0  0  0  0  0  0  0  0
  187.7680  177.9330  144.7290 C   0  0  0  0  0  3  0  0  0  0  0  0
  189.8390  176.9980  146.4410 C   0  0  0  0  0  0  0  0  0  0  0  0
  191.0680  176.4930  147.1390 C   0  0  0  0  0  2  0  0  0  0  0  0
  188.5920  177.4010  147.0130 N   0  0  0  0  0  0  0  0  0  0  0  0
  191.2990  176.6620  144.8570 C   0  0  0  0  0  0  0  0  0  0  0  0
  190.0520  177.0650  145.1590 C   0  0  0  0  0  0  0  0  0  0  0  0
  192.0130  176.2830  146.0280 N   0  0  0  0  0  0  0  0  0  0  0  0
  190.8470  177.4200  139.9860 C   0  0  0  0  0  3  0  0  0  0  0  0
  189.6450  177.8800  139.6560 C   0  0  0  0  0  0  0  0  0  0  0  0
  188.5510  178.1430  140.5900 C   0  0  0  0  0  3  0  0  0  0  0  0
  190.8640  177.1000  142.5220 C   0  0  0  0  0  0  0  0  0  0  0  0
  188.5090  177.9960  141.9080 C   0  0  0  0  0  3  0  0  0  0  0  0
  189.5320  177.5270  142.8610 C   0  0  0  0  0  0  0  0  0  0  0  0
  189.3990  178.1430  138.2800 N   0  0  0  0  0  0  0  0  0  0  0  0
  189.3690  177.7500  136.8410 C   0  0  0  0  0  2  0  0  0  0  0  0
  188.9690  179.0300  137.1600 C   0  0  0  0  0  2  0  0  0  0  0  0
  186.3440  178.2780  146.8770 C   0  0  0  0  0  2  0  0  0  0  0  0
  183.0350  179.0500  145.2190 N   0  0  0  0  0  0  0  0  0  0  0  0
  185.6160  178.2320  144.4120 C   0  0  0  0  0  3  0  0  0  0  0  0
  182.7120  178.7080  141.5160 N   0  0  0  0  0  0  0  0  0  0  0  0
  181.7030  178.8690  140.5100 C   0  0  0  0  0  0  0  0  0  0  0  0
  182.3960  178.9590  142.8990 C   0  0  0  0  0  3  0  0  0  0  0  0
  181.9980  178.6180  139.1740 O   0  0  0  0  0  0  0  0  0  0  0  0
  183.3290  178.8090  143.8400 C   0  0  0  0  0  0  0  0  0  0  0  0
  180.5410  179.2430  140.8240 O   0  0  0  0  0  1  0  0  0  0  0  0
  184.9970  178.1300  142.0490 C   0  0  0  0  0  3  0  0  0  0  0  0
  184.6890  178.3830  143.4630 C   0  0  2  0  0  3  0  0  0  0  0  0
  184.0370  178.2910  141.1330 C   0  0  0  0  0  3  0  0  0  0  0  0
  185.2970  178.4860  145.8360 C   0  0  0  0  0  0  0  0  0  0  0  0
  184.0650  178.8700  146.2010 C   0  0  0  0  0  3  0  0  0  0  0  0
  1  5  2  0  0  0  0
  1 10  1  0  0  0  0
  2 15  1  0  0  0  0
  3  9  1  0  0  0  0
  4 21  1  0  0  0  0
  4  8  2  0  0  0  0
  5  4  1  0  0  0  0
  6  8  1  0  0  0  0
  6  7  1  0  0  0  0
  9 10  1  0  0  0  0
  9 11  2  0  0  0  0
 10  6  2  0  0  0  0
 11  7  1  0  0  0  0
 12  2  2  0  0  0  0
 13 12  1  0  0  0  0
 13 14  2  0  0  0  0
 14 16  1  0  0  0  0
 15 17  1  0  0  0  0
 15  3  2  0  0  0  0
 16 17  2  0  0  0  0
 17  1  1  0  0  0  0
 18 13  1  0  0  0  0
 19 20  1  0  0  0  0
 19 18  1  0  0  0  0
 20 18  1  0  0  0  0
 22 34  2  0  0  0  0
 23 33  2  0  0  0  0
 24 26  1  0  0  0  0
 25 29  1  0  0  0  0
 25 24  1  0  0  0  0
 26 28  2  0  0  0  0
 27 25  2  0  0  0  0
 28 22  1  0  0  0  0
 31 30  1  1  0  0  0
 31 28  1  0  0  0  0
 31 23  1  0  0  0  0
 32 24  1  0  0  0  0
 32 30  2  0  0  0  0
 33 34  1  0  0  0  0
 33 21  1  0  0  0  0
M  END
>  <MODEL>
2

>  <REMARK>
 VINA RESULT:     -12.0      2.037      6.390
  Name = 
  3 active torsions:
  status: ('A' for Active; 'I' for Inactive)
    1  A    between atoms: N_3  and  C_25
    2  A    between atoms: C_8  and  C_18
    3  A    between atoms: C_18  and  C_30
                            x       y       z     vdW  Elec       q    Type
                         _______ _______ _______ _____ _____    ______ ____

>  <TORSDO>
F 3

$$$$
=
 OpenBabel10272415093D

 34 40  0  0  0  0  0  0  0  0999 V2000
  188.8490  177.6520  143.7720 C   0  0  0  0  0  0  0  0  0  0  0  0
  185.8520  177.8950  145.9660 C   0  0  0  0  0  3  0  0  0  0  0  0
  188.0540  177.4300  146.4710 C   0  0  0  0  0  3  0  0  0  0  0  0
  190.9090  177.4480  142.2840 C   0  0  0  0  0  0  0  0  0  0  0  0
  189.4080  177.7350  142.3610 C   0  0  0  0  0  3  0  0  0  0  0  0
  191.0030  177.1340  144.6390 C   0  0  0  0  0  0  0  0  0  0  0  0
  191.6330  176.8270  145.9670 C   0  0  0  0  0  2  0  0  0  0  0  0
  191.6180  177.1670  143.3480 N   0  0  0  0  0  0  0  0  0  0  0  0
  189.3740  177.2450  146.0840 C   0  0  0  0  0  0  0  0  0  0  0  0
  189.7300  177.3560  144.7920 C   0  0  0  0  0  0  0  0  0  0  0  0
  190.4950  176.9180  146.8980 N   0  0  0  0  0  0  0  0  0  0  0  0
  184.5800  178.2100  145.3120 C   0  0  0  0  0  3  0  0  0  0  0  0
  184.3110  178.4360  144.0320 C   0  0  0  0  0  0  0  0  0  0  0  0
  185.2870  178.4160  142.9420 C   0  0  0  0  0  3  0  0  0  0  0  0
  187.0870  177.7390  145.4860 C   0  0  0  0  0  0  0  0  0  0  0  0
  186.5910  178.1780  142.9780 C   0  0  0  0  0  3  0  0  0  0  0  0
  187.4840  177.8560  144.1070 C   0  0  0  0  0  0  0  0  0  0  0  0
  182.9600  178.7190  143.6860 N   0  0  0  0  0  0  0  0  0  0  0  0
  181.9020  179.1530  142.7280 C   0  0  0  0  0  2  0  0  0  0  0  0
  181.5050  178.8100  144.0040 C   0  0  0  0  0  2  0  0  0  0  0  0
  191.5690  177.4350  140.9470 C   0  0  0  0  0  2  0  0  0  0  0  0
  189.9980  175.5550  138.0680 N   0  0  0  0  0  2  0  0  0  0  0  0
  189.3400  177.7590  139.7080 C   0  0  0  0  0  3  0  0  0  0  0  0
  186.6870  176.6580  136.7420 N   0  0  0  0  0  0  0  0  0  0  0  0
  185.7670  176.2780  135.7100 C   0  0  0  0  0  0  0  0  0  0  0  0
  187.9130  175.9210  136.9200 C   0  0  0  0  0  3  0  0  0  0  0  0
  184.5880  176.9910  135.5250 O   0  0  0  0  0  1  0  0  0  0  0  0
  188.7740  176.2700  137.8770 C   0  0  0  0  0  0  0  0  0  0  0  0
  186.0160  175.2950  134.9620 O   0  0  0  0  0  0  0  0  0  0  0  0
  187.2170  178.1560  138.5620 C   0  0  0  0  0  3  0  0  0  0  0  0
  188.4710  177.4140  138.7550 C   0  0  0  0  0  0  0  0  0  0  0  0
  186.3780  177.7780  137.5940 C   0  0  0  0  0  3  0  0  0  0  0  0
  190.6030  177.0070  139.8950 C   0  0  0  0  0  0  0  0  0  0  0  0
  190.9010  175.9670  139.1040 C   0  0  0  0  0  3  0  0  0  0  0  0
  1 17  1  0  0  0  0
  1 10  1  0  0  0  0
  4  5  1  0  0  0  0
  4  8  2  0  0  0  0
  5  1  2  0  0  0  0
  6 10  2  0  0  0  0
  6  7  1  0  0  0  0
  7 11  1  0  0  0  0
  8  6  1  0  0  0  0
  9  3  1  0  0  0  0
  9 11  2  0  0  0  0
 10  9  1  0  0  0  0
 12  2  2  0  0  0  0
 13 12  1  0  0  0  0
 14 16  1  0  0  0  0
 14 13  2  0  0  0  0
 15  2  1  0  0  0  0
 15  3  2  0  0  0  0
 16 17  2  0  0  0  0
 17 15  1  0  0  0  0
 18 20  1  0  0  0  0
 18 13  1  0  0  0  0
 19 18  1  0  0  0  0
 19 20  1  0  0  0  0
 21  4  1  0  0  0  0
 22 34  1  0  0  0  0
 23 33  1  0  0  0  0
 24 26  1  0  0  0  0
 24 32  1  0  0  0  0
 25 24  1  0  0  0  0
 26 28  2  0  0  0  0
 27 25  1  0  0  0  0
 28 22  1  0  0  0  0
 28 31  1  0  0  0  0
 29 25  2  0  0  0  0
 30 31  1  0  0  0  0
 31 23  2  0  0  0  0
 32 30  2  0  0  0  0
 33 21  1  0  0  0  0
 34 33  2  0  0  0  0
M  END
>  <MODEL>
3

>  <REMARK>
 VINA RESULT:     -11.8      1.732      2.596
  Name = 
  3 active torsions:
  status: ('A' for Active; 'I' for Inactive)
    1  A    between atoms: N_3  and  C_25
    2  A    between atoms: C_8  and  C_18
    3  A    between atoms: C_18  and  C_30
                            x       y       z     vdW  Elec       q    Type
                         _______ _______ _______ _____ _____    ______ ____

>  <TORSDO>
F 3

$$$$
=
 OpenBabel10272415093D

 34 40  0  0  1  0  0  0  0  0999 V2000
  186.5640  178.1250  144.0400 C   0  0  0  0  0  0  0  0  0  0  0  0
  187.6250  177.6630  147.5780 C   0  0  0  0  0  3  0  0  0  0  0  0
  185.6210  178.3790  146.6880 C   0  0  0  0  0  3  0  0  0  0  0  0
  185.8270  178.4800  141.6260 C   0  0  0  0  0  0  0  0  0  0  0  0
  186.9460  178.0400  142.5720 C   0  0  0  0  0  2  0  0  0  0  0  0
  184.3890  178.9040  143.4720 C   0  0  0  0  0  0  0  0  0  0  0  0
  183.1330  179.3330  144.1740 C   0  0  0  0  0  3  0  0  0  0  0  0
  184.6610  178.8800  142.0680 N   0  0  0  0  0  0  0  0  0  0  0  0
  184.8180  178.6850  145.5980 C   0  0  0  0  0  0  0  0  0  0  0  0
  185.2890  178.5560  144.3450 C   0  0  0  0  0  0  0  0  0  0  0  0
  183.4780  179.1630  145.5960 N   0  0  0  0  0  0  0  0  0  0  0  0
  188.9930  177.1880  147.7990 C   0  0  0  0  0  3  0  0  0  0  0  0
  189.9420  176.8790  146.9230 C   0  0  0  0  0  0  0  0  0  0  0  0
  189.8120  176.9540  145.4690 C   0  0  0  0  0  3  0  0  0  0  0  0
  186.9430  177.9270  146.4620 C   0  0  0  0  0  0  0  0  0  0  0  0
  188.7770  177.3300  144.7290 C   0  0  0  0  0  3  0  0  0  0  0  0
  187.4310  177.7930  145.1150 C   0  0  0  0  0  0  0  0  0  0  0  0
  191.1930  176.4410  147.4400 N   0  0  0  0  0  0  0  0  0  0  0  0
  192.3570  176.5560  148.3670 C   0  0  0  0  0  2  0  0  0  0  0  0
  192.3570  175.5080  147.4700 C   0  0  0  0  0  2  0  0  0  0  0  0
  186.0950  178.5040  140.1590 C   0  0  0  0  0  2  0  0  0  0  0  0
  189.7550  177.6710  140.6130 N   0  0  0  0  0  0  0  0  0  0  0  0
  187.8740  177.6630  138.5050 C   0  0  0  0  0  3  0  0  0  0  0  0
  191.7570  176.5280  137.6770 N   0  0  0  0  0  0  0  0  0  0  0  0
  193.1060  176.1380  137.3880 C   0  0  0  0  0  0  0  0  0  0  0  0
  191.3900  176.9150  139.0160 C   0  0  0  0  0  3  0  0  0  0  0  0
  193.4690  175.7740  136.0960 O   0  0  0  0  0  0  0  0  0  0  0  0
  190.1380  177.2810  139.2920 C   0  0  0  0  0  0  0  0  0  0  0  0
  193.9750  176.1170  138.3010 O   0  0  0  0  0  1  0  0  0  0  0  0
  189.5120  176.8950  136.8610 C   0  0  0  0  0  3  0  0  0  0  0  0
  189.1250  177.2910  138.2220 C   0  0  2  0  0  3  0  0  0  0  0  0
  190.7760  176.5340  136.6220 C   0  0  0  0  0  3  0  0  0  0  0  0
  187.4920  178.0640  139.8790 C   0  0  0  0  0  0  0  0  0  0  0  0
  188.3990  178.0660  140.8660 C   0  0  0  0  0  3  0  0  0  0  0  0
  1 10  1  0  0  0  0
  1 17  2  0  0  0  0
  2 12  1  0  0  0  0
  4  8  2  0  0  0  0
  4  5  1  0  0  0  0
  5  1  1  0  0  0  0
  6  7  1  0  0  0  0
  6 10  2  0  0  0  0
  7 11  2  0  0  0  0
  8  6  1  0  0  0  0
  9  3  2  0  0  0  0
 10  9  1  0  0  0  0
 11  9  1  0  0  0  0
 13 18  1  0  0  0  0
 13 12  2  0  0  0  0
 14 13  1  0  0  0  0
 15  3  1  0  0  0  0
 15  2  2  0  0  0  0
 16 17  1  0  0  0  0
 16 14  2  0  0  0  0
 17 15  1  0  0  0  0
 18 20  1  0  0  0  0
 18 19  1  0  0  0  0
 20 19  1  0  0  0  0
 21  4  1  0  0  0  0
 22 34  2  0  0  0  0
 23 33  2  0  0  0  0
 24 26  1  0  0  0  0
 25 24  1  0  0  0  0
 25 29  1  0  0  0  0
 26 28  2  0  0  0  0
 27 25  2  0  0  0  0
 28 22  1  0  0  0  0
 31 30  1  6  0  0  0
 31 23  1  0  0  0  0
 31 28  1  0  0  0  0
 32 30  2  0  0  0  0
 32 24  1  0  0  0  0
 33 21  1  0  0  0  0
 33 34  1  0  0  0  0
M  END
>  <MODEL>
4

>  <REMARK>
 VINA RESULT:     -11.7      2.262      5.720
  Name = 
  3 active torsions:
  status: ('A' for Active; 'I' for Inactive)
    1  A    between atoms: N_3  and  C_25
    2  A    between atoms: C_8  and  C_18
    3  A    between atoms: C_18  and  C_30
                            x       y       z     vdW  Elec       q    Type
                         _______ _______ _______ _____ _____    ______ ____

>  <TORSDO>
F 3

$$$$
=
 OpenBabel10272415093D

 34 40  0  0  1  0  0  0  0  0999 V2000
  187.5840  177.8380  144.9590 C   0  0  0  0  0  0  0  0  0  0  0  0
  190.9020  176.7040  143.7110 C   0  0  0  0  0  3  0  0  0  0  0  0
  190.1380  177.0430  145.8600 C   0  0  0  0  0  3  0  0  0  0  0  0
  185.3300  178.6450  145.8350 C   0  0  0  0  0  0  0  0  0  0  0  0
  186.1760  178.2900  144.6110 C   0  0  0  0  0  3  0  0  0  0  0  0
  187.1360  178.0940  147.2820 C   0  0  0  0  0  0  0  0  0  0  0  0
  187.8570  177.9270  148.5870 C   0  0  0  0  0  2  0  0  0  0  0  0
  185.8000  178.5520  147.0540 N   0  0  0  0  0  0  0  0  0  0  0  0
  189.1340  177.4070  146.7480 C   0  0  0  0  0  0  0  0  0  0  0  0
  187.9250  177.7820  146.2950 C   0  0  0  0  0  0  0  0  0  0  0  0
  189.1910  177.4630  148.1690 N   0  0  0  0  0  0  0  0  0  0  0  0
  191.0580  176.5960  142.2580 C   0  0  0  0  0  3  0  0  0  0  0  0
  190.1870  176.8350  141.2850 C   0  0  0  0  0  0  0  0  0  0  0  0
  188.8080  177.2840  141.4720 C   0  0  0  0  0  3  0  0  0  0  0  0
  189.8690  177.0710  144.4710 C   0  0  0  0  0  0  0  0  0  0  0  0
  188.1460  177.5450  142.5920 C   0  0  0  0  0  3  0  0  0  0  0  0
  188.5690  177.4730  144.0030 C   0  0  0  0  0  0  0  0  0  0  0  0
  190.6290  176.6430  139.9470 N   0  0  0  0  0  0  0  0  0  0  0  0
  191.6410  176.7600  138.8570 C   0  0  0  0  0  2  0  0  0  0  0  0
  190.4360  176.1670  138.5460 C   0  0  0  0  0  2  0  0  0  0  0  0
  183.9480  179.1630  145.6270 C   0  0  0  0  0  2  0  0  0  0  0  0
  181.8020  178.5000  142.5850 N   0  0  0  0  0  0  0  0  0  0  0  0
  184.5360  178.9570  143.1330 C   0  0  0  0  0  3  0  0  0  0  0  0
  183.4020  178.2850  139.2200 N   0  0  0  0  0  0  0  0  0  0  0  0
  183.0100  178.0490  137.8610 C   0  0  0  0  0  0  0  0  0  0  0  0
  182.4110  178.2840  140.2660 C   0  0  0  0  0  3  0  0  0  0  0  0
  183.9620  178.0380  136.8480 O   0  0  0  0  0  0  0  0  0  0  0  0
  182.7690  178.5010  141.5320 C   0  0  0  0  0  0  0  0  0  0  0  0
  181.8000  177.8510  137.5700 O   0  0  0  0  0  1  0  0  0  0  0  0
  185.1850  178.7420  140.7860 C   0  0  0  0  0  3  0  0  0  0  0  0
  184.1850  178.7440  141.8630 C   0  0  2  0  0  3  0  0  0  0  0  0
  184.7900  178.5210  139.5290 C   0  0  0  0  0  3  0  0  0  0  0  0
  183.5220  178.9540  144.2140 C   0  0  0  0  0  0  0  0  0  0  0  0
  182.2300  178.7310  143.9350 C   0  0  0  0  0  3  0  0  0  0  0  0
  1 10  1  0  0  0  0
  2 15  1  0  0  0  0
  3  9  1  0  0  0  0
  4  8  2  0  0  0  0
  5  1  2  0  0  0  0
  5  4  1  0  0  0  0
  6  7  1  0  0  0  0
  8  6  1  0  0  0  0
  9 11  2  0  0  0  0
 10  9  1  0  0  0  0
 10  6  2  0  0  0  0
 11  7  1  0  0  0  0
 12  2  2  0  0  0  0
 13 14  2  0  0  0  0
 13 12  1  0  0  0  0
 14 16  1  0  0  0  0
 15  3  2  0  0  0  0
 16 17  2  0  0  0  0
 17 15  1  0  0  0  0
 17  1  1  0  0  0  0
 18 13  1  0  0  0  0
 19 18  1  0  0  0  0
 20 19  1  0  0  0  0
 20 18  1  0  0  0  0
 21  4  1  0  0  0  0
 22 34  2  0  0  0  0
 23 33  2  0  0  0  0
 24 32  1  0  0  0  0
 24 26  1  0  0  0  0
 25 24  1  0  0  0  0
 26 28  2  0  0  0  0
 27 25  2  0  0  0  0
 28 31  1  0  0  0  0
 28 22  1  0  0  0  0
 29 25  1  0  0  0  0
 31 30  1  1  0  0  0
 31 23  1  0  0  0  0
 32 30  2  0  0  0  0
 33 21  1  0  0  0  0
 34 33  1  0  0  0  0
M  END
>  <MODEL>
5

>  <REMARK>
 VINA RESULT:     -11.6      1.754      6.099
  Name = 
  3 active torsions:
  status: ('A' for Active; 'I' for Inactive)
    1  A    between atoms: N_3  and  C_25
    2  A    between atoms: C_8  and  C_18
    3  A    between atoms: C_18  and  C_30
                            x       y       z     vdW  Elec       q    Type
                         _______ _______ _______ _____ _____    ______ ____

>  <TORSDO>
F 3

$$$$
=
 OpenBabel10272415093D

 34 40  0  0  0  0  0  0  0  0999 V2000
  185.4340  178.3570  142.6900 C   0  0  0  0  0  0  0  0  0  0  0  0
  186.5080  177.7850  146.2070 C   0  0  0  0  0  3  0  0  0  0  0  0
  184.4450  178.3300  145.3330 C   0  0  0  0  0  3  0  0  0  0  0  0
  184.6830  178.7850  140.2910 C   0  0  0  0  0  0  0  0  0  0  0  0
  185.8350  178.4120  141.2250 C   0  0  0  0  0  2  0  0  0  0  0  0
  183.1900  178.9240  142.1380 C   0  0  0  0  0  0  0  0  0  0  0  0
  181.8880  179.1630  142.8450 C   0  0  0  0  0  3  0  0  0  0  0  0
  183.4760  179.0230  140.7390 N   0  0  0  0  0  0  0  0  0  0  0  0
  183.6220  178.6160  144.2520 C   0  0  0  0  0  0  0  0  0  0  0  0
  184.1160  178.6220  143.0010 C   0  0  0  0  0  0  0  0  0  0  0  0
  182.2370  178.9410  144.2590 N   0  0  0  0  0  0  0  0  0  0  0  0
  187.9180  177.4520  146.4200 C   0  0  0  0  0  3  0  0  0  0  0  0
  188.9040  177.3090  145.5420 C   0  0  0  0  0  0  0  0  0  0  0  0
  188.7800  177.4640  144.0930 C   0  0  0  0  0  3  0  0  0  0  0  0
  185.8100  178.0440  145.1000 C   0  0  0  0  0  0  0  0  0  0  0  0
  187.7150  177.7700  143.3620 C   0  0  0  0  0  3  0  0  0  0  0  0
  186.3230  178.0530  143.7550 C   0  0  0  0  0  0  0  0  0  0  0  0
  190.1920  176.9800  146.0490 N   0  0  0  0  0  0  0  0  0  0  0  0
  191.1740  176.8100  147.1590 C   0  0  0  0  0  2  0  0  0  0  0  0
  191.6070  176.5380  145.8790 C   0  0  0  0  0  2  0  0  0  0  0  0
  184.9590  178.9350  138.8340 C   0  0  0  0  0  2  0  0  0  0  0  0
  186.8950  176.1290  137.1990 N   0  0  0  0  0  2  0  0  0  0  0  0
  187.4360  178.2600  138.9730 C   0  0  0  0  0  3  0  0  0  0  0  0
  190.5350  175.7390  137.9290 N   0  0  0  0  0  0  0  0  0  0  0  0
  191.6110  174.8630  137.5700 C   0  0  0  0  0  0  0  0  0  0  0  0
  189.2170  175.5210  137.3890 C   0  0  0  0  0  3  0  0  0  0  0  0
  192.8830  175.0610  138.0950 O   0  0  0  0  0  1  0  0  0  0  0  0
  188.2110  176.3310  137.7200 C   0  0  0  0  0  0  0  0  0  0  0  0
  191.4170  173.9050  136.7740 O   0  0  0  0  0  0  0  0  0  0  0  0
  189.7980  177.6670  139.1860 C   0  0  0  0  0  3  0  0  0  0  0  0
  188.4490  177.4550  138.6430 C   0  0  0  0  0  0  0  0  0  0  0  0
  190.7820  176.8350  138.8320 C   0  0  0  0  0  3  0  0  0  0  0  0
  186.0780  178.0390  138.4230 C   0  0  0  0  0  0  0  0  0  0  0  0
  185.8390  177.0190  137.5860 C   0  0  0  0  0  3  0  0  0  0  0  0
  1 10  1  0  0  0  0
  1 17  2  0  0  0  0
  2 12  1  0  0  0  0
  4  8  2  0  0  0  0
  4  5  1  0  0  0  0
  5  1  1  0  0  0  0
  6  7  1  0  0  0  0
  6 10  2  0  0  0  0
  7 11  2  0  0  0  0
  8  6  1  0  0  0  0
  9 11  1  0  0  0  0
  9  3  2  0  0  0  0
 10  9  1  0  0  0  0
 13 18  1  0  0  0  0
 13 12  2  0  0  0  0
 14 13  1  0  0  0  0
 15  3  1  0  0  0  0
 15  2  2  0  0  0  0
 16 17  1  0  0  0  0
 16 14  2  0  0  0  0
 17 15  1  0  0  0  0
 18 19  1  0  0  0  0
 20 18  1  0  0  0  0
 20 19  1  0  0  0  0
 21  4  1  0  0  0  0
 22 34  1  0  0  0  0
 22 28  1  0  0  0  0
 24 32  1  0  0  0  0
 25 24  1  0  0  0  0
 25 27  1  0  0  0  0
 26 28  2  0  0  0  0
 26 24  1  0  0  0  0
 28 31  1  0  0  0  0
 29 25  2  0  0  0  0
 31 23  2  0  0  0  0
 31 30  1  0  0  0  0
 32 30  2  0  0  0  0
 33 21  1  0  0  0  0
 33 23  1  0  0  0  0
 34 33  2  0  0  0  0
M  END
>  <MODEL>
6

>  <REMARK>
 VINA RESULT:     -11.6      2.173      5.929
  Name = 
  3 active torsions:
  status: ('A' for Active; 'I' for Inactive)
    1  A    between atoms: N_3  and  C_25
    2  A    between atoms: C_8  and  C_18
    3  A    between atoms: C_18  and  C_30
                            x       y       z     vdW  Elec       q    Type
                         _______ _______ _______ _____ _____    ______ ____

>  <TORSDO>
F 3

$$$$
=
 OpenBabel10272415093D

 34 40  0  0  1  0  0  0  0  0999 V2000
  187.3380  177.9520  144.7180 C   0  0  0  0  0  0  0  0  0  0  0  0
  183.8160  178.7750  145.5980 C   0  0  0  0  0  3  0  0  0  0  0  0
  185.6770  178.4970  146.9330 C   0  0  0  0  0  3  0  0  0  0  0  0
  189.7490  177.3570  144.1410 C   0  0  0  0  0  0  0  0  0  0  0  0
  188.3390  177.6380  143.6180 C   0  0  0  0  0  3  0  0  0  0  0  0
  189.0280  177.7270  146.3770 C   0  0  0  0  0  0  0  0  0  0  0  0
  189.1520  177.8170  147.8700 C   0  0  0  0  0  2  0  0  0  0  0  0
  190.0370  177.3990  145.4170 N   0  0  0  0  0  0  0  0  0  0  0  0
  187.0290  178.2250  147.0880 C   0  0  0  0  0  0  0  0  0  0  0  0
  187.8010  177.9690  146.0170 C   0  0  0  0  0  0  0  0  0  0  0  0
  187.7830  178.1550  148.2930 N   0  0  0  0  0  0  0  0  0  0  0  0
  182.8660  178.8760  144.4880 C   0  0  0  0  0  3  0  0  0  0  0  0
  183.0580  178.7260  143.1830 C   0  0  0  0  0  0  0  0  0  0  0  0
  184.3340  178.4090  142.5430 C   0  0  0  0  0  3  0  0  0  0  0  0
  185.1220  178.5030  145.6310 C   0  0  0  0  0  0  0  0  0  0  0  0
  185.5270  178.2050  143.0870 C   0  0  0  0  0  3  0  0  0  0  0  0
  185.9620  178.2280  144.4960 C   0  0  0  0  0  0  0  0  0  0  0  0
  181.9290  178.8840  142.3320 N   0  0  0  0  0  0  0  0  0  0  0  0
  180.8080  179.6800  141.7520 C   0  0  0  0  0  2  0  0  0  0  0  0
  180.9490  178.3760  141.3280 C   0  0  0  0  0  2  0  0  0  0  0  0
  190.8120  176.9730  143.1680 C   0  0  0  0  0  2  0  0  0  0  0  0
  188.6930  178.0240  140.2180 N   0  0  0  0  0  0  0  0  0  0  0  0
  191.1440  176.6820  140.6350 C   0  0  0  0  0  3  0  0  0  0  0  0
  189.8210  177.1950  136.7580 N   0  0  0  0  0  0  0  0  0  0  0  0
  189.3610  177.3690  135.4110 C   0  0  0  0  0  0  0  0  0  0  0  0
  189.0370  177.6970  137.8580 C   0  0  0  0  0  3  0  0  0  0  0  0
  190.1070  176.8780  134.3460 O   0  0  0  0  0  0  0  0  0  0  0  0
  189.4580  177.5370  139.1130 C   0  0  0  0  0  0  0  0  0  0  0  0
  188.2780  177.9710  135.1790 O   0  0  0  0  0  1  0  0  0  0  0  0
  191.5210  176.3360  138.2450 C   0  0  0  0  0  3  0  0  0  0  0  0
  190.7310  176.8420  139.3760 C   0  0  2  0  0  3  0  0  0  0  0  0
  191.0680  176.5140  137.0010 C   0  0  0  0  0  3  0  0  0  0  0  0
  190.3410  177.1940  141.7710 C   0  0  0  0  0  0  0  0  0  0  0  0
  189.1780  177.8250  141.5540 C   0  0  0  0  0  3  0  0  0  0  0  0
  1 10  1  0  0  0  0
  2 15  1  0  0  0  0
  3  9  1  0  0  0  0
  4  8  2  0  0  0  0
  5  4  1  0  0  0  0
  5  1  2  0  0  0  0
  6  7  1  0  0  0  0
  7 11  1  0  0  0  0
  8  6  1  0  0  0  0
  9 11  2  0  0  0  0
 10  6  2  0  0  0  0
 10  9  1  0  0  0  0
 12  2  2  0  0  0  0
 13 12  1  0  0  0  0
 14 16  1  0  0  0  0
 14 13  2  0  0  0  0
 15  3  2  0  0  0  0
 16 17  2  0  0  0  0
 17  1  1  0  0  0  0
 17 15  1  0  0  0  0
 18 13  1  0  0  0  0
 19 18  1  0  0  0  0
 20 19  1  0  0  0  0
 20 18  1  0  0  0  0
 21  4  1  0  0  0  0
 22 34  2  0  0  0  0
 23 33  2  0  0  0  0
 24 32  1  0  0  0  0
 24 26  1  0  0  0  0
 25 24  1  0  0  0  0
 26 28  2  0  0  0  0
 27 25  2  0  0  0  0
 28 31  1  0  0  0  0
 28 22  1  0  0  0  0
 29 25  1  0  0  0  0
 31 30  1  1  0  0  0
 31 23  1  0  0  0  0
 32 30  2  0  0  0  0
 33 21  1  0  0  0  0
 34 33  1  0  0  0  0
M  END
>  <MODEL>
7

>  <REMARK>
 VINA RESULT:     -11.4      1.081      1.715
  Name = 
  3 active torsions:
  status: ('A' for Active; 'I' for Inactive)
    1  A    between atoms: N_3  and  C_25
    2  A    between atoms: C_8  and  C_18
    3  A    between atoms: C_18  and  C_30
                            x       y       z     vdW  Elec       q    Type
                         _______ _______ _______ _____ _____    ______ ____

>  <TORSDO>
F 3

$$$$
=
 OpenBabel10272415093D

 34 40  0  0  1  0  0  0  0  0999 V2000
  183.8840  178.6650  141.9300 C   0  0  0  0  0  0  0  0  0  0  0  0
  184.5570  178.3480  138.2830 C   0  0  0  0  0  3  0  0  0  0  0  0
  182.5680  178.5290  139.4380 C   0  0  0  0  0  3  0  0  0  0  0  0
  183.3980  178.8500  144.4260 C   0  0  0  0  0  0  0  0  0  0  0  0
  184.4630  178.7420  143.3330 C   0  0  0  0  0  2  0  0  0  0  0  0
  181.6710  178.8210  142.7910 C   0  0  0  0  0  0  0  0  0  0  0  0
  180.2640  178.8310  142.2700 C   0  0  0  0  0  3  0  0  0  0  0  0
  182.1190  178.8770  144.1490 N   0  0  0  0  0  0  0  0  0  0  0  0
  181.8630  178.6550  140.6260 C   0  0  0  0  0  0  0  0  0  0  0  0
  182.5110  178.7180  141.8030 C   0  0  0  0  0  0  0  0  0  0  0  0
  180.4530  178.7190  140.8130 N   0  0  0  0  0  0  0  0  0  0  0  0
  185.9610  178.2500  137.8780 C   0  0  0  0  0  3  0  0  0  0  0  0
  187.0660  178.2620  138.6150 C   0  0  0  0  0  0  0  0  0  0  0  0
  187.1130  178.3830  140.0710 C   0  0  0  0  0  3  0  0  0  0  0  0
  183.9810  178.4700  139.4810 C   0  0  0  0  0  0  0  0  0  0  0  0
  186.1210  178.4980  140.9450 C   0  0  0  0  0  3  0  0  0  0  0  0
  184.6610  178.5410  140.7470 C   0  0  0  0  0  0  0  0  0  0  0  0
  188.3090  178.1450  137.9340 N   0  0  0  0  0  0  0  0  0  0  0  0
  189.2890  178.5550  136.8870 C   0  0  0  0  0  2  0  0  0  0  0  0
  189.6430  177.5130  137.7170 C   0  0  0  0  0  2  0  0  0  0  0  0
  183.8330  178.8690  145.8520 C   0  0  0  0  0  2  0  0  0  0  0  0
  187.3470  178.4610  147.1880 N   0  0  0  0  0  0  0  0  0  0  0  0
  185.9370  177.8030  144.8290 C   0  0  0  0  0  3  0  0  0  0  0  0
  189.9400  176.8170  145.0650 N   0  0  0  0  0  0  0  0  0  0  0  0
  191.3300  176.4770  145.1450 C   0  0  0  0  0  0  0  0  0  0  0  0
  189.2960  177.4790  146.1710 C   0  0  0  0  0  3  0  0  0  0  0  0
  191.9610  175.8470  144.0780 O   0  0  0  0  0  0  0  0  0  0  0  0
  188.0030  177.8000  146.1040 C   0  0  0  0  0  0  0  0  0  0  0  0
  191.9950  176.7430  146.1820 O   0  0  0  0  0  1  0  0  0  0  0  0
  187.8990  176.8000  143.7710 C   0  0  0  0  0  3  0  0  0  0  0  0
  187.2300  177.4760  144.8910 C   0  0  2  0  0  3  0  0  0  0  0  0
  189.1950  176.4930  143.8750 C   0  0  0  0  0  3  0  0  0  0  0  0
  185.2700  178.4870  145.9620 C   0  0  0  0  0  0  0  0  0  0  0  0
  185.9560  178.7960  147.0720 C   0  0  0  0  0  3  0  0  0  0  0  0
  1  5  1  0  0  0  0
  2 15  1  0  0  0  0
  3 15  2  0  0  0  0
  3  9  1  0  0  0  0
  4 21  1  0  0  0  0
  5  4  1  0  0  0  0
  6  8  1  0  0  0  0
  7  6  2  0  0  0  0
  8  4  2  0  0  0  0
  9 11  2  0  0  0  0
  9 10  1  0  0  0  0
 10  1  2  0  0  0  0
 10  6  1  0  0  0  0
 11  7  1  0  0  0  0
 12  2  2  0  0  0  0
 12 13  1  0  0  0  0
 13 14  2  0  0  0  0
 14 16  1  0  0  0  0
 15 17  1  0  0  0  0
 17 16  2  0  0  0  0
 17  1  1  0  0  0  0
 18 13  1  0  0  0  0
 19 20  1  0  0  0  0
 19 18  1  0  0  0  0
 20 18  1  0  0  0  0
 21 33  1  0  0  0  0
 23 31  1  0  0  0  0
 23 33  2  0  0  0  0
 24 25  1  0  0  0  0
 24 26  1  0  0  0  0
 25 29  1  0  0  0  0
 27 25  2  0  0  0  0
 28 26  2  0  0  0  0
 28 22  1  0  0  0  0
 30 32  2  0  0  0  0
 31 30  1  6  0  0  0
 31 28  1  0  0  0  0
 32 24  1  0  0  0  0
 33 34  1  0  0  0  0
 34 22  2  0  0  0  0
M  END
>  <MODEL>
8

>  <REMARK>
 VINA RESULT:     -11.3      2.748      7.420
  Name = 
  3 active torsions:
  status: ('A' for Active; 'I' for Inactive)
    1  A    between atoms: N_3  and  C_25
    2  A    between atoms: C_8  and  C_18
    3  A    between atoms: C_18  and  C_30
                            x       y       z     vdW  Elec       q    Type
                         _______ _______ _______ _____ _____    ______ ____

>  <TORSDO>
F 3

$$$$
=
 OpenBabel10272415093D

 34 40  0  0  1  0  0  0  0  0999 V2000
  187.9540  177.9610  142.4350 C   0  0  0  0  0  0  0  0  0  0  0  0
  187.7900  177.4500  146.1180 C   0  0  0  0  0  3  0  0  0  0  0  0
  186.1510  178.0350  144.6050 C   0  0  0  0  0  3  0  0  0  0  0  0
  188.0490  178.3480  139.9160 C   0  0  0  0  0  0  0  0  0  0  0  0
  188.8160  177.9640  141.1830 C   0  0  0  0  0  2  0  0  0  0  0  0
  186.0390  178.5820  141.1660 C   0  0  0  0  0  0  0  0  0  0  0  0
  184.5870  178.8800  141.4010 C   0  0  0  0  0  3  0  0  0  0  0  0
  186.7720  178.6340  139.9380 N   0  0  0  0  0  0  0  0  0  0  0  0
  185.7410  178.3170  143.3090 C   0  0  0  0  0  0  0  0  0  0  0  0
  186.6180  178.2750  142.2900 C   0  0  0  0  0  0  0  0  0  0  0  0
  184.4430  178.6840  142.8540 N   0  0  0  0  0  0  0  0  0  0  0  0
  189.0390  177.0790  146.7880 C   0  0  0  0  0  3  0  0  0  0  0  0
  190.2520  176.8830  146.2860 C   0  0  0  0  0  0  0  0  0  0  0  0
  190.6170  177.0030  144.8740 C   0  0  0  0  0  3  0  0  0  0  0  0
  187.5060  177.7010  144.8390 C   0  0  0  0  0  0  0  0  0  0  0  0
  189.8640  177.3220  143.8290 C   0  0  0  0  0  3  0  0  0  0  0  0
  188.4320  177.6580  143.7380 C   0  0  0  0  0  0  0  0  0  0  0  0
  191.2880  176.5280  147.1930 N   0  0  0  0  0  0  0  0  0  0  0  0
  192.1990  176.8130  148.3410 C   0  0  0  0  0  2  0  0  0  0  0  0
  192.3070  175.5800  147.7330 C   0  0  0  0  0  2  0  0  0  0  0  0
  188.7950  178.4500  138.6290 C   0  0  0  0  0  2  0  0  0  0  0  0
  190.3220  175.3460  137.1030 N   0  0  0  0  0  0  0  0  0  0  0  0
  187.7290  176.3200  137.6620 C   0  0  0  0  0  3  0  0  0  0  0  0
  188.0930  172.6290  135.8450 N   0  0  0  0  0  0  0  0  0  0  0  0
  188.2180  171.3490  135.2120 C   0  0  0  0  0  0  0  0  0  0  0  0
  189.2730  173.3860  136.1790 C   0  0  0  0  0  3  0  0  0  0  0  0
  187.0840  170.6190  134.8770 O   0  0  0  0  0  0  0  0  0  0  0  0
  189.1640  174.5780  136.7670 C   0  0  0  0  0  0  0  0  0  0  0  0
  189.3560  170.8720  134.9530 O   0  0  0  0  0  1  0  0  0  0  0  0
  186.6360  174.3410  136.7310 C   0  0  0  0  0  3  0  0  0  0  0  0
  187.8300  175.1240  137.0760 C   0  0  2  0  0  3  0  0  0  0  0  0
  186.7830  173.1510  136.1430 C   0  0  0  0  0  3  0  0  0  0  0  0
  188.9390  177.1040  138.0050 C   0  0  0  0  0  0  0  0  0  0  0  0
  190.1620  176.6280  137.7280 C   0  0  0  0  0  3  0  0  0  0  0  0
  1 17  2  0  0  0  0
  2 12  1  0  0  0  0
  3 15  1  0  0  0  0
  4  8  2  0  0  0  0
  4  5  1  0  0  0  0
  5  1  1  0  0  0  0
  6  7  1  0  0  0  0
  6 10  2  0  0  0  0
  7 11  2  0  0  0  0
  8  6  1  0  0  0  0
  9  3  2  0  0  0  0
 10  1  1  0  0  0  0
 10  9  1  0  0  0  0
 11  9  1  0  0  0  0
 13 12  2  0  0  0  0
 13 18  1  0  0  0  0
 14 13  1  0  0  0  0
 15  2  2  0  0  0  0
 16 14  2  0  0  0  0
 17 16  1  0  0  0  0
 17 15  1  0  0  0  0
 18 20  1  0  0  0  0
 18 19  1  0  0  0  0
 20 19  1  0  0  0  0
 21  4  1  0  0  0  0
 22 34  2  0  0  0  0
 23 33  2  0  0  0  0
 24 32  1  0  0  0  0
 24 26  1  0  0  0  0
 25 24  1  0  0  0  0
 26 28  2  0  0  0  0
 27 25  2  0  0  0  0
 28 31  1  0  0  0  0
 28 22  1  0  0  0  0
 29 25  1  0  0  0  0
 31 30  1  6  0  0  0
 31 23  1  0  0  0  0
 32 30  2  0  0  0  0
 33 21  1  0  0  0  0
 34 33  1  0  0  0  0
M  END
>  <MODEL>
9

>  <REMARK>
 VINA RESULT:     -11.3      3.373      6.370
  Name = 
  3 active torsions:
  status: ('A' for Active; 'I' for Inactive)
    1  A    between atoms: N_3  and  C_25
    2  A    between atoms: C_8  and  C_18
    3  A    between atoms: C_18  and  C_30
                            x       y       z     vdW  Elec       q    Type
                         _______ _______ _______ _____ _____    ______ ____

>  <TORSDO>
F 3

$$$$
