=
 OpenBabel10272414153D

 43 46  0  0  1  0  0  0  0  0999 V2000
  188.8490  175.8750  135.8820 C   0  0  0  0  0  0  0  0  0  0  0  0
  187.5620  175.3290  136.2280 N   0  0  0  0  0  0  0  0  0  0  0  0
  189.1930  175.8930  134.6630 O   0  0  0  0  0  0  0  0  0  0  0  0
  189.7300  176.4280  136.8850 N   0  0  0  0  0  0  0  0  0  0  0  0
  188.6970  178.6960  139.7620 C   0  0  0  0  0  2  0  0  0  0  0  0
  189.3450  177.9380  140.8830 C   0  0  0  0  0  0  0  0  0  0  0  0
  190.5050  175.9980  141.8150 C   0  0  0  0  0  3  0  0  0  0  0  0
  189.2860  178.3590  138.4000 C   0  0  2  0  0  3  0  0  0  0  0  0
  189.1440  178.4840  142.2690 C   0  0  0  0  0  2  0  0  0  0  0  0
  190.0850  176.1330  139.3160 C   0  0  0  0  0  2  0  0  0  0  0  0
  188.4330  179.0300  137.3410 C   0  0  0  0  0  1  0  0  0  0  0  0
  189.9970  177.8280  143.2600 N   0  0  0  0  0  0  0  0  0  0  0  0
  189.2820  176.8420  138.2190 C   0  0  2  0  0  3  0  0  0  0  0  0
  190.5490  176.5330  143.0300 C   0  0  0  0  0  3  0  0  0  0  0  0
  189.9070  176.7270  140.6870 C   0  0  0  0  0  0  0  0  0  0  0  0
  190.1130  178.4240  144.5820 C   0  0  0  0  0  2  0  0  0  0  0  0
  191.1980  177.7200  145.3760 C   0  0  0  0  0  2  0  0  0  0  0  0
  190.6280  177.1070  146.5560 N   0  0  0  0  0  2  0  0  0  0  0  0
  189.3000  177.6750  146.7260 C   0  0  0  0  0  2  0  0  0  0  0  0
  187.7430  178.5950  148.3420 N   0  0  0  0  0  1  0  0  0  0  0  0
  189.0320  177.9570  148.1900 C   0  0  0  0  0  2  0  0  0  0  0  0
  183.4970  176.8550  135.2330 C   0  0  0  0  0  0  0  0  0  0  0  0
  184.5820  177.2520  137.4280 C   0  0  0  0  0  3  0  0  0  0  0  0
  184.7370  177.1780  134.4790 C   0  0  0  0  0  2  0  0  0  0  0  0
  182.0370  176.4840  134.3500 Cl  0  0  0  0  0  0  0  0  0  0  0  0
  186.3900  176.1520  136.0440 C   0  0  0  0  0  0  0  0  0  0  0  0
  183.4350  176.9600  136.5550 C   0  0  0  0  0  3  0  0  0  0  0  0
  185.8590  176.2590  134.8240 C   0  0  0  0  0  3  0  0  0  0  0  0
  185.8580  176.9070  137.2040 C   0  0  0  0  0  3  0  0  0  0  0  0
  191.0700  176.8500  136.5080 C   0  0  0  0  0  2  0  0  0  0  0  0
  193.7190  174.1810  136.1030 C   0  0  0  0  0  2  0  0  0  0  0  0
  194.6050  175.4310  136.9550 S   0  0  0  0  0  0  0  0  0  0  0  0
  195.2870  174.8670  138.1770 O   0  0  0  0  0  0  0  0  0  0  0  0
  193.2990  176.7220  138.8000 C   0  0  0  0  0  1  0  0  0  0  0  0
  192.3670  174.8260  135.8670 C   0  0  0  0  0  2  0  0  0  0  0  0
  192.1020  175.8390  136.9760 C   0  0  1  0  0  3  0  0  0  0  0  0
  195.6050  176.0930  136.0420 O   0  0  0  0  0  0  0  0  0  0  0  0
  193.3290  176.5350  137.3540 N   0  0  0  0  0  0  0  0  0  0  0  0
  187.4650  174.0430  136.9490 C   0  0  2  0  0  3  0  0  0  0  0  0
  188.6650  173.2910  136.9200 O   0  0  0  0  0  0  0  0  0  0  0  0
  188.6540  172.4470  135.7960 C   0  0  0  0  0  1  0  0  0  0  0  0
  186.2440  173.2190  136.5320 C   0  0  0  0  0  2  0  0  0  0  0  0
  185.4130  172.8620  137.7520 C   0  0  0  0  0  1  0  0  0  0  0  0
  1  2  1  0  0  0  0
  1  4  1  0  0  0  0
  2 39  1  0  0  0  0
  3  1  2  0  0  0  0
  5  6  1  0  0  0  0
  6  9  1  0  0  0  0
  7 14  2  0  0  0  0
  8 11  1  6  0  0  0
  8  5  1  0  0  0  0
  9 12  1  0  0  0  0
 10 15  1  0  0  0  0
 12 16  1  0  0  0  0
 13  4  1  6  0  0  0
 13  8  1  0  0  0  0
 13 10  1  0  0  0  0
 14 12  1  0  0  0  0
 15  6  2  0  0  0  0
 15  7  1  0  0  0  0
 16 17  1  0  0  0  0
 17 18  1  0  0  0  0
 18 19  1  0  0  0  0
 19 21  1  0  0  0  0
 21 20  1  0  0  0  0
 22 27  2  0  0  0  0
 24 28  1  0  0  0  0
 24 22  1  0  0  0  0
 25 22  1  0  0  0  0
 26  2  1  0  0  0  0
 26 29  1  0  0  0  0
 27 23  1  0  0  0  0
 28 26  2  0  0  0  0
 29 23  2  0  0  0  0
 30  4  1  0  0  0  0
 31 32  1  0  0  0  0
 32 38  1  0  0  0  0
 32 33  2  0  0  0  0
 35 31  1  0  0  0  0
 35 36  1  0  0  0  0
 36 30  1  6  0  0  0
 36 38  1  0  0  0  0
 37 32  2  0  0  0  0
 38 34  1  0  0  0  0
 39 42  1  6  0  0  0
 40 39  1  0  0  0  0
 41 40  1  0  0  0  0
 42 43  1  0  0  0  0
M  END
>  <MODEL>
1

>  <REMARK>
 VINA RESULT:      -6.0      0.000      0.000
  Name = 
  12 active torsions:
  status: ('A' for Active; 'I' for Inactive)
    1  A    between atoms: C_1  and  N_34
    2  A    between atoms: C_1  and  C_35
    3  A    between atoms: O_2  and  C_27
    4  A    between atoms: C_6  and  C_27
    5  A    between atoms: C_11  and  N_22
    6  A    between atoms: C_11  and  C_36
    7  A    between atoms: C_21  and  N_30
    8  A    between atoms: C_27  and  N_30
    9  A    between atoms: N_29  and  C_31
   10  A    between atoms: N_29  and  C_36
   11  A    between atoms: C_31  and  C_40
   12  A    between atoms: N_34  and  C_38
                            x       y       z     vdW  Elec       q    Type
                         _______ _______ _______ _____ _____    ______ ____

>  <TORSDO>
F 12

$$$$
=
 OpenBabel10272414153D

 43 46  0  0  1  0  0  0  0  0999 V2000
  186.3320  175.8270  135.8090 C   0  0  0  0  0  0  0  0  0  0  0  0
  185.4300  174.9990  136.5680 N   0  0  0  0  0  0  0  0  0  0  0  0
  186.1250  175.9710  134.5670 O   0  0  0  0  0  0  0  0  0  0  0  0
  187.4340  176.5180  136.4370 N   0  0  0  0  0  0  0  0  0  0  0  0
  187.0920  178.3090  139.7790 C   0  0  0  0  0  2  0  0  0  0  0  0
  188.3860  177.8690  140.3970 C   0  0  0  0  0  0  0  0  0  0  0  0
  190.4230  176.5180  140.4570 C   0  0  0  0  0  3  0  0  0  0  0  0
  187.0860  178.1820  138.2620 C   0  0  2  0  0  3  0  0  0  0  0  0
  188.6530  178.3340  141.8020 C   0  0  0  0  0  2  0  0  0  0  0  0
  188.9140  176.4310  138.4190 C   0  0  0  0  0  2  0  0  0  0  0  0
  185.6790  178.4650  137.7730 C   0  0  0  0  0  1  0  0  0  0  0  0
  190.0250  178.0630  142.2310 N   0  0  0  0  0  0  0  0  0  0  0  0
  187.5190  176.7670  137.8810 C   0  0  2  0  0  3  0  0  0  0  0  0
  190.8200  177.0590  141.6040 C   0  0  0  0  0  3  0  0  0  0  0  0
  189.1760  176.9480  139.8070 C   0  0  0  0  0  0  0  0  0  0  0  0
  190.5080  178.6900  143.4520 C   0  0  0  0  0  2  0  0  0  0  0  0
  189.8260  178.0710  144.6590 C   0  0  0  0  0  2  0  0  0  0  0  0
  190.7820  177.8900  145.7280 N   0  0  0  0  0  2  0  0  0  0  0  0
  190.7100  176.4920  146.1260 C   0  0  0  0  0  2  0  0  0  0  0  0
  192.1790  176.7820  148.0330 N   0  0  0  0  0  1  0  0  0  0  0  0
  192.0030  176.0670  146.7880 C   0  0  0  0  0  2  0  0  0  0  0  0
  182.1950  177.2820  138.6070 C   0  0  0  0  0  0  0  0  0  0  0  0
  182.4220  177.1850  136.1390 C   0  0  0  0  0  3  0  0  0  0  0  0
  182.4350  175.8230  138.7610 C   0  0  0  0  0  2  0  0  0  0  0  0
  181.8300  178.2370  140.0230 Cl  0  0  0  0  0  0  0  0  0  0  0  0
  184.1610  175.5520  136.9760 C   0  0  0  0  0  0  0  0  0  0  0  0
  182.1280  177.8590  137.4140 C   0  0  0  0  0  3  0  0  0  0  0  0
  183.7750  175.4180  138.2470 C   0  0  0  0  0  3  0  0  0  0  0  0
  183.2960  176.1860  135.9520 C   0  0  0  0  0  3  0  0  0  0  0  0
  188.3920  177.2380  135.6130 C   0  0  0  0  0  2  0  0  0  0  0  0
  191.7870  175.7100  136.2780 C   0  0  0  0  0  2  0  0  0  0  0  0
  190.7770  174.2830  136.1530 S   0  0  0  0  0  0  0  0  0  0  0  0
  191.3580  173.2990  135.1680 O   0  0  0  0  0  0  0  0  0  0  0  0
  188.9060  174.3450  134.3460 C   0  0  0  0  0  1  0  0  0  0  0  0
  190.7880  176.8450  136.1550 C   0  0  0  0  0  2  0  0  0  0  0  0
  189.6040  176.3710  135.3190 C   0  0  1  0  0  3  0  0  0  0  0  0
  190.5930  173.6410  137.5050 O   0  0  0  0  0  0  0  0  0  0  0  0
  189.2850  174.9740  135.6050 N   0  0  0  0  0  0  0  0  0  0  0  0
  185.8800  173.6940  137.0950 C   0  0  2  0  0  3  0  0  0  0  0  0
  187.2870  173.5920  137.2170 O   0  0  0  0  0  0  0  0  0  0  0  0
  187.6560  172.2350  137.1870 C   0  0  0  0  0  1  0  0  0  0  0  0
  185.2660  172.5070  136.3460 C   0  0  0  0  0  2  0  0  0  0  0  0
  183.9780  172.0720  137.0220 C   0  0  0  0  0  1  0  0  0  0  0  0
  1  4  1  0  0  0  0
  1  2  1  0  0  0  0
  2 26  1  0  0  0  0
  2 39  1  0  0  0  0
  3  1  2  0  0  0  0
  5  6  1  0  0  0  0
  6  9  1  0  0  0  0
  7 14  2  0  0  0  0
  8 11  1  1  0  0  0
  8  5  1  0  0  0  0
  9 12  1  0  0  0  0
 10 15  1  0  0  0  0
 12 16  1  0  0  0  0
 13  4  1  6  0  0  0
 13  8  1  0  0  0  0
 13 10  1  0  0  0  0
 14 12  1  0  0  0  0
 15  6  2  0  0  0  0
 15  7  1  0  0  0  0
 16 17  1  0  0  0  0
 17 18  1  0  0  0  0
 18 19  1  0  0  0  0
 19 21  1  0  0  0  0
 21 20  1  0  0  0  0
 22 24  1  0  0  0  0
 22 25  1  0  0  0  0
 23 27  1  0  0  0  0
 26 28  2  0  0  0  0
 27 22  2  0  0  0  0
 28 24  1  0  0  0  0
 29 23  2  0  0  0  0
 29 26  1  0  0  0  0
 30  4  1  0  0  0  0
 32 31  1  0  0  0  0
 32 37  2  0  0  0  0
 33 32  2  0  0  0  0
 34 38  1  0  0  0  0
 35 31  1  0  0  0  0
 36 38  1  0  0  0  0
 36 30  1  1  0  0  0
 36 35  1  0  0  0  0
 38 32  1  0  0  0  0
 39 42  1  6  0  0  0
 39 40  1  0  0  0  0
 41 40  1  0  0  0  0
 42 43  1  0  0  0  0
M  END
>  <MODEL>
2

>  <REMARK>
 VINA RESULT:      -4.8      2.327      3.064
  Name = 
  12 active torsions:
  status: ('A' for Active; 'I' for Inactive)
    1  A    between atoms: C_1  and  N_34
    2  A    between atoms: C_1  and  C_35
    3  A    between atoms: O_2  and  C_27
    4  A    between atoms: C_6  and  C_27
    5  A    between atoms: C_11  and  N_22
    6  A    between atoms: C_11  and  C_36
    7  A    between atoms: C_21  and  N_30
    8  A    between atoms: C_27  and  N_30
    9  A    between atoms: N_29  and  C_31
   10  A    between atoms: N_29  and  C_36
   11  A    between atoms: C_31  and  C_40
   12  A    between atoms: N_34  and  C_38
                            x       y       z     vdW  Elec       q    Type
                         _______ _______ _______ _____ _____    ______ ____

>  <TORSDO>
F 12

$$$$
=
 OpenBabel10272414153D

 43 46  0  0  1  0  0  0  0  0999 V2000
  186.3430  177.4190  136.9380 C   0  0  0  0  0  0  0  0  0  0  0  0
  185.4110  176.3600  137.2330 N   0  0  0  0  0  0  0  0  0  0  0  0
  186.2450  178.0220  135.8280 O   0  0  0  0  0  0  0  0  0  0  0  0
  187.3520  177.8230  137.8900 N   0  0  0  0  0  0  0  0  0  0  0  0
  186.6190  178.2050  141.6050 C   0  0  0  0  0  2  0  0  0  0  0  0
  187.8720  177.5780  142.1420 C   0  0  0  0  0  0  0  0  0  0  0  0
  189.9590  176.3280  141.8970 C   0  0  0  0  0  3  0  0  0  0  0  0
  186.7570  178.6640  140.1610 C   0  0  2  0  0  3  0  0  0  0  0  0
  187.9860  177.4760  143.6380 C   0  0  0  0  0  2  0  0  0  0  0  0
  188.6480  177.0060  139.8330 C   0  0  0  0  0  2  0  0  0  0  0  0
  185.3880  179.0960  139.6730 C   0  0  0  0  0  1  0  0  0  0  0  0
  189.3250  177.0780  144.0720 N   0  0  0  0  0  0  0  0  0  0  0  0
  187.2920  177.5060  139.3210 C   0  0  2  0  0  3  0  0  0  0  0  0
  190.2220  176.3970  143.1980 C   0  0  0  0  0  3  0  0  0  0  0  0
  188.7570  176.9590  141.3330 C   0  0  0  0  0  0  0  0  0  0  0  0
  189.6630  177.1990  145.4820 C   0  0  0  0  0  2  0  0  0  0  0  0
  188.7310  178.1900  146.1560 C   0  0  0  0  0  2  0  0  0  0  0  0
  188.6600  177.9140  147.5740 N   0  0  0  0  0  2  0  0  0  0  0  0
  187.2490  177.8630  147.9240 C   0  0  0  0  0  2  0  0  0  0  0  0
  185.1590  178.2210  146.7470 N   0  0  0  0  0  1  0  0  0  0  0  0
  186.4530  178.7980  147.0380 C   0  0  0  0  0  2  0  0  0  0  0  0
  181.9350  177.9290  139.5330 C   0  0  0  0  0  0  0  0  0  0  0  0
  182.2140  178.3030  137.0970 C   0  0  0  0  0  3  0  0  0  0  0  0
  182.3110  176.4950  139.4310 C   0  0  0  0  0  2  0  0  0  0  0  0
  181.4540  178.5730  141.0840 Cl  0  0  0  0  0  0  0  0  0  0  0  0
  184.0870  176.7110  137.6880 C   0  0  0  0  0  0  0  0  0  0  0  0
  181.8340  178.7050  138.4610 C   0  0  0  0  0  3  0  0  0  0  0  0
  183.6930  176.3140  138.9000 C   0  0  0  0  0  3  0  0  0  0  0  0
  183.1830  177.4390  136.7650 C   0  0  0  0  0  3  0  0  0  0  0  0
  188.3510  178.8060  137.5000 C   0  0  0  0  0  2  0  0  0  0  0  0
  191.4760  176.6980  137.8090 C   0  0  0  0  0  2  0  0  0  0  0  0
  190.5650  175.8050  136.6070 S   0  0  0  0  0  0  0  0  0  0  0  0
  191.4080  175.5380  135.3850 O   0  0  0  0  0  0  0  0  0  0  0  0
  189.2440  177.2210  134.8680 C   0  0  0  0  0  1  0  0  0  0  0  0
  190.5220  177.8130  138.1970 C   0  0  0  0  0  2  0  0  0  0  0  0
  189.6150  178.1220  137.0110 C   0  0  1  0  0  3  0  0  0  0  0  0
  190.0400  174.5160  137.1860 O   0  0  0  0  0  0  0  0  0  0  0  0
  189.2600  176.9010  136.2910 N   0  0  0  0  0  0  0  0  0  0  0  0
  185.8650  174.9540  137.2710 C   0  0  2  0  0  3  0  0  0  0  0  0
  187.0830  174.7390  136.5810 O   0  0  0  0  0  0  0  0  0  0  0  0
  186.8040  174.2440  135.2950 C   0  0  0  0  0  1  0  0  0  0  0  0
  184.7710  173.9650  136.8580 C   0  0  0  0  0  2  0  0  0  0  0  0
  184.7360  172.7930  137.8220 C   0  0  0  0  0  1  0  0  0  0  0  0
  1  2  1  0  0  0  0
  1  4  1  0  0  0  0
  2 39  1  0  0  0  0
  2 26  1  0  0  0  0
  3  1  2  0  0  0  0
  5  6  1  0  0  0  0
  6  9  1  0  0  0  0
  7 14  2  0  0  0  0
  8 11  1  6  0  0  0
  8  5  1  0  0  0  0
  9 12  1  0  0  0  0
 10 15  1  0  0  0  0
 12 16  1  0  0  0  0
 13  4  1  6  0  0  0
 13 10  1  0  0  0  0
 13  8  1  0  0  0  0
 14 12  1  0  0  0  0
 15  7  1  0  0  0  0
 15  6  2  0  0  0  0
 16 17  1  0  0  0  0
 17 18  1  0  0  0  0
 18 19  1  0  0  0  0
 20 21  1  0  0  0  0
 21 19  1  0  0  0  0
 22 25  1  0  0  0  0
 23 27  1  0  0  0  0
 24 22  1  0  0  0  0
 26 28  2  0  0  0  0
 27 22  2  0  0  0  0
 28 24  1  0  0  0  0
 29 23  2  0  0  0  0
 29 26  1  0  0  0  0
 30  4  1  0  0  0  0
 31 35  1  0  0  0  0
 32 37  2  0  0  0  0
 32 31  1  0  0  0  0
 33 32  2  0  0  0  0
 34 38  1  0  0  0  0
 36 30  1  1  0  0  0
 36 35  1  0  0  0  0
 38 32  1  0  0  0  0
 38 36  1  0  0  0  0
 39 42  1  6  0  0  0
 40 39  1  0  0  0  0
 41 40  1  0  0  0  0
 42 43  1  0  0  0  0
M  END
>  <MODEL>
3

>  <REMARK>
 VINA RESULT:      -4.3      2.375      3.363
  Name = 
  12 active torsions:
  status: ('A' for Active; 'I' for Inactive)
    1  A    between atoms: C_1  and  N_34
    2  A    between atoms: C_1  and  C_35
    3  A    between atoms: O_2  and  C_27
    4  A    between atoms: C_6  and  C_27
    5  A    between atoms: C_11  and  N_22
    6  A    between atoms: C_11  and  C_36
    7  A    between atoms: C_21  and  N_30
    8  A    between atoms: C_27  and  N_30
    9  A    between atoms: N_29  and  C_31
   10  A    between atoms: N_29  and  C_36
   11  A    between atoms: C_31  and  C_40
   12  A    between atoms: N_34  and  C_38
                            x       y       z     vdW  Elec       q    Type
                         _______ _______ _______ _____ _____    ______ ____

>  <TORSDO>
F 12

$$$$
=
 OpenBabel10272414153D

 43 46  0  0  1  0  0  0  0  0999 V2000
  182.1500  177.7520  136.1560 C   0  0  0  0  0  0  0  0  0  0  0  0
  183.2330  176.8170  135.9880 N   0  0  0  0  0  0  0  0  0  0  0  0
  181.3520  177.9380  135.1890 O   0  0  0  0  0  0  0  0  0  0  0  0
  181.9380  178.4470  137.4050 N   0  0  0  0  0  0  0  0  0  0  0  0
  182.1740  177.5900  141.1070 C   0  0  0  0  0  2  0  0  0  0  0  0
  183.5530  178.1190  141.3670 C   0  0  0  0  0  0  0  0  0  0  0  0
  185.7050  179.0340  140.6540 C   0  0  0  0  0  3  0  0  0  0  0  0
  181.5410  178.1750  139.8530 C   0  0  2  0  0  3  0  0  0  0  0  0
  184.0900  177.9410  142.7600 C   0  0  0  0  0  2  0  0  0  0  0  0
  183.8530  178.7010  138.9520 C   0  0  0  0  0  2  0  0  0  0  0  0
  180.2470  177.4300  139.5880 C   0  0  0  0  0  1  0  0  0  0  0  0
  185.3260  178.6900  142.9850 N   0  0  0  0  0  0  0  0  0  0  0  0
  182.5110  178.0110  138.6840 C   0  0  2  0  0  3  0  0  0  0  0  0
  186.1570  179.1030  141.9020 C   0  0  0  0  0  3  0  0  0  0  0  0
  184.3470  178.5510  140.3650 C   0  0  0  0  0  0  0  0  0  0  0  0
  185.8140  178.8340  144.3480 C   0  0  0  0  0  2  0  0  0  0  0  0
  186.6250  177.6120  144.7410 C   0  0  0  0  0  2  0  0  0  0  0  0
  187.9990  177.7750  144.3220 N   0  0  0  0  0  2  0  0  0  0  0  0
  188.4400  176.4870  143.8110 C   0  0  0  0  0  2  0  0  0  0  0  0
  190.3150  175.2910  142.8440 N   0  0  0  0  0  1  0  0  0  0  0  0
  189.8350  176.5990  143.2330 C   0  0  0  0  0  2  0  0  0  0  0  0
  181.3550  172.8680  136.8350 C   0  0  0  0  0  0  0  0  0  0  0  0
  182.3980  173.4210  134.6530 C   0  0  0  0  0  3  0  0  0  0  0  0
  182.4800  173.4600  137.6060 C   0  0  0  0  0  2  0  0  0  0  0  0
  180.0490  172.0910  137.6960 Cl  0  0  0  0  0  0  0  0  0  0  0  0
  182.9550  175.4060  136.1160 C   0  0  0  0  0  0  0  0  0  0  0  0
  181.3730  172.8040  135.5090 C   0  0  0  0  0  3  0  0  0  0  0  0
  182.6540  174.9130  137.3190 C   0  0  0  0  0  3  0  0  0  0  0  0
  183.0840  174.5420  134.9180 C   0  0  0  0  0  3  0  0  0  0  0  0
  180.9130  179.4750  137.4890 C   0  0  0  0  0  2  0  0  0  0  0  0
  180.7540  182.8200  135.7320 C   0  0  0  0  0  2  0  0  0  0  0  0
  181.1660  183.3000  137.3670 S   0  0  0  0  0  0  0  0  0  0  0  0
  182.3740  184.2030  137.3720 O   0  0  0  0  0  0  0  0  0  0  0  0
  182.8350  181.7600  138.6380 C   0  0  0  0  0  1  0  0  0  0  0  0
  180.5710  181.3190  135.8550 C   0  0  0  0  0  2  0  0  0  0  0  0
  181.4470  180.8070  136.9930 C   0  0  1  0  0  3  0  0  0  0  0  0
  179.9930  183.9700  138.0360 O   0  0  0  0  0  0  0  0  0  0  0  0
  181.4800  181.7600  138.1000 N   0  0  0  0  0  0  0  0  0  0  0  0
  184.6270  177.2980  135.8980 C   0  0  2  0  0  3  0  0  0  0  0  0
  185.1130  177.3650  134.5700 O   0  0  0  0  0  0  0  0  0  0  0  0
  186.2520  178.1890  134.5350 C   0  0  0  0  0  1  0  0  0  0  0  0
  185.5770  176.5450  136.8350 C   0  0  0  0  0  2  0  0  0  0  0  0
  186.4010  175.5420  136.0470 C   0  0  0  0  0  1  0  0  0  0  0  0
  1  4  1  0  0  0  0
  2 26  1  0  0  0  0
  2  1  1  0  0  0  0
  3  1  2  0  0  0  0
  4 30  1  0  0  0  0
  5  6  1  0  0  0  0
  6  9  1  0  0  0  0
  7 14  2  0  0  0  0
  8 11  1  6  0  0  0
  8  5  1  0  0  0  0
  9 12  1  0  0  0  0
 10 15  1  0  0  0  0
 12 16  1  0  0  0  0
 13  4  1  6  0  0  0
 13 10  1  0  0  0  0
 13  8  1  0  0  0  0
 14 12  1  0  0  0  0
 15  7  1  0  0  0  0
 15  6  2  0  0  0  0
 16 17  1  0  0  0  0
 18 17  1  0  0  0  0
 19 18  1  0  0  0  0
 20 21  1  0  0  0  0
 21 19  1  0  0  0  0
 22 24  1  0  0  0  0
 22 25  1  0  0  0  0
 23 29  2  0  0  0  0
 23 27  1  0  0  0  0
 26 28  2  0  0  0  0
 27 22  2  0  0  0  0
 28 24  1  0  0  0  0
 29 26  1  0  0  0  0
 31 35  1  0  0  0  0
 31 32  1  0  0  0  0
 32 33  2  0  0  0  0
 32 37  2  0  0  0  0
 32 38  1  0  0  0  0
 35 36  1  0  0  0  0
 36 30  1  1  0  0  0
 36 38  1  0  0  0  0
 38 34  1  0  0  0  0
 39  2  1  0  0  0  0
 39 42  1  1  0  0  0
 40 39  1  0  0  0  0
 41 40  1  0  0  0  0
 43 42  1  0  0  0  0
M  END
>  <MODEL>
4

>  <REMARK>
 VINA RESULT:      -4.0      5.300      8.180
  Name = 
  12 active torsions:
  status: ('A' for Active; 'I' for Inactive)
    1  A    between atoms: C_1  and  N_34
    2  A    between atoms: C_1  and  C_35
    3  A    between atoms: O_2  and  C_27
    4  A    between atoms: C_6  and  C_27
    5  A    between atoms: C_11  and  N_22
    6  A    between atoms: C_11  and  C_36
    7  A    between atoms: C_21  and  N_30
    8  A    between atoms: C_27  and  N_30
    9  A    between atoms: N_29  and  C_31
   10  A    between atoms: N_29  and  C_36
   11  A    between atoms: C_31  and  C_40
   12  A    between atoms: N_34  and  C_38
                            x       y       z     vdW  Elec       q    Type
                         _______ _______ _______ _____ _____    ______ ____

>  <TORSDO>
F 12

$$$$
