=
 OpenBabel10272400163D

 31 33  0  0  1  0  0  0  0  0999 V2000
  188.2800  177.6770  147.9890 C   0  0  0  0  0  0  0  0  0  0  0  0
  186.5110  177.6820  144.5930 C   0  0  2  0  0  3  0  0  0  0  0  0
  185.3050  178.5630  144.8290 C   0  0  0  0  0  0  0  0  0  0  0  0
  187.5810  177.6550  145.6620 C   0  0  0  0  0  0  0  0  0  0  0  0
  189.5760  177.3190  147.6080 C   0  0  0  0  0  3  0  0  0  0  0  0
  185.2100  179.2890  145.8090 O   0  0  0  0  0  0  0  0  0  0  0  0
  188.3760  177.2940  142.9360 C   0  0  0  0  0  0  0  0  0  0  0  0
  187.9720  177.8760  149.3630 N   0  0  0  0  0  1  0  0  0  0  0  0
  184.8490  178.7680  142.3870 C   0  0  0  0  0  2  0  0  0  0  0  0
  189.1890  176.9980  143.9110 N   0  0  0  0  0  0  0  0  0  0  0  0
  187.0970  178.0410  143.2180 C   0  0  1  0  0  3  0  0  0  0  0  0
  187.2830  177.8250  147.0230 C   0  0  0  0  0  3  0  0  0  0  0  0
  188.8830  177.2670  145.2870 C   0  0  0  0  0  0  0  0  0  0  0  0
  189.8740  177.1070  146.2590 C   0  0  0  0  0  3  0  0  0  0  0  0
  186.0360  177.8310  142.1360 C   0  0  0  0  0  2  0  0  0  0  0  0
  184.2310  178.5350  143.7710 C   0  0  2  0  0  3  0  0  0  0  0  0
  188.7220  177.0030  141.6140 O   0  0  0  0  0  0  0  0  0  0  0  0
  190.0340  177.2070  141.1040 C   0  0  0  0  0  2  0  0  0  0  0  0
  189.9670  177.6090  139.6400 C   0  0  0  0  0  2  0  0  0  0  0  0
  188.7050  178.4100  139.3450 C   0  0  0  0  0  2  0  0  0  0  0  0
  187.7780  177.6680  138.3940 C   0  0  0  0  0  2  0  0  0  0  0  0
  187.1350  178.7980  136.4640 C   0  0  0  0  0  1  0  0  0  0  0  0
  186.7790  178.5750  137.8530 N   0  0  0  0  0  0  0  0  0  0  0  0
  185.5140  177.8520  137.8410 C   0  0  0  0  0  2  0  0  0  0  0  0
  184.4850  178.5170  138.7510 C   0  0  2  0  0  3  0  0  0  0  0  0
  183.1000  178.4750  138.1310 C   0  0  0  0  0  1  0  0  0  0  0  0
  184.8450  179.8370  139.0190 O   0  0  0  0  0  1  0  0  0  0  0  0
  183.2110  179.5420  144.0270 N   0  0  0  0  0  2  0  0  0  0  0  0
  181.9270  178.8620  144.0200 C   0  0  0  0  0  2  0  0  0  0  0  0
  181.2470  179.0940  141.7760 O   0  0  0  0  0  0  0  0  0  0  0  0
  181.0640  179.4200  142.9380 C   0  0  0  0  0  3  0  0  0  0  0  0
  1  8  1  0  0  0  0
  2  3  1  1  0  0  0
  2  4  1  0  0  0  0
  3  6  2  0  0  0  0
  4 12  1  0  0  0  0
  5  1  1  0  0  0  0
  7 11  1  0  0  0  0
  7 10  2  0  0  0  0
  9 16  1  0  0  0  0
 10 13  1  0  0  0  0
 11 15  1  6  0  0  0
 11  2  1  0  0  0  0
 12  1  2  0  0  0  0
 13  4  2  0  0  0  0
 13 14  1  0  0  0  0
 14  5  2  0  0  0  0
 15  9  1  0  0  0  0
 16 28  1  1  0  0  0
 16  3  1  0  0  0  0
 17  7  1  0  0  0  0
 18 17  1  0  0  0  0
 19 18  1  0  0  0  0
 20 19  1  0  0  0  0
 21 20  1  0  0  0  0
 22 23  1  0  0  0  0
 23 21  1  0  0  0  0
 24 23  1  0  0  0  0
 24 25  1  0  0  0  0
 25 26  1  6  0  0  0
 25 27  1  0  0  0  0
 29 28  1  0  0  0  0
 30 31  2  0  0  0  0
 31 29  1  0  0  0  0
M  END
>  <MODEL>
1

>  <REMARK>
 VINA RESULT:      -7.8      0.000      0.000
  Name = 
  11 active torsions:
  status: ('A' for Active; 'I' for Inactive)
    1  A    between atoms: C_1  and  C_24
    2  A    between atoms: C_3  and  C_9
    3  A    between atoms: C_3  and  C_22
    4  A    between atoms: C_7  and  C_9
    5  A    between atoms: C_7  and  O_23
    6  A    between atoms: C_15  and  O_23
    7  A    between atoms: C_18  and  C_26
    8  A    between atoms: N_19  and  C_22
    9  A    between atoms: N_19  and  C_24
   10  A    between atoms: C_26  and  N_31
   11  A    between atoms: C_30  and  N_31
                            x       y       z     vdW  Elec       q    Type
                         _______ _______ _______ _____ _____    ______ ____

>  <TORSDO>
F 11

$$$$
=
 OpenBabel10272400163D

 31 33  0  0  1  0  0  0  0  0999 V2000
  190.7120  176.8660  146.8320 C   0  0  0  0  0  0  0  0  0  0  0  0
  188.8940  177.9080  143.6260 C   0  0  2  0  0  3  0  0  0  0  0  0
  189.7920  177.3830  142.5300 C   0  0  0  0  0  0  0  0  0  0  0  0
  189.1770  177.4570  145.0430 C   0  0  0  0  0  0  0  0  0  0  0  0
  189.6580  176.8950  147.7510 C   0  0  0  0  0  3  0  0  0  0  0  0
  190.6790  176.5680  142.7480 O   0  0  0  0  0  0  0  0  0  0  0  0
  186.4650  178.0030  144.3100 C   0  0  0  0  0  0  0  0  0  0  0  0
  192.0270  176.5480  147.2690 N   0  0  0  0  0  1  0  0  0  0  0  0
  188.0340  177.7080  140.7940 C   0  0  0  0  0  2  0  0  0  0  0  0
  186.8070  177.8960  145.5640 N   0  0  0  0  0  0  0  0  0  0  0  0
  187.4390  177.6190  143.2250 C   0  0  1  0  0  3  0  0  0  0  0  0
  190.4760  177.1660  145.4890 C   0  0  0  0  0  3  0  0  0  0  0  0
  188.1250  177.5110  145.9790 C   0  0  0  0  0  0  0  0  0  0  0  0
  188.3680  177.2240  147.3250 C   0  0  0  0  0  3  0  0  0  0  0  0
  187.1320  178.2930  141.8860 C   0  0  0  0  0  2  0  0  0  0  0  0
  189.5190  177.8850  141.1350 C   0  0  2  0  0  3  0  0  0  0  0  0
  185.1680  178.3900  143.9620 O   0  0  0  0  0  0  0  0  0  0  0  0
  184.1970  178.7660  144.9300 C   0  0  0  0  0  2  0  0  0  0  0  0
  182.8350  178.9120  144.2720 C   0  0  0  0  0  2  0  0  0  0  0  0
  182.9520  178.9010  142.7520 C   0  0  0  0  0  2  0  0  0  0  0  0
  181.5870  178.8140  142.0840 C   0  0  0  0  0  2  0  0  0  0  0  0
  181.2030  179.5670  139.9160 C   0  0  0  0  0  1  0  0  0  0  0  0
  181.7340  178.4550  140.6830 N   0  0  0  0  0  0  0  0  0  0  0  0
  183.1640  178.4110  140.4060 C   0  0  0  0  0  2  0  0  0  0  0  0
  183.4910  179.0610  139.0640 C   0  0  2  0  0  3  0  0  0  0  0  0
  183.8610  178.0160  138.0280 C   0  0  0  0  0  1  0  0  0  0  0  0
  184.5300  179.9800  139.2050 O   0  0  0  0  0  1  0  0  0  0  0  0
  190.3330  177.1840  140.1530 N   0  0  0  0  0  2  0  0  0  0  0  0
  189.5460  177.0890  138.9340 C   0  0  0  0  0  2  0  0  0  0  0  0
  190.7080  175.0860  138.4940 O   0  0  0  0  0  0  0  0  0  0  0  0
  190.1350  176.0590  138.0290 C   0  0  0  0  0  3  0  0  0  0  0  0
  1  8  1  0  0  0  0
  1  5  1  0  0  0  0
  2  3  1  6  0  0  0
  2  4  1  0  0  0  0
  3  6  2  0  0  0  0
  4 12  1  0  0  0  0
  4 13  2  0  0  0  0
  7 10  2  0  0  0  0
  9 16  1  0  0  0  0
  9 15  1  0  0  0  0
 10 13  1  0  0  0  0
 11 15  1  6  0  0  0
 11  2  1  0  0  0  0
 11  7  1  0  0  0  0
 12  1  2  0  0  0  0
 13 14  1  0  0  0  0
 14  5  2  0  0  0  0
 16 28  1  6  0  0  0
 16  3  1  0  0  0  0
 17  7  1  0  0  0  0
 17 18  1  0  0  0  0
 19 18  1  0  0  0  0
 20 19  1  0  0  0  0
 21 20  1  0  0  0  0
 22 23  1  0  0  0  0
 23 21  1  0  0  0  0
 24 23  1  0  0  0  0
 25 26  1  6  0  0  0
 25 27  1  0  0  0  0
 25 24  1  0  0  0  0
 29 28  1  0  0  0  0
 31 30  2  0  0  0  0
 31 29  1  0  0  0  0
M  END
>  <MODEL>
2

>  <REMARK>
 VINA RESULT:      -7.6      2.045      5.475
  Name = 
  11 active torsions:
  status: ('A' for Active; 'I' for Inactive)
    1  A    between atoms: C_1  and  C_24
    2  A    between atoms: C_3  and  C_9
    3  A    between atoms: C_3  and  C_22
    4  A    between atoms: C_7  and  C_9
    5  A    between atoms: C_7  and  O_23
    6  A    between atoms: C_15  and  O_23
    7  A    between atoms: C_18  and  C_26
    8  A    between atoms: N_19  and  C_22
    9  A    between atoms: N_19  and  C_24
   10  A    between atoms: C_26  and  N_31
   11  A    between atoms: C_30  and  N_31
                            x       y       z     vdW  Elec       q    Type
                         _______ _______ _______ _____ _____    ______ ____

>  <TORSDO>
F 11

$$$$
=
 OpenBabel10272400163D

 31 33  0  0  1  0  0  0  0  0999 V2000
  185.0360  178.4900  145.0290 C   0  0  0  0  0  0  0  0  0  0  0  0
  188.7760  177.8040  144.5730 C   0  0  2  0  0  3  0  0  0  0  0  0
  189.2020  177.2810  145.9250 C   0  0  0  0  0  0  0  0  0  0  0  0
  187.2920  177.9460  144.3100 C   0  0  0  0  0  0  0  0  0  0  0  0
  184.6020  178.4640  143.7010 C   0  0  0  0  0  3  0  0  0  0  0  0
  188.3930  176.9130  146.7660 O   0  0  0  0  0  0  0  0  0  0  0  0
  189.0070  177.3160  142.1060 C   0  0  0  0  0  0  0  0  0  0  0  0
  184.1130  178.7740  146.0730 N   0  0  0  0  0  1  0  0  0  0  0  0
  191.3730  176.4440  145.0310 C   0  0  0  0  0  2  0  0  0  0  0  0
  187.7870  177.7310  141.9030 N   0  0  0  0  0  0  0  0  0  0  0  0
  189.4580  176.9450  143.4970 C   0  0  1  0  0  3  0  0  0  0  0  0
  186.3780  178.2520  145.3300 C   0  0  0  0  0  3  0  0  0  0  0  0
  186.8530  177.9490  142.9700 C   0  0  0  0  0  0  0  0  0  0  0  0
  185.5120  178.2020  142.6720 C   0  0  0  0  0  3  0  0  0  0  0  0
  190.9770  177.0190  143.6660 C   0  0  0  0  0  2  0  0  0  0  0  0
  190.6860  177.1950  146.1790 C   0  0  2  0  0  3  0  0  0  0  0  0
  189.8770  177.1270  141.0290 O   0  0  0  0  0  0  0  0  0  0  0  0
  189.4150  176.8870  139.7060 C   0  0  0  0  0  2  0  0  0  0  0  0
  189.6780  178.1030  138.8340 C   0  0  0  0  0  2  0  0  0  0  0  0
  189.2460  177.8530  137.3940 C   0  0  0  0  0  2  0  0  0  0  0  0
  188.3190  178.9480  136.8870 C   0  0  0  0  0  2  0  0  0  0  0  0
  187.6410  177.6130  135.1060 C   0  0  0  0  0  1  0  0  0  0  0  0
  187.1510  178.3640  136.2470 N   0  0  0  0  0  0  0  0  0  0  0  0
  186.6040  177.3870  137.1790 C   0  0  0  0  0  2  0  0  0  0  0  0
  185.1650  177.7240  137.5570 C   0  0  2  0  0  3  0  0  0  0  0  0
  185.1080  178.4570  138.8850 C   0  0  0  0  0  1  0  0  0  0  0  0
  184.3890  176.5670  137.6200 O   0  0  0  0  0  1  0  0  0  0  0  0
  190.9670  176.5230  147.4400 N   0  0  0  0  0  2  0  0  0  0  0  0
  192.2770  175.9050  147.3110 C   0  0  0  0  0  2  0  0  0  0  0  0
  193.4480  176.7390  149.1780 O   0  0  0  0  0  0  0  0  0  0  0  0
  192.9100  175.7750  148.6560 C   0  0  0  0  0  3  0  0  0  0  0  0
  1 12  1  0  0  0  0
  1  8  1  0  0  0  0
  2  4  1  1  0  0  0
  2  3  1  0  0  0  0
  3 16  1  0  0  0  0
  3  6  2  0  0  0  0
  4 12  2  0  0  0  0
  5  1  2  0  0  0  0
  7 11  1  0  0  0  0
  9 16  1  0  0  0  0
 10  7  2  0  0  0  0
 10 13  1  0  0  0  0
 11 15  1  6  0  0  0
 11  2  1  0  0  0  0
 13  4  1  0  0  0  0
 14 13  2  0  0  0  0
 14  5  1  0  0  0  0
 15  9  1  0  0  0  0
 16 28  1  1  0  0  0
 17  7  1  0  0  0  0
 18 17  1  0  0  0  0
 19 18  1  0  0  0  0
 20 19  1  0  0  0  0
 21 20  1  0  0  0  0
 22 23  1  0  0  0  0
 23 21  1  0  0  0  0
 23 24  1  0  0  0  0
 24 25  1  0  0  0  0
 25 27  1  0  0  0  0
 25 26  1  1  0  0  0
 29 28  1  0  0  0  0
 29 31  1  0  0  0  0
 31 30  2  0  0  0  0
M  END
>  <MODEL>
3

>  <REMARK>
 VINA RESULT:      -7.4      2.504      5.587
  Name = 
  11 active torsions:
  status: ('A' for Active; 'I' for Inactive)
    1  A    between atoms: C_1  and  C_24
    2  A    between atoms: C_3  and  C_9
    3  A    between atoms: C_3  and  C_22
    4  A    between atoms: C_7  and  C_9
    5  A    between atoms: C_7  and  O_23
    6  A    between atoms: C_15  and  O_23
    7  A    between atoms: C_18  and  C_26
    8  A    between atoms: N_19  and  C_22
    9  A    between atoms: N_19  and  C_24
   10  A    between atoms: C_26  and  N_31
   11  A    between atoms: C_30  and  N_31
                            x       y       z     vdW  Elec       q    Type
                         _______ _______ _______ _____ _____    ______ ____

>  <TORSDO>
F 11

$$$$
=
 OpenBabel10272400163D

 31 33  0  0  1  0  0  0  0  0999 V2000
  188.2110  177.6320  147.6310 C   0  0  0  0  0  0  0  0  0  0  0  0
  186.3120  177.7760  144.3090 C   0  0  2  0  0  3  0  0  0  0  0  0
  185.0710  178.5690  144.6500 C   0  0  0  0  0  0  0  0  0  0  0  0
  187.4230  177.7350  145.3350 C   0  0  0  0  0  0  0  0  0  0  0  0
  189.5080  177.3750  147.1790 C   0  0  0  0  0  3  0  0  0  0  0  0
  184.9760  179.2180  145.6840 O   0  0  0  0  0  0  0  0  0  0  0  0
  188.1290  177.6120  142.5630 C   0  0  0  0  0  0  0  0  0  0  0  0
  187.9470  177.7160  149.0260 N   0  0  0  0  0  1  0  0  0  0  0  0
  184.5100  178.9190  142.2470 C   0  0  0  0  0  2  0  0  0  0  0  0
  188.9950  177.2930  143.4850 N   0  0  0  0  0  0  0  0  0  0  0  0
  186.8240  178.2640  142.9440 C   0  0  1  0  0  3  0  0  0  0  0  0
  187.1700  177.7910  146.7140 C   0  0  0  0  0  3  0  0  0  0  0  0
  188.7290  177.4480  144.8870 C   0  0  0  0  0  0  0  0  0  0  0  0
  189.7650  177.2750  145.8090 C   0  0  0  0  0  3  0  0  0  0  0  0
  185.7340  178.0710  141.8870 C   0  0  0  0  0  2  0  0  0  0  0  0
  183.9590  178.5550  143.6320 C   0  0  2  0  0  3  0  0  0  0  0  0
  188.4380  177.4340  141.2120 O   0  0  0  0  0  0  0  0  0  0  0  0
  189.7570  177.1520  140.7610 C   0  0  0  0  0  2  0  0  0  0  0  0
  189.9580  177.7070  139.3610 C   0  0  0  0  0  2  0  0  0  0  0  0
  190.4880  176.6370  138.4130 C   0  0  0  0  0  2  0  0  0  0  0  0
  189.3590  175.9100  137.6990 C   0  0  0  0  0  2  0  0  0  0  0  0
  188.6520  176.4130  135.5400 C   0  0  0  0  0  1  0  0  0  0  0  0
  188.5670  176.8490  136.9210 N   0  0  0  0  0  0  0  0  0  0  0  0
  187.1790  176.6690  137.3240 C   0  0  0  0  0  2  0  0  0  0  0  0
  186.6150  177.9360  137.9610 C   0  0  2  0  0  3  0  0  0  0  0  0
  185.0980  177.9010  137.9920 C   0  0  0  0  0  1  0  0  0  0  0  0
  187.0500  179.0670  137.2710 O   0  0  0  0  0  1  0  0  0  0  0  0
  182.8980  179.4830  143.9960 N   0  0  0  0  0  2  0  0  0  0  0  0
  181.6460  178.7460  143.9350 C   0  0  0  0  0  2  0  0  0  0  0  0
  180.3980  180.4760  142.9330 O   0  0  0  0  0  0  0  0  0  0  0  0
  180.7750  179.3160  142.8660 C   0  0  0  0  0  3  0  0  0  0  0  0
  1  8  1  0  0  0  0
  2  3  1  1  0  0  0
  2  4  1  0  0  0  0
  3  6  2  0  0  0  0
  4 12  1  0  0  0  0
  5  1  1  0  0  0  0
  7 11  1  0  0  0  0
  7 10  2  0  0  0  0
  9 16  1  0  0  0  0
 10 13  1  0  0  0  0
 11 15  1  6  0  0  0
 11  2  1  0  0  0  0
 12  1  2  0  0  0  0
 13  4  2  0  0  0  0
 13 14  1  0  0  0  0
 14  5  2  0  0  0  0
 15  9  1  0  0  0  0
 16 28  1  1  0  0  0
 16  3  1  0  0  0  0
 17  7  1  0  0  0  0
 18 17  1  0  0  0  0
 19 18  1  0  0  0  0
 20 19  1  0  0  0  0
 21 20  1  0  0  0  0
 22 23  1  0  0  0  0
 23 24  1  0  0  0  0
 23 21  1  0  0  0  0
 24 25  1  0  0  0  0
 25 26  1  6  0  0  0
 27 25  1  0  0  0  0
 29 28  1  0  0  0  0
 31 30  2  0  0  0  0
 31 29  1  0  0  0  0
M  END
>  <MODEL>
4

>  <REMARK>
 VINA RESULT:      -7.4      1.203      1.387
  Name = 
  11 active torsions:
  status: ('A' for Active; 'I' for Inactive)
    1  A    between atoms: C_1  and  C_24
    2  A    between atoms: C_3  and  C_9
    3  A    between atoms: C_3  and  C_22
    4  A    between atoms: C_7  and  C_9
    5  A    between atoms: C_7  and  O_23
    6  A    between atoms: C_15  and  O_23
    7  A    between atoms: C_18  and  C_26
    8  A    between atoms: N_19  and  C_22
    9  A    between atoms: N_19  and  C_24
   10  A    between atoms: C_26  and  N_31
   11  A    between atoms: C_30  and  N_31
                            x       y       z     vdW  Elec       q    Type
                         _______ _______ _______ _____ _____    ______ ____

>  <TORSDO>
F 11

$$$$
=
 OpenBabel10272400163D

 31 33  0  0  1  0  0  0  0  0999 V2000
  188.4770  177.6550  147.6640 C   0  0  0  0  0  0  0  0  0  0  0  0
  186.5400  177.6740  144.3600 C   0  0  2  0  0  3  0  0  0  0  0  0
  185.3460  178.5500  144.6610 C   0  0  0  0  0  0  0  0  0  0  0  0
  187.6630  177.6440  145.3740 C   0  0  0  0  0  0  0  0  0  0  0  0
  189.7530  177.3030  147.2160 C   0  0  0  0  0  3  0  0  0  0  0  0
  185.2980  179.2710  145.6490 O   0  0  0  0  0  0  0  0  0  0  0  0
  188.3220  177.3010  142.6100 C   0  0  0  0  0  0  0  0  0  0  0  0
  188.2380  177.8460  149.0530 N   0  0  0  0  0  1  0  0  0  0  0  0
  184.7680  178.7670  142.2460 C   0  0  0  0  0  2  0  0  0  0  0  0
  189.1830  177.0010  143.5420 N   0  0  0  0  0  0  0  0  0  0  0  0
  187.0560  178.0430  142.9600 C   0  0  1  0  0  3  0  0  0  0  0  0
  187.4320  177.8050  146.7490 C   0  0  0  0  0  3  0  0  0  0  0  0
  188.9460  177.2620  144.9330 C   0  0  0  0  0  0  0  0  0  0  0  0
  189.9850  177.0990  145.8530 C   0  0  0  0  0  3  0  0  0  0  0  0
  185.9430  177.8350  141.9310 C   0  0  0  0  0  2  0  0  0  0  0  0
  184.2200  178.5250  143.6580 C   0  0  2  0  0  3  0  0  0  0  0  0
  188.6020  177.0180  141.2710 O   0  0  0  0  0  0  0  0  0  0  0  0
  189.6090  177.7040  140.5390 C   0  0  0  0  0  2  0  0  0  0  0  0
  188.9860  178.4640  139.3800 C   0  0  0  0  0  2  0  0  0  0  0  0
  187.8540  177.6660  138.7430 C   0  0  0  0  0  2  0  0  0  0  0  0
  188.3810  176.6400  137.7490 C   0  0  0  0  0  2  0  0  0  0  0  0
  187.8670  176.4580  135.4870 C   0  0  0  0  0  1  0  0  0  0  0  0
  187.3320  176.2530  136.8200 N   0  0  0  0  0  0  0  0  0  0  0  0
  187.1420  174.8170  136.9710 C   0  0  0  0  0  2  0  0  0  0  0  0
  185.6690  174.4670  137.1620 C   0  0  2  0  0  3  0  0  0  0  0  0
  185.4970  172.9980  137.5030 C   0  0  0  0  0  1  0  0  0  0  0  0
  184.9380  174.7770  136.0160 O   0  0  0  0  0  1  0  0  0  0  0  0
  183.2120  179.5280  143.9710 N   0  0  0  0  0  2  0  0  0  0  0  0
  181.9410  178.8330  144.0900 C   0  0  0  0  0  2  0  0  0  0  0  0
  181.0580  178.5900  141.9180 O   0  0  0  0  0  0  0  0  0  0  0  0
  181.0430  179.2220  142.9630 C   0  0  0  0  0  3  0  0  0  0  0  0
  1  8  1  0  0  0  0
  2  3  1  1  0  0  0
  2  4  1  0  0  0  0
  3  6  2  0  0  0  0
  4 12  1  0  0  0  0
  5  1  1  0  0  0  0
  7 11  1  0  0  0  0
  7 10  2  0  0  0  0
  9 16  1  0  0  0  0
 10 13  1  0  0  0  0
 11 15  1  6  0  0  0
 11  2  1  0  0  0  0
 12  1  2  0  0  0  0
 13  4  2  0  0  0  0
 13 14  1  0  0  0  0
 14  5  2  0  0  0  0
 15  9  1  0  0  0  0
 16 28  1  1  0  0  0
 16  3  1  0  0  0  0
 17  7  1  0  0  0  0
 18 17  1  0  0  0  0
 19 18  1  0  0  0  0
 20 19  1  0  0  0  0
 21 20  1  0  0  0  0
 22 23  1  0  0  0  0
 23 24  1  0  0  0  0
 23 21  1  0  0  0  0
 24 25  1  0  0  0  0
 25 26  1  6  0  0  0
 27 25  1  0  0  0  0
 28 29  1  0  0  0  0
 30 31  2  0  0  0  0
 31 29  1  0  0  0  0
M  END
>  <MODEL>
5

>  <REMARK>
 VINA RESULT:      -6.9      1.790      2.012
  Name = 
  11 active torsions:
  status: ('A' for Active; 'I' for Inactive)
    1  A    between atoms: C_1  and  C_24
    2  A    between atoms: C_3  and  C_9
    3  A    between atoms: C_3  and  C_22
    4  A    between atoms: C_7  and  C_9
    5  A    between atoms: C_7  and  O_23
    6  A    between atoms: C_15  and  O_23
    7  A    between atoms: C_18  and  C_26
    8  A    between atoms: N_19  and  C_22
    9  A    between atoms: N_19  and  C_24
   10  A    between atoms: C_26  and  N_31
   11  A    between atoms: C_30  and  N_31
                            x       y       z     vdW  Elec       q    Type
                         _______ _______ _______ _____ _____    ______ ____

>  <TORSDO>
F 11

$$$$
=
 OpenBabel10272400163D

 31 33  0  0  1  0  0  0  0  0999 V2000
  190.7330  176.9020  147.0810 C   0  0  0  0  0  0  0  0  0  0  0  0
  189.2600  177.7310  143.6440 C   0  0  2  0  0  3  0  0  0  0  0  0
  190.1940  177.0270  142.6860 C   0  0  0  0  0  0  0  0  0  0  0  0
  189.3960  177.4130  145.1170 C   0  0  0  0  0  0  0  0  0  0  0  0
  189.6180  177.1060  147.8990 C   0  0  0  0  0  3  0  0  0  0  0  0
  190.9910  176.1760  143.0590 O   0  0  0  0  0  0  0  0  0  0  0  0
  186.8020  178.0790  144.1060 C   0  0  0  0  0  0  0  0  0  0  0  0
  191.9810  176.5350  147.6570 N   0  0  0  0  0  1  0  0  0  0  0  0
  188.6070  177.2970  140.7830 C   0  0  0  0  0  2  0  0  0  0  0  0
  187.0370  178.0800  145.3880 N   0  0  0  0  0  0  0  0  0  0  0  0
  187.8220  177.5100  143.1510 C   0  0  1  0  0  3  0  0  0  0  0  0
  190.6270  177.0750  145.6990 C   0  0  0  0  0  3  0  0  0  0  0  0
  188.2830  177.6440  145.9510 C   0  0  0  0  0  0  0  0  0  0  0  0
  188.3970  177.4840  147.3340 C   0  0  0  0  0  3  0  0  0  0  0  0
  187.6760  178.0600  141.7300 C   0  0  0  0  0  2  0  0  0  0  0  0
  190.0710  177.3980  141.2290 C   0  0  2  0  0  3  0  0  0  0  0  0
  185.5730  178.5220  143.6110 O   0  0  0  0  0  0  0  0  0  0  0  0
  184.3570  178.3630  144.3320 C   0  0  0  0  0  2  0  0  0  0  0  0
  183.4570  179.5670  144.1080 C   0  0  0  0  0  2  0  0  0  0  0  0
  182.1410  179.1590  143.4580 C   0  0  0  0  0  2  0  0  0  0  0  0
  182.3470  178.6690  142.0320 C   0  0  0  0  0  2  0  0  0  0  0  0
  180.3490  179.6760  141.3940 C   0  0  0  0  0  1  0  0  0  0  0  0
  181.0640  178.4130  141.3970 N   0  0  0  0  0  0  0  0  0  0  0  0
  181.3390  178.0940  140.0020 C   0  0  0  0  0  2  0  0  0  0  0  0
  181.3120  176.5870  139.7610 C   0  0  2  0  0  3  0  0  0  0  0  0
  182.6500  176.0930  139.2450 C   0  0  0  0  0  1  0  0  0  0  0  0
  180.3020  176.2530  138.8580 O   0  0  0  0  0  1  0  0  0  0  0  0
  190.8980  176.5380  140.3950 N   0  0  0  0  0  2  0  0  0  0  0  0
  190.8470  177.0760  139.0450 C   0  0  0  0  0  2  0  0  0  0  0  0
  190.6780  174.9180  138.1120 O   0  0  0  0  0  0  0  0  0  0  0  0
  191.2130  176.0140  138.0620 C   0  0  0  0  0  3  0  0  0  0  0  0
  1  8  1  0  0  0  0
  1  5  1  0  0  0  0
  2  3  1  6  0  0  0
  2  4  1  0  0  0  0
  3  6  2  0  0  0  0
  4 12  1  0  0  0  0
  4 13  2  0  0  0  0
  7 10  2  0  0  0  0
  9 16  1  0  0  0  0
  9 15  1  0  0  0  0
 10 13  1  0  0  0  0
 11 15  1  6  0  0  0
 11  2  1  0  0  0  0
 11  7  1  0  0  0  0
 12  1  2  0  0  0  0
 13 14  1  0  0  0  0
 14  5  2  0  0  0  0
 16 28  1  6  0  0  0
 16  3  1  0  0  0  0
 17  7  1  0  0  0  0
 17 18  1  0  0  0  0
 19 18  1  0  0  0  0
 20 19  1  0  0  0  0
 21 20  1  0  0  0  0
 22 23  1  0  0  0  0
 23 21  1  0  0  0  0
 24 23  1  0  0  0  0
 25 26  1  6  0  0  0
 25 24  1  0  0  0  0
 27 25  1  0  0  0  0
 29 28  1  0  0  0  0
 31 30  2  0  0  0  0
 31 29  1  0  0  0  0
M  END
>  <MODEL>
6

>  <REMARK>
 VINA RESULT:      -6.9      2.536      5.925
  Name = 
  11 active torsions:
  status: ('A' for Active; 'I' for Inactive)
    1  A    between atoms: C_1  and  C_24
    2  A    between atoms: C_3  and  C_9
    3  A    between atoms: C_3  and  C_22
    4  A    between atoms: C_7  and  C_9
    5  A    between atoms: C_7  and  O_23
    6  A    between atoms: C_15  and  O_23
    7  A    between atoms: C_18  and  C_26
    8  A    between atoms: N_19  and  C_22
    9  A    between atoms: N_19  and  C_24
   10  A    between atoms: C_26  and  N_31
   11  A    between atoms: C_30  and  N_31
                            x       y       z     vdW  Elec       q    Type
                         _______ _______ _______ _____ _____    ______ ____

>  <TORSDO>
F 11

$$$$
=
 OpenBabel10272400163D

 31 33  0  0  1  0  0  0  0  0999 V2000
  185.9810  178.2480  146.3720 C   0  0  0  0  0  0  0  0  0  0  0  0
  186.8760  177.7910  142.6760 C   0  0  2  0  0  3  0  0  0  0  0  0
  185.8890  178.6880  141.9650 C   0  0  0  0  0  0  0  0  0  0  0  0
  186.9780  177.9130  144.1810 C   0  0  0  0  0  0  0  0  0  0  0  0
  187.1740  177.8490  146.9810 C   0  0  0  0  0  3  0  0  0  0  0  0
  185.2370  179.5380  142.5570 O   0  0  0  0  0  0  0  0  0  0  0  0
  189.3300  177.1980  142.7150 C   0  0  0  0  0  0  0  0  0  0  0  0
  184.8660  178.6260  147.1710 N   0  0  0  0  0  1  0  0  0  0  0  0
  187.1630  178.5640  139.8260 C   0  0  0  0  0  2  0  0  0  0  0  0
  189.2780  177.0380  144.0090 N   0  0  0  0  0  0  0  0  0  0  0  0
  188.2460  177.9680  142.0040 C   0  0  1  0  0  3  0  0  0  0  0  0
  185.8770  178.2590  144.9790 C   0  0  0  0  0  3  0  0  0  0  0  0
  188.1690  177.4860  144.8020 C   0  0  0  0  0  0  0  0  0  0  0  0
  188.2640  177.4620  146.1960 C   0  0  0  0  0  3  0  0  0  0  0  0
  188.1410  177.6090  140.5200 C   0  0  0  0  0  2  0  0  0  0  0  0
  185.7730  178.5130  140.4720 C   0  0  2  0  0  3  0  0  0  0  0  0
  190.4310  176.7350  141.9900 O   0  0  0  0  0  0  0  0  0  0  0  0
  191.7320  177.2910  142.1380 C   0  0  0  0  0  2  0  0  0  0  0  0
  192.3200  177.6100  140.7740 C   0  0  0  0  0  2  0  0  0  0  0  0
  191.4130  177.1170  139.6520 C   0  0  0  0  0  2  0  0  0  0  0  0
  192.2140  176.5240  138.5020 C   0  0  0  0  0  2  0  0  0  0  0  0
  192.2370  175.8990  136.2610 C   0  0  0  0  0  1  0  0  0  0  0  0
  191.4280  176.5440  137.2790 N   0  0  0  0  0  0  0  0  0  0  0  0
  190.2790  175.6760  137.5000 C   0  0  0  0  0  2  0  0  0  0  0  0
  189.0210  176.2410  136.8460 C   0  0  2  0  0  3  0  0  0  0  0  0
  189.0610  177.7570  136.8070 C   0  0  0  0  0  1  0  0  0  0  0  0
  187.8800  175.8130  137.5260 O   0  0  0  0  0  1  0  0  0  0  0  0
  184.9230  179.5400  139.8850 N   0  0  0  0  0  2  0  0  0  0  0  0
  183.7730  178.8640  139.3070 C   0  0  0  0  0  2  0  0  0  0  0  0
  181.6380  179.5290  138.5640 O   0  0  0  0  0  0  0  0  0  0  0  0
  182.7780  179.8710  138.8350 C   0  0  0  0  0  3  0  0  0  0  0  0
  1  5  1  0  0  0  0
  1  8  1  0  0  0  0
  2  3  1  6  0  0  0
  2  4  1  0  0  0  0
  3  6  2  0  0  0  0
  4 13  2  0  0  0  0
  4 12  1  0  0  0  0
  7 10  2  0  0  0  0
  9 16  1  0  0  0  0
  9 15  1  0  0  0  0
 10 13  1  0  0  0  0
 11 15  1  6  0  0  0
 11  2  1  0  0  0  0
 11  7  1  0  0  0  0
 12  1  2  0  0  0  0
 13 14  1  0  0  0  0
 14  5  2  0  0  0  0
 16 28  1  6  0  0  0
 16  3  1  0  0  0  0
 17 18  1  0  0  0  0
 17  7  1  0  0  0  0
 19 18  1  0  0  0  0
 20 19  1  0  0  0  0
 21 20  1  0  0  0  0
 22 23  1  0  0  0  0
 23 24  1  0  0  0  0
 23 21  1  0  0  0  0
 25 26  1  1  0  0  0
 25 24  1  0  0  0  0
 25 27  1  0  0  0  0
 29 28  1  0  0  0  0
 30 31  2  0  0  0  0
 31 29  1  0  0  0  0
M  END
>  <MODEL>
7

>  <REMARK>
 VINA RESULT:      -6.8      2.333      3.612
  Name = 
  11 active torsions:
  status: ('A' for Active; 'I' for Inactive)
    1  A    between atoms: C_1  and  C_24
    2  A    between atoms: C_3  and  C_9
    3  A    between atoms: C_3  and  C_22
    4  A    between atoms: C_7  and  C_9
    5  A    between atoms: C_7  and  O_23
    6  A    between atoms: C_15  and  O_23
    7  A    between atoms: C_18  and  C_26
    8  A    between atoms: N_19  and  C_22
    9  A    between atoms: N_19  and  C_24
   10  A    between atoms: C_26  and  N_31
   11  A    between atoms: C_30  and  N_31
                            x       y       z     vdW  Elec       q    Type
                         _______ _______ _______ _____ _____    ______ ____

>  <TORSDO>
F 11

$$$$
=
 OpenBabel10272400163D

 31 33  0  0  1  0  0  0  0  0999 V2000
  189.0920  178.0480  139.5430 C   0  0  0  0  0  0  0  0  0  0  0  0
  185.5840  178.8120  140.8730 C   0  0  2  0  0  3  0  0  0  0  0  0
  184.7160  178.7260  139.6380 C   0  0  0  0  0  0  0  0  0  0  0  0
  187.0100  178.3180  140.7650 C   0  0  0  0  0  0  0  0  0  0  0  0
  189.7330  177.6370  140.7150 C   0  0  0  0  0  3  0  0  0  0  0  0
  185.1110  178.2150  138.5990 O   0  0  0  0  0  0  0  0  0  0  0  0
  185.6690  178.0550  143.2800 C   0  0  0  0  0  0  0  0  0  0  0  0
  189.8200  178.1160  138.3220 N   0  0  0  0  0  1  0  0  0  0  0  0
  182.6220  178.6690  140.9890 C   0  0  0  0  0  2  0  0  0  0  0  0
  186.9640  177.9210  143.1990 N   0  0  0  0  0  0  0  0  0  0  0  0
  184.8360  178.1230  142.0250 C   0  0  1  0  0  3  0  0  0  0  0  0
  187.7430  178.4060  139.5720 C   0  0  0  0  0  3  0  0  0  0  0  0
  187.6690  177.9300  141.9490 C   0  0  0  0  0  0  0  0  0  0  0  0
  189.0230  177.5860  141.9180 C   0  0  0  0  0  3  0  0  0  0  0  0
  183.4870  178.8110  142.2470 C   0  0  0  0  0  2  0  0  0  0  0  0
  183.3150  179.2690  139.7590 C   0  0  2  0  0  3  0  0  0  0  0  0
  185.0350  178.0470  144.5250 O   0  0  0  0  0  0  0  0  0  0  0  0
  185.3240  179.0040  145.5360 C   0  0  0  0  0  2  0  0  0  0  0  0
  185.3860  178.3250  146.8940 C   0  0  0  0  0  2  0  0  0  0  0  0
  186.7860  178.4100  147.4900 C   0  0  0  0  0  2  0  0  0  0  0  0
  187.8170  177.7310  146.6010 C   0  0  0  0  0  2  0  0  0  0  0  0
  188.9730  178.2620  148.5490 C   0  0  0  0  0  1  0  0  0  0  0  0
  189.1510  177.9010  147.1550 N   0  0  0  0  0  0  0  0  0  0  0  0
  189.7820  176.5880  147.1480 C   0  0  0  0  0  2  0  0  0  0  0  0
  191.2440  176.6750  146.7200 C   0  0  2  0  0  3  0  0  0  0  0  0
  191.3600  177.0260  145.2480 C   0  0  0  0  0  1  0  0  0  0  0  0
  191.9030  175.4740  146.9760 O   0  0  0  0  0  1  0  0  0  0  0  0
  182.5320  178.9770  138.5660 N   0  0  0  0  0  2  0  0  0  0  0  0
  181.2890  179.7230  138.6780 C   0  0  0  0  0  2  0  0  0  0  0  0
  180.8930  181.5800  137.2800 O   0  0  0  0  0  0  0  0  0  0  0  0
  181.5040  181.1330  138.2390 C   0  0  0  0  0  3  0  0  0  0  0  0
  1 12  2  0  0  0  0
  1  5  1  0  0  0  0
  2  3  1  6  0  0  0
  2 11  1  0  0  0  0
  3 16  1  0  0  0  0
  4  2  1  0  0  0  0
  4 13  2  0  0  0  0
  5 14  2  0  0  0  0
  6  3  2  0  0  0  0
  7 17  1  0  0  0  0
  8  1  1  0  0  0  0
  9 15  1  0  0  0  0
 10  7  2  0  0  0  0
 11 15  1  1  0  0  0
 11  7  1  0  0  0  0
 12  4  1  0  0  0  0
 13 10  1  0  0  0  0
 14 13  1  0  0  0  0
 16 28  1  6  0  0  0
 16  9  1  0  0  0  0
 17 18  1  0  0  0  0
 18 19  1  0  0  0  0
 19 20  1  0  0  0  0
 21 23  1  0  0  0  0
 21 20  1  0  0  0  0
 23 22  1  0  0  0  0
 24 23  1  0  0  0  0
 25 26  1  6  0  0  0
 25 27  1  0  0  0  0
 25 24  1  0  0  0  0
 28 29  1  0  0  0  0
 30 31  2  0  0  0  0
 31 29  1  0  0  0  0
M  END
>  <MODEL>
8

>  <REMARK>
 VINA RESULT:      -6.8      2.297      7.216
  Name = 
  11 active torsions:
  status: ('A' for Active; 'I' for Inactive)
    1  A    between atoms: C_1  and  C_24
    2  A    between atoms: C_3  and  C_9
    3  A    between atoms: C_3  and  C_22
    4  A    between atoms: C_7  and  C_9
    5  A    between atoms: C_7  and  O_23
    6  A    between atoms: C_15  and  O_23
    7  A    between atoms: C_18  and  C_26
    8  A    between atoms: N_19  and  C_22
    9  A    between atoms: N_19  and  C_24
   10  A    between atoms: C_26  and  N_31
   11  A    between atoms: C_30  and  N_31
                            x       y       z     vdW  Elec       q    Type
                         _______ _______ _______ _____ _____    ______ ____

>  <TORSDO>
F 11

$$$$
=
 OpenBabel10272400163D

 31 33  0  0  1  0  0  0  0  0999 V2000
  189.3030  177.0040  146.7760 C   0  0  0  0  0  0  0  0  0  0  0  0
  187.4000  178.4060  143.7630 C   0  0  2  0  0  3  0  0  0  0  0  0
  188.0870  177.7570  142.5840 C   0  0  0  0  0  0  0  0  0  0  0  0
  187.7330  177.8850  145.1440 C   0  0  0  0  0  0  0  0  0  0  0  0
  188.3610  177.1950  147.7920 C   0  0  0  0  0  3  0  0  0  0  0  0
  188.8360  176.7970  142.7130 O   0  0  0  0  0  0  0  0  0  0  0  0
  185.0990  178.9040  144.6770 C   0  0  0  0  0  0  0  0  0  0  0  0
  190.5790  176.4550  147.0840 N   0  0  0  0  0  1  0  0  0  0  0  0
  186.2560  178.4140  141.0260 C   0  0  0  0  0  2  0  0  0  0  0  0
  185.5330  178.7150  145.8920 N   0  0  0  0  0  0  0  0  0  0  0  0
  185.8860  178.3800  143.5020 C   0  0  1  0  0  3  0  0  0  0  0  0
  188.9970  177.3660  145.4630 C   0  0  0  0  0  3  0  0  0  0  0  0
  186.7980  178.1000  146.1780 C   0  0  0  0  0  0  0  0  0  0  0  0
  187.1130  177.7490  147.4930 C   0  0  0  0  0  3  0  0  0  0  0  0
  185.5750  179.1230  142.2010 C   0  0  0  0  0  2  0  0  0  0  0  0
  187.7740  178.3260  141.2230 C   0  0  2  0  0  3  0  0  0  0  0  0
  183.8620  179.5150  144.4560 O   0  0  0  0  0  0  0  0  0  0  0  0
  182.6380  178.7900  144.4720 C   0  0  0  0  0  2  0  0  0  0  0  0
  181.7810  179.1880  143.2820 C   0  0  0  0  0  2  0  0  0  0  0  0
  182.0330  178.2720  142.0900 C   0  0  0  0  0  2  0  0  0  0  0  0
  182.1180  179.0550  140.7880 C   0  0  0  0  0  2  0  0  0  0  0  0
  182.3470  178.8210  138.4840 C   0  0  0  0  0  1  0  0  0  0  0  0
  181.7700  178.2020  139.6630 N   0  0  0  0  0  0  0  0  0  0  0  0
  182.4780  176.9430  139.8540 C   0  0  0  0  0  2  0  0  0  0  0  0
  182.2510  175.9940  138.6800 C   0  0  2  0  0  3  0  0  0  0  0  0
  181.0040  175.1550  138.8910 C   0  0  0  0  0  1  0  0  0  0  0  0
  183.3570  175.1640  138.4990 O   0  0  0  0  0  1  0  0  0  0  0  0
  188.3600  177.5150  140.1650 N   0  0  0  0  0  2  0  0  0  0  0  0
  189.2990  178.3620  139.4480 C   0  0  0  0  0  2  0  0  0  0  0  0
  188.4990  178.8110  137.2770 O   0  0  0  0  0  0  0  0  0  0  0  0
  189.1990  178.1010  137.9820 C   0  0  0  0  0  3  0  0  0  0  0  0
  1  8  1  0  0  0  0
  1  5  1  0  0  0  0
  2  3  1  6  0  0  0
  2  4  1  0  0  0  0
  3  6  2  0  0  0  0
  4 12  1  0  0  0  0
  4 13  2  0  0  0  0
  7 10  2  0  0  0  0
  9 16  1  0  0  0  0
  9 15  1  0  0  0  0
 10 13  1  0  0  0  0
 11 15  1  6  0  0  0
 11  2  1  0  0  0  0
 11  7  1  0  0  0  0
 12  1  2  0  0  0  0
 13 14  1  0  0  0  0
 14  5  2  0  0  0  0
 16 28  1  6  0  0  0
 16  3  1  0  0  0  0
 17 18  1  0  0  0  0
 17  7  1  0  0  0  0
 19 18  1  0  0  0  0
 20 19  1  0  0  0  0
 21 20  1  0  0  0  0
 22 23  1  0  0  0  0
 23 24  1  0  0  0  0
 23 21  1  0  0  0  0
 25 26  1  1  0  0  0
 25 24  1  0  0  0  0
 27 25  1  0  0  0  0
 29 28  1  0  0  0  0
 30 31  2  0  0  0  0
 31 29  1  0  0  0  0
M  END
>  <MODEL>
9

>  <REMARK>
 VINA RESULT:      -6.6      2.234      5.194
  Name = 
  11 active torsions:
  status: ('A' for Active; 'I' for Inactive)
    1  A    between atoms: C_1  and  C_24
    2  A    between atoms: C_3  and  C_9
    3  A    between atoms: C_3  and  C_22
    4  A    between atoms: C_7  and  C_9
    5  A    between atoms: C_7  and  O_23
    6  A    between atoms: C_15  and  O_23
    7  A    between atoms: C_18  and  C_26
    8  A    between atoms: N_19  and  C_22
    9  A    between atoms: N_19  and  C_24
   10  A    between atoms: C_26  and  N_31
   11  A    between atoms: C_30  and  N_31
                            x       y       z     vdW  Elec       q    Type
                         _______ _______ _______ _____ _____    ______ ____

>  <TORSDO>
F 11

$$$$
