=
 OpenBabel10272400483D

 25 28  0  0  1  0  0  0  0  0999 V2000
  187.3640  177.8120  145.6310 C   0  0  0  0  0  0  0  0  0  0  0  0
  188.6900  177.3910  145.4220 C   0  0  0  0  0  0  0  0  0  0  0  0
  187.7460  177.8410  148.0280 C   0  0  0  0  0  3  0  0  0  0  0  0
  186.3560  178.0650  144.6800 C   0  0  0  0  0  0  0  0  0  0  0  0
  184.1240  178.6570  143.1060 C   0  0  0  0  0  3  0  0  0  0  0  0
  189.0270  177.4310  147.8150 N   0  0  0  0  0  0  0  0  0  0  0  0
  185.1570  178.4710  145.2620 C   0  0  0  0  0  0  0  0  0  0  0  0
  184.0300  178.7710  144.5010 C   0  0  0  0  0  3  0  0  0  0  0  0
  190.8440  176.7790  146.3730 C   0  0  0  0  0  0  0  0  0  0  0  0
  191.7540  176.5630  147.5330 C   0  0  0  0  0  1  0  0  0  0  0  0
  189.2120  177.1510  144.1470 C   0  0  0  0  0  3  0  0  0  0  0  0
  185.3280  178.2480  142.5030 C   0  0  0  0  0  3  0  0  0  0  0  0
  186.9150  178.0310  146.9300 C   0  0  0  0  0  0  0  0  0  0  0  0
  185.3040  178.5280  146.9390 S   0  0  0  0  0  0  0  0  0  0  0  0
  191.3130  176.5560  145.1160 N   0  0  0  0  0  0  0  0  0  0  0  0
  186.4520  177.9490  143.2890 C   0  0  0  0  0  3  0  0  0  0  0  0
  190.5370  176.7370  144.0120 C   0  0  0  0  0  0  0  0  0  0  0  0
  189.5180  177.2030  146.5590 C   0  0  0  0  0  0  0  0  0  0  0  0
  191.0930  176.4570  142.6610 C   0  0  0  0  0  2  0  0  0  0  0  0
  189.9940  176.5530  141.6170 C   0  0  0  0  0  2  0  0  0  0  0  0
  190.5720  176.9740  140.2750 C   0  0  2  0  0  3  0  0  0  0  0  0
  191.8200  177.5660  140.4670 O   0  0  0  0  0  1  0  0  0  0  0  0
  189.6440  177.9410  139.5480 C   0  0  0  0  0  2  0  0  0  0  0  0
  188.6170  178.3700  140.3920 O   0  0  0  0  0  0  0  0  0  0  0  0
  187.5690  178.4850  139.6060 O   0  0  0  0  0  1  0  0  0  0  0  0
  1 13  1  0  0  0  0
  2  1  2  0  0  0  0
  2 18  1  0  0  0  0
  4  7  1  0  0  0  0
  4  1  1  0  0  0  0
  5  8  1  0  0  0  0
  6  3  1  0  0  0  0
  7 14  1  0  0  0  0
  8  7  2  0  0  0  0
  9 18  1  0  0  0  0
  9 10  1  0  0  0  0
 11  2  1  0  0  0  0
 12  5  2  0  0  0  0
 12 16  1  0  0  0  0
 13 14  1  0  0  0  0
 13  3  2  0  0  0  0
 15  9  2  0  0  0  0
 16  4  2  0  0  0  0
 17 11  2  0  0  0  0
 17 15  1  0  0  0  0
 18  6  2  0  0  0  0
 19 17  1  0  0  0  0
 20 19  1  0  0  0  0
 21 22  1  1  0  0  0
 21 20  1  0  0  0  0
 23 21  1  0  0  0  0
 23 24  1  0  0  0  0
 25 24  1  0  0  0  0
M  END
>  <MODEL>
1

>  <REMARK>
 VINA RESULT:      -9.5      0.000      0.000
  Name = 
  5 active torsions:
  status: ('A' for Active; 'I' for Inactive)
    1  A    between atoms: C_2  and  O_7
    2  A    between atoms: C_2  and  C_21
    3  A    between atoms: C_6  and  C_15
    4  A    between atoms: C_6  and  C_23
    5  A    between atoms: C_15  and  C_21
                            x       y       z     vdW  Elec       q    Type
                         _______ _______ _______ _____ _____    ______ ____

>  <TORSDO>
F 5

$$$$
=
 OpenBabel10272400483D

 25 28  0  0  1  0  0  0  0  0999 V2000
  187.4710  177.7990  145.6140 C   0  0  0  0  0  0  0  0  0  0  0  0
  188.7810  177.3440  145.3750 C   0  0  0  0  0  0  0  0  0  0  0  0
  187.9160  177.8460  147.9990 C   0  0  0  0  0  3  0  0  0  0  0  0
  186.4450  178.0640  144.6860 C   0  0  0  0  0  0  0  0  0  0  0  0
  184.1860  178.6910  143.1640 C   0  0  0  0  0  3  0  0  0  0  0  0
  189.1820  177.4030  147.7570 N   0  0  0  0  0  0  0  0  0  0  0  0
  185.2710  178.5060  145.2940 C   0  0  0  0  0  0  0  0  0  0  0  0
  184.1310  178.8240  144.5590 C   0  0  0  0  0  3  0  0  0  0  0  0
  190.9440  176.6920  146.2770 C   0  0  0  0  0  0  0  0  0  0  0  0
  191.8790  176.4680  147.4150 C   0  0  0  0  0  1  0  0  0  0  0  0
  189.2630  177.0780  144.0900 C   0  0  0  0  0  3  0  0  0  0  0  0
  185.3640  178.2480  142.5350 C   0  0  0  0  0  3  0  0  0  0  0  0
  187.0610  178.0430  146.9210 C   0  0  0  0  0  0  0  0  0  0  0  0
  185.4630  178.5790  146.9660 S   0  0  0  0  0  0  0  0  0  0  0  0
  191.3750  176.4430  145.0110 N   0  0  0  0  0  0  0  0  0  0  0  0
  186.5010  177.9310  143.2950 C   0  0  0  0  0  3  0  0  0  0  0  0
  190.5740  176.6300  143.9260 C   0  0  0  0  0  0  0  0  0  0  0  0
  189.6340  177.1500  146.4920 C   0  0  0  0  0  0  0  0  0  0  0  0
  191.0880  176.3220  142.5640 C   0  0  0  0  0  2  0  0  0  0  0  0
  190.1650  176.9170  141.5140 C   0  0  0  0  0  2  0  0  0  0  0  0
  190.9180  177.1450  140.2130 C   0  0  2  0  0  3  0  0  0  0  0  0
  190.8650  175.9900  139.4320 O   0  0  0  0  0  1  0  0  0  0  0  0
  192.3700  177.5330  140.4700 C   0  0  0  0  0  2  0  0  0  0  0  0
  193.1850  177.1220  139.4120 O   0  0  0  0  0  0  0  0  0  0  0  0
  194.3320  176.8160  139.9790 O   0  0  0  0  0  1  0  0  0  0  0  0
  1 13  1  0  0  0  0
  2  1  2  0  0  0  0
  2 18  1  0  0  0  0
  4  7  1  0  0  0  0
  4  1  1  0  0  0  0
  5  8  1  0  0  0  0
  6  3  1  0  0  0  0
  7 14  1  0  0  0  0
  8  7  2  0  0  0  0
  9 18  1  0  0  0  0
  9 10  1  0  0  0  0
 11  2  1  0  0  0  0
 12  5  2  0  0  0  0
 12 16  1  0  0  0  0
 13 14  1  0  0  0  0
 13  3  2  0  0  0  0
 15  9  2  0  0  0  0
 16  4  2  0  0  0  0
 17 11  2  0  0  0  0
 17 15  1  0  0  0  0
 18  6  2  0  0  0  0
 19 17  1  0  0  0  0
 20 19  1  0  0  0  0
 21 22  1  6  0  0  0
 21 23  1  0  0  0  0
 21 20  1  0  0  0  0
 24 25  1  0  0  0  0
 24 23  1  0  0  0  0
M  END
>  <MODEL>
2

>  <REMARK>
 VINA RESULT:      -9.3      1.189      1.851
  Name = 
  5 active torsions:
  status: ('A' for Active; 'I' for Inactive)
    1  A    between atoms: C_2  and  O_7
    2  A    between atoms: C_2  and  C_21
    3  A    between atoms: C_6  and  C_15
    4  A    between atoms: C_6  and  C_23
    5  A    between atoms: C_15  and  C_21
                            x       y       z     vdW  Elec       q    Type
                         _______ _______ _______ _____ _____    ______ ____

>  <TORSDO>
F 5

$$$$
=
 OpenBabel10272400483D

 25 28  0  0  1  0  0  0  0  0999 V2000
  187.5520  177.8570  145.8190 C   0  0  0  0  0  0  0  0  0  0  0  0
  186.7320  178.1450  144.7130 C   0  0  0  0  0  0  0  0  0  0  0  0
  185.7200  178.3860  147.3200 C   0  0  0  0  0  3  0  0  0  0  0  0
  188.8960  177.4370  145.8380 C   0  0  0  0  0  0  0  0  0  0  0  0
  191.5280  176.6030  146.2740 C   0  0  0  0  0  3  0  0  0  0  0  0
  184.9350  178.6640  146.2430 N   0  0  0  0  0  0  0  0  0  0  0  0
  189.3830  177.2470  147.1300 C   0  0  0  0  0  0  0  0  0  0  0  0
  190.6900  176.8330  147.3750 C   0  0  0  0  0  3  0  0  0  0  0  0
  184.5630  178.8520  143.8690 C   0  0  0  0  0  0  0  0  0  0  0  0
  183.1540  179.2920  144.0740 C   0  0  0  0  0  1  0  0  0  0  0  0
  187.1840  178.0420  143.3930 C   0  0  0  0  0  3  0  0  0  0  0  0
  191.0520  176.7900  144.9640 C   0  0  0  0  0  3  0  0  0  0  0  0
  187.0320  177.9820  147.1040 C   0  0  0  0  0  0  0  0  0  0  0  0
  188.1870  177.5880  148.2670 S   0  0  0  0  0  0  0  0  0  0  0  0
  185.0410  178.7410  142.6010 N   0  0  0  0  0  0  0  0  0  0  0  0
  189.7310  177.2090  144.7390 C   0  0  0  0  0  3  0  0  0  0  0  0
  186.3160  178.3410  142.3430 C   0  0  0  0  0  0  0  0  0  0  0  0
  185.3970  178.5560  144.9600 C   0  0  0  0  0  0  0  0  0  0  0  0
  186.7960  178.2570  140.9370 C   0  0  0  0  0  2  0  0  0  0  0  0
  188.3020  178.4530  140.8900 C   0  0  0  0  0  2  0  0  0  0  0  0
  188.9470  177.4010  140.0020 C   0  0  2  0  0  3  0  0  0  0  0  0
  190.0580  176.8590  140.6490 O   0  0  0  0  0  1  0  0  0  0  0  0
  189.3620  177.9860  138.6560 C   0  0  0  0  0  2  0  0  0  0  0  0
  188.9990  179.3320  138.5700 O   0  0  0  0  0  0  0  0  0  0  0  0
  189.0330  179.6000  137.2820 O   0  0  0  0  0  1  0  0  0  0  0  0
  1  4  1  0  0  0  0
  1 13  2  0  0  0  0
  2 18  1  0  0  0  0
  2  1  1  0  0  0  0
  4  7  1  0  0  0  0
  5  8  1  0  0  0  0
  6  3  2  0  0  0  0
  7  8  2  0  0  0  0
  7 14  1  0  0  0  0
  9 10  1  0  0  0  0
  9 18  2  0  0  0  0
 11  2  2  0  0  0  0
 12  5  2  0  0  0  0
 13  3  1  0  0  0  0
 13 14  1  0  0  0  0
 15  9  1  0  0  0  0
 16 12  1  0  0  0  0
 16  4  2  0  0  0  0
 17 15  2  0  0  0  0
 17 11  1  0  0  0  0
 18  6  1  0  0  0  0
 19 17  1  0  0  0  0
 20 19  1  0  0  0  0
 21 22  1  1  0  0  0
 21 20  1  0  0  0  0
 23 21  1  0  0  0  0
 24 23  1  0  0  0  0
 25 24  1  0  0  0  0
M  END
>  <MODEL>
3

>  <REMARK>
 VINA RESULT:      -9.3      2.122      4.684
  Name = 
  5 active torsions:
  status: ('A' for Active; 'I' for Inactive)
    1  A    between atoms: C_2  and  O_7
    2  A    between atoms: C_2  and  C_21
    3  A    between atoms: C_6  and  C_15
    4  A    between atoms: C_6  and  C_23
    5  A    between atoms: C_15  and  C_21
                            x       y       z     vdW  Elec       q    Type
                         _______ _______ _______ _____ _____    ______ ____

>  <TORSDO>
F 5

$$$$
=
 OpenBabel10272400483D

 25 28  0  0  1  0  0  0  0  0999 V2000
  189.5040  177.4870  143.7890 C   0  0  0  0  0  0  0  0  0  0  0  0
  188.7970  177.8210  142.6200 C   0  0  0  0  0  0  0  0  0  0  0  0
  191.4970  177.0650  142.4710 C   0  0  0  0  0  3  0  0  0  0  0  0
  189.0490  177.4670  145.1220 C   0  0  0  0  0  0  0  0  0  0  0  0
  188.5170  177.3110  147.8620 C   0  0  0  0  0  3  0  0  0  0  0  0
  190.8040  177.3890  141.3440 N   0  0  0  0  0  0  0  0  0  0  0  0
  190.0400  177.0840  146.0240 C   0  0  0  0  0  0  0  0  0  0  0  0
  189.8010  176.9970  147.3930 C   0  0  0  0  0  3  0  0  0  0  0  0
  188.8000  178.0860  140.2010 C   0  0  0  0  0  0  0  0  0  0  0  0
  189.4780  178.0350  138.8750 C   0  0  0  0  0  1  0  0  0  0  0  0
  187.4520  178.2030  142.6350 C   0  0  0  0  0  3  0  0  0  0  0  0
  187.5060  177.7010  146.9640 C   0  0  0  0  0  3  0  0  0  0  0  0
  190.8420  177.1160  143.6950 C   0  0  0  0  0  0  0  0  0  0  0  0
  191.4820  176.7630  145.2140 S   0  0  0  0  0  0  0  0  0  0  0  0
  187.4910  178.4520  140.2600 N   0  0  0  0  0  0  0  0  0  0  0  0
  187.7670  177.7810  145.5870 C   0  0  0  0  0  3  0  0  0  0  0  0
  186.8130  178.5230  141.4370 C   0  0  0  0  0  0  0  0  0  0  0  0
  189.4880  177.7610  141.3820 C   0  0  0  0  0  0  0  0  0  0  0  0
  185.3760  178.9070  141.4430 C   0  0  0  0  0  2  0  0  0  0  0  0
  184.9770  179.4060  142.8210 C   0  0  0  0  0  2  0  0  0  0  0  0
  183.7870  178.6190  143.3470 C   0  0  2  0  0  3  0  0  0  0  0  0
  182.7140  178.7450  142.4640 O   0  0  0  0  0  1  0  0  0  0  0  0
  183.3760  179.0920  144.7370 C   0  0  0  0  0  2  0  0  0  0  0  0
  184.4990  179.2950  145.5420 O   0  0  0  0  0  0  0  0  0  0  0  0
  184.2490  178.6110  146.6370 O   0  0  0  0  0  1  0  0  0  0  0  0
  1  4  1  0  0  0  0
  2 11  1  0  0  0  0
  2  1  1  0  0  0  0
  3 13  1  0  0  0  0
  4 16  2  0  0  0  0
  4  7  1  0  0  0  0
  6 18  1  0  0  0  0
  6  3  2  0  0  0  0
  7  8  2  0  0  0  0
  8  5  1  0  0  0  0
  9 15  2  0  0  0  0
  9 18  1  0  0  0  0
 10  9  1  0  0  0  0
 12  5  2  0  0  0  0
 13  1  2  0  0  0  0
 13 14  1  0  0  0  0
 14  7  1  0  0  0  0
 15 17  1  0  0  0  0
 16 12  1  0  0  0  0
 17 19  1  0  0  0  0
 17 11  2  0  0  0  0
 18  2  2  0  0  0  0
 19 20  1  0  0  0  0
 20 21  1  0  0  0  0
 21 22  1  6  0  0  0
 21 23  1  0  0  0  0
 23 24  1  0  0  0  0
 24 25  1  0  0  0  0
M  END
>  <MODEL>
4

>  <REMARK>
 VINA RESULT:      -9.2      3.360      6.169
  Name = 
  5 active torsions:
  status: ('A' for Active; 'I' for Inactive)
    1  A    between atoms: C_2  and  O_7
    2  A    between atoms: C_2  and  C_21
    3  A    between atoms: C_6  and  C_15
    4  A    between atoms: C_6  and  C_23
    5  A    between atoms: C_15  and  C_21
                            x       y       z     vdW  Elec       q    Type
                         _______ _______ _______ _____ _____    ______ ____

>  <TORSDO>
F 5

$$$$
=
 OpenBabel10272400483D

 25 28  0  0  1  0  0  0  0  0999 V2000
  189.3150  177.4470  144.1920 C   0  0  0  0  0  0  0  0  0  0  0  0
  188.3260  177.7210  145.1540 C   0  0  0  0  0  0  0  0  0  0  0  0
  190.9020  176.9480  145.9590 C   0  0  0  0  0  3  0  0  0  0  0  0
  189.2220  177.4990  142.7880 C   0  0  0  0  0  0  0  0  0  0  0  0
  189.4200  177.4900  140.0000 C   0  0  0  0  0  3  0  0  0  0  0  0
  189.9380  177.2170  146.8830 N   0  0  0  0  0  0  0  0  0  0  0  0
  190.4150  177.1570  142.1560 C   0  0  0  0  0  0  0  0  0  0  0  0
  190.5420  177.1450  140.7690 C   0  0  0  0  0  3  0  0  0  0  0  0
  187.7020  177.8690  147.5010 C   0  0  0  0  0  0  0  0  0  0  0  0
  188.0160  177.7570  148.9530 C   0  0  0  0  0  1  0  0  0  0  0  0
  187.0280  178.1100  144.8100 C   0  0  0  0  0  3  0  0  0  0  0  0
  188.2070  177.8370  140.6230 C   0  0  0  0  0  3  0  0  0  0  0  0
  190.5860  177.0640  144.6110 C   0  0  0  0  0  0  0  0  0  0  0  0
  191.6020  176.7880  143.2940 S   0  0  0  0  0  0  0  0  0  0  0  0
  186.4500  178.2460  147.1240 N   0  0  0  0  0  0  0  0  0  0  0  0
  188.1020  177.8430  142.0230 C   0  0  0  0  0  3  0  0  0  0  0  0
  186.0950  178.3650  145.8150 C   0  0  0  0  0  0  0  0  0  0  0  0
  188.6740  177.5960  146.5240 C   0  0  0  0  0  0  0  0  0  0  0  0
  184.7190  178.8020  145.4580 C   0  0  0  0  0  2  0  0  0  0  0  0
  184.7510  179.6250  144.1820 C   0  0  0  0  0  2  0  0  0  0  0  0
  183.6380  179.1910  143.2410 C   0  0  2  0  0  3  0  0  0  0  0  0
  182.6650  178.4920  143.9570 O   0  0  0  0  0  1  0  0  0  0  0  0
  184.1730  178.3230  142.1070 C   0  0  0  0  0  2  0  0  0  0  0  0
  183.9910  178.9550  140.8750 O   0  0  0  0  0  0  0  0  0  0  0  0
  185.1300  179.5710  140.6480 O   0  0  0  0  0  1  0  0  0  0  0  0
  1 13  1  0  0  0  0
  1  2  2  0  0  0  0
  2 18  1  0  0  0  0
  3  6  1  0  0  0  0
  4  1  1  0  0  0  0
  5 12  2  0  0  0  0
  5  8  1  0  0  0  0
  7  4  1  0  0  0  0
  7 14  1  0  0  0  0
  8  7  2  0  0  0  0
  9 10  1  0  0  0  0
 11  2  1  0  0  0  0
 11 17  2  0  0  0  0
 12 16  1  0  0  0  0
 13  3  2  0  0  0  0
 14 13  1  0  0  0  0
 15  9  2  0  0  0  0
 16  4  2  0  0  0  0
 17 15  1  0  0  0  0
 18  6  2  0  0  0  0
 18  9  1  0  0  0  0
 19 17  1  0  0  0  0
 20 19  1  0  0  0  0
 21 22  1  1  0  0  0
 21 20  1  0  0  0  0
 23 21  1  0  0  0  0
 24 23  1  0  0  0  0
 25 24  1  0  0  0  0
M  END
>  <MODEL>
5

>  <REMARK>
 VINA RESULT:      -8.9      2.457      5.216
  Name = 
  5 active torsions:
  status: ('A' for Active; 'I' for Inactive)
    1  A    between atoms: C_2  and  O_7
    2  A    between atoms: C_2  and  C_21
    3  A    between atoms: C_6  and  C_15
    4  A    between atoms: C_6  and  C_23
    5  A    between atoms: C_15  and  C_21
                            x       y       z     vdW  Elec       q    Type
                         _______ _______ _______ _____ _____    ______ ____

>  <TORSDO>
F 5

$$$$
=
 OpenBabel10272400483D

 25 28  0  0  1  0  0  0  0  0999 V2000
  186.5850  178.2660  142.8380 C   0  0  0  0  0  0  0  0  0  0  0  0
  187.8350  177.8900  142.3140 C   0  0  0  0  0  0  0  0  0  0  0  0
  185.7990  178.7880  140.6020 C   0  0  0  0  0  3  0  0  0  0  0  0
  186.1530  178.2680  144.1780 C   0  0  0  0  0  0  0  0  0  0  0  0
  184.9460  178.4080  146.6960 C   0  0  0  0  0  3  0  0  0  0  0  0
  187.0130  178.4230  140.1050 N   0  0  0  0  0  0  0  0  0  0  0  0
  184.8380  178.7080  144.3190 C   0  0  0  0  0  0  0  0  0  0  0  0
  184.2130  178.7880  145.5620 C   0  0  0  0  0  3  0  0  0  0  0  0
  189.2680  177.6140  140.3670 C   0  0  0  0  0  0  0  0  0  0  0  0
  189.5210  177.6950  138.9010 C   0  0  0  0  0  1  0  0  0  0  0  0
  188.8840  177.4360  143.1200 C   0  0  0  0  0  3  0  0  0  0  0  0
  186.2740  177.9600  146.5700 C   0  0  0  0  0  3  0  0  0  0  0  0
  185.5880  178.7080  141.9730 C   0  0  0  0  0  0  0  0  0  0  0  0
  184.1830  179.1030  142.8180 S   0  0  0  0  0  0  0  0  0  0  0  0
  190.2630  177.1790  141.1850 N   0  0  0  0  0  0  0  0  0  0  0  0
  186.8850  177.8890  145.3090 C   0  0  0  0  0  3  0  0  0  0  0  0
  190.0980  177.0770  142.5330 C   0  0  0  0  0  0  0  0  0  0  0  0
  188.0250  177.9810  140.9110 C   0  0  0  0  0  0  0  0  0  0  0  0
  191.2260  176.6160  143.3850 C   0  0  0  0  0  2  0  0  0  0  0  0
  191.4810  177.6190  144.4960 C   0  0  0  0  0  2  0  0  0  0  0  0
  191.5660  176.9140  145.8400 C   0  0  2  0  0  3  0  0  0  0  0  0
  191.9820  175.5950  145.6520 O   0  0  0  0  0  1  0  0  0  0  0  0
  190.2260  176.9380  146.5690 C   0  0  0  0  0  2  0  0  0  0  0  0
  190.4000  177.2890  147.9090 O   0  0  0  0  0  0  0  0  0  0  0  0
  189.3560  178.0370  148.1920 O   0  0  0  0  0  1  0  0  0  0  0  0
  1  4  1  0  0  0  0
  2  1  1  0  0  0  0
  2 11  1  0  0  0  0
  3 13  1  0  0  0  0
  4  7  2  0  0  0  0
  4 16  1  0  0  0  0
  6  3  2  0  0  0  0
  6 18  1  0  0  0  0
  7  8  1  0  0  0  0
  8  5  2  0  0  0  0
  9 18  1  0  0  0  0
  9 15  2  0  0  0  0
 10  9  1  0  0  0  0
 12  5  1  0  0  0  0
 13 14  1  0  0  0  0
 13  1  2  0  0  0  0
 14  7  1  0  0  0  0
 15 17  1  0  0  0  0
 16 12  2  0  0  0  0
 17 11  2  0  0  0  0
 17 19  1  0  0  0  0
 18  2  2  0  0  0  0
 19 20  1  0  0  0  0
 20 21  1  0  0  0  0
 21 22  1  6  0  0  0
 21 23  1  0  0  0  0
 23 24  1  0  0  0  0
 24 25  1  0  0  0  0
M  END
>  <MODEL>
6

>  <REMARK>
 VINA RESULT:      -8.8      3.208      5.161
  Name = 
  5 active torsions:
  status: ('A' for Active; 'I' for Inactive)
    1  A    between atoms: C_2  and  O_7
    2  A    between atoms: C_2  and  C_21
    3  A    between atoms: C_6  and  C_15
    4  A    between atoms: C_6  and  C_23
    5  A    between atoms: C_15  and  C_21
                            x       y       z     vdW  Elec       q    Type
                         _______ _______ _______ _____ _____    ______ ____

>  <TORSDO>
F 5

$$$$
=
 OpenBabel10272400483D

 25 28  0  0  1  0  0  0  0  0999 V2000
  186.2710  178.2660  144.3420 C   0  0  0  0  0  0  0  0  0  0  0  0
  186.4480  178.3580  142.9500 C   0  0  0  0  0  0  0  0  0  0  0  0
  183.9510  178.9360  144.0980 C   0  0  0  0  0  3  0  0  0  0  0  0
  187.2070  177.9050  145.3300 C   0  0  0  0  0  0  0  0  0  0  0  0
  188.7680  177.2450  147.5530 C   0  0  0  0  0  3  0  0  0  0  0  0
  184.1330  179.0240  142.7510 N   0  0  0  0  0  0  0  0  0  0  0  0
  186.6680  177.9230  146.6150 C   0  0  0  0  0  0  0  0  0  0  0  0
  187.4240  177.5990  147.7400 C   0  0  0  0  0  3  0  0  0  0  0  0
  185.4920  178.8510  140.7680 C   0  0  0  0  0  0  0  0  0  0  0  0
  184.3570  179.2620  139.8930 C   0  0  0  0  0  1  0  0  0  0  0  0
  187.6680  178.0820  142.3250 C   0  0  0  0  0  3  0  0  0  0  0  0
  189.3270  177.2200  146.2620 C   0  0  0  0  0  3  0  0  0  0  0  0
  185.0250  178.5560  144.8930 C   0  0  0  0  0  0  0  0  0  0  0  0
  185.0470  178.3790  146.5690 S   0  0  0  0  0  0  0  0  0  0  0  0
  186.6960  178.5750  140.1990 N   0  0  0  0  0  0  0  0  0  0  0  0
  188.5480  177.5520  145.1430 C   0  0  0  0  0  3  0  0  0  0  0  0
  187.7730  178.1920  140.9390 C   0  0  0  0  0  0  0  0  0  0  0  0
  185.3350  178.7490  142.1600 C   0  0  0  0  0  0  0  0  0  0  0  0
  189.0740  177.9230  140.2690 C   0  0  0  0  0  2  0  0  0  0  0  0
  189.9090  176.9810  141.1180 C   0  0  0  0  0  2  0  0  0  0  0  0
  191.1740  177.6770  141.5950 C   0  0  2  0  0  3  0  0  0  0  0  0
  192.2350  177.3550  140.7480 O   0  0  0  0  0  1  0  0  0  0  0  0
  191.5170  177.2880  143.0300 C   0  0  0  0  0  2  0  0  0  0  0  0
  191.9700  178.3980  143.7460 O   0  0  0  0  0  0  0  0  0  0  0  0
  190.9720  179.2530  143.6970 O   0  0  0  0  0  1  0  0  0  0  0  0
  1 13  2  0  0  0  0
  1  4  1  0  0  0  0
  2  1  1  0  0  0  0
  3 13  1  0  0  0  0
  4  7  1  0  0  0  0
  5  8  1  0  0  0  0
  6  3  2  0  0  0  0
  7  8  2  0  0  0  0
  9 18  1  0  0  0  0
 10  9  1  0  0  0  0
 11  2  1  0  0  0  0
 12  5  2  0  0  0  0
 13 14  1  0  0  0  0
 14  7  1  0  0  0  0
 15  9  2  0  0  0  0
 15 17  1  0  0  0  0
 16  4  2  0  0  0  0
 16 12  1  0  0  0  0
 17 11  2  0  0  0  0
 18  6  1  0  0  0  0
 18  2  2  0  0  0  0
 19 17  1  0  0  0  0
 19 20  1  0  0  0  0
 20 21  1  0  0  0  0
 21 22  1  6  0  0  0
 21 23  1  0  0  0  0
 23 24  1  0  0  0  0
 25 24  1  0  0  0  0
M  END
>  <MODEL>
7

>  <REMARK>
 VINA RESULT:      -8.7      2.542      4.899
  Name = 
  5 active torsions:
  status: ('A' for Active; 'I' for Inactive)
    1  A    between atoms: C_2  and  O_7
    2  A    between atoms: C_2  and  C_21
    3  A    between atoms: C_6  and  C_15
    4  A    between atoms: C_6  and  C_23
    5  A    between atoms: C_15  and  C_21
                            x       y       z     vdW  Elec       q    Type
                         _______ _______ _______ _____ _____    ______ ____

>  <TORSDO>
F 5

$$$$
=
 OpenBabel10272400483D

 25 28  0  0  1  0  0  0  0  0999 V2000
  186.3670  178.2640  144.3400 C   0  0  0  0  0  0  0  0  0  0  0  0
  186.5000  178.3350  142.9420 C   0  0  0  0  0  0  0  0  0  0  0  0
  184.0340  178.9060  144.1560 C   0  0  0  0  0  3  0  0  0  0  0  0
  187.3370  177.9290  145.3050 C   0  0  0  0  0  0  0  0  0  0  0  0
  188.9710  177.3220  147.4900 C   0  0  0  0  0  3  0  0  0  0  0  0
  184.1740  178.9740  142.8030 N   0  0  0  0  0  0  0  0  0  0  0  0
  186.8370  177.9630  146.6050 C   0  0  0  0  0  0  0  0  0  0  0  0
  187.6300  177.6650  147.7110 C   0  0  0  0  0  3  0  0  0  0  0  0
  185.4730  178.7830  140.7830 C   0  0  0  0  0  0  0  0  0  0  0  0
  184.3080  179.1680  139.9370 C   0  0  0  0  0  1  0  0  0  0  0  0
  187.7040  178.0620  142.2850 C   0  0  0  0  0  3  0  0  0  0  0  0
  189.4910  177.2820  146.1830 C   0  0  0  0  0  3  0  0  0  0  0  0
  185.1360  178.5500  144.9240 C   0  0  0  0  0  0  0  0  0  0  0  0
  185.2100  178.4010  146.6010 S   0  0  0  0  0  0  0  0  0  0  0  0
  186.6630  178.5110  140.1820 N   0  0  0  0  0  0  0  0  0  0  0  0
  188.6750  177.5870  145.0820 C   0  0  0  0  0  3  0  0  0  0  0  0
  187.7650  178.1500  140.8940 C   0  0  0  0  0  0  0  0  0  0  0  0
  185.3600  178.7020  142.1810 C   0  0  0  0  0  0  0  0  0  0  0  0
  189.0480  177.8840  140.1900 C   0  0  0  0  0  2  0  0  0  0  0  0
  189.8990  176.9250  141.0040 C   0  0  0  0  0  2  0  0  0  0  0  0
  191.2400  176.6970  140.3260 C   0  0  2  0  0  3  0  0  0  0  0  0
  192.1090  177.7420  140.6430 O   0  0  0  0  0  1  0  0  0  0  0  0
  191.0880  176.5880  138.8130 C   0  0  0  0  0  2  0  0  0  0  0  0
  190.4770  175.3810  138.4640 O   0  0  0  0  0  0  0  0  0  0  0  0
  191.4660  174.6170  138.0540 O   0  0  0  0  0  1  0  0  0  0  0  0
  1 13  2  0  0  0  0
  1  4  1  0  0  0  0
  2  1  1  0  0  0  0
  3 13  1  0  0  0  0
  4  7  1  0  0  0  0
  5  8  1  0  0  0  0
  6  3  2  0  0  0  0
  7  8  2  0  0  0  0
  9 18  1  0  0  0  0
 10  9  1  0  0  0  0
 11  2  1  0  0  0  0
 12  5  2  0  0  0  0
 13 14  1  0  0  0  0
 14  7  1  0  0  0  0
 15  9  2  0  0  0  0
 15 17  1  0  0  0  0
 16  4  2  0  0  0  0
 16 12  1  0  0  0  0
 17 11  2  0  0  0  0
 18  6  1  0  0  0  0
 18  2  2  0  0  0  0
 19 17  1  0  0  0  0
 19 20  1  0  0  0  0
 21 22  1  6  0  0  0
 21 20  1  0  0  0  0
 23 21  1  0  0  0  0
 24 23  1  0  0  0  0
 25 24  1  0  0  0  0
M  END
>  <MODEL>
8

>  <REMARK>
 VINA RESULT:      -8.5      2.518      4.832
  Name = 
  5 active torsions:
  status: ('A' for Active; 'I' for Inactive)
    1  A    between atoms: C_2  and  O_7
    2  A    between atoms: C_2  and  C_21
    3  A    between atoms: C_6  and  C_15
    4  A    between atoms: C_6  and  C_23
    5  A    between atoms: C_15  and  C_21
                            x       y       z     vdW  Elec       q    Type
                         _______ _______ _______ _____ _____    ______ ____

>  <TORSDO>
F 5

$$$$
=
 OpenBabel10272400483D

 25 28  0  0  1  0  0  0  0  0999 V2000
  187.6440  177.7160  145.5240 C   0  0  0  0  0  0  0  0  0  0  0  0
  186.8930  178.0550  144.3840 C   0  0  0  0  0  0  0  0  0  0  0  0
  185.7020  178.1070  146.9270 C   0  0  0  0  0  3  0  0  0  0  0  0
  188.9940  177.3260  145.6080 C   0  0  0  0  0  0  0  0  0  0  0  0
  191.6130  176.5250  146.1720 C   0  0  0  0  0  3  0  0  0  0  0  0
  184.9840  178.4350  145.8170 N   0  0  0  0  0  0  0  0  0  0  0  0
  189.3980  177.0650  146.9160 C   0  0  0  0  0  0  0  0  0  0  0  0
  190.6970  176.6650  147.2250 C   0  0  0  0  0  3  0  0  0  0  0  0
  184.7660  178.7660  143.4400 C   0  0  0  0  0  0  0  0  0  0  0  0
  183.3360  179.1610  143.5750 C   0  0  0  0  0  1  0  0  0  0  0  0
  187.4340  178.0470  143.0950 C   0  0  0  0  0  3  0  0  0  0  0  0
  191.2200  176.7840  144.8450 C   0  0  0  0  0  3  0  0  0  0  0  0
  187.0360  177.7470  146.7760 C   0  0  0  0  0  0  0  0  0  0  0  0
  188.1210  177.3050  147.9880 S   0  0  0  0  0  0  0  0  0  0  0  0
  185.3310  178.7470  142.2030 N   0  0  0  0  0  0  0  0  0  0  0  0
  189.9070  177.1870  144.5570 C   0  0  0  0  0  3  0  0  0  0  0  0
  186.6310  178.3930  142.0080 C   0  0  0  0  0  0  0  0  0  0  0  0
  185.5330  178.4200  144.5650 C   0  0  0  0  0  0  0  0  0  0  0  0
  187.2060  178.4100  140.6360 C   0  0  0  0  0  2  0  0  0  0  0  0
  188.6280  177.8770  140.6630 C   0  0  0  0  0  2  0  0  0  0  0  0
  189.2400  177.9270  139.2720 C   0  0  2  0  0  3  0  0  0  0  0  0
  188.9800  179.1670  138.6890 O   0  0  0  0  0  1  0  0  0  0  0  0
  188.6980  176.8110  138.3840 C   0  0  0  0  0  2  0  0  0  0  0  0
  189.2240  176.9070  137.0940 O   0  0  0  0  0  0  0  0  0  0  0  0
  188.1710  177.0310  136.3160 O   0  0  0  0  0  1  0  0  0  0  0  0
  1  4  1  0  0  0  0
  1 13  2  0  0  0  0
  2 18  1  0  0  0  0
  2  1  1  0  0  0  0
  4  7  1  0  0  0  0
  5  8  1  0  0  0  0
  6  3  2  0  0  0  0
  7  8  2  0  0  0  0
  7 14  1  0  0  0  0
  9 10  1  0  0  0  0
  9 18  2  0  0  0  0
 11  2  2  0  0  0  0
 12  5  2  0  0  0  0
 13  3  1  0  0  0  0
 13 14  1  0  0  0  0
 15  9  1  0  0  0  0
 16 12  1  0  0  0  0
 16  4  2  0  0  0  0
 17 15  2  0  0  0  0
 17 11  1  0  0  0  0
 18  6  1  0  0  0  0
 19 20  1  0  0  0  0
 19 17  1  0  0  0  0
 21 22  1  6  0  0  0
 21 20  1  0  0  0  0
 23 21  1  0  0  0  0
 24 23  1  0  0  0  0
 25 24  1  0  0  0  0
M  END
>  <MODEL>
9

>  <REMARK>
 VINA RESULT:      -8.5      2.287      4.782
  Name = 
  5 active torsions:
  status: ('A' for Active; 'I' for Inactive)
    1  A    between atoms: C_2  and  O_7
    2  A    between atoms: C_2  and  C_21
    3  A    between atoms: C_6  and  C_15
    4  A    between atoms: C_6  and  C_23
    5  A    between atoms: C_15  and  C_21
                            x       y       z     vdW  Elec       q    Type
                         _______ _______ _______ _____ _____    ______ ____

>  <TORSDO>
F 5

$$$$
