=
 OpenBabel10272414493D

 37 43  0  0  1  0  0  0  0  0999 V2000
  184.2030  176.5750  135.9990 C   0  0  1  0  0  0  0  0  0  0  0  0
  181.2100  176.6150  136.2480 C   0  0  1  0  0  0  0  0  0  0  0  0
  182.6950  177.9670  138.9170 C   0  0  0  0  0  0  0  0  0  0  0  0
  184.5660  175.5190  134.9150 C   0  0  1  0  0  3  0  0  0  0  0  0
  180.1620  178.5560  137.5670 C   0  0  0  0  0  2  0  0  0  0  0  0
  184.0320  177.5860  139.4970 C   0  0  2  0  0  3  0  0  0  0  0  0
  186.9510  174.9600  135.5550 C   0  0  0  0  0  0  0  0  0  0  0  0
  182.2770  174.5110  135.1040 C   0  0  0  0  0  2  0  0  0  0  0  0
  181.6310  176.9100  138.8180 C   0  0  0  0  0  2  0  0  0  0  0  0
  184.5190  178.7610  140.3680 C   0  0  2  0  0  3  0  0  0  0  0  0
  181.0600  180.7530  137.3560 O   0  0  0  0  0  0  0  0  0  0  0  0
  185.9570  175.3280  134.6390 O   0  0  0  0  0  0  0  0  0  0  0  0
  182.6810  176.8130  135.8450 C   0  0  2  0  0  3  0  0  0  0  0  0
  183.4940  180.2670  138.7910 C   0  0  0  0  0  3  0  0  0  0  0  0
  183.7730  174.2050  134.9890 C   0  0  0  0  0  2  0  0  0  0  0  0
  181.2400  179.5790  137.7750 C   0  0  0  0  0  0  0  0  0  0  0  0
  182.1050  175.4320  136.3040 C   0  0  1  0  0  3  0  0  0  0  0  0
  186.8750  175.2540  137.0190 C   0  0  0  0  0  2  0  0  0  0  0  0
  185.0250  177.3120  138.3670 C   0  0  0  0  0  2  0  0  0  0  0  0
  182.4730  179.2320  138.5070 C   0  0  0  0  0  0  0  0  0  0  0  0
  184.5800  176.1600  137.4610 C   0  0  2  0  0  3  0  0  0  0  0  0
  180.7050  177.1250  137.6140 C   0  0  2  0  0  3  0  0  0  0  0  0
  185.5060  174.9540  137.5970 C   0  0  0  0  0  2  0  0  0  0  0  0
  188.0190  174.4610  135.1120 O   0  0  0  0  0  0  0  0  0  0  0  0
  184.8900  177.8740  135.5920 C   0  0  0  0  0  1  0  0  0  0  0  0
  184.4590  180.0260  139.6290 N   0  0  0  0  0  0  0  0  0  0  0  0
  184.7560  177.9940  143.1950 C   0  0  0  0  0  2  0  0  0  0  0  0
  185.9630  178.1540  142.3830 N   0  0  0  0  0  0  0  0  0  0  0  0
  186.9100  178.7600  140.3340 O   0  0  0  0  0  0  0  0  0  0  0  0
  187.2790  177.8650  142.9630 C   0  0  0  0  0  2  0  0  0  0  0  0
  188.8030  177.3270  145.1690 S   0  0  0  0  0  1  0  0  0  0  0  0
  186.2980  178.4270  145.1990 C   0  0  0  0  0  2  0  0  0  0  0  0
  187.1550  177.4300  144.4210 C   0  0  1  0  0  3  0  0  0  0  0  0
  185.8630  178.5540  141.0070 C   0  0  0  0  0  0  0  0  0  0  0  0
  184.9300  178.6860  144.5490 C   0  0  0  0  0  2  0  0  0  0  0  0
  180.3770  178.3020  134.3460 C   0  0  0  0  0  1  0  0  0  0  0  0
  180.0060  176.6020  134.8670 S   0  0  0  0  0  0  0  0  0  0  0  0
  1 25  1  6  0  0  0
  1 21  1  0  0  0  0
  2 37  1  6  0  0  0
  2 17  1  0  0  0  0
  2 22  1  0  0  0  0
  3  6  1  0  0  0  0
  4 15  1  1  0  0  0
  4  1  1  0  0  0  0
  5 22  1  0  0  0  0
  5 16  1  0  0  0  0
  6 19  1  6  0  0  0
  6 10  1  0  0  0  0
  7 18  1  0  0  0  0
  8 17  1  0  0  0  0
  9  3  1  0  0  0  0
 10 34  1  6  0  0  0
 11 16  2  0  0  0  0
 12  4  1  0  0  0  0
 12  7  1  0  0  0  0
 13  1  1  0  0  0  0
 13  2  1  0  0  0  0
 13 17  1  0  0  0  0
 14 26  2  0  0  0  0
 15  8  1  0  0  0  0
 16 20  1  0  0  0  0
 18 23  1  0  0  0  0
 20 14  1  0  0  0  0
 20  3  2  0  0  0  0
 21 23  1  0  0  0  0
 21 19  1  0  0  0  0
 22  9  1  0  0  0  0
 24  7  2  0  0  0  0
 26 10  1  0  0  0  0
 27 35  1  0  0  0  0
 28 30  1  0  0  0  0
 28 27  1  0  0  0  0
 29 34  2  0  0  0  0
 30 33  1  0  0  0  0
 33 31  1  0  0  0  0
 33 32  1  0  0  0  0
 34 28  1  0  0  0  0
 35 32  1  0  0  0  0
 36 37  1  0  0  0  0
M  END
>  <MODEL>
1

>  <REMARK>
 VINA RESULT:      -6.1      0.000      0.000
  Name = 
  2 active torsions:
  status: ('A' for Active; 'I' for Inactive)
    1  A    between atoms: C_3  and  S_32
    2  A    between atoms: C_14  and  C_31
                            x       y       z     vdW  Elec       q    Type
                         _______ _______ _______ _____ _____    ______ ____

>  <TORSDO>
F 2

$$$$
=
 OpenBabel10272414493D

 37 43  0  0  1  0  0  0  0  0999 V2000
  182.7480  177.2400  138.8110 C   0  0  1  0  0  0  0  0  0  0  0  0
  181.7220  177.1460  135.9900 C   0  0  1  0  0  0  0  0  0  0  0  0
  185.0160  176.6060  136.1310 C   0  0  0  0  0  0  0  0  0  0  0  0
  181.6860  177.9870  139.6690 C   0  0  1  0  0  3  0  0  0  0  0  0
  182.9300  175.5790  134.3480 C   0  0  0  0  0  2  0  0  0  0  0  0
  185.9840  177.1790  137.1320 C   0  0  2  0  0  3  0  0  0  0  0  0
  183.1010  178.7910  141.6090 C   0  0  0  0  0  0  0  0  0  0  0  0
  180.6350  178.9160  137.5900 C   0  0  0  0  0  2  0  0  0  0  0  0
  184.2140  177.5550  135.2860 C   0  0  0  0  0  2  0  0  0  0  0  0
  187.2470  176.2970  137.1250 C   0  0  2  0  0  3  0  0  0  0  0  0
  183.6840  173.4430  135.0850 O   0  0  0  0  0  0  0  0  0  0  0  0
  181.9790  178.1540  141.0590 O   0  0  0  0  0  0  0  0  0  0  0  0
  182.0380  176.9080  137.4770 C   0  0  2  0  0  3  0  0  0  0  0  0
  185.8290  174.3880  136.7350 C   0  0  0  0  0  3  0  0  0  0  0  0
  181.0830  179.2400  139.0170 C   0  0  0  0  0  2  0  0  0  0  0  0
  183.8240  174.6920  135.1620 C   0  0  0  0  0  0  0  0  0  0  0  0
  181.8440  178.3370  136.8680 C   0  0  1  0  0  3  0  0  0  0  0  0
  184.4190  178.8900  140.9120 C   0  0  0  0  0  2  0  0  0  0  0  0
  185.3450  177.1870  138.5210 C   0  0  0  0  0  2  0  0  0  0  0  0
  184.8900  175.2690  136.0040 C   0  0  0  0  0  0  0  0  0  0  0  0
  184.0750  178.0400  138.5800 C   0  0  2  0  0  3  0  0  0  0  0  0
  182.8320  176.9940  134.9280 C   0  0  2  0  0  3  0  0  0  0  0  0
  184.2730  179.2760  139.4540 C   0  0  0  0  0  2  0  0  0  0  0  0
  183.0340  179.1980  142.7990 O   0  0  0  0  0  0  0  0  0  0  0  0
  183.0140  175.9080  139.5050 C   0  0  0  0  0  1  0  0  0  0  0  0
  186.9010  174.8800  137.2820 N   0  0  0  0  0  0  0  0  0  0  0  0
  190.0770  175.6730  136.6380 C   0  0  0  0  0  2  0  0  0  0  0  0
  189.6960  176.4300  137.8320 N   0  0  0  0  0  0  0  0  0  0  0  0
  187.9870  177.3080  139.1620 O   0  0  0  0  0  0  0  0  0  0  0  0
  190.7310  176.9310  138.7410 C   0  0  0  0  0  2  0  0  0  0  0  0
  193.3500  176.9530  139.5320 S   0  0  0  0  0  1  0  0  0  0  0  0
  192.1800  175.0400  137.9650 C   0  0  0  0  0  2  0  0  0  0  0  0
  192.1260  176.5370  138.2610 C   0  0  1  0  0  3  0  0  0  0  0  0
  188.3140  176.7180  138.0960 C   0  0  0  0  0  0  0  0  0  0  0  0
  191.0770  174.5730  137.0020 C   0  0  0  0  0  2  0  0  0  0  0  0
  179.9820  175.1420  136.3210 C   0  0  0  0  0  1  0  0  0  0  0  0
  180.0120  176.7460  135.4700 S   0  0  0  0  0  0  0  0  0  0  0  0
  1 25  1  1  0  0  0
  1  4  1  0  0  0  0
  2 37  1  6  0  0  0
  2 17  1  0  0  0  0
  2 13  1  0  0  0  0
  3  6  1  0  0  0  0
  4 15  1  6  0  0  0
  4 12  1  0  0  0  0
  5 22  1  0  0  0  0
  5 16  1  0  0  0  0
  6 19  1  1  0  0  0
  7 24  2  0  0  0  0
  8 15  1  0  0  0  0
  9  3  1  0  0  0  0
 10  6  1  0  0  0  0
 10 26  1  0  0  0  0
 10 34  1  1  0  0  0
 11 16  2  0  0  0  0
 12  7  1  0  0  0  0
 13  1  1  0  0  0  0
 14 26  2  0  0  0  0
 16 20  1  0  0  0  0
 17 13  1  0  0  0  0
 17  8  1  0  0  0  0
 18  7  1  0  0  0  0
 19 21  1  0  0  0  0
 20  3  2  0  0  0  0
 20 14  1  0  0  0  0
 21  1  1  0  0  0  0
 21 23  1  0  0  0  0
 22  9  1  0  0  0  0
 22  2  1  0  0  0  0
 23 18  1  0  0  0  0
 27 35  1  0  0  0  0
 27 28  1  0  0  0  0
 28 34  1  0  0  0  0
 28 30  1  0  0  0  0
 32 33  1  0  0  0  0
 33 30  1  0  0  0  0
 33 31  1  0  0  0  0
 34 29  2  0  0  0  0
 35 32  1  0  0  0  0
 37 36  1  0  0  0  0
M  END
>  <MODEL>
2

>  <REMARK>
 VINA RESULT:      -5.0      2.998      5.900
  Name = 
  2 active torsions:
  status: ('A' for Active; 'I' for Inactive)
    1  A    between atoms: C_3  and  S_32
    2  A    between atoms: C_14  and  C_31
                            x       y       z     vdW  Elec       q    Type
                         _______ _______ _______ _____ _____    ______ ____

>  <TORSDO>
F 2

$$$$
=
 OpenBabel10272414493D

 37 43  0  0  1  0  0  0  0  0999 V2000
  186.1800  173.7380  135.8470 C   0  0  1  0  0  0  0  0  0  0  0  0
  185.1750  176.1700  137.2950 C   0  0  1  0  0  0  0  0  0  0  0  0
  188.4600  176.3420  136.7110 C   0  0  0  0  0  0  0  0  0  0  0  0
  185.1210  172.6130  136.0360 C   0  0  1  0  0  3  0  0  0  0  0  0
  186.3750  178.3970  136.8320 C   0  0  0  0  0  2  0  0  0  0  0  0
  189.4280  175.1900  136.6440 C   0  0  2  0  0  3  0  0  0  0  0  0
  186.5300  170.5440  135.6540 C   0  0  0  0  0  0  0  0  0  0  0  0
  184.0990  173.8710  137.9500 C   0  0  0  0  0  2  0  0  0  0  0  0
  187.6780  176.5470  137.9780 C   0  0  0  0  0  2  0  0  0  0  0  0
  190.6790  175.6690  135.8830 C   0  0  2  0  0  3  0  0  0  0  0  0
  187.0930  178.9180  134.6210 O   0  0  0  0  0  0  0  0  0  0  0  0
  185.4050  171.3490  135.4280 O   0  0  0  0  0  0  0  0  0  0  0  0
  185.4760  175.0420  136.2930 C   0  0  2  0  0  3  0  0  0  0  0  0
  189.2380  177.0190  134.5020 C   0  0  0  0  0  3  0  0  0  0  0  0
  184.5400  172.4920  137.4530 C   0  0  0  0  0  2  0  0  0  0  0  0
  187.2500  178.1840  135.6320 C   0  0  0  0  0  0  0  0  0  0  0  0
  185.3060  174.7920  137.8290 C   0  0  1  0  0  3  0  0  0  0  0  0
  187.8550  171.0810  136.0900 C   0  0  0  0  0  2  0  0  0  0  0  0
  188.7780  174.0120  135.9170 C   0  0  0  0  0  2  0  0  0  0  0  0
  188.3160  177.1650  135.6520 C   0  0  0  0  0  0  0  0  0  0  0  0
  187.5190  173.5060  136.6270 C   0  0  2  0  0  3  0  0  0  0  0  0
  186.2910  177.1490  137.7170 C   0  0  2  0  0  3  0  0  0  0  0  0
  187.7270  172.1060  137.1990 C   0  0  0  0  0  2  0  0  0  0  0  0
  186.4600  169.3220  135.3620 O   0  0  0  0  0  0  0  0  0  0  0  0
  186.4220  173.8650  134.3470 C   0  0  0  0  0  1  0  0  0  0  0  0
  190.3120  176.2950  134.6070 N   0  0  0  0  0  0  0  0  0  0  0  0
  192.6750  175.1570  137.9770 C   0  0  0  0  0  2  0  0  0  0  0  0
  192.6960  174.3660  136.7460 N   0  0  0  0  0  0  0  0  0  0  0  0
  191.8130  173.9880  134.6150 O   0  0  0  0  0  0  0  0  0  0  0  0
  193.6680  173.2790  136.5910 C   0  0  0  0  0  2  0  0  0  0  0  0
  195.9010  171.9820  137.4930 S   0  0  0  0  0  1  0  0  0  0  0  0
  195.1520  174.5220  138.1820 C   0  0  0  0  0  2  0  0  0  0  0  0
  194.5630  173.1590  137.8230 C   0  0  1  0  0  3  0  0  0  0  0  0
  191.7430  174.6240  135.7020 C   0  0  0  0  0  0  0  0  0  0  0  0
  194.0890  175.6200  138.3370 C   0  0  0  0  0  2  0  0  0  0  0  0
  183.3100  176.7120  135.4560 C   0  0  0  0  0  1  0  0  0  0  0  0
  183.4640  176.8230  137.2620 S   0  0  0  0  0  0  0  0  0  0  0  0
  1 25  1  6  0  0  0
  1  4  1  0  0  0  0
  1 13  1  0  0  0  0
  1 21  1  0  0  0  0
  2 37  1  6  0  0  0
  2 22  1  0  0  0  0
  2 17  1  0  0  0  0
  3  9  1  0  0  0  0
  4 15  1  1  0  0  0
  5 22  1  0  0  0  0
  6 19  1  6  0  0  0
  6  3  1  0  0  0  0
  7 18  1  0  0  0  0
 10 34  1  6  0  0  0
 10  6  1  0  0  0  0
 11 16  2  0  0  0  0
 12  7  1  0  0  0  0
 12  4  1  0  0  0  0
 13  2  1  0  0  0  0
 13 17  1  0  0  0  0
 14 26  2  0  0  0  0
 14 20  1  0  0  0  0
 15  8  1  0  0  0  0
 16 20  1  0  0  0  0
 16  5  1  0  0  0  0
 17  8  1  0  0  0  0
 18 23  1  0  0  0  0
 19 21  1  0  0  0  0
 20  3  2  0  0  0  0
 21 23  1  0  0  0  0
 22  9  1  0  0  0  0
 24  7  2  0  0  0  0
 26 10  1  0  0  0  0
 27 35  1  0  0  0  0
 28 27  1  0  0  0  0
 29 34  2  0  0  0  0
 30 28  1  0  0  0  0
 30 33  1  0  0  0  0
 31 33  1  0  0  0  0
 32 35  1  0  0  0  0
 33 32  1  0  0  0  0
 34 28  1  0  0  0  0
 36 37  1  0  0  0  0
M  END
>  <MODEL>
3

>  <REMARK>
 VINA RESULT:      -4.5      4.723      6.955
  Name = 
  2 active torsions:
  status: ('A' for Active; 'I' for Inactive)
    1  A    between atoms: C_3  and  S_32
    2  A    between atoms: C_14  and  C_31
                            x       y       z     vdW  Elec       q    Type
                         _______ _______ _______ _____ _____    ______ ____

>  <TORSDO>
F 2

$$$$
=
 OpenBabel10272414493D

 37 43  0  0  1  0  0  0  0  0999 V2000
  183.2340  176.2530  137.4670 C   0  0  1  0  0  0  0  0  0  0  0  0
  181.7820  174.6690  135.3680 C   0  0  1  0  0  0  0  0  0  0  0  0
  185.0190  173.8570  135.5170 C   0  0  0  0  0  0  0  0  0  0  0  0
  182.3630  177.5010  137.7940 C   0  0  1  0  0  3  0  0  0  0  0  0
  182.6250  172.2870  134.8950 C   0  0  0  0  0  2  0  0  0  0  0  0
  186.1630  174.7660  135.8860 C   0  0  2  0  0  3  0  0  0  0  0  0
  184.1060  179.0810  138.7330 C   0  0  0  0  0  0  0  0  0  0  0  0
  181.0640  177.1720  135.6740 C   0  0  0  0  0  2  0  0  0  0  0  0
  184.1560  174.2320  134.3460 C   0  0  0  0  0  2  0  0  0  0  0  0
  187.3540  173.8790  136.3000 C   0  0  2  0  0  3  0  0  0  0  0  0
  183.3520  170.9080  136.6970 O   0  0  0  0  0  0  0  0  0  0  0  0
  182.8760  178.4080  138.7740 O   0  0  0  0  0  0  0  0  0  0  0  0
  182.3080  175.3060  136.6660 C   0  0  2  0  0  3  0  0  0  0  0  0
  185.7780  172.3280  137.2570 C   0  0  0  0  0  3  0  0  0  0  0  0
  181.7450  178.2040  136.5760 C   0  0  0  0  0  2  0  0  0  0  0  0
  183.5780  171.9300  135.9980 C   0  0  0  0  0  0  0  0  0  0  0  0
  182.1100  176.1170  135.3410 C   0  0  1  0  0  3  0  0  0  0  0  0
  185.3040  178.5660  138.0030 C   0  0  0  0  0  2  0  0  0  0  0  0
  185.7470  175.6750  137.0420 C   0  0  0  0  0  2  0  0  0  0  0  0
  184.7940  172.7340  136.2290 C   0  0  0  0  0  0  0  0  0  0  0  0
  184.5550  176.5690  136.6870 C   0  0  2  0  0  3  0  0  0  0  0  0
  182.7040  173.7690  134.5170 C   0  0  2  0  0  3  0  0  0  0  0  0
  184.9600  178.0390  136.6250 C   0  0  0  0  0  2  0  0  0  0  0  0
  184.2470  180.1120  139.4400 O   0  0  0  0  0  0  0  0  0  0  0  0
  183.5210  175.5600  138.7940 C   0  0  0  0  0  1  0  0  0  0  0  0
  186.9500  172.8890  137.3050 N   0  0  0  0  0  0  0  0  0  0  0  0
  189.9640  173.3680  135.0500 C   0  0  0  0  0  2  0  0  0  0  0  0
  189.8450  174.3930  136.0890 N   0  0  0  0  0  0  0  0  0  0  0  0
  188.5010  175.4680  137.6700 O   0  0  0  0  0  0  0  0  0  0  0  0
  191.0100  175.2050  136.4520 C   0  0  0  0  0  2  0  0  0  0  0  0
  193.7040  175.6490  136.2860 S   0  0  0  0  0  1  0  0  0  0  0  0
  192.4440  173.2920  135.7020 C   0  0  0  0  0  2  0  0  0  0  0  0
  192.2380  174.8040  135.6370 C   0  0  1  0  0  3  0  0  0  0  0  0
  188.5810  174.6350  136.7270 C   0  0  0  0  0  0  0  0  0  0  0  0
  191.1930  172.4930  135.3050 C   0  0  0  0  0  2  0  0  0  0  0  0
  179.9830  173.5640  137.0090 C   0  0  0  0  0  1  0  0  0  0  0  0
  179.9910  174.2860  135.3420 S   0  0  0  0  0  0  0  0  0  0  0  0
  1  4  1  0  0  0  0
  1 25  1  1  0  0  0
  2 37  1  6  0  0  0
  2 13  1  0  0  0  0
  3  6  1  0  0  0  0
  3 20  2  0  0  0  0
  4 15  1  6  0  0  0
  4 12  1  0  0  0  0
  5 16  1  0  0  0  0
  6 10  1  0  0  0  0
  6 19  1  1  0  0  0
  7 12  1  0  0  0  0
  7 24  2  0  0  0  0
  8 15  1  0  0  0  0
  9 22  1  0  0  0  0
  9  3  1  0  0  0  0
 10 34  1  1  0  0  0
 10 26  1  0  0  0  0
 13  1  1  0  0  0  0
 14 26  2  0  0  0  0
 16 20  1  0  0  0  0
 16 11  2  0  0  0  0
 17  2  1  0  0  0  0
 17  8  1  0  0  0  0
 17 13  1  0  0  0  0
 18  7  1  0  0  0  0
 20 14  1  0  0  0  0
 21 19  1  0  0  0  0
 21  1  1  0  0  0  0
 22  5  1  0  0  0  0
 22  2  1  0  0  0  0
 23 21  1  0  0  0  0
 23 18  1  0  0  0  0
 27 35  1  0  0  0  0
 27 28  1  0  0  0  0
 28 30  1  0  0  0  0
 28 34  1  0  0  0  0
 33 32  1  0  0  0  0
 33 31  1  0  0  0  0
 33 30  1  0  0  0  0
 34 29  2  0  0  0  0
 35 32  1  0  0  0  0
 37 36  1  0  0  0  0
M  END
>  <MODEL>
4

>  <REMARK>
 VINA RESULT:      -4.3      3.666      6.772
  Name = 
  2 active torsions:
  status: ('A' for Active; 'I' for Inactive)
    1  A    between atoms: C_3  and  S_32
    2  A    between atoms: C_14  and  C_31
                            x       y       z     vdW  Elec       q    Type
                         _______ _______ _______ _____ _____    ______ ____

>  <TORSDO>
F 2

$$$$
=
 OpenBabel10272414493D

 37 43  0  0  1  0  0  0  0  0999 V2000
  187.1660  173.8950  135.2800 C   0  0  1  0  0  0  0  0  0  0  0  0
  184.1780  173.8060  135.5690 C   0  0  1  0  0  0  0  0  0  0  0  0
  185.5270  176.2640  137.3850 C   0  0  0  0  0  0  0  0  0  0  0  0
  187.6230  172.5130  134.7290 C   0  0  1  0  0  3  0  0  0  0  0  0
  182.9660  176.0360  135.9800 C   0  0  0  0  0  2  0  0  0  0  0  0
  186.8860  176.2670  138.0350 C   0  0  2  0  0  3  0  0  0  0  0  0
  190.0400  172.4600  135.4820 C   0  0  0  0  0  0  0  0  0  0  0  0
  185.4210  171.5060  135.3850 C   0  0  0  0  0  2  0  0  0  0  0  0
  184.5530  175.1860  137.7660 C   0  0  0  0  0  2  0  0  0  0  0  0
  187.2690  177.7320  138.3200 C   0  0  2  0  0  3  0  0  0  0  0  0
  183.6860  178.0020  134.8440 O   0  0  0  0  0  0  0  0  0  0  0  0
  189.0270  172.3320  134.5220 O   0  0  0  0  0  0  0  0  0  0  0  0
  185.6320  173.9290  135.0810 C   0  0  2  0  0  3  0  0  0  0  0  0
  186.1390  178.3520  136.2850 C   0  0  0  0  0  3  0  0  0  0  0  0
  186.9370  171.2960  135.3690 C   0  0  0  0  0  2  0  0  0  0  0  0
  183.9560  177.1310  135.7110 C   0  0  0  0  0  0  0  0  0  0  0  0
  185.1650  172.8290  136.0920 C   0  0  1  0  0  3  0  0  0  0  0  0
  189.9280  173.3340  136.6890 C   0  0  0  0  0  2  0  0  0  0  0  0
  187.9070  175.6200  137.0990 C   0  0  0  0  0  2  0  0  0  0  0  0
  185.2070  177.2190  136.4880 C   0  0  0  0  0  0  0  0  0  0  0  0
  187.5640  174.1630  136.7710 C   0  0  2  0  0  3  0  0  0  0  0  0
  183.6220  174.8030  136.6090 C   0  0  2  0  0  3  0  0  0  0  0  0
  188.5830  173.2020  137.3750 C   0  0  0  0  0  2  0  0  0  0  0  0
  191.1480  171.9050  135.2600 O   0  0  0  0  0  0  0  0  0  0  0  0
  187.7490  174.9520  134.3480 C   0  0  0  0  0  1  0  0  0  0  0  0
  187.1130  178.5610  137.1200 N   0  0  0  0  0  0  0  0  0  0  0  0
  187.6790  177.2780  141.1940 C   0  0  0  0  0  2  0  0  0  0  0  0
  188.8120  177.6660  140.3520 N   0  0  0  0  0  0  0  0  0  0  0  0
  189.5850  178.3190  138.2460 O   0  0  0  0  0  0  0  0  0  0  0  0
  190.1560  177.7590  140.9310 C   0  0  0  0  0  2  0  0  0  0  0  0
  191.7580  177.7950  143.1480 S   0  0  0  0  0  1  0  0  0  0  0  0
  189.0590  178.2400  143.1320 C   0  0  0  0  0  2  0  0  0  0  0  0
  190.1390  177.4260  142.4220 C   0  0  1  0  0  3  0  0  0  0  0  0
  188.6200  177.9170  138.9510 C   0  0  0  0  0  0  0  0  0  0  0  0
  187.6720  178.0990  142.4860 C   0  0  0  0  0  2  0  0  0  0  0  0
  181.8410  172.5060  135.6170 C   0  0  0  0  0  1  0  0  0  0  0  0
  182.9900  173.1220  134.3530 S   0  0  0  0  0  0  0  0  0  0  0  0
  1 25  1  6  0  0  0
  1 21  1  0  0  0  0
  2 37  1  6  0  0  0
  2 17  1  0  0  0  0
  2 22  1  0  0  0  0
  3  9  1  0  0  0  0
  3  6  1  0  0  0  0
  4  1  1  0  0  0  0
  4 15  1  1  0  0  0
  5 22  1  0  0  0  0
  6 19  1  6  0  0  0
  6 10  1  0  0  0  0
  7 18  1  0  0  0  0
  8 17  1  0  0  0  0
 10 34  1  6  0  0  0
 11 16  2  0  0  0  0
 12  4  1  0  0  0  0
 12  7  1  0  0  0  0
 13  1  1  0  0  0  0
 13  2  1  0  0  0  0
 13 17  1  0  0  0  0
 14 20  1  0  0  0  0
 14 26  2  0  0  0  0
 15  8  1  0  0  0  0
 16  5  1  0  0  0  0
 16 20  1  0  0  0  0
 18 23  1  0  0  0  0
 20  3  2  0  0  0  0
 21 19  1  0  0  0  0
 21 23  1  0  0  0  0
 22  9  1  0  0  0  0
 24  7  2  0  0  0  0
 26 10  1  0  0  0  0
 27 35  1  0  0  0  0
 28 30  1  0  0  0  0
 28 27  1  0  0  0  0
 29 34  2  0  0  0  0
 30 33  1  0  0  0  0
 33 32  1  0  0  0  0
 33 31  1  0  0  0  0
 34 28  1  0  0  0  0
 35 32  1  0  0  0  0
 37 36  1  0  0  0  0
M  END
>  <MODEL>
5

>  <REMARK>
 VINA RESULT:      -4.2      2.887      3.971
  Name = 
  2 active torsions:
  status: ('A' for Active; 'I' for Inactive)
    1  A    between atoms: C_3  and  S_32
    2  A    between atoms: C_14  and  C_31
                            x       y       z     vdW  Elec       q    Type
                         _______ _______ _______ _____ _____    ______ ____

>  <TORSDO>
F 2

$$$$
=
 OpenBabel10272414493D

 37 43  0  0  1  0  0  0  0  0999 V2000
  188.4670  173.1380  136.4080 C   0  0  1  0  0  0  0  0  0  0  0  0
  191.1950  174.2710  135.8610 C   0  0  1  0  0  0  0  0  0  0  0  0
  189.0090  176.6510  136.7080 C   0  0  0  0  0  0  0  0  0  0  0  0
  188.4070  171.7290  135.7510 C   0  0  1  0  0  3  0  0  0  0  0  0
  191.8870  176.3660  137.1800 C   0  0  0  0  0  2  0  0  0  0  0  0
  187.5290  176.6610  136.4280 C   0  0  2  0  0  3  0  0  0  0  0  0
  185.9090  171.4260  135.4680 C   0  0  0  0  0  0  0  0  0  0  0  0
  190.4110  172.2800  134.3460 C   0  0  0  0  0  2  0  0  0  0  0  0
  189.9570  176.5600  135.5460 C   0  0  0  0  0  2  0  0  0  0  0  0
  186.8730  177.6600  137.4010 C   0  0  2  0  0  3  0  0  0  0  0  0
  191.2900  176.5720  139.4770 O   0  0  0  0  0  0  0  0  0  0  0  0
  187.1800  171.0050  135.8830 O   0  0  0  0  0  0  0  0  0  0  0  0
  189.9650  173.5260  136.4100 C   0  0  2  0  0  3  0  0  0  0  0  0
  188.4850  176.9950  139.0640 C   0  0  0  0  0  3  0  0  0  0  0  0
  189.0220  171.6350  134.3460 C   0  0  0  0  0  2  0  0  0  0  0  0
  190.8870  176.5420  138.2840 C   0  0  0  0  0  0  0  0  0  0  0  0
  190.2420  173.6960  134.8790 C   0  0  1  0  0  3  0  0  0  0  0  0
  185.5120  172.8620  135.3520 C   0  0  0  0  0  2  0  0  0  0  0  0
  186.9570  175.2590  136.6340 C   0  0  0  0  0  2  0  0  0  0  0  0
  189.4560  176.7300  137.9780 C   0  0  0  0  0  0  0  0  0  0  0  0
  187.5870  174.2230  135.6990 C   0  0  2  0  0  3  0  0  0  0  0  0
  191.2490  175.8130  135.9020 C   0  0  2  0  0  3  0  0  0  0  0  0
  186.5770  173.7040  134.6790 C   0  0  0  0  0  2  0  0  0  0  0  0
  185.0170  170.5540  135.2950 O   0  0  0  0  0  0  0  0  0  0  0  0
  188.0620  172.9580  137.8670 C   0  0  0  0  0  1  0  0  0  0  0  0
  187.2780  177.3910  138.7850 N   0  0  0  0  0  0  0  0  0  0  0  0
  185.2510  178.8690  139.5330 C   0  0  0  0  0  2  0  0  0  0  0  0
  184.6030  178.3900  138.3110 N   0  0  0  0  0  0  0  0  0  0  0  0
  184.8060  177.2990  136.2540 O   0  0  0  0  0  0  0  0  0  0  0  0
  183.1600  178.5770  138.1270 C   0  0  0  0  0  2  0  0  0  0  0  0
  180.7300  179.2620  139.1780 S   0  0  0  0  0  1  0  0  0  0  0  0
  182.9480  178.5700  140.6230 C   0  0  0  0  0  2  0  0  0  0  0  0
  182.5360  179.2760  139.3320 C   0  0  1  0  0  3  0  0  0  0  0  0
  185.3800  177.7730  137.2720 C   0  0  0  0  0  0  0  0  0  0  0  0
  184.4690  178.4080  140.7650 C   0  0  0  0  0  2  0  0  0  0  0  0
  193.5590  174.2590  134.6110 C   0  0  0  0  0  1  0  0  0  0  0  0
  192.7880  173.3780  135.9990 S   0  0  0  0  0  0  0  0  0  0  0  0
  1 13  1  0  0  0  0
  1 25  1  1  0  0  0
  2 22  1  0  0  0  0
  2 37  1  1  0  0  0
  2 13  1  0  0  0  0
  3 20  2  0  0  0  0
  4 15  1  6  0  0  0
  4 12  1  0  0  0  0
  4  1  1  0  0  0  0
  5 16  1  0  0  0  0
  6 19  1  1  0  0  0
  6  3  1  0  0  0  0
  6 10  1  0  0  0  0
  7 12  1  0  0  0  0
  8 15  1  0  0  0  0
  8 17  1  0  0  0  0
  9 22  1  0  0  0  0
  9  3  1  0  0  0  0
 10 34  1  1  0  0  0
 10 26  1  0  0  0  0
 16 11  2  0  0  0  0
 17  2  1  0  0  0  0
 17 13  1  0  0  0  0
 18  7  1  0  0  0  0
 20 16  1  0  0  0  0
 20 14  1  0  0  0  0
 21  1  1  0  0  0  0
 21 19  1  0  0  0  0
 22  5  1  0  0  0  0
 23 18  1  0  0  0  0
 23 21  1  0  0  0  0
 24  7  2  0  0  0  0
 26 14  2  0  0  0  0
 27 35  1  0  0  0  0
 28 27  1  0  0  0  0
 29 34  2  0  0  0  0
 30 28  1  0  0  0  0
 30 33  1  0  0  0  0
 31 33  1  0  0  0  0
 32 35  1  0  0  0  0
 33 32  1  0  0  0  0
 34 28  1  0  0  0  0
 36 37  1  0  0  0  0
M  END
>  <MODEL>
6

>  <REMARK>
 VINA RESULT:      -4.0      3.756      7.338
  Name = 
  2 active torsions:
  status: ('A' for Active; 'I' for Inactive)
    1  A    between atoms: C_3  and  S_32
    2  A    between atoms: C_14  and  C_31
                            x       y       z     vdW  Elec       q    Type
                         _______ _______ _______ _____ _____    ______ ____

>  <TORSDO>
F 2

$$$$
=
 OpenBabel10272414493D

 37 43  0  0  1  0  0  0  0  0999 V2000
  185.4810  179.2160  144.0560 C   0  0  1  0  0  0  0  0  0  0  0  0
  187.4300  177.9560  145.9620 C   0  0  1  0  0  0  0  0  0  0  0  0
  188.3520  177.5270  142.7800 C   0  0  0  0  0  0  0  0  0  0  0  0
  184.1470  179.4330  144.8290 C   0  0  1  0  0  3  0  0  0  0  0  0
  189.8980  177.8780  145.2440 C   0  0  0  0  0  2  0  0  0  0  0  0
  187.4440  177.3890  141.5860 C   0  0  2  0  0  3  0  0  0  0  0  0
  182.4860  179.5320  142.9210 C   0  0  0  0  0  0  0  0  0  0  0  0
  184.8910  177.8200  146.6000 C   0  0  0  0  0  2  0  0  0  0  0  0
  188.2150  176.5380  143.9020 C   0  0  0  0  0  2  0  0  0  0  0  0
  188.2710  177.7090  140.3260 C   0  0  2  0  0  3  0  0  0  0  0  0
  190.8570  179.7330  144.0960 O   0  0  0  0  0  0  0  0  0  0  0  0
  183.0650  180.0200  144.1000 O   0  0  0  0  0  0  0  0  0  0  0  0
  186.5380  178.9040  145.1420 C   0  0  2  0  0  3  0  0  0  0  0  0
  189.4740  179.3510  141.6140 C   0  0  0  0  0  3  0  0  0  0  0  0
  183.7140  178.2640  145.7280 C   0  0  0  0  0  2  0  0  0  0  0  0
  190.0380  178.7770  144.0520 C   0  0  0  0  0  0  0  0  0  0  0  0
  186.0470  177.5100  145.6590 C   0  0  1  0  0  3  0  0  0  0  0  0
  183.2170  178.6840  141.9310 C   0  0  0  0  0  2  0  0  0  0  0  0
  186.2700  178.3610  141.7170 C   0  0  0  0  0  2  0  0  0  0  0  0
  189.2660  178.5170  142.8210 C   0  0  0  0  0  0  0  0  0  0  0  0
  185.4220  178.0950  142.9640 C   0  0  2  0  0  3  0  0  0  0  0  0
  188.5490  177.1510  145.2670 C   0  0  2  0  0  3  0  0  0  0  0  0
  184.0300  177.5910  142.5940 C   0  0  0  0  0  2  0  0  0  0  0  0
  181.3270  179.9200  142.6180 O   0  0  0  0  0  0  0  0  0  0  0  0
  185.8610  180.5640  143.4530 C   0  0  0  0  0  1  0  0  0  0  0  0
  188.9780  178.9860  140.4690 N   0  0  0  0  0  0  0  0  0  0  0  0
  188.9440  175.7350  138.2560 C   0  0  0  0  0  2  0  0  0  0  0  0
  187.8250  176.6540  138.0440 N   0  0  0  0  0  0  0  0  0  0  0  0
  186.5830  178.4780  138.8160 O   0  0  0  0  0  0  0  0  0  0  0  0
  187.0040  176.5430  136.8350 C   0  0  0  0  0  2  0  0  0  0  0  0
  186.6260  175.4720  134.3460 S   0  0  0  0  0  1  0  0  0  0  0  0
  189.0040  175.5510  135.6980 C   0  0  0  0  0  2  0  0  0  0  0  0
  187.5010  175.4150  135.9330 C   0  0  1  0  0  3  0  0  0  0  0  0
  187.5010  177.6420  139.0360 C   0  0  0  0  0  0  0  0  0  0  0  0
  189.8140  175.6580  136.9990 C   0  0  0  0  0  2  0  0  0  0  0  0
  188.2380  176.7880  148.2280 C   0  0  0  0  0  1  0  0  0  0  0  0
  187.7150  178.4460  147.7040 S   0  0  0  0  0  0  0  0  0  0  0  0
  1 25  1  6  0  0  0
  1  4  1  0  0  0  0
  1 13  1  0  0  0  0
  2 37  1  1  0  0  0
  3 20  2  0  0  0  0
  3  9  1  0  0  0  0
  4 15  1  6  0  0  0
  5 22  1  0  0  0  0
  6 19  1  1  0  0  0
  6  3  1  0  0  0  0
  7 12  1  0  0  0  0
  9 22  1  0  0  0  0
 10 34  1  6  0  0  0
 10 26  1  0  0  0  0
 10  6  1  0  0  0  0
 12  4  1  0  0  0  0
 13 17  1  0  0  0  0
 13  2  1  0  0  0  0
 14 20  1  0  0  0  0
 15  8  1  0  0  0  0
 16 11  2  0  0  0  0
 16  5  1  0  0  0  0
 17  2  1  0  0  0  0
 17  8  1  0  0  0  0
 18 23  1  0  0  0  0
 18  7  1  0  0  0  0
 19 21  1  0  0  0  0
 20 16  1  0  0  0  0
 21  1  1  0  0  0  0
 22  2  1  0  0  0  0
 23 21  1  0  0  0  0
 24  7  2  0  0  0  0
 26 14  2  0  0  0  0
 28 27  1  0  0  0  0
 28 34  1  0  0  0  0
 29 34  2  0  0  0  0
 30 28  1  0  0  0  0
 31 33  1  0  0  0  0
 32 33  1  0  0  0  0
 32 35  1  0  0  0  0
 33 30  1  0  0  0  0
 35 27  1  0  0  0  0
 37 36  1  0  0  0  0
M  END
>  <MODEL>
7

>  <REMARK>
 VINA RESULT:      -4.0      3.857      9.273
  Name = 
  2 active torsions:
  status: ('A' for Active; 'I' for Inactive)
    1  A    between atoms: C_3  and  S_32
    2  A    between atoms: C_14  and  C_31
                            x       y       z     vdW  Elec       q    Type
                         _______ _______ _______ _____ _____    ______ ____

>  <TORSDO>
F 2

$$$$
=
 OpenBabel10272414493D

 37 43  0  0  1  0  0  0  0  0999 V2000
  186.7370  177.6360  136.5500 C   0  0  1  0  0  0  0  0  0  0  0  0
  183.8920  176.8690  135.9640 C   0  0  1  0  0  0  0  0  0  0  0  0
  184.3400  177.6040  139.1920 C   0  0  0  0  0  0  0  0  0  0  0  0
  187.6130  177.1070  135.3780 C   0  0  1  0  0  3  0  0  0  0  0  0
  182.0570  177.9680  137.3910 C   0  0  0  0  0  2  0  0  0  0  0  0
  185.5910  177.3920  140.0030 C   0  0  2  0  0  3  0  0  0  0  0  0
  189.8840  176.9650  136.4890 C   0  0  0  0  0  0  0  0  0  0  0  0
  185.7630  175.5710  134.6660 C   0  0  0  0  0  2  0  0  0  0  0  0
  183.7000  176.4130  138.5380 C   0  0  0  0  0  2  0  0  0  0  0  0
  185.5100  178.3030  141.2430 C   0  0  2  0  0  3  0  0  0  0  0  0
  182.2460  180.2630  138.0010 O   0  0  0  0  0  0  0  0  0  0  0  0
  189.0190  177.3570  135.4580 O   0  0  0  0  0  0  0  0  0  0  0  0
  185.2760  177.5360  136.0480 C   0  0  2  0  0  3  0  0  0  0  0  0
  184.3880  179.9430  139.8800 C   0  0  0  0  0  3  0  0  0  0  0  0
  187.2720  175.6890  134.8940 C   0  0  0  0  0  2  0  0  0  0  0  0
  182.7000  179.0970  138.1410 C   0  0  0  0  0  0  0  0  0  0  0  0
  185.0850  175.9850  135.9640 C   0  0  1  0  0  3  0  0  0  0  0  0
  189.4400  176.7430  137.8990 C   0  0  0  0  0  2  0  0  0  0  0  0
  186.8170  177.7450  139.1600 C   0  0  0  0  0  2  0  0  0  0  0  0
  183.8160  178.8410  139.0730 C   0  0  0  0  0  0  0  0  0  0  0  0
  186.9380  176.8750  137.9050 C   0  0  2  0  0  3  0  0  0  0  0  0
  183.0010  176.7730  137.2210 C   0  0  2  0  0  3  0  0  0  0  0  0
  188.1500  175.9520  137.9810 C   0  0  0  0  0  2  0  0  0  0  0  0
  191.1180  176.9090  136.2460 O   0  0  0  0  0  0  0  0  0  0  0  0
  187.0470  179.1220  136.6930 C   0  0  0  0  0  1  0  0  0  0  0  0
  185.2000  179.6860  140.8620 N   0  0  0  0  0  0  0  0  0  0  0  0
  185.1890  177.9370  144.1410 C   0  0  0  0  0  2  0  0  0  0  0  0
  186.5320  178.0270  143.5660 N   0  0  0  0  0  0  0  0  0  0  0  0
  187.8600  178.3810  141.6760 O   0  0  0  0  0  0  0  0  0  0  0  0
  187.7090  177.8660  144.4250 C   0  0  0  0  0  2  0  0  0  0  0  0
  188.7710  177.6870  146.9400 S   0  0  0  0  0  1  0  0  0  0  0  0
  186.3010  178.6930  146.3260 C   0  0  0  0  0  2  0  0  0  0  0  0
  187.3020  177.6300  145.8780 C   0  0  1  0  0  3  0  0  0  0  0  0
  186.7030  178.2330  142.1540 C   0  0  0  0  0  0  0  0  0  0  0  0
  185.0870  178.8130  145.3920 C   0  0  0  0  0  2  0  0  0  0  0  0
  182.0430  175.5140  134.5880 C   0  0  0  0  0  1  0  0  0  0  0  0
  183.0410  177.0120  134.3490 S   0  0  0  0  0  0  0  0  0  0  0  0
  1 25  1  1  0  0  0
  1 21  1  0  0  0  0
  2 37  1  6  0  0  0
  2 17  1  0  0  0  0
  2 13  1  0  0  0  0
  2 22  1  0  0  0  0
  3  6  1  0  0  0  0
  4 15  1  1  0  0  0
  4 12  1  0  0  0  0
  4  1  1  0  0  0  0
  5 16  1  0  0  0  0
  6 19  1  6  0  0  0
  6 10  1  0  0  0  0
  7 18  1  0  0  0  0
  8 15  1  0  0  0  0
  8 17  1  0  0  0  0
  9  3  1  0  0  0  0
 10 34  1  6  0  0  0
 11 16  2  0  0  0  0
 12  7  1  0  0  0  0
 13  1  1  0  0  0  0
 14 26  2  0  0  0  0
 16 20  1  0  0  0  0
 17 13  1  0  0  0  0
 18 23  1  0  0  0  0
 20  3  2  0  0  0  0
 20 14  1  0  0  0  0
 21 23  1  0  0  0  0
 21 19  1  0  0  0  0
 22  5  1  0  0  0  0
 22  9  1  0  0  0  0
 24  7  2  0  0  0  0
 26 10  1  0  0  0  0
 27 35  1  0  0  0  0
 28 27  1  0  0  0  0
 28 30  1  0  0  0  0
 29 34  2  0  0  0  0
 30 33  1  0  0  0  0
 33 32  1  0  0  0  0
 33 31  1  0  0  0  0
 34 28  1  0  0  0  0
 35 32  1  0  0  0  0
 37 36  1  0  0  0  0
M  END
>  <MODEL>
8

>  <REMARK>
 VINA RESULT:      -3.7      1.821      2.452
  Name = 
  2 active torsions:
  status: ('A' for Active; 'I' for Inactive)
    1  A    between atoms: C_3  and  S_32
    2  A    between atoms: C_14  and  C_31
                            x       y       z     vdW  Elec       q    Type
                         _______ _______ _______ _____ _____    ______ ____

>  <TORSDO>
F 2

$$$$
=
 OpenBabel10272414493D

 37 43  0  0  1  0  0  0  0  0999 V2000
  182.5950  175.9970  137.0450 C   0  0  1  0  0  0  0  0  0  0  0  0
  181.6820  177.3400  139.5720 C   0  0  1  0  0  0  0  0  0  0  0  0
  184.9480  177.7950  139.0340 C   0  0  0  0  0  0  0  0  0  0  0  0
  181.5240  174.9320  136.6710 C   0  0  1  0  0  3  0  0  0  0  0  0
  182.9040  179.4920  140.2700 C   0  0  0  0  0  2  0  0  0  0  0  0
  185.8930  176.8430  138.3490 C   0  0  2  0  0  3  0  0  0  0  0  0
  182.8830  173.3550  135.2290 C   0  0  0  0  0  0  0  0  0  0  0  0
  180.5900  175.0280  138.9960 C   0  0  0  0  0  2  0  0  0  0  0  0
  184.2130  177.3200  140.2550 C   0  0  0  0  0  2  0  0  0  0  0  0
  187.1250  177.6480  137.8940 C   0  0  2  0  0  3  0  0  0  0  0  0
  183.5560  181.0750  138.6130 O   0  0  0  0  0  0  0  0  0  0  0  0
  181.7650  174.1590  135.4910 O   0  0  0  0  0  0  0  0  0  0  0  0
  181.9290  176.8860  138.1220 C   0  0  2  0  0  3  0  0  0  0  0  0
  185.6620  179.5110  137.4560 C   0  0  0  0  0  3  0  0  0  0  0  0
  180.9890  174.1000  137.8470 C   0  0  0  0  0  2  0  0  0  0  0  0
  183.7340  179.9270  139.0990 C   0  0  0  0  0  0  0  0  0  0  0  0
  181.8070  175.8830  139.3180 C   0  0  1  0  0  3  0  0  0  0  0  0
  184.2310  173.5950  135.8280 C   0  0  0  0  0  2  0  0  0  0  0  0
  185.1980  176.2030  137.1470 C   0  0  0  0  0  2  0  0  0  0  0  0
  184.7830  179.0440  138.5530 C   0  0  0  0  0  0  0  0  0  0  0  0
  183.9550  175.4010  137.5440 C   0  0  2  0  0  3  0  0  0  0  0  0
  182.8290  177.9670  140.3930 C   0  0  2  0  0  3  0  0  0  0  0  0
  184.1580  173.9070  137.3090 C   0  0  0  0  0  2  0  0  0  0  0  0
  182.7820  172.4550  134.3550 O   0  0  0  0  0  0  0  0  0  0  0  0
  182.7880  176.8760  135.8140 C   0  0  0  0  0  1  0  0  0  0  0  0
  186.7270  178.8380  137.1350 N   0  0  0  0  0  0  0  0  0  0  0  0
  189.5890  176.7740  139.2350 C   0  0  0  0  0  2  0  0  0  0  0  0
  189.3530  176.4030  137.8390 N   0  0  0  0  0  0  0  0  0  0  0  0
  188.0020  176.5830  135.9410 O   0  0  0  0  0  0  0  0  0  0  0  0
  190.3100  175.5420  137.1380 C   0  0  0  0  0  2  0  0  0  0  0  0
  192.7550  174.3170  137.0750 S   0  0  0  0  0  1  0  0  0  0  0  0
  192.0710  176.4160  138.6910 C   0  0  0  0  0  2  0  0  0  0  0  0
  191.4800  175.1650  138.0450 C   0  0  1  0  0  3  0  0  0  0  0  0
  188.1650  176.8460  137.1630 C   0  0  0  0  0  0  0  0  0  0  0  0
  191.0240  177.2760  139.4150 C   0  0  0  0  0  2  0  0  0  0  0  0
  180.0660  177.4580  141.7000 C   0  0  0  0  0  1  0  0  0  0  0  0
  179.9820  177.9120  139.9430 S   0  0  0  0  0  0  0  0  0  0  0  0
  1 25  1  6  0  0  0
  1 21  1  0  0  0  0
  1 13  1  0  0  0  0
  2 37  1  1  0  0  0
  2 22  1  0  0  0  0
  3  9  1  0  0  0  0
  4  1  1  0  0  0  0
  4 15  1  1  0  0  0
  5 22  1  0  0  0  0
  6 19  1  6  0  0  0
  6  3  1  0  0  0  0
  7 12  1  0  0  0  0
  7 18  1  0  0  0  0
  8 17  1  0  0  0  0
  9 22  1  0  0  0  0
 10 34  1  6  0  0  0
 10  6  1  0  0  0  0
 11 16  2  0  0  0  0
 12  4  1  0  0  0  0
 13 17  1  0  0  0  0
 13  2  1  0  0  0  0
 14 20  1  0  0  0  0
 15  8  1  0  0  0  0
 16  5  1  0  0  0  0
 17  2  1  0  0  0  0
 18 23  1  0  0  0  0
 19 21  1  0  0  0  0
 20  3  2  0  0  0  0
 20 16  1  0  0  0  0
 23 21  1  0  0  0  0
 24  7  2  0  0  0  0
 26 14  2  0  0  0  0
 26 10  1  0  0  0  0
 27 35  1  0  0  0  0
 28 27  1  0  0  0  0
 29 34  2  0  0  0  0
 30 28  1  0  0  0  0
 30 33  1  0  0  0  0
 31 33  1  0  0  0  0
 32 35  1  0  0  0  0
 33 32  1  0  0  0  0
 34 28  1  0  0  0  0
 37 36  1  0  0  0  0
M  END
>  <MODEL>
9

>  <REMARK>
 VINA RESULT:      -3.1      3.216      4.737
  Name = 
  2 active torsions:
  status: ('A' for Active; 'I' for Inactive)
    1  A    between atoms: C_3  and  S_32
    2  A    between atoms: C_14  and  C_31
                            x       y       z     vdW  Elec       q    Type
                         _______ _______ _______ _____ _____    ______ ____

>  <TORSDO>
F 2

$$$$
