=
 OpenBabel10272400383D

 31 34  0  0  1  0  0  0  0  0999 V2000
  187.7650  179.1490  141.3180 C   0  0  0  0  0  2  0  0  0  0  0  0
  186.2910  178.8870  141.6180 C   0  0  1  0  0  3  0  0  0  0  0  0
  184.7560  179.6780  139.8860 N   0  0  0  0  0  2  0  0  0  0  0  0
  185.5160  178.5110  140.3600 C   0  0  2  0  0  3  0  0  0  0  0  0
  184.0800  178.5930  140.6090 C   0  0  0  0  0  2  0  0  0  0  0  0
  186.1070  177.8440  142.7260 C   0  0  0  0  0  2  0  0  0  0  0  0
  185.5610  178.3930  144.0670 C   0  0  1  0  0  3  0  0  0  0  0  0
  184.0290  178.4940  144.1660 C   0  0  1  0  0  3  0  0  0  0  0  0
  183.6390  179.1560  145.3450 O   0  0  0  0  0  0  0  0  0  0  0  0
  183.5290  179.8900  144.1480 C   0  0  0  0  0  2  0  0  0  0  0  0
  187.1120  176.6050  144.9990 C   0  0  0  0  0  1  0  0  0  0  0  0
  186.1330  177.7250  145.3240 C   0  0  1  0  0  3  0  0  0  0  0  0
  186.7380  178.6650  146.1610 O   0  0  0  0  0  0  0  0  0  0  0  0
  187.9330  178.0730  146.5710 C   0  0  0  0  0  2  0  0  0  0  0  0
  187.8430  177.2920  148.8120 O   0  0  0  0  0  1  0  0  0  0  0  0
  188.1780  178.3950  148.0300 C   0  0  0  0  0  2  0  0  0  0  0  0
  188.5630  177.8490  141.2300 C   0  0  1  0  0  3  0  0  0  0  0  0
  188.2430  177.7310  136.2250 C   0  0  0  0  0  1  0  0  0  0  0  0
  189.5270  177.8370  140.0370 C   0  0  2  0  0  3  0  0  0  0  0  0
  189.7530  176.2420  138.2380 O   0  0  0  0  0  0  0  0  0  0  0  0
  188.9110  178.8700  138.6510 S   0  0  0  0  0  0  0  0  0  0  0  0
  188.0550  177.5340  137.7160 C   0  0  2  0  0  3  0  0  0  0  0  0
  188.4380  176.2320  138.0990 O   0  0  0  0  0  0  0  0  0  0  0  0
  189.9720  176.4340  139.6090 C   0  0  0  0  0  2  0  0  0  0  0  0
  189.2010  177.4470  142.5660 C   0  0  1  0  0  3  0  0  0  0  0  0
  190.6580  175.5370  143.2770 C   0  0  0  0  0  3  0  0  0  0  0  0
  189.5610  175.9780  142.6410 C   0  0  0  0  0  3  0  0  0  0  0  0
  191.6740  176.4750  143.8760 C   0  0  0  0  0  2  0  0  0  0  0  0
  192.1130  178.7390  144.4870 O   0  0  0  0  0  1  0  0  0  0  0  0
  190.3830  178.3610  142.8900 C   0  0  0  0  0  2  0  0  0  0  0  0
  191.0880  177.8600  144.1440 C   0  0  1  0  0  3  0  0  0  0  0  0
  2  1  1  6  0  0  0
  2  6  1  0  0  0  0
  3  4  1  0  0  0  0
  3  5  1  0  0  0  0
  4  5  1  0  0  0  0
  4  2  1  1  0  0  0
  7  6  1  6  0  0  0
  7 12  1  0  0  0  0
  8  7  1  1  0  0  0
  8  9  1  0  0  0  0
 10  8  1  0  0  0  0
 10  9  1  0  0  0  0
 12 11  1  6  0  0  0
 12 13  1  0  0  0  0
 13 14  1  0  0  0  0
 14 16  1  0  0  0  0
 16 15  1  0  0  0  0
 17  1  1  1  0  0  0
 19 17  1  1  0  0  0
 20 24  1  0  0  0  0
 21 19  1  0  0  0  0
 22 18  1  6  0  0  0
 22 23  1  0  0  0  0
 22 21  1  0  0  0  0
 23 20  1  0  0  0  0
 24 19  1  0  0  0  0
 25 17  1  6  0  0  0
 25 27  1  0  0  0  0
 25 30  1  0  0  0  0
 26 28  1  0  0  0  0
 27 26  2  0  0  0  0
 28 31  1  0  0  0  0
 30 31  1  0  0  0  0
 31 29  1  6  0  0  0
M  END
>  <MODEL>
1

>  <REMARK>
 VINA RESULT:      -6.3      0.000      0.000
  Name = 
  12 active torsions:
  status: ('A' for Active; 'I' for Inactive)
    1  A    between atoms: C_1  and  C_24
    2  A    between atoms: C_3  and  C_15
    3  A    between atoms: C_3  and  C_24
    4  A    between atoms: C_4  and  C_27
    5  A    between atoms: C_5  and  C_27
    6  A    between atoms: C_9  and  C_23
    7  A    between atoms: C_15  and  C_20
    8  A    between atoms: C_15  and  C_21
    9  A    between atoms: C_19  and  O_22
   10  A    between atoms: C_19  and  C_24
   11  A    between atoms: C_20  and  C_27
   12  A    between atoms: O_22  and  C_23
                            x       y       z     vdW  Elec       q    Type
                         _______ _______ _______ _____ _____    ______ ____

>  <TORSDO>
F 12

$$$$
=
 OpenBabel10272400383D

 31 34  0  0  1  0  0  0  0  0999 V2000
  188.6030  176.9500  140.7690 C   0  0  0  0  0  2  0  0  0  0  0  0
  189.7540  177.5800  139.9860 C   0  0  1  0  0  3  0  0  0  0  0  0
  192.1740  177.2340  139.9840 N   0  0  0  0  0  2  0  0  0  0  0  0
  190.8790  176.5820  139.7340 C   0  0  2  0  0  3  0  0  0  0  0  0
  191.7000  177.0230  138.6100 C   0  0  0  0  0  2  0  0  0  0  0  0
  189.2740  178.2290  138.6830 C   0  0  0  0  0  2  0  0  0  0  0  0
  188.0250  177.5790  138.0400 C   0  0  1  0  0  3  0  0  0  0  0  0
  186.8870  178.5490  137.6740 C   0  0  1  0  0  3  0  0  0  0  0  0
  185.8600  177.8860  136.9770 O   0  0  0  0  0  0  0  0  0  0  0  0
  185.5970  178.2110  138.3220 C   0  0  0  0  0  2  0  0  0  0  0  0
  189.4200  177.1530  135.9560 C   0  0  0  0  0  1  0  0  0  0  0  0
  188.3160  176.6340  136.8660 C   0  0  1  0  0  3  0  0  0  0  0  0
  188.6290  175.3510  137.3210 O   0  0  0  0  0  0  0  0  0  0  0  0
  188.9920  174.6380  136.1780 C   0  0  0  0  0  2  0  0  0  0  0  0
  190.7750  173.8040  137.5060 O   0  0  0  0  0  1  0  0  0  0  0  0
  189.8060  173.4260  136.5800 C   0  0  0  0  0  2  0  0  0  0  0  0
  188.7630  177.1640  142.2740 C   0  0  1  0  0  3  0  0  0  0  0  0
  191.8190  176.4570  146.1890 C   0  0  0  0  0  1  0  0  0  0  0  0
  190.2040  177.5230  142.6610 C   0  0  2  0  0  3  0  0  0  0  0  0
  191.0400  178.7580  144.5600 O   0  0  0  0  0  0  0  0  0  0  0  0
  191.0300  176.1530  143.5600 S   0  0  0  0  0  0  0  0  0  0  0  0
  190.6420  176.7160  145.2690 C   0  0  2  0  0  3  0  0  0  0  0  0
  190.2350  178.0650  145.3480 O   0  0  0  0  0  0  0  0  0  0  0  0
  190.3430  178.8840  143.3510 C   0  0  0  0  0  2  0  0  0  0  0  0
  187.6970  178.0980  142.8620 C   0  0  1  0  0  3  0  0  0  0  0  0
  185.3650  178.7020  142.1770 C   0  0  0  0  0  3  0  0  0  0  0  0
  186.6560  178.5320  141.8510 C   0  0  0  0  0  3  0  0  0  0  0  0
  184.8290  178.3750  143.5470 C   0  0  0  0  0  2  0  0  0  0  0  0
  185.4220  177.8360  145.7940 O   0  0  0  0  0  1  0  0  0  0  0  0
  187.0800  177.4800  144.1170 C   0  0  0  0  0  2  0  0  0  0  0  0
  185.9300  178.3540  144.6040 C   0  0  1  0  0  3  0  0  0  0  0  0
  2  6  1  6  0  0  0
  2  1  1  0  0  0  0
  4  3  1  0  0  0  0
  4  2  1  1  0  0  0
  5  4  1  0  0  0  0
  5  3  1  0  0  0  0
  7  6  1  6  0  0  0
  8  7  1  1  0  0  0
  8 10  1  0  0  0  0
  9  8  1  0  0  0  0
  9 10  1  0  0  0  0
 12 11  1  1  0  0  0
 12 13  1  0  0  0  0
 12  7  1  0  0  0  0
 14 16  1  0  0  0  0
 14 13  1  0  0  0  0
 16 15  1  0  0  0  0
 17  1  1  6  0  0  0
 19 17  1  1  0  0  0
 19 24  1  0  0  0  0
 19 21  1  0  0  0  0
 20 23  1  0  0  0  0
 21 22  1  0  0  0  0
 22 23  1  0  0  0  0
 22 18  1  1  0  0  0
 24 20  1  0  0  0  0
 25 17  1  6  0  0  0
 25 30  1  0  0  0  0
 26 28  1  0  0  0  0
 27 26  2  0  0  0  0
 27 25  1  0  0  0  0
 28 31  1  0  0  0  0
 30 31  1  0  0  0  0
 31 29  1  1  0  0  0
M  END
>  <MODEL>
2

>  <REMARK>
 VINA RESULT:      -6.3      2.466      7.295
  Name = 
  12 active torsions:
  status: ('A' for Active; 'I' for Inactive)
    1  A    between atoms: C_1  and  C_24
    2  A    between atoms: C_3  and  C_15
    3  A    between atoms: C_3  and  C_24
    4  A    between atoms: C_4  and  C_27
    5  A    between atoms: C_5  and  C_27
    6  A    between atoms: C_9  and  C_23
    7  A    between atoms: C_15  and  C_20
    8  A    between atoms: C_15  and  C_21
    9  A    between atoms: C_19  and  O_22
   10  A    between atoms: C_19  and  C_24
   11  A    between atoms: C_20  and  C_27
   12  A    between atoms: O_22  and  C_23
                            x       y       z     vdW  Elec       q    Type
                         _______ _______ _______ _____ _____    ______ ____

>  <TORSDO>
F 12

$$$$
=
 OpenBabel10272400383D

 31 34  0  0  1  0  0  0  0  0999 V2000
  187.6360  178.4210  142.4650 C   0  0  0  0  0  2  0  0  0  0  0  0
  187.1500  178.2040  141.0340 C   0  0  1  0  0  3  0  0  0  0  0  0
  184.7070  178.2200  140.9250 N   0  0  0  0  0  2  0  0  0  0  0  0
  185.9120  179.0380  140.7230 C   0  0  2  0  0  3  0  0  0  0  0  0
  185.2080  178.4850  139.5700 C   0  0  0  0  0  2  0  0  0  0  0  0
  188.2630  178.4420  140.0070 C   0  0  0  0  0  2  0  0  0  0  0  0
  188.3680  177.3790  138.8870 C   0  0  1  0  0  3  0  0  0  0  0  0
  188.2530  177.9180  137.4500 C   0  0  1  0  0  3  0  0  0  0  0  0
  187.6430  179.1860  137.4310 O   0  0  0  0  0  0  0  0  0  0  0  0
  189.0350  179.1560  137.2220 C   0  0  0  0  0  2  0  0  0  0  0  0
  189.7360  175.5450  137.7760 C   0  0  0  0  0  1  0  0  0  0  0  0
  189.5670  176.4280  139.0040 C   0  0  1  0  0  3  0  0  0  0  0  0
  190.7450  177.1350  139.2540 O   0  0  0  0  0  0  0  0  0  0  0  0
  191.6840  176.6060  138.3670 C   0  0  0  0  0  2  0  0  0  0  0  0
  193.9910  176.0860  138.1620 O   0  0  0  0  0  1  0  0  0  0  0  0
  193.0740  176.7900  138.9380 C   0  0  0  0  0  2  0  0  0  0  0  0
  187.5010  177.1520  143.3050 C   0  0  1  0  0  3  0  0  0  0  0  0
  192.0780  179.0470  144.0980 C   0  0  0  0  0  1  0  0  0  0  0  0
  188.8550  176.6530  143.8280 C   0  0  2  0  0  3  0  0  0  0  0  0
  191.0260  176.6630  142.7710 O   0  0  0  0  0  0  0  0  0  0  0  0
  189.6850  177.9080  144.8780 S   0  0  0  0  0  0  0  0  0  0  0  0
  190.7070  178.6890  143.5590 C   0  0  2  0  0  3  0  0  0  0  0  0
  190.8200  177.9110  142.3880 O   0  0  0  0  0  0  0  0  0  0  0  0
  189.7610  176.0610  142.7430 C   0  0  0  0  0  2  0  0  0  0  0  0
  186.4070  177.2560  144.3760 C   0  0  1  0  0  3  0  0  0  0  0  0
  186.4100  177.9400  146.7850 C   0  0  0  0  0  3  0  0  0  0  0  0
  186.9460  177.2160  145.7900 C   0  0  0  0  0  3  0  0  0  0  0  0
  185.2970  178.9290  146.5530 C   0  0  0  0  0  2  0  0  0  0  0  0
  183.6680  179.6970  144.9890 O   0  0  0  0  0  1  0  0  0  0  0  0
  185.5190  178.4730  144.1170 C   0  0  0  0  0  2  0  0  0  0  0  0
  184.5310  178.6380  145.2640 C   0  0  1  0  0  3  0  0  0  0  0  0
  2  6  1  6  0  0  0
  2  1  1  0  0  0  0
  4  3  1  0  0  0  0
  4  2  1  1  0  0  0
  5  4  1  0  0  0  0
  5  3  1  0  0  0  0
  7 12  1  0  0  0  0
  7  6  1  1  0  0  0
  8  7  1  1  0  0  0
  9  8  1  0  0  0  0
 10  9  1  0  0  0  0
 10  8  1  0  0  0  0
 12 11  1  6  0  0  0
 12 13  1  0  0  0  0
 14 16  1  0  0  0  0
 14 13  1  0  0  0  0
 15 16  1  0  0  0  0
 17  1  1  1  0  0  0
 19 17  1  6  0  0  0
 19 21  1  0  0  0  0
 22 18  1  1  0  0  0
 22 21  1  0  0  0  0
 23 20  1  0  0  0  0
 23 22  1  0  0  0  0
 24 20  1  0  0  0  0
 24 19  1  0  0  0  0
 25 17  1  6  0  0  0
 25 27  1  0  0  0  0
 27 26  2  0  0  0  0
 28 26  1  0  0  0  0
 30 25  1  0  0  0  0
 30 31  1  0  0  0  0
 31 29  1  6  0  0  0
 31 28  1  0  0  0  0
M  END
>  <MODEL>
3

>  <REMARK>
 VINA RESULT:      -5.9      2.201      6.496
  Name = 
  12 active torsions:
  status: ('A' for Active; 'I' for Inactive)
    1  A    between atoms: C_1  and  C_24
    2  A    between atoms: C_3  and  C_15
    3  A    between atoms: C_3  and  C_24
    4  A    between atoms: C_4  and  C_27
    5  A    between atoms: C_5  and  C_27
    6  A    between atoms: C_9  and  C_23
    7  A    between atoms: C_15  and  C_20
    8  A    between atoms: C_15  and  C_21
    9  A    between atoms: C_19  and  O_22
   10  A    between atoms: C_19  and  C_24
   11  A    between atoms: C_20  and  C_27
   12  A    between atoms: O_22  and  C_23
                            x       y       z     vdW  Elec       q    Type
                         _______ _______ _______ _____ _____    ______ ____

>  <TORSDO>
F 12

$$$$
=
 OpenBabel10272400383D

 31 34  0  0  1  0  0  0  0  0999 V2000
  188.6820  178.5800  139.7370 C   0  0  0  0  0  2  0  0  0  0  0  0
  188.0160  178.3150  141.0850 C   0  0  1  0  0  3  0  0  0  0  0  0
  185.9380  179.5920  141.2510 N   0  0  0  0  0  2  0  0  0  0  0  0
  186.4970  178.2620  140.9660 C   0  0  2  0  0  3  0  0  0  0  0  0
  185.8810  178.5280  142.2620 C   0  0  0  0  0  2  0  0  0  0  0  0
  188.5730  177.0570  141.7620 C   0  0  0  0  0  2  0  0  0  0  0  0
  189.5210  177.3150  142.9580 C   0  0  1  0  0  3  0  0  0  0  0  0
  190.7860  178.1310  142.6370 C   0  0  1  0  0  3  0  0  0  0  0  0
  191.9300  177.5400  143.2060 O   0  0  0  0  0  0  0  0  0  0  0  0
  191.7710  177.3890  141.8140 C   0  0  0  0  0  2  0  0  0  0  0  0
  187.6940  176.9830  144.6960 C   0  0  0  0  0  1  0  0  0  0  0  0
  188.8420  177.8620  144.2210 C   0  0  1  0  0  3  0  0  0  0  0  0
  189.7680  178.0430  145.2500 O   0  0  0  0  0  0  0  0  0  0  0  0
  189.4300  177.0950  146.2160 C   0  0  0  0  0  2  0  0  0  0  0  0
  191.7910  177.0090  146.4540 O   0  0  0  0  0  1  0  0  0  0  0  0
  190.5960  176.9050  147.1630 C   0  0  0  0  0  2  0  0  0  0  0  0
  188.1360  177.6570  138.6480 C   0  0  1  0  0  3  0  0  0  0  0  0
  184.8020  176.3240  135.1430 C   0  0  0  0  0  1  0  0  0  0  0  0
  187.0720  178.3440  137.7810 C   0  0  2  0  0  3  0  0  0  0  0  0
  186.8330  178.4150  135.3790 O   0  0  0  0  0  0  0  0  0  0  0  0
  185.5640  177.3140  137.6070 S   0  0  0  0  0  0  0  0  0  0  0  0
  186.0220  176.4800  136.0300 C   0  0  2  0  0  3  0  0  0  0  0  0
  187.0690  177.1150  135.3310 O   0  0  0  0  0  0  0  0  0  0  0  0
  187.6060  178.8840  136.4500 C   0  0  0  0  0  2  0  0  0  0  0  0
  189.2420  176.9500  137.8520 C   0  0  1  0  0  3  0  0  0  0  0  0
  191.6770  176.5430  138.2710 C   0  0  0  0  0  3  0  0  0  0  0  0
  190.6370  177.3910  138.2430 C   0  0  0  0  0  3  0  0  0  0  0  0
  191.5200  175.0660  138.0180 C   0  0  0  0  0  2  0  0  0  0  0  0
  190.0380  173.3700  137.2310 O   0  0  0  0  0  1  0  0  0  0  0  0
  189.0610  175.4340  137.9190 C   0  0  0  0  0  2  0  0  0  0  0  0
  190.2430  174.7480  137.2440 C   0  0  1  0  0  3  0  0  0  0  0  0
  2  1  1  6  0  0  0
  2  6  1  0  0  0  0
  3  5  1  0  0  0  0
  4  2  1  1  0  0  0
  4  3  1  0  0  0  0
  4  5  1  0  0  0  0
  7  6  1  6  0  0  0
  7 12  1  0  0  0  0
  8  7  1  1  0  0  0
  8  9  1  0  0  0  0
 10  8  1  0  0  0  0
 10  9  1  0  0  0  0
 12 11  1  1  0  0  0
 12 13  1  0  0  0  0
 13 14  1  0  0  0  0
 14 16  1  0  0  0  0
 15 16  1  0  0  0  0
 17  1  1  1  0  0  0
 19 17  1  6  0  0  0
 20 24  1  0  0  0  0
 21 19  1  0  0  0  0
 22 18  1  6  0  0  0
 22 21  1  0  0  0  0
 23 20  1  0  0  0  0
 23 22  1  0  0  0  0
 24 19  1  0  0  0  0
 25 30  1  0  0  0  0
 25 27  1  0  0  0  0
 25 17  1  1  0  0  0
 27 26  2  0  0  0  0
 28 26  1  0  0  0  0
 31 29  1  1  0  0  0
 31 30  1  0  0  0  0
 31 28  1  0  0  0  0
M  END
>  <MODEL>
4

>  <REMARK>
 VINA RESULT:      -5.8      2.370      4.741
  Name = 
  12 active torsions:
  status: ('A' for Active; 'I' for Inactive)
    1  A    between atoms: C_1  and  C_24
    2  A    between atoms: C_3  and  C_15
    3  A    between atoms: C_3  and  C_24
    4  A    between atoms: C_4  and  C_27
    5  A    between atoms: C_5  and  C_27
    6  A    between atoms: C_9  and  C_23
    7  A    between atoms: C_15  and  C_20
    8  A    between atoms: C_15  and  C_21
    9  A    between atoms: C_19  and  O_22
   10  A    between atoms: C_19  and  C_24
   11  A    between atoms: C_20  and  C_27
   12  A    between atoms: O_22  and  C_23
                            x       y       z     vdW  Elec       q    Type
                         _______ _______ _______ _____ _____    ______ ____

>  <TORSDO>
F 12

$$$$
=
 OpenBabel10272400383D

 31 34  0  0  1  0  0  0  0  0999 V2000
  187.3220  178.6250  142.1660 C   0  0  0  0  0  2  0  0  0  0  0  0
  186.4970  178.3430  140.9130 C   0  0  1  0  0  3  0  0  0  0  0  0
  184.0770  178.0340  140.7510 N   0  0  0  0  0  2  0  0  0  0  0  0
  185.1380  179.0310  140.9630 C   0  0  2  0  0  3  0  0  0  0  0  0
  184.4780  178.9370  139.6640 C   0  0  0  0  0  2  0  0  0  0  0  0
  187.2610  178.6960  139.6310 C   0  0  0  0  0  2  0  0  0  0  0  0
  187.3920  177.5470  138.6020 C   0  0  1  0  0  3  0  0  0  0  0  0
  186.1170  177.2250  137.8020 C   0  0  1  0  0  3  0  0  0  0  0  0
  186.3990  177.0940  136.4290 O   0  0  0  0  0  0  0  0  0  0  0  0
  186.1590  175.9000  137.1380 C   0  0  0  0  0  2  0  0  0  0  0  0
  189.2440  179.0320  137.6860 C   0  0  0  0  0  1  0  0  0  0  0  0
  188.5980  177.6540  137.6590 C   0  0  1  0  0  3  0  0  0  0  0  0
  189.5480  176.6710  137.9460 O   0  0  0  0  0  0  0  0  0  0  0  0
  190.1220  176.3480  136.7160 C   0  0  0  0  0  2  0  0  0  0  0  0
  191.1400  174.8260  138.2280 O   0  0  0  0  0  1  0  0  0  0  0  0
  190.9860  175.1150  136.8740 C   0  0  0  0  0  2  0  0  0  0  0  0
  187.4810  177.3750  143.0300 C   0  0  1  0  0  3  0  0  0  0  0  0
  191.9220  177.6330  140.7080 C   0  0  0  0  0  1  0  0  0  0  0  0
  188.9500  177.0820  143.3650 C   0  0  2  0  0  3  0  0  0  0  0  0
  190.5250  175.6040  142.2840 O   0  0  0  0  0  0  0  0  0  0  0  0
  190.0780  178.3350  142.6420 S   0  0  0  0  0  0  0  0  0  0  0  0
  190.4640  177.4400  141.0790 C   0  0  2  0  0  3  0  0  0  0  0  0
  190.1350  176.0690  141.1090 O   0  0  0  0  0  0  0  0  0  0  0  0
  189.3760  175.6360  143.0860 C   0  0  0  0  0  2  0  0  0  0  0  0
  186.5390  177.3590  144.2410 C   0  0  1  0  0  3  0  0  0  0  0  0
  186.7900  178.0650  146.6300 C   0  0  0  0  0  3  0  0  0  0  0  0
  187.2680  177.3990  145.5680 C   0  0  0  0  0  3  0  0  0  0  0  0
  185.5450  178.9120  146.5590 C   0  0  0  0  0  2  0  0  0  0  0  0
  183.6390  179.4640  145.2360 O   0  0  0  0  0  1  0  0  0  0  0  0
  185.4860  178.4600  144.1120 C   0  0  0  0  0  2  0  0  0  0  0  0
  184.6510  178.5190  145.3850 C   0  0  1  0  0  3  0  0  0  0  0  0
  2  6  1  6  0  0  0
  2  1  1  0  0  0  0
  3  4  1  0  0  0  0
  4  2  1  6  0  0  0
  5  3  1  0  0  0  0
  5  4  1  0  0  0  0
  7  6  1  6  0  0  0
  8  7  1  1  0  0  0
  9 10  1  0  0  0  0
  9  8  1  0  0  0  0
 10  8  1  0  0  0  0
 12 11  1  1  0  0  0
 12 13  1  0  0  0  0
 12  7  1  0  0  0  0
 14 16  1  0  0  0  0
 14 13  1  0  0  0  0
 16 15  1  0  0  0  0
 17  1  1  1  0  0  0
 19 17  1  6  0  0  0
 20 24  1  0  0  0  0
 21 19  1  0  0  0  0
 22 18  1  1  0  0  0
 22 23  1  0  0  0  0
 22 21  1  0  0  0  0
 23 20  1  0  0  0  0
 24 19  1  0  0  0  0
 25 17  1  6  0  0  0
 25 27  1  0  0  0  0
 27 26  2  0  0  0  0
 28 26  1  0  0  0  0
 30 25  1  0  0  0  0
 30 31  1  0  0  0  0
 31 29  1  6  0  0  0
 31 28  1  0  0  0  0
M  END
>  <MODEL>
5

>  <REMARK>
 VINA RESULT:      -5.7      2.106      6.290
  Name = 
  12 active torsions:
  status: ('A' for Active; 'I' for Inactive)
    1  A    between atoms: C_1  and  C_24
    2  A    between atoms: C_3  and  C_15
    3  A    between atoms: C_3  and  C_24
    4  A    between atoms: C_4  and  C_27
    5  A    between atoms: C_5  and  C_27
    6  A    between atoms: C_9  and  C_23
    7  A    between atoms: C_15  and  C_20
    8  A    between atoms: C_15  and  C_21
    9  A    between atoms: C_19  and  O_22
   10  A    between atoms: C_19  and  C_24
   11  A    between atoms: C_20  and  C_27
   12  A    between atoms: O_22  and  C_23
                            x       y       z     vdW  Elec       q    Type
                         _______ _______ _______ _____ _____    ______ ____

>  <TORSDO>
F 12

$$$$
=
 OpenBabel10272400383D

 31 34  0  0  1  0  0  0  0  0999 V2000
  188.7490  178.3940  139.4360 C   0  0  0  0  0  2  0  0  0  0  0  0
  188.6510  177.8320  140.8530 C   0  0  1  0  0  3  0  0  0  0  0  0
  190.4420  176.1720  140.9930 N   0  0  0  0  0  2  0  0  0  0  0  0
  190.0250  177.5130  141.4310 C   0  0  2  0  0  3  0  0  0  0  0  0
  189.9340  176.3860  142.3550 C   0  0  0  0  0  2  0  0  0  0  0  0
  187.8480  178.7500  141.7810 C   0  0  0  0  0  2  0  0  0  0  0  0
  186.7620  178.0460  142.6300 C   0  0  1  0  0  3  0  0  0  0  0  0
  186.9610  178.1240  144.1550 C   0  0  1  0  0  3  0  0  0  0  0  0
  186.4030  177.0020  144.7970 O   0  0  0  0  0  0  0  0  0  0  0  0
  187.8080  177.0330  144.6930 C   0  0  0  0  0  2  0  0  0  0  0  0
  184.6650  179.3280  143.2820 C   0  0  0  0  0  1  0  0  0  0  0  0
  185.3160  178.4030  142.2630 C   0  0  1  0  0  3  0  0  0  0  0  0
  185.2460  178.9660  140.9880 O   0  0  0  0  0  0  0  0  0  0  0  0
  184.1370  178.3700  140.3860 C   0  0  0  0  0  2  0  0  0  0  0  0
  184.4650  180.3280  139.0830 O   0  0  0  0  0  1  0  0  0  0  0  0
  183.5420  179.3250  139.3730 C   0  0  0  0  0  2  0  0  0  0  0  0
  188.1400  177.4410  138.4090 C   0  0  1  0  0  3  0  0  0  0  0  0
  185.0720  176.1810  134.6440 C   0  0  0  0  0  1  0  0  0  0  0  0
  187.0120  178.0990  137.6030 C   0  0  2  0  0  3  0  0  0  0  0  0
  186.8090  178.4610  135.2240 O   0  0  0  0  0  0  0  0  0  0  0  0
  185.6530  176.9190  137.2420 S   0  0  0  0  0  0  0  0  0  0  0  0
  186.2450  176.3690  135.5860 C   0  0  2  0  0  3  0  0  0  0  0  0
  187.2130  177.2200  135.0130 O   0  0  0  0  0  0  0  0  0  0  0  0
  187.4950  178.8760  136.3730 C   0  0  0  0  0  2  0  0  0  0  0  0
  189.1950  176.7260  137.5550 C   0  0  1  0  0  3  0  0  0  0  0  0
  191.6860  176.5160  137.7100 C   0  0  0  0  0  3  0  0  0  0  0  0
  190.5900  177.2900  137.7290 C   0  0  0  0  0  3  0  0  0  0  0  0
  191.6110  175.0140  137.6190 C   0  0  0  0  0  2  0  0  0  0  0  0
  190.1770  173.1580  137.1840 O   0  0  0  0  0  1  0  0  0  0  0  0
  189.1360  175.2160  137.7870 C   0  0  0  0  0  2  0  0  0  0  0  0
  190.2800  174.5400  137.0410 C   0  0  1  0  0  3  0  0  0  0  0  0
  2  1  1  6  0  0  0
  2  6  1  0  0  0  0
  3  4  1  0  0  0  0
  3  5  1  0  0  0  0
  4  2  1  6  0  0  0
  4  5  1  0  0  0  0
  7  6  1  6  0  0  0
  8  7  1  6  0  0  0
  8 10  1  0  0  0  0
  8  9  1  0  0  0  0
 10  9  1  0  0  0  0
 12  7  1  0  0  0  0
 12 11  1  1  0  0  0
 13 12  1  0  0  0  0
 14 13  1  0  0  0  0
 15 16  1  0  0  0  0
 16 14  1  0  0  0  0
 17  1  1  6  0  0  0
 19 17  1  6  0  0  0
 20 24  1  0  0  0  0
 21 19  1  0  0  0  0
 22 18  1  6  0  0  0
 22 21  1  0  0  0  0
 23 20  1  0  0  0  0
 23 22  1  0  0  0  0
 24 19  1  0  0  0  0
 25 27  1  0  0  0  0
 25 30  1  0  0  0  0
 25 17  1  1  0  0  0
 26 27  2  0  0  0  0
 28 26  1  0  0  0  0
 31 29  1  1  0  0  0
 31 28  1  0  0  0  0
 31 30  1  0  0  0  0
M  END
>  <MODEL>
6

>  <REMARK>
 VINA RESULT:      -5.7      2.762      5.488
  Name = 
  12 active torsions:
  status: ('A' for Active; 'I' for Inactive)
    1  A    between atoms: C_1  and  C_24
    2  A    between atoms: C_3  and  C_15
    3  A    between atoms: C_3  and  C_24
    4  A    between atoms: C_4  and  C_27
    5  A    between atoms: C_5  and  C_27
    6  A    between atoms: C_9  and  C_23
    7  A    between atoms: C_15  and  C_20
    8  A    between atoms: C_15  and  C_21
    9  A    between atoms: C_19  and  O_22
   10  A    between atoms: C_19  and  C_24
   11  A    between atoms: C_20  and  C_27
   12  A    between atoms: O_22  and  C_23
                            x       y       z     vdW  Elec       q    Type
                         _______ _______ _______ _____ _____    ______ ____

>  <TORSDO>
F 12

$$$$
=
 OpenBabel10272400383D

 31 34  0  0  1  0  0  0  0  0999 V2000
  187.5830  178.4760  141.4720 C   0  0  0  0  0  2  0  0  0  0  0  0
  186.9180  178.0490  140.1660 C   0  0  1  0  0  3  0  0  0  0  0  0
  184.5390  177.9760  139.6070 N   0  0  0  0  0  2  0  0  0  0  0  0
  185.6720  178.8760  139.8680 C   0  0  2  0  0  3  0  0  0  0  0  0
  185.2300  178.6440  138.4960 C   0  0  0  0  0  2  0  0  0  0  0  0
  187.9000  178.0650  138.9890 C   0  0  0  0  0  2  0  0  0  0  0  0
  188.2440  176.6780  138.3950 C   0  0  1  0  0  3  0  0  0  0  0  0
  187.5080  176.3140  137.0920 C   0  0  1  0  0  3  0  0  0  0  0  0
  187.5740  174.9310  136.8420 O   0  0  0  0  0  0  0  0  0  0  0  0
  186.3400  175.4270  137.3060 C   0  0  0  0  0  2  0  0  0  0  0  0
  190.3300  176.9130  136.9580 C   0  0  0  0  0  1  0  0  0  0  0  0
  189.7440  176.3820  138.2580 C   0  0  1  0  0  3  0  0  0  0  0  0
  190.4550  176.8860  139.3490 O   0  0  0  0  0  0  0  0  0  0  0  0
  191.7920  176.8740  138.9480 C   0  0  0  0  0  2  0  0  0  0  0  0
  193.9340  176.9470  139.9720 O   0  0  0  0  0  1  0  0  0  0  0  0
  192.6480  177.4800  140.0400 C   0  0  0  0  0  2  0  0  0  0  0  0
  186.9950  177.7340  142.6720 C   0  0  1  0  0  3  0  0  0  0  0  0
  191.6320  178.4670  144.4450 C   0  0  0  0  0  1  0  0  0  0  0  0
  188.0550  176.9260  143.4330 C   0  0  2  0  0  3  0  0  0  0  0  0
  190.3340  176.4000  142.8330 O   0  0  0  0  0  0  0  0  0  0  0  0
  188.9280  177.9480  144.6800 S   0  0  0  0  0  0  0  0  0  0  0  0
  190.3540  178.4480  143.6270 C   0  0  2  0  0  3  0  0  0  0  0  0
  190.5150  177.6590  142.4700 O   0  0  0  0  0  0  0  0  0  0  0  0
  188.9950  176.1230  142.5260 C   0  0  0  0  0  2  0  0  0  0  0  0
  186.1230  178.6310  143.5610 C   0  0  1  0  0  3  0  0  0  0  0  0
  183.6620  179.0840  143.6670 C   0  0  0  0  0  3  0  0  0  0  0  0
  184.7850  178.9710  142.9400 C   0  0  0  0  0  3  0  0  0  0  0  0
  183.6230  178.7790  145.1420 C   0  0  0  0  0  2  0  0  0  0  0  0
  184.9480  178.3560  147.0800 O   0  0  0  0  0  1  0  0  0  0  0  0
  185.9880  178.0270  144.9590 C   0  0  0  0  0  2  0  0  0  0  0  0
  185.0080  178.8560  145.7810 C   0  0  1  0  0  3  0  0  0  0  0  0
  2  6  1  6  0  0  0
  2  1  1  0  0  0  0
  3  4  1  0  0  0  0
  4  2  1  6  0  0  0
  5  3  1  0  0  0  0
  5  4  1  0  0  0  0
  7  6  1  6  0  0  0
  8 10  1  0  0  0  0
  8  7  1  1  0  0  0
  9  8  1  0  0  0  0
  9 10  1  0  0  0  0
 12 11  1  6  0  0  0
 12  7  1  0  0  0  0
 12 13  1  0  0  0  0
 14 13  1  0  0  0  0
 14 16  1  0  0  0  0
 15 16  1  0  0  0  0
 17  1  1  6  0  0  0
 19 17  1  6  0  0  0
 19 21  1  0  0  0  0
 22 18  1  1  0  0  0
 22 21  1  0  0  0  0
 23 20  1  0  0  0  0
 23 22  1  0  0  0  0
 24 20  1  0  0  0  0
 24 19  1  0  0  0  0
 25 17  1  6  0  0  0
 25 30  1  0  0  0  0
 26 28  1  0  0  0  0
 27 25  1  0  0  0  0
 27 26  2  0  0  0  0
 28 31  1  0  0  0  0
 30 31  1  0  0  0  0
 31 29  1  1  0  0  0
M  END
>  <MODEL>
7

>  <REMARK>
 VINA RESULT:      -5.7      2.145      6.551
  Name = 
  12 active torsions:
  status: ('A' for Active; 'I' for Inactive)
    1  A    between atoms: C_1  and  C_24
    2  A    between atoms: C_3  and  C_15
    3  A    between atoms: C_3  and  C_24
    4  A    between atoms: C_4  and  C_27
    5  A    between atoms: C_5  and  C_27
    6  A    between atoms: C_9  and  C_23
    7  A    between atoms: C_15  and  C_20
    8  A    between atoms: C_15  and  C_21
    9  A    between atoms: C_19  and  O_22
   10  A    between atoms: C_19  and  C_24
   11  A    between atoms: C_20  and  C_27
   12  A    between atoms: O_22  and  C_23
                            x       y       z     vdW  Elec       q    Type
                         _______ _______ _______ _____ _____    ______ ____

>  <TORSDO>
F 12

$$$$
=
 OpenBabel10272400383D

 31 34  0  0  1  0  0  0  0  0999 V2000
  185.8830  178.7550  142.7650 C   0  0  0  0  0  2  0  0  0  0  0  0
  184.4510  178.2270  142.7170 C   0  0  1  0  0  3  0  0  0  0  0  0
  183.3470  179.1190  144.7080 N   0  0  0  0  0  2  0  0  0  0  0  0
  183.4520  179.2500  143.2470 C   0  0  2  0  0  3  0  0  0  0  0  0
  182.3010  178.5720  143.8340 C   0  0  0  0  0  2  0  0  0  0  0  0
  184.0660  177.7380  141.3160 C   0  0  0  0  0  2  0  0  0  0  0  0
  183.0180  178.6040  140.5770 C   0  0  1  0  0  3  0  0  0  0  0  0
  183.5500  179.4040  139.3740 C   0  0  1  0  0  3  0  0  0  0  0  0
  184.8850  179.8000  139.5780 O   0  0  0  0  0  0  0  0  0  0  0  0
  184.6760  178.7380  138.6770 C   0  0  0  0  0  2  0  0  0  0  0  0
  181.0020  178.5280  139.0280 C   0  0  0  0  0  1  0  0  0  0  0  0
  181.7210  177.8740  140.1990 C   0  0  1  0  0  3  0  0  0  0  0  0
  181.9660  176.5280  139.9240 O   0  0  0  0  0  0  0  0  0  0  0  0
  181.3620  176.2930  138.6880 C   0  0  0  0  0  2  0  0  0  0  0  0
  183.4150  175.1440  138.3670 O   0  0  0  0  0  1  0  0  0  0  0  0
  182.0740  175.1540  137.9890 C   0  0  0  0  0  2  0  0  0  0  0  0
  186.8630  177.6820  143.2350 C   0  0  1  0  0  3  0  0  0  0  0  0
  189.0470  178.6850  138.8310 C   0  0  0  0  0  1  0  0  0  0  0  0
  188.2840  177.9210  142.7080 C   0  0  2  0  0  3  0  0  0  0  0  0
  189.5160  176.7620  140.9840 O   0  0  0  0  0  0  0  0  0  0  0  0
  188.3270  179.2450  141.4390 S   0  0  0  0  0  0  0  0  0  0  0  0
  188.1730  178.1640  139.9550 C   0  0  2  0  0  3  0  0  0  0  0  0
  188.4460  176.8040  140.2090 O   0  0  0  0  0  0  0  0  0  0  0  0
  189.0160  176.6410  142.2870 C   0  0  0  0  0  2  0  0  0  0  0  0
  186.7840  177.4180  144.7450 C   0  0  1  0  0  3  0  0  0  0  0  0
  188.4960  177.2980  146.5680 C   0  0  0  0  0  3  0  0  0  0  0  0
  188.0910  176.9400  145.3400 C   0  0  0  0  0  3  0  0  0  0  0  0
  187.7340  178.2870  147.4120 C   0  0  0  0  0  2  0  0  0  0  0  0
  185.6810  179.4820  147.6360 O   0  0  0  0  0  1  0  0  0  0  0  0
  186.2150  178.6370  145.4710 C   0  0  0  0  0  2  0  0  0  0  0  0
  186.2750  178.4080  146.9760 C   0  0  1  0  0  3  0  0  0  0  0  0
  2  6  1  6  0  0  0
  2  1  1  0  0  0  0
  4  2  1  6  0  0  0
  4  5  1  0  0  0  0
  4  3  1  0  0  0  0
  5  3  1  0  0  0  0
  7  6  1  6  0  0  0
  8  9  1  0  0  0  0
  8  7  1  1  0  0  0
 10  8  1  0  0  0  0
 10  9  1  0  0  0  0
 12 11  1  6  0  0  0
 12  7  1  0  0  0  0
 13 12  1  0  0  0  0
 14 13  1  0  0  0  0
 16 15  1  0  0  0  0
 16 14  1  0  0  0  0
 17  1  1  1  0  0  0
 19 17  1  6  0  0  0
 20 24  1  0  0  0  0
 21 19  1  0  0  0  0
 22 18  1  6  0  0  0
 22 23  1  0  0  0  0
 22 21  1  0  0  0  0
 23 20  1  0  0  0  0
 24 19  1  0  0  0  0
 25 17  1  6  0  0  0
 25 27  1  0  0  0  0
 25 30  1  0  0  0  0
 26 28  1  0  0  0  0
 27 26  2  0  0  0  0
 30 31  1  0  0  0  0
 31 28  1  0  0  0  0
 31 29  1  1  0  0  0
M  END
>  <MODEL>
8

>  <REMARK>
 VINA RESULT:      -5.5      2.731      5.667
  Name = 
  12 active torsions:
  status: ('A' for Active; 'I' for Inactive)
    1  A    between atoms: C_1  and  C_24
    2  A    between atoms: C_3  and  C_15
    3  A    between atoms: C_3  and  C_24
    4  A    between atoms: C_4  and  C_27
    5  A    between atoms: C_5  and  C_27
    6  A    between atoms: C_9  and  C_23
    7  A    between atoms: C_15  and  C_20
    8  A    between atoms: C_15  and  C_21
    9  A    between atoms: C_19  and  O_22
   10  A    between atoms: C_19  and  C_24
   11  A    between atoms: C_20  and  C_27
   12  A    between atoms: O_22  and  C_23
                            x       y       z     vdW  Elec       q    Type
                         _______ _______ _______ _____ _____    ______ ____

>  <TORSDO>
F 12

$$$$
=
 OpenBabel10272400383D

 31 34  0  0  1  0  0  0  0  0999 V2000
  188.8870  178.0010  139.5390 C   0  0  0  0  0  2  0  0  0  0  0  0
  188.0900  177.3700  138.3990 C   0  0  1  0  0  3  0  0  0  0  0  0
  185.7780  178.1290  138.1570 N   0  0  0  0  0  2  0  0  0  0  0  0
  187.1640  178.3790  137.7300 C   0  0  2  0  0  3  0  0  0  0  0  0
  186.2390  177.6950  136.8310 C   0  0  0  0  0  2  0  0  0  0  0  0
  189.0000  176.6760  137.3790 C   0  0  0  0  0  2  0  0  0  0  0  0
  188.9020  175.1320  137.3470 C   0  0  1  0  0  3  0  0  0  0  0  0
  187.8370  174.5550  136.3970 C   0  0  1  0  0  3  0  0  0  0  0  0
  187.6590  173.1750  136.6120 O   0  0  0  0  0  0  0  0  0  0  0  0
  186.6460  174.0230  137.1020 C   0  0  0  0  0  2  0  0  0  0  0  0
  190.8050  174.5710  135.7560 C   0  0  0  0  0  1  0  0  0  0  0  0
  190.2370  174.3990  137.1570 C   0  0  1  0  0  3  0  0  0  0  0  0
  191.1720  174.8070  138.1100 O   0  0  0  0  0  0  0  0  0  0  0  0
  192.3640  174.9750  137.4030 C   0  0  0  0  0  2  0  0  0  0  0  0
  194.3790  175.7840  138.3620 O   0  0  0  0  0  1  0  0  0  0  0  0
  193.1070  176.1750  137.9500 C   0  0  0  0  0  2  0  0  0  0  0  0
  188.7490  177.1990  140.8330 C   0  0  1  0  0  3  0  0  0  0  0  0
  191.6060  176.9420  144.9490 C   0  0  0  0  0  1  0  0  0  0  0  0
  190.0700  176.5400  141.2520 C   0  0  2  0  0  3  0  0  0  0  0  0
  192.0920  177.5300  142.1260 O   0  0  0  0  0  0  0  0  0  0  0  0
  189.9960  175.8910  142.9670 S   0  0  0  0  0  0  0  0  0  0  0  0
  190.6950  177.3690  143.8150 C   0  0  2  0  0  3  0  0  0  0  0  0
  191.3620  178.2620  142.9500 O   0  0  0  0  0  0  0  0  0  0  0  0
  191.3100  177.3950  140.9700 C   0  0  0  0  0  2  0  0  0  0  0  0
  188.0490  177.9820  141.9510 C   0  0  1  0  0  3  0  0  0  0  0  0
  185.8280  179.1250  142.1260 C   0  0  0  0  0  3  0  0  0  0  0  0
  186.9640  178.9090  141.4450 C   0  0  0  0  0  3  0  0  0  0  0  0
  185.4940  178.3840  143.3950 C   0  0  0  0  0  2  0  0  0  0  0  0
  186.3560  176.9570  145.1010 O   0  0  0  0  0  1  0  0  0  0  0  0
  187.5520  177.0300  143.0390 C   0  0  0  0  0  2  0  0  0  0  0  0
  186.7390  177.8080  144.0670 C   0  0  1  0  0  3  0  0  0  0  0  0
  2  6  1  6  0  0  0
  2  1  1  0  0  0  0
  4  3  1  0  0  0  0
  4  2  1  1  0  0  0
  5  4  1  0  0  0  0
  5  3  1  0  0  0  0
  7  6  1  6  0  0  0
  8  9  1  0  0  0  0
  8 10  1  0  0  0  0
  8  7  1  1  0  0  0
  9 10  1  0  0  0  0
 12 11  1  6  0  0  0
 12  7  1  0  0  0  0
 12 13  1  0  0  0  0
 14 16  1  0  0  0  0
 14 13  1  0  0  0  0
 16 15  1  0  0  0  0
 17  1  1  6  0  0  0
 19 17  1  1  0  0  0
 19 21  1  0  0  0  0
 20 23  1  0  0  0  0
 21 22  1  0  0  0  0
 22 18  1  1  0  0  0
 23 22  1  0  0  0  0
 24 19  1  0  0  0  0
 24 20  1  0  0  0  0
 25 17  1  6  0  0  0
 25 30  1  0  0  0  0
 26 28  1  0  0  0  0
 27 25  1  0  0  0  0
 27 26  2  0  0  0  0
 28 31  1  0  0  0  0
 30 31  1  0  0  0  0
 31 29  1  1  0  0  0
M  END
>  <MODEL>
9

>  <REMARK>
 VINA RESULT:      -5.5      2.514      7.099
  Name = 
  12 active torsions:
  status: ('A' for Active; 'I' for Inactive)
    1  A    between atoms: C_1  and  C_24
    2  A    between atoms: C_3  and  C_15
    3  A    between atoms: C_3  and  C_24
    4  A    between atoms: C_4  and  C_27
    5  A    between atoms: C_5  and  C_27
    6  A    between atoms: C_9  and  C_23
    7  A    between atoms: C_15  and  C_20
    8  A    between atoms: C_15  and  C_21
    9  A    between atoms: C_19  and  O_22
   10  A    between atoms: C_19  and  C_24
   11  A    between atoms: C_20  and  C_27
   12  A    between atoms: O_22  and  C_23
                            x       y       z     vdW  Elec       q    Type
                         _______ _______ _______ _____ _____    ______ ____

>  <TORSDO>
F 12

$$$$
