=
 OpenBabel10272414013D

 30 32  0  0  1  0  0  0  0  0999 V2000
  190.9380  176.3230  141.8610 C   0  0  0  0  0  2  0  0  0  0  0  0
  189.5320  176.7640  141.4270 C   0  0  2  0  0  3  0  0  0  0  0  0
  192.1010  179.0160  144.3590 C   0  0  0  0  0  1  0  0  0  0  0  0
  185.2220  179.1690  140.0010 C   0  0  0  0  0  2  0  0  0  0  0  0
  188.5570  177.6820  139.0180 P   0  0  1  0  0  4  0  0  0  0  0  0
  187.0910  177.1710  142.1340 C   0  0  0  0  0  2  0  0  0  0  0  0
  189.2200  179.1570  143.1840 O   0  0  0  0  0  1  0  0  0  0  0  0
  188.8290  179.2420  137.6740 Cl  0  0  0  0  0  0  0  0  0  0  0  0
  189.6000  177.9640  140.4820 C   0  0  0  0  0  2  0  0  0  0  0  0
  186.8160  178.6100  141.6900 C   0  0  2  0  0  3  0  0  0  0  0  0
  184.5240  178.8920  141.1860 O   0  0  0  0  0  0  0  0  0  0  0  0
  191.7400  177.4800  142.4550 C   0  0  0  0  0  2  0  0  0  0  0  0
  190.1650  177.3600  144.5100 C   0  0  2  0  0  3  0  0  0  0  0  0
  191.5870  177.6420  143.9680 C   0  0  2  0  0  3  0  0  0  0  0  0
  188.4580  175.6090  143.1990 O   0  0  0  0  0  1  0  0  0  0  0  0
  188.9700  177.8800  143.6970 C   0  0  2  0  0  3  0  0  0  0  0  0
  188.5270  176.8730  142.6080 C   0  0  1  0  0  0  0  0  0  0  0  0
  185.4650  179.0370  142.2140 C   0  0  0  0  0  2  0  0  0  0  0  0
  186.9270  177.5900  139.4820 O   0  0  0  0  0  0  0  0  0  0  0  0
  186.6680  178.7730  140.1870 C   0  0  1  0  0  3  0  0  0  0  0  0
  189.0460  176.1260  138.2220 C   0  0  0  0  0  2  0  0  0  0  0  0
  190.3120  176.3370  137.4200 C   0  0  0  0  0  2  0  0  0  0  0  0
  191.4520  175.5820  138.0680 C   0  0  0  0  0  2  0  0  0  0  0  0
  192.5450  176.5550  138.4570 C   0  0  0  0  0  1  0  0  0  0  0  0
  189.9620  177.4300  146.0350 C   0  0  1  0  0  3  0  0  0  0  0  0
  188.5030  177.1790  146.4200 C   0  0  0  0  0  3  0  0  0  0  0  0
  187.8260  178.3930  146.5500 O   0  0  0  0  0  1  0  0  0  0  0  0
  188.4380  176.4890  147.6320 O   0  0  0  0  0  1  0  0  0  0  0  0
  191.7420  177.2280  147.6260 O   0  0  0  0  0  1  0  0  0  0  0  0
  190.8940  176.4920  146.7980 C   0  0  0  0  0  2  0  0  0  0  0  0
  1 12  1  0  0  0  0
  2  9  1  1  0  0  0
  2  1  1  0  0  0  0
  2 17  1  0  0  0  0
  4 11  1  0  0  0  0
  5  8  1  6  0  0  0
  5 19  1  0  0  0  0
  5  9  1  0  0  0  0
  6 17  1  0  0  0  0
 10  6  1  6  0  0  0
 10 18  1  0  0  0  0
 11 18  1  0  0  0  0
 12 14  1  0  0  0  0
 13 25  1  1  0  0  0
 14  3  1  6  0  0  0
 14 13  1  0  0  0  0
 16  7  1  6  0  0  0
 16 13  1  0  0  0  0
 17 15  1  1  0  0  0
 17 16  1  0  0  0  0
 19 20  1  0  0  0  0
 20  4  1  1  0  0  0
 20 10  1  0  0  0  0
 21  5  1  0  0  0  0
 22 23  1  0  0  0  0
 22 21  1  0  0  0  0
 23 24  1  0  0  0  0
 25 26  1  0  0  0  0
 25 30  1  1  0  0  0
 26 27  1  0  0  0  0
 26 28  1  0  0  0  0
 30 29  1  0  0  0  0
M  END
>  <MODEL>
1

>  <REMARK>
 VINA RESULT:      -5.7      0.000      0.000
  Name = 
  6 active torsions:
  status: ('A' for Active; 'I' for Inactive)
    1  A    between atoms: C_2  and  C_28
    2  A    between atoms: C_6  and  P_8
    3  A    between atoms: C_6  and  C_21
    4  A    between atoms: C_9  and  C_21
    5  A    between atoms: C_19  and  C_28
    6  A    between atoms: C_28  and  C_29
                            x       y       z     vdW  Elec       q    Type
                         _______ _______ _______ _____ _____    ______ ____

>  <TORSDO>
F 6

$$$$
=
 OpenBabel10272414013D

 30 32  0  0  1  0  0  0  0  0999 V2000
  191.5950  175.0790  135.0730 C   0  0  0  0  0  2  0  0  0  0  0  0
  190.9160  175.5310  136.3740 C   0  0  2  0  0  3  0  0  0  0  0  0
  195.0310  176.8210  135.0800 C   0  0  0  0  0  1  0  0  0  0  0  0
  189.0780  177.9350  140.5260 C   0  0  0  0  0  2  0  0  0  0  0  0
  188.7340  177.1480  136.8430 P   0  0  1  0  0  4  0  0  0  0  0  0
  190.9460  175.4750  138.9470 C   0  0  0  0  0  2  0  0  0  0  0  0
  193.1480  177.1340  137.5410 O   0  0  0  0  0  1  0  0  0  0  0  0
  188.0870  179.0930  136.5120 Cl  0  0  0  0  0  0  0  0  0  0  0  0
  190.4550  176.9860  136.2770 C   0  0  0  0  0  2  0  0  0  0  0  0
  190.9080  176.9520  139.3470 C   0  0  2  0  0  3  0  0  0  0  0  0
  189.8510  177.2110  141.4450 O   0  0  0  0  0  0  0  0  0  0  0  0
  192.7290  176.0170  134.6650 C   0  0  0  0  0  2  0  0  0  0  0  0
  194.0730  175.0690  136.6690 C   0  0  2  0  0  3  0  0  0  0  0  0
  194.0990  175.6320  135.2270 C   0  0  2  0  0  3  0  0  0  0  0  0
  191.8350  173.7530  137.6480 O   0  0  0  0  0  1  0  0  0  0  0  0
  193.1410  175.7430  137.6870 C   0  0  2  0  0  3  0  0  0  0  0  0
  191.7130  175.1450  137.6520 C   0  0  1  0  0  0  0  0  0  0  0  0
  191.1070  177.0640  140.8400 C   0  0  0  0  0  2  0  0  0  0  0  0
  188.6340  176.7730  138.4950 O   0  0  0  0  0  0  0  0  0  0  0  0
  189.5580  177.6140  139.1290 C   0  0  1  0  0  3  0  0  0  0  0  0
  187.6820  176.0080  135.9010 C   0  0  0  0  0  2  0  0  0  0  0  0
  187.1270  174.9440  136.8220 C   0  0  0  0  0  2  0  0  0  0  0  0
  187.3100  173.5820  136.1890 C   0  0  0  0  0  2  0  0  0  0  0  0
  188.4330  172.8470  136.8890 C   0  0  0  0  0  1  0  0  0  0  0  0
  195.4090  174.5900  137.2660 C   0  0  1  0  0  3  0  0  0  0  0  0
  195.2780  174.2760  138.7570 C   0  0  0  0  0  3  0  0  0  0  0  0
  196.2720  174.9440  139.4760 O   0  0  0  0  0  1  0  0  0  0  0  0
  195.4050  172.9030  138.9720 O   0  0  0  0  0  1  0  0  0  0  0  0
  197.2930  173.7020  136.0800 O   0  0  0  0  0  1  0  0  0  0  0  0
  196.0000  173.4020  136.5110 C   0  0  0  0  0  2  0  0  0  0  0  0
  2  1  1  6  0  0  0
  2 17  1  0  0  0  0
  4 11  1  0  0  0  0
  5  8  1  6  0  0  0
  5 19  1  0  0  0  0
  9  2  1  0  0  0  0
  9  5  1  0  0  0  0
 10  6  1  1  0  0  0
 10 18  1  0  0  0  0
 12  1  1  0  0  0  0
 12 14  1  0  0  0  0
 13 25  1  1  0  0  0
 13 16  1  0  0  0  0
 14  3  1  1  0  0  0
 14 13  1  0  0  0  0
 16  7  1  6  0  0  0
 17 15  1  6  0  0  0
 17 16  1  0  0  0  0
 17  6  1  0  0  0  0
 18 11  1  0  0  0  0
 19 20  1  0  0  0  0
 20 10  1  0  0  0  0
 20  4  1  1  0  0  0
 21 22  1  0  0  0  0
 21  5  1  0  0  0  0
 23 22  1  0  0  0  0
 23 24  1  0  0  0  0
 25 30  1  6  0  0  0
 25 26  1  0  0  0  0
 26 28  1  0  0  0  0
 26 27  1  0  0  0  0
 29 30  1  0  0  0  0
M  END
>  <MODEL>
2

>  <REMARK>
 VINA RESULT:      -5.1      4.294      7.472
  Name = 
  6 active torsions:
  status: ('A' for Active; 'I' for Inactive)
    1  A    between atoms: C_2  and  C_28
    2  A    between atoms: C_6  and  P_8
    3  A    between atoms: C_6  and  C_21
    4  A    between atoms: C_9  and  C_21
    5  A    between atoms: C_19  and  C_28
    6  A    between atoms: C_28  and  C_29
                            x       y       z     vdW  Elec       q    Type
                         _______ _______ _______ _____ _____    ______ ____

>  <TORSDO>
F 6

$$$$
=
 OpenBabel10272414013D

 30 32  0  0  1  0  0  0  0  0999 V2000
  187.2210  177.5400  145.6100 C   0  0  0  0  0  2  0  0  0  0  0  0
  188.2320  177.2960  144.4790 C   0  0  2  0  0  3  0  0  0  0  0  0
  185.0130  180.4420  144.3650 C   0  0  0  0  0  1  0  0  0  0  0  0
  191.6110  177.4860  140.6150 C   0  0  0  0  0  2  0  0  0  0  0  0
  190.9550  177.6930  144.3330 P   0  0  1  0  0  4  0  0  0  0  0  0
  188.5970  176.5380  142.0470 C   0  0  0  0  0  2  0  0  0  0  0  0
  187.2010  179.2660  142.4860 O   0  0  0  0  0  1  0  0  0  0  0  0
  192.3570  179.2190  144.4710 Cl  0  0  0  0  0  0  0  0  0  0  0  0
  189.2840  178.4050  144.4340 C   0  0  0  0  0  2  0  0  0  0  0  0
  189.3700  177.6990  141.4140 C   0  0  2  0  0  3  0  0  0  0  0  0
  190.7530  176.9090  139.6670 O   0  0  0  0  0  0  0  0  0  0  0  0
  186.5910  178.9300  145.5210 C   0  0  0  0  0  2  0  0  0  0  0  0
  185.3080  178.0850  143.4340 C   0  0  2  0  0  3  0  0  0  0  0  0
  185.3090  178.9890  144.6900 C   0  0  2  0  0  3  0  0  0  0  0  0
  186.8220  175.7600  143.3460 O   0  0  0  0  0  1  0  0  0  0  0  0
  186.5960  178.0110  142.6000 C   0  0  2  0  0  3  0  0  0  0  0  0
  187.5650  176.9240  143.1250 C   0  0  1  0  0  0  0  0  0  0  0  0
  189.4890  177.4570  139.9270 C   0  0  0  0  0  2  0  0  0  0  0  0
  191.1390  176.8640  142.8640 O   0  0  0  0  0  0  0  0  0  0  0  0
  190.8180  177.7910  141.8640 C   0  0  1  0  0  3  0  0  0  0  0  0
  191.2010  176.5400  145.7120 C   0  0  0  0  0  2  0  0  0  0  0  0
  191.0620  177.2760  147.0270 C   0  0  0  0  0  2  0  0  0  0  0  0
  189.7620  176.8800  147.6920 C   0  0  0  0  0  2  0  0  0  0  0  0
  189.2450  178.0380  148.5200 C   0  0  0  0  0  1  0  0  0  0  0  0
  184.0170  178.0380  142.5950 C   0  0  1  0  0  3  0  0  0  0  0  0
  182.9140  178.9000  143.2110 C   0  0  0  0  0  3  0  0  0  0  0  0
  182.3400  178.2390  144.2980 O   0  0  0  0  0  1  0  0  0  0  0  0
  181.9240  179.1640  142.2630 O   0  0  0  0  0  1  0  0  0  0  0  0
  183.6770  177.4590  140.2940 O   0  0  0  0  0  1  0  0  0  0  0  0
  184.2490  178.4150  141.1340 C   0  0  0  0  0  2  0  0  0  0  0  0
  2  9  1  6  0  0  0
  2  1  1  0  0  0  0
  5  9  1  0  0  0  0
  5  8  1  1  0  0  0
  5 21  1  0  0  0  0
  6 17  1  0  0  0  0
 10 18  1  6  0  0  0
 10 20  1  0  0  0  0
 10  6  1  0  0  0  0
 11 18  1  0  0  0  0
 11  4  1  0  0  0  0
 12  1  1  0  0  0  0
 13 25  1  6  0  0  0
 13 14  1  0  0  0  0
 14  3  1  6  0  0  0
 14 12  1  0  0  0  0
 16  7  1  1  0  0  0
 16 17  1  0  0  0  0
 16 13  1  0  0  0  0
 17 15  1  1  0  0  0
 17  2  1  0  0  0  0
 19  5  1  0  0  0  0
 20  4  1  6  0  0  0
 20 19  1  0  0  0  0
 21 22  1  0  0  0  0
 22 23  1  0  0  0  0
 23 24  1  0  0  0  0
 25 30  1  6  0  0  0
 25 26  1  0  0  0  0
 26 27  1  0  0  0  0
 28 26  1  0  0  0  0
 29 30  1  0  0  0  0
M  END
>  <MODEL>
3

>  <REMARK>
 VINA RESULT:      -4.4      2.869      6.497
  Name = 
  6 active torsions:
  status: ('A' for Active; 'I' for Inactive)
    1  A    between atoms: C_2  and  C_28
    2  A    between atoms: C_6  and  P_8
    3  A    between atoms: C_6  and  C_21
    4  A    between atoms: C_9  and  C_21
    5  A    between atoms: C_19  and  C_28
    6  A    between atoms: C_28  and  C_29
                            x       y       z     vdW  Elec       q    Type
                         _______ _______ _______ _____ _____    ______ ____

>  <TORSDO>
F 6

$$$$
=
 OpenBabel10272414013D

 30 32  0  0  1  0  0  0  0  0999 V2000
  188.9940  177.3890  136.9770 C   0  0  0  0  0  2  0  0  0  0  0  0
  188.6690  176.0420  136.3150 C   0  0  2  0  0  3  0  0  0  0  0  0
  191.5680  176.5590  139.7210 C   0  0  0  0  0  1  0  0  0  0  0  0
  187.6400  171.1730  135.0410 C   0  0  0  0  0  2  0  0  0  0  0  0
  186.3790  174.5100  136.2950 P   0  0  1  0  0  4  0  0  0  0  0  0
  189.5420  174.0720  134.9080 C   0  0  0  0  0  2  0  0  0  0  0  0
  190.5760  174.3030  137.8160 O   0  0  0  0  0  1  0  0  0  0  0  0
  185.1120  173.5120  137.6040 Cl  0  0  0  0  0  0  0  0  0  0  0  0
  187.7920  175.1810  137.2230 C   0  0  0  0  0  2  0  0  0  0  0  0
  189.1980  172.8390  135.7500 C   0  0  2  0  0  3  0  0  0  0  0  0
  188.8470  170.9630  134.3560 O   0  0  0  0  0  0  0  0  0  0  0  0
  189.6040  177.2100  138.3660 C   0  0  0  0  0  2  0  0  0  0  0  0
  191.7390  176.3350  137.1850 C   0  0  2  0  0  3  0  0  0  0  0  0
  191.1300  177.1120  138.3770 C   0  0  2  0  0  3  0  0  0  0  0  0
  190.4340  176.2200  134.7380 O   0  0  0  0  0  1  0  0  0  0  0  0
  191.0290  175.0520  136.7260 C   0  0  2  0  0  3  0  0  0  0  0  0
  189.9120  175.3450  135.6950 C   0  0  1  0  0  0  0  0  0  0  0  0
  189.8240  171.6200  135.1160 C   0  0  0  0  0  2  0  0  0  0  0  0
  186.9330  173.4460  135.0940 O   0  0  0  0  0  0  0  0  0  0  0  0
  187.7180  172.4970  135.7640 C   0  0  1  0  0  3  0  0  0  0  0  0
  185.4680  175.8740  135.5180 C   0  0  0  0  0  2  0  0  0  0  0  0
  184.4720  176.4510  136.5010 C   0  0  0  0  0  2  0  0  0  0  0  0
  185.1380  177.5400  137.3140 C   0  0  0  0  0  2  0  0  0  0  0  0
  184.1280  178.1480  138.2640 C   0  0  0  0  0  1  0  0  0  0  0  0
  193.2740  176.2660  137.0940 C   0  0  1  0  0  3  0  0  0  0  0  0
  193.8210  174.9980  137.7510 C   0  0  0  0  0  3  0  0  0  0  0  0
  194.8370  175.3240  138.6510 O   0  0  0  0  0  1  0  0  0  0  0  0
  194.3330  174.1360  136.7800 O   0  0  0  0  0  1  0  0  0  0  0  0
  194.9840  177.1170  135.6460 O   0  0  0  0  0  1  0  0  0  0  0  0
  193.7870  176.4000  135.6620 C   0  0  0  0  0  2  0  0  0  0  0  0
  1 12  1  0  0  0  0
  2  1  1  1  0  0  0
  2  9  1  0  0  0  0
  5  9  1  0  0  0  0
  5  8  1  1  0  0  0
  6 17  1  0  0  0  0
 10  6  1  6  0  0  0
 10 20  1  0  0  0  0
 11  4  1  0  0  0  0
 11 18  1  0  0  0  0
 12 14  1  0  0  0  0
 13 25  1  1  0  0  0
 13 14  1  0  0  0  0
 14  3  1  1  0  0  0
 16 13  1  0  0  0  0
 16  7  1  1  0  0  0
 17 15  1  6  0  0  0
 17  2  1  0  0  0  0
 17 16  1  0  0  0  0
 18 10  1  0  0  0  0
 19 20  1  0  0  0  0
 19  5  1  0  0  0  0
 20  4  1  6  0  0  0
 21  5  1  0  0  0  0
 21 22  1  0  0  0  0
 22 23  1  0  0  0  0
 23 24  1  0  0  0  0
 25 30  1  6  0  0  0
 25 26  1  0  0  0  0
 26 27  1  0  0  0  0
 28 26  1  0  0  0  0
 29 30  1  0  0  0  0
M  END
>  <MODEL>
4

>  <REMARK>
 VINA RESULT:      -4.4      5.549      8.271
  Name = 
  6 active torsions:
  status: ('A' for Active; 'I' for Inactive)
    1  A    between atoms: C_2  and  C_28
    2  A    between atoms: C_6  and  P_8
    3  A    between atoms: C_6  and  C_21
    4  A    between atoms: C_9  and  C_21
    5  A    between atoms: C_19  and  C_28
    6  A    between atoms: C_28  and  C_29
                            x       y       z     vdW  Elec       q    Type
                         _______ _______ _______ _____ _____    ______ ____

>  <TORSDO>
F 6

$$$$
=
 OpenBabel10272414013D

 30 32  0  0  1  0  0  0  0  0999 V2000
  190.9640  176.2530  142.0210 C   0  0  0  0  0  2  0  0  0  0  0  0
  189.5580  176.7090  141.6020 C   0  0  2  0  0  3  0  0  0  0  0  0
  192.0270  178.7110  144.7910 C   0  0  0  0  0  1  0  0  0  0  0  0
  185.2290  179.1630  140.3260 C   0  0  0  0  0  2  0  0  0  0  0  0
  188.6110  177.8380  139.2740 P   0  0  1  0  0  4  0  0  0  0  0  0
  187.0970  177.0010  142.2950 C   0  0  0  0  0  2  0  0  0  0  0  0
  189.1660  178.9140  143.5760 O   0  0  0  0  0  1  0  0  0  0  0  0
  188.8780  179.5260  138.0930 Cl  0  0  0  0  0  0  0  0  0  0  0  0
  189.6200  177.9950  140.7790 C   0  0  0  0  0  2  0  0  0  0  0  0
  186.8020  178.4720  141.9860 C   0  0  2  0  0  3  0  0  0  0  0  0
  184.5150  178.7600  141.4640 O   0  0  0  0  0  0  0  0  0  0  0  0
  191.7320  177.3600  142.7400 C   0  0  0  0  0  2  0  0  0  0  0  0
  190.1220  177.0140  144.7410 C   0  0  2  0  0  3  0  0  0  0  0  0
  191.5470  177.3720  144.2580 C   0  0  2  0  0  3  0  0  0  0  0  0
  188.4740  175.3680  143.2320 O   0  0  0  0  0  1  0  0  0  0  0  0
  188.9320  177.5890  143.9580 C   0  0  2  0  0  3  0  0  0  0  0  0
  188.5300  176.6850  142.7670 C   0  0  1  0  0  0  0  0  0  0  0  0
  185.4330  178.8220  142.5210 C   0  0  0  0  0  2  0  0  0  0  0  0
  186.9750  177.6730  139.6930 O   0  0  0  0  0  0  0  0  0  0  0  0
  186.6790  178.7770  140.5030 C   0  0  1  0  0  3  0  0  0  0  0  0
  189.1460  176.3760  138.3410 C   0  0  0  0  0  2  0  0  0  0  0  0
  190.6290  176.4660  138.0530 C   0  0  0  0  0  2  0  0  0  0  0  0
  190.8610  176.3400  136.5630 C   0  0  0  0  0  2  0  0  0  0  0  0
  189.6080  175.8090  135.8990 C   0  0  0  0  0  1  0  0  0  0  0  0
  189.8880  176.9320  146.2610 C   0  0  1  0  0  3  0  0  0  0  0  0
  191.2080  176.9130  147.0330 C   0  0  0  0  0  3  0  0  0  0  0  0
  191.5640  175.5990  147.3420 O   0  0  0  0  0  1  0  0  0  0  0  0
  191.0820  177.6420  148.2170 O   0  0  0  0  0  1  0  0  0  0  0  0
  187.8210  177.4850  147.3410 O   0  0  0  0  0  1  0  0  0  0  0  0
  188.9720  178.0380  146.7780 C   0  0  0  0  0  2  0  0  0  0  0  0
  1 12  1  0  0  0  0
  2  9  1  1  0  0  0
  2  1  1  0  0  0  0
  2 17  1  0  0  0  0
  4 11  1  0  0  0  0
  5  8  1  6  0  0  0
  5 19  1  0  0  0  0
  5  9  1  0  0  0  0
  6 17  1  0  0  0  0
 10  6  1  6  0  0  0
 10 18  1  0  0  0  0
 11 18  1  0  0  0  0
 12 14  1  0  0  0  0
 13 25  1  1  0  0  0
 14 13  1  0  0  0  0
 14  3  1  6  0  0  0
 16  7  1  6  0  0  0
 16 13  1  0  0  0  0
 17 15  1  1  0  0  0
 17 16  1  0  0  0  0
 19 20  1  0  0  0  0
 20  4  1  1  0  0  0
 20 10  1  0  0  0  0
 21  5  1  0  0  0  0
 22 21  1  0  0  0  0
 23 22  1  0  0  0  0
 24 23  1  0  0  0  0
 25 30  1  1  0  0  0
 25 26  1  0  0  0  0
 26 27  1  0  0  0  0
 26 28  1  0  0  0  0
 30 29  1  0  0  0  0
M  END
>  <MODEL>
5

>  <REMARK>
 VINA RESULT:      -4.3      0.683      1.660
  Name = 
  6 active torsions:
  status: ('A' for Active; 'I' for Inactive)
    1  A    between atoms: C_2  and  C_28
    2  A    between atoms: C_6  and  P_8
    3  A    between atoms: C_6  and  C_21
    4  A    between atoms: C_9  and  C_21
    5  A    between atoms: C_19  and  C_28
    6  A    between atoms: C_28  and  C_29
                            x       y       z     vdW  Elec       q    Type
                         _______ _______ _______ _____ _____    ______ ____

>  <TORSDO>
F 6

$$$$
=
 OpenBabel10272414013D

 30 32  0  0  1  0  0  0  0  0999 V2000
  182.3490  174.9270  136.2370 C   0  0  0  0  0  2  0  0  0  0  0  0
  183.8220  175.3450  136.1180 C   0  0  2  0  0  3  0  0  0  0  0  0
  181.1960  176.2960  139.6490 C   0  0  0  0  0  1  0  0  0  0  0  0
  188.7870  176.5280  136.7060 C   0  0  0  0  0  2  0  0  0  0  0  0
  186.1540  173.8760  136.1240 P   0  0  1  0  0  4  0  0  0  0  0  0
  185.4960  177.2880  135.9110 C   0  0  0  0  0  2  0  0  0  0  0  0
  184.0720  176.9310  138.6350 O   0  0  0  0  0  1  0  0  0  0  0  0
  187.2240  172.5810  137.3460 Cl  0  0  0  0  0  0  0  0  0  0  0  0
  184.7090  174.5010  137.0350 C   0  0  0  0  0  2  0  0  0  0  0  0
  186.4820  177.0470  137.0580 C   0  0  2  0  0  3  0  0  0  0  0  0
  188.6140  177.9060  136.5050 O   0  0  0  0  0  0  0  0  0  0  0  0
  181.8660  174.9490  137.6870 C   0  0  0  0  0  2  0  0  0  0  0  0
  181.9830  177.5350  137.5620 C   0  0  2  0  0  3  0  0  0  0  0  0
  181.2710  176.2850  138.1330 C   0  0  2  0  0  3  0  0  0  0  0  0
  183.3060  177.4360  135.1240 O   0  0  0  0  0  1  0  0  0  0  0  0
  183.5170  177.5200  137.4940 C   0  0  2  0  0  3  0  0  0  0  0  0
  184.0340  176.8830  136.1810 C   0  0  1  0  0  0  0  0  0  0  0  0
  187.4170  178.2290  137.1600 C   0  0  0  0  0  2  0  0  0  0  0  0
  187.1380  175.1740  135.6470 O   0  0  0  0  0  0  0  0  0  0  0  0
  187.4270  175.8810  136.8230 C   0  0  1  0  0  3  0  0  0  0  0  0
  185.5940  172.9720  134.6540 C   0  0  0  0  0  2  0  0  0  0  0  0
  185.2200  171.5560  135.0340 C   0  0  0  0  0  2  0  0  0  0  0  0
  183.7170  171.4490  135.1670 C   0  0  0  0  0  2  0  0  0  0  0  0
  183.3600  171.0950  136.5960 C   0  0  0  0  0  1  0  0  0  0  0  0
  181.3860  178.9110  137.9100 C   0  0  1  0  0  3  0  0  0  0  0  0
  182.3440  179.7390  138.7670 C   0  0  0  0  0  3  0  0  0  0  0  0
  182.0710  179.5380  140.1220 O   0  0  0  0  0  1  0  0  0  0  0  0
  182.2040  181.0960  138.4710 O   0  0  0  0  0  1  0  0  0  0  0  0
  180.3510  178.8370  135.7500 O   0  0  0  0  0  1  0  0  0  0  0  0
  180.9480  179.6940  136.6750 C   0  0  0  0  0  2  0  0  0  0  0  0
  1 12  1  0  0  0  0
  2 17  1  0  0  0  0
  2  1  1  1  0  0  0
  2  9  1  0  0  0  0
  5  9  1  0  0  0  0
  5  8  1  1  0  0  0
  6 17  1  0  0  0  0
 10  6  1  6  0  0  0
 10 18  1  0  0  0  0
 11  4  1  0  0  0  0
 11 18  1  0  0  0  0
 12 14  1  0  0  0  0
 13 25  1  1  0  0  0
 13 14  1  0  0  0  0
 14  3  1  1  0  0  0
 16 13  1  0  0  0  0
 16  7  1  1  0  0  0
 17 15  1  6  0  0  0
 17 16  1  0  0  0  0
 19  5  1  0  0  0  0
 19 20  1  0  0  0  0
 20  4  1  6  0  0  0
 20 10  1  0  0  0  0
 21 22  1  0  0  0  0
 21  5  1  0  0  0  0
 22 23  1  0  0  0  0
 23 24  1  0  0  0  0
 25 30  1  6  0  0  0
 25 26  1  0  0  0  0
 26 27  1  0  0  0  0
 28 26  1  0  0  0  0
 29 30  1  0  0  0  0
M  END
>  <MODEL>
6

>  <REMARK>
 VINA RESULT:      -4.2      6.537      9.222
  Name = 
  6 active torsions:
  status: ('A' for Active; 'I' for Inactive)
    1  A    between atoms: C_2  and  C_28
    2  A    between atoms: C_6  and  P_8
    3  A    between atoms: C_6  and  C_21
    4  A    between atoms: C_9  and  C_21
    5  A    between atoms: C_19  and  C_28
    6  A    between atoms: C_28  and  C_29
                            x       y       z     vdW  Elec       q    Type
                         _______ _______ _______ _____ _____    ______ ____

>  <TORSDO>
F 6

$$$$
=
 OpenBabel10272414013D

 30 32  0  0  1  0  0  0  0  0999 V2000
  185.7790  175.9900  137.3330 C   0  0  0  0  0  2  0  0  0  0  0  0
  186.7850  174.8930  136.9530 C   0  0  2  0  0  3  0  0  0  0  0  0
  183.1680  175.9760  134.4990 C   0  0  0  0  0  1  0  0  0  0  0  0
  190.0110  171.5640  134.7390 C   0  0  0  0  0  2  0  0  0  0  0  0
  189.4250  175.0150  136.1720 P   0  0  1  0  0  4  0  0  0  0  0  0
  187.1890  172.3790  136.5850 C   0  0  0  0  0  2  0  0  0  0  0  0
  185.4490  173.8540  134.4940 O   0  0  0  0  0  1  0  0  0  0  0  0
  190.6110  175.8150  134.6660 Cl  0  0  0  0  0  0  0  0  0  0  0  0
  187.6760  175.3440  135.7950 C   0  0  0  0  0  2  0  0  0  0  0  0
  187.7830  172.3050  135.1750 C   0  0  2  0  0  3  0  0  0  0  0  0
  189.2160  170.4350  134.9830 O   0  0  0  0  0  0  0  0  0  0  0  0
  184.9650  176.4600  136.1290 C   0  0  0  0  0  2  0  0  0  0  0  0
  183.7560  174.1680  136.2010 C   0  0  2  0  0  3  0  0  0  0  0  0
  183.6660  175.6840  135.9040 C   0  0  2  0  0  3  0  0  0  0  0  0
  185.5690  173.1820  138.0580 O   0  0  0  0  0  1  0  0  0  0  0  0
  185.0220  173.4210  135.7530 C   0  0  2  0  0  3  0  0  0  0  0  0
  186.1420  173.4850  136.8200 C   0  0  1  0  0  0  0  0  0  0  0  0
  187.8970  170.8560  134.7650 C   0  0  0  0  0  2  0  0  0  0  0  0
  189.6830  173.3420  136.2900 O   0  0  0  0  0  0  0  0  0  0  0  0
  189.2150  172.8020  135.0840 C   0  0  1  0  0  3  0  0  0  0  0  0
  189.8590  175.8050  137.7470 C   0  0  0  0  0  2  0  0  0  0  0  0
  190.1330  177.2760  137.5240 C   0  0  0  0  0  2  0  0  0  0  0  0
  188.9960  178.0940  138.0970 C   0  0  0  0  0  2  0  0  0  0  0  0
  188.2640  178.7970  136.9730 C   0  0  0  0  0  1  0  0  0  0  0  0
  182.4640  173.3420  136.0700 C   0  0  1  0  0  3  0  0  0  0  0  0
  182.7550  171.8410  136.0400 C   0  0  0  0  0  3  0  0  0  0  0  0
  181.8040  171.1820  135.2590 O   0  0  0  0  0  1  0  0  0  0  0  0
  182.7210  171.3190  137.3350 O   0  0  0  0  0  1  0  0  0  0  0  0
  180.3660  174.3750  136.5950 O   0  0  0  0  0  1  0  0  0  0  0  0
  181.4380  173.6750  137.1500 C   0  0  0  0  0  2  0  0  0  0  0  0
  2  9  1  6  0  0  0
  2  1  1  0  0  0  0
  4 11  1  0  0  0  0
  5  8  1  6  0  0  0
  5 19  1  0  0  0  0
  5 21  1  0  0  0  0
  6 17  1  0  0  0  0
  9  5  1  0  0  0  0
 10 18  1  1  0  0  0
 10  6  1  0  0  0  0
 12  1  1  0  0  0  0
 13 25  1  6  0  0  0
 14  3  1  6  0  0  0
 14 12  1  0  0  0  0
 14 13  1  0  0  0  0
 16  7  1  6  0  0  0
 16 13  1  0  0  0  0
 16 17  1  0  0  0  0
 17  2  1  0  0  0  0
 17 15  1  1  0  0  0
 18 11  1  0  0  0  0
 20  4  1  1  0  0  0
 20 10  1  0  0  0  0
 20 19  1  0  0  0  0
 22 21  1  0  0  0  0
 22 23  1  0  0  0  0
 24 23  1  0  0  0  0
 25 30  1  1  0  0  0
 26 25  1  0  0  0  0
 26 28  1  0  0  0  0
 27 26  1  0  0  0  0
 29 30  1  0  0  0  0
M  END
>  <MODEL>
7

>  <REMARK>
 VINA RESULT:      -3.9      6.221      9.671
  Name = 
  6 active torsions:
  status: ('A' for Active; 'I' for Inactive)
    1  A    between atoms: C_2  and  C_28
    2  A    between atoms: C_6  and  P_8
    3  A    between atoms: C_6  and  C_21
    4  A    between atoms: C_9  and  C_21
    5  A    between atoms: C_19  and  C_28
    6  A    between atoms: C_28  and  C_29
                            x       y       z     vdW  Elec       q    Type
                         _______ _______ _______ _____ _____    ______ ____

>  <TORSDO>
F 6

$$$$
=
 OpenBabel10272414013D

 30 32  0  0  1  0  0  0  0  0999 V2000
  185.8310  175.2710  135.1160 C   0  0  0  0  0  2  0  0  0  0  0  0
  185.4180  176.3420  136.1380 C   0  0  2  0  0  3  0  0  0  0  0  0
  184.6890  171.9290  136.6570 C   0  0  0  0  0  1  0  0  0  0  0  0
  184.3170  179.2360  140.2370 C   0  0  0  0  0  2  0  0  0  0  0  0
  186.9020  177.9890  137.7740 P   0  0  1  0  0  4  0  0  0  0  0  0
  183.4780  177.5450  137.3260 C   0  0  0  0  0  2  0  0  0  0  0  0
  184.0100  174.5990  138.1100 O   0  0  0  0  0  1  0  0  0  0  0  0
  188.2860  177.8810  139.3190 Cl  0  0  0  0  0  0  0  0  0  0  0  0
  186.3290  176.3120  137.3640 C   0  0  0  0  0  2  0  0  0  0  0  0
  183.8050  177.3870  138.8140 C   0  0  2  0  0  3  0  0  0  0  0  0
  182.9280  179.2030  140.0460 O   0  0  0  0  0  0  0  0  0  0  0  0
  185.9050  173.8810  135.7460 C   0  0  0  0  0  2  0  0  0  0  0  0
  183.3170  173.9360  135.8830 C   0  0  2  0  0  3  0  0  0  0  0  0
  184.5970  173.0900  135.6830 C   0  0  2  0  0  3  0  0  0  0  0  0
  183.2590  176.6240  135.1940 O   0  0  0  0  0  1  0  0  0  0  0  0
  183.3400  175.0300  136.9610 C   0  0  2  0  0  3  0  0  0  0  0  0
  183.8890  176.3710  136.4160 C   0  0  1  0  0  0  0  0  0  0  0  0
  182.6410  177.8960  139.6300 C   0  0  0  0  0  2  0  0  0  0  0  0
  185.5830  178.9490  138.2400 O   0  0  0  0  0  0  0  0  0  0  0  0
  184.9600  178.2540  139.2850 C   0  0  1  0  0  3  0  0  0  0  0  0
  187.6990  178.7240  136.3180 C   0  0  0  0  0  2  0  0  0  0  0  0
  189.1360  178.2580  136.2300 C   0  0  0  0  0  2  0  0  0  0  0  0
  189.2450  177.1520  135.2030 C   0  0  0  0  0  2  0  0  0  0  0  0
  189.8010  175.9060  135.8590 C   0  0  0  0  0  1  0  0  0  0  0  0
  181.9630  173.2140  135.7540 C   0  0  1  0  0  3  0  0  0  0  0  0
  181.5120  172.6210  137.0890 C   0  0  0  0  0  3  0  0  0  0  0  0
  180.9950  171.3390  136.8940 O   0  0  0  0  0  1  0  0  0  0  0  0
  180.5270  173.4270  137.6640 O   0  0  0  0  0  1  0  0  0  0  0  0
  180.0280  173.3490  134.3460 O   0  0  0  0  0  1  0  0  0  0  0  0
  180.8740  174.1040  135.1590 C   0  0  0  0  0  2  0  0  0  0  0  0
  1 12  1  0  0  0  0
  2  1  1  6  0  0  0
  2 17  1  0  0  0  0
  2  9  1  0  0  0  0
  5 19  1  0  0  0  0
  5  8  1  1  0  0  0
  9  5  1  0  0  0  0
 10  6  1  6  0  0  0
 10 20  1  0  0  0  0
 10 18  1  0  0  0  0
 11  4  1  0  0  0  0
 13 25  1  1  0  0  0
 13 16  1  0  0  0  0
 14 12  1  0  0  0  0
 14 13  1  0  0  0  0
 14  3  1  1  0  0  0
 16  7  1  1  0  0  0
 17 15  1  6  0  0  0
 17 16  1  0  0  0  0
 17  6  1  0  0  0  0
 18 11  1  0  0  0  0
 19 20  1  0  0  0  0
 20  4  1  1  0  0  0
 21  5  1  0  0  0  0
 22 21  1  0  0  0  0
 23 24  1  0  0  0  0
 23 22  1  0  0  0  0
 25 30  1  1  0  0  0
 25 26  1  0  0  0  0
 26 28  1  0  0  0  0
 27 26  1  0  0  0  0
 29 30  1  0  0  0  0
M  END
>  <MODEL>
8

>  <REMARK>
 VINA RESULT:      -3.9      5.958      8.941
  Name = 
  6 active torsions:
  status: ('A' for Active; 'I' for Inactive)
    1  A    between atoms: C_2  and  C_28
    2  A    between atoms: C_6  and  P_8
    3  A    between atoms: C_6  and  C_21
    4  A    between atoms: C_9  and  C_21
    5  A    between atoms: C_19  and  C_28
    6  A    between atoms: C_28  and  C_29
                            x       y       z     vdW  Elec       q    Type
                         _______ _______ _______ _____ _____    ______ ____

>  <TORSDO>
F 6

$$$$
=
 OpenBabel10272414013D

 30 32  0  0  1  0  0  0  0  0999 V2000
  189.6310  175.8040  134.3650 C   0  0  0  0  0  2  0  0  0  0  0  0
  190.4560  176.2710  135.5740 C   0  0  2  0  0  3  0  0  0  0  0  0
  186.8430  173.5980  135.8520 C   0  0  0  0  0  1  0  0  0  0  0  0
  193.0540  176.8970  139.9610 C   0  0  0  0  0  2  0  0  0  0  0  0
  193.0260  175.6870  136.3780 P   0  0  1  0  0  4  0  0  0  0  0  0
  190.5020  177.6610  137.7380 C   0  0  0  0  0  2  0  0  0  0  0  0
  188.8220  175.0620  137.7600 O   0  0  0  0  0  1  0  0  0  0  0  0
  194.1940  174.0650  136.9440 Cl  0  0  0  0  0  0  0  0  0  0  0  0
  191.3120  175.1320  136.1270 C   0  0  0  0  0  2  0  0  0  0  0  0
  190.9770  176.6680  138.8030 C   0  0  2  0  0  3  0  0  0  0  0  0
  192.1380  177.7980  140.5240 O   0  0  0  0  0  0  0  0  0  0  0  0
  188.8000  174.5620  134.6870 C   0  0  0  0  0  2  0  0  0  0  0  0
  187.3120  176.0870  136.1640 C   0  0  2  0  0  3  0  0  0  0  0  0
  187.3990  174.8630  135.2210 C   0  0  2  0  0  3  0  0  0  0  0  0
  189.1100  178.1900  135.9430 O   0  0  0  0  0  1  0  0  0  0  0  0
  188.4340  176.2810  137.1950 C   0  0  2  0  0  3  0  0  0  0  0  0
  189.6270  177.0770  136.6120 C   0  0  1  0  0  0  0  0  0  0  0  0
  190.8720  177.3160  140.1630 C   0  0  0  0  0  2  0  0  0  0  0  0
  193.0720  176.8840  137.5800 O   0  0  0  0  0  0  0  0  0  0  0  0
  192.4520  176.3180  138.7020 C   0  0  1  0  0  3  0  0  0  0  0  0
  193.6720  176.3660  134.8250 C   0  0  0  0  0  2  0  0  0  0  0  0
  195.0430  176.9620  135.0570 C   0  0  0  0  0  2  0  0  0  0  0  0
  196.0930  176.0760  134.4240 C   0  0  0  0  0  2  0  0  0  0  0  0
  197.1840  175.7850  135.4330 C   0  0  0  0  0  1  0  0  0  0  0  0
  185.9170  176.4900  136.6750 C   0  0  1  0  0  3  0  0  0  0  0  0
  186.0060  177.5310  137.7910 C   0  0  0  0  0  3  0  0  0  0  0  0
  184.7750  177.6460  138.4390 O   0  0  0  0  0  1  0  0  0  0  0  0
  186.3600  178.7740  137.2620 O   0  0  0  0  0  1  0  0  0  0  0  0
  184.1820  175.9230  135.1220 O   0  0  0  0  0  1  0  0  0  0  0  0
  184.9950  176.9700  135.5570 C   0  0  0  0  0  2  0  0  0  0  0  0
  1 12  1  0  0  0  0
  2  1  1  6  0  0  0
  2  9  1  0  0  0  0
  2 17  1  0  0  0  0
  4 11  1  0  0  0  0
  5  8  1  1  0  0  0
  5 19  1  0  0  0  0
  9  5  1  0  0  0  0
 10  6  1  6  0  0  0
 10 18  1  0  0  0  0
 12 14  1  0  0  0  0
 13 25  1  1  0  0  0
 13 16  1  0  0  0  0
 14  3  1  1  0  0  0
 14 13  1  0  0  0  0
 16  7  1  6  0  0  0
 17 15  1  6  0  0  0
 17 16  1  0  0  0  0
 17  6  1  0  0  0  0
 18 11  1  0  0  0  0
 19 20  1  0  0  0  0
 20 10  1  0  0  0  0
 20  4  1  1  0  0  0
 21 22  1  0  0  0  0
 21  5  1  0  0  0  0
 23 22  1  0  0  0  0
 23 24  1  0  0  0  0
 25 30  1  6  0  0  0
 25 26  1  0  0  0  0
 26 27  1  0  0  0  0
 28 26  1  0  0  0  0
 29 30  1  0  0  0  0
M  END
>  <MODEL>
9

>  <REMARK>
 VINA RESULT:      -3.9      4.548      8.117
  Name = 
  6 active torsions:
  status: ('A' for Active; 'I' for Inactive)
    1  A    between atoms: C_2  and  C_28
    2  A    between atoms: C_6  and  P_8
    3  A    between atoms: C_6  and  C_21
    4  A    between atoms: C_9  and  C_21
    5  A    between atoms: C_19  and  C_28
    6  A    between atoms: C_28  and  C_29
                            x       y       z     vdW  Elec       q    Type
                         _______ _______ _______ _____ _____    ______ ____

>  <TORSDO>
F 6

$$$$
