=
 OpenBabel10272415043D

 37 40  0  0  1  0  0  0  0  0999 V2000
  184.8510  177.5500  136.0660 C   0  0  2  0  0  3  0  0  0  0  0  0
  187.0050  175.0550  134.4900 C   0  0  0  0  0  1  0  0  0  0  0  0
  184.2880  177.8940  138.6410 C   0  0  2  0  0  3  0  0  0  0  0  0
  186.2100  177.1490  135.5600 C   0  0  2  0  0  3  0  0  0  0  0  0
  185.1230  178.2830  137.3990 C   0  0  1  0  0  3  0  0  0  0  0  0
  186.3490  175.6180  135.7400 C   0  0  1  0  0  0  0  0  0  0  0  0
  183.9140  176.4130  138.6200 C   0  0  0  0  0  2  0  0  0  0  0  0
  186.5790  178.4670  137.6040 N   0  0  2  0  0  0  0  0  0  0  0  0
  182.5850  174.8310  137.4220 O   0  0  0  0  0  1  0  0  0  0  0  0
  183.1320  176.1100  137.3540 C   0  0  2  0  0  3  0  0  0  0  0  0
  184.0080  176.2740  136.1050 C   0  0  2  0  0  3  0  0  0  0  0  0
  187.1720  178.0740  136.3110 C   0  0  1  0  0  3  0  0  0  0  0  0
  184.9280  175.0930  135.8320 C   0  0  0  0  0  2  0  0  0  0  0  0
  182.3580  178.4820  140.1400 C   0  0  0  0  0  1  0  0  0  0  0  0
  183.0610  178.7980  138.8250 C   0  0  0  0  0  3  0  0  0  0  0  0
  183.4590  180.2650  138.8460 C   0  0  0  0  0  1  0  0  0  0  0  0
  186.8850  178.3090  139.9380 O   0  0  0  0  0  0  0  0  0  0  0  0
  188.1860  178.3760  139.4120 C   0  0  2  0  0  3  0  0  0  0  0  0
  187.0980  177.6460  138.7060 C   0  0  2  0  0  3  0  0  0  0  0  0
  189.1460  177.4400  140.1770 C   0  0  1  0  0  3  0  0  0  0  0  0
  190.4670  177.3290  139.4170 C   0  0  0  0  0  1  0  0  0  0  0  0
  189.3430  177.6950  141.6860 C   0  0  2  0  0  3  0  0  0  0  0  0
  190.8060  177.5970  142.1000 C   0  0  0  0  0  1  0  0  0  0  0  0
  188.5080  176.7100  142.4940 C   0  0  0  0  0  2  0  0  0  0  0  0
  187.4280  177.4090  143.3140 C   0  0  0  0  0  2  0  0  0  0  0  0
  187.6880  177.2720  144.8050 C   0  0  0  0  0  1  0  0  0  0  0  0
  187.1330  175.1930  136.9970 C   0  0  0  0  0  2  0  0  0  0  0  0
  188.2150  174.1480  136.7340 C   0  0  1  0  0  3  0  0  0  0  0  0
  189.3890  174.4580  137.5370 N   0  0  0  0  0  2  0  0  0  0  0  0
  191.6880  174.3180  137.8600 O   0  0  0  0  0  0  0  0  0  0  0  0
  190.9570  173.9280  135.6950 N   0  0  0  0  0  1  0  0  0  0  0  0
  190.7200  174.2390  137.0630 C   0  0  0  0  0  0  0  0  0  0  0  0
  187.6230  172.5020  137.1760 S   0  0  0  0  0  3  0  0  0  0  0  0
  186.3330  172.7840  137.9320 O   0  0  0  0  0  0  0  0  0  0  0  0
  188.6610  177.7180  136.3050 C   0  0  0  0  0  2  0  0  0  0  0  0
  189.1890  177.7130  134.9090 C   0  0  0  0  0  3  0  0  0  0  0  0
  190.1840  177.0590  134.6230 O   0  0  0  0  0  0  0  0  0  0  0  0
  1 11  1  0  0  0  0
  1  5  1  0  0  0  0
  2  6  1  0  0  0  0
  3 15  1  0  0  0  0
  4  6  1  0  0  0  0
  4  1  1  0  0  0  0
  4 12  1  0  0  0  0
  5  8  1  0  0  0  0
  5  3  1  0  0  0  0
  6 13  1  0  0  0  0
  6 27  1  0  0  0  0
  7  3  1  0  0  0  0
  8 19  1  0  0  0  0
 10  9  1  0  0  0  0
 10  7  1  0  0  0  0
 11 10  1  0  0  0  0
 12  8  1  0  0  0  0
 13 11  1  0  0  0  0
 15 16  1  0  0  0  0
 15 14  1  0  0  0  0
 18 17  1  0  0  0  0
 18 20  1  0  0  0  0
 19 18  1  0  0  0  0
 19 17  1  0  0  0  0
 20 22  1  0  0  0  0
 21 20  1  0  0  0  0
 22 23  1  0  0  0  0
 22 24  1  0  0  0  0
 24 25  1  0  0  0  0
 25 26  1  0  0  0  0
 28 27  1  0  0  0  0
 28 33  1  0  0  0  0
 28 29  1  0  0  0  0
 31 32  1  0  0  0  0
 32 29  1  0  0  0  0
 32 30  2  0  0  0  0
 33 34  2  0  0  0  0
 35 12  1  0  0  0  0
 36 35  1  0  0  0  0
 37 36  2  0  0  0  0
M  END
>  <MODEL>
1

>  <REMARK>
 VINA RESULT:      -5.2      0.000      0.000
  Name = 
  12 active torsions:
  status: ('A' for Active; 'I' for Inactive)
    1  A    between atoms: C_1  and  C_5
    2  A    between atoms: C_1  and  C_23
    3  A    between atoms: S_2  and  C_6
    4  A    between atoms: C_5  and  C_26
    5  A    between atoms: C_6  and  N_8
    6  A    between atoms: C_6  and  C_31
    7  A    between atoms: C_9  and  C_30
    8  A    between atoms: C_11  and  C_26
    9  A    between atoms: C_14  and  C_31
   10  A    between atoms: N_20  and  C_25
   11  A    between atoms: C_27  and  C_33
   12  A    between atoms: C_29  and  C_33
                            x       y       z     vdW  Elec       q    Type
                         _______ _______ _______ _____ _____    ______ ____

>  <TORSDO>
F 12

$$$$
=
 OpenBabel10272415043D

 37 40  0  0  1  0  0  0  0  0999 V2000
  184.4570  177.6560  136.5310 C   0  0  2  0  0  3  0  0  0  0  0  0
  186.6530  175.3480  134.7410 C   0  0  0  0  0  1  0  0  0  0  0  0
  183.8940  177.7640  139.1260 C   0  0  2  0  0  3  0  0  0  0  0  0
  185.8220  177.3260  135.9900 C   0  0  2  0  0  3  0  0  0  0  0  0
  184.7190  178.2760  137.9220 C   0  0  1  0  0  3  0  0  0  0  0  0
  185.9900  175.7890  136.0370 C   0  0  1  0  0  0  0  0  0  0  0  0
  183.5480  176.2840  138.9780 C   0  0  0  0  0  2  0  0  0  0  0  0
  186.1710  178.4690  138.1410 N   0  0  2  0  0  0  0  0  0  0  0  0
  182.2450  174.7870  137.6470 O   0  0  0  0  0  1  0  0  0  0  0  0
  182.7690  176.0770  137.6910 C   0  0  2  0  0  3  0  0  0  0  0  0
  183.6380  176.3660  136.4600 C   0  0  2  0  0  3  0  0  0  0  0  0
  186.7680  178.2000  136.8180 C   0  0  1  0  0  3  0  0  0  0  0  0
  184.5790  175.2300  136.0840 C   0  0  0  0  0  2  0  0  0  0  0  0
  182.3270  178.6530  140.8790 C   0  0  0  0  0  1  0  0  0  0  0  0
  182.6510  178.6260  139.3890 C   0  0  0  0  0  3  0  0  0  0  0  0
  182.8690  180.0580  138.9300 C   0  0  0  0  0  1  0  0  0  0  0  0
  186.5000  178.1220  140.4510 O   0  0  0  0  0  0  0  0  0  0  0  0
  187.7960  178.2450  139.9220 C   0  0  2  0  0  3  0  0  0  0  0  0
  186.7080  177.5650  139.1660 C   0  0  2  0  0  3  0  0  0  0  0  0
  188.7720  177.2600  140.5990 C   0  0  1  0  0  3  0  0  0  0  0  0
  190.1820  177.4790  140.0520 C   0  0  0  0  0  1  0  0  0  0  0  0
  188.7350  177.1600  142.1370 C   0  0  2  0  0  3  0  0  0  0  0  0
  189.1120  178.4740  142.8090 C   0  0  0  0  0  1  0  0  0  0  0  0
  189.6650  176.0510  142.6100 C   0  0  0  0  0  2  0  0  0  0  0  0
  190.5040  176.4760  143.8120 C   0  0  0  0  0  2  0  0  0  0  0  0
  191.7830  175.6630  143.9110 C   0  0  0  0  0  1  0  0  0  0  0  0
  186.7860  175.2710  137.2510 C   0  0  0  0  0  2  0  0  0  0  0  0
  187.8740  174.2600  136.8990 C   0  0  1  0  0  3  0  0  0  0  0  0
  189.0520  174.5180  137.7130 N   0  0  0  0  0  2  0  0  0  0  0  0
  191.3680  174.5570  137.9300 O   0  0  0  0  0  0  0  0  0  0  0  0
  190.5670  174.5480  135.7550 N   0  0  0  0  0  1  0  0  0  0  0  0
  190.3720  174.5420  137.1640 C   0  0  0  0  0  0  0  0  0  0  0  0
  187.3010  172.5790  137.2180 S   0  0  0  0  0  3  0  0  0  0  0  0
  185.9830  172.7890  137.9470 O   0  0  0  0  0  0  0  0  0  0  0  0
  188.2630  177.8750  136.7790 C   0  0  0  0  0  2  0  0  0  0  0  0
  189.0660  179.1260  136.6510 C   0  0  0  0  0  3  0  0  0  0  0  0
  189.1400  179.9170  137.5830 O   0  0  0  0  0  0  0  0  0  0  0  0
  1  5  1  0  0  0  0
  2  6  1  0  0  0  0
  3 15  1  0  0  0  0
  4  6  1  0  0  0  0
  4  1  1  0  0  0  0
  4 12  1  0  0  0  0
  5  8  1  0  0  0  0
  5  3  1  0  0  0  0
  6 13  1  0  0  0  0
  6 27  1  0  0  0  0
  7  3  1  0  0  0  0
  8 19  1  0  0  0  0
  9 10  1  0  0  0  0
 10  7  1  0  0  0  0
 11  1  1  0  0  0  0
 11 10  1  0  0  0  0
 12  8  1  0  0  0  0
 13 11  1  0  0  0  0
 15 14  1  0  0  0  0
 16 15  1  0  0  0  0
 18 17  1  0  0  0  0
 18 20  1  0  0  0  0
 19 18  1  0  0  0  0
 19 17  1  0  0  0  0
 20 22  1  0  0  0  0
 21 20  1  0  0  0  0
 22 24  1  0  0  0  0
 22 23  1  0  0  0  0
 24 25  1  0  0  0  0
 25 26  1  0  0  0  0
 28 33  1  0  0  0  0
 28 27  1  0  0  0  0
 28 29  1  0  0  0  0
 31 32  1  0  0  0  0
 32 29  1  0  0  0  0
 32 30  2  0  0  0  0
 33 34  2  0  0  0  0
 35 12  1  0  0  0  0
 36 35  1  0  0  0  0
 36 37  2  0  0  0  0
M  END
>  <MODEL>
2

>  <REMARK>
 VINA RESULT:      -4.6      1.139      1.380
  Name = 
  12 active torsions:
  status: ('A' for Active; 'I' for Inactive)
    1  A    between atoms: C_1  and  C_5
    2  A    between atoms: C_1  and  C_23
    3  A    between atoms: S_2  and  C_6
    4  A    between atoms: C_5  and  C_26
    5  A    between atoms: C_6  and  N_8
    6  A    between atoms: C_6  and  C_31
    7  A    between atoms: C_9  and  C_30
    8  A    between atoms: C_11  and  C_26
    9  A    between atoms: C_14  and  C_31
   10  A    between atoms: N_20  and  C_25
   11  A    between atoms: C_27  and  C_33
   12  A    between atoms: C_29  and  C_33
                            x       y       z     vdW  Elec       q    Type
                         _______ _______ _______ _____ _____    ______ ____

>  <TORSDO>
F 12

$$$$
=
 OpenBabel10272415043D

 37 40  0  0  1  0  0  0  0  0999 V2000
  190.0230  176.3590  135.2560 C   0  0  2  0  0  3  0  0  0  0  0  0
  188.9360  179.2840  137.1580 C   0  0  0  0  0  1  0  0  0  0  0  0
  189.7220  173.7810  135.8270 C   0  0  2  0  0  3  0  0  0  0  0  0
  188.9750  177.4010  135.5410 C   0  0  2  0  0  3  0  0  0  0  0  0
  189.2360  175.0420  135.0740 C   0  0  1  0  0  3  0  0  0  0  0  0
  189.0740  177.7750  137.0390 C   0  0  1  0  0  0  0  0  0  0  0  0
  190.3520  174.1400  137.1700 C   0  0  0  0  0  2  0  0  0  0  0  0
  187.7770  175.3020  135.0780 N   0  0  2  0  0  0  0  0  0  0  0  0
  192.2460  175.2450  138.1170 O   0  0  0  0  0  1  0  0  0  0  0  0
  191.5160  175.0870  136.9410 C   0  0  2  0  0  3  0  0  0  0  0  0
  191.0370  176.4400  136.3990 C   0  0  2  0  0  3  0  0  0  0  0  0
  187.6790  176.7730  135.0190 C   0  0  1  0  0  3  0  0  0  0  0  0
  190.4750  177.3720  137.4630 C   0  0  0  0  0  2  0  0  0  0  0  0
  191.7800  172.3390  135.8130 C   0  0  0  0  0  1  0  0  0  0  0  0
  190.6480  172.9100  134.9670 C   0  0  0  0  0  3  0  0  0  0  0  0
  189.8900  171.7460  134.3480 C   0  0  0  0  0  1  0  0  0  0  0  0
  187.2240  173.3560  136.2900 O   0  0  0  0  0  0  0  0  0  0  0  0
  185.9880  173.8810  135.8770 C   0  0  2  0  0  3  0  0  0  0  0  0
  187.1160  174.7670  136.2750 C   0  0  2  0  0  3  0  0  0  0  0  0
  184.9190  173.7280  136.9800 C   0  0  1  0  0  3  0  0  0  0  0  0
  183.9960  174.9460  136.9710 C   0  0  0  0  0  1  0  0  0  0  0  0
  184.1490  172.3940  137.0490 C   0  0  2  0  0  3  0  0  0  0  0  0
  184.6140  171.4040  135.9890 C   0  0  0  0  0  1  0  0  0  0  0  0
  182.6540  172.6470  136.9020 C   0  0  0  0  0  2  0  0  0  0  0  0
  182.1070  172.1080  135.5820 C   0  0  0  0  0  2  0  0  0  0  0  0
  180.8440  172.8430  135.1660 C   0  0  0  0  0  1  0  0  0  0  0  0
  188.0450  177.0680  137.9430 C   0  0  0  0  0  2  0  0  0  0  0  0
  187.1480  178.0200  138.7320 C   0  0  1  0  0  3  0  0  0  0  0  0
  185.7800  177.5260  138.7030 N   0  0  0  0  0  2  0  0  0  0  0  0
  183.5290  177.8340  139.2030 O   0  0  0  0  0  0  0  0  0  0  0  0
  184.8210  179.7590  139.1780 N   0  0  0  0  0  1  0  0  0  0  0  0
  184.6610  178.3520  139.0350 C   0  0  0  0  0  0  0  0  0  0  0  0
  187.6960  178.1250  140.4470 S   0  0  0  0  0  3  0  0  0  0  0  0
  188.9580  177.2760  140.4660 O   0  0  0  0  0  0  0  0  0  0  0  0
  186.3530  177.4030  135.4500 C   0  0  0  0  0  2  0  0  0  0  0  0
  185.3290  177.2520  134.3750 C   0  0  0  0  0  3  0  0  0  0  0  0
  184.1410  177.4200  134.6180 O   0  0  0  0  0  0  0  0  0  0  0  0
  1  4  1  0  0  0  0
  1 11  1  0  0  0  0
  3  7  1  0  0  0  0
  4  6  1  0  0  0  0
  5  8  1  0  0  0  0
  5  1  1  0  0  0  0
  5  3  1  0  0  0  0
  6  2  1  0  0  0  0
  6 13  1  0  0  0  0
  6 27  1  0  0  0  0
  8 19  1  0  0  0  0
 10  7  1  0  0  0  0
 10  9  1  0  0  0  0
 11 10  1  0  0  0  0
 11 13  1  0  0  0  0
 12  8  1  0  0  0  0
 12 35  1  0  0  0  0
 12  4  1  0  0  0  0
 15 14  1  0  0  0  0
 15  3  1  0  0  0  0
 16 15  1  0  0  0  0
 18 19  1  0  0  0  0
 18 17  1  0  0  0  0
 18 20  1  0  0  0  0
 19 17  1  0  0  0  0
 20 22  1  0  0  0  0
 21 20  1  0  0  0  0
 23 22  1  0  0  0  0
 24 22  1  0  0  0  0
 25 24  1  0  0  0  0
 26 25  1  0  0  0  0
 27 28  1  0  0  0  0
 28 33  1  0  0  0  0
 29 28  1  0  0  0  0
 29 32  1  0  0  0  0
 32 31  1  0  0  0  0
 32 30  2  0  0  0  0
 33 34  2  0  0  0  0
 36 37  2  0  0  0  0
 36 35  1  0  0  0  0
M  END
>  <MODEL>
3

>  <REMARK>
 VINA RESULT:      -3.4      2.737      7.380
  Name = 
  12 active torsions:
  status: ('A' for Active; 'I' for Inactive)
    1  A    between atoms: C_1  and  C_5
    2  A    between atoms: C_1  and  C_23
    3  A    between atoms: S_2  and  C_6
    4  A    between atoms: C_5  and  C_26
    5  A    between atoms: C_6  and  N_8
    6  A    between atoms: C_6  and  C_31
    7  A    between atoms: C_9  and  C_30
    8  A    between atoms: C_11  and  C_26
    9  A    between atoms: C_14  and  C_31
   10  A    between atoms: N_20  and  C_25
   11  A    between atoms: C_27  and  C_33
   12  A    between atoms: C_29  and  C_33
                            x       y       z     vdW  Elec       q    Type
                         _______ _______ _______ _____ _____    ______ ____

>  <TORSDO>
F 12

$$$$
=
 OpenBabel10272415043D

 37 40  0  0  1  0  0  0  0  0999 V2000
  184.3610  177.6720  136.5320 C   0  0  2  0  0  3  0  0  0  0  0  0
  186.5860  175.3470  134.8010 C   0  0  0  0  0  1  0  0  0  0  0  0
  183.7790  177.8240  139.1210 C   0  0  2  0  0  3  0  0  0  0  0  0
  185.7320  177.3420  136.0070 C   0  0  2  0  0  3  0  0  0  0  0  0
  184.6090  178.3190  137.9130 C   0  0  1  0  0  3  0  0  0  0  0  0
  185.9110  175.8070  136.0830 C   0  0  1  0  0  0  0  0  0  0  0  0
  183.4450  176.3390  138.9980 C   0  0  0  0  0  2  0  0  0  0  0  0
  186.0580  178.5270  138.1380 N   0  0  2  0  0  0  0  0  0  0  0  0
  182.1620  174.8080  137.6870 O   0  0  0  0  0  1  0  0  0  0  0  0
  182.6760  176.1030  137.7100 C   0  0  2  0  0  3  0  0  0  0  0  0
  183.5520  176.3750  136.4800 C   0  0  2  0  0  3  0  0  0  0  0  0
  186.6660  178.2380  136.8250 C   0  0  1  0  0  3  0  0  0  0  0  0
  184.5040  175.2390  136.1310 C   0  0  0  0  0  2  0  0  0  0  0  0
  182.2160  178.7640  140.8490 C   0  0  0  0  0  1  0  0  0  0  0  0
  182.5290  178.6810  139.3600 C   0  0  0  0  0  3  0  0  0  0  0  0
  182.7270  180.0970  138.8420 C   0  0  0  0  0  1  0  0  0  0  0  0
  186.2240  178.1370  140.4580 O   0  0  0  0  0  0  0  0  0  0  0  0
  187.5410  178.4040  140.0480 C   0  0  2  0  0  3  0  0  0  0  0  0
  186.5950  177.6470  139.1840 C   0  0  2  0  0  3  0  0  0  0  0  0
  188.5500  177.4970  140.7830 C   0  0  1  0  0  3  0  0  0  0  0  0
  189.8710  177.4720  140.0140 C   0  0  0  0  0  1  0  0  0  0  0  0
  188.7430  177.7200  142.2970 C   0  0  2  0  0  3  0  0  0  0  0  0
  190.2060  177.6230  142.7120 C   0  0  0  0  0  1  0  0  0  0  0  0
  187.9140  176.7120  143.0820 C   0  0  0  0  0  2  0  0  0  0  0  0
  187.2970  177.3270  144.3350 C   0  0  0  0  0  2  0  0  0  0  0  0
  185.9920  178.0380  144.0190 C   0  0  0  0  0  1  0  0  0  0  0  0
  186.7010  175.3170  137.3120 C   0  0  0  0  0  2  0  0  0  0  0  0
  187.5320  174.0610  137.0600 C   0  0  1  0  0  3  0  0  0  0  0  0
  186.8960  173.2640  136.0230 N   0  0  0  0  0  2  0  0  0  0  0  0
  186.7500  171.2670  134.8380 O   0  0  0  0  0  0  0  0  0  0  0  0
  187.8580  171.1450  136.8700 N   0  0  0  0  0  1  0  0  0  0  0  0
  187.1510  171.8660  135.8680 C   0  0  0  0  0  0  0  0  0  0  0  0
  189.1960  174.5030  136.5210 S   0  0  0  0  0  3  0  0  0  0  0  0
  190.0630  174.1320  137.7130 O   0  0  0  0  0  0  0  0  0  0  0  0
  188.1640  177.9230  136.8020 C   0  0  0  0  0  2  0  0  0  0  0  0
  188.9610  179.1830  136.7450 C   0  0  0  0  0  3  0  0  0  0  0  0
  189.0000  179.9390  137.7060 O   0  0  0  0  0  0  0  0  0  0  0  0
  1  5  1  0  0  0  0
  2  6  1  0  0  0  0
  3 15  1  0  0  0  0
  4  6  1  0  0  0  0
  4  1  1  0  0  0  0
  4 12  1  0  0  0  0
  5  8  1  0  0  0  0
  5  3  1  0  0  0  0
  6 13  1  0  0  0  0
  6 27  1  0  0  0  0
  7  3  1  0  0  0  0
  8 19  1  0  0  0  0
  9 10  1  0  0  0  0
 10  7  1  0  0  0  0
 11  1  1  0  0  0  0
 11 10  1  0  0  0  0
 12  8  1  0  0  0  0
 13 11  1  0  0  0  0
 15 14  1  0  0  0  0
 16 15  1  0  0  0  0
 18 17  1  0  0  0  0
 18 20  1  0  0  0  0
 19 18  1  0  0  0  0
 19 17  1  0  0  0  0
 20 22  1  0  0  0  0
 21 20  1  0  0  0  0
 22 23  1  0  0  0  0
 22 24  1  0  0  0  0
 24 25  1  0  0  0  0
 26 25  1  0  0  0  0
 28 27  1  0  0  0  0
 29 28  1  0  0  0  0
 30 32  2  0  0  0  0
 32 29  1  0  0  0  0
 32 31  1  0  0  0  0
 33 28  1  0  0  0  0
 33 34  2  0  0  0  0
 35 12  1  0  0  0  0
 36 35  1  0  0  0  0
 36 37  2  0  0  0  0
M  END
>  <MODEL>
4

>  <REMARK>
 VINA RESULT:      -3.2      1.618      2.067
  Name = 
  12 active torsions:
  status: ('A' for Active; 'I' for Inactive)
    1  A    between atoms: C_1  and  C_5
    2  A    between atoms: C_1  and  C_23
    3  A    between atoms: S_2  and  C_6
    4  A    between atoms: C_5  and  C_26
    5  A    between atoms: C_6  and  N_8
    6  A    between atoms: C_6  and  C_31
    7  A    between atoms: C_9  and  C_30
    8  A    between atoms: C_11  and  C_26
    9  A    between atoms: C_14  and  C_31
   10  A    between atoms: N_20  and  C_25
   11  A    between atoms: C_27  and  C_33
   12  A    between atoms: C_29  and  C_33
                            x       y       z     vdW  Elec       q    Type
                         _______ _______ _______ _____ _____    ______ ____

>  <TORSDO>
F 12

$$$$
=
 OpenBabel10272415043D

 37 40  0  0  1  0  0  0  0  0999 V2000
  189.2330  178.7430  138.8230 C   0  0  2  0  0  3  0  0  0  0  0  0
  186.1730  178.5860  136.8310 C   0  0  0  0  0  1  0  0  0  0  0  0
  190.4490  176.8120  140.1850 C   0  0  2  0  0  3  0  0  0  0  0  0
  188.5650  178.5270  137.4920 C   0  0  2  0  0  3  0  0  0  0  0  0
  190.3330  177.6610  138.8970 C   0  0  1  0  0  3  0  0  0  0  0  0
  187.1720  177.9090  137.7560 C   0  0  1  0  0  0  0  0  0  0  0  0
  189.0840  176.5910  140.8330 C   0  0  0  0  0  2  0  0  0  0  0  0
  190.4400  176.9380  137.6080 N   0  0  2  0  0  0  0  0  0  0  0  0
  187.3260  177.7610  141.9480 O   0  0  0  0  0  1  0  0  0  0  0  0
  188.4570  177.9350  141.1540 C   0  0  2  0  0  3  0  0  0  0  0  0
  188.1230  178.7150  139.8750 C   0  0  2  0  0  3  0  0  0  0  0  0
  189.5930  177.7230  136.6900 C   0  0  1  0  0  3  0  0  0  0  0  0
  186.8380  178.2670  139.1930 C   0  0  0  0  0  2  0  0  0  0  0  0
  191.5760  176.5050  142.4100 C   0  0  0  0  0  1  0  0  0  0  0  0
  191.4720  177.3890  141.1720 C   0  0  0  0  0  3  0  0  0  0  0  0
  192.8540  177.4780  140.5430 C   0  0  0  0  0  1  0  0  0  0  0  0
  190.9210  174.7820  138.4360 O   0  0  0  0  0  0  0  0  0  0  0  0
  190.9560  174.6420  137.0390 C   0  0  2  0  0  3  0  0  0  0  0  0
  189.9800  175.5470  137.7060 C   0  0  2  0  0  3  0  0  0  0  0  0
  190.3340  173.3010  136.5960 C   0  0  1  0  0  3  0  0  0  0  0  0
  188.9210  173.1790  137.1630 C   0  0  0  0  0  1  0  0  0  0  0  0
  190.4120  172.9350  135.0990 C   0  0  2  0  0  3  0  0  0  0  0  0
  189.6580  171.6510  134.7810 C   0  0  0  0  0  1  0  0  0  0  0  0
  191.8670  172.8020  134.6700 C   0  0  0  0  0  2  0  0  0  0  0  0
  192.3740  171.3680  134.7930 C   0  0  0  0  0  2  0  0  0  0  0  0
  193.3130  171.2110  135.9770 C   0  0  0  0  0  1  0  0  0  0  0  0
  187.1110  176.3780  137.5840 C   0  0  0  0  0  2  0  0  0  0  0  0
  185.9870  175.8970  136.6690 C   0  0  1  0  0  3  0  0  0  0  0  0
  186.4360  174.7270  135.9300 N   0  0  0  0  0  2  0  0  0  0  0  0
  185.9860  173.0220  134.4130 O   0  0  0  0  0  0  0  0  0  0  0  0
  184.5360  174.8290  134.3460 N   0  0  0  0  0  1  0  0  0  0  0  0
  185.6660  174.1460  134.8760 C   0  0  0  0  0  0  0  0  0  0  0  0
  184.5320  175.4530  137.6390 S   0  0  0  0  0  3  0  0  0  0  0  0
  183.4900  176.4670  137.1940 O   0  0  0  0  0  0  0  0  0  0  0  0
  189.1200  177.0300  135.4100 C   0  0  0  0  0  2  0  0  0  0  0  0
  190.1650  177.1240  134.3490 C   0  0  0  0  0  3  0  0  0  0  0  0
  191.1340  176.3760  134.3610 O   0  0  0  0  0  0  0  0  0  0  0  0
  1  5  1  0  0  0  0
  1 11  1  0  0  0  0
  2  6  1  0  0  0  0
  3  7  1  0  0  0  0
  3 15  1  0  0  0  0
  4  6  1  0  0  0  0
  4  1  1  0  0  0  0
  5  3  1  0  0  0  0
  6 13  1  0  0  0  0
  7 10  1  0  0  0  0
  8 19  1  0  0  0  0
  8  5  1  0  0  0  0
 10  9  1  0  0  0  0
 11 10  1  0  0  0  0
 12  4  1  0  0  0  0
 12  8  1  0  0  0  0
 13 11  1  0  0  0  0
 15 14  1  0  0  0  0
 16 15  1  0  0  0  0
 18 19  1  0  0  0  0
 18 17  1  0  0  0  0
 19 17  1  0  0  0  0
 20 18  1  0  0  0  0
 20 21  1  0  0  0  0
 22 20  1  0  0  0  0
 23 22  1  0  0  0  0
 24 25  1  0  0  0  0
 24 22  1  0  0  0  0
 25 26  1  0  0  0  0
 27  6  1  0  0  0  0
 28 27  1  0  0  0  0
 28 33  1  0  0  0  0
 29 28  1  0  0  0  0
 30 32  2  0  0  0  0
 31 32  1  0  0  0  0
 32 29  1  0  0  0  0
 34 33  2  0  0  0  0
 35 12  1  0  0  0  0
 36 37  2  0  0  0  0
 36 35  1  0  0  0  0
M  END
>  <MODEL>
5

>  <REMARK>
 VINA RESULT:      -3.0      2.356      6.293
  Name = 
  12 active torsions:
  status: ('A' for Active; 'I' for Inactive)
    1  A    between atoms: C_1  and  C_5
    2  A    between atoms: C_1  and  C_23
    3  A    between atoms: S_2  and  C_6
    4  A    between atoms: C_5  and  C_26
    5  A    between atoms: C_6  and  N_8
    6  A    between atoms: C_6  and  C_31
    7  A    between atoms: C_9  and  C_30
    8  A    between atoms: C_11  and  C_26
    9  A    between atoms: C_14  and  C_31
   10  A    between atoms: N_20  and  C_25
   11  A    between atoms: C_27  and  C_33
   12  A    between atoms: C_29  and  C_33
                            x       y       z     vdW  Elec       q    Type
                         _______ _______ _______ _____ _____    ______ ____

>  <TORSDO>
F 12

$$$$
=
 OpenBabel10272415043D

 37 40  0  0  1  0  0  0  0  0999 V2000
  184.6780  174.1000  134.9080 C   0  0  2  0  0  3  0  0  0  0  0  0
  186.7510  177.0690  134.4230 C   0  0  0  0  0  1  0  0  0  0  0  0
  183.8860  172.9590  137.1750 C   0  0  2  0  0  3  0  0  0  0  0  0
  184.7810  175.5890  134.7200 C   0  0  2  0  0  3  0  0  0  0  0  0
  183.5910  173.9090  135.9900 C   0  0  1  0  0  3  0  0  0  0  0  0
  186.1100  176.0560  135.3590 C   0  0  1  0  0  0  0  0  0  0  0  0
  185.3680  172.9680  137.5430 C   0  0  0  0  0  2  0  0  0  0  0  0
  182.9480  175.2030  136.3160 N   0  0  2  0  0  0  0  0  0  0  0  0
  187.5130  172.3350  136.7030 O   0  0  0  0  0  1  0  0  0  0  0  0
  186.1880  172.5570  136.3330 C   0  0  2  0  0  3  0  0  0  0  0  0
  186.0920  173.6020  135.2130 C   0  0  2  0  0  3  0  0  0  0  0  0
  183.4600  176.1240  135.2830 C   0  0  1  0  0  3  0  0  0  0  0  0
  186.9850  174.8170  135.4190 C   0  0  0  0  0  2  0  0  0  0  0  0
  181.9050  171.4240  137.3690 C   0  0  0  0  0  1  0  0  0  0  0  0
  183.3590  171.5380  136.9270 C   0  0  0  0  0  3  0  0  0  0  0  0
  183.4310  171.1750  135.4520 C   0  0  0  0  0  1  0  0  0  0  0  0
  182.5330  174.9480  138.6240 O   0  0  0  0  0  0  0  0  0  0  0  0
  182.0740  176.2410  138.3210 C   0  0  2  0  0  3  0  0  0  0  0  0
  183.2840  175.6710  137.6670 C   0  0  2  0  0  3  0  0  0  0  0  0
  182.4090  177.2320  139.4560 C   0  0  1  0  0  3  0  0  0  0  0  0
  183.4950  178.2000  138.9870 C   0  0  0  0  0  1  0  0  0  0  0  0
  181.2320  177.9450  140.1530 C   0  0  2  0  0  3  0  0  0  0  0  0
  180.6270  179.0420  139.2850 C   0  0  0  0  0  1  0  0  0  0  0  0
  181.6910  178.5300  141.4820 C   0  0  0  0  0  2  0  0  0  0  0  0
  180.5360  178.6990  142.4660 C   0  0  0  0  0  2  0  0  0  0  0  0
  180.9590  178.3470  143.8820 C   0  0  0  0  0  1  0  0  0  0  0  0
  185.9650  176.6480  136.7740 C   0  0  0  0  0  2  0  0  0  0  0  0
  187.2620  177.2080  137.3530 C   0  0  1  0  0  3  0  0  0  0  0  0
  187.0180  177.6900  138.7040 N   0  0  0  0  0  2  0  0  0  0  0  0
  187.8260  178.6320  140.6720 O   0  0  0  0  0  0  0  0  0  0  0  0
  189.1670  178.9150  138.8020 N   0  0  0  0  0  1  0  0  0  0  0  0
  187.9970  178.4220  139.4440 C   0  0  0  0  0  0  0  0  0  0  0  0
  188.5320  175.9270  137.4100 S   0  0  0  0  0  3  0  0  0  0  0  0
  189.6700  176.5230  136.5960 O   0  0  0  0  0  0  0  0  0  0  0  0
  183.3590  177.6240  135.5710 C   0  0  0  0  0  2  0  0  0  0  0  0
  181.9780  178.1160  135.2950 C   0  0  0  0  0  3  0  0  0  0  0  0
  181.7590  178.8580  134.3470 O   0  0  0  0  0  0  0  0  0  0  0  0
  1 11  1  0  0  0  0
  1  5  1  0  0  0  0
  2  6  1  0  0  0  0
  3  7  1  0  0  0  0
  4  1  1  0  0  0  0
  4 12  1  0  0  0  0
  4  6  1  0  0  0  0
  5  8  1  0  0  0  0
  5  3  1  0  0  0  0
  6 13  1  0  0  0  0
  6 27  1  0  0  0  0
  8 19  1  0  0  0  0
 10  9  1  0  0  0  0
 10  7  1  0  0  0  0
 11 13  1  0  0  0  0
 11 10  1  0  0  0  0
 12 35  1  0  0  0  0
 12  8  1  0  0  0  0
 15  3  1  0  0  0  0
 15 14  1  0  0  0  0
 16 15  1  0  0  0  0
 18 17  1  0  0  0  0
 18 20  1  0  0  0  0
 19 18  1  0  0  0  0
 19 17  1  0  0  0  0
 20 22  1  0  0  0  0
 21 20  1  0  0  0  0
 22 24  1  0  0  0  0
 23 22  1  0  0  0  0
 24 25  1  0  0  0  0
 25 26  1  0  0  0  0
 27 28  1  0  0  0  0
 28 33  1  0  0  0  0
 28 29  1  0  0  0  0
 29 32  1  0  0  0  0
 31 32  1  0  0  0  0
 32 30  2  0  0  0  0
 34 33  2  0  0  0  0
 36 35  1  0  0  0  0
 37 36  2  0  0  0  0
M  END
>  <MODEL>
6

>  <REMARK>
 VINA RESULT:      -2.6      2.551      5.853
  Name = 
  12 active torsions:
  status: ('A' for Active; 'I' for Inactive)
    1  A    between atoms: C_1  and  C_5
    2  A    between atoms: C_1  and  C_23
    3  A    between atoms: S_2  and  C_6
    4  A    between atoms: C_5  and  C_26
    5  A    between atoms: C_6  and  N_8
    6  A    between atoms: C_6  and  C_31
    7  A    between atoms: C_9  and  C_30
    8  A    between atoms: C_11  and  C_26
    9  A    between atoms: C_14  and  C_31
   10  A    between atoms: N_20  and  C_25
   11  A    between atoms: C_27  and  C_33
   12  A    between atoms: C_29  and  C_33
                            x       y       z     vdW  Elec       q    Type
                         _______ _______ _______ _____ _____    ______ ____

>  <TORSDO>
F 12

$$$$
=
 OpenBabel10272415043D

 37 40  0  0  1  0  0  0  0  0999 V2000
  185.6340  174.6420  134.4600 C   0  0  2  0  0  3  0  0  0  0  0  0
  186.7970  178.0000  135.3130 C   0  0  0  0  0  1  0  0  0  0  0  0
  184.6640  172.7480  136.0530 C   0  0  2  0  0  3  0  0  0  0  0  0
  185.3400  176.1080  134.6370 C   0  0  2  0  0  3  0  0  0  0  0  0
  184.4140  173.9150  135.0680 C   0  0  1  0  0  3  0  0  0  0  0  0
  186.2670  176.6450  135.7540 C   0  0  1  0  0  0  0  0  0  0  0  0
  185.9340  172.9700  136.8710 C   0  0  0  0  0  2  0  0  0  0  0  0
  183.3590  174.8870  135.4380 N   0  0  2  0  0  0  0  0  0  0  0  0
  188.3100  173.0890  136.6510 O   0  0  0  0  0  1  0  0  0  0  0  0
  187.1170  173.1180  135.9310 C   0  0  2  0  0  3  0  0  0  0  0  0
  187.0070  174.3960  135.0900 C   0  0  2  0  0  3  0  0  0  0  0  0
  183.8230  176.1570  134.8460 C   0  0  1  0  0  3  0  0  0  0  0  0
  187.4220  175.6620  135.8260 C   0  0  0  0  0  2  0  0  0  0  0  0
  186.0460  170.7540  135.3980 C   0  0  0  0  0  1  0  0  0  0  0  0
  184.6580  171.3830  135.3510 C   0  0  0  0  0  3  0  0  0  0  0  0
  183.6860  170.4250  136.0210 C   0  0  0  0  0  1  0  0  0  0  0  0
  182.5490  173.8440  137.3920 O   0  0  0  0  0  0  0  0  0  0  0  0
  181.7410  174.9810  137.2360 C   0  0  2  0  0  3  0  0  0  0  0  0
  183.1890  175.0020  136.8920 C   0  0  2  0  0  3  0  0  0  0  0  0
  181.4310  175.6380  138.5970 C   0  0  1  0  0  3  0  0  0  0  0  0
  182.7280  175.8210  139.3850 C   0  0  0  0  0  1  0  0  0  0  0  0
  180.5480  176.9020  138.5980 C   0  0  2  0  0  3  0  0  0  0  0  0
  180.0490  177.2570  137.2020 C   0  0  0  0  0  1  0  0  0  0  0  0
  181.3180  178.0770  139.1860 C   0  0  0  0  0  2  0  0  0  0  0  0
  180.5380  178.7790  140.2940 C   0  0  0  0  0  2  0  0  0  0  0  0
  180.2500  180.2280  139.9360 C   0  0  0  0  0  1  0  0  0  0  0  0
  185.6000  176.7530  137.1390 C   0  0  0  0  0  2  0  0  0  0  0  0
  185.9980  177.9980  137.9280 C   0  0  1  0  0  3  0  0  0  0  0  0
  185.3040  178.0000  139.2070 N   0  0  0  0  0  2  0  0  0  0  0  0
  184.2340  179.1780  140.9040 O   0  0  0  0  0  0  0  0  0  0  0  0
  184.4150  180.2870  138.8760 N   0  0  0  0  0  1  0  0  0  0  0  0
  184.6330  179.1570  139.7120 C   0  0  0  0  0  0  0  0  0  0  0  0
  187.7770  178.0120  138.2280 S   0  0  0  0  0  3  0  0  0  0  0  0
  187.9060  178.7670  139.5420 O   0  0  0  0  0  0  0  0  0  0  0  0
  183.2170  177.4490  135.3990 C   0  0  0  0  0  2  0  0  0  0  0  0
  182.3980  178.1290  134.3550 C   0  0  0  0  0  3  0  0  0  0  0  0
  181.6060  179.0120  134.6610 O   0  0  0  0  0  0  0  0  0  0  0  0
  1  4  1  0  0  0  0
  1  5  1  0  0  0  0
  1 11  1  0  0  0  0
  2  6  1  0  0  0  0
  3  7  1  0  0  0  0
  4 12  1  0  0  0  0
  4  6  1  0  0  0  0
  5  8  1  0  0  0  0
  5  3  1  0  0  0  0
  6 13  1  0  0  0  0
  6 27  1  0  0  0  0
  8 19  1  0  0  0  0
 10  9  1  0  0  0  0
 10  7  1  0  0  0  0
 11 13  1  0  0  0  0
 11 10  1  0  0  0  0
 12 35  1  0  0  0  0
 12  8  1  0  0  0  0
 15 14  1  0  0  0  0
 15 16  1  0  0  0  0
 15  3  1  0  0  0  0
 18 17  1  0  0  0  0
 18 20  1  0  0  0  0
 19 18  1  0  0  0  0
 19 17  1  0  0  0  0
 20 22  1  0  0  0  0
 20 21  1  0  0  0  0
 22 24  1  0  0  0  0
 23 22  1  0  0  0  0
 24 25  1  0  0  0  0
 26 25  1  0  0  0  0
 27 28  1  0  0  0  0
 28 33  1  0  0  0  0
 28 29  1  0  0  0  0
 29 32  1  0  0  0  0
 31 32  1  0  0  0  0
 32 30  2  0  0  0  0
 33 34  2  0  0  0  0
 36 37  2  0  0  0  0
 36 35  1  0  0  0  0
M  END
>  <MODEL>
7

>  <REMARK>
 VINA RESULT:      -2.5      3.419      6.837
  Name = 
  12 active torsions:
  status: ('A' for Active; 'I' for Inactive)
    1  A    between atoms: C_1  and  C_5
    2  A    between atoms: C_1  and  C_23
    3  A    between atoms: S_2  and  C_6
    4  A    between atoms: C_5  and  C_26
    5  A    between atoms: C_6  and  N_8
    6  A    between atoms: C_6  and  C_31
    7  A    between atoms: C_9  and  C_30
    8  A    between atoms: C_11  and  C_26
    9  A    between atoms: C_14  and  C_31
   10  A    between atoms: N_20  and  C_25
   11  A    between atoms: C_27  and  C_33
   12  A    between atoms: C_29  and  C_33
                            x       y       z     vdW  Elec       q    Type
                         _______ _______ _______ _____ _____    ______ ____

>  <TORSDO>
F 12

$$$$
=
 OpenBabel10272415043D

 37 40  0  0  1  0  0  0  0  0999 V2000
  186.4020  177.6240  136.1020 C   0  0  2  0  0  3  0  0  0  0  0  0
  183.9050  179.2550  138.2130 C   0  0  0  0  0  1  0  0  0  0  0  0
  187.3170  175.1310  136.2070 C   0  0  2  0  0  3  0  0  0  0  0  0
  184.9660  177.9930  136.3570 C   0  0  2  0  0  3  0  0  0  0  0  0
  186.3540  176.1690  135.5850 C   0  0  1  0  0  3  0  0  0  0  0  0
  184.7530  178.0360  137.8890 C   0  0  1  0  0  0  0  0  0  0  0  0
  187.5890  175.4330  137.6790 C   0  0  0  0  0  2  0  0  0  0  0  0
  184.9520  175.7380  135.3750 N   0  0  2  0  0  0  0  0  0  0  0  0
  188.6460  177.0370  139.1000 O   0  0  0  0  0  1  0  0  0  0  0  0
  188.1780  176.8270  137.8050 C   0  0  2  0  0  3  0  0  0  0  0  0
  187.1590  177.9020  137.4020 C   0  0  2  0  0  3  0  0  0  0  0  0
  184.1720  176.9810  135.5270 C   0  0  1  0  0  3  0  0  0  0  0  0
  186.1370  178.2250  138.4830 C   0  0  0  0  0  2  0  0  0  0  0  0
  188.5200  173.7810  134.4610 C   0  0  0  0  0  1  0  0  0  0  0  0
  188.6130  174.9810  135.3980 C   0  0  0  0  0  3  0  0  0  0  0  0
  188.8800  176.2160  134.5540 C   0  0  0  0  0  1  0  0  0  0  0  0
  185.1420  173.4790  136.0290 O   0  0  0  0  0  0  0  0  0  0  0  0
  183.8000  173.6250  135.6390 C   0  0  2  0  0  3  0  0  0  0  0  0
  184.5290  174.7160  136.3410 C   0  0  2  0  0  3  0  0  0  0  0  0
  182.8590  172.8290  136.5680 C   0  0  1  0  0  3  0  0  0  0  0  0
  181.6060  173.6550  136.8580 C   0  0  0  0  0  1  0  0  0  0  0  0
  182.5380  171.3700  136.1820 C   0  0  2  0  0  3  0  0  0  0  0  0
  183.7300  170.4440  136.3900 C   0  0  0  0  0  1  0  0  0  0  0  0
  182.0780  171.3040  134.7330 C   0  0  0  0  0  2  0  0  0  0  0  0
  180.5870  170.9990  134.6160 C   0  0  0  0  0  2  0  0  0  0  0  0
  180.1090  170.1220  135.7610 C   0  0  0  0  0  1  0  0  0  0  0  0
  184.1140  176.7640  138.4800 C   0  0  0  0  0  2  0  0  0  0  0  0
  182.9130  177.0310  139.3850 C   0  0  1  0  0  3  0  0  0  0  0  0
  182.1830  175.7900  139.5940 N   0  0  0  0  0  2  0  0  0  0  0  0
  180.1760  174.6950  140.0250 O   0  0  0  0  0  0  0  0  0  0  0  0
  179.9820  176.8650  139.2320 N   0  0  0  0  0  1  0  0  0  0  0  0
  180.7550  175.7400  139.6330 C   0  0  0  0  0  0  0  0  0  0  0  0
  183.4580  177.6660  140.9830 S   0  0  0  0  0  3  0  0  0  0  0  0
  182.2640  178.4760  141.4660 O   0  0  0  0  0  0  0  0  0  0  0  0
  182.6750  176.8360  135.8130 C   0  0  0  0  0  2  0  0  0  0  0  0
  181.9390  178.0560  135.3700 C   0  0  0  0  0  3  0  0  0  0  0  0
  181.0770  178.5560  136.0810 O   0  0  0  0  0  0  0  0  0  0  0  0
  1  4  1  0  0  0  0
  1 11  1  0  0  0  0
  3  7  1  0  0  0  0
  4  6  1  0  0  0  0
  5  1  1  0  0  0  0
  5  3  1  0  0  0  0
  6  2  1  0  0  0  0
  6 27  1  0  0  0  0
  6 13  1  0  0  0  0
  7 10  1  0  0  0  0
  8 12  1  0  0  0  0
  8  5  1  0  0  0  0
  8 19  1  0  0  0  0
 10  9  1  0  0  0  0
 11 10  1  0  0  0  0
 11 13  1  0  0  0  0
 12 35  1  0  0  0  0
 12  4  1  0  0  0  0
 14 15  1  0  0  0  0
 15  3  1  0  0  0  0
 16 15  1  0  0  0  0
 17 19  1  0  0  0  0
 18 17  1  0  0  0  0
 18 19  1  0  0  0  0
 18 20  1  0  0  0  0
 20 21  1  0  0  0  0
 22 23  1  0  0  0  0
 22 20  1  0  0  0  0
 24 22  1  0  0  0  0
 25 24  1  0  0  0  0
 25 26  1  0  0  0  0
 27 28  1  0  0  0  0
 28 29  1  0  0  0  0
 28 33  1  0  0  0  0
 29 32  1  0  0  0  0
 31 32  1  0  0  0  0
 32 30  2  0  0  0  0
 33 34  2  0  0  0  0
 36 35  1  0  0  0  0
 36 37  2  0  0  0  0
M  END
>  <MODEL>
8

>  <REMARK>
 VINA RESULT:      -2.5      3.425      7.841
  Name = 
  12 active torsions:
  status: ('A' for Active; 'I' for Inactive)
    1  A    between atoms: C_1  and  C_5
    2  A    between atoms: C_1  and  C_23
    3  A    between atoms: S_2  and  C_6
    4  A    between atoms: C_5  and  C_26
    5  A    between atoms: C_6  and  N_8
    6  A    between atoms: C_6  and  C_31
    7  A    between atoms: C_9  and  C_30
    8  A    between atoms: C_11  and  C_26
    9  A    between atoms: C_14  and  C_31
   10  A    between atoms: N_20  and  C_25
   11  A    between atoms: C_27  and  C_33
   12  A    between atoms: C_29  and  C_33
                            x       y       z     vdW  Elec       q    Type
                         _______ _______ _______ _____ _____    ______ ____

>  <TORSDO>
F 12

$$$$
=
 OpenBabel10272415043D

 37 40  0  0  1  0  0  0  0  0999 V2000
  189.1240  178.6040  138.7460 C   0  0  2  0  0  3  0  0  0  0  0  0
  185.8910  177.9370  137.1780 C   0  0  0  0  0  1  0  0  0  0  0  0
  190.8750  176.8890  139.7750 C   0  0  2  0  0  3  0  0  0  0  0  0
  188.3210  178.3260  137.5040 C   0  0  2  0  0  3  0  0  0  0  0  0
  190.4100  177.7620  138.5860 C   0  0  1  0  0  3  0  0  0  0  0  0
  187.1270  177.4280  137.9030 C   0  0  1  0  0  0  0  0  0  0  0  0
  189.6880  176.3660  140.5820 C   0  0  0  0  0  2  0  0  0  0  0  0
  190.4620  177.1420  137.2410 N   0  0  2  0  0  0  0  0  0  0  0  0
  187.9220  177.1020  142.0120 O   0  0  0  0  0  1  0  0  0  0  0  0
  188.8690  177.5400  141.0890 C   0  0  2  0  0  3  0  0  0  0  0  0
  188.2070  178.3000  139.9330 C   0  0  2  0  0  3  0  0  0  0  0  0
  189.3540  177.7860  136.5100 C   0  0  1  0  0  3  0  0  0  0  0  0
  186.9460  177.6390  139.3960 C   0  0  0  0  0  2  0  0  0  0  0  0
  191.8170  177.1050  142.0950 C   0  0  0  0  0  1  0  0  0  0  0  0
  191.9030  177.6090  140.6590 C   0  0  0  0  0  3  0  0  0  0  0  0
  193.3190  177.3690  140.1610 C   0  0  0  0  0  1  0  0  0  0  0  0
  191.4030  175.0980  137.9510 O   0  0  0  0  0  0  0  0  0  0  0  0
  191.4040  175.0220  136.5480 C   0  0  2  0  0  3  0  0  0  0  0  0
  190.2970  175.6830  137.2910 C   0  0  2  0  0  3  0  0  0  0  0  0
  191.0470  173.6010  136.0650 C   0  0  1  0  0  3  0  0  0  0  0  0
  189.8220  173.6610  135.1530 C   0  0  0  0  0  1  0  0  0  0  0  0
  192.1840  172.7360  135.4840 C   0  0  2  0  0  3  0  0  0  0  0  0
  191.6570  171.5090  134.7500 C   0  0  0  0  0  1  0  0  0  0  0  0
  193.1330  172.3070  136.5940 C   0  0  0  0  0  2  0  0  0  0  0  0
  194.4840  171.8480  136.0510 C   0  0  0  0  0  2  0  0  0  0  0  0
  195.3730  173.0300  135.7050 C   0  0  0  0  0  1  0  0  0  0  0  0
  187.3350  175.9270  137.6220 C   0  0  0  0  0  2  0  0  0  0  0  0
  186.0440  175.1570  137.3540 C   0  0  1  0  0  3  0  0  0  0  0  0
  185.6110  175.4020  135.9870 N   0  0  0  0  0  2  0  0  0  0  0  0
  183.9690  175.2460  134.3470 O   0  0  0  0  0  0  0  0  0  0  0  0
  183.2240  175.0370  136.5320 N   0  0  0  0  0  1  0  0  0  0  0  0
  184.2550  175.2300  135.5710 C   0  0  0  0  0  0  0  0  0  0  0  0
  186.3090  173.3860  137.5740 S   0  0  0  0  0  3  0  0  0  0  0  0
  186.8260  172.9360  136.2160 O   0  0  0  0  0  0  0  0  0  0  0  0
  188.8390  177.0780  135.2550 C   0  0  0  0  0  2  0  0  0  0  0  0
  188.1650  178.0500  134.3460 C   0  0  0  0  0  3  0  0  0  0  0  0
  186.9580  178.2390  134.4200 O   0  0  0  0  0  0  0  0  0  0  0  0
  1 11  1  0  0  0  0
  2  6  1  0  0  0  0
  3  7  1  0  0  0  0
  3 15  1  0  0  0  0
  4  6  1  0  0  0  0
  4  1  1  0  0  0  0
  5  1  1  0  0  0  0
  5  3  1  0  0  0  0
  6 13  1  0  0  0  0
  7 10  1  0  0  0  0
  8 19  1  0  0  0  0
  8  5  1  0  0  0  0
 10  9  1  0  0  0  0
 11 10  1  0  0  0  0
 12  8  1  0  0  0  0
 12  4  1  0  0  0  0
 13 11  1  0  0  0  0
 15 14  1  0  0  0  0
 16 15  1  0  0  0  0
 18 19  1  0  0  0  0
 18 17  1  0  0  0  0
 19 17  1  0  0  0  0
 20 18  1  0  0  0  0
 21 20  1  0  0  0  0
 22 20  1  0  0  0  0
 22 24  1  0  0  0  0
 23 22  1  0  0  0  0
 25 24  1  0  0  0  0
 26 25  1  0  0  0  0
 27  6  1  0  0  0  0
 28 33  1  0  0  0  0
 28 27  1  0  0  0  0
 29 28  1  0  0  0  0
 30 32  2  0  0  0  0
 32 29  1  0  0  0  0
 32 31  1  0  0  0  0
 34 33  2  0  0  0  0
 35 12  1  0  0  0  0
 36 37  2  0  0  0  0
 36 35  1  0  0  0  0
M  END
>  <MODEL>
9

>  <REMARK>
 VINA RESULT:      -2.2      2.304      6.471
  Name = 
  12 active torsions:
  status: ('A' for Active; 'I' for Inactive)
    1  A    between atoms: C_1  and  C_5
    2  A    between atoms: C_1  and  C_23
    3  A    between atoms: S_2  and  C_6
    4  A    between atoms: C_5  and  C_26
    5  A    between atoms: C_6  and  N_8
    6  A    between atoms: C_6  and  C_31
    7  A    between atoms: C_9  and  C_30
    8  A    between atoms: C_11  and  C_26
    9  A    between atoms: C_14  and  C_31
   10  A    between atoms: N_20  and  C_25
   11  A    between atoms: C_27  and  C_33
   12  A    between atoms: C_29  and  C_33
                            x       y       z     vdW  Elec       q    Type
                         _______ _______ _______ _____ _____    ______ ____

>  <TORSDO>
F 12

$$$$
