=
 OpenBabel10272413333D

 32 36  0  0  1  0  0  0  0  0999 V2000
  187.5810  177.7380  146.2160 C   0  0  2  0  0  3  0  0  0  0  0  0
  186.4500  178.2400  142.1260 C   0  0  0  0  0  0  0  0  0  0  0  0
  181.8000  178.9350  143.5140 C   0  0  0  0  0  3  0  0  0  0  0  0
  181.3820  178.7800  142.0800 C   0  0  0  0  0  2  0  0  0  0  0  0
  188.1880  177.7890  143.7550 C   0  0  0  0  0  0  0  0  0  0  0  0
  185.7890  177.9780  144.4590 C   0  0  0  0  0  3  0  0  0  0  0  0
  186.6940  177.1770  147.1170 F   0  0  0  0  0  0  0  0  0  0  0  0
  183.0860  178.8490  143.8610 C   0  0  0  0  0  3  0  0  0  0  0  0
  185.4460  178.3020  143.2050 C   0  0  0  0  0  0  0  0  0  0  0  0
  184.1080  178.7010  142.8600 N   0  0  0  0  0  0  0  0  0  0  0  0
  184.7460  178.8240  140.5300 C   0  0  0  0  0  0  0  0  0  0  0  0
  189.9750  177.7950  145.4950 C   0  0  1  0  0  3  0  0  0  0  0  0
  187.1450  177.4160  144.7880 C   0  0  2  0  0  3  0  0  0  0  0  0
  189.4820  177.8840  144.0730 C   0  0  0  0  0  3  0  0  0  0  0  0
  188.9670  177.1480  146.4470 C   0  0  0  0  0  2  0  0  0  0  0  0
  182.3980  179.4080  141.1280 C   0  0  0  0  0  2  0  0  0  0  0  0
  183.7880  178.9420  141.4730 C   0  0  0  0  0  0  0  0  0  0  0  0
  187.7900  177.9930  142.4320 O   0  0  0  0  0  0  0  0  0  0  0  0
  186.0930  178.4750  140.8990 N   0  0  0  0  0  0  0  0  0  0  0  0
  191.2940  177.1000  145.5590 C   0  0  0  0  0  0  0  0  0  0  0  0
  191.8090  176.6180  144.5110 O   0  0  0  0  0  0  0  0  0  0  0  0
  191.9460  176.9940  146.7860 O   0  0  0  0  0  0  0  0  0  0  0  0
  192.2980  175.7350  147.3410 C   0  0  0  0  0  1  0  0  0  0  0  0
  184.4530  179.0990  139.0850 C   0  0  0  0  0  2  0  0  0  0  0  0
  188.7710  178.6160  136.8990 C   0  0  0  0  0  1  0  0  0  0  0  0
  186.5530  178.7550  137.9680 N   0  0  0  0  0  0  0  0  0  0  0  0
  184.8900  177.1190  137.6940 C   0  0  0  0  0  0  0  0  0  0  0  0
  185.7380  176.3850  136.8660 C   0  0  0  0  0  3  0  0  0  0  0  0
  187.0150  176.8680  136.5990 C   0  0  0  0  0  3  0  0  0  0  0  0
  187.4140  178.0750  137.1670 C   0  0  0  0  0  0  0  0  0  0  0  0
  183.7330  176.6820  137.9400 O   0  0  0  0  0  0  0  0  0  0  0  0
  185.3240  178.3000  138.2310 N   0  0  0  0  0  0  0  0  0  0  0  0
  1 15  1  0  0  0  0
  1  7  1  1  0  0  0
  2 18  1  0  0  0  0
  2  9  1  0  0  0  0
  3  8  2  0  0  0  0
  4  3  1  0  0  0  0
  5 14  2  0  0  0  0
  5 13  1  0  0  0  0
  9  6  2  0  0  0  0
 10  9  1  0  0  0  0
 10  8  1  0  0  0  0
 11 19  1  0  0  0  0
 11 17  2  0  0  0  0
 12 20  1  6  0  0  0
 12 15  1  0  0  0  0
 13  6  1  6  0  0  0
 13  1  1  0  0  0  0
 14 12  1  0  0  0  0
 16 17  1  0  0  0  0
 16  4  1  0  0  0  0
 17 10  1  0  0  0  0
 18  5  1  0  0  0  0
 19  2  2  0  0  0  0
 20 22  1  0  0  0  0
 21 20  2  0  0  0  0
 22 23  1  0  0  0  0
 24 11  1  0  0  0  0
 25 30  1  0  0  0  0
 26 32  1  0  0  0  0
 27 31  2  0  0  0  0
 27 32  1  0  0  0  0
 28 27  1  0  0  0  0
 29 28  2  0  0  0  0
 29 30  1  0  0  0  0
 30 26  2  0  0  0  0
 32 24  1  0  0  0  0
M  END
>  <MODEL>
1

>  <REMARK>
 VINA RESULT:      -9.9      0.000      0.000
  Name = 
  4 active torsions:
  status: ('A' for Active; 'I' for Inactive)
    1  A    between atoms: C_1  and  O_10
    2  A    between atoms: C_1  and  C_19
    3  A    between atoms: C_16  and  C_27
    4  A    between atoms: C_27  and  N_32
                            x       y       z     vdW  Elec       q    Type
                         _______ _______ _______ _____ _____    ______ ____

>  <TORSDO>
F 4

$$$$
=
 OpenBabel10272413333D

 32 36  0  0  1  0  0  0  0  0999 V2000
  187.5940  177.7370  146.2050 C   0  0  2  0  0  3  0  0  0  0  0  0
  186.4410  178.2680  142.1250 C   0  0  0  0  0  0  0  0  0  0  0  0
  181.7880  178.8830  143.5370 C   0  0  0  0  0  3  0  0  0  0  0  0
  181.3660  178.7370  142.1030 C   0  0  0  0  0  2  0  0  0  0  0  0
  188.1910  177.8240  143.7430 C   0  0  0  0  0  0  0  0  0  0  0  0
  185.7930  177.9710  144.4570 C   0  0  0  0  0  3  0  0  0  0  0  0
  186.7180  177.1540  147.1040 F   0  0  0  0  0  0  0  0  0  0  0  0
  183.0760  178.8110  143.8780 C   0  0  0  0  0  3  0  0  0  0  0  0
  185.4400  178.3050  143.2090 C   0  0  0  0  0  0  0  0  0  0  0  0
  184.0960  178.6890  142.8720 N   0  0  0  0  0  0  0  0  0  0  0  0
  184.7240  178.8450  140.5410 C   0  0  0  0  0  0  0  0  0  0  0  0
  189.9850  177.8360  145.4760 C   0  0  1  0  0  3  0  0  0  0  0  0
  187.1580  177.4250  144.7760 C   0  0  2  0  0  3  0  0  0  0  0  0
  189.4850  177.9330  144.0580 C   0  0  0  0  0  3  0  0  0  0  0  0
  188.9890  177.1640  146.4250 C   0  0  0  0  0  2  0  0  0  0  0  0
  182.3700  179.3900  141.1540 C   0  0  0  0  0  2  0  0  0  0  0  0
  183.7680  178.9390  141.4890 C   0  0  0  0  0  0  0  0  0  0  0  0
  187.7860  178.0370  142.4230 O   0  0  0  0  0  0  0  0  0  0  0  0
  186.0770  178.5120  140.9020 N   0  0  0  0  0  0  0  0  0  0  0  0
  191.3130  177.1590  145.5280 C   0  0  0  0  0  0  0  0  0  0  0  0
  191.9210  177.0350  146.6280 O   0  0  0  0  0  0  0  0  0  0  0  0
  191.8690  176.6640  144.3480 O   0  0  0  0  0  0  0  0  0  0  0  0
  191.8330  175.2820  144.0260 C   0  0  0  0  0  1  0  0  0  0  0  0
  184.4220  179.1320  139.1010 C   0  0  0  0  0  2  0  0  0  0  0  0
  182.9270  174.7390  137.6420 C   0  0  0  0  0  1  0  0  0  0  0  0
  183.7740  176.9570  138.3080 N   0  0  0  0  0  0  0  0  0  0  0  0
  185.8050  177.8450  137.5280 C   0  0  0  0  0  0  0  0  0  0  0  0
  186.0260  176.6940  136.7730 C   0  0  0  0  0  3  0  0  0  0  0  0
  185.0870  175.6680  136.8030 C   0  0  0  0  0  3  0  0  0  0  0  0
  183.9470  175.8180  137.5890 C   0  0  0  0  0  0  0  0  0  0  0  0
  186.6540  178.7760  137.5000 O   0  0  0  0  0  0  0  0  0  0  0  0
  184.6710  177.9490  138.2860 N   0  0  0  0  0  0  0  0  0  0  0  0
  1 15  1  0  0  0  0
  1  7  1  1  0  0  0
  2 18  1  0  0  0  0
  2  9  1  0  0  0  0
  3  8  2  0  0  0  0
  4  3  1  0  0  0  0
  5 14  2  0  0  0  0
  5 13  1  0  0  0  0
  9  6  2  0  0  0  0
 10  9  1  0  0  0  0
 10  8  1  0  0  0  0
 11 19  1  0  0  0  0
 11 17  2  0  0  0  0
 12 20  1  6  0  0  0
 12 15  1  0  0  0  0
 13  6  1  6  0  0  0
 13  1  1  0  0  0  0
 14 12  1  0  0  0  0
 16 17  1  0  0  0  0
 16  4  1  0  0  0  0
 17 10  1  0  0  0  0
 18  5  1  0  0  0  0
 19  2  2  0  0  0  0
 20 21  2  0  0  0  0
 22 20  1  0  0  0  0
 23 22  1  0  0  0  0
 24 11  1  0  0  0  0
 27 32  1  0  0  0  0
 28 29  2  0  0  0  0
 28 27  1  0  0  0  0
 29 30  1  0  0  0  0
 30 25  1  0  0  0  0
 30 26  2  0  0  0  0
 31 27  2  0  0  0  0
 32 26  1  0  0  0  0
 32 24  1  0  0  0  0
M  END
>  <MODEL>
2

>  <REMARK>
 VINA RESULT:      -9.6      1.111      1.942
  Name = 
  4 active torsions:
  status: ('A' for Active; 'I' for Inactive)
    1  A    between atoms: C_1  and  O_10
    2  A    between atoms: C_1  and  C_19
    3  A    between atoms: C_16  and  C_27
    4  A    between atoms: C_27  and  N_32
                            x       y       z     vdW  Elec       q    Type
                         _______ _______ _______ _____ _____    ______ ____

>  <TORSDO>
F 4

$$$$
=
 OpenBabel10272413333D

 32 36  0  0  1  0  0  0  0  0999 V2000
  183.5820  178.4150  144.3840 C   0  0  2  0  0  3  0  0  0  0  0  0
  186.5520  178.5130  141.3130 C   0  0  0  0  0  0  0  0  0  0  0  0
  189.9130  176.9850  144.5370 C   0  0  0  0  0  3  0  0  0  0  0  0
  190.9820  177.3400  143.5440 C   0  0  0  0  0  2  0  0  0  0  0  0
  184.2530  178.8860  141.9840 C   0  0  0  0  0  0  0  0  0  0  0  0
  185.9970  178.2650  143.6750 C   0  0  0  0  0  3  0  0  0  0  0  0
  183.9310  178.6860  145.6950 F   0  0  0  0  0  0  0  0  0  0  0  0
  188.6240  177.1730  144.2470 C   0  0  0  0  0  3  0  0  0  0  0  0
  186.9000  178.1290  142.6950 C   0  0  0  0  0  0  0  0  0  0  0  0
  188.2250  177.6290  142.9420 N   0  0  0  0  0  0  0  0  0  0  0  0
  188.8030  178.0100  140.6240 C   0  0  0  0  0  0  0  0  0  0  0  0
  181.8440  178.7980  142.6260 C   0  0  1  0  0  3  0  0  0  0  0  0
  184.6680  178.9290  143.4400 C   0  0  2  0  0  3  0  0  0  0  0  0
  182.9660  178.9030  141.6250 C   0  0  0  0  0  3  0  0  0  0  0  0
  182.2760  179.1290  144.0570 C   0  0  0  0  0  2  0  0  0  0  0  0
  190.5440  177.0290  142.1140 C   0  0  0  0  0  2  0  0  0  0  0  0
  189.1750  177.6020  141.8550 C   0  0  0  0  0  0  0  0  0  0  0  0
  185.2410  178.8720  140.9970 O   0  0  0  0  0  0  0  0  0  0  0  0
  187.4560  178.4580  140.3820 N   0  0  0  0  0  0  0  0  0  0  0  0
  180.6800  179.6350  142.2120 C   0  0  0  0  0  0  0  0  0  0  0  0
  180.2290  180.5240  142.9870 O   0  0  0  0  0  0  0  0  0  0  0  0
  180.1050  179.4240  140.9590 O   0  0  0  0  0  0  0  0  0  0  0  0
  179.9830  180.4680  140.0060 C   0  0  0  0  0  1  0  0  0  0  0  0
  189.7560  177.9630  139.4680 C   0  0  0  0  0  2  0  0  0  0  0  0
  187.8260  174.4170  136.7560 C   0  0  0  0  0  1  0  0  0  0  0  0
  188.7650  176.2920  138.0540 N   0  0  0  0  0  0  0  0  0  0  0  0
  188.7140  178.5200  137.3120 C   0  0  0  0  0  0  0  0  0  0  0  0
  188.0600  178.1250  136.1460 C   0  0  0  0  0  3  0  0  0  0  0  0
  187.7630  176.7790  135.9540 C   0  0  0  0  0  3  0  0  0  0  0  0
  188.1280  175.8600  136.9350 C   0  0  0  0  0  0  0  0  0  0  0  0
  188.9820  179.7400  137.4890 O   0  0  0  0  0  0  0  0  0  0  0  0
  189.0550  177.5820  138.2480 N   0  0  0  0  0  0  0  0  0  0  0  0
  1  7  1  1  0  0  0
  2  9  1  0  0  0  0
  4  3  1  0  0  0  0
  5 13  1  0  0  0  0
  8  3  2  0  0  0  0
  9 10  1  0  0  0  0
  9  6  2  0  0  0  0
 10  8  1  0  0  0  0
 11 17  2  0  0  0  0
 12 20  1  6  0  0  0
 12 15  1  0  0  0  0
 13  6  1  6  0  0  0
 13  1  1  0  0  0  0
 14  5  2  0  0  0  0
 14 12  1  0  0  0  0
 15  1  1  0  0  0  0
 16  4  1  0  0  0  0
 17 16  1  0  0  0  0
 17 10  1  0  0  0  0
 18  2  1  0  0  0  0
 18  5  1  0  0  0  0
 19 11  1  0  0  0  0
 19  2  2  0  0  0  0
 20 21  2  0  0  0  0
 22 20  1  0  0  0  0
 23 22  1  0  0  0  0
 24 11  1  0  0  0  0
 25 30  1  0  0  0  0
 26 32  1  0  0  0  0
 27 31  2  0  0  0  0
 27 32  1  0  0  0  0
 28 27  1  0  0  0  0
 29 28  2  0  0  0  0
 29 30  1  0  0  0  0
 30 26  2  0  0  0  0
 32 24  1  0  0  0  0
M  END
>  <MODEL>
3

>  <REMARK>
 VINA RESULT:      -9.5      2.983      6.682
  Name = 
  4 active torsions:
  status: ('A' for Active; 'I' for Inactive)
    1  A    between atoms: C_1  and  O_10
    2  A    between atoms: C_1  and  C_19
    3  A    between atoms: C_16  and  C_27
    4  A    between atoms: C_27  and  N_32
                            x       y       z     vdW  Elec       q    Type
                         _______ _______ _______ _____ _____    ______ ____

>  <TORSDO>
F 4

$$$$
=
 OpenBabel10272413333D

 32 36  0  0  1  0  0  0  0  0999 V2000
  188.2060  177.5040  146.2560 C   0  0  2  0  0  3  0  0  0  0  0  0
  188.5960  177.5970  142.0010 C   0  0  0  0  0  0  0  0  0  0  0  0
  183.8600  178.8010  141.6100 C   0  0  0  0  0  3  0  0  0  0  0  0
  183.9390  178.5070  140.1390 C   0  0  0  0  0  2  0  0  0  0  0  0
  189.6150  177.2140  144.1670 C   0  0  0  0  0  0  0  0  0  0  0  0
  187.1570  177.6660  143.9690 C   0  0  0  0  0  3  0  0  0  0  0  0
  187.0090  177.1230  146.8350 F   0  0  0  0  0  0  0  0  0  0  0  0
  184.9340  178.6610  142.3910 C   0  0  0  0  0  3  0  0  0  0  0  0
  187.2980  177.8630  142.6520 C   0  0  0  0  0  0  0  0  0  0  0  0
  186.2110  178.3180  141.8280 N   0  0  0  0  0  0  0  0  0  0  0  0
  187.6130  178.1120  139.8660 C   0  0  0  0  0  0  0  0  0  0  0  0
  190.6930  177.2930  146.4150 C   0  0  1  0  0  3  0  0  0  0  0  0
  188.2480  177.0470  144.7990 C   0  0  2  0  0  3  0  0  0  0  0  0
  190.7260  177.2490  144.9090 C   0  0  0  0  0  3  0  0  0  0  0  0
  189.3560  176.8420  147.0060 C   0  0  0  0  0  2  0  0  0  0  0  0
  185.2820  178.9390  139.5530 C   0  0  0  0  0  2  0  0  0  0  0  0
  186.4110  178.4140  140.4010 C   0  0  0  0  0  0  0  0  0  0  0  0
  189.7150  177.2880  142.7760 O   0  0  0  0  0  0  0  0  0  0  0  0
  188.7060  177.7100  140.7120 N   0  0  0  0  0  0  0  0  0  0  0  0
  191.8250  176.5140  146.9960 C   0  0  0  0  0  0  0  0  0  0  0  0
  192.3090  175.5320  146.3660 O   0  0  0  0  0  0  0  0  0  0  0  0
  192.3400  176.8870  148.2370 O   0  0  0  0  0  0  0  0  0  0  0  0
  193.1040  175.9910  149.0310 C   0  0  0  0  0  1  0  0  0  0  0  0
  187.8600  178.2340  138.3920 C   0  0  0  0  0  2  0  0  0  0  0  0
  192.3450  176.4940  137.6690 C   0  0  0  0  0  1  0  0  0  0  0  0
  190.0290  177.2740  138.0010 N   0  0  0  0  0  0  0  0  0  0  0  0
  188.1470  175.9970  137.4130 C   0  0  0  0  0  0  0  0  0  0  0  0
  188.9750  174.9710  136.9590 C   0  0  0  0  0  3  0  0  0  0  0  0
  190.3560  175.1240  137.0400 C   0  0  0  0  0  3  0  0  0  0  0  0
  190.8750  176.3020  137.5720 C   0  0  0  0  0  0  0  0  0  0  0  0
  186.8950  175.8590  137.3430 O   0  0  0  0  0  0  0  0  0  0  0  0
  188.7010  177.1360  137.9280 N   0  0  0  0  0  0  0  0  0  0  0  0
  1  7  1  1  0  0  0
  1 15  1  0  0  0  0
  2  9  1  0  0  0  0
  2 18  1  0  0  0  0
  3  8  2  0  0  0  0
  4  3  1  0  0  0  0
  5 13  1  0  0  0  0
  5 14  2  0  0  0  0
  9  6  2  0  0  0  0
 10  8  1  0  0  0  0
 10  9  1  0  0  0  0
 11 17  2  0  0  0  0
 11 19  1  0  0  0  0
 12 20  1  1  0  0  0
 12 15  1  0  0  0  0
 13  6  1  6  0  0  0
 13  1  1  0  0  0  0
 14 12  1  0  0  0  0
 16  4  1  0  0  0  0
 16 17  1  0  0  0  0
 17 10  1  0  0  0  0
 18  5  1  0  0  0  0
 19  2  2  0  0  0  0
 20 22  1  0  0  0  0
 21 20  2  0  0  0  0
 22 23  1  0  0  0  0
 24 11  1  0  0  0  0
 27 32  1  0  0  0  0
 28 29  2  0  0  0  0
 28 27  1  0  0  0  0
 29 30  1  0  0  0  0
 30 25  1  0  0  0  0
 30 26  2  0  0  0  0
 31 27  2  0  0  0  0
 32 26  1  0  0  0  0
 32 24  1  0  0  0  0
M  END
>  <MODEL>
4

>  <REMARK>
 VINA RESULT:      -9.1      2.026      2.661
  Name = 
  4 active torsions:
  status: ('A' for Active; 'I' for Inactive)
    1  A    between atoms: C_1  and  O_10
    2  A    between atoms: C_1  and  C_19
    3  A    between atoms: C_16  and  C_27
    4  A    between atoms: C_27  and  N_32
                            x       y       z     vdW  Elec       q    Type
                         _______ _______ _______ _____ _____    ______ ____

>  <TORSDO>
F 4

$$$$
=
 OpenBabel10272413333D

 32 36  0  0  1  0  0  0  0  0999 V2000
  187.1390  178.0890  144.8540 C   0  0  2  0  0  3  0  0  0  0  0  0
  189.2540  177.5190  141.1850 C   0  0  0  0  0  0  0  0  0  0  0  0
  185.1700  178.5680  138.6860 C   0  0  0  0  0  3  0  0  0  0  0  0
  185.8340  178.0480  137.4440 C   0  0  0  0  0  2  0  0  0  0  0  0
  189.2670  177.4980  143.6090 C   0  0  0  0  0  0  0  0  0  0  0  0
  187.1370  177.8720  142.3420 C   0  0  0  0  0  3  0  0  0  0  0  0
  185.7920  177.7840  144.9330 F   0  0  0  0  0  0  0  0  0  0  0  0
  185.8160  178.5700  139.8540 C   0  0  0  0  0  3  0  0  0  0  0  0
  187.8190  177.8630  141.1900 C   0  0  0  0  0  0  0  0  0  0  0  0
  187.1940  178.1640  139.9300 N   0  0  0  0  0  0  0  0  0  0  0  0
  189.2670  177.6760  138.7830 C   0  0  0  0  0  0  0  0  0  0  0  0
  189.3250  177.9480  146.0620 C   0  0  1  0  0  3  0  0  0  0  0  0
  187.7560  177.4090  143.6330 C   0  0  2  0  0  3  0  0  0  0  0  0
  189.9730  177.6670  144.7300 C   0  0  0  0  0  3  0  0  0  0  0  0
  187.8420  177.5730  146.1040 C   0  0  0  0  0  2  0  0  0  0  0  0
  187.3190  178.4050  137.4100 C   0  0  0  0  0  2  0  0  0  0  0  0
  187.9690  178.0380  138.7190 C   0  0  0  0  0  0  0  0  0  0  0  0
  189.9370  177.3540  142.3920 O   0  0  0  0  0  0  0  0  0  0  0  0
  189.8920  177.4300  140.0570 N   0  0  0  0  0  0  0  0  0  0  0  0
  190.0750  177.2880  147.1700 C   0  0  0  0  0  0  0  0  0  0  0  0
  189.4870  176.9940  148.2480 O   0  0  0  0  0  0  0  0  0  0  0  0
  191.4280  176.9990  146.9950 O   0  0  0  0  0  0  0  0  0  0  0  0
  192.0020  175.7890  147.4660 C   0  0  0  0  0  1  0  0  0  0  0  0
  190.1070  177.5690  137.5460 C   0  0  0  0  0  2  0  0  0  0  0  0
  188.7740  173.0140  136.4820 C   0  0  0  0  0  1  0  0  0  0  0  0
  189.5610  175.2880  137.0200 N   0  0  0  0  0  0  0  0  0  0  0  0
  191.8140  175.8030  137.4380 C   0  0  0  0  0  0  0  0  0  0  0  0
  192.1640  174.4690  137.2380 C   0  0  0  0  0  3  0  0  0  0  0  0
  191.1730  173.5440  136.9220 C   0  0  0  0  0  3  0  0  0  0  0  0
  189.8540  173.9780  136.8160 C   0  0  0  0  0  0  0  0  0  0  0  0
  192.7120  176.6430  137.7210 O   0  0  0  0  0  0  0  0  0  0  0  0
  190.5050  176.1840  137.3230 N   0  0  0  0  0  0  0  0  0  0  0  0
  1  7  1  1  0  0  0
  1 15  1  0  0  0  0
  2  9  1  0  0  0  0
  2 18  1  0  0  0  0
  3  8  2  0  0  0  0
  4  3  1  0  0  0  0
  5 13  1  0  0  0  0
  5 14  2  0  0  0  0
  8 10  1  0  0  0  0
  9  6  2  0  0  0  0
 10  9  1  0  0  0  0
 11 19  1  0  0  0  0
 12 15  1  0  0  0  0
 12 20  1  1  0  0  0
 13  6  1  6  0  0  0
 13  1  1  0  0  0  0
 14 12  1  0  0  0  0
 16  4  1  0  0  0  0
 16 17  1  0  0  0  0
 17 11  2  0  0  0  0
 17 10  1  0  0  0  0
 18  5  1  0  0  0  0
 19  2  2  0  0  0  0
 20 21  2  0  0  0  0
 22 20  1  0  0  0  0
 22 23  1  0  0  0  0
 24 11  1  0  0  0  0
 25 30  1  0  0  0  0
 26 32  1  0  0  0  0
 27 31  2  0  0  0  0
 28 27  1  0  0  0  0
 29 28  2  0  0  0  0
 30 29  1  0  0  0  0
 30 26  2  0  0  0  0
 32 27  1  0  0  0  0
 32 24  1  0  0  0  0
M  END
>  <MODEL>
5

>  <REMARK>
 VINA RESULT:      -9.1      2.904      4.481
  Name = 
  4 active torsions:
  status: ('A' for Active; 'I' for Inactive)
    1  A    between atoms: C_1  and  O_10
    2  A    between atoms: C_1  and  C_19
    3  A    between atoms: C_16  and  C_27
    4  A    between atoms: C_27  and  N_32
                            x       y       z     vdW  Elec       q    Type
                         _______ _______ _______ _____ _____    ______ ____

>  <TORSDO>
F 4

$$$$
=
 OpenBabel10272413333D

 32 36  0  0  1  0  0  0  0  0999 V2000
  188.0100  177.6530  143.8310 C   0  0  2  0  0  3  0  0  0  0  0  0
  190.9610  176.9190  140.8290 C   0  0  0  0  0  0  0  0  0  0  0  0
  187.5290  177.3910  137.3610 C   0  0  0  0  0  3  0  0  0  0  0  0
  188.4970  176.8140  136.3690 C   0  0  0  0  0  2  0  0  0  0  0  0
  190.4030  177.1260  143.1790 C   0  0  0  0  0  0  0  0  0  0  0  0
  188.6140  177.2040  141.4250 C   0  0  0  0  0  3  0  0  0  0  0  0
  186.7020  177.2480  143.6320 F   0  0  0  0  0  0  0  0  0  0  0  0
  187.8800  177.5550  138.6390 C   0  0  0  0  0  3  0  0  0  0  0  0
  189.5480  177.1430  140.4670 C   0  0  0  0  0  0  0  0  0  0  0  0
  189.2220  177.2730  139.0730 N   0  0  0  0  0  0  0  0  0  0  0  0
  191.5330  176.8510  138.4920 C   0  0  0  0  0  0  0  0  0  0  0  0
  189.8520  177.8050  145.5150 C   0  0  1  0  0  3  0  0  0  0  0  0
  188.9360  176.9160  142.8660 C   0  0  2  0  0  3  0  0  0  0  0  0
  190.8130  177.4560  144.4070 C   0  0  0  0  0  3  0  0  0  0  0  0
  188.4260  177.3160  145.2580 C   0  0  0  0  0  2  0  0  0  0  0  0
  189.9250  177.2860  136.6380 C   0  0  0  0  0  2  0  0  0  0  0  0
  190.2670  177.0980  138.0920 C   0  0  0  0  0  0  0  0  0  0  0  0
  191.3480  176.9240  142.1710 O   0  0  0  0  0  0  0  0  0  0  0  0
  191.8520  176.7770  139.8940 N   0  0  0  0  0  0  0  0  0  0  0  0
  190.3570  177.3160  146.8310 C   0  0  0  0  0  0  0  0  0  0  0  0
  189.5710  177.2120  147.8140 O   0  0  0  0  0  0  0  0  0  0  0  0
  191.7030  176.9730  146.9570 O   0  0  0  0  0  0  0  0  0  0  0  0
  192.1110  175.6630  147.3220 C   0  0  0  0  0  1  0  0  0  0  0  0
  192.6460  176.6980  137.5000 C   0  0  0  0  0  2  0  0  0  0  0  0
  196.5510  174.6590  139.5620 C   0  0  0  0  0  1  0  0  0  0  0  0
  194.5340  175.5870  138.4870 N   0  0  0  0  0  0  0  0  0  0  0  0
  192.9880  174.2720  137.3030 C   0  0  0  0  0  0  0  0  0  0  0  0
  193.7460  173.1310  137.5670 C   0  0  0  0  0  3  0  0  0  0  0  0
  194.9170  173.2470  138.3090 C   0  0  0  0  0  3  0  0  0  0  0  0
  195.3040  174.5040  138.7690 C   0  0  0  0  0  0  0  0  0  0  0  0
  191.9250  174.1680  136.6340 O   0  0  0  0  0  0  0  0  0  0  0  0
  193.4070  175.4850  137.7760 N   0  0  0  0  0  0  0  0  0  0  0  0
  1  7  1  6  0  0  0
  1 15  1  0  0  0  0
  2 18  1  0  0  0  0
  3  8  2  0  0  0  0
  4 16  1  0  0  0  0
  4  3  1  0  0  0  0
  5 14  2  0  0  0  0
  8 10  1  0  0  0  0
  9  2  1  0  0  0  0
  9  6  2  0  0  0  0
 10  9  1  0  0  0  0
 11 19  1  0  0  0  0
 12 20  1  1  0  0  0
 13  6  1  6  0  0  0
 13  5  1  0  0  0  0
 13  1  1  0  0  0  0
 14 12  1  0  0  0  0
 15 12  1  0  0  0  0
 16 17  1  0  0  0  0
 17 11  2  0  0  0  0
 17 10  1  0  0  0  0
 18  5  1  0  0  0  0
 19  2  2  0  0  0  0
 20 22  1  0  0  0  0
 20 21  2  0  0  0  0
 22 23  1  0  0  0  0
 24 32  1  0  0  0  0
 24 11  1  0  0  0  0
 26 30  2  0  0  0  0
 27 28  1  0  0  0  0
 27 32  1  0  0  0  0
 28 29  2  0  0  0  0
 29 30  1  0  0  0  0
 30 25  1  0  0  0  0
 31 27  2  0  0  0  0
 32 26  1  0  0  0  0
M  END
>  <MODEL>
6

>  <REMARK>
 VINA RESULT:      -8.9      4.510      6.386
  Name = 
  4 active torsions:
  status: ('A' for Active; 'I' for Inactive)
    1  A    between atoms: C_1  and  O_10
    2  A    between atoms: C_1  and  C_19
    3  A    between atoms: C_16  and  C_27
    4  A    between atoms: C_27  and  N_32
                            x       y       z     vdW  Elec       q    Type
                         _______ _______ _______ _____ _____    ______ ____

>  <TORSDO>
F 4

$$$$
=
 OpenBabel10272413333D

 32 36  0  0  1  0  0  0  0  0999 V2000
  187.8330  177.7110  144.0030 C   0  0  2  0  0  3  0  0  0  0  0  0
  190.4990  176.9940  140.7410 C   0  0  0  0  0  0  0  0  0  0  0  0
  186.8860  178.0040  137.5860 C   0  0  0  0  0  3  0  0  0  0  0  0
  187.7320  177.4350  136.4840 C   0  0  0  0  0  2  0  0  0  0  0  0
  190.1240  177.0550  143.1350 C   0  0  0  0  0  0  0  0  0  0  0  0
  188.2300  177.4100  141.5310 C   0  0  0  0  0  3  0  0  0  0  0  0
  186.4860  177.4240  143.8740 F   0  0  0  0  0  0  0  0  0  0  0  0
  187.3370  178.0380  138.8420 C   0  0  0  0  0  3  0  0  0  0  0  0
  189.0880  177.3540  140.5040 C   0  0  0  0  0  0  0  0  0  0  0  0
  188.6780  177.6190  139.1520 N   0  0  0  0  0  0  0  0  0  0  0  0
  190.9000  177.0700  138.3690 C   0  0  0  0  0  0  0  0  0  0  0  0
  189.7940  177.5860  145.5500 C   0  0  1  0  0  3  0  0  0  0  0  0
  188.6260  176.9840  142.9190 C   0  0  2  0  0  3  0  0  0  0  0  0
  190.6440  177.2540  144.3500 C   0  0  0  0  0  3  0  0  0  0  0  0
  188.3180  177.2300  145.3650 C   0  0  0  0  0  2  0  0  0  0  0  0
  189.2090  177.7730  136.6780 C   0  0  0  0  0  2  0  0  0  0  0  0
  189.6350  177.4440  138.0850 C   0  0  0  0  0  0  0  0  0  0  0  0
  190.9770  176.8630  142.0460 O   0  0  0  0  0  0  0  0  0  0  0  0
  191.3080  176.8600  139.7340 N   0  0  0  0  0  0  0  0  0  0  0  0
  190.3470  176.9560  146.7840 C   0  0  0  0  0  0  0  0  0  0  0  0
  189.5680  176.4920  147.6630 O   0  0  0  0  0  0  0  0  0  0  0  0
  191.7300  176.8840  146.9490 O   0  0  0  0  0  0  0  0  0  0  0  0
  192.3490  175.7910  147.6100 C   0  0  0  0  0  1  0  0  0  0  0  0
  191.9250  176.9110  137.2870 C   0  0  0  0  0  2  0  0  0  0  0  0
  190.3690  172.6980  135.4190 C   0  0  0  0  0  1  0  0  0  0  0  0
  191.2590  174.7830  136.3920 N   0  0  0  0  0  0  0  0  0  0  0  0
  193.3420  174.9100  137.4710 C   0  0  0  0  0  0  0  0  0  0  0  0
  193.5550  173.5530  137.2360 C   0  0  0  0  0  3  0  0  0  0  0  0
  192.5850  172.8170  136.5620 C   0  0  0  0  0  3  0  0  0  0  0  0
  191.4230  173.4580  136.1390 C   0  0  0  0  0  0  0  0  0  0  0  0
  194.2210  175.5790  138.0790 O   0  0  0  0  0  0  0  0  0  0  0  0
  192.1850  175.4980  137.0380 N   0  0  0  0  0  0  0  0  0  0  0  0
  1  7  1  6  0  0  0
  1 15  1  0  0  0  0
  2 18  1  0  0  0  0
  3  8  2  0  0  0  0
  4 16  1  0  0  0  0
  4  3  1  0  0  0  0
  5 14  2  0  0  0  0
  8 10  1  0  0  0  0
  9  2  1  0  0  0  0
  9  6  2  0  0  0  0
 10  9  1  0  0  0  0
 11 19  1  0  0  0  0
 12 20  1  1  0  0  0
 13  6  1  6  0  0  0
 13  5  1  0  0  0  0
 13  1  1  0  0  0  0
 14 12  1  0  0  0  0
 15 12  1  0  0  0  0
 16 17  1  0  0  0  0
 17 11  2  0  0  0  0
 17 10  1  0  0  0  0
 18  5  1  0  0  0  0
 19  2  2  0  0  0  0
 20 22  1  0  0  0  0
 20 21  2  0  0  0  0
 22 23  1  0  0  0  0
 24 11  1  0  0  0  0
 25 30  1  0  0  0  0
 26 32  1  0  0  0  0
 27 31  2  0  0  0  0
 28 27  1  0  0  0  0
 29 28  2  0  0  0  0
 30 26  2  0  0  0  0
 30 29  1  0  0  0  0
 32 24  1  0  0  0  0
 32 27  1  0  0  0  0
M  END
>  <MODEL>
7

>  <REMARK>
 VINA RESULT:      -8.8      3.760      5.773
  Name = 
  4 active torsions:
  status: ('A' for Active; 'I' for Inactive)
    1  A    between atoms: C_1  and  O_10
    2  A    between atoms: C_1  and  C_19
    3  A    between atoms: C_16  and  C_27
    4  A    between atoms: C_27  and  N_32
                            x       y       z     vdW  Elec       q    Type
                         _______ _______ _______ _____ _____    ______ ____

>  <TORSDO>
F 4

$$$$
=
 OpenBabel10272413333D

 32 36  0  0  1  0  0  0  0  0999 V2000
  190.7530  177.0460  143.3980 C   0  0  2  0  0  3  0  0  0  0  0  0
  187.1280  178.3120  141.5220 C   0  0  0  0  0  0  0  0  0  0  0  0
  189.2520  177.8350  137.1300 C   0  0  0  0  0  3  0  0  0  0  0  0
  188.1000  178.5850  136.5260 C   0  0  0  0  0  2  0  0  0  0  0  0
  188.3530  177.8470  143.5620 C   0  0  0  0  0  0  0  0  0  0  0  0
  189.4960  177.7610  141.3320 C   0  0  0  0  0  3  0  0  0  0  0  0
  191.9740  177.3460  142.8210 F   0  0  0  0  0  0  0  0  0  0  0  0
  189.2940  177.5920  138.4420 C   0  0  0  0  0  3  0  0  0  0  0  0
  188.3260  177.9920  140.7220 C   0  0  0  0  0  0  0  0  0  0  0  0
  188.1920  177.9570  139.2910 N   0  0  0  0  0  0  0  0  0  0  0  0
  185.8790  178.6380  139.4910 C   0  0  0  0  0  0  0  0  0  0  0  0
  189.5110  176.9150  145.5650 C   0  0  1  0  0  3  0  0  0  0  0  0
  189.6670  177.9480  142.8150 C   0  0  2  0  0  3  0  0  0  0  0  0
  188.3040  177.4480  144.8360 C   0  0  0  0  0  3  0  0  0  0  0  0
  190.8360  177.2930  144.8990 C   0  0  0  0  0  2  0  0  0  0  0  0
  186.7790  178.2230  137.2040 C   0  0  0  0  0  2  0  0  0  0  0  0
  186.9230  178.3130  138.7000 C   0  0  0  0  0  0  0  0  0  0  0  0
  187.1730  178.2230  142.9150 O   0  0  0  0  0  0  0  0  0  0  0  0
  186.0160  178.6170  140.9240 N   0  0  0  0  0  0  0  0  0  0  0  0
  189.4950  177.3310  146.9980 C   0  0  0  0  0  0  0  0  0  0  0  0
  190.4910  177.0980  147.7380 O   0  0  0  0  0  0  0  0  0  0  0  0
  188.3690  177.9810  147.5030 O   0  0  0  0  0  0  0  0  0  0  0  0
  188.1070  178.0510  148.8960 C   0  0  0  0  0  1  0  0  0  0  0  0
  184.5400  178.9800  138.9090 C   0  0  0  0  0  2  0  0  0  0  0  0
  183.2590  174.4850  137.5610 C   0  0  0  0  0  1  0  0  0  0  0  0
  183.8240  176.7620  138.3240 N   0  0  0  0  0  0  0  0  0  0  0  0
  182.5620  177.9310  139.9240 C   0  0  0  0  0  0  0  0  0  0  0  0
  181.6880  176.8510  140.0350 C   0  0  0  0  0  3  0  0  0  0  0  0
  181.9090  175.7130  139.2640 C   0  0  0  0  0  3  0  0  0  0  0  0
  182.9990  175.6850  138.3980 C   0  0  0  0  0  0  0  0  0  0  0  0
  182.3660  178.9610  140.6240 O   0  0  0  0  0  0  0  0  0  0  0  0
  183.6210  177.8590  139.0600 N   0  0  0  0  0  0  0  0  0  0  0  0
  1  7  1  6  0  0  0
  1 15  1  0  0  0  0
  2 18  1  0  0  0  0
  3  8  2  0  0  0  0
  4  3  1  0  0  0  0
  4 16  1  0  0  0  0
  5 14  2  0  0  0  0
  8 10  1  0  0  0  0
  9  6  2  0  0  0  0
  9  2  1  0  0  0  0
 10  9  1  0  0  0  0
 11 19  1  0  0  0  0
 12 20  1  1  0  0  0
 13  6  1  6  0  0  0
 13  1  1  0  0  0  0
 13  5  1  0  0  0  0
 14 12  1  0  0  0  0
 15 12  1  0  0  0  0
 16 17  1  0  0  0  0
 17 10  1  0  0  0  0
 17 11  2  0  0  0  0
 18  5  1  0  0  0  0
 19  2  2  0  0  0  0
 20 22  1  0  0  0  0
 20 21  2  0  0  0  0
 22 23  1  0  0  0  0
 24 32  1  0  0  0  0
 24 11  1  0  0  0  0
 25 30  1  0  0  0  0
 26 30  2  0  0  0  0
 26 32  1  0  0  0  0
 27 28  1  0  0  0  0
 27 31  2  0  0  0  0
 29 28  2  0  0  0  0
 30 29  1  0  0  0  0
 32 27  1  0  0  0  0
M  END
>  <MODEL>
8

>  <REMARK>
 VINA RESULT:      -8.8      2.413      4.634
  Name = 
  4 active torsions:
  status: ('A' for Active; 'I' for Inactive)
    1  A    between atoms: C_1  and  O_10
    2  A    between atoms: C_1  and  C_19
    3  A    between atoms: C_16  and  C_27
    4  A    between atoms: C_27  and  N_32
                            x       y       z     vdW  Elec       q    Type
                         _______ _______ _______ _____ _____    ______ ____

>  <TORSDO>
F 4

$$$$
=
 OpenBabel10272413333D

 32 36  0  0  1  0  0  0  0  0999 V2000
  191.0210  176.3060  143.7000 C   0  0  2  0  0  3  0  0  0  0  0  0
  188.2420  177.9830  140.9210 C   0  0  0  0  0  0  0  0  0  0  0  0
  190.8630  176.1380  137.2120 C   0  0  0  0  0  3  0  0  0  0  0  0
  190.0750  177.0000  136.2680 C   0  0  0  0  0  2  0  0  0  0  0  0
  188.9350  177.6660  143.2220 C   0  0  0  0  0  0  0  0  0  0  0  0
  190.3690  176.8620  141.3290 C   0  0  0  0  0  3  0  0  0  0  0  0
  192.3570  176.1860  143.3590 F   0  0  0  0  0  0  0  0  0  0  0  0
  190.6160  176.1630  138.5240 C   0  0  0  0  0  3  0  0  0  0  0  0
  189.4250  177.2340  140.4550 C   0  0  0  0  0  0  0  0  0  0  0  0
  189.5280  176.9420  139.0510 N   0  0  0  0  0  0  0  0  0  0  0  0
  187.4870  178.1750  138.6440 C   0  0  0  0  0  0  0  0  0  0  0  0
  189.4460  176.9130  145.5450 C   0  0  1  0  0  3  0  0  0  0  0  0
  190.3330  177.3010  142.7680 C   0  0  2  0  0  3  0  0  0  0  0  0
  188.5680  177.5570  144.5020 C   0  0  0  0  0  3  0  0  0  0  0  0
  190.9150  176.8250  145.1290 C   0  0  0  0  0  2  0  0  0  0  0  0
  188.6110  177.1050  136.6940 C   0  0  0  0  0  2  0  0  0  0  0  0
  188.5210  177.4600  138.1550 C   0  0  0  0  0  0  0  0  0  0  0  0
  188.0280  178.1700  142.2880 O   0  0  0  0  0  0  0  0  0  0  0  0
  187.3710  178.4130  140.0590 N   0  0  0  0  0  0  0  0  0  0  0  0
  189.3020  177.6030  146.8610 C   0  0  0  0  0  0  0  0  0  0  0  0
  190.2800  177.6600  147.6570 O   0  0  0  0  0  0  0  0  0  0  0  0
  188.0780  178.1830  147.1930 O   0  0  0  0  0  0  0  0  0  0  0  0
  187.6850  178.3810  148.5420 C   0  0  0  0  0  1  0  0  0  0  0  0
  186.4080  178.6980  137.7430 C   0  0  0  0  0  2  0  0  0  0  0  0
  183.3550  174.9150  137.5570 C   0  0  0  0  0  1  0  0  0  0  0  0
  184.8280  176.8870  137.7210 N   0  0  0  0  0  0  0  0  0  0  0  0
  184.2150  178.8590  138.8420 C   0  0  0  0  0  0  0  0  0  0  0  0
  182.9810  178.2980  139.1690 C   0  0  0  0  0  3  0  0  0  0  0  0
  182.6890  177.0030  138.7520 C   0  0  0  0  0  3  0  0  0  0  0  0
  183.6400  176.2990  138.0170 C   0  0  0  0  0  0  0  0  0  0  0  0
  184.4820  180.0310  139.2210 O   0  0  0  0  0  0  0  0  0  0  0  0
  185.1180  178.1300  138.1170 N   0  0  0  0  0  0  0  0  0  0  0  0
  1  7  1  6  0  0  0
  1 15  1  0  0  0  0
  2 18  1  0  0  0  0
  3  8  2  0  0  0  0
  4 16  1  0  0  0  0
  4  3  1  0  0  0  0
  5 14  2  0  0  0  0
  8 10  1  0  0  0  0
  9  2  1  0  0  0  0
  9  6  2  0  0  0  0
 10  9  1  0  0  0  0
 11 19  1  0  0  0  0
 12 20  1  1  0  0  0
 13  6  1  6  0  0  0
 13  5  1  0  0  0  0
 13  1  1  0  0  0  0
 14 12  1  0  0  0  0
 15 12  1  0  0  0  0
 16 17  1  0  0  0  0
 17 11  2  0  0  0  0
 17 10  1  0  0  0  0
 18  5  1  0  0  0  0
 19  2  2  0  0  0  0
 20 22  1  0  0  0  0
 20 21  2  0  0  0  0
 22 23  1  0  0  0  0
 24 32  1  0  0  0  0
 24 11  1  0  0  0  0
 25 30  1  0  0  0  0
 26 30  2  0  0  0  0
 26 32  1  0  0  0  0
 27 28  1  0  0  0  0
 27 31  2  0  0  0  0
 29 28  2  0  0  0  0
 30 29  1  0  0  0  0
 32 27  1  0  0  0  0
M  END
>  <MODEL>
9

>  <REMARK>
 VINA RESULT:      -8.8      2.666      5.135
  Name = 
  4 active torsions:
  status: ('A' for Active; 'I' for Inactive)
    1  A    between atoms: C_1  and  O_10
    2  A    between atoms: C_1  and  C_19
    3  A    between atoms: C_16  and  C_27
    4  A    between atoms: C_27  and  N_32
                            x       y       z     vdW  Elec       q    Type
                         _______ _______ _______ _____ _____    ______ ____

>  <TORSDO>
F 4

$$$$
