=
 OpenBabel10272415233D

 34 39  0  0  1  0  0  0  0  0999 V2000
  183.1420  177.7330  138.6650 C   0  0  0  0  0  0  0  0  0  0  0  0
  185.6740  175.7400  136.9190 C   0  0  0  0  0  2  0  0  0  0  0  0
  183.2440  175.1720  137.4070 O   0  0  0  0  0  0  0  0  0  0  0  0
  180.7360  176.9560  139.0700 C   0  0  0  0  0  3  0  0  0  0  0  0
  180.1190  175.7950  138.7110 N   0  0  0  0  0  0  0  0  0  0  0  0
  182.1230  175.6090  137.9720 C   0  0  0  0  0  0  0  0  0  0  0  0
  182.0320  176.8880  138.6150 C   0  0  0  0  0  0  0  0  0  0  0  0
  180.9440  174.9820  138.0510 N   0  0  0  0  0  0  0  0  0  0  0  0
  186.4490  176.9490  137.2910 N   0  0  2  0  0  0  0  0  0  0  0  0
  184.3120  175.9750  137.4570 C   0  0  0  0  0  0  0  0  0  0  0  0
  185.5430  177.7730  137.9460 O   0  0  0  0  0  0  0  0  0  0  0  0
  184.2960  177.2090  138.0560 C   0  0  0  0  0  0  0  0  0  0  0  0
  188.3200  177.4970  135.7920 C   0  0  2  0  0  0  0  0  0  0  0  0
  188.7100  177.6150  134.4590 O   0  0  0  0  0  1  0  0  0  0  0  0
  189.4160  176.5860  136.9260 S   0  0  0  0  0  1  0  0  0  0  0  0
  186.8270  177.6180  136.0520 C   0  0  2  0  0  3  0  0  0  0  0  0
  187.7700  178.7810  136.3580 C   0  0  0  0  0  2  0  0  0  0  0  0
  183.1230  179.0590  139.3500 C   0  0  0  0  0  2  0  0  0  0  0  0
  184.0630  179.0570  140.5050 C   0  0  0  0  0  0  0  0  0  0  0  0
  185.1600  179.6680  140.4120 O   0  0  0  0  0  0  0  0  0  0  0  0
  183.6830  178.3890  141.7150 N   0  0  0  0  0  2  0  0  0  0  0  0
  184.5120  178.6990  145.3370 C   0  0  0  0  0  3  0  0  0  0  0  0
  185.7640  177.8840  142.9670 C   0  0  0  0  0  3  0  0  0  0  0  0
  187.8640  177.7680  146.6080 C   0  0  0  0  0  0  0  0  0  0  0  0
  186.5360  178.2150  146.5760 C   0  0  0  0  0  3  0  0  0  0  0  0
  185.8350  178.2540  145.3690 C   0  0  0  0  0  0  0  0  0  0  0  0
  187.7900  177.3990  144.2040 C   0  0  0  0  0  3  0  0  0  0  0  0
  186.4670  177.8430  144.1740 C   0  0  0  0  0  0  0  0  0  0  0  0
  188.4860  177.3620  145.4170 C   0  0  0  0  0  3  0  0  0  0  0  0
  184.4340  178.3300  142.9350 C   0  0  0  0  0  0  0  0  0  0  0  0
  183.8160  178.7360  144.1240 C   0  0  0  0  0  3  0  0  0  0  0  0
  188.5980  177.7280  147.8840 C   0  0  0  0  0  0  0  0  0  0  0  0
  188.0100  177.9890  148.9670 O   0  0  0  0  0  1  0  0  0  0  0  0
  189.9490  177.4010  147.9050 O   0  0  0  0  0  0  0  0  0  0  0  0
  1 18  1  0  0  0  0
  2 10  1  0  0  0  0
  3 10  1  0  0  0  0
  3  6  1  0  0  0  0
  5  4  2  0  0  0  0
  6  8  2  0  0  0  0
  6  7  1  0  0  0  0
  7  1  2  0  0  0  0
  7  4  1  0  0  0  0
  8  5  1  0  0  0  0
  9  2  1  6  0  0  0
  9 11  1  0  0  0  0
 10 12  2  0  0  0  0
 11 12  1  0  0  0  0
 12  1  1  0  0  0  0
 13 14  1  6  0  0  0
 13 16  1  0  0  0  0
 13 17  1  0  0  0  0
 13 15  1  0  0  0  0
 16 17  1  1  0  0  0
 16  9  1  0  0  0  0
 18 19  1  0  0  0  0
 19 21  1  0  0  0  0
 20 19  2  0  0  0  0
 21 30  1  0  0  0  0
 22 26  1  0  0  0  0
 23 28  1  0  0  0  0
 24 32  1  0  0  0  0
 25 24  1  0  0  0  0
 26 25  2  0  0  0  0
 27 29  1  0  0  0  0
 28 27  2  0  0  0  0
 28 26  1  0  0  0  0
 29 24  2  0  0  0  0
 30 23  2  0  0  0  0
 30 31  1  0  0  0  0
 31 22  2  0  0  0  0
 32 34  2  0  0  0  0
 32 33  1  0  0  0  0
M  END
>  <MODEL>
1

>  <REMARK>
 VINA RESULT:      -9.6      0.000      0.000
  Name = 
  5 active torsions:
  status: ('A' for Active; 'I' for Inactive)
    1  A    between atoms: C_1  and  C_9
    2  A    between atoms: C_7  and  C_11
    3  A    between atoms: C_8  and  C_9
    4  A    between atoms: N_18  and  C_30
    5  A    between atoms: N_23  and  C_25
                            x       y       z     vdW  Elec       q    Type
                         _______ _______ _______ _____ _____    ______ ____

>  <TORSDO>
F 5

$$$$
=
 OpenBabel10272415233D

 34 39  0  0  1  0  0  0  0  0999 V2000
  190.1890  176.2150  137.3290 C   0  0  0  0  0  0  0  0  0  0  0  0
  188.5090  173.0710  136.4800 C   0  0  0  0  0  2  0  0  0  0  0  0
  190.9440  173.4720  137.0890 O   0  0  0  0  0  0  0  0  0  0  0  0
  192.6800  176.4010  137.8960 C   0  0  0  0  0  3  0  0  0  0  0  0
  193.6370  175.4320  137.9640 N   0  0  0  0  0  0  0  0  0  0  0  0
  191.8380  174.3980  137.4230 C   0  0  0  0  0  0  0  0  0  0  0  0
  191.4980  175.7850  137.5530 C   0  0  0  0  0  0  0  0  0  0  0  0
  193.1390  174.2280  137.6820 N   0  0  0  0  0  0  0  0  0  0  0  0
  187.4010  174.0490  136.3440 N   0  0  2  0  0  0  0  0  0  0  0  0
  189.6900  173.8800  136.8670 C   0  0  0  0  0  0  0  0  0  0  0  0
  187.9590  175.2780  136.6750 O   0  0  0  0  0  0  0  0  0  0  0  0
  189.2970  175.1890  136.9720 C   0  0  0  0  0  0  0  0  0  0  0  0
  185.1780  173.0860  136.7670 C   0  0  2  0  0  0  0  0  0  0  0  0
  184.4320  172.2880  137.6330 O   0  0  0  0  0  1  0  0  0  0  0  0
  185.0440  172.7640  134.9800 S   0  0  0  0  0  1  0  0  0  0  0  0
  186.4150  173.7310  137.3700 C   0  0  2  0  0  3  0  0  0  0  0  0
  185.1440  174.5460  137.1390 C   0  0  0  0  0  2  0  0  0  0  0  0
  189.7800  177.6480  137.4110 C   0  0  0  0  0  2  0  0  0  0  0  0
  189.4940  178.0220  138.8240 C   0  0  0  0  0  0  0  0  0  0  0  0
  188.9160  179.1140  139.0710 O   0  0  0  0  0  0  0  0  0  0  0  0
  189.8510  177.1150  139.8750 N   0  0  0  0  0  2  0  0  0  0  0  0
  190.5060  177.6540  143.5050 C   0  0  0  0  0  3  0  0  0  0  0  0
  188.3100  177.2490  141.8130 C   0  0  0  0  0  3  0  0  0  0  0  0
  187.7210  177.7500  145.9460 C   0  0  0  0  0  0  0  0  0  0  0  0
  189.0160  177.7850  145.4110 C   0  0  0  0  0  3  0  0  0  0  0  0
  189.2150  177.6190  144.0390 C   0  0  0  0  0  0  0  0  0  0  0  0
  186.8180  177.3790  143.7180 C   0  0  0  0  0  3  0  0  0  0  0  0
  188.1080  177.4150  143.1860 C   0  0  0  0  0  0  0  0  0  0  0  0
  186.6260  177.5460  145.0930 C   0  0  0  0  0  3  0  0  0  0  0  0
  189.6060  177.2850  141.2770 C   0  0  0  0  0  0  0  0  0  0  0  0
  190.6970  177.4880  142.1300 C   0  0  0  0  0  3  0  0  0  0  0  0
  187.5170  177.9260  147.3940 C   0  0  0  0  0  0  0  0  0  0  0  0
  186.5950  178.6700  147.8230 O   0  0  0  0  0  0  0  0  0  0  0  0
  188.3410  177.2710  148.3020 O   0  0  0  0  0  1  0  0  0  0  0  0
  1 18  1  0  0  0  0
  1  7  2  0  0  0  0
  2 10  1  0  0  0  0
  3  6  1  0  0  0  0
  4  5  2  0  0  0  0
  6  7  1  0  0  0  0
  6  8  2  0  0  0  0
  7  4  1  0  0  0  0
  8  5  1  0  0  0  0
  9  2  1  1  0  0  0
  9 11  1  0  0  0  0
  9 16  1  0  0  0  0
 10 12  2  0  0  0  0
 10  3  1  0  0  0  0
 11 12  1  0  0  0  0
 12  1  1  0  0  0  0
 13 15  1  6  0  0  0
 13 17  1  0  0  0  0
 13 16  1  0  0  0  0
 13 14  1  0  0  0  0
 16 17  1  6  0  0  0
 18 19  1  0  0  0  0
 19 20  2  0  0  0  0
 19 21  1  0  0  0  0
 21 30  1  0  0  0  0
 22 26  1  0  0  0  0
 23 28  1  0  0  0  0
 24 32  1  0  0  0  0
 25 24  1  0  0  0  0
 26 25  2  0  0  0  0
 27 29  1  0  0  0  0
 28 27  2  0  0  0  0
 28 26  1  0  0  0  0
 29 24  2  0  0  0  0
 30 23  2  0  0  0  0
 30 31  1  0  0  0  0
 31 22  2  0  0  0  0
 32 33  2  0  0  0  0
 32 34  1  0  0  0  0
M  END
>  <MODEL>
2

>  <REMARK>
 VINA RESULT:      -9.2      3.611      6.335
  Name = 
  5 active torsions:
  status: ('A' for Active; 'I' for Inactive)
    1  A    between atoms: C_1  and  C_9
    2  A    between atoms: C_7  and  C_11
    3  A    between atoms: C_8  and  C_9
    4  A    between atoms: N_18  and  C_30
    5  A    between atoms: N_23  and  C_25
                            x       y       z     vdW  Elec       q    Type
                         _______ _______ _______ _____ _____    ______ ____

>  <TORSDO>
F 5

$$$$
=
 OpenBabel10272415233D

 34 39  0  0  1  0  0  0  0  0999 V2000
  188.4850  176.5840  137.4700 C   0  0  0  0  0  0  0  0  0  0  0  0
  184.9170  175.9290  136.9580 C   0  0  0  0  0  2  0  0  0  0  0  0
  186.8820  174.3280  136.7700 O   0  0  0  0  0  0  0  0  0  0  0  0
  190.3190  174.8160  137.2070 C   0  0  0  0  0  3  0  0  0  0  0  0
  190.2220  173.4960  136.8770 N   0  0  0  0  0  0  0  0  0  0  0  0
  188.2040  174.2190  136.8700 C   0  0  0  0  0  0  0  0  0  0  0  0
  189.0430  175.3300  137.2180 C   0  0  0  0  0  0  0  0  0  0  0  0
  188.9560  173.1310  136.6750 N   0  0  0  0  0  0  0  0  0  0  0  0
  184.9130  177.3790  137.2740 N   0  0  2  0  0  0  0  0  0  0  0  0
  186.3440  175.5290  137.0050 C   0  0  0  0  0  0  0  0  0  0  0  0
  186.2440  177.7030  137.5050 O   0  0  0  0  0  0  0  0  0  0  0  0
  187.0870  176.6320  137.3410 C   0  0  0  0  0  0  0  0  0  0  0  0
  182.7270  177.8370  138.3040 C   0  0  2  0  0  0  0  0  0  0  0  0
  181.8750  177.5030  139.3560 O   0  0  0  0  0  1  0  0  0  0  0  0
  182.0220  177.9210  136.6270 S   0  0  0  0  0  1  0  0  0  0  0  0
  184.2010  177.5450  138.5350 C   0  0  2  0  0  3  0  0  0  0  0  0
  183.6610  178.9710  138.6420 C   0  0  0  0  0  2  0  0  0  0  0  0
  189.3070  177.7860  137.8010 C   0  0  0  0  0  2  0  0  0  0  0  0
  189.2000  178.1000  139.2520 C   0  0  0  0  0  0  0  0  0  0  0  0
  188.5430  179.1100  139.6200 O   0  0  0  0  0  0  0  0  0  0  0  0
  189.8180  177.2250  140.2050 N   0  0  0  0  0  2  0  0  0  0  0  0
  190.9760  177.6540  143.7230 C   0  0  0  0  0  3  0  0  0  0  0  0
  188.5670  177.2600  142.3470 C   0  0  0  0  0  3  0  0  0  0  0  0
  188.5670  177.6070  146.5370 C   0  0  0  0  0  0  0  0  0  0  0  0
  189.7720  177.6880  145.8250 C   0  0  0  0  0  3  0  0  0  0  0  0
  189.7760  177.5730  144.4330 C   0  0  0  0  0  0  0  0  0  0  0  0
  187.3610  177.2940  144.4480 C   0  0  0  0  0  3  0  0  0  0  0  0
  188.5610  177.3750  143.7390 C   0  0  0  0  0  0  0  0  0  0  0  0
  187.3650  177.4090  145.8410 C   0  0  0  0  0  3  0  0  0  0  0  0
  189.7730  177.3420  141.6330 C   0  0  0  0  0  0  0  0  0  0  0  0
  190.9720  177.5390  142.3290 C   0  0  0  0  0  3  0  0  0  0  0  0
  188.5690  177.7290  148.0040 C   0  0  0  0  0  0  0  0  0  0  0  0
  187.6800  177.1620  148.6940 O   0  0  0  0  0  1  0  0  0  0  0  0
  189.5550  178.4720  148.6440 O   0  0  0  0  0  0  0  0  0  0  0  0
  1 18  1  0  0  0  0
  2 10  1  0  0  0  0
  3  6  1  0  0  0  0
  3 10  1  0  0  0  0
  4  7  1  0  0  0  0
  5  4  2  0  0  0  0
  6  7  1  0  0  0  0
  7  1  2  0  0  0  0
  8  6  2  0  0  0  0
  8  5  1  0  0  0  0
  9  2  1  1  0  0  0
  9 11  1  0  0  0  0
  9 16  1  0  0  0  0
 10 12  2  0  0  0  0
 12  1  1  0  0  0  0
 12 11  1  0  0  0  0
 13 15  1  6  0  0  0
 13 16  1  0  0  0  0
 13 17  1  0  0  0  0
 13 14  1  0  0  0  0
 16 17  1  6  0  0  0
 18 19  1  0  0  0  0
 19 20  2  0  0  0  0
 19 21  1  0  0  0  0
 21 30  1  0  0  0  0
 22 26  1  0  0  0  0
 23 28  1  0  0  0  0
 24 32  1  0  0  0  0
 25 24  2  0  0  0  0
 26 25  1  0  0  0  0
 27 29  2  0  0  0  0
 28 26  2  0  0  0  0
 28 27  1  0  0  0  0
 29 24  1  0  0  0  0
 30 31  1  0  0  0  0
 30 23  2  0  0  0  0
 31 22  2  0  0  0  0
 32 34  2  0  0  0  0
 32 33  1  0  0  0  0
M  END
>  <MODEL>
3

>  <REMARK>
 VINA RESULT:      -9.1      2.800      5.259
  Name = 
  5 active torsions:
  status: ('A' for Active; 'I' for Inactive)
    1  A    between atoms: C_1  and  C_9
    2  A    between atoms: C_7  and  C_11
    3  A    between atoms: C_8  and  C_9
    4  A    between atoms: N_18  and  C_30
    5  A    between atoms: N_23  and  C_25
                            x       y       z     vdW  Elec       q    Type
                         _______ _______ _______ _____ _____    ______ ____

>  <TORSDO>
F 5

$$$$
=
 OpenBabel10272415233D

 34 39  0  0  1  0  0  0  0  0999 V2000
  189.1060  176.5610  137.3960 C   0  0  0  0  0  0  0  0  0  0  0  0
  191.2080  173.5910  136.9660 C   0  0  0  0  0  2  0  0  0  0  0  0
  188.6880  173.8190  136.7210 O   0  0  0  0  0  0  0  0  0  0  0  0
  186.5600  176.5680  137.1210 C   0  0  0  0  0  3  0  0  0  0  0  0
  185.7130  175.5520  136.7920 N   0  0  0  0  0  0  0  0  0  0  0  0
  187.6650  174.6650  136.7990 C   0  0  0  0  0  0  0  0  0  0  0  0
  187.8340  176.0490  137.1370 C   0  0  0  0  0  0  0  0  0  0  0  0
  186.3680  174.4080  136.5970 N   0  0  0  0  0  0  0  0  0  0  0  0
  192.2110  174.6140  137.3490 N   0  0  2  0  0  0  0  0  0  0  0  0
  189.9080  174.3040  136.9750 C   0  0  0  0  0  0  0  0  0  0  0  0
  191.4870  175.7890  137.5110 O   0  0  0  0  0  0  0  0  0  0  0  0
  190.1410  175.6150  137.3040 C   0  0  0  0  0  0  0  0  0  0  0  0
  194.4900  174.2700  136.4880 C   0  0  2  0  0  0  0  0  0  0  0  0
  195.2380  173.9160  135.3670 O   0  0  0  0  0  1  0  0  0  0  0  0
  194.9050  173.4820  138.0770 S   0  0  0  0  0  1  0  0  0  0  0  0
  193.0950  174.8040  136.2040 C   0  0  2  0  0  3  0  0  0  0  0  0
  194.2330  175.7520  136.5790 C   0  0  0  0  0  2  0  0  0  0  0  0
  189.3450  177.9820  137.7880 C   0  0  0  0  0  2  0  0  0  0  0  0
  189.1390  178.1550  139.2530 C   0  0  0  0  0  0  0  0  0  0  0  0
  188.1280  178.7830  139.6650 O   0  0  0  0  0  0  0  0  0  0  0  0
  190.0760  177.5710  140.1660 N   0  0  0  0  0  2  0  0  0  0  0  0
  191.1810  177.6670  143.7260 C   0  0  0  0  0  3  0  0  0  0  0  0
  188.7830  177.5510  142.2820 C   0  0  0  0  0  3  0  0  0  0  0  0
  188.7110  177.6050  146.4850 C   0  0  0  0  0  0  0  0  0  0  0  0
  189.9340  177.6450  145.8030 C   0  0  0  0  0  3  0  0  0  0  0  0
  189.9620  177.6270  144.4060 C   0  0  0  0  0  0  0  0  0  0  0  0
  187.5340  177.5280  144.3580 C   0  0  0  0  0  3  0  0  0  0  0  0
  188.7530  177.5680  143.6780 C   0  0  0  0  0  0  0  0  0  0  0  0
  187.5130  177.5470  145.7560 C   0  0  0  0  0  3  0  0  0  0  0  0
  190.0070  177.5920  141.5980 C   0  0  0  0  0  0  0  0  0  0  0  0
  191.2010  177.6490  142.3270 C   0  0  0  0  0  3  0  0  0  0  0  0
  188.6880  177.6250  147.9580 C   0  0  0  0  0  0  0  0  0  0  0  0
  187.8540  176.9250  148.5930 O   0  0  0  0  0  0  0  0  0  0  0  0
  189.5880  178.4160  148.6620 O   0  0  0  0  0  1  0  0  0  0  0  0
  1 18  1  0  0  0  0
  2 10  1  0  0  0  0
  3  6  1  0  0  0  0
  3 10  1  0  0  0  0
  4  7  1  0  0  0  0
  5  4  2  0  0  0  0
  6  7  1  0  0  0  0
  7  1  2  0  0  0  0
  8  5  1  0  0  0  0
  8  6  2  0  0  0  0
  9  2  1  6  0  0  0
  9 11  1  0  0  0  0
 10 12  2  0  0  0  0
 12  1  1  0  0  0  0
 12 11  1  0  0  0  0
 13 14  1  6  0  0  0
 13 17  1  0  0  0  0
 13 15  1  0  0  0  0
 16 13  1  0  0  0  0
 16 17  1  1  0  0  0
 16  9  1  0  0  0  0
 18 19  1  0  0  0  0
 19 20  2  0  0  0  0
 19 21  1  0  0  0  0
 21 30  1  0  0  0  0
 22 26  1  0  0  0  0
 23 28  1  0  0  0  0
 24 32  1  0  0  0  0
 25 24  1  0  0  0  0
 26 25  2  0  0  0  0
 27 29  1  0  0  0  0
 28 27  2  0  0  0  0
 28 26  1  0  0  0  0
 29 24  2  0  0  0  0
 30 23  2  0  0  0  0
 30 31  1  0  0  0  0
 31 22  2  0  0  0  0
 32 33  2  0  0  0  0
 32 34  1  0  0  0  0
M  END
>  <MODEL>
4

>  <REMARK>
 VINA RESULT:      -8.8      3.713      5.400
  Name = 
  5 active torsions:
  status: ('A' for Active; 'I' for Inactive)
    1  A    between atoms: C_1  and  C_9
    2  A    between atoms: C_7  and  C_11
    3  A    between atoms: C_8  and  C_9
    4  A    between atoms: N_18  and  C_30
    5  A    between atoms: N_23  and  C_25
                            x       y       z     vdW  Elec       q    Type
                         _______ _______ _______ _____ _____    ______ ____

>  <TORSDO>
F 5

$$$$
=
 OpenBabel10272415233D

 34 39  0  0  1  0  0  0  0  0999 V2000
  188.5510  176.4210  137.4190 C   0  0  0  0  0  0  0  0  0  0  0  0
  184.9930  175.7970  136.8030 C   0  0  0  0  0  2  0  0  0  0  0  0
  186.9570  174.1930  136.6150 O   0  0  0  0  0  0  0  0  0  0  0  0
  190.3840  174.6530  137.1480 C   0  0  0  0  0  3  0  0  0  0  0  0
  190.2890  173.3440  136.7780 N   0  0  0  0  0  0  0  0  0  0  0  0
  188.2750  174.0760  136.7440 C   0  0  0  0  0  0  0  0  0  0  0  0
  189.1100  175.1720  137.1440 C   0  0  0  0  0  0  0  0  0  0  0  0
  189.0270  172.9910  136.5350 N   0  0  0  0  0  0  0  0  0  0  0  0
  184.9870  177.2370  137.1610 N   0  0  2  0  0  0  0  0  0  0  0  0
  186.4170  175.3890  136.8720 C   0  0  0  0  0  0  0  0  0  0  0  0
  186.3130  177.5490  137.4330 O   0  0  0  0  0  0  0  0  0  0  0  0
  187.1560  176.4790  137.2580 C   0  0  0  0  0  0  0  0  0  0  0  0
  182.7850  177.7030  138.1520 C   0  0  2  0  0  0  0  0  0  0  0  0
  181.8990  177.3470  139.1670 O   0  0  0  0  0  1  0  0  0  0  0  0
  182.1270  177.8690  136.4620 S   0  0  0  0  0  1  0  0  0  0  0  0
  184.2450  177.3700  138.4090 C   0  0  2  0  0  3  0  0  0  0  0  0
  183.7340  178.8020  138.5590 C   0  0  0  0  0  2  0  0  0  0  0  0
  189.3690  177.6090  137.8050 C   0  0  0  0  0  2  0  0  0  0  0  0
  189.0990  177.9830  139.2210 C   0  0  0  0  0  0  0  0  0  0  0  0
  188.6540  179.1320  139.4840 O   0  0  0  0  0  0  0  0  0  0  0  0
  189.3170  177.0140  140.2550 N   0  0  0  0  0  2  0  0  0  0  0  0
  187.4800  177.7100  143.4240 C   0  0  0  0  0  3  0  0  0  0  0  0
  190.0700  177.0080  142.6180 C   0  0  0  0  0  3  0  0  0  0  0  0
  189.2030  177.5380  146.6980 C   0  0  0  0  0  0  0  0  0  0  0  0
  188.1980  177.7120  145.7370 C   0  0  0  0  0  3  0  0  0  0  0  0
  188.4820  177.5370  144.3810 C   0  0  0  0  0  0  0  0  0  0  0  0
  190.7900  177.0100  144.9320 C   0  0  0  0  0  3  0  0  0  0  0  0
  189.7880  177.1830  143.9750 C   0  0  0  0  0  0  0  0  0  0  0  0
  190.4980  177.1860  146.2880 C   0  0  0  0  0  3  0  0  0  0  0  0
  189.0630  177.1810  141.6560 C   0  0  0  0  0  0  0  0  0  0  0  0
  187.7720  177.5320  142.0670 C   0  0  0  0  0  3  0  0  0  0  0  0
  188.8980  177.7230  148.1260 C   0  0  0  0  0  0  0  0  0  0  0  0
  189.6870  178.3650  148.8700 O   0  0  0  0  0  1  0  0  0  0  0  0
  187.7330  177.1920  148.6680 O   0  0  0  0  0  0  0  0  0  0  0  0
  1 18  1  0  0  0  0
  2 10  1  0  0  0  0
  3  6  1  0  0  0  0
  3 10  1  0  0  0  0
  5  4  2  0  0  0  0
  6  7  1  0  0  0  0
  7  4  1  0  0  0  0
  7  1  2  0  0  0  0
  8  6  2  0  0  0  0
  8  5  1  0  0  0  0
  9  2  1  1  0  0  0
  9 11  1  0  0  0  0
  9 16  1  0  0  0  0
 10 12  2  0  0  0  0
 12  1  1  0  0  0  0
 12 11  1  0  0  0  0
 13 15  1  6  0  0  0
 13 16  1  0  0  0  0
 13 17  1  0  0  0  0
 13 14  1  0  0  0  0
 16 17  1  1  0  0  0
 18 19  1  0  0  0  0
 19 20  2  0  0  0  0
 19 21  1  0  0  0  0
 21 30  1  0  0  0  0
 22 26  1  0  0  0  0
 23 28  1  0  0  0  0
 24 32  1  0  0  0  0
 25 24  2  0  0  0  0
 26 25  1  0  0  0  0
 27 29  2  0  0  0  0
 28 26  2  0  0  0  0
 28 27  1  0  0  0  0
 29 24  1  0  0  0  0
 30 31  1  0  0  0  0
 30 23  2  0  0  0  0
 31 22  2  0  0  0  0
 32 34  2  0  0  0  0
 32 33  1  0  0  0  0
M  END
>  <MODEL>
5

>  <REMARK>
 VINA RESULT:      -8.6      2.779      5.120
  Name = 
  5 active torsions:
  status: ('A' for Active; 'I' for Inactive)
    1  A    between atoms: C_1  and  C_9
    2  A    between atoms: C_7  and  C_11
    3  A    between atoms: C_8  and  C_9
    4  A    between atoms: N_18  and  C_30
    5  A    between atoms: N_23  and  C_25
                            x       y       z     vdW  Elec       q    Type
                         _______ _______ _______ _____ _____    ______ ____

>  <TORSDO>
F 5

$$$$
=
 OpenBabel10272415233D

 34 39  0  0  1  0  0  0  0  0999 V2000
  188.0000  177.0730  136.6440 C   0  0  0  0  0  0  0  0  0  0  0  0
  184.3930  176.7530  137.2080 C   0  0  0  0  0  2  0  0  0  0  0  0
  185.9780  175.1540  136.0270 O   0  0  0  0  0  0  0  0  0  0  0  0
  189.4150  175.3380  135.4000 C   0  0  0  0  0  3  0  0  0  0  0  0
  189.0490  174.1530  134.8350 N   0  0  0  0  0  0  0  0  0  0  0  0
  187.2390  174.9560  135.6570 C   0  0  0  0  0  0  0  0  0  0  0  0
  188.2830  175.8970  135.9470 C   0  0  0  0  0  0  0  0  0  0  0  0
  187.7460  173.9170  134.9860 N   0  0  0  0  0  0  0  0  0  0  0  0
  184.6770  178.0740  137.8230 N   0  0  2  0  0  0  0  0  0  0  0  0
  185.7000  176.2820  136.6890 C   0  0  0  0  0  0  0  0  0  0  0  0
  186.0450  178.2600  137.6670 O   0  0  0  0  0  0  0  0  0  0  0  0
  186.6480  177.2240  136.9980 C   0  0  0  0  0  0  0  0  0  0  0  0
  183.0930  178.5960  139.6310 C   0  0  2  0  0  0  0  0  0  0  0  0
  182.4980  178.1110  140.7940 O   0  0  0  0  0  1  0  0  0  0  0  0
  182.0210  179.3780  138.3840 S   0  0  0  0  0  1  0  0  0  0  0  0
  184.4160  177.9500  139.2520 C   0  0  2  0  0  3  0  0  0  0  0  0
  184.3800  179.3360  139.8950 C   0  0  0  0  0  2  0  0  0  0  0  0
  189.0330  178.1080  136.9440 C   0  0  0  0  0  2  0  0  0  0  0  0
  189.1040  178.3540  138.4110 C   0  0  0  0  0  0  0  0  0  0  0  0
  188.9820  179.5290  138.8480 O   0  0  0  0  0  0  0  0  0  0  0  0
  189.2750  177.2430  139.3010 N   0  0  0  0  0  2  0  0  0  0  0  0
  188.1580  177.7640  142.8200 C   0  0  0  0  0  3  0  0  0  0  0  0
  190.4610  176.9340  141.4570 C   0  0  0  0  0  3  0  0  0  0  0  0
  190.4490  177.1180  145.6570 C   0  0  0  0  0  0  0  0  0  0  0  0
  189.3010  177.4710  144.9350 C   0  0  0  0  0  3  0  0  0  0  0  0
  189.3020  177.4120  143.5400 C   0  0  0  0  0  0  0  0  0  0  0  0
  191.6070  176.6410  143.5720 C   0  0  0  0  0  3  0  0  0  0  0  0
  190.4630  176.9930  142.8520 C   0  0  0  0  0  0  0  0  0  0  0  0
  191.5990  176.7030  144.9680 C   0  0  0  0  0  3  0  0  0  0  0  0
  189.3120  177.2880  140.7330 C   0  0  0  0  0  0  0  0  0  0  0  0
  188.1660  177.7010  141.4220 C   0  0  0  0  0  3  0  0  0  0  0  0
  190.4430  177.1820  147.1280 C   0  0  0  0  0  0  0  0  0  0  0  0
  189.3880  177.4800  147.7500 O   0  0  0  0  0  0  0  0  0  0  0  0
  191.6030  176.9130  147.8460 O   0  0  0  0  0  1  0  0  0  0  0  0
  1 18  1  0  0  0  0
  1 12  1  0  0  0  0
  3 10  1  0  0  0  0
  4  7  1  0  0  0  0
  5  8  1  0  0  0  0
  5  4  2  0  0  0  0
  6  7  1  0  0  0  0
  6  3  1  0  0  0  0
  7  1  2  0  0  0  0
  8  6  2  0  0  0  0
  9  2  1  6  0  0  0
  9 16  1  0  0  0  0
 10 12  2  0  0  0  0
 10  2  1  0  0  0  0
 11  9  1  0  0  0  0
 12 11  1  0  0  0  0
 13 15  1  6  0  0  0
 13 17  1  0  0  0  0
 13 14  1  0  0  0  0
 16 13  1  0  0  0  0
 16 17  1  1  0  0  0
 18 19  1  0  0  0  0
 19 20  2  0  0  0  0
 19 21  1  0  0  0  0
 21 30  1  0  0  0  0
 22 26  1  0  0  0  0
 23 28  1  0  0  0  0
 24 32  1  0  0  0  0
 25 24  2  0  0  0  0
 26 25  1  0  0  0  0
 27 29  2  0  0  0  0
 28 26  2  0  0  0  0
 28 27  1  0  0  0  0
 29 24  1  0  0  0  0
 30 31  1  0  0  0  0
 30 23  2  0  0  0  0
 31 22  2  0  0  0  0
 32 33  2  0  0  0  0
 32 34  1  0  0  0  0
M  END
>  <MODEL>
6

>  <REMARK>
 VINA RESULT:      -8.4      2.971      5.222
  Name = 
  5 active torsions:
  status: ('A' for Active; 'I' for Inactive)
    1  A    between atoms: C_1  and  C_9
    2  A    between atoms: C_7  and  C_11
    3  A    between atoms: C_8  and  C_9
    4  A    between atoms: N_18  and  C_30
    5  A    between atoms: N_23  and  C_25
                            x       y       z     vdW  Elec       q    Type
                         _______ _______ _______ _____ _____    ______ ____

>  <TORSDO>
F 5

$$$$
=
 OpenBabel10272415233D

 34 39  0  0  1  0  0  0  0  0999 V2000
  192.5790  175.7450  137.4080 C   0  0  0  0  0  0  0  0  0  0  0  0
  189.3200  175.1650  135.8380 C   0  0  0  0  0  2  0  0  0  0  0  0
  191.2700  173.5590  136.1220 O   0  0  0  0  0  0  0  0  0  0  0  0
  194.4260  173.9790  137.5710 C   0  0  0  0  0  3  0  0  0  0  0  0
  194.4410  172.6860  137.1400 N   0  0  0  0  0  0  0  0  0  0  0  0
  192.5060  173.4290  136.5940 C   0  0  0  0  0  0  0  0  0  0  0  0
  193.1970  174.5050  137.2450 C   0  0  0  0  0  0  0  0  0  0  0  0
  193.2920  172.3490  136.5540 N   0  0  0  0  0  0  0  0  0  0  0  0
  189.2110  176.5900  136.2350 N   0  0  2  0  0  0  0  0  0  0  0  0
  190.6750  174.7470  136.2700 C   0  0  0  0  0  0  0  0  0  0  0  0
  190.4140  176.8840  136.8650 O   0  0  0  0  0  0  0  0  0  0  0  0
  191.2780  175.8170  136.8810 C   0  0  0  0  0  0  0  0  0  0  0  0
  186.8720  177.2270  136.6530 C   0  0  2  0  0  0  0  0  0  0  0  0
  185.7040  176.8790  137.3300 O   0  0  0  0  0  1  0  0  0  0  0  0
  186.7400  177.6630  134.8890 S   0  0  0  0  0  1  0  0  0  0  0  0
  188.1610  176.6790  137.2430 C   0  0  2  0  0  3  0  0  0  0  0  0
  187.7650  178.1400  137.4530 C   0  0  0  0  0  2  0  0  0  0  0  0
  193.2570  176.9130  138.0440 C   0  0  0  0  0  2  0  0  0  0  0  0
  192.9220  176.9790  139.4930 C   0  0  0  0  0  0  0  0  0  0  0  0
  193.8470  176.9130  140.3460 O   0  0  0  0  0  0  0  0  0  0  0  0
  191.5550  177.1520  139.8890 N   0  0  0  0  0  2  0  0  0  0  0  0
  191.5100  177.8040  143.5590 C   0  0  0  0  0  3  0  0  0  0  0  0
  189.7130  177.0510  141.5470 C   0  0  0  0  0  3  0  0  0  0  0  0
  188.3810  177.4710  145.5120 C   0  0  0  0  0  0  0  0  0  0  0  0
  189.7250  177.7070  145.1930 C   0  0  0  0  0  3  0  0  0  0  0  0
  190.1710  177.5680  143.8770 C   0  0  0  0  0  0  0  0  0  0  0  0
  187.9260  176.9530  143.1790 C   0  0  0  0  0  3  0  0  0  0  0  0
  189.2650  177.1890  142.8620 C   0  0  0  0  0  0  0  0  0  0  0  0
  187.4860  177.0940  144.4990 C   0  0  0  0  0  3  0  0  0  0  0  0
  191.0590  177.2880  141.2270 C   0  0  0  0  0  0  0  0  0  0  0  0
  191.9500  177.6630  142.2390 C   0  0  0  0  0  3  0  0  0  0  0  0
  187.9160  177.6190  146.9010 C   0  0  0  0  0  0  0  0  0  0  0  0
  188.5860  177.1370  147.8540 O   0  0  0  0  0  1  0  0  0  0  0  0
  186.7310  178.2940  147.1750 O   0  0  0  0  0  0  0  0  0  0  0  0
  1 18  1  0  0  0  0
  2 10  1  0  0  0  0
  3 10  1  0  0  0  0
  3  6  1  0  0  0  0
  5  4  2  0  0  0  0
  6  7  1  0  0  0  0
  7  1  2  0  0  0  0
  7  4  1  0  0  0  0
  8  6  2  0  0  0  0
  8  5  1  0  0  0  0
  9  2  1  1  0  0  0
  9 11  1  0  0  0  0
  9 16  1  0  0  0  0
 10 12  2  0  0  0  0
 11 12  1  0  0  0  0
 12  1  1  0  0  0  0
 13 15  1  6  0  0  0
 13 16  1  0  0  0  0
 13 14  1  0  0  0  0
 13 17  1  0  0  0  0
 16 17  1  1  0  0  0
 18 19  1  0  0  0  0
 19 21  1  0  0  0  0
 19 20  2  0  0  0  0
 21 30  1  0  0  0  0
 22 26  1  0  0  0  0
 23 28  1  0  0  0  0
 24 32  1  0  0  0  0
 25 24  1  0  0  0  0
 26 25  2  0  0  0  0
 27 29  1  0  0  0  0
 28 27  2  0  0  0  0
 28 26  1  0  0  0  0
 29 24  2  0  0  0  0
 30 23  2  0  0  0  0
 30 31  1  0  0  0  0
 31 22  2  0  0  0  0
 32 34  2  0  0  0  0
 32 33  1  0  0  0  0
M  END
>  <MODEL>
7

>  <REMARK>
 VINA RESULT:      -8.1      4.322      7.211
  Name = 
  5 active torsions:
  status: ('A' for Active; 'I' for Inactive)
    1  A    between atoms: C_1  and  C_9
    2  A    between atoms: C_7  and  C_11
    3  A    between atoms: C_8  and  C_9
    4  A    between atoms: N_18  and  C_30
    5  A    between atoms: N_23  and  C_25
                            x       y       z     vdW  Elec       q    Type
                         _______ _______ _______ _____ _____    ______ ____

>  <TORSDO>
F 5

$$$$
=
 OpenBabel10272415233D

 34 39  0  0  1  0  0  0  0  0999 V2000
  189.4590  177.4510  145.3980 C   0  0  0  0  0  0  0  0  0  0  0  0
  191.0340  177.2690  142.0950 C   0  0  0  0  0  2  0  0  0  0  0  0
  191.8810  176.3900  144.3250 O   0  0  0  0  0  0  0  0  0  0  0  0
  190.5030  176.5100  147.5380 C   0  0  0  0  0  3  0  0  0  0  0  0
  191.6870  175.8580  147.7210 N   0  0  0  0  0  0  0  0  0  0  0  0
  191.6080  176.2860  145.6210 C   0  0  0  0  0  0  0  0  0  0  0  0
  190.4030  176.8080  146.1990 C   0  0  0  0  0  0  0  0  0  0  0  0
  192.3540  175.7190  146.5750 N   0  0  0  0  0  0  0  0  0  0  0  0
  189.7890  178.0170  141.7910 N   0  0  2  0  0  0  0  0  0  0  0  0
  190.9820  177.0110  143.5540 C   0  0  0  0  0  0  0  0  0  0  0  0
  189.1170  178.1090  143.0040 O   0  0  0  0  0  0  0  0  0  0  0  0
  189.8110  177.5330  144.0400 C   0  0  0  0  0  0  0  0  0  0  0  0
  189.6740  176.9510  139.5770 C   0  0  2  0  0  0  0  0  0  0  0  0
  189.2930  175.8000  138.8900 O   0  0  0  0  0  1  0  0  0  0  0  0
  191.3140  177.6580  139.2200 S   0  0  0  0  0  1  0  0  0  0  0  0
  188.9830  177.1770  140.9130 C   0  0  2  0  0  3  0  0  0  0  0  0
  188.5670  177.9700  139.6750 C   0  0  0  0  0  2  0  0  0  0  0  0
  188.2030  178.0470  145.9430 C   0  0  0  0  0  2  0  0  0  0  0  0
  187.0710  177.8120  145.0040 C   0  0  0  0  0  0  0  0  0  0  0  0
  186.8310  176.6420  144.6040 O   0  0  0  0  0  0  0  0  0  0  0  0
  186.2530  178.9190  144.6020 N   0  0  0  0  0  2  0  0  0  0  0  0
  182.6770  178.7830  143.5560 C   0  0  0  0  0  3  0  0  0  0  0  0
  185.2070  178.8520  142.3540 C   0  0  0  0  0  3  0  0  0  0  0  0
  181.7460  178.6960  139.9720 C   0  0  0  0  0  0  0  0  0  0  0  0
  181.6380  178.7140  141.3690 C   0  0  0  0  0  3  0  0  0  0  0  0
  182.7850  178.7660  142.1640 C   0  0  0  0  0  0  0  0  0  0  0  0
  184.1700  178.7830  140.1660 C   0  0  0  0  0  3  0  0  0  0  0  0
  184.0610  178.8000  141.5580 C   0  0  0  0  0  0  0  0  0  0  0  0
  183.0170  178.7310  139.3770 C   0  0  0  0  0  3  0  0  0  0  0  0
  185.0990  178.8710  143.7540 C   0  0  0  0  0  0  0  0  0  0  0  0
  183.8310  178.8350  144.3460 C   0  0  0  0  0  3  0  0  0  0  0  0
  180.5330  178.6430  139.1390 C   0  0  0  0  0  0  0  0  0  0  0  0
  179.9820  177.5380  138.8840 O   0  0  0  0  0  1  0  0  0  0  0  0
  179.9830  179.8120  138.6260 O   0  0  0  0  0  0  0  0  0  0  0  0
  1 18  1  0  0  0  0
  1  7  2  0  0  0  0
  2 10  1  0  0  0  0
  3  6  1  0  0  0  0
  4  5  2  0  0  0  0
  6  7  1  0  0  0  0
  6  8  2  0  0  0  0
  7  4  1  0  0  0  0
  8  5  1  0  0  0  0
  9  2  1  1  0  0  0
  9 11  1  0  0  0  0
 10 12  2  0  0  0  0
 10  3  1  0  0  0  0
 11 12  1  0  0  0  0
 12  1  1  0  0  0  0
 13 14  1  6  0  0  0
 13 17  1  0  0  0  0
 13 16  1  0  0  0  0
 15 13  1  0  0  0  0
 16 17  1  6  0  0  0
 16  9  1  0  0  0  0
 19 18  1  0  0  0  0
 20 19  2  0  0  0  0
 21 19  1  0  0  0  0
 22 31  1  0  0  0  0
 23 30  1  0  0  0  0
 24 25  2  0  0  0  0
 25 26  1  0  0  0  0
 26 22  2  0  0  0  0
 27 28  1  0  0  0  0
 28 26  1  0  0  0  0
 28 23  2  0  0  0  0
 29 24  1  0  0  0  0
 29 27  2  0  0  0  0
 30 31  2  0  0  0  0
 30 21  1  0  0  0  0
 32 24  1  0  0  0  0
 33 32  1  0  0  0  0
 34 32  2  0  0  0  0
M  END
>  <MODEL>
8

>  <REMARK>
 VINA RESULT:      -7.9      3.892      8.335
  Name = 
  5 active torsions:
  status: ('A' for Active; 'I' for Inactive)
    1  A    between atoms: C_1  and  C_9
    2  A    between atoms: C_7  and  C_11
    3  A    between atoms: C_8  and  C_9
    4  A    between atoms: N_18  and  C_30
    5  A    between atoms: N_23  and  C_25
                            x       y       z     vdW  Elec       q    Type
                         _______ _______ _______ _____ _____    ______ ____

>  <TORSDO>
F 5

$$$$
=
 OpenBabel10272415233D

 34 39  0  0  1  0  0  0  0  0999 V2000
  181.1570  179.3340  139.1180 C   0  0  0  0  0  0  0  0  0  0  0  0
  182.1330  177.2350  136.2780 C   0  0  0  0  0  2  0  0  0  0  0  0
  181.4380  179.6800  136.2980 O   0  0  0  0  0  0  0  0  0  0  0  0
  180.4660  181.7920  138.9130 C   0  0  0  0  0  3  0  0  0  0  0  0
  180.3850  182.5890  137.8100 N   0  0  0  0  0  0  0  0  0  0  0  0
  181.0430  180.6870  137.0720 C   0  0  0  0  0  0  0  0  0  0  0  0
  180.8890  180.5520  138.4920 C   0  0  0  0  0  0  0  0  0  0  0  0
  180.7310  181.9330  136.7020 N   0  0  0  0  0  0  0  0  0  0  0  0
  182.2210  176.2730  137.4050 N   0  0  2  0  0  0  0  0  0  0  0  0
  181.6900  178.5090  136.8930 C   0  0  0  0  0  0  0  0  0  0  0  0
  181.8830  177.0080  138.5350 O   0  0  0  0  0  0  0  0  0  0  0  0
  181.5620  178.3110  138.2440 C   0  0  0  0  0  0  0  0  0  0  0  0
  183.9670  174.7240  136.6300 C   0  0  2  0  0  0  0  0  0  0  0  0
  185.3110  174.6120  136.2770 O   0  0  0  0  0  1  0  0  0  0  0  0
  182.7270  173.9760  135.5250 S   0  0  0  0  0  1  0  0  0  0  0  0
  183.6220  175.8920  137.5400 C   0  0  2  0  0  3  0  0  0  0  0  0
  183.7220  174.4730  138.0970 C   0  0  0  0  0  2  0  0  0  0  0  0
  180.9810  179.1200  140.5850 C   0  0  0  0  0  2  0  0  0  0  0  0
  182.3070  178.9680  141.2470 C   0  0  0  0  0  0  0  0  0  0  0  0
  183.3570  179.1500  140.5760 O   0  0  0  0  0  0  0  0  0  0  0  0
  182.3600  178.6520  142.6440 N   0  0  0  0  0  2  0  0  0  0  0  0
  184.5990  178.7820  145.6220 C   0  0  0  0  0  3  0  0  0  0  0  0
  184.7470  178.0420  142.9240 C   0  0  0  0  0  3  0  0  0  0  0  0
  188.1380  177.7140  145.3890 C   0  0  0  0  0  0  0  0  0  0  0  0
  186.9300  178.1940  145.9140 C   0  0  0  0  0  3  0  0  0  0  0  0
  185.8020  178.3040  145.0990 C   0  0  0  0  0  0  0  0  0  0  0  0
  187.0800  177.4530  143.2140 C   0  0  0  0  0  3  0  0  0  0  0  0
  185.8770  177.9310  143.7380 C   0  0  0  0  0  0  0  0  0  0  0  0
  188.2050  177.3450  144.0360 C   0  0  0  0  0  3  0  0  0  0  0  0
  183.5380  178.5210  143.4500 C   0  0  0  0  0  0  0  0  0  0  0  0
  183.4730  178.8890  144.7990 C   0  0  0  0  0  3  0  0  0  0  0  0
  189.3240  177.6000  146.2540 C   0  0  0  0  0  0  0  0  0  0  0  0
  189.2990  178.0400  147.4340 O   0  0  0  0  0  1  0  0  0  0  0  0
  190.4850  177.0040  145.7740 O   0  0  0  0  0  0  0  0  0  0  0  0
  1 18  1  0  0  0  0
  2 10  1  0  0  0  0
  3 10  1  0  0  0  0
  3  6  1  0  0  0  0
  5  4  2  0  0  0  0
  6  7  1  0  0  0  0
  7  4  1  0  0  0  0
  7  1  2  0  0  0  0
  8  6  2  0  0  0  0
  8  5  1  0  0  0  0
  9  2  1  6  0  0  0
  9 16  1  0  0  0  0
  9 11  1  0  0  0  0
 10 12  2  0  0  0  0
 12 11  1  0  0  0  0
 12  1  1  0  0  0  0
 13 15  1  6  0  0  0
 13 16  1  0  0  0  0
 13 17  1  0  0  0  0
 14 13  1  0  0  0  0
 16 17  1  1  0  0  0
 18 19  1  0  0  0  0
 19 21  1  0  0  0  0
 20 19  2  0  0  0  0
 21 30  1  0  0  0  0
 23 30  2  0  0  0  0
 23 28  1  0  0  0  0
 24 25  1  0  0  0  0
 24 32  1  0  0  0  0
 26 22  1  0  0  0  0
 26 25  2  0  0  0  0
 27 28  2  0  0  0  0
 27 29  1  0  0  0  0
 28 26  1  0  0  0  0
 29 24  2  0  0  0  0
 30 31  1  0  0  0  0
 31 22  2  0  0  0  0
 32 33  1  0  0  0  0
 34 32  2  0  0  0  0
M  END
>  <MODEL>
9

>  <REMARK>
 VINA RESULT:      -7.9      2.792      3.680
  Name = 
  5 active torsions:
  status: ('A' for Active; 'I' for Inactive)
    1  A    between atoms: C_1  and  C_9
    2  A    between atoms: C_7  and  C_11
    3  A    between atoms: C_8  and  C_9
    4  A    between atoms: N_18  and  C_30
    5  A    between atoms: N_23  and  C_25
                            x       y       z     vdW  Elec       q    Type
                         _______ _______ _______ _____ _____    ______ ____

>  <TORSDO>
F 5

$$$$
