=
 OpenBabel10272400433D

 25 27  0  0  1  0  0  0  0  0999 V2000
  187.0180  177.4640  145.1580 C   0  0  1  0  0  3  0  0  0  0  0  0
  188.4740  177.7400  144.7240 C   0  0  2  0  0  3  0  0  0  0  0  0
  187.8980  177.7760  147.5170 C   0  0  0  0  0  2  0  0  0  0  0  0
  189.2450  177.3390  147.0370 C   0  0  0  0  0  3  0  0  0  0  0  0
  190.8880  176.9590  145.2900 C   0  0  0  0  0  0  0  0  0  0  0  0
  191.8770  177.2270  146.0240 O   0  0  0  0  0  0  0  0  0  0  0  0
  188.6930  177.2110  143.3050 C   0  0  0  0  0  2  0  0  0  0  0  0
  186.8240  177.1290  146.6510 C   0  0  0  0  0  2  0  0  0  0  0  0
  191.1680  176.2070  143.6890 S   0  0  0  0  0  0  0  0  0  0  0  0
  190.1280  177.4280  142.8440 C   0  0  1  0  0  3  0  0  0  0  0  0
  189.5180  177.2800  145.7300 C   0  0  0  0  0  0  0  0  0  0  0  0
  186.0620  178.5540  144.6590 C   0  0  2  0  0  3  0  0  0  0  0  0
  183.2780  178.7910  143.7180 C   0  0  0  0  0  2  0  0  0  0  0  0
  184.9020  178.8270  145.6050 C   0  0  0  0  0  0  0  0  0  0  0  0
  183.6500  178.9770  145.1600 C   0  0  0  0  0  3  0  0  0  0  0  0
  184.4520  179.1210  142.8080 C   0  0  0  0  0  2  0  0  0  0  0  0
  185.1500  179.0130  146.9590 O   0  0  0  0  0  1  0  0  0  0  0  0
  185.6350  178.2540  143.2160 C   0  0  0  0  0  2  0  0  0  0  0  0
  190.2290  177.2170  141.3710 C   0  0  0  0  0  3  0  0  0  0  0  0
  189.6220  178.0460  140.5210 C   0  0  0  0  0  3  0  0  0  0  0  0
  189.7210  177.8370  139.0430 C   0  0  1  0  0  3  0  0  0  0  0  0
  189.6060  176.3590  138.7290 C   0  0  0  0  0  1  0  0  0  0  0  0
  188.6560  178.5970  138.3210 C   0  0  0  0  0  0  0  0  0  0  0  0
  188.9910  179.5400  137.3550 O   0  0  0  0  0  0  0  0  0  0  0  0
  187.4450  178.3810  138.5880 O   0  0  0  0  0  1  0  0  0  0  0  0
  1  8  1  1  0  0  0
  2  7  1  6  0  0  0
  2  1  1  0  0  0  0
  2 11  1  0  0  0  0
  4  3  1  0  0  0  0
  5 11  1  0  0  0  0
  5  6  2  0  0  0  0
  8  3  1  0  0  0  0
  9  5  1  0  0  0  0
 10 19  1  6  0  0  0
 10  7  1  0  0  0  0
 10  9  1  0  0  0  0
 11  4  2  0  0  0  0
 12 18  1  6  0  0  0
 12  1  1  0  0  0  0
 12 14  1  0  0  0  0
 13 15  1  0  0  0  0
 14 17  1  0  0  0  0
 15 14  2  0  0  0  0
 16 18  1  0  0  0  0
 16 13  1  0  0  0  0
 20 19  2  0  0  0  0
 21 22  1  1  0  0  0
 21 20  1  0  0  0  0
 23 25  1  0  0  0  0
 23 21  1  0  0  0  0
 24 23  2  0  0  0  0
M  END
>  <MODEL>
1

>  <REMARK>
 VINA RESULT:     -10.2      0.000      0.000
  Name = 
  4 active torsions:
  status: ('A' for Active; 'I' for Inactive)
    1  A    between atoms: C_1  and  C_5
    2  A    between atoms: C_2  and  C_21
    3  A    between atoms: C_6  and  C_23
    4  A    between atoms: C_15  and  C_21
                            x       y       z     vdW  Elec       q    Type
                         _______ _______ _______ _____ _____    ______ ____

>  <TORSDO>
F 4

$$$$
=
 OpenBabel10272400433D

 25 27  0  0  1  0  0  0  0  0999 V2000
  188.9560  178.1360  145.3120 C   0  0  1  0  0  3  0  0  0  0  0  0
  187.4510  177.8360  145.1450 C   0  0  2  0  0  3  0  0  0  0  0  0
  188.5730  177.5570  147.7520 C   0  0  0  0  0  2  0  0  0  0  0  0
  187.1470  177.9750  147.5940 C   0  0  0  0  0  3  0  0  0  0  0  0
  185.1790  178.4450  146.2520 C   0  0  0  0  0  0  0  0  0  0  0  0
  184.3640  178.0610  147.1340 O   0  0  0  0  0  0  0  0  0  0  0  0
  186.9390  178.4890  143.8600 C   0  0  0  0  0  2  0  0  0  0  0  0
  189.4350  178.3340  146.7650 C   0  0  0  0  0  2  0  0  0  0  0  0
  184.5640  179.3340  144.8240 S   0  0  0  0  0  0  0  0  0  0  0  0
  185.4470  178.2520  143.6690 C   0  0  1  0  0  3  0  0  0  0  0  0
  186.6160  178.1470  146.3790 C   0  0  0  0  0  0  0  0  0  0  0  0
  189.8220  177.1460  144.5240 C   0  0  2  0  0  3  0  0  0  0  0  0
  190.4370  176.4950  141.7160 C   0  0  0  0  0  2  0  0  0  0  0  0
  190.9650  177.8050  143.7660 C   0  0  0  0  0  0  0  0  0  0  0  0
  191.2610  177.4680  142.5070 C   0  0  0  0  0  3  0  0  0  0  0  0
  189.7610  175.4860  142.6330 C   0  0  0  0  0  2  0  0  0  0  0  0
  191.7820  178.7200  144.4170 O   0  0  0  0  0  1  0  0  0  0  0  0
  188.9320  176.2470  143.6570 C   0  0  0  0  0  2  0  0  0  0  0  0
  185.0480  178.5990  142.2740 C   0  0  0  0  0  3  0  0  0  0  0  0
  184.1050  177.9030  141.6410 C   0  0  0  0  0  3  0  0  0  0  0  0
  183.7030  178.2490  140.2430 C   0  0  1  0  0  3  0  0  0  0  0  0
  182.3720  178.9750  140.2620 C   0  0  0  0  0  1  0  0  0  0  0  0
  184.7390  179.1000  139.5820 C   0  0  0  0  0  0  0  0  0  0  0  0
  186.0180  178.6040  139.3490 O   0  0  0  0  0  1  0  0  0  0  0  0
  184.4520  180.2740  139.2320 O   0  0  0  0  0  0  0  0  0  0  0  0
  1  8  1  1  0  0  0
  2  7  1  6  0  0  0
  2  1  1  0  0  0  0
  2 11  1  0  0  0  0
  4  3  1  0  0  0  0
  5 11  1  0  0  0  0
  5  6  2  0  0  0  0
  8  3  1  0  0  0  0
  9  5  1  0  0  0  0
 10 19  1  6  0  0  0
 10  7  1  0  0  0  0
 10  9  1  0  0  0  0
 11  4  2  0  0  0  0
 12 18  1  6  0  0  0
 12  1  1  0  0  0  0
 13 15  1  0  0  0  0
 13 16  1  0  0  0  0
 14 17  1  0  0  0  0
 14 12  1  0  0  0  0
 15 14  2  0  0  0  0
 16 18  1  0  0  0  0
 20 19  2  0  0  0  0
 21 22  1  1  0  0  0
 21 20  1  0  0  0  0
 23 21  1  0  0  0  0
 24 23  1  0  0  0  0
 25 23  2  0  0  0  0
M  END
>  <MODEL>
2

>  <REMARK>
 VINA RESULT:      -9.2      2.368      5.302
  Name = 
  4 active torsions:
  status: ('A' for Active; 'I' for Inactive)
    1  A    between atoms: C_1  and  C_5
    2  A    between atoms: C_2  and  C_21
    3  A    between atoms: C_6  and  C_23
    4  A    between atoms: C_15  and  C_21
                            x       y       z     vdW  Elec       q    Type
                         _______ _______ _______ _____ _____    ______ ____

>  <TORSDO>
F 4

$$$$
=
 OpenBabel10272400433D

 25 27  0  0  1  0  0  0  0  0999 V2000
  189.2310  176.9410  143.6930 C   0  0  1  0  0  3  0  0  0  0  0  0
  188.8050  177.9110  142.5700 C   0  0  2  0  0  3  0  0  0  0  0  0
  191.4780  176.9160  142.5150 C   0  0  0  0  0  2  0  0  0  0  0  0
  190.7740  177.2380  141.2360 C   0  0  0  0  0  3  0  0  0  0  0  0
  188.8810  178.0890  139.9770 C   0  0  0  0  0  0  0  0  0  0  0  0
  189.5830  178.5280  139.0270 O   0  0  0  0  0  0  0  0  0  0  0  0
  187.2790  177.9450  142.4740 C   0  0  0  0  0  2  0  0  0  0  0  0
  190.5290  176.1510  143.4300 C   0  0  0  0  0  2  0  0  0  0  0  0
  187.1020  178.0080  139.7820 S   0  0  0  0  0  0  0  0  0  0  0  0
  186.8100  178.8630  141.3530 C   0  0  1  0  0  3  0  0  0  0  0  0
  189.5090  177.6690  141.2420 C   0  0  0  0  0  0  0  0  0  0  0  0
  189.2110  177.6210  145.0670 C   0  0  2  0  0  3  0  0  0  0  0  0
  188.6270  176.9240  147.8710 C   0  0  0  0  0  2  0  0  0  0  0  0
  190.2800  177.1060  146.0180 C   0  0  0  0  0  0  0  0  0  0  0  0
  190.0110  176.8360  147.3000 C   0  0  0  0  0  3  0  0  0  0  0  0
  187.7960  177.9570  147.1220 C   0  0  0  0  0  2  0  0  0  0  0  0
  191.5920  176.9890  145.5780 O   0  0  0  0  0  1  0  0  0  0  0  0
  187.7900  177.5900  145.6460 C   0  0  0  0  0  2  0  0  0  0  0  0
  185.3500  179.1380  141.4940 C   0  0  0  0  0  3  0  0  0  0  0  0
  184.7400  178.9920  142.6700 C   0  0  0  0  0  3  0  0  0  0  0  0
  183.2770  179.2670  142.8150 C   0  0  1  0  0  3  0  0  0  0  0  0
  182.5040  178.4560  141.7940 C   0  0  0  0  0  1  0  0  0  0  0  0
  182.8030  178.9380  144.1930 C   0  0  0  0  0  0  0  0  0  0  0  0
  183.6350  179.1250  145.2920 O   0  0  0  0  0  1  0  0  0  0  0  0
  181.6400  178.4890  144.3620 O   0  0  0  0  0  0  0  0  0  0  0  0
  1  8  1  6  0  0  0
  1 12  1  0  0  0  0
  2  7  1  6  0  0  0
  2  1  1  0  0  0  0
  3  8  1  0  0  0  0
  4 11  2  0  0  0  0
  4  3  1  0  0  0  0
  5 11  1  0  0  0  0
  6  5  2  0  0  0  0
  9  5  1  0  0  0  0
  9 10  1  0  0  0  0
 10 19  1  1  0  0  0
 10  7  1  0  0  0  0
 11  2  1  0  0  0  0
 12 18  1  1  0  0  0
 12 14  1  0  0  0  0
 14 15  2  0  0  0  0
 15 13  1  0  0  0  0
 16 13  1  0  0  0  0
 17 14  1  0  0  0  0
 18 16  1  0  0  0  0
 19 20  2  0  0  0  0
 20 21  1  0  0  0  0
 21 22  1  6  0  0  0
 21 23  1  0  0  0  0
 23 25  2  0  0  0  0
 23 24  1  0  0  0  0
M  END
>  <MODEL>
3

>  <REMARK>
 VINA RESULT:      -9.0      1.932      6.044
  Name = 
  4 active torsions:
  status: ('A' for Active; 'I' for Inactive)
    1  A    between atoms: C_1  and  C_5
    2  A    between atoms: C_2  and  C_21
    3  A    between atoms: C_6  and  C_23
    4  A    between atoms: C_15  and  C_21
                            x       y       z     vdW  Elec       q    Type
                         _______ _______ _______ _____ _____    ______ ____

>  <TORSDO>
F 4

$$$$
=
 OpenBabel10272400433D

 25 27  0  0  1  0  0  0  0  0999 V2000
  185.6620  178.1350  142.6800 C   0  0  1  0  0  3  0  0  0  0  0  0
  186.3010  178.5460  144.0250 C   0  0  2  0  0  3  0  0  0  0  0  0
  183.6440  179.4400  143.4940 C   0  0  0  0  0  2  0  0  0  0  0  0
  184.0730  179.1630  144.8990 C   0  0  0  0  0  3  0  0  0  0  0  0
  185.7350  178.5550  146.5620 C   0  0  0  0  0  0  0  0  0  0  0  0
  185.2320  179.2710  147.4700 O   0  0  0  0  0  0  0  0  0  0  0  0
  187.4690  177.6120  144.3430 C   0  0  0  0  0  2  0  0  0  0  0  0
  184.1320  178.3140  142.5910 C   0  0  0  0  0  2  0  0  0  0  0  0
  187.0040  177.3660  146.9900 S   0  0  0  0  0  0  0  0  0  0  0  0
  188.1100  177.9560  145.6810 C   0  0  1  0  0  3  0  0  0  0  0  0
  185.3020  178.7080  145.1610 C   0  0  0  0  0  0  0  0  0  0  0  0
  186.4080  178.7450  141.4880 C   0  0  2  0  0  3  0  0  0  0  0  0
  187.4880  177.8880  138.8820 C   0  0  0  0  0  2  0  0  0  0  0  0
  185.5840  178.7880  140.2100 C   0  0  0  0  0  0  0  0  0  0  0  0
  186.1000  178.4390  139.0270 C   0  0  0  0  0  3  0  0  0  0  0  0
  188.3990  178.4160  139.9820 C   0  0  0  0  0  2  0  0  0  0  0  0
  184.2870  179.2820  140.2470 O   0  0  0  0  0  1  0  0  0  0  0  0
  187.7780  178.0710  141.3270 C   0  0  0  0  0  2  0  0  0  0  0  0
  189.4270  177.2660  145.8090 C   0  0  0  0  0  3  0  0  0  0  0  0
  190.2780  177.2280  144.7840 C   0  0  0  0  0  3  0  0  0  0  0  0
  191.6000  176.5380  144.9090 C   0  0  1  0  0  3  0  0  0  0  0  0
  191.8770  176.2340  146.3680 C   0  0  0  0  0  1  0  0  0  0  0  0
  191.6240  175.2750  144.1100 C   0  0  0  0  0  0  0  0  0  0  0  0
  190.8370  175.1440  142.9710 O   0  0  0  0  0  0  0  0  0  0  0  0
  192.3630  174.3230  144.4710 O   0  0  0  0  0  1  0  0  0  0  0  0
  1  8  1  1  0  0  0
  1  2  1  0  0  0  0
  2  7  1  1  0  0  0
  2 11  1  0  0  0  0
  3  4  1  0  0  0  0
  4 11  2  0  0  0  0
  5  9  1  0  0  0  0
  5  6  2  0  0  0  0
  7 10  1  0  0  0  0
  8  3  1  0  0  0  0
 10 19  1  1  0  0  0
 10  9  1  0  0  0  0
 11  5  1  0  0  0  0
 12 18  1  6  0  0  0
 12  1  1  0  0  0  0
 13 15  1  0  0  0  0
 13 16  1  0  0  0  0
 14 17  1  0  0  0  0
 14 12  1  0  0  0  0
 15 14  2  0  0  0  0
 16 18  1  0  0  0  0
 20 21  1  0  0  0  0
 20 19  2  0  0  0  0
 21 22  1  1  0  0  0
 23 25  1  0  0  0  0
 23 21  1  0  0  0  0
 24 23  2  0  0  0  0
M  END
>  <MODEL>
4

>  <REMARK>
 VINA RESULT:      -8.9      2.245      5.609
  Name = 
  4 active torsions:
  status: ('A' for Active; 'I' for Inactive)
    1  A    between atoms: C_1  and  C_5
    2  A    between atoms: C_2  and  C_21
    3  A    between atoms: C_6  and  C_23
    4  A    between atoms: C_15  and  C_21
                            x       y       z     vdW  Elec       q    Type
                         _______ _______ _______ _____ _____    ______ ____

>  <TORSDO>
F 4

$$$$
=
 OpenBabel10272400433D

 25 27  0  0  1  0  0  0  0  0999 V2000
  187.9340  178.0780  145.3250 C   0  0  1  0  0  3  0  0  0  0  0  0
  187.0600  177.7980  144.0840 C   0  0  2  0  0  3  0  0  0  0  0  0
  185.7680  177.8500  146.6260 C   0  0  0  0  0  2  0  0  0  0  0  0
  185.0260  178.2800  145.4020 C   0  0  0  0  0  3  0  0  0  0  0  0
  184.8400  178.6140  143.0040 C   0  0  0  0  0  0  0  0  0  0  0  0
  183.6030  178.3770  142.9670 O   0  0  0  0  0  0  0  0  0  0  0  0
  187.7860  178.2820  142.8270 C   0  0  0  0  0  2  0  0  0  0  0  0
  187.1640  178.4610  146.6060 C   0  0  0  0  0  2  0  0  0  0  0  0
  185.6380  179.3150  141.5620 S   0  0  0  0  0  0  0  0  0  0  0  0
  186.9460  178.0600  141.5770 C   0  0  1  0  0  3  0  0  0  0  0  0
  185.6280  178.2980  144.2090 C   0  0  0  0  0  0  0  0  0  0  0  0
  188.9650  176.9660  145.5550 C   0  0  2  0  0  3  0  0  0  0  0  0
  191.7860  176.7000  146.3670 C   0  0  0  0  0  2  0  0  0  0  0  0
  189.3830  176.8140  147.0090 C   0  0  0  0  0  0  0  0  0  0  0  0
  190.6630  176.6490  147.3600 C   0  0  0  0  0  3  0  0  0  0  0  0
  191.3130  176.2550  144.9900 C   0  0  0  0  0  2  0  0  0  0  0  0
  188.4120  176.7570  148.0010 O   0  0  0  0  0  1  0  0  0  0  0  0
  190.1380  177.1310  144.5800 C   0  0  0  0  0  2  0  0  0  0  0  0
  187.7910  178.2230  140.3580 C   0  0  0  0  0  3  0  0  0  0  0  0
  189.0220  177.7140  140.3100 C   0  0  0  0  0  3  0  0  0  0  0  0
  189.8710  177.8760  139.0890 C   0  0  1  0  0  3  0  0  0  0  0  0
  190.5830  176.5720  138.7890 C   0  0  0  0  0  1  0  0  0  0  0  0
  189.0470  178.2900  137.9130 C   0  0  0  0  0  0  0  0  0  0  0  0
  188.3330  177.3460  137.1820 O   0  0  0  0  0  0  0  0  0  0  0  0
  189.0000  179.5030  137.5800 O   0  0  0  0  0  1  0  0  0  0  0  0
  1 12  1  0  0  0  0
  1  8  1  1  0  0  0
  2  7  1  6  0  0  0
  2 11  1  0  0  0  0
  2  1  1  0  0  0  0
  4  3  1  0  0  0  0
  5 11  1  0  0  0  0
  6  5  2  0  0  0  0
  8  3  1  0  0  0  0
  9 10  1  0  0  0  0
  9  5  1  0  0  0  0
 10 19  1  6  0  0  0
 10  7  1  0  0  0  0
 11  4  2  0  0  0  0
 12 18  1  6  0  0  0
 12 14  1  0  0  0  0
 13 15  1  0  0  0  0
 14 15  2  0  0  0  0
 14 17  1  0  0  0  0
 16 13  1  0  0  0  0
 18 16  1  0  0  0  0
 20 19  2  0  0  0  0
 21 22  1  6  0  0  0
 21 20  1  0  0  0  0
 23 21  1  0  0  0  0
 24 23  2  0  0  0  0
 25 23  1  0  0  0  0
M  END
>  <MODEL>
5

>  <REMARK>
 VINA RESULT:      -8.7      2.093      4.625
  Name = 
  4 active torsions:
  status: ('A' for Active; 'I' for Inactive)
    1  A    between atoms: C_1  and  C_5
    2  A    between atoms: C_2  and  C_21
    3  A    between atoms: C_6  and  C_23
    4  A    between atoms: C_15  and  C_21
                            x       y       z     vdW  Elec       q    Type
                         _______ _______ _______ _____ _____    ______ ____

>  <TORSDO>
F 4

$$$$
=
 OpenBabel10272400433D

 25 27  0  0  1  0  0  0  0  0999 V2000
  184.9070  178.9190  143.8150 C   0  0  1  0  0  3  0  0  0  0  0  0
  184.6530  178.4020  142.3830 C   0  0  2  0  0  3  0  0  0  0  0  0
  182.3970  178.6820  144.1060 C   0  0  0  0  0  2  0  0  0  0  0  0
  182.2410  178.8790  142.6330 C   0  0  0  0  0  3  0  0  0  0  0  0
  183.0910  178.8720  140.3580 C   0  0  0  0  0  0  0  0  0  0  0  0
  181.9930  178.5280  139.8440 O   0  0  0  0  0  0  0  0  0  0  0  0
  185.8360  178.7740  141.4880 C   0  0  0  0  0  2  0  0  0  0  0  0
  183.6550  179.4020  144.5770 C   0  0  0  0  0  2  0  0  0  0  0  0
  184.4140  179.4400  139.2930 S   0  0  0  0  0  0  0  0  0  0  0  0
  185.6160  178.3160  140.0520 C   0  0  1  0  0  3  0  0  0  0  0  0
  183.2950  178.7890  141.8160 C   0  0  0  0  0  0  0  0  0  0  0  0
  185.7630  177.9400  144.6280 C   0  0  2  0  0  3  0  0  0  0  0  0
  188.4080  177.8700  145.9280 C   0  0  0  0  0  2  0  0  0  0  0  0
  185.9730  178.3680  146.0720 C   0  0  0  0  0  0  0  0  0  0  0  0
  187.1690  178.2880  146.6640 C   0  0  0  0  0  3  0  0  0  0  0  0
  188.0650  176.9320  144.7790 C   0  0  0  0  0  2  0  0  0  0  0  0
  184.8830  178.7720  146.8330 O   0  0  0  0  0  1  0  0  0  0  0  0
  187.0620  177.6300  143.8720 C   0  0  0  0  0  2  0  0  0  0  0  0
  186.8970  178.3860  139.2910 C   0  0  0  0  0  3  0  0  0  0  0  0
  188.0690  178.3450  139.9250 C   0  0  0  0  0  3  0  0  0  0  0  0
  189.3550  178.4150  139.1640 C   0  0  1  0  0  3  0  0  0  0  0  0
  190.0970  177.0990  139.2980 C   0  0  0  0  0  1  0  0  0  0  0  0
  189.1100  178.7180  137.7210 C   0  0  0  0  0  0  0  0  0  0  0  0
  189.0220  177.6910  136.7870 O   0  0  0  0  0  0  0  0  0  0  0  0
  188.9820  179.9130  137.3480 O   0  0  0  0  0  1  0  0  0  0  0  0
  1  8  1  1  0  0  0
  1 12  1  0  0  0  0
  2  7  1  6  0  0  0
  2  1  1  0  0  0  0
  3  8  1  0  0  0  0
  4  3  1  0  0  0  0
  5 11  1  0  0  0  0
  6  5  2  0  0  0  0
  9 10  1  0  0  0  0
  9  5  1  0  0  0  0
 10 19  1  6  0  0  0
 10  7  1  0  0  0  0
 11  2  1  0  0  0  0
 11  4  2  0  0  0  0
 12 18  1  6  0  0  0
 12 14  1  0  0  0  0
 13 15  1  0  0  0  0
 14 15  2  0  0  0  0
 14 17  1  0  0  0  0
 16 13  1  0  0  0  0
 18 16  1  0  0  0  0
 19 20  2  0  0  0  0
 21 22  1  6  0  0  0
 21 20  1  0  0  0  0
 23 21  1  0  0  0  0
 24 23  2  0  0  0  0
 25 23  1  0  0  0  0
M  END
>  <MODEL>
6

>  <REMARK>
 VINA RESULT:      -8.7      2.649      5.172
  Name = 
  4 active torsions:
  status: ('A' for Active; 'I' for Inactive)
    1  A    between atoms: C_1  and  C_5
    2  A    between atoms: C_2  and  C_21
    3  A    between atoms: C_6  and  C_23
    4  A    between atoms: C_15  and  C_21
                            x       y       z     vdW  Elec       q    Type
                         _______ _______ _______ _____ _____    ______ ____

>  <TORSDO>
F 4

$$$$
=
 OpenBabel10272400433D

 25 27  0  0  1  0  0  0  0  0999 V2000
  189.2040  178.1260  143.2270 C   0  0  1  0  0  3  0  0  0  0  0  0
  187.8770  177.7110  143.8980 C   0  0  2  0  0  3  0  0  0  0  0  0
  190.2720  177.4400  145.4230 C   0  0  0  0  0  2  0  0  0  0  0  0
  188.9800  177.7460  146.1100 C   0  0  0  0  0  3  0  0  0  0  0  0
  186.5770  178.0980  146.1170 C   0  0  0  0  0  0  0  0  0  0  0  0
  186.4110  177.6220  147.2720 O   0  0  0  0  0  0  0  0  0  0  0  0
  186.7050  178.3610  143.1610 C   0  0  0  0  0  2  0  0  0  0  0  0
  190.3990  178.3150  144.1820 C   0  0  0  0  0  2  0  0  0  0  0  0
  185.2290  178.9810  145.3340 S   0  0  0  0  0  0  0  0  0  0  0  0
  185.3730  178.0100  143.8100 C   0  0  1  0  0  3  0  0  0  0  0  0
  187.8550  177.9130  145.4060 C   0  0  0  0  0  0  0  0  0  0  0  0
  189.5330  177.2350  142.0230 C   0  0  2  0  0  3  0  0  0  0  0  0
  190.5190  177.5260  139.2600 C   0  0  0  0  0  2  0  0  0  0  0  0
  191.0140  177.1980  141.6790 C   0  0  0  0  0  0  0  0  0  0  0  0
  191.4460  177.2870  140.4160 C   0  0  0  0  0  3  0  0  0  0  0  0
  189.1330  176.9680  139.5520 C   0  0  0  0  0  2  0  0  0  0  0  0
  191.9470  176.9820  142.6840 O   0  0  0  0  0  1  0  0  0  0  0  0
  188.6240  177.5960  140.8410 C   0  0  0  0  0  2  0  0  0  0  0  0
  184.2490  178.3690  142.8970 C   0  0  0  0  0  3  0  0  0  0  0  0
  184.2470  177.9630  141.6270 C   0  0  0  0  0  3  0  0  0  0  0  0
  183.1210  178.3200  140.7090 C   0  0  1  0  0  3  0  0  0  0  0  0
  181.9620  178.8690  141.5170 C   0  0  0  0  0  1  0  0  0  0  0  0
  183.5560  179.3260  139.6930 C   0  0  0  0  0  0  0  0  0  0  0  0
  184.8690  179.7850  139.6680 O   0  0  0  0  0  1  0  0  0  0  0  0
  182.7280  179.7610  138.8510 O   0  0  0  0  0  0  0  0  0  0  0  0
  1  2  1  0  0  0  0
  1  8  1  1  0  0  0
  2  7  1  6  0  0  0
  2 11  1  0  0  0  0
  3  4  1  0  0  0  0
  5  6  2  0  0  0  0
  7 10  1  0  0  0  0
  8  3  1  0  0  0  0
  9  5  1  0  0  0  0
 10 19  1  6  0  0  0
 10  9  1  0  0  0  0
 11  4  2  0  0  0  0
 11  5  1  0  0  0  0
 12 18  1  6  0  0  0
 12  1  1  0  0  0  0
 13 16  1  0  0  0  0
 13 15  1  0  0  0  0
 14 12  1  0  0  0  0
 14 17  1  0  0  0  0
 15 14  2  0  0  0  0
 16 18  1  0  0  0  0
 20 19  2  0  0  0  0
 21 22  1  1  0  0  0
 21 20  1  0  0  0  0
 23 21  1  0  0  0  0
 24 23  1  0  0  0  0
 25 23  2  0  0  0  0
M  END
>  <MODEL>
7

>  <REMARK>
 VINA RESULT:      -8.5      2.359      5.630
  Name = 
  4 active torsions:
  status: ('A' for Active; 'I' for Inactive)
    1  A    between atoms: C_1  and  C_5
    2  A    between atoms: C_2  and  C_21
    3  A    between atoms: C_6  and  C_23
    4  A    between atoms: C_15  and  C_21
                            x       y       z     vdW  Elec       q    Type
                         _______ _______ _______ _____ _____    ______ ____

>  <TORSDO>
F 4

$$$$
=
 OpenBabel10272400433D

 25 27  0  0  1  0  0  0  0  0999 V2000
  189.9650  177.8280  143.9070 C   0  0  1  0  0  3  0  0  0  0  0  0
  188.8320  177.3380  144.8350 C   0  0  2  0  0  3  0  0  0  0  0  0
  191.5190  176.9100  145.6900 C   0  0  0  0  0  2  0  0  0  0  0  0
  190.4410  177.1350  146.7010 C   0  0  0  0  0  3  0  0  0  0  0  0
  188.1210  177.4780  147.3320 C   0  0  0  0  0  0  0  0  0  0  0  0
  188.2290  176.8780  148.4350 O   0  0  0  0  0  0  0  0  0  0  0  0
  187.5320  178.0620  144.4790 C   0  0  0  0  0  2  0  0  0  0  0  0
  191.3620  177.9160  144.5570 C   0  0  0  0  0  2  0  0  0  0  0  0
  186.6440  178.4360  147.0010 S   0  0  0  0  0  0  0  0  0  0  0  0
  186.3900  177.6380  145.3940 C   0  0  1  0  0  3  0  0  0  0  0  0
  189.1830  177.3750  146.3150 C   0  0  0  0  0  0  0  0  0  0  0  0
  189.9710  177.0740  142.5720 C   0  0  2  0  0  3  0  0  0  0  0  0
  190.2070  177.6740  139.6950 C   0  0  0  0  0  2  0  0  0  0  0  0
  191.3120  177.1130  141.8550 C   0  0  0  0  0  0  0  0  0  0  0  0
  191.4010  177.3430  140.5410 C   0  0  0  0  0  3  0  0  0  0  0  0
  188.9440  177.0520  140.2740 C   0  0  0  0  0  2  0  0  0  0  0  0
  192.4740  176.8210  142.5570 O   0  0  0  0  0  1  0  0  0  0  0  0
  188.7860  177.5300  141.7090 C   0  0  0  0  0  2  0  0  0  0  0  0
  185.0870  178.0910  144.8260 C   0  0  0  0  0  3  0  0  0  0  0  0
  184.8570  178.0310  143.5140 C   0  0  0  0  0  3  0  0  0  0  0  0
  183.5510  178.4840  142.9420 C   0  0  1  0  0  3  0  0  0  0  0  0
  182.9780  179.5940  143.8010 C   0  0  0  0  0  1  0  0  0  0  0  0
  183.7180  178.9610  141.5360 C   0  0  0  0  0  0  0  0  0  0  0  0
  184.9130  179.5390  141.1210 O   0  0  0  0  0  1  0  0  0  0  0  0
  182.7680  178.8390  140.7190 O   0  0  0  0  0  0  0  0  0  0  0  0
  1  8  1  1  0  0  0
  1  2  1  0  0  0  0
  2  7  1  1  0  0  0
  2 11  1  0  0  0  0
  3  4  1  0  0  0  0
  5  6  2  0  0  0  0
  7 10  1  0  0  0  0
  8  3  1  0  0  0  0
  9  5  1  0  0  0  0
 10 19  1  6  0  0  0
 10  9  1  0  0  0  0
 11  4  2  0  0  0  0
 11  5  1  0  0  0  0
 12 18  1  6  0  0  0
 12  1  1  0  0  0  0
 13 16  1  0  0  0  0
 13 15  1  0  0  0  0
 14 17  1  0  0  0  0
 14 12  1  0  0  0  0
 15 14  2  0  0  0  0
 16 18  1  0  0  0  0
 20 19  2  0  0  0  0
 21 20  1  0  0  0  0
 21 22  1  1  0  0  0
 23 21  1  0  0  0  0
 24 23  1  0  0  0  0
 25 23  2  0  0  0  0
M  END
>  <MODEL>
8

>  <REMARK>
 VINA RESULT:      -8.4      2.335      5.639
  Name = 
  4 active torsions:
  status: ('A' for Active; 'I' for Inactive)
    1  A    between atoms: C_1  and  C_5
    2  A    between atoms: C_2  and  C_21
    3  A    between atoms: C_6  and  C_23
    4  A    between atoms: C_15  and  C_21
                            x       y       z     vdW  Elec       q    Type
                         _______ _______ _______ _____ _____    ______ ____

>  <TORSDO>
F 4

$$$$
=
 OpenBabel10272400433D

 25 27  0  0  1  0  0  0  0  0999 V2000
  185.4270  178.7520  143.5200 C   0  0  1  0  0  3  0  0  0  0  0  0
  184.8440  178.3290  142.1540 C   0  0  2  0  0  3  0  0  0  0  0  0
  183.0150  178.7180  144.3090 C   0  0  0  0  0  2  0  0  0  0  0  0
  182.5860  178.9990  142.9050 C   0  0  0  0  0  3  0  0  0  0  0  0
  182.9590  179.0290  140.5060 C   0  0  0  0  0  0  0  0  0  0  0  0
  181.7530  178.8040  140.2160 O   0  0  0  0  0  0  0  0  0  0  0  0
  185.8530  178.6400  141.0490 C   0  0  0  0  0  2  0  0  0  0  0  0
  184.4040  179.3030  144.5350 C   0  0  0  0  0  2  0  0  0  0  0  0
  184.0890  179.5310  139.2110 S   0  0  0  0  0  0  0  0  0  0  0  0
  185.3070  178.2730  139.6750 C   0  0  1  0  0  3  0  0  0  0  0  0
  183.4420  178.8580  141.8880 C   0  0  0  0  0  0  0  0  0  0  0  0
  186.3320  177.6660  144.1110 C   0  0  2  0  0  3  0  0  0  0  0  0
  189.0430  177.4230  145.2460 C   0  0  0  0  0  2  0  0  0  0  0  0
  186.6140  177.8470  145.5950 C   0  0  0  0  0  0  0  0  0  0  0  0
  187.8410  177.6900  146.1040 C   0  0  0  0  0  3  0  0  0  0  0  0
  188.6480  176.6860  143.9740 C   0  0  0  0  0  2  0  0  0  0  0  0
  185.5630  178.0990  146.4670 O   0  0  0  0  0  1  0  0  0  0  0  0
  187.5930  177.5100  143.2490 C   0  0  0  0  0  2  0  0  0  0  0  0
  186.4110  178.2700  138.6710 C   0  0  0  0  0  3  0  0  0  0  0  0
  187.6140  177.7880  138.9830 C   0  0  0  0  0  3  0  0  0  0  0  0
  188.7230  177.7830  137.9780 C   0  0  1  0  0  3  0  0  0  0  0  0
  188.9790  179.1980  137.4970 C   0  0  0  0  0  1  0  0  0  0  0  0
  189.9730  177.2080  138.5600 C   0  0  0  0  0  0  0  0  0  0  0  0
  191.0610  176.9120  137.7460 O   0  0  0  0  0  0  0  0  0  0  0  0
  190.0420  176.9890  139.7970 O   0  0  0  0  0  1  0  0  0  0  0  0
  1 12  1  0  0  0  0
  1  8  1  1  0  0  0
  2  7  1  6  0  0  0
  2  1  1  0  0  0  0
  3  8  1  0  0  0  0
  4  3  1  0  0  0  0
  5 11  1  0  0  0  0
  6  5  2  0  0  0  0
  9 10  1  0  0  0  0
  9  5  1  0  0  0  0
 10 19  1  6  0  0  0
 10  7  1  0  0  0  0
 11  2  1  0  0  0  0
 11  4  2  0  0  0  0
 12 18  1  6  0  0  0
 12 14  1  0  0  0  0
 13 15  1  0  0  0  0
 14 15  2  0  0  0  0
 14 17  1  0  0  0  0
 16 13  1  0  0  0  0
 18 16  1  0  0  0  0
 19 20  2  0  0  0  0
 21 22  1  1  0  0  0
 21 23  1  0  0  0  0
 21 20  1  0  0  0  0
 23 25  1  0  0  0  0
 24 23  2  0  0  0  0
M  END
>  <MODEL>
9

>  <REMARK>
 VINA RESULT:      -8.2      2.720      5.346
  Name = 
  4 active torsions:
  status: ('A' for Active; 'I' for Inactive)
    1  A    between atoms: C_1  and  C_5
    2  A    between atoms: C_2  and  C_21
    3  A    between atoms: C_6  and  C_23
    4  A    between atoms: C_15  and  C_21
                            x       y       z     vdW  Elec       q    Type
                         _______ _______ _______ _____ _____    ______ ____

>  <TORSDO>
F 4

$$$$
