=
 OpenBabel10272402063D

 32 36  0  0  1  0  0  0  0  0999 V2000
  193.5320  173.7730  137.1020 O   0  0  0  0  0  0  0  0  0  0  0  0
  193.5930  174.9520  136.3300 C   0  0  1  0  0  0  0  0  0  0  0  0
  190.3480  176.0710  134.4160 C   0  0  0  0  0  2  0  0  0  0  0  0
  190.8670  176.5530  139.4960 C   0  0  0  0  0  3  0  0  0  0  0  0
  192.2630  175.6610  136.0240 C   0  0  1  0  0  3  0  0  0  0  0  0
  189.2080  177.1950  137.7980 C   0  0  0  0  0  2  0  0  0  0  0  0
  189.8970  176.2870  136.7630 C   0  0  1  0  0  3  0  0  0  0  0  0
  191.5570  175.1760  134.7440 C   0  0  1  0  0  3  0  0  0  0  0  0
  193.7680  172.6740  136.2620 C   0  0  2  0  0  3  0  0  0  0  0  0
  190.0050  177.0070  135.4930 N   0  0  0  0  0  2  0  0  0  0  0  0
  192.4670  172.1050  135.7310 C   0  0  0  0  0  2  0  0  0  0  0  0
  194.4940  171.6000  137.0450 C   0  0  0  0  0  1  0  0  0  0  0  0
  194.4380  175.8710  136.9920 O   0  0  0  0  0  0  0  0  0  0  0  0
  191.0500  173.7450  134.8720 C   0  0  0  0  0  2  0  0  0  0  0  0
  194.8920  175.4300  135.7390 C   0  0  1  0  0  0  0  0  0  0  0  0
  191.2870  175.7350  137.2100 C   0  0  2  0  0  3  0  0  0  0  0  0
  192.0960  172.8060  134.5160 N   0  0  0  0  0  2  0  0  0  0  0  0
  189.5960  176.8580  139.2110 C   0  0  0  0  0  3  0  0  0  0  0  0
  191.8750  176.5200  138.3880 C   0  0  0  0  0  2  0  0  0  0  0  0
  198.0410  173.6100  136.9560 C   0  0  0  0  0  3  0  0  0  0  0  0
  197.6740  173.1110  134.6220 C   0  0  0  0  0  3  0  0  0  0  0  0
  196.1200  174.5560  135.8050 C   0  0  0  0  0  0  0  0  0  0  0  0
  198.4380  172.9440  135.7860 C   0  0  0  0  0  0  0  0  0  0  0  0
  196.5310  173.9120  134.6310 C   0  0  0  0  0  3  0  0  0  0  0  0
  196.9000  174.4160  136.9720 C   0  0  0  0  0  0  0  0  0  0  0  0
  196.5630  175.0750  138.1480 O   0  0  0  0  0  1  0  0  0  0  0  0
  200.2320  171.6670  137.0160 C   0  0  0  0  0  1  0  0  0  0  0  0
  200.2320  171.6950  134.5280 C   0  0  0  0  0  1  0  0  0  0  0  0
  199.6140  172.1130  135.7770 N   0  0  0  0  0  0  0  0  0  0  0  0
  194.8200  176.7460  134.4730 S   0  0  0  0  0  0  0  0  0  0  0  0
  196.3160  177.5910  135.0670 C   0  0  0  0  0  2  0  0  0  0  0  0
  196.0690  179.0190  135.1540 N   0  0  0  0  0  1  0  0  0  0  0  0
  2 13  1  1  0  0  0
  2  1  1  0  0  0  0
  3  8  1  0  0  0  0
  3 10  1  0  0  0  0
  5  2  1  0  0  0  0
  5 16  1  0  0  0  0
  6 18  1  0  0  0  0
  7 16  1  0  0  0  0
  7  6  1  0  0  0  0
  8 14  1  0  0  0  0
  8  5  1  0  0  0  0
  9 12  1  0  0  0  0
  9  1  1  0  0  0  0
 10  7  1  0  0  0  0
 11  9  1  0  0  0  0
 15 22  1  0  0  0  0
 15  2  1  0  0  0  0
 15 13  1  0  0  0  0
 16 19  1  0  0  0  0
 17 14  1  0  0  0  0
 17 11  1  0  0  0  0
 18  4  2  0  0  0  0
 19  4  1  0  0  0  0
 20 25  1  0  0  0  0
 21 24  2  0  0  0  0
 21 23  1  0  0  0  0
 22 25  2  0  0  0  0
 23 20  2  0  0  0  0
 24 22  1  0  0  0  0
 25 26  1  0  0  0  0
 28 29  1  0  0  0  0
 29 23  1  0  0  0  0
 29 27  1  0  0  0  0
 30 31  1  0  0  0  0
 30 15  1  0  0  0  0
 31 32  1  0  0  0  0
M  END
>  <MODEL>
1

>  <REMARK>
 VINA RESULT:      -5.2      0.000      0.000
  Name = 
  4 active torsions:
  status: ('A' for Active; 'I' for Inactive)
    1  A    between atoms: S_1  and  C_4
    2  A    between atoms: S_1  and  C_27
    3  A    between atoms: C_16  and  C_27
    4  A    between atoms: C_19  and  N_26
                            x       y       z     vdW  Elec       q    Type
                         _______ _______ _______ _____ _____    ______ ____

>  <TORSDO>
F 4

$$$$
=
 OpenBabel10272402063D

 32 36  0  0  1  0  0  0  0  0999 V2000
  196.1150  173.0620  138.5050 O   0  0  0  0  0  0  0  0  0  0  0  0
  196.0640  172.7380  137.1330 C   0  0  1  0  0  0  0  0  0  0  0  0
  199.4530  172.0010  135.2850 C   0  0  0  0  0  2  0  0  0  0  0  0
  197.3170  168.6900  138.5690 C   0  0  0  0  0  3  0  0  0  0  0  0
  197.2580  171.9640  136.5490 C   0  0  1  0  0  3  0  0  0  0  0  0
  199.2570  168.7120  137.0580 C   0  0  0  0  0  2  0  0  0  0  0  0
  199.1110  170.2320  136.8710 C   0  0  1  0  0  3  0  0  0  0  0  0
  198.4030  172.8490  136.0240 C   0  0  1  0  0  3  0  0  0  0  0  0
  196.3690  174.4360  138.6320 C   0  0  2  0  0  3  0  0  0  0  0  0
  199.2580  170.5560  135.4510 N   0  0  0  0  0  2  0  0  0  0  0  0
  197.8550  174.7070  138.7600 C   0  0  0  0  0  2  0  0  0  0  0  0
  195.6630  174.9570  139.8660 C   0  0  0  0  0  1  0  0  0  0  0  0
  194.8930  171.9810  136.9000 O   0  0  0  0  0  0  0  0  0  0  0  0
  199.1170  173.5930  137.1460 C   0  0  0  0  0  2  0  0  0  0  0  0
  194.9410  173.2280  136.2580 C   0  0  1  0  0  0  0  0  0  0  0  0
  197.7870  170.8310  137.4440 C   0  0  2  0  0  3  0  0  0  0  0  0
  198.4360  174.8400  137.4370 N   0  0  0  0  0  2  0  0  0  0  0  0
  198.5280  168.2060  138.2720 C   0  0  0  0  0  3  0  0  0  0  0  0
  196.7240  169.7570  137.7000 C   0  0  0  0  0  2  0  0  0  0  0  0
  193.1970  176.4990  137.2430 C   0  0  0  0  0  3  0  0  0  0  0  0
  191.8810  174.6230  138.0060 C   0  0  0  0  0  3  0  0  0  0  0  0
  193.9490  174.2310  136.7920 C   0  0  0  0  0  0  0  0  0  0  0  0
  192.0540  176.0110  137.8940 C   0  0  0  0  0  0  0  0  0  0  0  0
  192.8220  173.7440  137.4660 C   0  0  0  0  0  3  0  0  0  0  0  0
  194.1440  175.6250  136.7010 C   0  0  0  0  0  0  0  0  0  0  0  0
  195.2720  176.1570  136.0890 O   0  0  0  0  0  1  0  0  0  0  0  0
  191.0750  177.2440  139.8640 C   0  0  0  0  0  1  0  0  0  0  0  0
  190.0640  177.5330  137.6090 C   0  0  0  0  0  1  0  0  0  0  0  0
  191.0820  176.9170  138.4470 N   0  0  0  0  0  0  0  0  0  0  0  0
  195.1380  173.0670  134.4480 S   0  0  0  0  0  0  0  0  0  0  0  0
  194.2110  171.5070  134.3460 C   0  0  0  0  0  2  0  0  0  0  0  0
  192.7860  171.7850  134.3470 N   0  0  0  0  0  1  0  0  0  0  0  0
  1  9  1  0  0  0  0
  2 13  1  1  0  0  0
  2  1  1  0  0  0  0
  3 10  1  0  0  0  0
  3  8  1  0  0  0  0
  5  2  1  0  0  0  0
  5 16  1  0  0  0  0
  6 18  1  0  0  0  0
  7  6  1  0  0  0  0
  7 16  1  0  0  0  0
  8  5  1  0  0  0  0
  8 14  1  0  0  0  0
  9 11  1  0  0  0  0
  9 12  1  0  0  0  0
 10  7  1  0  0  0  0
 14 17  1  0  0  0  0
 15 22  1  0  0  0  0
 15 13  1  0  0  0  0
 15  2  1  0  0  0  0
 16 19  1  0  0  0  0
 17 11  1  0  0  0  0
 18  4  2  0  0  0  0
 19  4  1  0  0  0  0
 20 23  1  0  0  0  0
 22 24  2  0  0  0  0
 23 21  2  0  0  0  0
 23 29  1  0  0  0  0
 24 21  1  0  0  0  0
 25 22  1  0  0  0  0
 25 20  2  0  0  0  0
 26 25  1  0  0  0  0
 28 29  1  0  0  0  0
 29 27  1  0  0  0  0
 30 15  1  0  0  0  0
 31 32  1  0  0  0  0
 31 30  1  0  0  0  0
M  END
>  <MODEL>
2

>  <REMARK>
 VINA RESULT:      -4.7      2.237      7.759
  Name = 
  4 active torsions:
  status: ('A' for Active; 'I' for Inactive)
    1  A    between atoms: S_1  and  C_4
    2  A    between atoms: S_1  and  C_27
    3  A    between atoms: C_16  and  C_27
    4  A    between atoms: C_19  and  N_26
                            x       y       z     vdW  Elec       q    Type
                         _______ _______ _______ _____ _____    ______ ____

>  <TORSDO>
F 4

$$$$
=
 OpenBabel10272402063D

 32 36  0  0  1  0  0  0  0  0999 V2000
  183.8140  177.6100  136.4950 O   0  0  0  0  0  0  0  0  0  0  0  0
  182.6660  177.1840  137.1960 C   0  0  1  0  0  0  0  0  0  0  0  0
  181.2950  179.4940  140.0650 C   0  0  0  0  0  2  0  0  0  0  0  0
  180.7340  180.6300  135.0950 C   0  0  0  0  0  3  0  0  0  0  0  0
  181.8430  178.2640  137.9190 C   0  0  1  0  0  3  0  0  0  0  0  0
  179.9820  181.5670  137.2400 C   0  0  0  0  0  2  0  0  0  0  0  0
  180.9770  180.6680  137.9960 C   0  0  1  0  0  3  0  0  0  0  0  0
  182.2910  178.5540  139.3630 C   0  0  1  0  0  3  0  0  0  0  0  0
  184.9510  177.2200  137.2180 C   0  0  2  0  0  3  0  0  0  0  0  0
  180.3040  180.0790  139.1540 N   0  0  0  0  0  2  0  0  0  0  0  0
  185.4080  178.3230  138.1520 C   0  0  0  0  0  2  0  0  0  0  0  0
  186.0680  176.9000  136.2470 C   0  0  0  0  0  1  0  0  0  0  0  0
  181.8140  176.5180  136.2860 O   0  0  0  0  0  0  0  0  0  0  0  0
  183.6640  179.2120  139.4190 C   0  0  0  0  0  2  0  0  0  0  0  0
  182.3280  175.7230  137.3220 C   0  0  1  0  0  0  0  0  0  0  0  0
  181.6460  179.5630  137.1190 C   0  0  2  0  0  3  0  0  0  0  0  0
  184.7070  178.2040  139.4170 N   0  0  0  0  0  2  0  0  0  0  0  0
  180.3180  181.6990  135.7800 C   0  0  0  0  0  3  0  0  0  0  0  0
  180.8910  179.3210  135.8090 C   0  0  0  0  0  2  0  0  0  0  0  0
  184.3470  173.2820  135.1600 C   0  0  0  0  0  3  0  0  0  0  0  0
  184.9990  173.0380  137.4730 C   0  0  0  0  0  3  0  0  0  0  0  0
  183.3120  174.6770  136.8610 C   0  0  0  0  0  0  0  0  0  0  0  0
  185.1440  172.6560  136.1310 C   0  0  0  0  0  0  0  0  0  0  0  0
  184.0890  174.0340  137.8340 C   0  0  0  0  0  3  0  0  0  0  0  0
  183.4320  174.2770  135.5140 C   0  0  0  0  0  0  0  0  0  0  0  0
  182.6470  174.8490  134.5200 O   0  0  0  0  0  1  0  0  0  0  0  0
  187.5090  171.7880  136.0150 C   0  0  0  0  0  1  0  0  0  0  0  0
  185.6490  170.4090  135.1050 C   0  0  0  0  0  1  0  0  0  0  0  0
  186.0860  171.6330  135.7590 N   0  0  0  0  0  0  0  0  0  0  0  0
  181.0430  175.2470  138.5320 S   0  0  0  0  0  0  0  0  0  0  0  0
  180.1460  174.1780  137.3670 C   0  0  0  0  0  2  0  0  0  0  0  0
  180.3380  172.7860  137.7340 N   0  0  0  0  0  1  0  0  0  0  0  0
  1  2  1  0  0  0  0
  1  9  1  0  0  0  0
  2 13  1  6  0  0  0
  2 15  1  0  0  0  0
  2  5  1  0  0  0  0
  4 18  2  0  0  0  0
  4 19  1  0  0  0  0
  5  8  1  0  0  0  0
  6  7  1  0  0  0  0
  7 10  1  0  0  0  0
  8 14  1  0  0  0  0
  8  3  1  0  0  0  0
  9 11  1  0  0  0  0
 10  3  1  0  0  0  0
 11 17  1  0  0  0  0
 12  9  1  0  0  0  0
 13 15  1  0  0  0  0
 15 30  1  0  0  0  0
 16  5  1  0  0  0  0
 16  7  1  0  0  0  0
 17 14  1  0  0  0  0
 18  6  1  0  0  0  0
 19 16  1  0  0  0  0
 20 25  2  0  0  0  0
 20 23  1  0  0  0  0
 21 24  1  0  0  0  0
 22 15  1  0  0  0  0
 22 24  2  0  0  0  0
 23 21  2  0  0  0  0
 25 22  1  0  0  0  0
 26 25  1  0  0  0  0
 28 29  1  0  0  0  0
 29 27  1  0  0  0  0
 29 23  1  0  0  0  0
 31 32  1  0  0  0  0
 31 30  1  0  0  0  0
M  END
>  <MODEL>
3

>  <REMARK>
 VINA RESULT:      -4.7      8.926     12.307
  Name = 
  4 active torsions:
  status: ('A' for Active; 'I' for Inactive)
    1  A    between atoms: S_1  and  C_4
    2  A    between atoms: S_1  and  C_27
    3  A    between atoms: C_16  and  C_27
    4  A    between atoms: C_19  and  N_26
                            x       y       z     vdW  Elec       q    Type
                         _______ _______ _______ _____ _____    ______ ____

>  <TORSDO>
F 4

$$$$
=
 OpenBabel10272402063D

 32 36  0  0  1  0  0  0  0  0999 V2000
  186.2710  174.5850  137.3210 O   0  0  0  0  0  0  0  0  0  0  0  0
  186.2770  175.8840  136.7710 C   0  0  1  0  0  0  0  0  0  0  0  0
  183.2670  176.9260  134.4690 C   0  0  0  0  0  2  0  0  0  0  0  0
  182.8420  176.5280  139.5650 C   0  0  0  0  0  3  0  0  0  0  0  0
  184.9240  176.4670  136.3300 C   0  0  1  0  0  3  0  0  0  0  0  0
  181.4140  177.2600  137.7030 C   0  0  0  0  0  2  0  0  0  0  0  0
  182.4000  176.6510  136.6900 C   0  0  1  0  0  3  0  0  0  0  0  0
  184.5270  176.1430  134.8780 C   0  0  1  0  0  3  0  0  0  0  0  0
  186.8120  173.6970  136.3790 C   0  0  2  0  0  3  0  0  0  0  0  0
  182.6070  177.5990  135.5950 N   0  0  0  0  0  2  0  0  0  0  0  0
  185.7230  173.0790  135.5250 C   0  0  0  0  0  2  0  0  0  0  0  0
  187.5530  172.5960  137.1080 C   0  0  0  0  0  1  0  0  0  0  0  0
  186.8460  176.7640  137.7200 O   0  0  0  0  0  0  0  0  0  0  0  0
  184.2340  174.6610  134.6780 C   0  0  0  0  0  2  0  0  0  0  0  0
  187.5670  176.6200  136.5250 C   0  0  1  0  0  0  0  0  0  0  0  0
  183.7630  176.2010  137.3040 C   0  0  2  0  0  3  0  0  0  0  0  0
  185.4580  173.9400  134.3870 N   0  0  0  0  0  2  0  0  0  0  0  0
  181.6070  176.7200  139.0930 C   0  0  0  0  0  3  0  0  0  0  0  0
  184.0160  176.8230  138.6810 C   0  0  0  0  0  2  0  0  0  0  0  0
  190.8510  175.2580  137.9640 C   0  0  0  0  0  3  0  0  0  0  0  0
  190.6580  174.6110  135.6450 C   0  0  0  0  0  3  0  0  0  0  0  0
  188.8870  175.9070  136.6870 C   0  0  0  0  0  0  0  0  0  0  0  0
  191.3800  174.5930  136.8470 C   0  0  0  0  0  0  0  0  0  0  0  0
  189.4280  175.2650  135.5650 C   0  0  0  0  0  3  0  0  0  0  0  0
  189.6210  175.9170  137.8910 C   0  0  0  0  0  0  0  0  0  0  0  0
  189.1520  176.5830  139.0160 O   0  0  0  0  0  1  0  0  0  0  0  0
  193.7430  174.4520  137.7210 C   0  0  0  0  0  1  0  0  0  0  0  0
  192.8800  172.6650  136.2210 C   0  0  0  0  0  1  0  0  0  0  0  0
  192.6470  173.9130  136.9300 N   0  0  0  0  0  0  0  0  0  0  0  0
  187.5060  178.1270  135.4930 S   0  0  0  0  0  0  0  0  0  0  0  0
  187.4850  179.2650  136.9110 C   0  0  0  0  0  2  0  0  0  0  0  0
  188.8460  179.5380  137.3370 N   0  0  0  0  0  1  0  0  0  0  0  0
  2  1  1  1  0  0  0
  2 13  1  0  0  0  0
  3  8  1  0  0  0  0
  3 10  1  0  0  0  0
  5  2  1  0  0  0  0
  5 16  1  0  0  0  0
  6 18  1  0  0  0  0
  7 16  1  0  0  0  0
  7  6  1  0  0  0  0
  8  5  1  0  0  0  0
  9 12  1  0  0  0  0
  9  1  1  0  0  0  0
 10  7  1  0  0  0  0
 11  9  1  0  0  0  0
 14  8  1  0  0  0  0
 15 22  1  0  0  0  0
 15  2  1  0  0  0  0
 15 13  1  0  0  0  0
 16 19  1  0  0  0  0
 17 14  1  0  0  0  0
 17 11  1  0  0  0  0
 18  4  2  0  0  0  0
 19  4  1  0  0  0  0
 21 23  1  0  0  0  0
 22 25  2  0  0  0  0
 23 29  1  0  0  0  0
 23 20  2  0  0  0  0
 24 21  2  0  0  0  0
 24 22  1  0  0  0  0
 25 20  1  0  0  0  0
 25 26  1  0  0  0  0
 28 29  1  0  0  0  0
 29 27  1  0  0  0  0
 30 15  1  0  0  0  0
 30 31  1  0  0  0  0
 31 32  1  0  0  0  0
M  END
>  <MODEL>
4

>  <REMARK>
 VINA RESULT:      -4.5      5.029      7.455
  Name = 
  4 active torsions:
  status: ('A' for Active; 'I' for Inactive)
    1  A    between atoms: S_1  and  C_4
    2  A    between atoms: S_1  and  C_27
    3  A    between atoms: C_16  and  C_27
    4  A    between atoms: C_19  and  N_26
                            x       y       z     vdW  Elec       q    Type
                         _______ _______ _______ _____ _____    ______ ____

>  <TORSDO>
F 4

$$$$
=
 OpenBabel10272402063D

 32 36  0  0  1  0  0  0  0  0999 V2000
  187.3990  176.7800  138.6970 O   0  0  0  0  0  0  0  0  0  0  0  0
  186.9920  176.7960  137.3460 C   0  0  1  0  0  0  0  0  0  0  0  0
  189.6850  177.6640  134.6190 C   0  0  0  0  0  2  0  0  0  0  0  0
  189.5780  173.1550  137.0610 C   0  0  0  0  0  3  0  0  0  0  0  0
  188.0860  176.6140  136.2800 C   0  0  1  0  0  3  0  0  0  0  0  0
  190.8660  174.1670  135.2280 C   0  0  0  0  0  2  0  0  0  0  0  0
  190.3050  175.5550  135.5820 C   0  0  1  0  0  3  0  0  0  0  0  0
  188.7530  177.9220  135.8160 C   0  0  1  0  0  3  0  0  0  0  0  0
  187.3400  178.0900  139.1970 C   0  0  2  0  0  3  0  0  0  0  0  0
  189.9090  176.2390  134.3500 N   0  0  0  0  0  2  0  0  0  0  0  0
  188.6770  178.7890  139.0540 C   0  0  0  0  0  2  0  0  0  0  0  0
  186.9620  178.0420  140.6630 C   0  0  0  0  0  1  0  0  0  0  0  0
  186.0270  175.7780  137.1630 O   0  0  0  0  0  0  0  0  0  0  0  0
  189.5860  178.5660  136.9170 C   0  0  0  0  0  2  0  0  0  0  0  0
  185.5650  177.0880  136.9650 C   0  0  1  0  0  0  0  0  0  0  0  0
  189.1310  175.5360  136.6110 C   0  0  2  0  0  3  0  0  0  0  0  0
  188.7540  179.4170  137.7470 N   0  0  0  0  0  2  0  0  0  0  0  0
  190.7090  173.1770  136.3490 C   0  0  0  0  0  3  0  0  0  0  0  0
  188.4990  174.1470  136.7480 C   0  0  0  0  0  2  0  0  0  0  0  0
  182.7850  177.1920  139.6060 C   0  0  0  0  0  3  0  0  0  0  0  0
  183.6220  179.4260  139.2290 C   0  0  0  0  0  3  0  0  0  0  0  0
  184.5850  177.5560  138.0120 C   0  0  0  0  0  0  0  0  0  0  0  0
  182.7460  178.5630  139.9040 C   0  0  0  0  0  0  0  0  0  0  0  0
  184.5270  178.9280  138.2900 C   0  0  0  0  0  3  0  0  0  0  0  0
  183.6870  176.6870  138.6650 C   0  0  0  0  0  0  0  0  0  0  0  0
  183.6690  175.3260  138.3860 O   0  0  0  0  0  1  0  0  0  0  0  0
  180.6910  179.9070  140.4790 C   0  0  0  0  0  1  0  0  0  0  0  0
  181.9730  178.7880  142.2930 C   0  0  0  0  0  1  0  0  0  0  0  0
  181.8170  179.0760  140.8760 N   0  0  0  0  0  0  0  0  0  0  0  0
  185.2060  177.4380  135.2080 S   0  0  0  0  0  0  0  0  0  0  0  0
  184.4150  175.8300  134.9050 C   0  0  0  0  0  2  0  0  0  0  0  0
  182.9720  175.9750  134.9720 N   0  0  0  0  0  1  0  0  0  0  0  0
  1  9  1  0  0  0  0
  2 13  1  1  0  0  0
  2  1  1  0  0  0  0
  3  8  1  0  0  0  0
  5 16  1  0  0  0  0
  5  2  1  0  0  0  0
  6  7  1  0  0  0  0
  6 18  1  0  0  0  0
  7 16  1  0  0  0  0
  8  5  1  0  0  0  0
  8 14  1  0  0  0  0
  9 12  1  0  0  0  0
 10  3  1  0  0  0  0
 10  7  1  0  0  0  0
 11  9  1  0  0  0  0
 14 17  1  0  0  0  0
 15 13  1  0  0  0  0
 15  2  1  0  0  0  0
 15 22  1  0  0  0  0
 16 19  1  0  0  0  0
 17 11  1  0  0  0  0
 18  4  2  0  0  0  0
 19  4  1  0  0  0  0
 20 23  1  0  0  0  0
 21 23  2  0  0  0  0
 22 24  2  0  0  0  0
 22 25  1  0  0  0  0
 23 29  1  0  0  0  0
 24 21  1  0  0  0  0
 25 20  2  0  0  0  0
 26 25  1  0  0  0  0
 27 29  1  0  0  0  0
 29 28  1  0  0  0  0
 30 15  1  0  0  0  0
 31 32  1  0  0  0  0
 31 30  1  0  0  0  0
M  END
>  <MODEL>
5

>  <REMARK>
 VINA RESULT:      -4.1      5.731     11.100
  Name = 
  4 active torsions:
  status: ('A' for Active; 'I' for Inactive)
    1  A    between atoms: S_1  and  C_4
    2  A    between atoms: S_1  and  C_27
    3  A    between atoms: C_16  and  C_27
    4  A    between atoms: C_19  and  N_26
                            x       y       z     vdW  Elec       q    Type
                         _______ _______ _______ _____ _____    ______ ____

>  <TORSDO>
F 4

$$$$
=
 OpenBabel10272402063D

 32 36  0  0  1  0  0  0  0  0999 V2000
  184.5200  178.7120  137.8400 O   0  0  0  0  0  0  0  0  0  0  0  0
  183.4040  177.8870  138.0930 C   0  0  1  0  0  0  0  0  0  0  0  0
  181.3740  178.4990  141.4020 C   0  0  0  0  0  2  0  0  0  0  0  0
  181.1040  181.6560  137.3690 C   0  0  0  0  0  3  0  0  0  0  0  0
  182.3360  178.4280  139.0600 C   0  0  1  0  0  3  0  0  0  0  0  0
  179.9940  181.4440  139.5530 C   0  0  0  0  0  2  0  0  0  0  0  0
  181.0540  180.4260  140.0070 C   0  0  1  0  0  3  0  0  0  0  0  0
  182.5840  178.0940  140.5420 C   0  0  1  0  0  3  0  0  0  0  0  0
  185.6330  178.1760  138.5050 C   0  0  2  0  0  3  0  0  0  0  0  0
  180.3870  179.3080  140.6770 N   0  0  0  0  0  2  0  0  0  0  0  0
  185.7950  178.7920  139.8800 C   0  0  0  0  0  2  0  0  0  0  0  0
  186.8780  178.4550  137.6890 C   0  0  0  0  0  1  0  0  0  0  0  0
  182.7750  177.6020  136.8590 O   0  0  0  0  0  0  0  0  0  0  0  0
  183.8060  178.8120  141.0980 C   0  0  0  0  0  2  0  0  0  0  0  0
  183.3190  176.4940  137.5280 C   0  0  1  0  0  0  0  0  0  0  0  0
  181.9910  179.9140  138.8680 C   0  0  2  0  0  3  0  0  0  0  0  0
  185.0070  178.0400  140.8400 N   0  0  0  0  0  2  0  0  0  0  0  0
  180.4400  182.2520  138.3650 C   0  0  0  0  0  3  0  0  0  0  0  0
  181.4210  180.1950  137.4740 C   0  0  0  0  0  2  0  0  0  0  0  0
  185.9540  175.5470  134.9060 C   0  0  0  0  0  3  0  0  0  0  0  0
  186.3800  174.3340  136.9500 C   0  0  0  0  0  3  0  0  0  0  0  0
  184.5140  175.8860  136.8360 C   0  0  0  0  0  0  0  0  0  0  0  0
  186.7350  174.6300  135.6260 C   0  0  0  0  0  0  0  0  0  0  0  0
  185.2780  174.9510  137.5460 C   0  0  0  0  0  3  0  0  0  0  0  0
  184.8480  176.1670  135.4950 C   0  0  0  0  0  0  0  0  0  0  0  0
  184.0910  177.0480  134.7320 O   0  0  0  0  0  1  0  0  0  0  0  0
  188.9990  174.7780  134.5240 C   0  0  0  0  0  1  0  0  0  0  0  0
  187.9390  172.5520  134.8590 C   0  0  0  0  0  1  0  0  0  0  0  0
  187.8740  173.9970  135.0150 N   0  0  0  0  0  0  0  0  0  0  0  0
  182.0290  175.3820  138.1900 S   0  0  0  0  0  0  0  0  0  0  0  0
  181.3960  174.9140  136.5520 C   0  0  0  0  0  2  0  0  0  0  0  0
  181.8090  173.5580  136.2380 N   0  0  0  0  0  1  0  0  0  0  0  0
  1  2  1  0  0  0  0
  1  9  1  0  0  0  0
  2 13  1  6  0  0  0
  2  5  1  0  0  0  0
  4 19  1  0  0  0  0
  4 18  2  0  0  0  0
  5  8  1  0  0  0  0
  6  7  1  0  0  0  0
  7 10  1  0  0  0  0
  8 14  1  0  0  0  0
  8  3  1  0  0  0  0
  9 11  1  0  0  0  0
 10  3  1  0  0  0  0
 11 17  1  0  0  0  0
 12  9  1  0  0  0  0
 13 15  1  0  0  0  0
 15  2  1  0  0  0  0
 15 30  1  0  0  0  0
 16  5  1  0  0  0  0
 16  7  1  0  0  0  0
 17 14  1  0  0  0  0
 18  6  1  0  0  0  0
 19 16  1  0  0  0  0
 20 25  2  0  0  0  0
 20 23  1  0  0  0  0
 21 24  1  0  0  0  0
 22 15  1  0  0  0  0
 22 24  2  0  0  0  0
 23 21  2  0  0  0  0
 25 22  1  0  0  0  0
 26 25  1  0  0  0  0
 27 29  1  0  0  0  0
 28 29  1  0  0  0  0
 29 23  1  0  0  0  0
 31 30  1  0  0  0  0
 32 31  1  0  0  0  0
M  END
>  <MODEL>
6

>  <REMARK>
 VINA RESULT:      -4.0      7.654     11.635
  Name = 
  4 active torsions:
  status: ('A' for Active; 'I' for Inactive)
    1  A    between atoms: S_1  and  C_4
    2  A    between atoms: S_1  and  C_27
    3  A    between atoms: C_16  and  C_27
    4  A    between atoms: C_19  and  N_26
                            x       y       z     vdW  Elec       q    Type
                         _______ _______ _______ _____ _____    ______ ____

>  <TORSDO>
F 4

$$$$
=
 OpenBabel10272402063D

 32 36  0  0  1  0  0  0  0  0999 V2000
  191.7450  175.6380  135.3010 O   0  0  0  0  0  0  0  0  0  0  0  0
  192.2450  175.9050  136.5930 C   0  0  1  0  0  0  0  0  0  0  0  0
  195.2030  173.6820  137.9180 C   0  0  0  0  0  2  0  0  0  0  0  0
  195.8530  177.3050  134.3460 C   0  0  0  0  0  3  0  0  0  0  0  0
  193.6750  175.4300  136.9040 C   0  0  1  0  0  3  0  0  0  0  0  0
  197.2920  175.7760  135.6270 C   0  0  0  0  0  2  0  0  0  0  0  0
  196.0580  174.9830  136.0910 C   0  0  1  0  0  3  0  0  0  0  0  0
  193.7700  173.9940  137.4530 C   0  0  1  0  0  3  0  0  0  0  0  0
  190.7980  174.6070  135.3910 C   0  0  2  0  0  3  0  0  0  0  0  0
  196.1810  174.7030  137.5220 N   0  0  0  0  0  2  0  0  0  0  0  0
  191.4420  173.2540  135.1580 C   0  0  0  0  0  2  0  0  0  0  0  0
  189.7240  174.8300  134.3480 C   0  0  0  0  0  1  0  0  0  0  0  0
  192.1890  177.3010  136.8100 O   0  0  0  0  0  0  0  0  0  0  0  0
  193.3850  172.9520  136.4110 C   0  0  0  0  0  2  0  0  0  0  0  0
  191.3770  176.5270  137.6530 C   0  0  1  0  0  0  0  0  0  0  0  0
  194.6910  175.6680  135.7740 C   0  0  2  0  0  3  0  0  0  0  0  0
  191.9510  172.7390  136.4160 N   0  0  0  0  0  2  0  0  0  0  0  0
  197.0070  176.6360  134.4250 C   0  0  0  0  0  3  0  0  0  0  0  0
  194.8460  177.1560  135.4470 C   0  0  0  0  0  2  0  0  0  0  0  0
  187.6050  175.8980  137.3450 C   0  0  0  0  0  3  0  0  0  0  0  0
  188.1090  178.1450  136.6180 C   0  0  0  0  0  3  0  0  0  0  0  0
  189.8980  176.7040  137.4090 C   0  0  0  0  0  0  0  0  0  0  0  0
  187.1640  177.1340  136.8500 C   0  0  0  0  0  0  0  0  0  0  0  0
  189.4610  177.9290  136.8890 C   0  0  0  0  0  3  0  0  0  0  0  0
  188.9580  175.6740  137.6180 C   0  0  0  0  0  0  0  0  0  0  0  0
  189.3490  174.4240  138.0830 O   0  0  0  0  0  1  0  0  0  0  0  0
  185.2410  177.2590  135.2230 C   0  0  0  0  0  1  0  0  0  0  0  0
  184.8360  177.6990  137.6370 C   0  0  0  0  0  1  0  0  0  0  0  0
  185.7690  177.3580  136.5740 N   0  0  0  0  0  0  0  0  0  0  0  0
  191.9860  176.5060  139.3760 S   0  0  0  0  0  0  0  0  0  0  0  0
  190.6610  177.5810  140.0030 C   0  0  0  0  0  2  0  0  0  0  0  0
  189.9110  176.8830  141.0320 N   0  0  0  0  0  1  0  0  0  0  0  0
  1  9  1  0  0  0  0
  2  1  1  6  0  0  0
  2 13  1  0  0  0  0
  2  5  1  0  0  0  0
  2 15  1  0  0  0  0
  4 18  2  0  0  0  0
  4 19  1  0  0  0  0
  5  8  1  0  0  0  0
  6  7  1  0  0  0  0
  7 10  1  0  0  0  0
  8  3  1  0  0  0  0
 10  3  1  0  0  0  0
 11  9  1  0  0  0  0
 11 17  1  0  0  0  0
 12  9  1  0  0  0  0
 13 15  1  0  0  0  0
 14 17  1  0  0  0  0
 14  8  1  0  0  0  0
 15 30  1  0  0  0  0
 16  7  1  0  0  0  0
 16  5  1  0  0  0  0
 18  6  1  0  0  0  0
 19 16  1  0  0  0  0
 20 25  1  0  0  0  0
 21 23  1  0  0  0  0
 21 24  2  0  0  0  0
 22 25  2  0  0  0  0
 22 15  1  0  0  0  0
 23 20  2  0  0  0  0
 24 22  1  0  0  0  0
 25 26  1  0  0  0  0
 27 29  1  0  0  0  0
 29 23  1  0  0  0  0
 29 28  1  0  0  0  0
 30 31  1  0  0  0  0
 31 32  1  0  0  0  0
M  END
>  <MODEL>
7

>  <REMARK>
 VINA RESULT:      -3.8      2.770      7.960
  Name = 
  4 active torsions:
  status: ('A' for Active; 'I' for Inactive)
    1  A    between atoms: S_1  and  C_4
    2  A    between atoms: S_1  and  C_27
    3  A    between atoms: C_16  and  C_27
    4  A    between atoms: C_19  and  N_26
                            x       y       z     vdW  Elec       q    Type
                         _______ _______ _______ _____ _____    ______ ____

>  <TORSDO>
F 4

$$$$
=
 OpenBabel10272402063D

 32 36  0  0  1  0  0  0  0  0999 V2000
  189.8490  174.3990  137.9080 O   0  0  0  0  0  0  0  0  0  0  0  0
  190.6840  175.5200  137.7210 C   0  0  1  0  0  0  0  0  0  0  0  0
  188.9820  179.0430  137.3460 C   0  0  0  0  0  2  0  0  0  0  0  0
  189.3010  176.5910  141.8400 C   0  0  0  0  0  3  0  0  0  0  0  0
  190.1050  176.8970  138.0900 C   0  0  1  0  0  3  0  0  0  0  0  0
  188.5290  178.7880  141.0510 C   0  0  0  0  0  2  0  0  0  0  0  0
  188.5850  178.2990  139.5930 C   0  0  1  0  0  3  0  0  0  0  0  0
  189.3500  177.6030  136.9480 C   0  0  1  0  0  3  0  0  0  0  0  0
  189.4180  173.9470  136.6510 C   0  0  2  0  0  3  0  0  0  0  0  0
  189.2110  179.3320  138.7670 N   0  0  0  0  0  2  0  0  0  0  0  0
  188.0890  174.5710  136.2740 C   0  0  0  0  0  2  0  0  0  0  0  0
  189.2630  172.4410  136.6940 C   0  0  0  0  0  1  0  0  0  0  0  0
  191.8640  175.3240  138.4750 O   0  0  0  0  0  0  0  0  0  0  0  0
  188.0590  176.8830  136.5790 C   0  0  0  0  0  2  0  0  0  0  0  0
  192.0410  175.3850  137.0840 C   0  0  1  0  0  0  0  0  0  0  0  0
  189.2980  176.9240  139.3990 C   0  0  2  0  0  3  0  0  0  0  0  0
  188.3240  175.8390  135.6080 N   0  0  0  0  0  2  0  0  0  0  0  0
  188.5170  177.6550  142.0400 C   0  0  0  0  0  3  0  0  0  0  0  0
  190.1530  176.5340  140.6080 C   0  0  0  0  0  2  0  0  0  0  0  0
  192.4870  172.4550  134.6480 C   0  0  0  0  0  3  0  0  0  0  0  0
  193.5670  171.9310  136.7440 C   0  0  0  0  0  3  0  0  0  0  0  0
  192.4560  174.0740  136.4620 C   0  0  0  0  0  0  0  0  0  0  0  0
  193.2330  171.5630  135.4330 C   0  0  0  0  0  0  0  0  0  0  0  0
  193.1780  173.1720  137.2540 C   0  0  0  0  0  3  0  0  0  0  0  0
  192.0920  173.6970  135.1530 C   0  0  0  0  0  0  0  0  0  0  0  0
  191.3320  174.5360  134.3460 O   0  0  0  0  0  1  0  0  0  0  0  0
  192.6840  169.2030  134.7310 C   0  0  0  0  0  1  0  0  0  0  0  0
  195.0220  170.0300  134.5340 C   0  0  0  0  0  1  0  0  0  0  0  0
  193.6390  170.2860  134.9050 N   0  0  0  0  0  0  0  0  0  0  0  0
  192.8940  176.9130  136.5600 S   0  0  0  0  0  0  0  0  0  0  0  0
  194.4200  176.0580  136.0660 C   0  0  0  0  0  2  0  0  0  0  0  0
  195.3560  177.0140  135.5020 N   0  0  0  0  0  1  0  0  0  0  0  0
  2  1  1  6  0  0  0
  2  5  1  0  0  0  0
  2 13  1  0  0  0  0
  3 10  1  0  0  0  0
  4 18  2  0  0  0  0
  5 16  1  0  0  0  0
  6 18  1  0  0  0  0
  7  6  1  0  0  0  0
  8  3  1  0  0  0  0
  8  5  1  0  0  0  0
  9 12  1  0  0  0  0
  9  1  1  0  0  0  0
 10  7  1  0  0  0  0
 11  9  1  0  0  0  0
 14  8  1  0  0  0  0
 15  2  1  0  0  0  0
 15 13  1  0  0  0  0
 16  7  1  0  0  0  0
 16 19  1  0  0  0  0
 17 11  1  0  0  0  0
 17 14  1  0  0  0  0
 19  4  1  0  0  0  0
 20 25  2  0  0  0  0
 20 23  1  0  0  0  0
 21 24  1  0  0  0  0
 22 15  1  0  0  0  0
 22 24  2  0  0  0  0
 23 21  2  0  0  0  0
 25 22  1  0  0  0  0
 26 25  1  0  0  0  0
 27 29  1  0  0  0  0
 28 29  1  0  0  0  0
 29 23  1  0  0  0  0
 30 15  1  0  0  0  0
 31 30  1  0  0  0  0
 32 31  1  0  0  0  0
M  END
>  <MODEL>
8

>  <REMARK>
 VINA RESULT:      -3.8      3.007      4.470
  Name = 
  4 active torsions:
  status: ('A' for Active; 'I' for Inactive)
    1  A    between atoms: S_1  and  C_4
    2  A    between atoms: S_1  and  C_27
    3  A    between atoms: C_16  and  C_27
    4  A    between atoms: C_19  and  N_26
                            x       y       z     vdW  Elec       q    Type
                         _______ _______ _______ _____ _____    ______ ____

>  <TORSDO>
F 4

$$$$
=
 OpenBabel10272402063D

 32 36  0  0  1  0  0  0  0  0999 V2000
  193.8480  173.4230  135.4170 O   0  0  0  0  0  0  0  0  0  0  0  0
  193.9150  174.4180  136.4160 C   0  0  1  0  0  0  0  0  0  0  0  0
  196.7020  174.0820  139.1670 C   0  0  0  0  0  2  0  0  0  0  0  0
  197.7310  175.5070  134.3490 C   0  0  0  0  0  3  0  0  0  0  0  0
  195.2570  174.5880  137.1480 C   0  0  1  0  0  3  0  0  0  0  0  0
  198.9810  175.2860  136.4550 C   0  0  0  0  0  2  0  0  0  0  0  0
  197.8110  174.5060  137.0820 C   0  0  1  0  0  3  0  0  0  0  0  0
  195.4260  173.7010  138.3950 C   0  0  1  0  0  3  0  0  0  0  0  0
  193.0940  172.3460  135.9080 C   0  0  2  0  0  3  0  0  0  0  0  0
  197.5720  175.0100  138.4350 N   0  0  0  0  0  2  0  0  0  0  0  0
  193.9890  171.3020  136.5480 C   0  0  0  0  0  2  0  0  0  0  0  0
  192.3350  171.7120  134.7620 C   0  0  0  0  0  1  0  0  0  0  0  0
  193.5740  175.6580  135.8290 O   0  0  0  0  0  0  0  0  0  0  0  0
  195.5240  172.2230  138.0420 C   0  0  0  0  0  2  0  0  0  0  0  0
  192.6940  175.2000  136.8210 C   0  0  1  0  0  0  0  0  0  0  0  0
  196.4970  174.5230  136.2400 C   0  0  2  0  0  3  0  0  0  0  0  0
  194.2000  171.6390  137.9440 N   0  0  0  0  0  2  0  0  0  0  0  0
  198.9100  175.3250  134.9530 C   0  0  0  0  0  3  0  0  0  0  0  0
  196.4940  175.6340  135.1850 C   0  0  0  0  0  2  0  0  0  0  0  0
  189.5060  174.9440  134.7050 C   0  0  0  0  0  3  0  0  0  0  0  0
  189.2950  173.5310  136.6510 C   0  0  0  0  0  3  0  0  0  0  0  0
  191.3360  174.8030  136.2990 C   0  0  0  0  0  0  0  0  0  0  0  0
  188.7510  174.0350  135.4610 C   0  0  0  0  0  0  0  0  0  0  0  0
  190.5710  173.9150  137.0680 C   0  0  0  0  0  3  0  0  0  0  0  0
  190.7830  175.3360  135.1160 C   0  0  0  0  0  0  0  0  0  0  0  0
  191.4800  176.2580  134.3460 O   0  0  0  0  0  1  0  0  0  0  0  0
  187.0910  172.2310  134.8680 C   0  0  0  0  0  1  0  0  0  0  0  0
  186.4090  174.6200  134.7320 C   0  0  0  0  0  1  0  0  0  0  0  0
  187.4370  173.6340  135.0290 N   0  0  0  0  0  0  0  0  0  0  0  0
  192.7900  176.2000  138.3480 S   0  0  0  0  0  0  0  0  0  0  0  0
  191.1000  176.8500  138.1930 C   0  0  0  0  0  2  0  0  0  0  0  0
  190.3660  176.6000  139.4200 N   0  0  0  0  0  1  0  0  0  0  0  0
  1  9  1  0  0  0  0
  2  1  1  6  0  0  0
  2 15  1  0  0  0  0
  2  5  1  0  0  0  0
  4 18  2  0  0  0  0
  4 19  1  0  0  0  0
  5  8  1  0  0  0  0
  6  7  1  0  0  0  0
  7 10  1  0  0  0  0
  8  3  1  0  0  0  0
  9 11  1  0  0  0  0
 10  3  1  0  0  0  0
 11 17  1  0  0  0  0
 12  9  1  0  0  0  0
 13  2  1  0  0  0  0
 13 15  1  0  0  0  0
 14  8  1  0  0  0  0
 15 30  1  0  0  0  0
 16  7  1  0  0  0  0
 16  5  1  0  0  0  0
 17 14  1  0  0  0  0
 18  6  1  0  0  0  0
 19 16  1  0  0  0  0
 20 25  2  0  0  0  0
 20 23  1  0  0  0  0
 21 24  1  0  0  0  0
 22 15  1  0  0  0  0
 22 24  2  0  0  0  0
 23 21  2  0  0  0  0
 25 22  1  0  0  0  0
 26 25  1  0  0  0  0
 27 29  1  0  0  0  0
 28 29  1  0  0  0  0
 29 23  1  0  0  0  0
 31 30  1  0  0  0  0
 31 32  1  0  0  0  0
M  END
>  <MODEL>
9

>  <REMARK>
 VINA RESULT:      -3.5      2.525      7.298
  Name = 
  4 active torsions:
  status: ('A' for Active; 'I' for Inactive)
    1  A    between atoms: S_1  and  C_4
    2  A    between atoms: S_1  and  C_27
    3  A    between atoms: C_16  and  C_27
    4  A    between atoms: C_19  and  N_26
                            x       y       z     vdW  Elec       q    Type
                         _______ _______ _______ _____ _____    ______ ____

>  <TORSDO>
F 4

$$$$
