=
 OpenBabel10272415233D

 34 37  0  0  1  0  0  0  0  0999 V2000
  184.7910  178.6160  141.9520 C   0  0  1  0  0  3  0  0  0  0  0  0
  185.3890  178.7410  139.1250 N   0  0  0  0  0  0  0  0  0  0  0  0
  182.4420  178.8460  141.0160 C   0  0  0  0  0  3  0  0  0  0  0  0
  181.9380  178.8970  139.7220 C   0  0  0  0  0  3  0  0  0  0  0  0
  184.0540  178.8490  139.6130 C   0  0  0  0  0  0  0  0  0  0  0  0
  183.7820  178.8450  140.9170 N   0  0  0  0  0  0  0  0  0  0  0  0
  182.9610  178.8900  138.8350 N   0  0  0  0  0  0  0  0  0  0  0  0
  186.3980  178.7660  139.9510 C   0  0  0  0  0  0  0  0  0  0  0  0
  187.1630  178.3230  142.1720 O   0  0  0  0  0  1  0  0  0  0  0  0
  186.1930  179.0040  141.4380 C   0  0  2  0  0  3  0  0  0  0  0  0
  187.7050  178.6460  139.4690 O   0  0  0  0  0  0  0  0  0  0  0  0
  188.0610  177.7620  138.4090 C   0  0  2  0  0  3  0  0  0  0  0  0
  189.2240  176.8790  138.8380 C   0  0  0  0  0  1  0  0  0  0  0  0
  188.4190  178.5620  137.1600 C   0  0  0  0  0  0  0  0  0  0  0  0
  189.0890  177.7460  136.2680 F   0  0  0  0  0  0  0  0  0  0  0  0
  189.2410  179.6210  137.4990 F   0  0  0  0  0  0  0  0  0  0  0  0
  187.2720  179.0480  136.5540 F   0  0  0  0  0  0  0  0  0  0  0  0
  184.4820  179.4180  143.2130 C   0  0  0  0  0  2  0  0  0  0  0  0
  183.7860  178.5560  144.2510 C   0  0  2  0  0  3  0  0  0  0  0  0
  182.2880  178.7640  144.1460 C   0  0  0  0  0  1  0  0  0  0  0  0
  187.1670  178.6230  147.8590 C   0  0  0  0  0  3  0  0  0  0  0  0
  186.4290  177.9190  145.2850 N   0  0  0  0  0  0  0  0  0  0  0  0
  190.2340  176.9190  146.6620 C   0  0  0  0  0  0  0  0  0  0  0  0
  189.3400  177.6050  147.4980 C   0  0  0  0  0  3  0  0  0  0  0  0
  188.0650  177.9400  147.0380 C   0  0  0  0  0  0  0  0  0  0  0  0
  184.2410  178.9230  145.5850 N   0  0  0  0  0  2  0  0  0  0  0  0
  188.5600  176.9080  144.8960 C   0  0  0  0  0  3  0  0  0  0  0  0
  187.6710  177.5910  145.7290 C   0  0  0  0  0  0  0  0  0  0  0  0
  189.8360  176.5750  145.3610 C   0  0  0  0  0  3  0  0  0  0  0  0
  185.5400  178.5840  146.0750 C   0  0  0  0  0  0  0  0  0  0  0  0
  185.8980  178.9470  147.3780 C   0  0  0  0  0  3  0  0  0  0  0  0
  191.5760  176.5680  147.1500 C   0  0  0  0  0  0  0  0  0  0  0  0
  192.0560  177.1360  148.1670 O   0  0  0  0  0  1  0  0  0  0  0  0
  192.3300  175.6030  146.4920 O   0  0  0  0  0  0  0  0  0  0  0  0
  1 18  1  1  0  0  0
  2  5  1  0  0  0  0
  2  8  2  0  0  0  0
  4  3  2  0  0  0  0
  5  6  1  0  0  0  0
  6  3  1  0  0  0  0
  6  1  1  0  0  0  0
  7  5  2  0  0  0  0
  7  4  1  0  0  0  0
  8 10  1  0  0  0  0
 10  1  1  0  0  0  0
 10  9  1  1  0  0  0
 11  8  1  0  0  0  0
 12 13  1  1  0  0  0
 12 11  1  0  0  0  0
 14 16  1  0  0  0  0
 14 12  1  0  0  0  0
 15 14  1  0  0  0  0
 17 14  1  0  0  0  0
 18 19  1  0  0  0  0
 19 20  1  1  0  0  0
 19 26  1  0  0  0  0
 22 28  1  0  0  0  0
 22 30  2  0  0  0  0
 23 32  1  0  0  0  0
 23 24  1  0  0  0  0
 25 24  2  0  0  0  0
 25 21  1  0  0  0  0
 26 30  1  0  0  0  0
 27 29  1  0  0  0  0
 27 28  2  0  0  0  0
 28 25  1  0  0  0  0
 29 23  2  0  0  0  0
 30 31  1  0  0  0  0
 31 21  2  0  0  0  0
 32 33  1  0  0  0  0
 34 32  2  0  0  0  0
M  END
>  <MODEL>
1

>  <REMARK>
 VINA RESULT:      -9.9      0.000      0.000
  Name = 
  7 active torsions:
  status: ('A' for Active; 'I' for Inactive)
    1  A    between atoms: C_1  and  C_9
    2  A    between atoms: O_2  and  C_23
    3  A    between atoms: O_2  and  C_32
    4  A    between atoms: C_3  and  C_23
    5  A    between atoms: C_7  and  C_11
    6  A    between atoms: C_8  and  C_9
    7  A    between atoms: C_8  and  N_18
                            x       y       z     vdW  Elec       q    Type
                         _______ _______ _______ _____ _____    ______ ____

>  <TORSDO>
F 7

$$$$
=
 OpenBabel10272415233D

 34 37  0  0  1  0  0  0  0  0999 V2000
  189.7550  177.1110  138.9240 C   0  0  1  0  0  3  0  0  0  0  0  0
  187.6200  176.8900  136.9850 N   0  0  0  0  0  0  0  0  0  0  0  0
  190.7080  175.2960  137.4270 C   0  0  0  0  0  3  0  0  0  0  0  0
  190.2640  174.7110  136.2460 C   0  0  0  0  0  3  0  0  0  0  0  0
  188.7740  176.0560  136.9250 C   0  0  0  0  0  0  0  0  0  0  0  0
  189.7340  176.1200  137.8470 N   0  0  0  0  0  0  0  0  0  0  0  0
  189.0430  175.2010  135.9260 N   0  0  0  0  0  0  0  0  0  0  0  0
  187.4080  177.6510  138.0230 C   0  0  0  0  0  0  0  0  0  0  0  0
  188.3890  178.8620  139.8370 O   0  0  0  0  0  1  0  0  0  0  0  0
  188.3270  177.6060  139.2330 C   0  0  2  0  0  3  0  0  0  0  0  0
  186.2800  178.4770  138.0720 O   0  0  0  0  0  0  0  0  0  0  0  0
  185.0240  178.0420  138.5850 C   0  0  2  0  0  3  0  0  0  0  0  0
  184.0780  177.7200  137.4360 C   0  0  0  0  0  1  0  0  0  0  0  0
  184.4310  179.1160  139.4920 C   0  0  0  0  0  0  0  0  0  0  0  0
  185.3490  179.4450  140.4730 F   0  0  0  0  0  0  0  0  0  0  0  0
  183.2830  178.6390  140.0980 F   0  0  0  0  0  0  0  0  0  0  0  0
  184.1250  180.2500  138.7590 F   0  0  0  0  0  0  0  0  0  0  0  0
  190.3690  176.5340  140.1960 C   0  0  0  0  0  2  0  0  0  0  0  0
  191.3840  177.4910  140.7950 C   0  0  2  0  0  3  0  0  0  0  0  0
  192.7330  177.2570  140.1450 C   0  0  0  0  0  1  0  0  0  0  0  0
  189.4740  177.4010  145.3570 C   0  0  0  0  0  3  0  0  0  0  0  0
  189.1510  177.7980  142.6350 N   0  0  0  0  0  0  0  0  0  0  0  0
  185.8840  178.3020  145.1730 C   0  0  0  0  0  0  0  0  0  0  0  0
  187.1310  177.9350  145.6970 C   0  0  0  0  0  3  0  0  0  0  0  0
  188.2270  177.7660  144.8480 C   0  0  0  0  0  0  0  0  0  0  0  0
  191.4840  177.2690  142.2310 N   0  0  0  0  0  2  0  0  0  0  0  0
  186.8400  178.3290  142.9350 C   0  0  0  0  0  3  0  0  0  0  0  0
  188.0820  177.9630  143.4580 C   0  0  0  0  0  0  0  0  0  0  0  0
  185.7460  178.4970  143.7890 C   0  0  0  0  0  3  0  0  0  0  0  0
  190.3760  177.4430  143.1170 C   0  0  0  0  0  0  0  0  0  0  0  0
  190.5550  177.2380  144.4880 C   0  0  0  0  0  3  0  0  0  0  0  0
  184.7310  178.4790  146.0700 C   0  0  0  0  0  0  0  0  0  0  0  0
  184.8410  178.2490  147.3030 O   0  0  0  0  0  1  0  0  0  0  0  0
  183.5070  178.9030  145.5630 O   0  0  0  0  0  0  0  0  0  0  0  0
  1 10  1  0  0  0  0
  1 18  1  1  0  0  0
  2  8  2  0  0  0  0
  3  6  1  0  0  0  0
  4  3  2  0  0  0  0
  5  2  1  0  0  0  0
  5  6  1  0  0  0  0
  6  1  1  0  0  0  0
  7  4  1  0  0  0  0
  7  5  2  0  0  0  0
  8 11  1  0  0  0  0
  8 10  1  0  0  0  0
 10  9  1  6  0  0  0
 11 12  1  0  0  0  0
 12 13  1  6  0  0  0
 12 14  1  0  0  0  0
 14 16  1  0  0  0  0
 14 15  1  0  0  0  0
 17 14  1  0  0  0  0
 18 19  1  0  0  0  0
 19 20  1  6  0  0  0
 19 26  1  0  0  0  0
 22 30  2  0  0  0  0
 22 28  1  0  0  0  0
 23 24  1  0  0  0  0
 23 32  1  0  0  0  0
 25 21  1  0  0  0  0
 25 24  2  0  0  0  0
 26 30  1  0  0  0  0
 27 28  2  0  0  0  0
 27 29  1  0  0  0  0
 28 25  1  0  0  0  0
 29 23  2  0  0  0  0
 30 31  1  0  0  0  0
 31 21  2  0  0  0  0
 32 33  1  0  0  0  0
 34 32  2  0  0  0  0
M  END
>  <MODEL>
2

>  <REMARK>
 VINA RESULT:      -9.3      3.421      6.069
  Name = 
  7 active torsions:
  status: ('A' for Active; 'I' for Inactive)
    1  A    between atoms: C_1  and  C_9
    2  A    between atoms: O_2  and  C_23
    3  A    between atoms: O_2  and  C_32
    4  A    between atoms: C_3  and  C_23
    5  A    between atoms: C_7  and  C_11
    6  A    between atoms: C_8  and  C_9
    7  A    between atoms: C_8  and  N_18
                            x       y       z     vdW  Elec       q    Type
                         _______ _______ _______ _____ _____    ______ ____

>  <TORSDO>
F 7

$$$$
=
 OpenBabel10272415233D

 34 37  0  0  1  0  0  0  0  0999 V2000
  185.4210  178.3860  141.8990 C   0  0  1  0  0  3  0  0  0  0  0  0
  186.6980  178.2430  139.3080 N   0  0  0  0  0  0  0  0  0  0  0  0
  183.6620  179.5410  140.4790 C   0  0  0  0  0  3  0  0  0  0  0  0
  183.5560  179.7850  139.1150 C   0  0  0  0  0  3  0  0  0  0  0  0
  185.4380  178.8850  139.4870 C   0  0  0  0  0  0  0  0  0  0  0  0
  184.8730  178.9980  140.6890 N   0  0  0  0  0  0  0  0  0  0  0  0
  184.6780  179.3600  138.4880 N   0  0  0  0  0  0  0  0  0  0  0  0
  187.3980  177.8620  140.3410 C   0  0  0  0  0  0  0  0  0  0  0  0
  187.3530  177.1590  142.6260 O   0  0  0  0  0  1  0  0  0  0  0  0
  186.9420  178.1710  141.7580 C   0  0  2  0  0  3  0  0  0  0  0  0
  188.6280  177.2210  140.1600 O   0  0  0  0  0  0  0  0  0  0  0  0
  189.8760  177.9030  140.2500 C   0  0  2  0  0  3  0  0  0  0  0  0
  190.7100  177.6250  139.0070 C   0  0  0  0  0  1  0  0  0  0  0  0
  190.6180  177.4670  141.5100 C   0  0  0  0  0  0  0  0  0  0  0  0
  190.2260  176.1870  141.8540 F   0  0  0  0  0  0  0  0  0  0  0  0
  190.3150  178.3220  142.5550 F   0  0  0  0  0  0  0  0  0  0  0  0
  191.9850  177.4780  141.2920 F   0  0  0  0  0  0  0  0  0  0  0  0
  185.1520  179.2510  143.1270 C   0  0  0  0  0  2  0  0  0  0  0  0
  184.2050  178.5540  144.0890 C   0  0  2  0  0  3  0  0  0  0  0  0
  182.7830  178.9790  143.7810 C   0  0  0  0  0  1  0  0  0  0  0  0
  187.2660  178.6220  147.9730 C   0  0  0  0  0  3  0  0  0  0  0  0
  186.7580  177.9360  145.3390 N   0  0  0  0  0  0  0  0  0  0  0  0
  190.4430  176.9660  147.0270 C   0  0  0  0  0  0  0  0  0  0  0  0
  189.4740  177.6330  147.7900 C   0  0  0  0  0  3  0  0  0  0  0  0
  188.2390  177.9580  147.2250 C   0  0  0  0  0  0  0  0  0  0  0  0
  184.5410  178.9130  145.4600 N   0  0  0  0  0  2  0  0  0  0  0  0
  188.9270  176.9540  145.1240 C   0  0  0  0  0  3  0  0  0  0  0  0
  187.9620  177.6180  145.8850 C   0  0  0  0  0  0  0  0  0  0  0  0
  190.1620  176.6300  145.6930 C   0  0  0  0  0  3  0  0  0  0  0  0
  185.7970  178.5830  146.0560 C   0  0  0  0  0  0  0  0  0  0  0  0
  186.0380  178.9370  147.3880 C   0  0  0  0  0  3  0  0  0  0  0  0
  191.7440  176.6250  147.6240 C   0  0  0  0  0  0  0  0  0  0  0  0
  192.2280  177.3320  148.5470 O   0  0  0  0  0  1  0  0  0  0  0  0
  192.4520  175.5160  147.1750 O   0  0  0  0  0  0  0  0  0  0  0  0
  1 18  1  1  0  0  0
  2  5  1  0  0  0  0
  2  8  2  0  0  0  0
  3  6  1  0  0  0  0
  4  3  2  0  0  0  0
  5  6  1  0  0  0  0
  6  1  1  0  0  0  0
  7  4  1  0  0  0  0
  7  5  2  0  0  0  0
  8 10  1  0  0  0  0
 10  1  1  0  0  0  0
 10  9  1  1  0  0  0
 11 12  1  0  0  0  0
 11  8  1  0  0  0  0
 12 13  1  6  0  0  0
 12 14  1  0  0  0  0
 14 15  1  0  0  0  0
 14 16  1  0  0  0  0
 17 14  1  0  0  0  0
 18 19  1  0  0  0  0
 19 20  1  6  0  0  0
 19 26  1  0  0  0  0
 22 28  1  0  0  0  0
 22 30  2  0  0  0  0
 23 32  1  0  0  0  0
 23 24  1  0  0  0  0
 25 24  2  0  0  0  0
 25 21  1  0  0  0  0
 26 30  1  0  0  0  0
 27 29  1  0  0  0  0
 27 28  2  0  0  0  0
 28 25  1  0  0  0  0
 29 23  2  0  0  0  0
 30 31  1  0  0  0  0
 31 21  2  0  0  0  0
 32 33  1  0  0  0  0
 34 32  2  0  0  0  0
M  END
>  <MODEL>
3

>  <REMARK>
 VINA RESULT:      -9.2      2.072      2.245
  Name = 
  7 active torsions:
  status: ('A' for Active; 'I' for Inactive)
    1  A    between atoms: C_1  and  C_9
    2  A    between atoms: O_2  and  C_23
    3  A    between atoms: O_2  and  C_32
    4  A    between atoms: C_3  and  C_23
    5  A    between atoms: C_7  and  C_11
    6  A    between atoms: C_8  and  C_9
    7  A    between atoms: C_8  and  N_18
                            x       y       z     vdW  Elec       q    Type
                         _______ _______ _______ _____ _____    ______ ____

>  <TORSDO>
F 7

$$$$
=
 OpenBabel10272415233D

 34 37  0  0  1  0  0  0  0  0999 V2000
  184.0320  178.9550  141.6800 C   0  0  1  0  0  3  0  0  0  0  0  0
  183.9510  178.6900  144.5590 N   0  0  0  0  0  0  0  0  0  0  0  0
  181.5210  178.8800  142.0440 C   0  0  0  0  0  3  0  0  0  0  0  0
  180.7300  178.8270  143.1860 C   0  0  0  0  0  3  0  0  0  0  0  0
  182.7610  178.7040  143.7760 C   0  0  0  0  0  0  0  0  0  0  0  0
  182.7980  178.7720  142.4450 N   0  0  0  0  0  0  0  0  0  0  0  0
  181.5180  178.7240  144.2810 N   0  0  0  0  0  0  0  0  0  0  0  0
  185.1200  178.6120  143.9850 C   0  0  0  0  0  0  0  0  0  0  0  0
  186.4060  179.0660  142.0210 O   0  0  0  0  0  1  0  0  0  0  0  0
  185.2470  178.4410  142.4800 C   0  0  2  0  0  3  0  0  0  0  0  0
  186.2860  178.6130  144.7570 O   0  0  0  0  0  0  0  0  0  0  0  0
  186.8540  177.4250  145.3010 C   0  0  2  0  0  3  0  0  0  0  0  0
  187.1880  177.6350  146.7720 C   0  0  0  0  0  1  0  0  0  0  0  0
  188.0990  177.0340  144.5120 C   0  0  0  0  0  0  0  0  0  0  0  0
  188.6040  178.1490  143.8690 F   0  0  0  0  0  0  0  0  0  0  0  0
  187.7770  176.0800  143.5640 F   0  0  0  0  0  0  0  0  0  0  0  0
  189.0680  176.5250  145.3610 F   0  0  0  0  0  0  0  0  0  0  0  0
  183.9680  178.2210  140.3440 C   0  0  0  0  0  2  0  0  0  0  0  0
  184.3480  179.1410  139.1970 C   0  0  2  0  0  3  0  0  0  0  0  0
  183.1450  179.9780  138.8110 C   0  0  0  0  0  1  0  0  0  0  0  0
  187.7900  176.6760  136.6400 C   0  0  0  0  0  3  0  0  0  0  0  0
  187.0550  178.1230  138.8840 N   0  0  0  0  0  0  0  0  0  0  0  0
  190.9740  176.7470  138.5360 C   0  0  0  0  0  0  0  0  0  0  0  0
  190.0410  176.4770  137.5240 C   0  0  0  0  0  3  0  0  0  0  0  0
  188.7280  176.9380  137.6390 C   0  0  0  0  0  0  0  0  0  0  0  0
  184.7880  178.3520  138.0550 N   0  0  0  0  0  2  0  0  0  0  0  0
  189.2630  177.9450  139.7830 C   0  0  0  0  0  3  0  0  0  0  0  0
  188.3350  177.6760  138.7750 C   0  0  0  0  0  0  0  0  0  0  0  0
  190.5770  177.4820  139.6640 C   0  0  0  0  0  3  0  0  0  0  0  0
  186.1280  177.8770  137.9160 C   0  0  0  0  0  0  0  0  0  0  0  0
  186.4830  177.1470  136.7770 C   0  0  0  0  0  3  0  0  0  0  0  0
  192.3570  176.2600  138.4110 C   0  0  0  0  0  0  0  0  0  0  0  0
  192.6050  175.1950  137.7860 O   0  0  0  0  0  0  0  0  0  0  0  0
  193.4050  176.9730  138.9830 O   0  0  0  0  0  1  0  0  0  0  0  0
  1 18  1  6  0  0  0
  1  6  1  0  0  0  0
  1 10  1  0  0  0  0
  3  6  1  0  0  0  0
  3  4  2  0  0  0  0
  4  7  1  0  0  0  0
  5  7  2  0  0  0  0
  5  2  1  0  0  0  0
  6  5  1  0  0  0  0
  8  2  2  0  0  0  0
  8 11  1  0  0  0  0
 10  9  1  6  0  0  0
 10  8  1  0  0  0  0
 11 12  1  0  0  0  0
 12 13  1  1  0  0  0
 14 12  1  0  0  0  0
 14 17  1  0  0  0  0
 15 14  1  0  0  0  0
 16 14  1  0  0  0  0
 19 20  1  6  0  0  0
 19 18  1  0  0  0  0
 21 31  2  0  0  0  0
 21 25  1  0  0  0  0
 23 29  1  0  0  0  0
 24 25  1  0  0  0  0
 24 23  2  0  0  0  0
 25 28  2  0  0  0  0
 26 19  1  0  0  0  0
 28 22  1  0  0  0  0
 28 27  1  0  0  0  0
 29 27  2  0  0  0  0
 30 26  1  0  0  0  0
 30 22  2  0  0  0  0
 31 30  1  0  0  0  0
 32 23  1  0  0  0  0
 32 34  1  0  0  0  0
 33 32  2  0  0  0  0
M  END
>  <MODEL>
4

>  <REMARK>
 VINA RESULT:      -9.0      3.211      6.899
  Name = 
  7 active torsions:
  status: ('A' for Active; 'I' for Inactive)
    1  A    between atoms: C_1  and  C_9
    2  A    between atoms: O_2  and  C_23
    3  A    between atoms: O_2  and  C_32
    4  A    between atoms: C_3  and  C_23
    5  A    between atoms: C_7  and  C_11
    6  A    between atoms: C_8  and  C_9
    7  A    between atoms: C_8  and  N_18
                            x       y       z     vdW  Elec       q    Type
                         _______ _______ _______ _____ _____    ______ ____

>  <TORSDO>
F 7

$$$$
=
 OpenBabel10272415233D

 34 37  0  0  1  0  0  0  0  0999 V2000
  189.0150  177.1340  138.5810 C   0  0  1  0  0  3  0  0  0  0  0  0
  186.3100  177.1110  137.5570 N   0  0  0  0  0  0  0  0  0  0  0  0
  189.1280  175.0840  137.0870 C   0  0  0  0  0  3  0  0  0  0  0  0
  188.2170  174.4920  136.2200 C   0  0  0  0  0  3  0  0  0  0  0  0
  187.2520  176.1030  137.2020 C   0  0  0  0  0  0  0  0  0  0  0  0
  188.4830  176.0820  137.7140 N   0  0  0  0  0  0  0  0  0  0  0  0
  187.0330  175.1440  136.2890 N   0  0  0  0  0  0  0  0  0  0  0  0
  186.5860  177.9720  138.4990 C   0  0  0  0  0  0  0  0  0  0  0  0
  188.3000  179.1420  139.6860 O   0  0  0  0  0  1  0  0  0  0  0  0
  187.8700  177.8710  139.3060 C   0  0  2  0  0  3  0  0  0  0  0  0
  185.6630  178.9670  138.8340 O   0  0  0  0  0  0  0  0  0  0  0  0
  184.3990  178.6820  139.4280 C   0  0  2  0  0  3  0  0  0  0  0  0
  183.3460  179.6420  138.8920 C   0  0  0  0  0  1  0  0  0  0  0  0
  184.5010  178.7820  140.9460 C   0  0  0  0  0  0  0  0  0  0  0  0
  183.3280  179.3100  141.4520 F   0  0  0  0  0  0  0  0  0  0  0  0
  185.5500  179.6140  141.2940 F   0  0  0  0  0  0  0  0  0  0  0  0
  184.7080  177.5300  141.4990 F   0  0  0  0  0  0  0  0  0  0  0  0
  189.9750  176.5620  139.6200 C   0  0  0  0  0  2  0  0  0  0  0  0
  191.3010  177.3020  139.6040 C   0  0  2  0  0  3  0  0  0  0  0  0
  192.2340  176.6300  138.6160 C   0  0  0  0  0  1  0  0  0  0  0  0
  191.0030  177.5170  144.5360 C   0  0  0  0  0  3  0  0  0  0  0  0
  189.7590  177.5130  142.0610 N   0  0  0  0  0  0  0  0  0  0  0  0
  187.4430  177.8550  145.5090 C   0  0  0  0  0  0  0  0  0  0  0  0
  188.8370  177.7440  145.6070 C   0  0  0  0  0  3  0  0  0  0  0  0
  189.6140  177.6290  144.4520 C   0  0  0  0  0  0  0  0  0  0  0  0
  191.8940  177.2830  140.9330 N   0  0  0  0  0  2  0  0  0  0  0  0
  187.6100  177.7350  143.0850 C   0  0  0  0  0  3  0  0  0  0  0  0
  188.9990  177.6240  143.1830 C   0  0  0  0  0  0  0  0  0  0  0  0
  186.8360  177.8490  144.2430 C   0  0  0  0  0  3  0  0  0  0  0  0
  191.1160  177.4040  142.1260 C   0  0  0  0  0  0  0  0  0  0  0  0
  191.7600  177.4040  143.3680 C   0  0  0  0  0  3  0  0  0  0  0  0
  186.6260  177.9750  146.7270 C   0  0  0  0  0  0  0  0  0  0  0  0
  187.1650  177.9220  147.8650 O   0  0  0  0  0  1  0  0  0  0  0  0
  185.2500  178.1490  146.6340 O   0  0  0  0  0  0  0  0  0  0  0  0
  1 10  1  0  0  0  0
  1 18  1  1  0  0  0
  2  8  2  0  0  0  0
  3  6  1  0  0  0  0
  4  7  1  0  0  0  0
  4  3  2  0  0  0  0
  5  2  1  0  0  0  0
  5  6  1  0  0  0  0
  6  1  1  0  0  0  0
  7  5  2  0  0  0  0
  8 11  1  0  0  0  0
  8 10  1  0  0  0  0
 10  9  1  6  0  0  0
 11 12  1  0  0  0  0
 12 13  1  6  0  0  0
 12 14  1  0  0  0  0
 14 16  1  0  0  0  0
 14 15  1  0  0  0  0
 14 17  1  0  0  0  0
 19 20  1  6  0  0  0
 19 18  1  0  0  0  0
 19 26  1  0  0  0  0
 22 30  2  0  0  0  0
 22 28  1  0  0  0  0
 23 24  1  0  0  0  0
 23 32  1  0  0  0  0
 25 21  1  0  0  0  0
 25 24  2  0  0  0  0
 26 30  1  0  0  0  0
 27 28  2  0  0  0  0
 27 29  1  0  0  0  0
 28 25  1  0  0  0  0
 29 23  2  0  0  0  0
 30 31  1  0  0  0  0
 31 21  2  0  0  0  0
 32 33  1  0  0  0  0
 34 32  2  0  0  0  0
M  END
>  <MODEL>
5

>  <REMARK>
 VINA RESULT:      -9.0      3.241      5.871
  Name = 
  7 active torsions:
  status: ('A' for Active; 'I' for Inactive)
    1  A    between atoms: C_1  and  C_9
    2  A    between atoms: O_2  and  C_23
    3  A    between atoms: O_2  and  C_32
    4  A    between atoms: C_3  and  C_23
    5  A    between atoms: C_7  and  C_11
    6  A    between atoms: C_8  and  C_9
    7  A    between atoms: C_8  and  N_18
                            x       y       z     vdW  Elec       q    Type
                         _______ _______ _______ _____ _____    ______ ____

>  <TORSDO>
F 7

$$$$
=
 OpenBabel10272415233D

 34 37  0  0  1  0  0  0  0  0999 V2000
  189.9040  177.1710  138.4570 C   0  0  1  0  0  3  0  0  0  0  0  0
  188.3620  176.9120  136.0240 N   0  0  0  0  0  0  0  0  0  0  0  0
  191.5500  175.8650  137.0310 C   0  0  0  0  0  3  0  0  0  0  0  0
  191.5240  175.4320  135.7110 C   0  0  0  0  0  3  0  0  0  0  0  0
  189.6580  176.3320  136.1540 C   0  0  0  0  0  0  0  0  0  0  0  0
  190.3480  176.4050  137.2920 N   0  0  0  0  0  0  0  0  0  0  0  0
  190.3280  175.7360  135.1550 N   0  0  0  0  0  0  0  0  0  0  0  0
  187.7590  177.4200  137.0620 C   0  0  0  0  0  0  0  0  0  0  0  0
  188.0130  178.4440  139.2080 O   0  0  0  0  0  1  0  0  0  0  0  0
  188.3700  177.3280  138.4510 C   0  0  2  0  0  3  0  0  0  0  0  0
  186.4930  178.0000  136.9270 O   0  0  0  0  0  0  0  0  0  0  0  0
  185.2840  177.2750  137.1340 C   0  0  2  0  0  3  0  0  0  0  0  0
  184.5730  177.0620  135.8050 C   0  0  0  0  0  1  0  0  0  0  0  0
  184.3880  178.0250  138.1150 C   0  0  0  0  0  0  0  0  0  0  0  0
  185.0630  179.1300  138.6010 F   0  0  0  0  0  0  0  0  0  0  0  0
  184.0590  177.2020  139.1770 F   0  0  0  0  0  0  0  0  0  0  0  0
  183.2290  178.4440  137.4850 F   0  0  0  0  0  0  0  0  0  0  0  0
  190.3320  176.4970  139.7570 C   0  0  0  0  0  2  0  0  0  0  0  0
  191.1890  177.4270  140.5980 C   0  0  2  0  0  3  0  0  0  0  0  0
  192.6330  177.3130  140.1500 C   0  0  0  0  0  1  0  0  0  0  0  0
  188.7010  177.1310  144.8620 C   0  0  0  0  0  3  0  0  0  0  0  0
  188.7780  177.8100  142.1780 N   0  0  0  0  0  0  0  0  0  0  0  0
  185.2720  178.4390  144.3440 C   0  0  0  0  0  0  0  0  0  0  0  0
  186.3990  177.8890  144.9730 C   0  0  0  0  0  3  0  0  0  0  0  0
  187.5740  177.6780  144.2480 C   0  0  0  0  0  0  0  0  0  0  0  0
  191.0790  177.0650  142.0040 N   0  0  0  0  0  2  0  0  0  0  0  0
  186.5100  178.5650  142.2530 C   0  0  0  0  0  3  0  0  0  0  0  0
  187.6320  178.0170  142.8800 C   0  0  0  0  0  0  0  0  0  0  0  0
  185.3360  178.7740  142.9820 C   0  0  0  0  0  3  0  0  0  0  0  0
  189.8870  177.2780  142.7630 C   0  0  0  0  0  0  0  0  0  0  0  0
  189.8650  176.9290  144.1170 C   0  0  0  0  0  3  0  0  0  0  0  0
  184.0360  178.6600  145.1100 C   0  0  0  0  0  0  0  0  0  0  0  0
  184.0700  178.7520  146.3660 O   0  0  0  0  0  1  0  0  0  0  0  0
  182.8150  178.7690  144.4530 O   0  0  0  0  0  0  0  0  0  0  0  0
  1 18  1  1  0  0  0
  2  5  1  0  0  0  0
  2  8  2  0  0  0  0
  3  6  1  0  0  0  0
  4  3  2  0  0  0  0
  5  6  1  0  0  0  0
  6  1  1  0  0  0  0
  7  4  1  0  0  0  0
  7  5  2  0  0  0  0
  8 10  1  0  0  0  0
 10  1  1  0  0  0  0
 10  9  1  1  0  0  0
 11  8  1  0  0  0  0
 11 12  1  0  0  0  0
 12 13  1  6  0  0  0
 12 14  1  0  0  0  0
 14 15  1  0  0  0  0
 14 16  1  0  0  0  0
 17 14  1  0  0  0  0
 18 19  1  0  0  0  0
 19 20  1  6  0  0  0
 19 26  1  0  0  0  0
 22 30  2  0  0  0  0
 22 28  1  0  0  0  0
 23 24  1  0  0  0  0
 23 32  1  0  0  0  0
 25 21  1  0  0  0  0
 25 24  2  0  0  0  0
 26 30  1  0  0  0  0
 27 28  2  0  0  0  0
 27 29  1  0  0  0  0
 28 25  1  0  0  0  0
 29 23  2  0  0  0  0
 30 31  1  0  0  0  0
 31 21  2  0  0  0  0
 32 33  1  0  0  0  0
 34 32  2  0  0  0  0
M  END
>  <MODEL>
6

>  <REMARK>
 VINA RESULT:      -8.9      3.610      6.444
  Name = 
  7 active torsions:
  status: ('A' for Active; 'I' for Inactive)
    1  A    between atoms: C_1  and  C_9
    2  A    between atoms: O_2  and  C_23
    3  A    between atoms: O_2  and  C_32
    4  A    between atoms: C_3  and  C_23
    5  A    between atoms: C_7  and  C_11
    6  A    between atoms: C_8  and  C_9
    7  A    between atoms: C_8  and  N_18
                            x       y       z     vdW  Elec       q    Type
                         _______ _______ _______ _____ _____    ______ ____

>  <TORSDO>
F 7

$$$$
=
 OpenBabel10272415233D

 34 37  0  0  1  0  0  0  0  0999 V2000
  186.0790  178.4000  138.9010 C   0  0  1  0  0  3  0  0  0  0  0  0
  183.2400  178.3580  139.4530 N   0  0  0  0  0  0  0  0  0  0  0  0
  185.2340  177.2990  136.7750 C   0  0  0  0  0  3  0  0  0  0  0  0
  183.9610  177.0080  136.3000 C   0  0  0  0  0  3  0  0  0  0  0  0
  183.7770  177.8040  138.2550 C   0  0  0  0  0  0  0  0  0  0  0  0
  185.0890  177.7750  138.0230 N   0  0  0  0  0  0  0  0  0  0  0  0
  183.0400  177.3360  137.2360 N   0  0  0  0  0  0  0  0  0  0  0  0
  184.0310  178.7360  140.4190 C   0  0  0  0  0  0  0  0  0  0  0  0
  186.2060  179.5330  141.0140 O   0  0  0  0  0  1  0  0  0  0  0  0
  185.5330  178.5140  140.3390 C   0  0  2  0  0  3  0  0  0  0  0  0
  183.5000  179.2920  141.5870 O   0  0  0  0  0  0  0  0  0  0  0  0
  183.1670  178.5120  142.7330 C   0  0  2  0  0  3  0  0  0  0  0  0
  181.7400  178.8120  143.1680 C   0  0  0  0  0  1  0  0  0  0  0  0
  184.1510  178.8000  143.8630 C   0  0  0  0  0  0  0  0  0  0  0  0
  184.8210  179.9800  143.5990 F   0  0  0  0  0  0  0  0  0  0  0  0
  185.0750  177.7750  143.9560 F   0  0  0  0  0  0  0  0  0  0  0  0
  183.4800  178.9210  145.0670 F   0  0  0  0  0  0  0  0  0  0  0  0
  187.3800  177.6040  138.9230 C   0  0  0  0  0  2  0  0  0  0  0  0
  188.5800  178.5130  138.7200 C   0  0  2  0  0  3  0  0  0  0  0  0
  188.7660  178.7670  137.2370 C   0  0  0  0  0  1  0  0  0  0  0  0
  191.2960  176.7950  142.4790 C   0  0  0  0  0  3  0  0  0  0  0  0
  188.9560  177.9480  141.5480 N   0  0  0  0  0  0  0  0  0  0  0  0
  189.3890  177.2180  145.6290 C   0  0  0  0  0  0  0  0  0  0  0  0
  190.4210  176.8810  144.7410 C   0  0  0  0  0  3  0  0  0  0  0  0
  190.2770  177.1250  143.3730 C   0  0  0  0  0  0  0  0  0  0  0  0
  189.7750  177.8850  139.2660 N   0  0  0  0  0  2  0  0  0  0  0  0
  188.0640  178.0470  143.7640 C   0  0  0  0  0  3  0  0  0  0  0  0
  189.0920  177.7110  142.8800 C   0  0  0  0  0  0  0  0  0  0  0  0
  188.2120  177.8000  145.1320 C   0  0  0  0  0  3  0  0  0  0  0  0
  189.9420  177.6320  140.6620 C   0  0  0  0  0  0  0  0  0  0  0  0
  191.1300  177.0490  141.1160 C   0  0  0  0  0  3  0  0  0  0  0  0
  189.5440  176.9590  147.0690 C   0  0  0  0  0  0  0  0  0  0  0  0
  188.5320  176.7990  147.8020 O   0  0  0  0  0  1  0  0  0  0  0  0
  190.8110  176.8880  147.6360 O   0  0  0  0  0  0  0  0  0  0  0  0
  1 18  1  1  0  0  0
  1 10  1  0  0  0  0
  2  8  2  0  0  0  0
  3  6  1  0  0  0  0
  4  3  2  0  0  0  0
  4  7  1  0  0  0  0
  5  2  1  0  0  0  0
  6  5  1  0  0  0  0
  6  1  1  0  0  0  0
  7  5  2  0  0  0  0
  8 11  1  0  0  0  0
 10  8  1  0  0  0  0
 10  9  1  6  0  0  0
 11 12  1  0  0  0  0
 12 13  1  1  0  0  0
 12 14  1  0  0  0  0
 14 16  1  0  0  0  0
 14 17  1  0  0  0  0
 15 14  1  0  0  0  0
 19 20  1  6  0  0  0
 19 18  1  0  0  0  0
 19 26  1  0  0  0  0
 21 25  1  0  0  0  0
 22 28  1  0  0  0  0
 23 32  1  0  0  0  0
 24 23  2  0  0  0  0
 25 24  1  0  0  0  0
 26 30  1  0  0  0  0
 27 29  2  0  0  0  0
 28 25  2  0  0  0  0
 28 27  1  0  0  0  0
 29 23  1  0  0  0  0
 30 31  1  0  0  0  0
 30 22  2  0  0  0  0
 31 21  2  0  0  0  0
 32 34  2  0  0  0  0
 32 33  1  0  0  0  0
M  END
>  <MODEL>
7

>  <REMARK>
 VINA RESULT:      -8.8      3.258      5.509
  Name = 
  7 active torsions:
  status: ('A' for Active; 'I' for Inactive)
    1  A    between atoms: C_1  and  C_9
    2  A    between atoms: O_2  and  C_23
    3  A    between atoms: O_2  and  C_32
    4  A    between atoms: C_3  and  C_23
    5  A    between atoms: C_7  and  C_11
    6  A    between atoms: C_8  and  C_9
    7  A    between atoms: C_8  and  N_18
                            x       y       z     vdW  Elec       q    Type
                         _______ _______ _______ _____ _____    ______ ____

>  <TORSDO>
F 7

$$$$
=
 OpenBabel10272415233D

 34 37  0  0  1  0  0  0  0  0999 V2000
  191.5890  175.7740  138.0320 C   0  0  1  0  0  3  0  0  0  0  0  0
  193.4010  174.0880  136.5360 N   0  0  0  0  0  0  0  0  0  0  0  0
  189.9240  174.1890  136.9540 C   0  0  0  0  0  3  0  0  0  0  0  0
  190.0700  173.0690  136.1440 C   0  0  0  0  0  3  0  0  0  0  0  0
  191.9890  173.9030  136.4800 C   0  0  0  0  0  0  0  0  0  0  0  0
  191.1490  174.7120  137.1260 N   0  0  0  0  0  0  0  0  0  0  0  0
  191.3800  172.8850  135.8530 N   0  0  0  0  0  0  0  0  0  0  0  0
  193.9070  175.1400  137.1200 C   0  0  0  0  0  0  0  0  0  0  0  0
  193.6100  176.8260  138.7890 O   0  0  0  0  0  1  0  0  0  0  0  0
  193.0150  176.2390  137.6720 C   0  0  2  0  0  3  0  0  0  0  0  0
  195.2930  175.3100  137.1830 O   0  0  0  0  0  0  0  0  0  0  0  0
  196.1720  174.3130  137.6990 C   0  0  2  0  0  3  0  0  0  0  0  0
  196.0950  174.2890  139.2190 C   0  0  0  0  0  1  0  0  0  0  0  0
  197.5990  174.5850  137.2320 C   0  0  0  0  0  0  0  0  0  0  0  0
  197.5820  175.5480  136.2390 F   0  0  0  0  0  0  0  0  0  0  0  0
  198.1560  173.4280  136.7200 F   0  0  0  0  0  0  0  0  0  0  0  0
  198.3730  175.0380  138.2870 F   0  0  0  0  0  0  0  0  0  0  0  0
  190.6450  176.9720  137.9780 C   0  0  0  0  0  2  0  0  0  0  0  0
  189.9190  177.1560  139.2980 C   0  0  2  0  0  3  0  0  0  0  0  0
  189.0380  178.3870  139.2150 C   0  0  0  0  0  1  0  0  0  0  0  0
  191.1080  177.7070  144.0670 C   0  0  0  0  0  3  0  0  0  0  0  0
  189.1850  177.3570  142.1060 N   0  0  0  0  0  0  0  0  0  0  0  0
  188.0040  177.6660  146.0910 C   0  0  0  0  0  0  0  0  0  0  0  0
  189.3630  177.7390  145.7520 C   0  0  0  0  0  3  0  0  0  0  0  0
  189.7600  177.6360  144.4170 C   0  0  0  0  0  0  0  0  0  0  0  0
  190.8850  177.3130  140.3770 N   0  0  0  0  0  2  0  0  0  0  0  0
  187.4410  177.3840  143.7410 C   0  0  0  0  0  3  0  0  0  0  0  0
  188.7940  177.4570  143.4040 C   0  0  0  0  0  0  0  0  0  0  0  0
  187.0480  177.4870  145.0780 C   0  0  0  0  0  3  0  0  0  0  0  0
  190.4980  177.4260  141.7470 C   0  0  0  0  0  0  0  0  0  0  0  0
  191.4820  177.6010  142.7260 C   0  0  0  0  0  3  0  0  0  0  0  0
  187.5890  177.7740  147.4980 C   0  0  0  0  0  0  0  0  0  0  0  0
  188.2290  177.1740  148.4010 O   0  0  0  0  0  1  0  0  0  0  0  0
  186.4830  178.5430  147.8450 O   0  0  0  0  0  0  0  0  0  0  0  0
  1 18  1  6  0  0  0
  2  8  2  0  0  0  0
  3  6  1  0  0  0  0
  4  3  2  0  0  0  0
  5  2  1  0  0  0  0
  5  6  1  0  0  0  0
  6  1  1  0  0  0  0
  7  4  1  0  0  0  0
  7  5  2  0  0  0  0
  8 11  1  0  0  0  0
  8 10  1  0  0  0  0
 10  1  1  0  0  0  0
 10  9  1  1  0  0  0
 11 12  1  0  0  0  0
 12 13  1  1  0  0  0
 14 12  1  0  0  0  0
 14 17  1  0  0  0  0
 15 14  1  0  0  0  0
 16 14  1  0  0  0  0
 18 19  1  0  0  0  0
 19 20  1  6  0  0  0
 19 26  1  0  0  0  0
 21 25  1  0  0  0  0
 22 28  1  0  0  0  0
 23 32  1  0  0  0  0
 24 23  1  0  0  0  0
 25 24  2  0  0  0  0
 26 30  1  0  0  0  0
 27 29  1  0  0  0  0
 28 27  2  0  0  0  0
 28 25  1  0  0  0  0
 29 23  2  0  0  0  0
 30 22  2  0  0  0  0
 30 31  1  0  0  0  0
 31 21  2  0  0  0  0
 32 34  2  0  0  0  0
 32 33  1  0  0  0  0
M  END
>  <MODEL>
8

>  <REMARK>
 VINA RESULT:      -8.8      5.562      7.773
  Name = 
  7 active torsions:
  status: ('A' for Active; 'I' for Inactive)
    1  A    between atoms: C_1  and  C_9
    2  A    between atoms: O_2  and  C_23
    3  A    between atoms: O_2  and  C_32
    4  A    between atoms: C_3  and  C_23
    5  A    between atoms: C_7  and  C_11
    6  A    between atoms: C_8  and  C_9
    7  A    between atoms: C_8  and  N_18
                            x       y       z     vdW  Elec       q    Type
                         _______ _______ _______ _____ _____    ______ ____

>  <TORSDO>
F 7

$$$$
=
 OpenBabel10272415233D

 34 37  0  0  1  0  0  0  0  0999 V2000
  185.8310  177.8750  139.2620 C   0  0  1  0  0  3  0  0  0  0  0  0
  187.9810  177.6870  137.3360 N   0  0  0  0  0  0  0  0  0  0  0  0
  184.4910  177.4610  137.1460 C   0  0  0  0  0  3  0  0  0  0  0  0
  184.8540  177.2060  135.8280 C   0  0  0  0  0  3  0  0  0  0  0  0
  186.6150  177.5870  136.9440 C   0  0  0  0  0  0  0  0  0  0  0  0
  185.6210  177.7260  137.8210 N   0  0  0  0  0  0  0  0  0  0  0  0
  186.2000  177.2780  135.7050 N   0  0  0  0  0  0  0  0  0  0  0  0
  188.2960  178.0500  138.5490 C   0  0  0  0  0  0  0  0  0  0  0  0
  187.6210  178.1230  140.8420 O   0  0  0  0  0  1  0  0  0  0  0  0
  187.2280  178.4640  139.5480 C   0  0  2  0  0  3  0  0  0  0  0  0
  189.6380  178.1340  138.9330 O   0  0  0  0  0  0  0  0  0  0  0  0
  190.3650  177.0240  139.4530 C   0  0  2  0  0  3  0  0  0  0  0  0
  191.2330  177.4730  140.6200 C   0  0  0  0  0  1  0  0  0  0  0  0
  191.2150  176.3970  138.3530 C   0  0  0  0  0  0  0  0  0  0  0  0
  191.1570  177.1890  137.2200 F   0  0  0  0  0  0  0  0  0  0  0  0
  190.7320  175.1390  138.0410 F   0  0  0  0  0  0  0  0  0  0  0  0
  192.5330  176.2920  138.7630 F   0  0  0  0  0  0  0  0  0  0  0  0
  184.7710  178.7780  139.8850 C   0  0  0  0  0  2  0  0  0  0  0  0
  183.7740  177.9700  140.6960 C   0  0  2  0  0  3  0  0  0  0  0  0
  182.5050  177.7880  139.8870 C   0  0  0  0  0  1  0  0  0  0  0  0
  184.7630  179.1870  145.3870 C   0  0  0  0  0  3  0  0  0  0  0  0
  185.4690  177.8650  143.0570 N   0  0  0  0  0  0  0  0  0  0  0  0
  187.9660  177.6120  146.3850 C   0  0  0  0  0  0  0  0  0  0  0  0
  186.7810  178.3600  146.4500 C   0  0  0  0  0  3  0  0  0  0  0  0
  185.9440  178.4460  145.3360 C   0  0  0  0  0  0  0  0  0  0  0  0
  183.4700  178.6640  141.9400 N   0  0  0  0  0  2  0  0  0  0  0  0
  187.4670  177.0350  144.0750 C   0  0  0  0  0  3  0  0  0  0  0  0
  186.2870  177.7800  144.1400 C   0  0  0  0  0  0  0  0  0  0  0  0
  188.3030  176.9530  145.1930 C   0  0  0  0  0  3  0  0  0  0  0  0
  184.3120  178.5840  143.0920 C   0  0  0  0  0  0  0  0  0  0  0  0
  183.9410  179.2580  144.2600 C   0  0  0  0  0  3  0  0  0  0  0  0
  188.8460  177.5250  147.5610 C   0  0  0  0  0  0  0  0  0  0  0  0
  188.5700  178.1580  148.6140 O   0  0  0  0  0  1  0  0  0  0  0  0
  189.9930  176.7400  147.5200 O   0  0  0  0  0  0  0  0  0  0  0  0
  1 10  1  0  0  0  0
  1 18  1  6  0  0  0
  2  8  2  0  0  0  0
  3  6  1  0  0  0  0
  4  3  2  0  0  0  0
  5  2  1  0  0  0  0
  5  6  1  0  0  0  0
  6  1  1  0  0  0  0
  7  4  1  0  0  0  0
  7  5  2  0  0  0  0
  8 11  1  0  0  0  0
  8 10  1  0  0  0  0
 10  9  1  1  0  0  0
 11 12  1  0  0  0  0
 12 13  1  1  0  0  0
 14 17  1  0  0  0  0
 14 12  1  0  0  0  0
 15 14  1  0  0  0  0
 16 14  1  0  0  0  0
 18 19  1  0  0  0  0
 19 20  1  6  0  0  0
 19 26  1  0  0  0  0
 22 30  2  0  0  0  0
 22 28  1  0  0  0  0
 23 24  1  0  0  0  0
 23 32  1  0  0  0  0
 25 21  1  0  0  0  0
 25 24  2  0  0  0  0
 26 30  1  0  0  0  0
 27 28  2  0  0  0  0
 27 29  1  0  0  0  0
 28 25  1  0  0  0  0
 29 23  2  0  0  0  0
 30 31  1  0  0  0  0
 31 21  2  0  0  0  0
 32 33  1  0  0  0  0
 34 32  2  0  0  0  0
M  END
>  <MODEL>
9

>  <REMARK>
 VINA RESULT:      -8.7      2.169      3.404
  Name = 
  7 active torsions:
  status: ('A' for Active; 'I' for Inactive)
    1  A    between atoms: C_1  and  C_9
    2  A    between atoms: O_2  and  C_23
    3  A    between atoms: O_2  and  C_32
    4  A    between atoms: C_3  and  C_23
    5  A    between atoms: C_7  and  C_11
    6  A    between atoms: C_8  and  C_9
    7  A    between atoms: C_8  and  N_18
                            x       y       z     vdW  Elec       q    Type
                         _______ _______ _______ _____ _____    ______ ____

>  <TORSDO>
F 7

$$$$
