=
 OpenBabel10272400523D

 25 29  0  0  1  0  0  0  0  0999 V2000
  188.1980  177.6570  145.2610 N   0  0  0  0  0  0  0  0  0  0  0  0
  187.3550  177.2610  144.1330 C   0  0  2  0  0  3  0  0  0  0  0  0
  186.3430  178.4680  146.5010 N   0  0  0  0  0  0  0  0  0  0  0  0
  189.4800  177.1230  145.5570 C   0  0  0  0  0  0  0  0  0  0  0  0
  187.8430  178.5470  142.3170 N   0  0  0  0  0  0  0  0  0  0  0  0
  191.9310  176.1200  146.4140 C   0  0  0  0  0  3  0  0  0  0  0  0
  185.5730  178.5390  145.2890 C   0  0  0  0  0  3  0  0  0  0  0  0
  189.8390  177.2160  146.8930 C   0  0  0  0  0  0  0  0  0  0  0  0
  191.0630  176.7150  147.3400 C   0  0  0  0  0  3  0  0  0  0  0  0
  185.4820  178.3530  142.8070 C   0  0  2  0  0  0  0  0  0  0  0  0
  184.0950  178.0030  142.4570 C   0  0  0  0  0  2  0  0  0  0  0  0
  188.0450  177.3170  142.8860 O   0  0  0  0  0  0  0  0  0  0  0  0
  191.5680  176.0260  145.0610 C   0  0  0  0  0  3  0  0  0  0  0  0
  187.5860  178.0860  146.4760 C   0  0  0  0  0  0  0  0  0  0  0  0
  188.6030  177.9740  147.9520 S   0  0  0  0  0  0  0  0  0  0  0  0
  184.4630  179.3190  142.8240 O   0  0  0  0  0  0  0  0  0  0  0  0
  190.3340  176.5270  144.6240 C   0  0  0  0  0  3  0  0  0  0  0  0
  186.5050  178.5820  141.7090 C   0  0  0  0  0  2  0  0  0  0  0  0
  186.0340  178.0030  144.1480 C   0  0  0  0  0  0  0  0  0  0  0  0
  188.8520  178.7590  141.2760 C   0  0  0  0  0  2  0  0  0  0  0  0
  189.5270  177.4630  140.8090 C   0  0  2  0  0  3  0  0  0  0  0  0
  190.8910  177.4710  141.1340 O   0  0  0  0  0  1  0  0  0  0  0  0
  189.3120  177.2580  139.3720 N   0  0  0  0  0  0  0  0  0  0  0  0
  190.4980  176.6230  138.8240 C   0  0  0  0  0  1  0  0  0  0  0  0
  189.1460  178.5360  138.6870 C   0  0  0  0  0  1  0  0  0  0  0  0
  1  4  1  0  0  0  0
  1 14  1  0  0  0  0
  2 12  1  6  0  0  0
  2 19  1  0  0  0  0
  2  1  1  0  0  0  0
  4  8  1  0  0  0  0
  5 12  1  0  0  0  0
  6  9  1  0  0  0  0
  7  3  1  0  0  0  0
  8  9  2  0  0  0  0
  8 15  1  0  0  0  0
 10 18  1  6  0  0  0
 10 16  1  0  0  0  0
 10 19  1  0  0  0  0
 11 10  1  0  0  0  0
 11 16  1  0  0  0  0
 13  6  2  0  0  0  0
 14  3  2  0  0  0  0
 14 15  1  0  0  0  0
 17 13  1  0  0  0  0
 17  4  2  0  0  0  0
 18  5  1  0  0  0  0
 19  7  2  0  0  0  0
 20  5  1  0  0  0  0
 21 22  1  6  0  0  0
 21 20  1  0  0  0  0
 23 21  1  0  0  0  0
 24 23  1  0  0  0  0
 25 23  1  0  0  0  0
M  END
>  <MODEL>
1

>  <REMARK>
 VINA RESULT:      -8.4      0.000      0.000
  Name = 
  3 active torsions:
  status: ('A' for Active; 'I' for Inactive)
    1  A    between atoms: N_2  and  C_21
    2  A    between atoms: N_6  and  C_15
    3  A    between atoms: C_15  and  C_21
                            x       y       z     vdW  Elec       q    Type
                         _______ _______ _______ _____ _____    ______ ____

>  <TORSDO>
F 3

$$$$
=
 OpenBabel10272400523D

 25 29  0  0  1  0  0  0  0  0999 V2000
  186.3630  178.2330  144.8720 N   0  0  0  0  0  0  0  0  0  0  0  0
  185.9520  177.6280  143.6050 C   0  0  2  0  0  3  0  0  0  0  0  0
  184.1770  179.0400  145.3200 N   0  0  0  0  0  0  0  0  0  0  0  0
  187.4970  177.8500  145.6360 C   0  0  0  0  0  0  0  0  0  0  0  0
  186.9610  178.7050  141.8700 N   0  0  0  0  0  0  0  0  0  0  0  0
  189.5660  177.1720  147.3700 C   0  0  0  0  0  3  0  0  0  0  0  0
  183.8440  178.8910  143.9290 C   0  0  0  0  0  3  0  0  0  0  0  0
  187.3940  178.1430  146.9880 C   0  0  0  0  0  0  0  0  0  0  0  0
  188.4210  177.8070  147.8710 C   0  0  0  0  0  3  0  0  0  0  0  0
  184.5780  178.3810  141.6040 C   0  0  2  0  0  0  0  0  0  0  0  0
  183.3950  177.8750  140.8860 C   0  0  0  0  0  2  0  0  0  0  0  0
  187.0090  177.5790  142.6500 O   0  0  0  0  0  0  0  0  0  0  0  0
  189.6700  176.8750  146.0010 C   0  0  0  0  0  3  0  0  0  0  0  0
  185.3720  178.7630  145.7500 C   0  0  0  0  0  0  0  0  0  0  0  0
  185.8530  178.9260  147.4720 S   0  0  0  0  0  0  0  0  0  0  0  0
  183.5740  179.2530  141.1510 O   0  0  0  0  0  0  0  0  0  0  0  0
  188.6300  177.2110  145.1240 C   0  0  0  0  0  3  0  0  0  0  0  0
  185.8950  178.5510  140.8680 C   0  0  0  0  0  2  0  0  0  0  0  0
  184.6720  178.2530  143.0880 C   0  0  0  0  0  0  0  0  0  0  0  0
  188.2460  178.8640  141.1860 C   0  0  0  0  0  2  0  0  0  0  0  0
  189.0510  177.5620  141.0910 C   0  0  2  0  0  3  0  0  0  0  0  0
  190.2100  177.6390  141.8760 O   0  0  0  0  0  1  0  0  0  0  0  0
  189.3620  177.2490  139.6910 N   0  0  0  0  0  0  0  0  0  0  0  0
  190.7660  176.8830  139.6120 C   0  0  0  0  0  1  0  0  0  0  0  0
  189.1690  178.4210  138.8450 C   0  0  0  0  0  1  0  0  0  0  0  0
  1  4  1  0  0  0  0
  1 14  1  0  0  0  0
  2 12  1  6  0  0  0
  2  1  1  0  0  0  0
  3 14  2  0  0  0  0
  4  8  1  0  0  0  0
  5 12  1  0  0  0  0
  6  9  1  0  0  0  0
  7  3  1  0  0  0  0
  8 15  1  0  0  0  0
  8  9  2  0  0  0  0
 10 18  1  6  0  0  0
 10 19  1  0  0  0  0
 11 16  1  0  0  0  0
 11 10  1  0  0  0  0
 13  6  2  0  0  0  0
 14 15  1  0  0  0  0
 16 10  1  0  0  0  0
 17  4  2  0  0  0  0
 17 13  1  0  0  0  0
 18  5  1  0  0  0  0
 19  2  1  0  0  0  0
 19  7  2  0  0  0  0
 20  5  1  0  0  0  0
 21 20  1  0  0  0  0
 21 22  1  1  0  0  0
 23 21  1  0  0  0  0
 24 23  1  0  0  0  0
 25 23  1  0  0  0  0
M  END
>  <MODEL>
2

>  <REMARK>
 VINA RESULT:      -8.4      1.361      1.857
  Name = 
  3 active torsions:
  status: ('A' for Active; 'I' for Inactive)
    1  A    between atoms: N_2  and  C_21
    2  A    between atoms: N_6  and  C_15
    3  A    between atoms: C_15  and  C_21
                            x       y       z     vdW  Elec       q    Type
                         _______ _______ _______ _____ _____    ______ ____

>  <TORSDO>
F 3

$$$$
=
 OpenBabel10272400523D

 25 29  0  0  1  0  0  0  0  0999 V2000
  187.1340  178.1350  142.7510 N   0  0  0  0  0  0  0  0  0  0  0  0
  188.1730  177.1870  142.3500 C   0  0  2  0  0  3  0  0  0  0  0  0
  186.6220  178.6910  140.5010 N   0  0  0  0  0  0  0  0  0  0  0  0
  186.4430  178.1210  143.9920 C   0  0  0  0  0  0  0  0  0  0  0  0
  190.2140  177.9520  143.0140 N   0  0  0  0  0  0  0  0  0  0  0  0
  184.8600  178.1970  146.2800 C   0  0  0  0  0  3  0  0  0  0  0  0
  187.8940  178.1630  140.0880 C   0  0  0  0  0  3  0  0  0  0  0  0
  185.1900  178.7130  143.9490 C   0  0  0  0  0  0  0  0  0  0  0  0
  184.3820  178.7560  145.0870 C   0  0  0  0  0  3  0  0  0  0  0  0
  190.1150  177.2220  140.7100 C   0  0  2  0  0  0  0  0  0  0  0  0
  190.5550  176.3880  139.5790 C   0  0  0  0  0  2  0  0  0  0  0  0
  189.2120  177.0680  143.3190 O   0  0  0  0  0  0  0  0  0  0  0  0
  186.1290  177.5970  146.3230 C   0  0  0  0  0  3  0  0  0  0  0  0
  186.2860  178.7070  141.7570 C   0  0  0  0  0  0  0  0  0  0  0  0
  184.7140  179.3510  142.3400 S   0  0  0  0  0  0  0  0  0  0  0  0
  190.6290  177.7990  139.5380 O   0  0  0  0  0  0  0  0  0  0  0  0
  186.9290  177.5530  145.1730 C   0  0  0  0  0  3  0  0  0  0  0  0
  191.0210  177.4040  141.9140 C   0  0  0  0  0  2  0  0  0  0  0  0
  188.6620  177.4720  140.9440 C   0  0  0  0  0  0  0  0  0  0  0  0
  191.0640  178.1310  144.1940 C   0  0  0  0  0  2  0  0  0  0  0  0
  190.7710  177.1260  145.3140 C   0  0  2  0  0  3  0  0  0  0  0  0
  190.2420  177.7770  146.4370 O   0  0  0  0  0  1  0  0  0  0  0  0
  191.9770  176.3590  145.6480 N   0  0  0  0  0  0  0  0  0  0  0  0
  192.0200  175.1880  144.7910 C   0  0  0  0  0  1  0  0  0  0  0  0
  191.9230  175.8880  147.0280 C   0  0  0  0  0  1  0  0  0  0  0  0
  1  4  1  0  0  0  0
  2 19  1  6  0  0  0
  2  1  1  0  0  0  0
  2 12  1  0  0  0  0
  3 14  2  0  0  0  0
  4 17  1  0  0  0  0
  5 12  1  0  0  0  0
  5 20  1  0  0  0  0
  6 13  1  0  0  0  0
  7  3  1  0  0  0  0
  7 19  2  0  0  0  0
  8  4  2  0  0  0  0
  8  9  1  0  0  0  0
  9  6  2  0  0  0  0
 10 11  1  6  0  0  0
 10 19  1  0  0  0  0
 10 18  1  0  0  0  0
 14 15  1  0  0  0  0
 14  1  1  0  0  0  0
 15  8  1  0  0  0  0
 16 11  1  0  0  0  0
 16 10  1  0  0  0  0
 17 13  2  0  0  0  0
 18  5  1  0  0  0  0
 20 21  1  0  0  0  0
 21 23  1  0  0  0  0
 21 22  1  1  0  0  0
 23 25  1  0  0  0  0
 24 23  1  0  0  0  0
M  END
>  <MODEL>
3

>  <REMARK>
 VINA RESULT:      -8.3      2.376      5.540
  Name = 
  3 active torsions:
  status: ('A' for Active; 'I' for Inactive)
    1  A    between atoms: N_2  and  C_21
    2  A    between atoms: N_6  and  C_15
    3  A    between atoms: C_15  and  C_21
                            x       y       z     vdW  Elec       q    Type
                         _______ _______ _______ _____ _____    ______ ____

>  <TORSDO>
F 3

$$$$
=
 OpenBabel10272400523D

 25 29  0  0  1  0  0  0  0  0999 V2000
  187.9530  177.5750  144.9010 N   0  0  0  0  0  0  0  0  0  0  0  0
  186.6320  177.3070  144.3340 C   0  0  2  0  0  3  0  0  0  0  0  0
  187.0340  178.4970  146.8850 N   0  0  0  0  0  0  0  0  0  0  0  0
  189.1560  176.9150  144.5320 C   0  0  0  0  0  0  0  0  0  0  0  0
  186.2960  178.6200  142.5030 N   0  0  0  0  0  0  0  0  0  0  0  0
  191.5970  175.6560  144.0840 C   0  0  0  0  0  3  0  0  0  0  0  0
  185.7810  178.6910  146.2070 C   0  0  0  0  0  3  0  0  0  0  0  0
  190.1290  176.9170  145.5200 C   0  0  0  0  0  0  0  0  0  0  0  0
  191.3570  176.2870  145.3130 C   0  0  0  0  0  3  0  0  0  0  0  0
  184.4700  178.6210  144.0900 C   0  0  2  0  0  0  0  0  0  0  0  0
  183.0610  178.4150  144.4680 C   0  0  0  0  0  2  0  0  0  0  0  0
  186.6250  177.3540  142.9090 O   0  0  0  0  0  0  0  0  0  0  0  0
  190.6120  175.6540  143.0830 C   0  0  0  0  0  3  0  0  0  0  0  0
  188.0600  178.0050  146.2560 C   0  0  0  0  0  0  0  0  0  0  0  0
  189.6520  177.7370  147.0440 S   0  0  0  0  0  0  0  0  0  0  0  0
  183.6920  179.6740  144.5980 O   0  0  0  0  0  0  0  0  0  0  0  0
  189.3790  176.2840  143.3050 C   0  0  0  0  0  3  0  0  0  0  0  0
  184.8420  178.8040  142.6300 C   0  0  0  0  0  2  0  0  0  0  0  0
  185.5690  178.1650  144.9900 C   0  0  0  0  0  0  0  0  0  0  0  0
  186.6830  178.7850  141.0990 C   0  0  0  0  0  2  0  0  0  0  0  0
  188.1440  178.4110  140.8230 C   0  0  2  0  0  3  0  0  0  0  0  0
  189.0080  179.1590  141.6360 O   0  0  0  0  0  1  0  0  0  0  0  0
  188.4600  178.5780  139.3990 N   0  0  0  0  0  0  0  0  0  0  0  0
  187.3570  178.0340  138.6260 C   0  0  0  0  0  1  0  0  0  0  0  0
  189.6560  177.8230  139.0440 C   0  0  0  0  0  1  0  0  0  0  0  0
  1 14  1  0  0  0  0
  2 12  1  6  0  0  0
  2  1  1  0  0  0  0
  2 19  1  0  0  0  0
  4  1  1  0  0  0  0
  4  8  1  0  0  0  0
  5 18  1  0  0  0  0
  5 12  1  0  0  0  0
  6  9  1  0  0  0  0
  7  3  1  0  0  0  0
  8 15  1  0  0  0  0
  9  8  2  0  0  0  0
 10 18  1  6  0  0  0
 10 11  1  0  0  0  0
 10 16  1  0  0  0  0
 10 19  1  0  0  0  0
 11 16  1  0  0  0  0
 13 17  1  0  0  0  0
 13  6  2  0  0  0  0
 14  3  2  0  0  0  0
 14 15  1  0  0  0  0
 17  4  2  0  0  0  0
 19  7  2  0  0  0  0
 20  5  1  0  0  0  0
 21 20  1  0  0  0  0
 21 22  1  1  0  0  0
 23 21  1  0  0  0  0
 24 23  1  0  0  0  0
 25 23  1  0  0  0  0
M  END
>  <MODEL>
4

>  <REMARK>
 VINA RESULT:      -7.9      1.334      1.744
  Name = 
  3 active torsions:
  status: ('A' for Active; 'I' for Inactive)
    1  A    between atoms: N_2  and  C_21
    2  A    between atoms: N_6  and  C_15
    3  A    between atoms: C_15  and  C_21
                            x       y       z     vdW  Elec       q    Type
                         _______ _______ _______ _____ _____    ______ ____

>  <TORSDO>
F 3

$$$$
=
 OpenBabel10272400523D

 25 29  0  0  1  0  0  0  0  0999 V2000
  185.5250  178.3890  144.3220 N   0  0  0  0  0  0  0  0  0  0  0  0
  186.8090  178.7000  144.9510 C   0  0  2  0  0  3  0  0  0  0  0  0
  184.3680  178.4700  146.3930 N   0  0  0  0  0  0  0  0  0  0  0  0
  185.2070  178.6020  142.9550 C   0  0  0  0  0  0  0  0  0  0  0  0
  188.2060  176.9080  144.7810 N   0  0  0  0  0  0  0  0  0  0  0  0
  184.3110  179.0720  140.3620 C   0  0  0  0  0  3  0  0  0  0  0  0
  185.6160  178.3070  147.0890 C   0  0  0  0  0  3  0  0  0  0  0  0
  183.8510  178.7600  142.7060 C   0  0  0  0  0  0  0  0  0  0  0  0
  183.3860  178.9990  141.4120 C   0  0  0  0  0  3  0  0  0  0  0  0
  188.0660  177.8680  146.9970 C   0  0  2  0  0  0  0  0  0  0  0  0
  188.6540  178.4870  148.1980 C   0  0  0  0  0  2  0  0  0  0  0  0
  187.9150  178.1370  144.2490 O   0  0  0  0  0  0  0  0  0  0  0  0
  185.6840  178.9130  140.6130 C   0  0  0  0  0  3  0  0  0  0  0  0
  184.3280  178.4720  145.0930 C   0  0  0  0  0  0  0  0  0  0  0  0
  182.8050  178.6720  144.1630 S   0  0  0  0  0  0  0  0  0  0  0  0
  187.9520  177.2620  148.2590 O   0  0  0  0  0  0  0  0  0  0  0  0
  186.1400  178.6790  141.9170 C   0  0  0  0  0  3  0  0  0  0  0  0
  188.9480  177.0910  146.0380 C   0  0  0  0  0  2  0  0  0  0  0  0
  186.7840  178.3830  146.4330 C   0  0  0  0  0  0  0  0  0  0  0  0
  189.0390  176.1650  143.8320 C   0  0  0  0  0  2  0  0  0  0  0  0
  189.7260  177.0610  142.7940 C   0  0  2  0  0  3  0  0  0  0  0  0
  189.3710  176.6740  141.4950 O   0  0  0  0  0  1  0  0  0  0  0  0
  191.1810  177.0500  142.9860 N   0  0  0  0  0  0  0  0  0  0  0  0
  191.5270  175.8650  143.7510 C   0  0  0  0  0  1  0  0  0  0  0  0
  191.6080  178.2100  143.7620 C   0  0  0  0  0  1  0  0  0  0  0  0
  1  2  1  0  0  0  0
  1 14  1  0  0  0  0
  2 12  1  6  0  0  0
  2 19  1  0  0  0  0
  3  7  1  0  0  0  0
  4  1  1  0  0  0  0
  5 18  1  0  0  0  0
  6 13  2  0  0  0  0
  6  9  1  0  0  0  0
  8  4  1  0  0  0  0
  8 15  1  0  0  0  0
  9  8  2  0  0  0  0
 10 18  1  6  0  0  0
 10 11  1  0  0  0  0
 10 16  1  0  0  0  0
 11 16  1  0  0  0  0
 12  5  1  0  0  0  0
 13 17  1  0  0  0  0
 14  3  2  0  0  0  0
 15 14  1  0  0  0  0
 17  4  2  0  0  0  0
 19 10  1  0  0  0  0
 19  7  2  0  0  0  0
 20  5  1  0  0  0  0
 21 22  1  6  0  0  0
 21 23  1  0  0  0  0
 21 20  1  0  0  0  0
 23 24  1  0  0  0  0
 23 25  1  0  0  0  0
M  END
>  <MODEL>
5

>  <REMARK>
 VINA RESULT:      -7.7      2.607      5.372
  Name = 
  3 active torsions:
  status: ('A' for Active; 'I' for Inactive)
    1  A    between atoms: N_2  and  C_21
    2  A    between atoms: N_6  and  C_15
    3  A    between atoms: C_15  and  C_21
                            x       y       z     vdW  Elec       q    Type
                         _______ _______ _______ _____ _____    ______ ____

>  <TORSDO>
F 3

$$$$
=
 OpenBabel10272400523D

 25 29  0  0  1  0  0  0  0  0999 V2000
  187.2830  178.1220  140.0350 N   0  0  0  0  0  0  0  0  0  0  0  0
  187.1610  178.7660  141.3430 C   0  0  2  0  0  3  0  0  0  0  0  0
  185.1170  178.8250  139.3660 N   0  0  0  0  0  0  0  0  0  0  0  0
  188.5060  177.7970  139.3890 C   0  0  0  0  0  0  0  0  0  0  0  0
  187.1190  177.1830  142.9810 N   0  0  0  0  0  0  0  0  0  0  0  0
  190.7660  177.2110  137.8740 C   0  0  0  0  0  3  0  0  0  0  0  0
  184.7730  179.0490  140.7440 C   0  0  0  0  0  3  0  0  0  0  0  0
  188.4140  177.7170  138.0080 C   0  0  0  0  0  0  0  0  0  0  0  0
  189.5380  177.4280  137.2330 C   0  0  0  0  0  3  0  0  0  0  0  0
  185.3800  178.8560  143.1530 C   0  0  2  0  0  0  0  0  0  0  0  0
  184.6500  179.9210  143.8620 C   0  0  0  0  0  2  0  0  0  0  0  0
  187.9180  178.1030  142.3540 O   0  0  0  0  0  0  0  0  0  0  0  0
  190.8600  177.2910  139.2730 C   0  0  0  0  0  3  0  0  0  0  0  0
  186.2860  178.3560  139.0430 C   0  0  0  0  0  0  0  0  0  0  0  0
  186.7800  178.0540  137.3430 S   0  0  0  0  0  0  0  0  0  0  0  0
  184.0090  178.7350  143.4350 O   0  0  0  0  0  0  0  0  0  0  0  0
  189.7250  177.5900  140.0410 C   0  0  0  0  0  3  0  0  0  0  0  0
  186.2390  177.8790  143.9330 C   0  0  0  0  0  2  0  0  0  0  0  0
  185.7090  179.0020  141.7040 C   0  0  0  0  0  0  0  0  0  0  0  0
  187.9670  176.2370  143.7100 C   0  0  0  0  0  2  0  0  0  0  0  0
  189.4640  176.5420  143.5870 C   0  0  2  0  0  3  0  0  0  0  0  0
  190.1170  175.5350  142.8630 O   0  0  0  0  0  1  0  0  0  0  0  0
  190.0630  176.7310  144.9150 N   0  0  0  0  0  0  0  0  0  0  0  0
  189.6630  178.0380  145.4080 C   0  0  0  0  0  1  0  0  0  0  0  0
  191.5190  176.7240  144.8290 C   0  0  0  0  0  1  0  0  0  0  0  0
  1  2  1  0  0  0  0
  2 19  1  1  0  0  0
  2 12  1  0  0  0  0
  3  7  1  0  0  0  0
  4  1  1  0  0  0  0
  4 17  1  0  0  0  0
  5 20  1  0  0  0  0
  5 18  1  0  0  0  0
  6 13  1  0  0  0  0
  7 19  2  0  0  0  0
  8  4  2  0  0  0  0
  9  6  2  0  0  0  0
  9  8  1  0  0  0  0
 10 16  1  0  0  0  0
 10 11  1  1  0  0  0
 10 18  1  0  0  0  0
 12  5  1  0  0  0  0
 13 17  2  0  0  0  0
 14  3  2  0  0  0  0
 14  1  1  0  0  0  0
 15  8  1  0  0  0  0
 15 14  1  0  0  0  0
 16 11  1  0  0  0  0
 19 10  1  0  0  0  0
 21 22  1  1  0  0  0
 21 20  1  0  0  0  0
 21 23  1  0  0  0  0
 23 24  1  0  0  0  0
 25 23  1  0  0  0  0
M  END
>  <MODEL>
6

>  <REMARK>
 VINA RESULT:      -7.4      2.736      5.732
  Name = 
  3 active torsions:
  status: ('A' for Active; 'I' for Inactive)
    1  A    between atoms: N_2  and  C_21
    2  A    between atoms: N_6  and  C_15
    3  A    between atoms: C_15  and  C_21
                            x       y       z     vdW  Elec       q    Type
                         _______ _______ _______ _____ _____    ______ ____

>  <TORSDO>
F 3

$$$$
=
 OpenBabel10272400523D

 25 29  0  0  1  0  0  0  0  0999 V2000
  187.0120  177.9910  142.0920 N   0  0  0  0  0  0  0  0  0  0  0  0
  187.1650  178.7500  140.8510 C   0  0  2  0  0  3  0  0  0  0  0  0
  189.1530  176.9900  141.8710 N   0  0  0  0  0  0  0  0  0  0  0  0
  186.1370  178.3270  143.1590 C   0  0  0  0  0  0  0  0  0  0  0  0
  185.6700  178.0070  139.3010 N   0  0  0  0  0  0  0  0  0  0  0  0
  184.6190  178.8710  145.4280 C   0  0  0  0  0  3  0  0  0  0  0  0
  189.1550  177.3220  140.4720 C   0  0  0  0  0  3  0  0  0  0  0  0
  186.5310  177.8320  144.3930 C   0  0  0  0  0  0  0  0  0  0  0  0
  185.7830  178.0980  145.5410 C   0  0  0  0  0  3  0  0  0  0  0  0
  187.9390  178.2150  138.4900 C   0  0  2  0  0  0  0  0  0  0  0  0
  188.9590  178.7460  137.5690 C   0  0  0  0  0  2  0  0  0  0  0  0
  185.9190  179.0060  140.2050 O   0  0  0  0  0  0  0  0  0  0  0  0
  184.2200  179.3730  144.1780 C   0  0  0  0  0  3  0  0  0  0  0  0
  188.1280  177.2750  142.6190 C   0  0  0  0  0  0  0  0  0  0  0  0
  188.0600  176.8900  144.3710 S   0  0  0  0  0  0  0  0  0  0  0  0
  188.7150  177.3580  137.6930 O   0  0  0  0  0  0  0  0  0  0  0  0
  184.9820  179.1050  143.0330 C   0  0  0  0  0  3  0  0  0  0  0  0
  186.4750  178.2390  138.0920 C   0  0  0  0  0  2  0  0  0  0  0  0
  188.2160  178.1280  139.9540 C   0  0  0  0  0  0  0  0  0  0  0  0
  184.2490  178.0310  138.9470 C   0  0  0  0  0  2  0  0  0  0  0  0
  183.3240  177.6740  140.1170 C   0  0  2  0  0  3  0  0  0  0  0  0
  182.6000  176.5060  139.8370 O   0  0  0  0  0  1  0  0  0  0  0  0
  182.4360  178.7990  140.4350 N   0  0  0  0  0  0  0  0  0  0  0  0
  181.1880  178.2590  140.9470 C   0  0  0  0  0  1  0  0  0  0  0  0
  182.1190  179.5630  139.2330 C   0  0  0  0  0  1  0  0  0  0  0  0
  1 14  1  0  0  0  0
  1  4  1  0  0  0  0
  2 19  1  6  0  0  0
  2  1  1  0  0  0  0
  3 14  2  0  0  0  0
  4  8  1  0  0  0  0
  5 12  1  0  0  0  0
  6  9  1  0  0  0  0
  7  3  1  0  0  0  0
  8  9  2  0  0  0  0
 10 11  1  6  0  0  0
 10 19  1  0  0  0  0
 11 16  1  0  0  0  0
 12  2  1  0  0  0  0
 13  6  2  0  0  0  0
 14 15  1  0  0  0  0
 15  8  1  0  0  0  0
 16 10  1  0  0  0  0
 17  4  2  0  0  0  0
 17 13  1  0  0  0  0
 18 10  1  0  0  0  0
 18  5  1  0  0  0  0
 19  7  2  0  0  0  0
 20  5  1  0  0  0  0
 20 21  1  0  0  0  0
 21 22  1  6  0  0  0
 21 23  1  0  0  0  0
 23 24  1  0  0  0  0
 25 23  1  0  0  0  0
M  END
>  <MODEL>
7

>  <REMARK>
 VINA RESULT:      -7.4      3.035      5.922
  Name = 
  3 active torsions:
  status: ('A' for Active; 'I' for Inactive)
    1  A    between atoms: N_2  and  C_21
    2  A    between atoms: N_6  and  C_15
    3  A    between atoms: C_15  and  C_21
                            x       y       z     vdW  Elec       q    Type
                         _______ _______ _______ _____ _____    ______ ____

>  <TORSDO>
F 3

$$$$
=
 OpenBabel10272400523D

 25 29  0  0  1  0  0  0  0  0999 V2000
  184.0160  178.6660  142.4660 N   0  0  0  0  0  0  0  0  0  0  0  0
  185.0750  179.1610  143.3450 C   0  0  2  0  0  3  0  0  0  0  0  0
  182.3720  178.8430  144.1680 N   0  0  0  0  0  0  0  0  0  0  0  0
  184.0390  178.7100  141.0460 C   0  0  0  0  0  0  0  0  0  0  0  0
  186.5900  177.5050  143.7380 N   0  0  0  0  0  0  0  0  0  0  0  0
  183.7970  178.8280  138.2760 C   0  0  0  0  0  3  0  0  0  0  0  0
  183.4120  178.8710  145.1600 C   0  0  0  0  0  3  0  0  0  0  0  0
  182.7830  178.7100  140.4590 C   0  0  0  0  0  0  0  0  0  0  0  0
  182.6430  178.7720  139.0720 C   0  0  0  0  0  3  0  0  0  0  0  0
  185.8300  178.6640  145.7210 C   0  0  2  0  0  0  0  0  0  0  0  0
  186.0530  179.4550  146.9440 C   0  0  0  0  0  2  0  0  0  0  0  0
  186.3590  178.6410  143.0070 O   0  0  0  0  0  0  0  0  0  0  0  0
  185.0690  178.8280  138.8700 C   0  0  0  0  0  3  0  0  0  0  0  0
  182.6610  178.7100  142.9070 C   0  0  0  0  0  0  0  0  0  0  0  0
  181.4120  178.6680  141.6180 S   0  0  0  0  0  0  0  0  0  0  0  0
  185.4430  178.1790  146.9810 O   0  0  0  0  0  0  0  0  0  0  0  0
  185.1970  178.7720  140.2650 C   0  0  0  0  0  3  0  0  0  0  0  0
  186.9770  177.8830  145.1060 C   0  0  0  0  0  2  0  0  0  0  0  0
  184.7000  178.9940  144.8040 C   0  0  0  0  0  0  0  0  0  0  0  0
  187.6840  176.7540  143.1170 C   0  0  0  0  0  2  0  0  0  0  0  0
  188.6090  177.6250  142.2580 C   0  0  2  0  0  3  0  0  0  0  0  0
  188.4420  177.3320  140.8980 O   0  0  0  0  0  1  0  0  0  0  0  0
  190.0060  177.4670  142.6810 N   0  0  0  0  0  0  0  0  0  0  0  0
  190.1530  176.1470  143.2690 C   0  0  0  0  0  1  0  0  0  0  0  0
  190.3470  178.4430  143.7100 C   0  0  0  0  0  1  0  0  0  0  0  0
  1 14  1  0  0  0  0
  1  2  1  0  0  0  0
  2 12  1  1  0  0  0
  2 19  1  0  0  0  0
  3  7  1  0  0  0  0
  4  1  1  0  0  0  0
  5 18  1  0  0  0  0
  6 13  2  0  0  0  0
  6  9  1  0  0  0  0
  8  4  1  0  0  0  0
  8 15  1  0  0  0  0
  9  8  2  0  0  0  0
 10 18  1  6  0  0  0
 10 11  1  0  0  0  0
 10 16  1  0  0  0  0
 11 16  1  0  0  0  0
 12  5  1  0  0  0  0
 13 17  1  0  0  0  0
 14  3  2  0  0  0  0
 15 14  1  0  0  0  0
 17  4  2  0  0  0  0
 19  7  2  0  0  0  0
 19 10  1  0  0  0  0
 20  5  1  0  0  0  0
 21 22  1  6  0  0  0
 21 23  1  0  0  0  0
 21 20  1  0  0  0  0
 23 24  1  0  0  0  0
 23 25  1  0  0  0  0
M  END
>  <MODEL>
8

>  <REMARK>
 VINA RESULT:      -7.2      3.146      6.049
  Name = 
  3 active torsions:
  status: ('A' for Active; 'I' for Inactive)
    1  A    between atoms: N_2  and  C_21
    2  A    between atoms: N_6  and  C_15
    3  A    between atoms: C_15  and  C_21
                            x       y       z     vdW  Elec       q    Type
                         _______ _______ _______ _____ _____    ______ ____

>  <TORSDO>
F 3

$$$$
=
 OpenBabel10272400523D

 25 29  0  0  1  0  0  0  0  0999 V2000
  188.6930  177.8510  143.8640 N   0  0  0  0  0  0  0  0  0  0  0  0
  187.3500  177.4280  144.2590 C   0  0  2  0  0  3  0  0  0  0  0  0
  189.3960  178.0930  146.1180 N   0  0  0  0  0  0  0  0  0  0  0  0
  189.3110  177.5690  142.6170 C   0  0  0  0  0  0  0  0  0  0  0  0
  185.8280  179.0000  143.6260 N   0  0  0  0  0  0  0  0  0  0  0  0
  190.7730  177.0090  140.3160 C   0  0  0  0  0  3  0  0  0  0  0  0
  188.0200  178.1480  146.5340 C   0  0  0  0  0  3  0  0  0  0  0  0
  190.6970  177.5710  142.6580 C   0  0  0  0  0  0  0  0  0  0  0  0
  191.4460  177.2880  141.5140 C   0  0  0  0  0  3  0  0  0  0  0  0
  185.6090  178.2530  145.9170 C   0  0  2  0  0  0  0  0  0  0  0  0
  184.8570  177.6630  147.0380 C   0  0  0  0  0  2  0  0  0  0  0  0
  186.3570  177.7800  143.2970 O   0  0  0  0  0  0  0  0  0  0  0  0
  189.3690  177.0070  140.2740 C   0  0  0  0  0  3  0  0  0  0  0  0
  189.7050  177.9890  144.8600 C   0  0  0  0  0  0  0  0  0  0  0  0
  191.4010  177.9140  144.2740 S   0  0  0  0  0  0  0  0  0  0  0  0
  185.3900  178.9710  147.1040 O   0  0  0  0  0  0  0  0  0  0  0  0
  188.6280  177.2850  141.4310 C   0  0  0  0  0  3  0  0  0  0  0  0
  184.8650  178.8260  144.7250 C   0  0  0  0  0  2  0  0  0  0  0  0
  187.0300  177.8660  145.6740 C   0  0  0  0  0  0  0  0  0  0  0  0
  185.1330  179.5470  142.4580 C   0  0  0  0  0  2  0  0  0  0  0  0
  185.1450  178.6060  141.2480 C   0  0  2  0  0  3  0  0  0  0  0  0
  185.9070  179.1510  140.2050 O   0  0  0  0  0  1  0  0  0  0  0  0
  183.7750  178.3010  140.8170 N   0  0  0  0  0  0  0  0  0  0  0  0
  183.5260  179.0050  139.5710 C   0  0  0  0  0  1  0  0  0  0  0  0
  182.8070  178.7880  141.7940 C   0  0  0  0  0  1  0  0  0  0  0  0
  1  2  1  0  0  0  0
  1 14  1  0  0  0  0
  2 12  1  6  0  0  0
  2 19  1  0  0  0  0
  3  7  1  0  0  0  0
  4  8  1  0  0  0  0
  4  1  1  0  0  0  0
  5 18  1  0  0  0  0
  6  9  1  0  0  0  0
  8 15  1  0  0  0  0
  9  8  2  0  0  0  0
 10 18  1  6  0  0  0
 10 11  1  0  0  0  0
 10 16  1  0  0  0  0
 11 16  1  0  0  0  0
 12  5  1  0  0  0  0
 13  6  2  0  0  0  0
 13 17  1  0  0  0  0
 14  3  2  0  0  0  0
 15 14  1  0  0  0  0
 17  4  2  0  0  0  0
 19 10  1  0  0  0  0
 19  7  2  0  0  0  0
 20  5  1  0  0  0  0
 21 22  1  6  0  0  0
 21 20  1  0  0  0  0
 23 21  1  0  0  0  0
 23 25  1  0  0  0  0
 24 23  1  0  0  0  0
M  END
>  <MODEL>
9

>  <REMARK>
 VINA RESULT:      -7.2      2.425      4.339
  Name = 
  3 active torsions:
  status: ('A' for Active; 'I' for Inactive)
    1  A    between atoms: N_2  and  C_21
    2  A    between atoms: N_6  and  C_15
    3  A    between atoms: C_15  and  C_21
                            x       y       z     vdW  Elec       q    Type
                         _______ _______ _______ _____ _____    ______ ____

>  <TORSDO>
F 3

$$$$
