=
 OpenBabel10272413433D

 30 32  0  0  1  0  0  0  0  0999 V2000
  187.7550  177.7200  141.7530 C   0  0  1  0  0  3  0  0  0  0  0  0
  189.2680  176.8680  140.0710 C   0  0  2  0  0  3  0  0  0  0  0  0
  187.8500  178.1250  143.1950 C   0  0  1  0  0  3  0  0  0  0  0  0
  186.8980  178.7690  141.0660 C   0  0  0  0  0  2  0  0  0  0  0  0
  184.1020  178.5510  143.6060 O   0  0  0  0  0  1  0  0  0  0  0  0
  185.3710  178.4590  143.0400 C   0  0  0  0  0  0  0  0  0  0  0  0
  185.5410  178.8470  141.7510 C   0  0  0  0  0  0  0  0  0  0  0  0
  186.5100  177.8610  143.8710 C   0  0  2  0  0  3  0  0  0  0  0  0
  190.7420  176.4980  139.7720 C   0  0  0  0  0  2  0  0  0  0  0  0
  188.7630  177.5930  138.9900 O   0  0  0  0  0  1  0  0  0  0  0  0
  191.9150  176.3100  143.1250 O   0  0  0  0  0  0  0  0  0  0  0  0
  191.9480  177.4680  140.7590 S   0  0  0  0  0  0  0  0  0  0  0  0
  189.1340  177.6560  141.3050 N   0  0  2  0  0  0  0  0  0  0  0  0
  189.0740  177.3920  143.7170 C   0  0  1  0  0  3  0  0  0  0  0  0
  191.2270  176.8770  142.2930 C   0  0  0  0  0  0  0  0  0  0  0  0
  189.7320  176.9100  142.4130 C   0  0  2  0  0  3  0  0  0  0  0  0
  185.2920  179.1410  145.7060 C   0  0  0  0  0  1  0  0  0  0  0  0
  186.5430  178.3570  145.3250 C   0  0  1  0  0  3  0  0  0  0  0  0
  186.7940  177.2080  146.2920 C   0  0  0  0  0  2  0  0  0  0  0  0
  187.3190  177.7180  147.6250 C   0  0  0  0  0  2  0  0  0  0  0  0
  188.1340  176.7560  148.2220 O   0  0  0  0  0  1  0  0  0  0  0  0
  184.4400  179.3570  141.0560 O   0  0  0  0  0  0  0  0  0  0  0  0
  183.9440  178.7600  139.8680 C   0  0  0  0  0  2  0  0  0  0  0  0
  183.0320  177.6060  140.2260 C   0  0  0  0  0  1  0  0  0  0  0  0
  189.9330  178.3040  144.4880 N   0  0  0  0  0  0  0  0  0  0  0  0
  190.7460  179.2800  143.8200 C   0  0  0  0  0  3  0  0  0  0  0  0
  191.8820  179.7330  144.3380 C   0  0  0  0  0  2  0  0  0  0  0  0
  190.1460  178.0910  145.8140 O   0  0  0  0  0  0  0  0  0  0  0  0
  191.9340  176.8600  146.5080 O   0  0  0  0  0  1  0  0  0  0  0  0
  190.6740  176.8000  145.9150 C   0  0  0  0  0  2  0  0  0  0  0  0
  1  4  1  6  0  0  0
  1  3  1  0  0  0  0
  2 10  1  6  0  0  0
  2 13  1  0  0  0  0
  3 14  1  0  0  0  0
  3  8  1  0  0  0  0
  4  7  1  0  0  0  0
  6  5  1  0  0  0  0
  6  8  1  0  0  0  0
  7  6  2  0  0  0  0
  8 18  1  0  0  0  0
  9  2  1  0  0  0  0
  9 12  1  0  0  0  0
 12 15  1  0  0  0  0
 13  1  1  0  0  0  0
 13 16  1  0  0  0  0
 14 25  1  0  0  0  0
 15 16  1  0  0  0  0
 15 11  2  0  0  0  0
 16 14  1  0  0  0  0
 18 17  1  0  0  0  0
 18 19  1  0  0  0  0
 19 20  1  0  0  0  0
 20 21  1  0  0  0  0
 22  7  1  0  0  0  0
 23 24  1  0  0  0  0
 23 22  1  0  0  0  0
 25 28  1  0  0  0  0
 26 27  2  0  0  0  0
 26 25  1  0  0  0  0
 28 30  1  0  0  0  0
 30 29  1  0  0  0  0
M  END
>  <MODEL>
1

>  <REMARK>
 VINA RESULT:      -7.2      0.000      0.000
  Name = 
  9 active torsions:
  status: ('A' for Active; 'I' for Inactive)
    1  A    between atoms: C_7  and  C_16
    2  A    between atoms: C_7  and  C_30
    3  A    between atoms: O_9  and  C_12
    4  A    between atoms: O_9  and  C_17
    5  A    between atoms: C_10  and  N_25
    6  A    between atoms: C_11  and  O_24
    7  A    between atoms: C_13  and  C_30
    8  A    between atoms: C_23  and  N_25
    9  A    between atoms: O_24  and  N_25
                            x       y       z     vdW  Elec       q    Type
                         _______ _______ _______ _____ _____    ______ ____

>  <TORSDO>
F 9

$$$$
=
 OpenBabel10272413433D

 30 32  0  0  1  0  0  0  0  0999 V2000
  187.0330  177.9580  142.3830 C   0  0  1  0  0  3  0  0  0  0  0  0
  186.9120  177.9000  139.9690 C   0  0  2  0  0  3  0  0  0  0  0  0
  188.1020  177.7840  143.4230 C   0  0  1  0  0  3  0  0  0  0  0  0
  186.1910  179.1420  142.8260 C   0  0  0  0  0  2  0  0  0  0  0  0
  185.6630  177.8150  146.3290 O   0  0  0  0  0  1  0  0  0  0  0  0
  186.2300  178.0160  145.0740 C   0  0  0  0  0  0  0  0  0  0  0  0
  185.6290  178.8770  144.2160 C   0  0  0  0  0  0  0  0  0  0  0  0
  187.4730  177.2080  144.6850 C   0  0  2  0  0  3  0  0  0  0  0  0
  187.7400  177.7540  138.6690 C   0  0  0  0  0  2  0  0  0  0  0  0
  186.0120  178.9560  139.8080 O   0  0  0  0  0  1  0  0  0  0  0  0
  190.6880  176.3590  140.0900 O   0  0  0  0  0  0  0  0  0  0  0  0
  189.4730  178.3360  138.8430 S   0  0  0  0  0  0  0  0  0  0  0  0
  187.7630  178.1460  141.1430 N   0  0  2  0  0  0  0  0  0  0  0  0
  189.1820  176.9740  142.7260 C   0  0  1  0  0  3  0  0  0  0  0  0
  189.7740  177.1630  140.1680 C   0  0  0  0  0  0  0  0  0  0  0  0
  188.7450  177.0660  141.2540 C   0  0  2  0  0  3  0  0  0  0  0  0
  189.2170  178.4390  146.0750 C   0  0  0  0  0  1  0  0  0  0  0  0
  188.5220  177.1090  145.8030 C   0  0  1  0  0  3  0  0  0  0  0  0
  187.9190  176.5270  147.0740 C   0  0  0  0  0  2  0  0  0  0  0  0
  188.5670  177.1280  148.3120 C   0  0  0  0  0  2  0  0  0  0  0  0
  187.6450  177.9150  149.0040 O   0  0  0  0  0  1  0  0  0  0  0  0
  184.4820  179.5540  144.6420 O   0  0  0  0  0  0  0  0  0  0  0  0
  183.2030  178.9400  144.6790 C   0  0  0  0  0  2  0  0  0  0  0  0
  182.5690  179.0120  143.3060 C   0  0  0  0  0  1  0  0  0  0  0  0
  190.5070  177.5670  142.9660 N   0  0  0  0  0  0  0  0  0  0  0  0
  190.6660  178.9900  143.0520 C   0  0  0  0  0  3  0  0  0  0  0  0
  191.4860  179.5630  143.9270 C   0  0  0  0  0  2  0  0  0  0  0  0
  191.6280  176.8010  142.8820 O   0  0  0  0  0  0  0  0  0  0  0  0
  191.8300  176.1840  145.0680 O   0  0  0  0  0  1  0  0  0  0  0  0
  191.4480  175.7580  143.7960 C   0  0  0  0  0  2  0  0  0  0  0  0
  1  4  1  1  0  0  0
  1  3  1  0  0  0  0
  2 10  1  6  0  0  0
  2 13  1  0  0  0  0
  3  8  1  0  0  0  0
  4  7  1  0  0  0  0
  6  5  1  0  0  0  0
  7 22  1  0  0  0  0
  7  6  2  0  0  0  0
  8  6  1  0  0  0  0
  8 18  1  0  0  0  0
  9 12  1  0  0  0  0
  9  2  1  0  0  0  0
 11 15  2  0  0  0  0
 12 15  1  0  0  0  0
 13 16  1  0  0  0  0
 13  1  1  0  0  0  0
 14 25  1  0  0  0  0
 14  3  1  0  0  0  0
 15 16  1  0  0  0  0
 16 14  1  0  0  0  0
 18 17  1  0  0  0  0
 18 19  1  0  0  0  0
 19 20  1  0  0  0  0
 20 21  1  0  0  0  0
 22 23  1  0  0  0  0
 24 23  1  0  0  0  0
 25 26  1  0  0  0  0
 26 27  2  0  0  0  0
 28 25  1  0  0  0  0
 28 30  1  0  0  0  0
 30 29  1  0  0  0  0
M  END
>  <MODEL>
2

>  <REMARK>
 VINA RESULT:      -6.9      1.740      2.537
  Name = 
  9 active torsions:
  status: ('A' for Active; 'I' for Inactive)
    1  A    between atoms: C_7  and  C_16
    2  A    between atoms: C_7  and  C_30
    3  A    between atoms: O_9  and  C_12
    4  A    between atoms: O_9  and  C_17
    5  A    between atoms: C_10  and  N_25
    6  A    between atoms: C_11  and  O_24
    7  A    between atoms: C_13  and  C_30
    8  A    between atoms: C_23  and  N_25
    9  A    between atoms: O_24  and  N_25
                            x       y       z     vdW  Elec       q    Type
                         _______ _______ _______ _____ _____    ______ ____

>  <TORSDO>
F 9

$$$$
=
 OpenBabel10272413433D

 30 32  0  0  1  0  0  0  0  0999 V2000
  187.8310  177.5900  142.3730 C   0  0  1  0  0  3  0  0  0  0  0  0
  189.1300  176.8220  140.4850 C   0  0  2  0  0  3  0  0  0  0  0  0
  188.0930  177.9060  143.8170 C   0  0  1  0  0  3  0  0  0  0  0  0
  186.9250  178.6910  141.8500 C   0  0  0  0  0  2  0  0  0  0  0  0
  184.4240  178.3570  144.6700 O   0  0  0  0  0  1  0  0  0  0  0  0
  185.6190  178.2820  143.9610 C   0  0  0  0  0  0  0  0  0  0  0  0
  185.6540  178.7460  142.6860 C   0  0  0  0  0  0  0  0  0  0  0  0
  186.8320  177.6190  144.6220 C   0  0  2  0  0  3  0  0  0  0  0  0
  190.5530  176.4510  140.0010 C   0  0  0  0  0  2  0  0  0  0  0  0
  188.5230  177.6190  139.5120 O   0  0  0  0  0  1  0  0  0  0  0  0
  192.0880  176.0420  143.1850 O   0  0  0  0  0  0  0  0  0  0  0  0
  191.8820  177.3430  140.9030 S   0  0  0  0  0  0  0  0  0  0  0  0
  189.1500  177.5350  141.7710 N   0  0  2  0  0  0  0  0  0  0  0  0
  189.3520  177.1250  144.1540 C   0  0  1  0  0  3  0  0  0  0  0  0
  191.3230  176.6690  142.4700 C   0  0  0  0  0  0  0  0  0  0  0  0
  189.8520  176.7150  142.7590 C   0  0  2  0  0  3  0  0  0  0  0  0
  185.7730  178.6030  146.7200 C   0  0  0  0  0  1  0  0  0  0  0  0
  187.0360  178.0240  146.0900 C   0  0  1  0  0  3  0  0  0  0  0  0
  187.5850  176.8640  146.9100 C   0  0  0  0  0  2  0  0  0  0  0  0
  187.9800  177.3190  148.3060 C   0  0  0  0  0  2  0  0  0  0  0  0
  188.8770  178.3850  148.2290 O   0  0  0  0  0  1  0  0  0  0  0  0
  184.4930  179.3130  142.1500 O   0  0  0  0  0  0  0  0  0  0  0  0
  183.8580  178.7980  140.9900 C   0  0  0  0  0  2  0  0  0  0  0  0
  182.4060  178.5010  141.2980 C   0  0  0  0  0  1  0  0  0  0  0  0
  190.3100  177.9760  144.8770 N   0  0  0  0  0  0  0  0  0  0  0  0
  191.1620  177.4220  145.8890 C   0  0  0  0  0  3  0  0  0  0  0  0
  190.9700  176.2080  146.3930 C   0  0  0  0  0  2  0  0  0  0  0  0
  190.2470  179.3300  144.7630 O   0  0  0  0  0  0  0  0  0  0  0  0
  192.4990  179.5470  144.4780 O   0  0  0  0  0  1  0  0  0  0  0  0
  191.2560  179.6870  143.8620 C   0  0  0  0  0  2  0  0  0  0  0  0
  1  4  1  6  0  0  0
  1  3  1  0  0  0  0
  2 10  1  6  0  0  0
  2 13  1  0  0  0  0
  3 14  1  0  0  0  0
  3  8  1  0  0  0  0
  4  7  1  0  0  0  0
  6  8  1  0  0  0  0
  6  5  1  0  0  0  0
  7  6  2  0  0  0  0
  8 18  1  0  0  0  0
  9  2  1  0  0  0  0
  9 12  1  0  0  0  0
 12 15  1  0  0  0  0
 13  1  1  0  0  0  0
 13 16  1  0  0  0  0
 14 25  1  0  0  0  0
 15 16  1  0  0  0  0
 15 11  2  0  0  0  0
 16 14  1  0  0  0  0
 18 17  1  0  0  0  0
 18 19  1  0  0  0  0
 19 20  1  0  0  0  0
 21 20  1  0  0  0  0
 22  7  1  0  0  0  0
 23 24  1  0  0  0  0
 23 22  1  0  0  0  0
 25 26  1  0  0  0  0
 26 27  2  0  0  0  0
 28 25  1  0  0  0  0
 30 29  1  0  0  0  0
 30 28  1  0  0  0  0
M  END
>  <MODEL>
3

>  <REMARK>
 VINA RESULT:      -6.5      1.080      1.556
  Name = 
  9 active torsions:
  status: ('A' for Active; 'I' for Inactive)
    1  A    between atoms: C_7  and  C_16
    2  A    between atoms: C_7  and  C_30
    3  A    between atoms: O_9  and  C_12
    4  A    between atoms: O_9  and  C_17
    5  A    between atoms: C_10  and  N_25
    6  A    between atoms: C_11  and  O_24
    7  A    between atoms: C_13  and  C_30
    8  A    between atoms: C_23  and  N_25
    9  A    between atoms: O_24  and  N_25
                            x       y       z     vdW  Elec       q    Type
                         _______ _______ _______ _____ _____    ______ ____

>  <TORSDO>
F 9

$$$$
=
 OpenBabel10272413433D

 30 32  0  0  1  0  0  0  0  0999 V2000
  187.7330  178.1350  143.7820 C   0  0  1  0  0  3  0  0  0  0  0  0
  187.9830  178.1950  146.1860 C   0  0  2  0  0  3  0  0  0  0  0  0
  188.6030  177.7980  142.6070 C   0  0  1  0  0  3  0  0  0  0  0  0
  186.3780  177.5070  143.5090 C   0  0  0  0  0  2  0  0  0  0  0  0
  186.0750  178.9950  140.0430 O   0  0  0  0  0  1  0  0  0  0  0  0
  186.6430  178.5220  141.2230 C   0  0  0  0  0  0  0  0  0  0  0  0
  185.8270  178.0360  142.1920 C   0  0  0  0  0  0  0  0  0  0  0  0
  188.1590  178.6290  141.4100 C   0  0  2  0  0  3  0  0  0  0  0  0
  188.9490  177.9020  147.3610 C   0  0  0  0  0  2  0  0  0  0  0  0
  186.7210  177.6950  146.5120 O   0  0  0  0  0  1  0  0  0  0  0  0
  191.9810  177.7460  145.5070 O   0  0  0  0  0  0  0  0  0  0  0  0
  190.1540  176.5660  146.9930 S   0  0  0  0  0  0  0  0  0  0  0  0
  188.4460  177.5960  144.9260 N   0  0  2  0  0  0  0  0  0  0  0  0
  190.0220  177.9790  143.1200 C   0  0  1  0  0  3  0  0  0  0  0  0
  190.7940  177.4780  145.5860 C   0  0  0  0  0  0  0  0  0  0  0  0
  189.7980  178.0770  144.6380 C   0  0  2  0  0  3  0  0  0  0  0  0
  188.6120  176.8460  139.6480 C   0  0  0  0  0  1  0  0  0  0  0  0
  188.9670  178.2370  140.1630 C   0  0  1  0  0  3  0  0  0  0  0  0
  188.8320  179.2860  139.0670 C   0  0  0  0  0  2  0  0  0  0  0  0
  188.7440  178.6370  137.6950 C   0  0  0  0  0  2  0  0  0  0  0  0
  187.6740  179.1720  136.9770 O   0  0  0  0  0  1  0  0  0  0  0  0
  184.4500  177.9980  141.9490 O   0  0  0  0  0  0  0  0  0  0  0  0
  183.5800  179.0560  142.3210 C   0  0  0  0  0  2  0  0  0  0  0  0
  183.0230  178.7890  143.7030 C   0  0  0  0  0  1  0  0  0  0  0  0
  190.8590  176.8300  142.7390 N   0  0  0  0  0  0  0  0  0  0  0  0
  190.4270  175.4890  143.0140 C   0  0  0  0  0  3  0  0  0  0  0  0
  191.1610  174.6370  143.7210 C   0  0  0  0  0  2  0  0  0  0  0  0
  192.1430  177.0190  142.3330 O   0  0  0  0  0  0  0  0  0  0  0  0
  193.1560  177.2920  140.3100 O   0  0  0  0  0  1  0  0  0  0  0  0
  192.0620  177.6580  141.0920 C   0  0  0  0  0  2  0  0  0  0  0  0
  1  4  1  6  0  0  0
  1 13  1  0  0  0  0
  2 10  1  1  0  0  0
  2  9  1  0  0  0  0
  3 14  1  0  0  0  0
  3  1  1  0  0  0  0
  5  6  1  0  0  0  0
  6  8  1  0  0  0  0
  6  7  2  0  0  0  0
  7  4  1  0  0  0  0
  8  3  1  0  0  0  0
 11 15  2  0  0  0  0
 12  9  1  0  0  0  0
 13  2  1  0  0  0  0
 14 16  1  0  0  0  0
 15 12  1  0  0  0  0
 16 13  1  0  0  0  0
 16 15  1  0  0  0  0
 17 18  1  0  0  0  0
 18  8  1  0  0  0  0
 19 18  1  0  0  0  0
 20 19  1  0  0  0  0
 21 20  1  0  0  0  0
 22  7  1  0  0  0  0
 22 23  1  0  0  0  0
 23 24  1  0  0  0  0
 25 26  1  0  0  0  0
 25 14  1  0  0  0  0
 26 27  2  0  0  0  0
 28 25  1  0  0  0  0
 29 30  1  0  0  0  0
 30 28  1  0  0  0  0
M  END
>  <MODEL>
4

>  <REMARK>
 VINA RESULT:      -6.5      2.156      5.250
  Name = 
  9 active torsions:
  status: ('A' for Active; 'I' for Inactive)
    1  A    between atoms: C_7  and  C_16
    2  A    between atoms: C_7  and  C_30
    3  A    between atoms: O_9  and  C_12
    4  A    between atoms: O_9  and  C_17
    5  A    between atoms: C_10  and  N_25
    6  A    between atoms: C_11  and  O_24
    7  A    between atoms: C_13  and  C_30
    8  A    between atoms: C_23  and  N_25
    9  A    between atoms: O_24  and  N_25
                            x       y       z     vdW  Elec       q    Type
                         _______ _______ _______ _____ _____    ______ ____

>  <TORSDO>
F 9

$$$$
=
 OpenBabel10272413433D

 30 32  0  0  1  0  0  0  0  0999 V2000
  188.4020  177.9390  140.3660 C   0  0  1  0  0  3  0  0  0  0  0  0
  190.7870  177.5960  140.1680 C   0  0  2  0  0  3  0  0  0  0  0  0
  187.2020  177.7750  139.4790 C   0  0  1  0  0  3  0  0  0  0  0  0
  188.0050  177.4040  141.7310 C   0  0  0  0  0  2  0  0  0  0  0  0
  184.8270  179.4490  141.9180 O   0  0  0  0  0  1  0  0  0  0  0  0
  185.9220  178.7720  141.3890 C   0  0  0  0  0  0  0  0  0  0  0  0
  186.7830  178.1580  142.2380 C   0  0  0  0  0  0  0  0  0  0  0  0
  186.1510  178.8040  139.8750 C   0  0  2  0  0  3  0  0  0  0  0  0
  191.9140  177.0860  139.2370 C   0  0  0  0  0  2  0  0  0  0  0  0
  191.0030  177.0870  141.4500 O   0  0  0  0  0  1  0  0  0  0  0  0
  190.1140  177.1490  136.1690 O   0  0  0  0  0  0  0  0  0  0  0  0
  191.3520  175.7940  138.0580 S   0  0  0  0  0  0  0  0  0  0  0  0
  189.4530  177.1990  139.6930 N   0  0  2  0  0  0  0  0  0  0  0  0
  187.7630  177.8270  138.0680 C   0  0  1  0  0  3  0  0  0  0  0  0
  190.1260  176.9060  137.3640 C   0  0  0  0  0  0  0  0  0  0  0  0
  189.2730  177.6820  138.3230 C   0  0  2  0  0  3  0  0  0  0  0  0
  183.9540  177.5360  139.6460 C   0  0  0  0  0  1  0  0  0  0  0  0
  184.8710  178.5980  139.0500 C   0  0  1  0  0  3  0  0  0  0  0  0
  184.1340  179.9140  138.8400 C   0  0  0  0  0  2  0  0  0  0  0  0
  182.6280  179.7060  138.8440 C   0  0  0  0  0  2  0  0  0  0  0  0
  181.9730  180.9240  138.6580 O   0  0  0  0  0  1  0  0  0  0  0  0
  186.5130  178.2000  143.6100 O   0  0  0  0  0  0  0  0  0  0  0  0
  187.1220  177.3120  144.5350 C   0  0  0  0  0  2  0  0  0  0  0  0
  186.7320  177.7050  145.9440 C   0  0  0  0  0  1  0  0  0  0  0  0
  187.2130  176.7330  137.2530 N   0  0  0  0  0  0  0  0  0  0  0  0
  186.4900  177.0130  136.0460 C   0  0  0  0  0  3  0  0  0  0  0  0
  186.7730  178.0550  135.2720 C   0  0  0  0  0  2  0  0  0  0  0  0
  187.1800  175.4630  137.7400 O   0  0  0  0  0  0  0  0  0  0  0  0
  188.4760  173.8660  136.7560 O   0  0  0  0  0  1  0  0  0  0  0  0
  187.3130  174.6230  136.6290 C   0  0  0  0  0  2  0  0  0  0  0  0
  1  4  1  1  0  0  0
  2 10  1  1  0  0  0
  3  8  1  0  0  0  0
  3  1  1  0  0  0  0
  4  7  1  0  0  0  0
  6  5  1  0  0  0  0
  6  7  2  0  0  0  0
  7 22  1  0  0  0  0
  8  6  1  0  0  0  0
  9  2  1  0  0  0  0
 11 15  2  0  0  0  0
 12  9  1  0  0  0  0
 13  2  1  0  0  0  0
 13  1  1  0  0  0  0
 14 16  1  0  0  0  0
 14  3  1  0  0  0  0
 15 12  1  0  0  0  0
 15 16  1  0  0  0  0
 16 13  1  0  0  0  0
 18 17  1  0  0  0  0
 18  8  1  0  0  0  0
 19 20  1  0  0  0  0
 19 18  1  0  0  0  0
 21 20  1  0  0  0  0
 22 23  1  0  0  0  0
 23 24  1  0  0  0  0
 25 28  1  0  0  0  0
 25 14  1  0  0  0  0
 26 25  1  0  0  0  0
 27 26  2  0  0  0  0
 30 29  1  0  0  0  0
 30 28  1  0  0  0  0
M  END
>  <MODEL>
5

>  <REMARK>
 VINA RESULT:      -6.1      2.678      6.474
  Name = 
  9 active torsions:
  status: ('A' for Active; 'I' for Inactive)
    1  A    between atoms: C_7  and  C_16
    2  A    between atoms: C_7  and  C_30
    3  A    between atoms: O_9  and  C_12
    4  A    between atoms: O_9  and  C_17
    5  A    between atoms: C_10  and  N_25
    6  A    between atoms: C_11  and  O_24
    7  A    between atoms: C_13  and  C_30
    8  A    between atoms: C_23  and  N_25
    9  A    between atoms: O_24  and  N_25
                            x       y       z     vdW  Elec       q    Type
                         _______ _______ _______ _____ _____    ______ ____

>  <TORSDO>
F 9

$$$$
=
 OpenBabel10272413433D

 30 32  0  0  1  0  0  0  0  0999 V2000
  186.2480  178.3990  138.4010 C   0  0  1  0  0  3  0  0  0  0  0  0
  188.4770  178.6910  137.5100 C   0  0  2  0  0  3  0  0  0  0  0  0
  185.0530  177.5490  138.0820 C   0  0  1  0  0  3  0  0  0  0  0  0
  186.3890  178.3930  139.9130 C   0  0  0  0  0  2  0  0  0  0  0  0
  182.7790  179.3440  140.5320 O   0  0  0  0  0  1  0  0  0  0  0  0
  183.9150  178.8470  139.8990 C   0  0  0  0  0  0  0  0  0  0  0  0
  185.1060  178.9130  140.5460 C   0  0  0  0  0  0  0  0  0  0  0  0
  183.7900  178.3070  138.4710 C   0  0  2  0  0  3  0  0  0  0  0  0
  189.4910  178.1790  136.4580 C   0  0  0  0  0  2  0  0  0  0  0  0
  189.1400  178.8460  138.7300 O   0  0  0  0  0  1  0  0  0  0  0  0
  187.2110  176.4480  134.3460 O   0  0  0  0  0  0  0  0  0  0  0  0
  189.2490  176.4130  136.0160 S   0  0  0  0  0  0  0  0  0  0  0  0
  187.3390  177.7740  137.6750 N   0  0  2  0  0  0  0  0  0  0  0  0
  185.2380  177.1640  136.6240 C   0  0  1  0  0  3  0  0  0  0  0  0
  187.5680  176.7400  135.4750 C   0  0  0  0  0  0  0  0  0  0  0  0
  186.7010  177.5690  136.3740 C   0  0  2  0  0  3  0  0  0  0  0  0
  182.4340  176.3080  139.2780 C   0  0  0  0  0  1  0  0  0  0  0  0
  182.5520  177.4260  138.2480 C   0  0  1  0  0  3  0  0  0  0  0  0
  181.2820  178.2650  138.1900 C   0  0  0  0  0  2  0  0  0  0  0  0
  181.2890  179.1870  136.9810 C   0  0  0  0  0  2  0  0  0  0  0  0
  181.3630  180.5190  137.3920 O   0  0  0  0  0  1  0  0  0  0  0  0
  185.1350  179.4450  141.8390 O   0  0  0  0  0  0  0  0  0  0  0  0
  185.3700  178.6450  142.9880 C   0  0  0  0  0  2  0  0  0  0  0  0
  184.1190  178.6040  143.8400 C   0  0  0  0  0  1  0  0  0  0  0  0
  185.0050  175.7230  136.4370 N   0  0  0  0  0  0  0  0  0  0  0  0
  184.0530  175.2570  135.4690 C   0  0  0  0  0  3  0  0  0  0  0  0
  183.2050  176.0740  134.8550 C   0  0  0  0  0  2  0  0  0  0  0  0
  185.5100  174.8250  137.3240 O   0  0  0  0  0  0  0  0  0  0  0  0
  185.1210  172.6760  137.9780 O   0  0  0  0  0  1  0  0  0  0  0  0
  184.5370  173.8290  137.4560 C   0  0  0  0  0  2  0  0  0  0  0  0
  1  4  1  1  0  0  0
  2 13  1  0  0  0  0
  2 10  1  1  0  0  0
  3  1  1  0  0  0  0
  3  8  1  0  0  0  0
  4  7  1  0  0  0  0
  6  5  1  0  0  0  0
  6  7  2  0  0  0  0
  7 22  1  0  0  0  0
  8  6  1  0  0  0  0
  9  2  1  0  0  0  0
 11 15  2  0  0  0  0
 12  9  1  0  0  0  0
 13  1  1  0  0  0  0
 14  3  1  0  0  0  0
 15 12  1  0  0  0  0
 15 16  1  0  0  0  0
 16 14  1  0  0  0  0
 16 13  1  0  0  0  0
 18  8  1  0  0  0  0
 18 17  1  0  0  0  0
 19 18  1  0  0  0  0
 20 21  1  0  0  0  0
 20 19  1  0  0  0  0
 22 23  1  0  0  0  0
 23 24  1  0  0  0  0
 25 14  1  0  0  0  0
 25 28  1  0  0  0  0
 26 25  1  0  0  0  0
 27 26  2  0  0  0  0
 28 30  1  0  0  0  0
 30 29  1  0  0  0  0
M  END
>  <MODEL>
6

>  <REMARK>
 VINA RESULT:      -6.0      4.454      7.747
  Name = 
  9 active torsions:
  status: ('A' for Active; 'I' for Inactive)
    1  A    between atoms: C_7  and  C_16
    2  A    between atoms: C_7  and  C_30
    3  A    between atoms: O_9  and  C_12
    4  A    between atoms: O_9  and  C_17
    5  A    between atoms: C_10  and  N_25
    6  A    between atoms: C_11  and  O_24
    7  A    between atoms: C_13  and  C_30
    8  A    between atoms: C_23  and  N_25
    9  A    between atoms: O_24  and  N_25
                            x       y       z     vdW  Elec       q    Type
                         _______ _______ _______ _____ _____    ______ ____

>  <TORSDO>
F 9

$$$$
=
 OpenBabel10272413433D

 30 32  0  0  1  0  0  0  0  0999 V2000
  185.2310  178.6740  140.9780 C   0  0  1  0  0  3  0  0  0  0  0  0
  187.5800  178.7090  140.4040 C   0  0  2  0  0  3  0  0  0  0  0  0
  183.9440  178.3600  140.2730 C   0  0  1  0  0  3  0  0  0  0  0  0
  185.1360  178.0360  142.3530 C   0  0  0  0  0  2  0  0  0  0  0  0
  181.7630  179.5620  143.1350 O   0  0  0  0  0  1  0  0  0  0  0  0
  182.8490  179.0800  142.4090 C   0  0  0  0  0  0  0  0  0  0  0  0
  183.9130  178.5750  143.0810 C   0  0  0  0  0  0  0  0  0  0  0  0
  182.8290  179.2000  140.8810 C   0  0  2  0  0  3  0  0  0  0  0  0
  188.6080  178.4110  139.2850 C   0  0  0  0  0  2  0  0  0  0  0  0
  188.0670  178.1930  141.6060 O   0  0  0  0  0  1  0  0  0  0  0  0
  186.3590  178.3070  136.5310 O   0  0  0  0  0  0  0  0  0  0  0  0
  188.0630  177.0910  138.1300 S   0  0  0  0  0  0  0  0  0  0  0  0
  186.2600  178.1290  140.1120 N   0  0  2  0  0  0  0  0  0  0  0  0
  184.2620  178.5480  138.7990 C   0  0  1  0  0  3  0  0  0  0  0  0
  186.5940  178.0260  137.6950 C   0  0  0  0  0  0  0  0  0  0  0  0
  185.7980  178.6270  138.8150 C   0  0  2  0  0  3  0  0  0  0  0  0
  180.9510  177.4860  140.7350 C   0  0  0  0  0  1  0  0  0  0  0  0
  181.4800  178.8310  140.2480 C   0  0  1  0  0  3  0  0  0  0  0  0
  180.4540  179.9380  140.4520 C   0  0  0  0  0  2  0  0  0  0  0  0
  180.2170  180.7100  139.1640 C   0  0  0  0  0  2  0  0  0  0  0  0
  181.4120  181.2710  138.7110 O   0  0  0  0  0  1  0  0  0  0  0  0
  183.8590  178.5270  144.4780 O   0  0  0  0  0  0  0  0  0  0  0  0
  184.8150  179.1780  145.3020 C   0  0  0  0  0  2  0  0  0  0  0  0
  185.1380  178.2990  146.4910 C   0  0  0  0  0  1  0  0  0  0  0  0
  183.7570  177.4120  138.0120 N   0  0  0  0  0  0  0  0  0  0  0  0
  183.0260  177.6320  136.7980 C   0  0  0  0  0  3  0  0  0  0  0  0
  181.8650  178.2770  136.7730 C   0  0  0  0  0  2  0  0  0  0  0  0
  183.7720  176.1550  138.5320 O   0  0  0  0  0  0  0  0  0  0  0  0
  185.1520  174.7830  137.3450 O   0  0  0  0  0  1  0  0  0  0  0  0
  183.8560  175.2890  137.4380 C   0  0  0  0  0  2  0  0  0  0  0  0
  1  4  1  1  0  0  0
  2 10  1  1  0  0  0
  3  8  1  0  0  0  0
  3  1  1  0  0  0  0
  4  7  1  0  0  0  0
  6  7  2  0  0  0  0
  6  5  1  0  0  0  0
  7 22  1  0  0  0  0
  8  6  1  0  0  0  0
  9  2  1  0  0  0  0
 11 15  2  0  0  0  0
 12  9  1  0  0  0  0
 13  2  1  0  0  0  0
 13  1  1  0  0  0  0
 14 16  1  0  0  0  0
 14  3  1  0  0  0  0
 15 12  1  0  0  0  0
 15 16  1  0  0  0  0
 16 13  1  0  0  0  0
 18 19  1  0  0  0  0
 18 17  1  0  0  0  0
 18  8  1  0  0  0  0
 20 19  1  0  0  0  0
 21 20  1  0  0  0  0
 22 23  1  0  0  0  0
 23 24  1  0  0  0  0
 25 28  1  0  0  0  0
 25 14  1  0  0  0  0
 26 25  1  0  0  0  0
 27 26  2  0  0  0  0
 29 30  1  0  0  0  0
 30 28  1  0  0  0  0
M  END
>  <MODEL>
7

>  <REMARK>
 VINA RESULT:      -6.0      3.579      7.292
  Name = 
  9 active torsions:
  status: ('A' for Active; 'I' for Inactive)
    1  A    between atoms: C_7  and  C_16
    2  A    between atoms: C_7  and  C_30
    3  A    between atoms: O_9  and  C_12
    4  A    between atoms: O_9  and  C_17
    5  A    between atoms: C_10  and  N_25
    6  A    between atoms: C_11  and  O_24
    7  A    between atoms: C_13  and  C_30
    8  A    between atoms: C_23  and  N_25
    9  A    between atoms: O_24  and  N_25
                            x       y       z     vdW  Elec       q    Type
                         _______ _______ _______ _____ _____    ______ ____

>  <TORSDO>
F 9

$$$$
=
 OpenBabel10272413433D

 30 32  0  0  1  0  0  0  0  0999 V2000
  187.7910  177.8900  138.5800 C   0  0  1  0  0  3  0  0  0  0  0  0
  189.6230  177.5110  137.0490 C   0  0  2  0  0  3  0  0  0  0  0  0
  186.3220  177.5840  138.6160 C   0  0  1  0  0  3  0  0  0  0  0  0
  188.3260  177.5920  139.9700 C   0  0  0  0  0  2  0  0  0  0  0  0
  185.6860  179.6510  141.7330 O   0  0  0  0  0  1  0  0  0  0  0  0
  186.3210  178.8920  140.7540 C   0  0  0  0  0  0  0  0  0  0  0  0
  187.5710  178.4250  140.9970 C   0  0  0  0  0  0  0  0  0  0  0  0
  185.6110  178.6680  139.4150 C   0  0  2  0  0  3  0  0  0  0  0  0
  190.0300  176.8480  135.7100 C   0  0  0  0  0  2  0  0  0  0  0  0
  190.6000  177.2220  138.0040 O   0  0  0  0  0  1  0  0  0  0  0  0
  186.7740  176.4030  134.3460 O   0  0  0  0  0  0  0  0  0  0  0  0
  189.0110  175.3790  135.2880 S   0  0  0  0  0  0  0  0  0  0  0  0
  188.3110  177.0440  137.5220 N   0  0  2  0  0  0  0  0  0  0  0  0
  185.9370  177.3980  137.1570 C   0  0  1  0  0  3  0  0  0  0  0  0
  187.5110  176.3640  135.3180 C   0  0  0  0  0  0  0  0  0  0  0  0
  187.3140  177.2910  136.4790 C   0  0  2  0  0  3  0  0  0  0  0  0
  183.7780  177.7190  140.9070 C   0  0  0  0  0  1  0  0  0  0  0  0
  184.1180  178.3320  139.5530 C   0  0  1  0  0  3  0  0  0  0  0  0
  183.2510  179.5490  139.2610 C   0  0  0  0  0  2  0  0  0  0  0  0
  181.9470  179.1450  138.5900 C   0  0  0  0  0  2  0  0  0  0  0  0
  180.8610  179.6550  139.3020 O   0  0  0  0  0  1  0  0  0  0  0  0
  188.1560  178.6970  142.2370 O   0  0  0  0  0  0  0  0  0  0  0  0
  188.8140  177.7000  143.0050 C   0  0  0  0  0  2  0  0  0  0  0  0
  187.7990  176.6940  143.5030 C   0  0  0  0  0  1  0  0  0  0  0  0
  185.1230  176.1840  136.9890 N   0  0  0  0  0  0  0  0  0  0  0  0
  183.8280  176.2520  136.3740 C   0  0  0  0  0  3  0  0  0  0  0  0
  183.4030  177.3330  135.7290 C   0  0  0  0  0  2  0  0  0  0  0  0
  185.4760  175.0280  137.6120 O   0  0  0  0  0  0  0  0  0  0  0  0
  184.7220  172.8790  137.7110 O   0  0  0  0  0  1  0  0  0  0  0  0
  184.8550  174.0010  136.8950 C   0  0  0  0  0  2  0  0  0  0  0  0
  1  3  1  0  0  0  0
  1  4  1  1  0  0  0
  2 13  1  0  0  0  0
  2 10  1  1  0  0  0
  3  8  1  0  0  0  0
  4  7  1  0  0  0  0
  6  7  2  0  0  0  0
  6  5  1  0  0  0  0
  7 22  1  0  0  0  0
  8 18  1  0  0  0  0
  8  6  1  0  0  0  0
  9  2  1  0  0  0  0
 11 15  2  0  0  0  0
 12 15  1  0  0  0  0
 12  9  1  0  0  0  0
 13  1  1  0  0  0  0
 14  3  1  0  0  0  0
 15 16  1  0  0  0  0
 16 14  1  0  0  0  0
 16 13  1  0  0  0  0
 18 17  1  0  0  0  0
 19 18  1  0  0  0  0
 20 19  1  0  0  0  0
 20 21  1  0  0  0  0
 22 23  1  0  0  0  0
 23 24  1  0  0  0  0
 25 14  1  0  0  0  0
 25 28  1  0  0  0  0
 26 25  1  0  0  0  0
 27 26  2  0  0  0  0
 30 28  1  0  0  0  0
 30 29  1  0  0  0  0
M  END
>  <MODEL>
8

>  <REMARK>
 VINA RESULT:      -5.8      3.621      7.337
  Name = 
  9 active torsions:
  status: ('A' for Active; 'I' for Inactive)
    1  A    between atoms: C_7  and  C_16
    2  A    between atoms: C_7  and  C_30
    3  A    between atoms: O_9  and  C_12
    4  A    between atoms: O_9  and  C_17
    5  A    between atoms: C_10  and  N_25
    6  A    between atoms: C_11  and  O_24
    7  A    between atoms: C_13  and  C_30
    8  A    between atoms: C_23  and  N_25
    9  A    between atoms: O_24  and  N_25
                            x       y       z     vdW  Elec       q    Type
                         _______ _______ _______ _____ _____    ______ ____

>  <TORSDO>
F 9

$$$$
=
 OpenBabel10272413433D

 30 32  0  0  1  0  0  0  0  0999 V2000
  186.8350  178.1120  142.3000 C   0  0  1  0  0  3  0  0  0  0  0  0
  186.9640  177.7810  139.9090 C   0  0  2  0  0  3  0  0  0  0  0  0
  187.7930  178.0800  143.4550 C   0  0  1  0  0  3  0  0  0  0  0  0
  185.9380  179.3180  142.5180 C   0  0  0  0  0  2  0  0  0  0  0  0
  185.0690  178.3790  146.0790 O   0  0  0  0  0  1  0  0  0  0  0  0
  185.7600  178.4510  144.8730 C   0  0  0  0  0  0  0  0  0  0  0  0
  185.2400  179.1970  143.8660 C   0  0  0  0  0  0  0  0  0  0  0  0
  187.0450  177.6350  144.7050 C   0  0  2  0  0  3  0  0  0  0  0  0
  187.9220  177.5100  138.7230 C   0  0  0  0  0  2  0  0  0  0  0  0
  186.0730  178.7910  139.5390 O   0  0  0  0  0  1  0  0  0  0  0  0
  190.7250  176.3520  140.5830 O   0  0  0  0  0  0  0  0  0  0  0  0
  189.6220  178.1480  139.0040 S   0  0  0  0  0  0  0  0  0  0  0  0
  187.6860  178.1770  141.1270 N   0  0  2  0  0  0  0  0  0  0  0  0
  188.9490  177.2230  142.9670 C   0  0  1  0  0  3  0  0  0  0  0  0
  189.7990  177.1380  140.4770 C   0  0  0  0  0  0  0  0  0  0  0  0
  188.6640  177.1390  141.4580 C   0  0  2  0  0  3  0  0  0  0  0  0
  187.2370  178.0460  147.2120 C   0  0  0  0  0  1  0  0  0  0  0  0
  187.9750  177.6850  145.9260 C   0  0  1  0  0  3  0  0  0  0  0  0
  188.7550  176.3860  146.0790 C   0  0  0  0  0  2  0  0  0  0  0  0
  189.8690  176.5330  147.1030 C   0  0  0  0  0  2  0  0  0  0  0  0
  190.7900  177.4920  146.6790 O   0  0  0  0  0  1  0  0  0  0  0  0
  184.0470  179.8910  144.0950 O   0  0  0  0  0  0  0  0  0  0  0  0
  182.7850  179.2420  144.1470 C   0  0  0  0  0  2  0  0  0  0  0  0
  182.2690  179.0300  142.7410 C   0  0  0  0  0  1  0  0  0  0  0  0
  190.2350  177.8690  143.2710 N   0  0  0  0  0  0  0  0  0  0  0  0
  190.3370  179.2990  143.3370 C   0  0  0  0  0  3  0  0  0  0  0  0
  191.2320  179.9140  144.1010 C   0  0  0  0  0  2  0  0  0  0  0  0
  191.3860  177.1440  143.2670 O   0  0  0  0  0  0  0  0  0  0  0  0
  192.0110  175.2950  144.4450 O   0  0  0  0  0  1  0  0  0  0  0  0
  191.0220  175.8440  143.6310 C   0  0  0  0  0  2  0  0  0  0  0  0
  1  4  1  1  0  0  0
  1  3  1  0  0  0  0
  2 10  1  6  0  0  0
  2 13  1  0  0  0  0
  3  8  1  0  0  0  0
  4  7  1  0  0  0  0
  6  5  1  0  0  0  0
  7 22  1  0  0  0  0
  7  6  2  0  0  0  0
  8  6  1  0  0  0  0
  8 18  1  0  0  0  0
  9 12  1  0  0  0  0
  9  2  1  0  0  0  0
 12 15  1  0  0  0  0
 13 16  1  0  0  0  0
 13  1  1  0  0  0  0
 14 25  1  0  0  0  0
 14  3  1  0  0  0  0
 15 11  2  0  0  0  0
 15 16  1  0  0  0  0
 16 14  1  0  0  0  0
 18 19  1  0  0  0  0
 18 17  1  0  0  0  0
 19 20  1  0  0  0  0
 21 20  1  0  0  0  0
 22 23  1  0  0  0  0
 24 23  1  0  0  0  0
 25 26  1  0  0  0  0
 26 27  2  0  0  0  0
 28 25  1  0  0  0  0
 28 30  1  0  0  0  0
 30 29  1  0  0  0  0
M  END
>  <MODEL>
9

>  <REMARK>
 VINA RESULT:      -5.8      1.675      2.377
  Name = 
  9 active torsions:
  status: ('A' for Active; 'I' for Inactive)
    1  A    between atoms: C_7  and  C_16
    2  A    between atoms: C_7  and  C_30
    3  A    between atoms: O_9  and  C_12
    4  A    between atoms: O_9  and  C_17
    5  A    between atoms: C_10  and  N_25
    6  A    between atoms: C_11  and  O_24
    7  A    between atoms: C_13  and  C_30
    8  A    between atoms: C_23  and  N_25
    9  A    between atoms: O_24  and  N_25
                            x       y       z     vdW  Elec       q    Type
                         _______ _______ _______ _____ _____    ______ ____

>  <TORSDO>
F 9

$$$$
