=
 OpenBabel10272401453D

 28 30  0  0  1  0  0  0  0  0999 V2000
  191.1730  176.7660  145.8260 C   0  0  0  0  0  3  0  0  0  0  0  0
  188.7460  177.2540  147.2120 C   0  0  2  0  0  3  0  0  0  0  0  0
  190.9730  176.3560  147.2510 C   0  0  0  0  0  2  0  0  0  0  0  0
  189.5630  176.0720  147.5210 N   0  0  0  0  0  2  0  0  0  0  0  0
  190.2210  177.4040  145.1330 C   0  0  0  0  0  0  0  0  0  0  0  0
  188.8550  177.6470  145.7320 C   0  0  1  0  0  3  0  0  0  0  0  0
  188.2360  178.4210  149.2350 O   0  0  0  0  0  1  0  0  0  0  0  0
  189.0760  178.4320  148.1220 C   0  0  0  0  0  2  0  0  0  0  0  0
  190.4440  177.8380  143.8150 O   0  0  0  0  0  0  0  0  0  0  0  0
  191.1510  177.1220  142.7980 C   0  0  2  0  0  3  0  0  0  0  0  0
  190.6410  176.7650  140.4650 C   0  0  1  0  0  3  0  0  0  0  0  0
  191.9950  177.9770  142.0620 O   0  0  0  0  0  0  0  0  0  0  0  0
  189.3110  175.7480  142.1500 O   0  0  0  0  0  0  0  0  0  0  0  0
  190.2370  176.4800  141.8380 C   0  0  0  0  0  0  0  0  0  0  0  0
  189.5890  177.6100  139.7730 C   0  0  0  0  0  1  0  0  0  0  0  0
  191.8950  177.5920  140.7000 C   0  0  0  0  0  2  0  0  0  0  0  0
  187.7950  176.9000  144.9330 C   0  0  0  0  0  2  0  0  0  0  0  0
  186.4500  177.6330  144.8890 C   0  0  2  0  0  3  0  0  0  0  0  0
  186.9060  178.2230  142.5630 C   0  0  0  0  0  3  0  0  0  0  0  0
  184.5080  178.3370  143.2530 C   0  0  2  0  0  3  0  0  0  0  0  0
  185.2230  179.3130  141.0650 C   0  0  2  0  0  3  0  0  0  0  0  0
  185.9740  178.0360  143.5150 C   0  0  0  0  0  0  0  0  0  0  0  0
  184.1760  178.4570  141.7650 C   0  0  0  0  0  2  0  0  0  0  0  0
  184.1400  179.5050  143.8960 F   0  0  0  0  0  0  0  0  0  0  0  0
  184.8680  179.4850  139.7280 O   0  0  0  0  0  1  0  0  0  0  0  0
  186.5670  178.6010  141.1460 C   0  0  0  0  0  2  0  0  0  0  0  0
  185.0310  178.2760  146.9050 C   0  0  0  0  0  1  0  0  0  0  0  0
  186.2080  178.6420  146.0160 C   0  0  0  0  0  2  0  0  0  0  0  0
  1  3  1  0  0  0  0
  2  4  1  0  0  0  0
  2  8  1  1  0  0  0
  3  4  1  0  0  0  0
  5  6  1  0  0  0  0
  5  1  2  0  0  0  0
  6 17  1  6  0  0  0
  6  2  1  0  0  0  0
  8  7  1  0  0  0  0
  9  5  1  0  0  0  0
 10  9  1  1  0  0  0
 11 15  1  1  0  0  0
 11 16  1  0  0  0  0
 11 14  1  0  0  0  0
 12 10  1  0  0  0  0
 14 13  2  0  0  0  0
 14 10  1  0  0  0  0
 16 12  1  0  0  0  0
 18 17  1  6  0  0  0
 18 28  1  0  0  0  0
 19 22  2  0  0  0  0
 20 22  1  0  0  0  0
 20 24  1  1  0  0  0
 21 25  1  6  0  0  0
 21 26  1  0  0  0  0
 21 23  1  0  0  0  0
 22 18  1  0  0  0  0
 23 20  1  0  0  0  0
 26 19  1  0  0  0  0
 28 27  1  0  0  0  0
M  END
>  <MODEL>
1

>  <REMARK>
 VINA RESULT:      -8.5      0.000      0.000
  Name = 
  7 active torsions:
  status: ('A' for Active; 'I' for Inactive)
    1  A    between atoms: O_2  and  C_3
    2  A    between atoms: O_2  and  C_26
    3  A    between atoms: C_10  and  C_13
    4  A    between atoms: C_10  and  C_17
    5  A    between atoms: C_10  and  C_25
    6  A    between atoms: CA_16  and  C_20
    7  A    between atoms: C_17  and  C_27
                            x       y       z     vdW  Elec       q    Type
                         _______ _______ _______ _____ _____    ______ ____

>  <TORSDO>
F 7

$$$$
=
 OpenBabel10272401453D

 28 30  0  0  1  0  0  0  0  0999 V2000
  190.5660  177.1520  141.1520 C   0  0  0  0  0  3  0  0  0  0  0  0
  190.4750  177.9350  143.8770 C   0  0  2  0  0  3  0  0  0  0  0  0
  191.8030  177.2840  141.9850 C   0  0  0  0  0  2  0  0  0  0  0  0
  191.5140  177.0150  143.3950 N   0  0  0  0  0  2  0  0  0  0  0  0
  189.3490  177.4170  141.6450 C   0  0  0  0  0  0  0  0  0  0  0  0
  189.1610  177.7610  143.1040 C   0  0  1  0  0  3  0  0  0  0  0  0
  192.1780  179.4990  144.4890 O   0  0  0  0  0  1  0  0  0  0  0  0
  190.9400  179.3880  143.8560 C   0  0  0  0  0  2  0  0  0  0  0  0
  188.2030  177.3480  140.8350 O   0  0  0  0  0  0  0  0  0  0  0  0
  187.8490  178.2620  139.7920 C   0  0  2  0  0  3  0  0  0  0  0  0
  186.9770  177.8740  137.5750 C   0  0  1  0  0  3  0  0  0  0  0  0
  186.4770  178.5790  139.8340 O   0  0  0  0  0  0  0  0  0  0  0  0
  189.2030  177.2420  138.1130 O   0  0  0  0  0  0  0  0  0  0  0  0
  188.1280  177.7090  138.4570 C   0  0  0  0  0  0  0  0  0  0  0  0
  186.4010  176.5210  137.2030 C   0  0  0  0  0  1  0  0  0  0  0  0
  186.0150  178.6110  138.4930 C   0  0  0  0  0  2  0  0  0  0  0  0
  188.3120  176.6960  143.7850 C   0  0  0  0  0  2  0  0  0  0  0  0
  187.5130  177.2360  144.9760 C   0  0  2  0  0  3  0  0  0  0  0  0
  185.8200  177.8880  143.3400 C   0  0  0  0  0  3  0  0  0  0  0  0
  185.3120  178.4850  145.7130 C   0  0  2  0  0  3  0  0  0  0  0  0
  183.9290  179.4420  143.8640 C   0  0  2  0  0  3  0  0  0  0  0  0
  186.1730  177.8420  144.6390 C   0  0  0  0  0  0  0  0  0  0  0  0
  183.8910  178.7930  145.2400 C   0  0  0  0  0  2  0  0  0  0  0  0
  185.9050  179.6520  146.1610 F   0  0  0  0  0  0  0  0  0  0  0  0
  182.6370  179.7940  143.4770 O   0  0  0  0  0  1  0  0  0  0  0  0
  184.5030  178.4430  142.8680 C   0  0  0  0  0  2  0  0  0  0  0  0
  188.4730  177.1510  147.3350 C   0  0  0  0  0  1  0  0  0  0  0  0
  188.3330  177.9550  146.0530 C   0  0  0  0  0  2  0  0  0  0  0  0
  1  5  2  0  0  0  0
  1  3  1  0  0  0  0
  2  8  1  6  0  0  0
  3  4  1  0  0  0  0
  4  2  1  0  0  0  0
  5  6  1  0  0  0  0
  6 17  1  1  0  0  0
  6  2  1  0  0  0  0
  8  7  1  0  0  0  0
  9  5  1  0  0  0  0
 10 12  1  0  0  0  0
 10  9  1  1  0  0  0
 11 15  1  1  0  0  0
 11 14  1  0  0  0  0
 11 16  1  0  0  0  0
 13 14  2  0  0  0  0
 14 10  1  0  0  0  0
 16 12  1  0  0  0  0
 18 17  1  6  0  0  0
 18 28  1  0  0  0  0
 19 22  2  0  0  0  0
 20 24  1  6  0  0  0
 21 25  1  6  0  0  0
 21 23  1  0  0  0  0
 22 18  1  0  0  0  0
 22 20  1  0  0  0  0
 23 20  1  0  0  0  0
 26 19  1  0  0  0  0
 26 21  1  0  0  0  0
 28 27  1  0  0  0  0
M  END
>  <MODEL>
2

>  <REMARK>
 VINA RESULT:      -8.0      2.338      3.990
  Name = 
  7 active torsions:
  status: ('A' for Active; 'I' for Inactive)
    1  A    between atoms: O_2  and  C_3
    2  A    between atoms: O_2  and  C_26
    3  A    between atoms: C_10  and  C_13
    4  A    between atoms: C_10  and  C_17
    5  A    between atoms: C_10  and  C_25
    6  A    between atoms: CA_16  and  C_20
    7  A    between atoms: C_17  and  C_27
                            x       y       z     vdW  Elec       q    Type
                         _______ _______ _______ _____ _____    ______ ____

>  <TORSDO>
F 7

$$$$
=
 OpenBabel10272401453D

 28 30  0  0  1  0  0  0  0  0999 V2000
  187.3950  178.2130  139.5060 C   0  0  0  0  0  3  0  0  0  0  0  0
  189.4040  177.1750  141.2190 C   0  0  2  0  0  3  0  0  0  0  0  0
  188.5180  177.3640  138.9960 C   0  0  0  0  0  2  0  0  0  0  0  0
  188.9770  176.4310  140.0260 N   0  0  0  0  0  2  0  0  0  0  0  0
  187.2910  178.5460  140.7990 C   0  0  0  0  0  0  0  0  0  0  0  0
  188.2500  177.9860  141.8240 C   0  0  1  0  0  3  0  0  0  0  0  0
  191.7250  177.5740  141.6310 O   0  0  0  0  0  1  0  0  0  0  0  0
  190.6150  178.0590  140.9410 C   0  0  0  0  0  2  0  0  0  0  0  0
  186.2680  179.3940  141.2540 O   0  0  0  0  0  0  0  0  0  0  0  0
  184.8610  179.1490  141.1560 C   0  0  2  0  0  3  0  0  0  0  0  0
  183.5350  178.2290  139.3610 C   0  0  1  0  0  3  0  0  0  0  0  0
  184.5450  177.8260  141.5210 O   0  0  0  0  0  0  0  0  0  0  0  0
  184.5500  180.3640  139.1270 O   0  0  0  0  0  0  0  0  0  0  0  0
  184.3610  179.3550  139.7870 C   0  0  0  0  0  0  0  0  0  0  0  0
  184.2020  177.4930  138.2140 C   0  0  0  0  0  1  0  0  0  0  0  0
  183.5580  177.3660  140.6120 C   0  0  0  0  0  2  0  0  0  0  0  0
  187.4960  177.1210  142.8250 C   0  0  0  0  0  2  0  0  0  0  0  0
  187.4450  177.7350  144.2290 C   0  0  2  0  0  3  0  0  0  0  0  0
  188.3660  177.1720  146.4200 C   0  0  0  0  0  3  0  0  0  0  0  0
  190.0430  177.4880  144.5960 C   0  0  2  0  0  3  0  0  0  0  0  0
  190.8010  177.3410  146.9730 C   0  0  2  0  0  3  0  0  0  0  0  0
  188.6200  177.4150  145.1210 C   0  0  0  0  0  0  0  0  0  0  0  0
  191.0680  176.8720  145.5490 C   0  0  0  0  0  2  0  0  0  0  0  0
  190.3900  178.8020  144.3430 F   0  0  0  0  0  0  0  0  0  0  0  0
  191.7880  176.8420  147.8220 O   0  0  0  0  0  1  0  0  0  0  0  0
  189.4410  176.8160  147.4130 C   0  0  0  0  0  2  0  0  0  0  0  0
  185.3970  179.1090  144.8650 C   0  0  0  0  0  1  0  0  0  0  0  0
  186.0670  177.7470  144.8980 C   0  0  0  0  0  2  0  0  0  0  0  0
  1  5  2  0  0  0  0
  2  8  1  6  0  0  0
  2  6  1  0  0  0  0
  3  1  1  0  0  0  0
  3  4  1  0  0  0  0
  4  2  1  0  0  0  0
  5  9  1  0  0  0  0
  5  6  1  0  0  0  0
  6 17  1  1  0  0  0
  8  7  1  0  0  0  0
 10  9  1  6  0  0  0
 10 12  1  0  0  0  0
 11 15  1  6  0  0  0
 11 14  1  0  0  0  0
 11 16  1  0  0  0  0
 13 14  2  0  0  0  0
 14 10  1  0  0  0  0
 16 12  1  0  0  0  0
 18 17  1  6  0  0  0
 18 28  1  0  0  0  0
 18 22  1  0  0  0  0
 19 26  1  0  0  0  0
 20 24  1  1  0  0  0
 20 22  1  0  0  0  0
 20 23  1  0  0  0  0
 21 26  1  0  0  0  0
 21 25  1  1  0  0  0
 22 19  2  0  0  0  0
 23 21  1  0  0  0  0
 27 28  1  0  0  0  0
M  END
>  <MODEL>
3

>  <REMARK>
 VINA RESULT:      -7.6      2.467      6.538
  Name = 
  7 active torsions:
  status: ('A' for Active; 'I' for Inactive)
    1  A    between atoms: O_2  and  C_3
    2  A    between atoms: O_2  and  C_26
    3  A    between atoms: C_10  and  C_13
    4  A    between atoms: C_10  and  C_17
    5  A    between atoms: C_10  and  C_25
    6  A    between atoms: CA_16  and  C_20
    7  A    between atoms: C_17  and  C_27
                            x       y       z     vdW  Elec       q    Type
                         _______ _______ _______ _____ _____    ______ ____

>  <TORSDO>
F 7

$$$$
=
 OpenBabel10272401453D

 28 30  0  0  1  0  0  0  0  0999 V2000
  190.3620  177.4310  139.7540 C   0  0  0  0  0  3  0  0  0  0  0  0
  187.7960  178.2270  138.8430 C   0  0  2  0  0  3  0  0  0  0  0  0
  190.1290  177.9230  138.3600 C   0  0  0  0  0  2  0  0  0  0  0  0
  189.0110  178.8680  138.3200 N   0  0  0  0  0  2  0  0  0  0  0  0
  189.3650  177.3200  140.6420 C   0  0  0  0  0  0  0  0  0  0  0  0
  187.9690  177.7920  140.3050 C   0  0  1  0  0  3  0  0  0  0  0  0
  186.1880  177.4180  137.2700 O   0  0  0  0  0  1  0  0  0  0  0  0
  187.3400  177.0630  137.9700 C   0  0  0  0  0  2  0  0  0  0  0  0
  189.5870  176.7990  141.9280 O   0  0  0  0  0  0  0  0  0  0  0  0
  190.8480  176.7110  142.5980 C   0  0  2  0  0  3  0  0  0  0  0  0
  191.4540  177.1420  144.8950 C   0  0  1  0  0  3  0  0  0  0  0  0
  191.0120  175.4560  143.2180 O   0  0  0  0  0  0  0  0  0  0  0  0
  190.8080  178.9310  143.4710 O   0  0  0  0  0  0  0  0  0  0  0  0
  190.9870  177.7360  143.6460 C   0  0  0  0  0  0  0  0  0  0  0  0
  190.3830  177.2540  145.9630 C   0  0  0  0  0  1  0  0  0  0  0  0
  191.6190  175.6890  144.4790 C   0  0  0  0  0  2  0  0  0  0  0  0
  187.5710  178.9400  141.2230 C   0  0  0  0  0  2  0  0  0  0  0  0
  186.0790  178.9380  141.5730 C   0  0  2  0  0  3  0  0  0  0  0  0
  184.7240  179.3770  143.5570 C   0  0  0  0  0  3  0  0  0  0  0  0
  186.6290  177.7930  143.8830 C   0  0  2  0  0  3  0  0  0  0  0  0
  185.4070  178.6970  145.8670 C   0  0  2  0  0  3  0  0  0  0  0  0
  185.7520  178.6900  143.0260 C   0  0  0  0  0  0  0  0  0  0  0  0
  185.9960  177.4460  145.2310 C   0  0  0  0  0  2  0  0  0  0  0  0
  187.8560  178.3920  144.0970 F   0  0  0  0  0  0  0  0  0  0  0  0
  184.9070  178.3870  147.1310 O   0  0  0  0  0  1  0  0  0  0  0  0
  184.2760  179.2070  144.9840 C   0  0  0  0  0  2  0  0  0  0  0  0
  184.3280  179.2660  139.7520 C   0  0  0  0  0  1  0  0  0  0  0  0
  185.1580  178.2720  140.5460 C   0  0  0  0  0  2  0  0  0  0  0  0
  1  5  2  0  0  0  0
  2  8  1  6  0  0  0
  2  6  1  0  0  0  0
  3  1  1  0  0  0  0
  4  3  1  0  0  0  0
  4  2  1  0  0  0  0
  5  9  1  0  0  0  0
  6  5  1  0  0  0  0
  6 17  1  1  0  0  0
  7  8  1  0  0  0  0
 10  9  1  1  0  0  0
 10 12  1  0  0  0  0
 10 14  1  0  0  0  0
 11 15  1  1  0  0  0
 12 16  1  0  0  0  0
 13 14  2  0  0  0  0
 14 11  1  0  0  0  0
 16 11  1  0  0  0  0
 17 18  1  0  0  0  0
 18 28  1  6  0  0  0
 18 22  1  0  0  0  0
 19 26  1  0  0  0  0
 20 24  1  1  0  0  0
 20 23  1  0  0  0  0
 21 25  1  1  0  0  0
 22 19  2  0  0  0  0
 22 20  1  0  0  0  0
 23 21  1  0  0  0  0
 26 21  1  0  0  0  0
 27 28  1  0  0  0  0
M  END
>  <MODEL>
4

>  <REMARK>
 VINA RESULT:      -7.5      2.546      5.863
  Name = 
  7 active torsions:
  status: ('A' for Active; 'I' for Inactive)
    1  A    between atoms: O_2  and  C_3
    2  A    between atoms: O_2  and  C_26
    3  A    between atoms: C_10  and  C_13
    4  A    between atoms: C_10  and  C_17
    5  A    between atoms: C_10  and  C_25
    6  A    between atoms: CA_16  and  C_20
    7  A    between atoms: C_17  and  C_27
                            x       y       z     vdW  Elec       q    Type
                         _______ _______ _______ _____ _____    ______ ____

>  <TORSDO>
F 7

$$$$
=
 OpenBabel10272401453D

 28 30  0  0  1  0  0  0  0  0999 V2000
  186.5680  178.6500  139.8080 C   0  0  0  0  0  3  0  0  0  0  0  0
  183.9750  178.7670  140.9530 C   0  0  2  0  0  3  0  0  0  0  0  0
  185.3510  178.9640  138.9950 C   0  0  0  0  0  2  0  0  0  0  0  0
  184.3320  179.6240  139.8140 N   0  0  0  0  0  2  0  0  0  0  0  0
  186.4950  178.3860  141.1190 C   0  0  0  0  0  0  0  0  0  0  0  0
  185.1830  178.5000  141.8620 C   0  0  1  0  0  3  0  0  0  0  0  0
  181.9380  177.6340  140.4200 O   0  0  0  0  0  1  0  0  0  0  0  0
  183.3200  177.4640  140.5080 C   0  0  0  0  0  2  0  0  0  0  0  0
  187.6360  178.0320  141.8580 O   0  0  0  0  0  0  0  0  0  0  0  0
  188.9910  178.0910  141.4000 C   0  0  2  0  0  3  0  0  0  0  0  0
  191.0020  177.0790  142.2720 C   0  0  1  0  0  3  0  0  0  0  0  0
  189.2950  177.0010  140.5600 O   0  0  0  0  0  0  0  0  0  0  0  0
  189.9130  178.8100  143.4790 O   0  0  0  0  0  0  0  0  0  0  0  0
  189.9510  178.0610  142.5160 C   0  0  0  0  0  0  0  0  0  0  0  0
  190.9170  175.9550  143.2870 C   0  0  0  0  0  1  0  0  0  0  0  0
  190.6010  176.5650  140.8980 C   0  0  0  0  0  2  0  0  0  0  0  0
  185.2740  179.5960  142.9150 C   0  0  0  0  0  2  0  0  0  0  0  0
  184.7330  179.1600  144.2810 C   0  0  2  0  0  3  0  0  0  0  0  0
  186.7650  177.9090  144.8050 C   0  0  0  0  0  3  0  0  0  0  0  0
  185.6270  178.9810  146.7540 C   0  0  2  0  0  3  0  0  0  0  0  0
  187.4510  177.3160  147.1380 C   0  0  2  0  0  3  0  0  0  0  0  0
  185.7710  178.6880  145.2710 C   0  0  0  0  0  0  0  0  0  0  0  0
  186.8930  178.6700  147.5540 C   0  0  0  0  0  2  0  0  0  0  0  0
  184.5690  178.2630  147.2810 F   0  0  0  0  0  0  0  0  0  0  0  0
  188.5560  177.0030  147.9290 O   0  0  0  0  0  1  0  0  0  0  0  0
  187.8770  177.3910  145.6780 C   0  0  0  0  0  2  0  0  0  0  0  0
  182.2120  179.2490  143.9260 C   0  0  0  0  0  1  0  0  0  0  0  0
  183.4140  178.3810  144.2550 C   0  0  0  0  0  2  0  0  0  0  0  0
  1  5  2  0  0  0  0
  2  8  1  6  0  0  0
  2  6  1  0  0  0  0
  3  1  1  0  0  0  0
  3  4  1  0  0  0  0
  4  2  1  0  0  0  0
  5  9  1  0  0  0  0
  5  6  1  0  0  0  0
  6 17  1  1  0  0  0
  7  8  1  0  0  0  0
 10  9  1  1  0  0  0
 10 14  1  0  0  0  0
 11 14  1  0  0  0  0
 11 15  1  1  0  0  0
 12 16  1  0  0  0  0
 12 10  1  0  0  0  0
 14 13  2  0  0  0  0
 16 11  1  0  0  0  0
 18 17  1  6  0  0  0
 18 22  1  0  0  0  0
 19 22  2  0  0  0  0
 19 26  1  0  0  0  0
 20 24  1  1  0  0  0
 20 23  1  0  0  0  0
 21 23  1  0  0  0  0
 21 25  1  1  0  0  0
 22 20  1  0  0  0  0
 26 21  1  0  0  0  0
 27 28  1  0  0  0  0
 28 18  1  0  0  0  0
M  END
>  <MODEL>
5

>  <REMARK>
 VINA RESULT:      -7.4      2.630      5.838
  Name = 
  7 active torsions:
  status: ('A' for Active; 'I' for Inactive)
    1  A    between atoms: O_2  and  C_3
    2  A    between atoms: O_2  and  C_26
    3  A    between atoms: C_10  and  C_13
    4  A    between atoms: C_10  and  C_17
    5  A    between atoms: C_10  and  C_25
    6  A    between atoms: CA_16  and  C_20
    7  A    between atoms: C_17  and  C_27
                            x       y       z     vdW  Elec       q    Type
                         _______ _______ _______ _____ _____    ______ ____

>  <TORSDO>
F 7

$$$$
=
 OpenBabel10272401453D

 28 30  0  0  1  0  0  0  0  0999 V2000
  190.1670  177.6390  139.8840 C   0  0  0  0  0  3  0  0  0  0  0  0
  187.5210  178.2380  139.0540 C   0  0  2  0  0  3  0  0  0  0  0  0
  189.8660  178.2170  138.5370 C   0  0  0  0  0  2  0  0  0  0  0  0
  188.6570  179.0410  138.5800 N   0  0  0  0  0  2  0  0  0  0  0  0
  189.1990  177.3540  140.7650 C   0  0  0  0  0  0  0  0  0  0  0  0
  187.7570  177.7050  140.4740 C   0  0  1  0  0  3  0  0  0  0  0  0
  186.0640  177.4590  137.3260 O   0  0  0  0  0  1  0  0  0  0  0  0
  187.1750  177.1070  138.0900 C   0  0  0  0  0  2  0  0  0  0  0  0
  189.4890  176.7550  142.0020 O   0  0  0  0  0  0  0  0  0  0  0  0
  190.7650  176.7300  142.6490 C   0  0  2  0  0  3  0  0  0  0  0  0
  191.3930  177.2160  144.9300 C   0  0  1  0  0  3  0  0  0  0  0  0
  190.9950  175.4920  143.2800 O   0  0  0  0  0  0  0  0  0  0  0  0
  190.6430  178.9570  143.4980 O   0  0  0  0  0  0  0  0  0  0  0  0
  190.8780  177.7730  143.6830 C   0  0  0  0  0  0  0  0  0  0  0  0
  190.3370  177.2930  146.0160 C   0  0  0  0  0  1  0  0  0  0  0  0
  191.6140  175.7660  144.5270 C   0  0  0  0  0  2  0  0  0  0  0  0
  187.2560  178.7260  141.4860 C   0  0  0  0  0  2  0  0  0  0  0  0
  186.5120  178.0880  142.6640 C   0  0  2  0  0  3  0  0  0  0  0  0
  184.3380  178.0360  141.5500 C   0  0  0  0  0  3  0  0  0  0  0  0
  184.3280  178.9060  143.8920 C   0  0  2  0  0  3  0  0  0  0  0  0
  182.3030  179.1800  142.4520 C   0  0  2  0  0  3  0  0  0  0  0  0
  185.0170  178.3000  142.6810 C   0  0  0  0  0  0  0  0  0  0  0  0
  182.8040  178.7900  143.8360 C   0  0  0  0  0  2  0  0  0  0  0  0
  184.6780  180.2370  144.0220 F   0  0  0  0  0  0  0  0  0  0  0  0
  180.9090  179.1520  142.4350 O   0  0  0  0  0  1  0  0  0  0  0  0
  182.8440  178.1810  141.4380 C   0  0  0  0  0  2  0  0  0  0  0  0
  187.0390  176.9130  144.8620 C   0  0  0  0  0  1  0  0  0  0  0  0
  187.2250  178.1620  144.0180 C   0  0  0  0  0  2  0  0  0  0  0  0
  1  5  2  0  0  0  0
  2  8  1  6  0  0  0
  2  6  1  0  0  0  0
  3  4  1  0  0  0  0
  3  1  1  0  0  0  0
  4  2  1  0  0  0  0
  5  9  1  0  0  0  0
  6  5  1  0  0  0  0
  6 17  1  1  0  0  0
  7  8  1  0  0  0  0
 10  9  1  1  0  0  0
 10 12  1  0  0  0  0
 10 14  1  0  0  0  0
 11 15  1  1  0  0  0
 12 16  1  0  0  0  0
 13 14  2  0  0  0  0
 14 11  1  0  0  0  0
 16 11  1  0  0  0  0
 18 17  1  6  0  0  0
 18 22  1  0  0  0  0
 18 28  1  0  0  0  0
 19 22  2  0  0  0  0
 20 24  1  6  0  0  0
 21 25  1  1  0  0  0
 21 23  1  0  0  0  0
 22 20  1  0  0  0  0
 23 20  1  0  0  0  0
 26 19  1  0  0  0  0
 26 21  1  0  0  0  0
 28 27  1  0  0  0  0
M  END
>  <MODEL>
6

>  <REMARK>
 VINA RESULT:      -7.4      2.637      5.318
  Name = 
  7 active torsions:
  status: ('A' for Active; 'I' for Inactive)
    1  A    between atoms: O_2  and  C_3
    2  A    between atoms: O_2  and  C_26
    3  A    between atoms: C_10  and  C_13
    4  A    between atoms: C_10  and  C_17
    5  A    between atoms: C_10  and  C_25
    6  A    between atoms: CA_16  and  C_20
    7  A    between atoms: C_17  and  C_27
                            x       y       z     vdW  Elec       q    Type
                         _______ _______ _______ _____ _____    ______ ____

>  <TORSDO>
F 7

$$$$
=
 OpenBabel10272401453D

 28 30  0  0  1  0  0  0  0  0999 V2000
  186.1960  178.3620  139.8260 C   0  0  0  0  0  3  0  0  0  0  0  0
  188.6680  177.8340  138.5360 C   0  0  2  0  0  3  0  0  0  0  0  0
  186.2910  178.1230  138.3510 C   0  0  0  0  0  2  0  0  0  0  0  0
  187.4190  177.2450  138.0350 N   0  0  0  0  0  2  0  0  0  0  0  0
  187.2790  178.3590  140.6140 C   0  0  0  0  0  0  0  0  0  0  0  0
  188.6410  178.0070  140.0610 C   0  0  1  0  0  3  0  0  0  0  0  0
  189.2400  178.9170  136.4830 O   0  0  0  0  0  1  0  0  0  0  0  0
  189.0030  179.1480  137.8370 C   0  0  0  0  0  2  0  0  0  0  0  0
  187.1840  178.6450  141.9860 O   0  0  0  0  0  0  0  0  0  0  0  0
  186.2860  178.0320  142.9170 C   0  0  2  0  0  3  0  0  0  0  0  0
  186.5770  177.4340  145.2380 C   0  0  1  0  0  3  0  0  0  0  0  0
  185.5960  178.9980  143.6750 O   0  0  0  0  0  0  0  0  0  0  0  0
  187.7640  176.2670  143.5440 O   0  0  0  0  0  0  0  0  0  0  0  0
  186.9920  177.1560  143.8670 C   0  0  0  0  0  0  0  0  0  0  0  0
  187.7380  177.9970  146.0350 C   0  0  0  0  0  1  0  0  0  0  0  0
  185.5350  178.5180  145.0090 C   0  0  0  0  0  2  0  0  0  0  0  0
  189.1590  176.7370  140.7220 C   0  0  0  0  0  2  0  0  0  0  0  0
  190.6630  176.7830  141.0130 C   0  0  2  0  0  3  0  0  0  0  0  0
  191.2160  175.7990  143.1800 C   0  0  0  0  0  3  0  0  0  0  0  0
  191.0970  178.2940  143.1290 C   0  0  2  0  0  3  0  0  0  0  0  0
  191.2150  177.0970  145.3200 C   0  0  2  0  0  3  0  0  0  0  0  0
  191.0400  176.9280  142.4680 C   0  0  0  0  0  0  0  0  0  0  0  0
  191.7540  178.2670  144.5090 C   0  0  0  0  0  2  0  0  0  0  0  0
  189.8230  178.8210  143.2430 F   0  0  0  0  0  0  0  0  0  0  0  0
  191.7580  177.1290  146.6040 O   0  0  0  0  0  1  0  0  0  0  0  0
  191.6170  175.8000  144.6310 C   0  0  0  0  0  2  0  0  0  0  0  0
  192.9930  177.2620  140.1000 C   0  0  0  0  0  1  0  0  0  0  0  0
  191.5090  177.5750  140.0100 C   0  0  0  0  0  2  0  0  0  0  0  0
  1  5  2  0  0  0  0
  2  8  1  6  0  0  0
  2  6  1  0  0  0  0
  3  1  1  0  0  0  0
  4  3  1  0  0  0  0
  4  2  1  0  0  0  0
  5  9  1  0  0  0  0
  6  5  1  0  0  0  0
  6 17  1  1  0  0  0
  7  8  1  0  0  0  0
 10  9  1  6  0  0  0
 10 12  1  0  0  0  0
 10 14  1  0  0  0  0
 11 15  1  1  0  0  0
 12 16  1  0  0  0  0
 13 14  2  0  0  0  0
 14 11  1  0  0  0  0
 16 11  1  0  0  0  0
 17 18  1  0  0  0  0
 18 28  1  6  0  0  0
 18 22  1  0  0  0  0
 19 26  1  0  0  0  0
 20 24  1  1  0  0  0
 20 23  1  0  0  0  0
 21 25  1  1  0  0  0
 22 20  1  0  0  0  0
 22 19  2  0  0  0  0
 23 21  1  0  0  0  0
 26 21  1  0  0  0  0
 28 27  1  0  0  0  0
M  END
>  <MODEL>
7

>  <REMARK>
 VINA RESULT:      -7.3      2.938      7.430
  Name = 
  7 active torsions:
  status: ('A' for Active; 'I' for Inactive)
    1  A    between atoms: O_2  and  C_3
    2  A    between atoms: O_2  and  C_26
    3  A    between atoms: C_10  and  C_13
    4  A    between atoms: C_10  and  C_17
    5  A    between atoms: C_10  and  C_25
    6  A    between atoms: CA_16  and  C_20
    7  A    between atoms: C_17  and  C_27
                            x       y       z     vdW  Elec       q    Type
                         _______ _______ _______ _____ _____    ______ ____

>  <TORSDO>
F 7

$$$$
=
 OpenBabel10272401453D

 28 30  0  0  1  0  0  0  0  0999 V2000
  183.4770  178.7640  143.5230 C   0  0  0  0  0  3  0  0  0  0  0  0
  186.0830  178.4850  144.6090 C   0  0  2  0  0  3  0  0  0  0  0  0
  183.8220  179.2390  144.9000 C   0  0  0  0  0  2  0  0  0  0  0  0
  185.2330  179.6230  144.9820 N   0  0  0  0  0  2  0  0  0  0  0  0
  184.3780  178.1620  142.7360 C   0  0  0  0  0  0  0  0  0  0  0  0
  185.8210  178.0300  143.1670 C   0  0  1  0  0  3  0  0  0  0  0  0
  186.7100  177.5740  146.7290 O   0  0  0  0  0  1  0  0  0  0  0  0
  185.9490  177.3230  145.5880 C   0  0  0  0  0  2  0  0  0  0  0  0
  184.0260  177.6660  141.4690 O   0  0  0  0  0  0  0  0  0  0  0  0
  183.1460  178.2930  140.5310 C   0  0  2  0  0  3  0  0  0  0  0  0
  183.2600  178.4700  138.1260 C   0  0  1  0  0  3  0  0  0  0  0  0
  182.2140  177.3730  140.0110 O   0  0  0  0  0  0  0  0  0  0  0  0
  184.8240  179.6300  139.4880 O   0  0  0  0  0  0  0  0  0  0  0  0
  183.8760  178.8660  139.3890 C   0  0  0  0  0  0  0  0  0  0  0  0
  184.2050  177.5840  137.3360 C   0  0  0  0  0  1  0  0  0  0  0  0
  182.0810  177.6510  138.6260 C   0  0  0  0  0  2  0  0  0  0  0  0
  186.7210  178.8120  142.2200 C   0  0  0  0  0  2  0  0  0  0  0  0
  188.0030  178.0570  141.8500 C   0  0  2  0  0  3  0  0  0  0  0  0
  189.9070  178.7880  143.1940 C   0  0  0  0  0  3  0  0  0  0  0  0
  188.9840  176.5390  143.7680 C   0  0  2  0  0  3  0  0  0  0  0  0
  191.1770  177.2670  144.7230 C   0  0  2  0  0  3  0  0  0  0  0  0
  188.9780  177.8380  142.9810 C   0  0  0  0  0  0  0  0  0  0  0  0
  189.8400  176.6060  145.0330 C   0  0  0  0  0  2  0  0  0  0  0  0
  189.4330  175.5020  142.9700 F   0  0  0  0  0  0  0  0  0  0  0  0
  191.9820  177.2490  145.8610 O   0  0  0  0  0  1  0  0  0  0  0  0
  190.9230  178.7080  144.3020 C   0  0  0  0  0  2  0  0  0  0  0  0
  189.3520  177.2470  139.8460 C   0  0  0  0  0  1  0  0  0  0  0  0
  188.6090  178.4070  140.4870 C   0  0  0  0  0  2  0  0  0  0  0  0
  1  3  1  0  0  0  0
  2  4  1  0  0  0  0
  2  8  1  1  0  0  0
  3  4  1  0  0  0  0
  5  6  1  0  0  0  0
  5  1  2  0  0  0  0
  6 17  1  6  0  0  0
  6  2  1  0  0  0  0
  8  7  1  0  0  0  0
  9  5  1  0  0  0  0
 10  9  1  1  0  0  0
 11 15  1  6  0  0  0
 11 16  1  0  0  0  0
 11 14  1  0  0  0  0
 12 10  1  0  0  0  0
 14 13  2  0  0  0  0
 14 10  1  0  0  0  0
 16 12  1  0  0  0  0
 18 28  1  6  0  0  0
 18 17  1  0  0  0  0
 18 22  1  0  0  0  0
 19 26  1  0  0  0  0
 20 24  1  6  0  0  0
 20 23  1  0  0  0  0
 21 23  1  0  0  0  0
 21 25  1  1  0  0  0
 22 19  2  0  0  0  0
 22 20  1  0  0  0  0
 26 21  1  0  0  0  0
 27 28  1  0  0  0  0
M  END
>  <MODEL>
8

>  <REMARK>
 VINA RESULT:      -7.2      2.690      6.598
  Name = 
  7 active torsions:
  status: ('A' for Active; 'I' for Inactive)
    1  A    between atoms: O_2  and  C_3
    2  A    between atoms: O_2  and  C_26
    3  A    between atoms: C_10  and  C_13
    4  A    between atoms: C_10  and  C_17
    5  A    between atoms: C_10  and  C_25
    6  A    between atoms: CA_16  and  C_20
    7  A    between atoms: C_17  and  C_27
                            x       y       z     vdW  Elec       q    Type
                         _______ _______ _______ _____ _____    ______ ____

>  <TORSDO>
F 7

$$$$
=
 OpenBabel10272401453D

 28 30  0  0  1  0  0  0  0  0999 V2000
  190.9500  177.2810  140.5830 C   0  0  0  0  0  3  0  0  0  0  0  0
  190.7700  177.6230  143.3940 C   0  0  2  0  0  3  0  0  0  0  0  0
  192.0750  176.9250  141.5040 C   0  0  0  0  0  2  0  0  0  0  0  0
  191.5700  176.5320  142.8200 N   0  0  0  0  0  2  0  0  0  0  0  0
  189.8020  177.8000  141.0370 C   0  0  0  0  0  0  0  0  0  0  0  0
  189.5510  177.9520  142.5200 C   0  0  1  0  0  3  0  0  0  0  0  0
  190.7840  179.9100  144.0900 O   0  0  0  0  0  1  0  0  0  0  0  0
  191.6070  178.8680  143.6650 C   0  0  0  0  0  2  0  0  0  0  0  0
  188.7770  178.1870  140.1580 O   0  0  0  0  0  0  0  0  0  0  0  0
  188.0330  177.3220  139.2940 C   0  0  2  0  0  3  0  0  0  0  0  0
  187.0670  177.7080  137.1150 C   0  0  1  0  0  3  0  0  0  0  0  0
  188.8740  176.6880  138.3580 O   0  0  0  0  0  0  0  0  0  0  0  0
  186.1720  178.7910  139.0310 O   0  0  0  0  0  0  0  0  0  0  0  0
  187.0070  178.0530  138.5320 C   0  0  0  0  0  0  0  0  0  0  0  0
  187.4790  178.9170  136.2970 C   0  0  0  0  0  1  0  0  0  0  0  0
  188.1870  176.6790  137.1170 C   0  0  0  0  0  2  0  0  0  0  0  0
  188.3770  177.0780  142.9420 C   0  0  0  0  0  2  0  0  0  0  0  0
  187.2860  177.8580  143.6850 C   0  0  2  0  0  3  0  0  0  0  0  0
  188.5190  177.3260  145.7260 C   0  0  0  0  0  3  0  0  0  0  0  0
  186.3520  178.5240  146.0580 C   0  0  2  0  0  3  0  0  0  0  0  0
  187.5320  177.5190  148.0180 C   0  0  2  0  0  3  0  0  0  0  0  0
  187.4390  177.9200  145.1850 C   0  0  0  0  0  0  0  0  0  0  0  0
  186.7970  178.7480  147.5030 C   0  0  0  0  0  2  0  0  0  0  0  0
  185.2300  177.7160  146.0470 F   0  0  0  0  0  0  0  0  0  0  0  0
  187.8610  177.6990  149.3610 O   0  0  0  0  0  1  0  0  0  0  0  0
  188.8060  177.3360  147.2040 C   0  0  0  0  0  2  0  0  0  0  0  0
  185.3220  178.9040  142.4450 C   0  0  0  0  0  1  0  0  0  0  0  0
  185.8610  177.6740  143.1540 C   0  0  0  0  0  2  0  0  0  0  0  0
  1  5  2  0  0  0  0
  1  3  1  0  0  0  0
  2  8  1  6  0  0  0
  3  4  1  0  0  0  0
  4  2  1  0  0  0  0
  5  6  1  0  0  0  0
  6 17  1  1  0  0  0
  6  2  1  0  0  0  0
  8  7  1  0  0  0  0
  9  5  1  0  0  0  0
 10  9  1  6  0  0  0
 11 15  1  6  0  0  0
 11 16  1  0  0  0  0
 11 14  1  0  0  0  0
 12 10  1  0  0  0  0
 14 13  2  0  0  0  0
 14 10  1  0  0  0  0
 16 12  1  0  0  0  0
 18 17  1  1  0  0  0
 18 22  1  0  0  0  0
 19 26  1  0  0  0  0
 20 24  1  1  0  0  0
 20 23  1  0  0  0  0
 21 25  1  1  0  0  0
 22 19  2  0  0  0  0
 22 20  1  0  0  0  0
 23 21  1  0  0  0  0
 26 21  1  0  0  0  0
 27 28  1  0  0  0  0
 28 18  1  0  0  0  0
M  END
>  <MODEL>
9

>  <REMARK>
 VINA RESULT:      -7.0      2.274      5.013
  Name = 
  7 active torsions:
  status: ('A' for Active; 'I' for Inactive)
    1  A    between atoms: O_2  and  C_3
    2  A    between atoms: O_2  and  C_26
    3  A    between atoms: C_10  and  C_13
    4  A    between atoms: C_10  and  C_17
    5  A    between atoms: C_10  and  C_25
    6  A    between atoms: CA_16  and  C_20
    7  A    between atoms: C_17  and  C_27
                            x       y       z     vdW  Elec       q    Type
                         _______ _______ _______ _____ _____    ______ ____

>  <TORSDO>
F 7

$$$$
