=
 OpenBabel10262423483D

 34 37  0  0  1  0  0  0  0  0999 V2000
  182.5410  176.2740  136.1240 C   0  0  1  0  0  3  0  0  0  0  0  0
  184.5910  174.7960  136.7850 C   0  0  2  0  0  3  0  0  0  0  0  0
  188.7360  175.0710  135.2560 N   0  0  0  0  0  2  0  0  0  0  0  0
  184.7130  177.3330  136.8130 C   0  0  1  0  0  3  0  0  0  0  0  0
  186.5910  176.7870  134.5030 O   0  0  0  0  0  1  0  0  0  0  0  0
  180.4760  176.5610  137.5390 C   0  0  0  0  0  1  0  0  0  0  0  0
  184.1480  173.5810  135.9820 C   0  0  0  0  0  1  0  0  0  0  0  0
  186.6110  175.9430  137.5290 O   0  0  0  0  0  0  0  0  0  0  0  0
  189.8170  174.5980  137.2780 O   0  0  0  0  0  0  0  0  0  0  0  0
  188.9330  174.2900  136.4350 C   0  0  0  0  0  0  0  0  0  0  0  0
  184.0730  176.1030  136.1370 C   0  0  2  0  0  3  0  0  0  0  0  0
  189.3320  176.3790  135.0300 C   0  0  0  0  0  2  0  0  0  0  0  0
  187.0280  177.5040  135.6190 C   0  0  2  0  0  3  0  0  0  0  0  0
  181.8260  175.2290  135.2770 C   0  0  0  0  0  1  0  0  0  0  0  0
  186.7370  173.5770  137.4170 C   0  0  0  0  0  2  0  0  0  0  0  0
  184.1190  177.5760  138.2250 C   0  0  2  0  0  3  0  0  0  0  0  0
  181.9870  176.3950  137.5460 C   0  0  2  0  0  3  0  0  0  0  0  0
  186.1260  174.8380  136.8040 C   0  0  1  0  0  3  0  0  0  0  0  0
  188.5750  177.5030  135.7610 C   0  0  1  0  0  3  0  0  0  0  0  0
  186.2350  177.1440  136.8930 C   0  0  1  0  0  3  0  0  0  0  0  0
  182.5910  177.6290  138.1990 C   0  0  0  0  0  2  0  0  0  0  0  0
  188.0120  173.1430  136.6910 C   0  0  0  0  0  2  0  0  0  0  0  0
  189.1100  177.7830  137.1700 C   0  0  2  0  0  3  0  0  0  0  0  0
  188.9610  179.2550  137.5040 C   0  0  0  0  0  1  0  0  0  0  0  0
  190.4490  177.4470  137.2610 F   0  0  0  0  0  0  0  0  0  0  0  0
  183.6450  179.9950  138.8720 C   0  0  0  0  0  1  0  0  0  0  0  0
  184.6350  178.8430  138.9270 C   0  0  1  0  0  3  0  0  0  0  0  0
  187.1430  178.3370  141.7280 C   0  0  0  0  0  0  0  0  0  0  0  0
  186.3100  178.1450  142.8330 C   0  0  0  0  0  3  0  0  0  0  0  0
  185.2000  178.6160  140.3020 C   0  0  0  0  0  0  0  0  0  0  0  0
  184.9210  178.1870  142.6760 C   0  0  0  0  0  3  0  0  0  0  0  0
  186.5910  178.5690  140.4650 C   0  0  0  0  0  3  0  0  0  0  0  0
  184.3690  178.4190  141.4140 C   0  0  0  0  0  3  0  0  0  0  0  0
  188.8810  178.2810  141.9220 Cl  0  0  0  0  0  0  0  0  0  0  0  0
  1 14  1  1  0  0  0
  1 11  1  0  0  0  0
  1 17  1  0  0  0  0
  2  7  1  6  0  0  0
  2 18  1  0  0  0  0
  3 10  1  0  0  0  0
  4 20  1  0  0  0  0
  4 16  1  0  0  0  0
  5 13  1  0  0  0  0
  6 17  1  0  0  0  0
 10 22  1  0  0  0  0
 10  9  2  0  0  0  0
 11  2  1  0  0  0  0
 11  4  1  0  0  0  0
 12  3  1  0  0  0  0
 12 19  1  0  0  0  0
 13 19  1  0  0  0  0
 13 20  1  0  0  0  0
 16 27  1  0  0  0  0
 17 21  1  0  0  0  0
 18 15  1  0  0  0  0
 18  8  1  0  0  0  0
 19 23  1  0  0  0  0
 20  8  1  0  0  0  0
 21 16  1  0  0  0  0
 22 15  1  0  0  0  0
 23 25  1  0  0  0  0
 23 24  1  0  0  0  0
 26 27  1  0  0  0  0
 27 30  1  0  0  0  0
 28 34  1  0  0  0  0
 28 29  1  0  0  0  0
 30 32  1  0  0  0  0
 30 33  2  0  0  0  0
 31 29  2  0  0  0  0
 32 28  2  0  0  0  0
 33 31  1  0  0  0  0
M  END
>  <MODEL>
1

>  <REMARK>
 VINA RESULT:      -6.7      0.000      0.000
  Name = 
  3 active torsions:
  status: ('A' for Active; 'I' for Inactive)
    1  A    between atoms: C_12  and  C_28
    2  A    between atoms: C_13  and  C_29
    3  A    between atoms: C_21  and  C_28
                            x       y       z     vdW  Elec       q    Type
                         _______ _______ _______ _____ _____    ______ ____

>  <TORSDO>
F 3

$$$$
=
 OpenBabel10262423483D

 34 37  0  0  1  0  0  0  0  0999 V2000
  182.3970  176.3060  136.1890 C   0  0  1  0  0  3  0  0  0  0  0  0
  184.4300  174.7940  136.8300 C   0  0  2  0  0  3  0  0  0  0  0  0
  188.5410  174.9450  135.1950 N   0  0  0  0  0  2  0  0  0  0  0  0
  184.6090  177.3280  136.8040 C   0  0  1  0  0  3  0  0  0  0  0  0
  186.4160  176.6940  134.4600 O   0  0  0  0  0  1  0  0  0  0  0  0
  180.3750  176.6670  137.6480 C   0  0  0  0  0  1  0  0  0  0  0  0
  183.9400  173.5740  136.0620 C   0  0  0  0  0  1  0  0  0  0  0  0
  186.4930  175.9090  137.5020 O   0  0  0  0  0  0  0  0  0  0  0  0
  189.6600  174.4860  137.1990 O   0  0  0  0  0  0  0  0  0  0  0  0
  188.7490  174.1820  136.3840 C   0  0  0  0  0  0  0  0  0  0  0  0
  183.9250  176.1000  136.1680 C   0  0  2  0  0  3  0  0  0  0  0  0
  189.1600  176.2340  134.9290 C   0  0  0  0  0  2  0  0  0  0  0  0
  186.8970  177.4230  135.5520 C   0  0  2  0  0  3  0  0  0  0  0  0
  181.6380  175.2610  135.3810 C   0  0  0  0  0  1  0  0  0  0  0  0
  186.5620  173.5390  137.4340 C   0  0  0  0  0  2  0  0  0  0  0  0
  184.0560  177.6110  138.2250 C   0  0  2  0  0  3  0  0  0  0  0  0
  181.8810  176.4670  137.6210 C   0  0  2  0  0  3  0  0  0  0  0  0
  185.9650  174.8010  136.8100 C   0  0  1  0  0  3  0  0  0  0  0  0
  188.4470  177.3880  135.6550 C   0  0  1  0  0  3  0  0  0  0  0  0
  186.1280  177.1060  136.8510 C   0  0  1  0  0  3  0  0  0  0  0  0
  182.5290  177.6990  138.2360 C   0  0  0  0  0  2  0  0  0  0  0  0
  187.8090  173.0610  136.6860 C   0  0  0  0  0  2  0  0  0  0  0  0
  189.0220  177.6830  137.0460 C   0  0  2  0  0  3  0  0  0  0  0  0
  188.9190  179.1660  137.3520 C   0  0  0  0  0  1  0  0  0  0  0  0
  190.3550  177.3160  137.1120 F   0  0  0  0  0  0  0  0  0  0  0  0
  183.6480  180.0500  138.8440 C   0  0  0  0  0  1  0  0  0  0  0  0
  184.6180  178.8800  138.8900 C   0  0  1  0  0  3  0  0  0  0  0  0
  184.9170  178.4910  142.6510 C   0  0  0  0  0  0  0  0  0  0  0  0
  186.2940  178.3180  142.8160 C   0  0  0  0  0  3  0  0  0  0  0  0
  185.2200  178.6650  140.2500 C   0  0  0  0  0  0  0  0  0  0  0  0
  187.1370  178.3190  141.7010 C   0  0  0  0  0  3  0  0  0  0  0  0
  184.3810  178.6660  141.3720 C   0  0  0  0  0  3  0  0  0  0  0  0
  186.6020  178.4950  140.4230 C   0  0  0  0  0  3  0  0  0  0  0  0
  183.8620  178.4930  144.0460 Cl  0  0  0  0  0  0  0  0  0  0  0  0
  1 14  1  1  0  0  0
  1 17  1  0  0  0  0
  2  7  1  6  0  0  0
  3 10  1  0  0  0  0
  4 20  1  0  0  0  0
  4 16  1  0  0  0  0
  5 13  1  0  0  0  0
 10 22  1  0  0  0  0
 10  9  2  0  0  0  0
 11  1  1  0  0  0  0
 11  4  1  0  0  0  0
 11  2  1  0  0  0  0
 12  3  1  0  0  0  0
 12 19  1  0  0  0  0
 13 19  1  0  0  0  0
 13 20  1  0  0  0  0
 16 21  1  0  0  0  0
 16 27  1  0  0  0  0
 17  6  1  0  0  0  0
 17 21  1  0  0  0  0
 18  2  1  0  0  0  0
 18 15  1  0  0  0  0
 18  8  1  0  0  0  0
 19 23  1  0  0  0  0
 20  8  1  0  0  0  0
 22 15  1  0  0  0  0
 23 25  1  0  0  0  0
 23 24  1  0  0  0  0
 26 27  1  0  0  0  0
 27 30  1  0  0  0  0
 28 29  1  0  0  0  0
 28 34  1  0  0  0  0
 30 33  2  0  0  0  0
 30 32  1  0  0  0  0
 31 29  2  0  0  0  0
 32 28  2  0  0  0  0
 33 31  1  0  0  0  0
M  END
>  <MODEL>
2

>  <REMARK>
 VINA RESULT:      -6.6      0.952      1.261
  Name = 
  3 active torsions:
  status: ('A' for Active; 'I' for Inactive)
    1  A    between atoms: C_12  and  C_28
    2  A    between atoms: C_13  and  C_29
    3  A    between atoms: C_21  and  C_28
                            x       y       z     vdW  Elec       q    Type
                         _______ _______ _______ _____ _____    ______ ____

>  <TORSDO>
F 3

$$$$
=
 OpenBabel10262423483D

 34 37  0  0  1  0  0  0  0  0999 V2000
  188.9740  177.7180  137.0460 C   0  0  1  0  0  3  0  0  0  0  0  0
  189.4480  175.2000  136.5320 C   0  0  2  0  0  3  0  0  0  0  0  0
  193.1280  173.4300  134.8230 N   0  0  0  0  0  2  0  0  0  0  0  0
  191.0720  176.6140  137.8820 C   0  0  1  0  0  3  0  0  0  0  0  0
  192.7490  176.1940  135.3980 O   0  0  0  0  0  1  0  0  0  0  0  0
  187.2290  178.5360  138.6700 C   0  0  0  0  0  1  0  0  0  0  0  0
  188.5860  175.1520  135.2790 C   0  0  0  0  0  1  0  0  0  0  0  0
  191.4710  174.2200  137.4820 O   0  0  0  0  0  0  0  0  0  0  0  0
  193.1300  171.4780  136.1140 O   0  0  0  0  0  0  0  0  0  0  0  0
  192.4970  172.2710  135.3680 C   0  0  0  0  0  0  0  0  0  0  0  0
  190.0190  176.6220  136.7540 C   0  0  2  0  0  3  0  0  0  0  0  0
  194.4270  173.9310  135.2430 C   0  0  0  0  0  2  0  0  0  0  0  0
  193.2250  175.7990  136.6520 C   0  0  2  0  0  3  0  0  0  0  0  0
  188.0220  177.9670  135.8840 C   0  0  0  0  0  1  0  0  0  0  0  0
  190.1590  172.7900  136.1190 C   0  0  0  0  0  2  0  0  0  0  0  0
  190.4070  176.4600  139.2750 C   0  0  2  0  0  3  0  0  0  0  0  0
  188.2630  177.4610  138.3780 C   0  0  2  0  0  3  0  0  0  0  0  0
  190.6230  174.2270  136.3570 C   0  0  1  0  0  3  0  0  0  0  0  0
  194.3500  174.7330  136.5540 C   0  0  1  0  0  3  0  0  0  0  0  0
  192.0800  175.4830  137.6370 C   0  0  1  0  0  3  0  0  0  0  0  0
  189.2960  177.4880  139.4940 C   0  0  0  0  0  2  0  0  0  0  0  0
  191.0420  172.0600  135.1040 C   0  0  0  0  0  2  0  0  0  0  0  0
  194.5570  173.8750  137.8080 C   0  0  2  0  0  3  0  0  0  0  0  0
  195.3430  174.6500  138.8490 C   0  0  0  0  0  1  0  0  0  0  0  0
  195.2580  172.7220  137.5010 F   0  0  0  0  0  0  0  0  0  0  0  0
  192.6310  177.3480  140.1470 C   0  0  0  0  0  1  0  0  0  0  0  0
  191.3820  176.5400  140.4620 C   0  0  1  0  0  3  0  0  0  0  0  0
  190.6300  178.4410  143.6570 C   0  0  0  0  0  0  0  0  0  0  0  0
  189.6410  177.6440  144.2420 C   0  0  0  0  0  3  0  0  0  0  0  0
  190.7490  176.9180  141.7720 C   0  0  0  0  0  0  0  0  0  0  0  0
  189.2060  176.4840  143.5960 C   0  0  0  0  0  3  0  0  0  0  0  0
  191.1840  178.0770  142.4270 C   0  0  0  0  0  3  0  0  0  0  0  0
  189.7600  176.1210  142.3660 C   0  0  0  0  0  3  0  0  0  0  0  0
  191.1780  179.8910  144.4680 Cl  0  0  0  0  0  0  0  0  0  0  0  0
  1 14  1  6  0  0  0
  1 17  1  0  0  0  0
  2  7  1  6  0  0  0
  2 11  1  0  0  0  0
  3 12  1  0  0  0  0
  3 10  1  0  0  0  0
  4 16  1  0  0  0  0
  5 13  1  0  0  0  0
  8 20  1  0  0  0  0
 10  9  2  0  0  0  0
 11  1  1  0  0  0  0
 11  4  1  0  0  0  0
 12 19  1  0  0  0  0
 13 20  1  0  0  0  0
 15 18  1  0  0  0  0
 16 21  1  0  0  0  0
 16 27  1  0  0  0  0
 17  6  1  0  0  0  0
 17 21  1  0  0  0  0
 18  2  1  0  0  0  0
 18  8  1  0  0  0  0
 19 13  1  0  0  0  0
 19 23  1  0  0  0  0
 20  4  1  0  0  0  0
 22 10  1  0  0  0  0
 22 15  1  0  0  0  0
 23 24  1  0  0  0  0
 25 23  1  0  0  0  0
 26 27  1  0  0  0  0
 27 30  1  0  0  0  0
 28 29  1  0  0  0  0
 28 34  1  0  0  0  0
 30 33  2  0  0  0  0
 30 32  1  0  0  0  0
 31 29  2  0  0  0  0
 32 28  2  0  0  0  0
 33 31  1  0  0  0  0
M  END
>  <MODEL>
3

>  <REMARK>
 VINA RESULT:      -6.0      4.005      5.901
  Name = 
  3 active torsions:
  status: ('A' for Active; 'I' for Inactive)
    1  A    between atoms: C_12  and  C_28
    2  A    between atoms: C_13  and  C_29
    3  A    between atoms: C_21  and  C_28
                            x       y       z     vdW  Elec       q    Type
                         _______ _______ _______ _____ _____    ______ ____

>  <TORSDO>
F 3

$$$$
=
 OpenBabel10262423483D

 34 37  0  0  1  0  0  0  0  0999 V2000
  189.0160  177.9460  137.4590 C   0  0  1  0  0  3  0  0  0  0  0  0
  189.4620  175.4470  136.8390 C   0  0  2  0  0  3  0  0  0  0  0  0
  193.1030  173.7180  135.0090 N   0  0  0  0  0  2  0  0  0  0  0  0
  191.1160  176.7940  138.2210 C   0  0  1  0  0  3  0  0  0  0  0  0
  192.7550  176.4590  135.6990 O   0  0  0  0  0  1  0  0  0  0  0  0
  187.3000  178.7130  139.1380 C   0  0  0  0  0  1  0  0  0  0  0  0
  188.5830  175.4550  135.5970 C   0  0  0  0  0  1  0  0  0  0  0  0
  191.4890  174.4150  137.7210 O   0  0  0  0  0  0  0  0  0  0  0  0
  193.1070  171.7160  136.2220 O   0  0  0  0  0  0  0  0  0  0  0  0
  192.4700  172.5430  135.5170 C   0  0  0  0  0  0  0  0  0  0  0  0
  190.0480  176.8550  137.1080 C   0  0  2  0  0  3  0  0  0  0  0  0
  194.4120  174.1910  135.4300 C   0  0  0  0  0  2  0  0  0  0  0  0
  193.2450  176.0120  136.9290 C   0  0  2  0  0  3  0  0  0  0  0  0
  188.0490  178.2480  136.3210 C   0  0  0  0  0  1  0  0  0  0  0  0
  190.1470  173.0500  136.3210 C   0  0  0  0  0  2  0  0  0  0  0  0
  190.4680  176.5890  139.6160 C   0  0  2  0  0  3  0  0  0  0  0  0
  188.3210  177.6420  138.7890 C   0  0  2  0  0  3  0  0  0  0  0  0
  190.6270  174.4730  136.6090 C   0  0  1  0  0  3  0  0  0  0  0  0
  194.3600  174.9420  136.7740 C   0  0  1  0  0  3  0  0  0  0  0  0
  192.1110  175.6650  137.9170 C   0  0  1  0  0  3  0  0  0  0  0  0
  189.3700  177.6170  139.8900 C   0  0  0  0  0  2  0  0  0  0  0  0
  191.0100  172.3540  135.2650 C   0  0  0  0  0  2  0  0  0  0  0  0
  194.5770  174.0330  137.9900 C   0  0  2  0  0  3  0  0  0  0  0  0
  195.4410  174.7350  139.0200 C   0  0  0  0  0  1  0  0  0  0  0  0
  195.2090  172.8600  137.6170 F   0  0  0  0  0  0  0  0  0  0  0  0
  192.7770  177.2890  140.4380 C   0  0  0  0  0  1  0  0  0  0  0  0
  191.4600  176.6160  140.7910 C   0  0  1  0  0  3  0  0  0  0  0  0
  189.0380  177.0990  143.6690 C   0  0  0  0  0  0  0  0  0  0  0  0
  189.7320  177.9960  144.4850 C   0  0  0  0  0  3  0  0  0  0  0  0
  190.8820  177.0960  142.0930 C   0  0  0  0  0  0  0  0  0  0  0  0
  191.0010  178.4460  144.1080 C   0  0  0  0  0  3  0  0  0  0  0  0
  189.6100  176.6520  142.4750 C   0  0  0  0  0  3  0  0  0  0  0  0
  191.5720  177.9990  142.9150 C   0  0  0  0  0  3  0  0  0  0  0  0
  187.4480  176.5390  144.1390 Cl  0  0  0  0  0  0  0  0  0  0  0  0
  1 14  1  6  0  0  0
  1 17  1  0  0  0  0
  2  7  1  6  0  0  0
  2 11  1  0  0  0  0
  3 12  1  0  0  0  0
  3 10  1  0  0  0  0
  4 16  1  0  0  0  0
  5 13  1  0  0  0  0
  8 20  1  0  0  0  0
 10  9  2  0  0  0  0
 11  1  1  0  0  0  0
 11  4  1  0  0  0  0
 12 19  1  0  0  0  0
 13 20  1  0  0  0  0
 15 18  1  0  0  0  0
 16 21  1  0  0  0  0
 16 27  1  0  0  0  0
 17  6  1  0  0  0  0
 17 21  1  0  0  0  0
 18  2  1  0  0  0  0
 18  8  1  0  0  0  0
 19 13  1  0  0  0  0
 19 23  1  0  0  0  0
 20  4  1  0  0  0  0
 22 10  1  0  0  0  0
 22 15  1  0  0  0  0
 23 24  1  0  0  0  0
 25 23  1  0  0  0  0
 26 27  1  0  0  0  0
 27 30  1  0  0  0  0
 28 34  1  0  0  0  0
 28 29  1  0  0  0  0
 30 32  1  0  0  0  0
 30 33  2  0  0  0  0
 31 29  2  0  0  0  0
 32 28  2  0  0  0  0
 33 31  1  0  0  0  0
M  END
>  <MODEL>
4

>  <REMARK>
 VINA RESULT:      -5.8      3.980      5.980
  Name = 
  3 active torsions:
  status: ('A' for Active; 'I' for Inactive)
    1  A    between atoms: C_12  and  C_28
    2  A    between atoms: C_13  and  C_29
    3  A    between atoms: C_21  and  C_28
                            x       y       z     vdW  Elec       q    Type
                         _______ _______ _______ _____ _____    ______ ____

>  <TORSDO>
F 3

$$$$
=
 OpenBabel10262423483D

 34 37  0  0  1  0  0  0  0  0999 V2000
  187.5760  178.1520  138.3690 C   0  0  1  0  0  3  0  0  0  0  0  0
  187.9560  175.6950  137.5650 C   0  0  2  0  0  3  0  0  0  0  0  0
  191.0530  174.2050  134.7750 N   0  0  0  0  0  2  0  0  0  0  0  0
  189.8540  177.0990  138.5050 C   0  0  1  0  0  3  0  0  0  0  0  0
  190.7760  176.9080  135.6290 O   0  0  0  0  0  1  0  0  0  0  0  0
  186.3360  178.7890  140.4680 C   0  0  0  0  0  1  0  0  0  0  0  0
  186.7780  175.6830  136.6010 C   0  0  0  0  0  1  0  0  0  0  0  0
  190.1900  174.7550  137.8400 O   0  0  0  0  0  0  0  0  0  0  0  0
  191.4730  172.1810  135.8720 O   0  0  0  0  0  0  0  0  0  0  0  0
  190.6330  172.9880  135.3910 C   0  0  0  0  0  0  0  0  0  0  0  0
  188.5270  177.1260  137.7190 C   0  0  2  0  0  3  0  0  0  0  0  0
  192.4040  174.7390  134.8510 C   0  0  0  0  0  2  0  0  0  0  0  0
  191.5950  176.4610  136.6690 C   0  0  2  0  0  3  0  0  0  0  0  0
  186.3290  178.4270  137.5390 C   0  0  0  0  0  1  0  0  0  0  0  0
  188.5880  173.3500  136.7980 C   0  0  0  0  0  2  0  0  0  0  0  0
  189.6120  176.8290  140.0140 C   0  0  2  0  0  3  0  0  0  0  0  0
  187.2760  177.7820  139.8240 C   0  0  2  0  0  3  0  0  0  0  0  0
  189.0610  174.7900  137.0000 C   0  0  1  0  0  3  0  0  0  0  0  0
  192.6770  175.4560  136.1850 C   0  0  1  0  0  3  0  0  0  0  0  0
  190.7840  176.0320  137.9090 C   0  0  1  0  0  3  0  0  0  0  0  0
  188.5800  177.7900  140.6060 C   0  0  0  0  0  2  0  0  0  0  0  0
  189.1690  172.7250  135.5280 C   0  0  0  0  0  2  0  0  0  0  0  0
  193.2520  174.5340  137.2670 C   0  0  2  0  0  3  0  0  0  0  0  0
  194.2130  175.3030  138.1540 C   0  0  0  0  0  1  0  0  0  0  0  0
  193.9370  173.4760  136.6950 F   0  0  0  0  0  0  0  0  0  0  0  0
  192.0110  177.6630  140.2340 C   0  0  0  0  0  1  0  0  0  0  0  0
  190.8790  176.8830  140.8840 C   0  0  1  0  0  3  0  0  0  0  0  0
  189.1600  177.3190  144.2380 C   0  0  0  0  0  0  0  0  0  0  0  0
  190.1270  178.0120  144.9710 C   0  0  0  0  0  3  0  0  0  0  0  0
  190.6430  177.2700  142.3170 C   0  0  0  0  0  0  0  0  0  0  0  0
  191.3520  178.3370  144.3810 C   0  0  0  0  0  3  0  0  0  0  0  0
  189.4170  176.9510  142.9140 C   0  0  0  0  0  3  0  0  0  0  0  0
  191.6080  177.9700  143.0580 C   0  0  0  0  0  3  0  0  0  0  0  0
  187.6260  176.9150  144.9740 Cl  0  0  0  0  0  0  0  0  0  0  0  0
  1 14  1  6  0  0  0
  1 17  1  0  0  0  0
  2  7  1  6  0  0  0
  2 11  1  0  0  0  0
  3 12  1  0  0  0  0
  3 10  1  0  0  0  0
  4 16  1  0  0  0  0
  5 13  1  0  0  0  0
  8 20  1  0  0  0  0
 10 22  1  0  0  0  0
 10  9  2  0  0  0  0
 11  1  1  0  0  0  0
 11  4  1  0  0  0  0
 12 19  1  0  0  0  0
 13 20  1  0  0  0  0
 15 18  1  0  0  0  0
 16 21  1  0  0  0  0
 16 27  1  0  0  0  0
 17  6  1  0  0  0  0
 17 21  1  0  0  0  0
 18  2  1  0  0  0  0
 18  8  1  0  0  0  0
 19 13  1  0  0  0  0
 19 23  1  0  0  0  0
 20  4  1  0  0  0  0
 22 15  1  0  0  0  0
 23 24  1  0  0  0  0
 25 23  1  0  0  0  0
 26 27  1  0  0  0  0
 27 30  1  0  0  0  0
 28 29  1  0  0  0  0
 28 34  1  0  0  0  0
 30 32  1  0  0  0  0
 30 33  2  0  0  0  0
 31 29  2  0  0  0  0
 32 28  2  0  0  0  0
 33 31  1  0  0  0  0
M  END
>  <MODEL>
5

>  <REMARK>
 VINA RESULT:      -5.6      3.120      5.071
  Name = 
  3 active torsions:
  status: ('A' for Active; 'I' for Inactive)
    1  A    between atoms: C_12  and  C_28
    2  A    between atoms: C_13  and  C_29
    3  A    between atoms: C_21  and  C_28
                            x       y       z     vdW  Elec       q    Type
                         _______ _______ _______ _____ _____    ______ ____

>  <TORSDO>
F 3

$$$$
=
 OpenBabel10262423483D

 34 37  0  0  1  0  0  0  0  0999 V2000
  182.3340  172.3850  137.0480 C   0  0  1  0  0  3  0  0  0  0  0  0
  181.5250  174.7060  136.1610 C   0  0  2  0  0  3  0  0  0  0  0  0
  180.6200  178.3420  138.5190 N   0  0  0  0  0  2  0  0  0  0  0  0
  183.5080  174.4980  137.7370 C   0  0  1  0  0  3  0  0  0  0  0  0
  181.5580  175.8770  139.5960 O   0  0  0  0  0  1  0  0  0  0  0  0
  183.5250  170.6620  135.6470 C   0  0  0  0  0  1  0  0  0  0  0  0
  180.0930  174.2610  135.8990 C   0  0  0  0  0  1  0  0  0  0  0  0
  182.8080  176.6720  136.8250 O   0  0  0  0  0  0  0  0  0  0  0  0
  181.4840  179.8920  136.9930 O   0  0  0  0  0  0  0  0  0  0  0  0
  180.7480  178.8920  137.2080 C   0  0  0  0  0  0  0  0  0  0  0  0
  182.1510  173.8920  137.3200 C   0  0  2  0  0  3  0  0  0  0  0  0
  181.4700  178.6970  139.6450 C   0  0  0  0  0  2  0  0  0  0  0  0
  182.8020  176.4510  139.3170 C   0  0  2  0  0  3  0  0  0  0  0  0
  181.0170  171.6450  136.8530 C   0  0  0  0  0  1  0  0  0  0  0  0
  180.8960  177.0780  135.4810 C   0  0  0  0  0  2  0  0  0  0  0  0
  184.6070  174.2020  136.6830 C   0  0  2  0  0  3  0  0  0  0  0  0
  183.3440  172.1460  135.9220 C   0  0  2  0  0  3  0  0  0  0  0  0
  181.5120  176.1890  136.5620 C   0  0  1  0  0  3  0  0  0  0  0  0
  182.8310  177.9780  139.6020 C   0  0  1  0  0  3  0  0  0  0  0  0
  183.3530  176.0110  137.9450 C   0  0  1  0  0  3  0  0  0  0  0  0
  184.6900  172.7120  136.3490 C   0  0  0  0  0  2  0  0  0  0  0  0
  180.0530  178.2090  136.0760 C   0  0  0  0  0  2  0  0  0  0  0  0
  183.9150  178.7680  138.8580 C   0  0  2  0  0  3  0  0  0  0  0  0
  185.2690  178.5290  139.5000 C   0  0  0  0  0  1  0  0  0  0  0  0
  183.6460  180.1250  138.8990 F   0  0  0  0  0  0  0  0  0  0  0  0
  187.0660  173.5960  136.9750 C   0  0  0  0  0  1  0  0  0  0  0  0
  186.0130  174.6890  137.0720 C   0  0  1  0  0  3  0  0  0  0  0  0
  187.7870  177.9900  136.4850 C   0  0  0  0  0  0  0  0  0  0  0  0
  187.2260  178.4110  135.2770 C   0  0  0  0  0  3  0  0  0  0  0  0
  186.4360  175.9760  136.4200 C   0  0  0  0  0  0  0  0  0  0  0  0
  186.2680  177.6170  134.6380 C   0  0  0  0  0  3  0  0  0  0  0  0
  187.3920  176.7770  137.0570 C   0  0  0  0  0  3  0  0  0  0  0  0
  185.8730  176.4060  135.2090 C   0  0  0  0  0  3  0  0  0  0  0  0
  188.9830  178.9850  137.2880 Cl  0  0  0  0  0  0  0  0  0  0  0  0
  1 14  1  6  0  0  0
  1 11  1  0  0  0  0
  2  7  1  1  0  0  0
  2 18  1  0  0  0  0
  2 11  1  0  0  0  0
  3 12  1  0  0  0  0
  4 20  1  0  0  0  0
  6 17  1  0  0  0  0
  8 20  1  0  0  0  0
  9 10  2  0  0  0  0
 10  3  1  0  0  0  0
 11  4  1  0  0  0  0
 13  5  1  0  0  0  0
 13 19  1  0  0  0  0
 15 22  1  0  0  0  0
 15 18  1  0  0  0  0
 16 27  1  0  0  0  0
 16  4  1  0  0  0  0
 17 21  1  0  0  0  0
 17  1  1  0  0  0  0
 18  8  1  0  0  0  0
 19 12  1  0  0  0  0
 20 13  1  0  0  0  0
 21 16  1  0  0  0  0
 22 10  1  0  0  0  0
 23 25  1  0  0  0  0
 23 24  1  0  0  0  0
 23 19  1  0  0  0  0
 26 27  1  0  0  0  0
 28 32  1  0  0  0  0
 28 34  1  0  0  0  0
 29 28  2  0  0  0  0
 30 32  2  0  0  0  0
 30 27  1  0  0  0  0
 31 33  2  0  0  0  0
 31 29  1  0  0  0  0
 33 30  1  0  0  0  0
M  END
>  <MODEL>
6

>  <REMARK>
 VINA RESULT:      -5.4      3.154      6.234
  Name = 
  3 active torsions:
  status: ('A' for Active; 'I' for Inactive)
    1  A    between atoms: C_12  and  C_28
    2  A    between atoms: C_13  and  C_29
    3  A    between atoms: C_21  and  C_28
                            x       y       z     vdW  Elec       q    Type
                         _______ _______ _______ _____ _____    ______ ____

>  <TORSDO>
F 3

$$$$
=
 OpenBabel10262423483D

 34 37  0  0  1  0  0  0  0  0999 V2000
  181.4950  179.1540  142.0970 C   0  0  1  0  0  3  0  0  0  0  0  0
  181.4970  176.9570  140.6840 C   0  0  2  0  0  3  0  0  0  0  0  0
  182.4920  176.4940  136.3960 N   0  0  0  0  0  2  0  0  0  0  0  0
  183.4920  178.5290  140.7060 C   0  0  1  0  0  3  0  0  0  0  0  0
  182.5860  178.9420  137.8480 O   0  0  0  0  0  1  0  0  0  0  0  0
  181.6630  179.2320  144.6110 C   0  0  0  0  0  1  0  0  0  0  0  0
  179.9820  176.8720  140.5610 C   0  0  0  0  0  1  0  0  0  0  0  0
  183.5320  176.4130  139.4540 O   0  0  0  0  0  0  0  0  0  0  0  0
  183.6000  174.4410  136.5810 O   0  0  0  0  0  0  0  0  0  0  0  0
  182.5870  175.1420  136.8440 C   0  0  0  0  0  0  0  0  0  0  0  0
  181.9570  178.4290  140.8170 C   0  0  2  0  0  3  0  0  0  0  0  0
  183.5980  177.2500  135.8300 C   0  0  0  0  0  2  0  0  0  0  0  0
  183.8840  178.5040  138.1260 C   0  0  2  0  0  3  0  0  0  0  0  0
  179.9820  179.3150  142.1850 C   0  0  0  0  0  1  0  0  0  0  0  0
  181.7180  174.9090  139.1860 C   0  0  0  0  0  2  0  0  0  0  0  0
  184.1880  177.9980  141.9870 C   0  0  2  0  0  3  0  0  0  0  0  0
  182.1180  178.5230  143.3450 C   0  0  2  0  0  3  0  0  0  0  0  0
  182.1250  176.3650  139.4140 C   0  0  1  0  0  3  0  0  0  0  0  0
  184.5470  177.7980  136.9110 C   0  0  1  0  0  3  0  0  0  0  0  0
  183.9710  177.7530  139.4710 C   0  0  1  0  0  3  0  0  0  0  0  0
  183.6310  178.6540  143.2520 C   0  0  0  0  0  2  0  0  0  0  0  0
  181.4950  174.5980  137.7050 C   0  0  0  0  0  2  0  0  0  0  0  0
  185.7020  176.8470  137.2500 C   0  0  2  0  0  3  0  0  0  0  0  0
  186.9240  177.6380  137.6760 C   0  0  0  0  0  1  0  0  0  0  0  0
  186.0400  176.0780  136.1500 F   0  0  0  0  0  0  0  0  0  0  0  0
  186.1810  179.4780  141.4090 C   0  0  0  0  0  1  0  0  0  0  0  0
  185.7180  178.1540  141.9950 C   0  0  1  0  0  3  0  0  0  0  0  0
  186.4730  178.1190  145.7130 C   0  0  0  0  0  0  0  0  0  0  0  0
  187.5970  177.2900  145.7730 C   0  0  0  0  0  3  0  0  0  0  0  0
  186.3780  177.8260  143.3060 C   0  0  0  0  0  0  0  0  0  0  0  0
  188.1140  176.7290  144.6010 C   0  0  0  0  0  3  0  0  0  0  0  0
  185.8670  178.3880  144.4820 C   0  0  0  0  0  3  0  0  0  0  0  0
  187.5080  176.9980  143.3720 C   0  0  0  0  0  3  0  0  0  0  0  0
  185.8280  178.8260  147.1770 Cl  0  0  0  0  0  0  0  0  0  0  0  0
  1 14  1  1  0  0  0
  1 17  1  0  0  0  0
  2  7  1  6  0  0  0
  2 11  1  0  0  0  0
  3 10  1  0  0  0  0
  4 11  1  0  0  0  0
  4 16  1  0  0  0  0
  5 13  1  0  0  0  0
  8 20  1  0  0  0  0
  9 10  2  0  0  0  0
 10 22  1  0  0  0  0
 11  1  1  0  0  0  0
 12  3  1  0  0  0  0
 12 19  1  0  0  0  0
 13 20  1  0  0  0  0
 15 18  1  0  0  0  0
 16 27  1  0  0  0  0
 16 21  1  0  0  0  0
 17  6  1  0  0  0  0
 18  8  1  0  0  0  0
 18  2  1  0  0  0  0
 19 23  1  0  0  0  0
 19 13  1  0  0  0  0
 20  4  1  0  0  0  0
 21 17  1  0  0  0  0
 22 15  1  0  0  0  0
 23 24  1  0  0  0  0
 25 23  1  0  0  0  0
 26 27  1  0  0  0  0
 27 30  1  0  0  0  0
 28 29  1  0  0  0  0
 28 34  1  0  0  0  0
 30 33  2  0  0  0  0
 30 32  1  0  0  0  0
 31 29  2  0  0  0  0
 32 28  2  0  0  0  0
 33 31  1  0  0  0  0
M  END
>  <MODEL>
7

>  <REMARK>
 VINA RESULT:      -5.4      2.981      5.202
  Name = 
  3 active torsions:
  status: ('A' for Active; 'I' for Inactive)
    1  A    between atoms: C_12  and  C_28
    2  A    between atoms: C_13  and  C_29
    3  A    between atoms: C_21  and  C_28
                            x       y       z     vdW  Elec       q    Type
                         _______ _______ _______ _____ _____    ______ ____

>  <TORSDO>
F 3

$$$$
=
 OpenBabel10262423483D

 34 37  0  0  1  0  0  0  0  0999 V2000
  192.4860  174.6090  135.8350 C   0  0  1  0  0  3  0  0  0  0  0  0
  190.9820  175.6150  137.7190 C   0  0  2  0  0  3  0  0  0  0  0  0
  188.1600  179.0120  137.4110 N   0  0  0  0  0  2  0  0  0  0  0  0
  190.0260  174.9580  135.4580 C   0  0  1  0  0  3  0  0  0  0  0  0
  189.7060  177.9620  135.2620 O   0  0  0  0  0  1  0  0  0  0  0  0
  193.4540  172.2830  135.8740 C   0  0  0  0  0  1  0  0  0  0  0  0
  192.1160  176.3440  138.4250 C   0  0  0  0  0  1  0  0  0  0  0  0
  188.5930  175.8120  137.2660 O   0  0  0  0  0  0  0  0  0  0  0  0
  186.5050  178.1340  138.8140 O   0  0  0  0  0  0  0  0  0  0  0  0
  187.7210  178.4030  138.6260 C   0  0  0  0  0  0  0  0  0  0  0  0
  191.2710  175.4830  136.2040 C   0  0  2  0  0  3  0  0  0  0  0  0
  187.3360  179.1550  136.2210 C   0  0  0  0  0  2  0  0  0  0  0  0
  188.5990  177.1190  135.1320 C   0  0  2  0  0  3  0  0  0  0  0  0
  193.8090  175.1770  136.3330 C   0  0  0  0  0  1  0  0  0  0  0  0
  189.3250  176.6230  139.3710 C   0  0  0  0  0  2  0  0  0  0  0  0
  189.7940  173.4500  135.7370 C   0  0  2  0  0  3  0  0  0  0  0  0
  192.2570  173.1490  136.2320 C   0  0  2  0  0  3  0  0  0  0  0  0
  189.6900  176.4270  137.8990 C   0  0  1  0  0  3  0  0  0  0  0  0
  187.2570  177.8530  135.4030 C   0  0  1  0  0  3  0  0  0  0  0  0
  188.7950  175.7780  135.8700 C   0  0  1  0  0  3  0  0  0  0  0  0
  191.0510  172.6210  135.4700 C   0  0  0  0  0  2  0  0  0  0  0  0
  188.7460  178.0140  139.6400 C   0  0  0  0  0  2  0  0  0  0  0  0
  186.0810  176.9530  135.8020 C   0  0  2  0  0  3  0  0  0  0  0  0
  185.4070  176.3920  134.5630 C   0  0  0  0  0  1  0  0  0  0  0  0
  185.1410  177.6660  136.5240 F   0  0  0  0  0  0  0  0  0  0  0  0
  188.9770  171.4760  134.3460 C   0  0  0  0  0  1  0  0  0  0  0  0
  188.6270  172.8260  134.9520 C   0  0  1  0  0  3  0  0  0  0  0  0
  184.8880  172.9420  135.5840 C   0  0  0  0  0  0  0  0  0  0  0  0
  184.8280  172.8780  136.9780 C   0  0  0  0  0  3  0  0  0  0  0  0
  187.3100  172.8250  135.6770 C   0  0  0  0  0  0  0  0  0  0  0  0
  186.0060  172.7880  137.7260 C   0  0  0  0  0  3  0  0  0  0  0  0
  186.1260  172.9180  134.9350 C   0  0  0  0  0  3  0  0  0  0  0  0
  187.2430  172.7650  137.0770 C   0  0  0  0  0  3  0  0  0  0  0  0
  183.4150  173.0580  134.6480 Cl  0  0  0  0  0  0  0  0  0  0  0  0
  1 11  1  0  0  0  0
  1 17  1  0  0  0  0
  1 14  1  1  0  0  0
  2 18  1  0  0  0  0
  2  7  1  1  0  0  0
  3 10  1  0  0  0  0
  4 16  1  0  0  0  0
  4 20  1  0  0  0  0
  4 11  1  0  0  0  0
  6 17  1  0  0  0  0
  8 18  1  0  0  0  0
 10  9  2  0  0  0  0
 10 22  1  0  0  0  0
 11  2  1  0  0  0  0
 12  3  1  0  0  0  0
 13  5  1  0  0  0  0
 13 19  1  0  0  0  0
 13 20  1  0  0  0  0
 15 22  1  0  0  0  0
 18 15  1  0  0  0  0
 19 23  1  0  0  0  0
 19 12  1  0  0  0  0
 20  8  1  0  0  0  0
 21 16  1  0  0  0  0
 21 17  1  0  0  0  0
 23 25  1  0  0  0  0
 24 23  1  0  0  0  0
 26 27  1  0  0  0  0
 27 30  1  0  0  0  0
 27 16  1  0  0  0  0
 28 29  1  0  0  0  0
 29 31  2  0  0  0  0
 30 33  2  0  0  0  0
 32 28  2  0  0  0  0
 32 30  1  0  0  0  0
 33 31  1  0  0  0  0
 34 28  1  0  0  0  0
M  END
>  <MODEL>
8

>  <REMARK>
 VINA RESULT:      -5.3      3.533      7.364
  Name = 
  3 active torsions:
  status: ('A' for Active; 'I' for Inactive)
    1  A    between atoms: C_12  and  C_28
    2  A    between atoms: C_13  and  C_29
    3  A    between atoms: C_21  and  C_28
                            x       y       z     vdW  Elec       q    Type
                         _______ _______ _______ _____ _____    ______ ____

>  <TORSDO>
F 3

$$$$
=
 OpenBabel10262423483D

 34 37  0  0  1  0  0  0  0  0999 V2000
  183.8630  179.2770  139.3700 C   0  0  1  0  0  3  0  0  0  0  0  0
  184.6760  177.1850  138.0320 C   0  0  2  0  0  3  0  0  0  0  0  0
  188.0240  176.9470  135.1470 N   0  0  0  0  0  2  0  0  0  0  0  0
  186.2870  178.6150  139.3810 C   0  0  1  0  0  3  0  0  0  0  0  0
  187.2680  179.2800  136.5960 O   0  0  0  0  0  1  0  0  0  0  0  0
  182.5010  179.1730  141.4880 C   0  0  0  0  0  1  0  0  0  0  0  0
  183.5320  177.2110  137.0290 C   0  0  0  0  0  1  0  0  0  0  0  0
  187.0360  176.5900  138.2030 O   0  0  0  0  0  0  0  0  0  0  0  0
  188.7750  174.8160  135.7580 O   0  0  0  0  0  0  0  0  0  0  0  0
  187.8150  175.5650  135.4340 C   0  0  0  0  0  0  0  0  0  0  0  0
  184.9860  178.6110  138.5500 C   0  0  2  0  0  3  0  0  0  0  0  0
  189.2600  177.6640  135.4210 C   0  0  0  0  0  2  0  0  0  0  0  0
  188.1380  178.7370  137.5450 C   0  0  2  0  0  3  0  0  0  0  0  0
  182.5980  179.5330  138.5600 C   0  0  0  0  0  1  0  0  0  0  0  0
  185.7180  175.2330  136.7720 C   0  0  0  0  0  2  0  0  0  0  0  0
  186.0740  177.9530  140.7680 C   0  0  2  0  0  3  0  0  0  0  0  0
  183.6110  178.5230  140.6780 C   0  0  2  0  0  3  0  0  0  0  0  0
  185.9290  176.6390  137.3330 C   0  0  1  0  0  3  0  0  0  0  0  0
  189.3850  178.0730  136.9000 C   0  0  1  0  0  3  0  0  0  0  0  0
  187.3970  177.8930  138.6030 C   0  0  1  0  0  3  0  0  0  0  0  0
  184.8830  178.5570  141.5110 C   0  0  0  0  0  2  0  0  0  0  0  0
  186.4170  175.0380  135.4250 C   0  0  0  0  0  2  0  0  0  0  0  0
  190.0970  177.0250  137.7640 C   0  0  2  0  0  3  0  0  0  0  0  0
  190.6180  177.6640  139.0380 C   0  0  0  0  0  1  0  0  0  0  0  0
  191.1680  176.4740  137.0830 F   0  0  0  0  0  0  0  0  0  0  0  0
  188.2330  179.1630  141.3790 C   0  0  0  0  0  1  0  0  0  0  0  0
  187.3010  178.0040  141.6950 C   0  0  1  0  0  3  0  0  0  0  0  0
  185.4330  178.2380  144.9880 C   0  0  0  0  0  0  0  0  0  0  0  0
  186.3680  177.7210  145.8890 C   0  0  0  0  0  3  0  0  0  0  0  0
  186.9870  177.8810  143.1600 C   0  0  0  0  0  0  0  0  0  0  0  0
  187.6140  177.2840  145.4300 C   0  0  0  0  0  3  0  0  0  0  0  0
  185.7420  178.3200  143.6280 C   0  0  0  0  0  3  0  0  0  0  0  0
  187.9230  177.3660  144.0710 C   0  0  0  0  0  3  0  0  0  0  0  0
  183.8740  178.7880  145.5630 Cl  0  0  0  0  0  0  0  0  0  0  0  0
  1 14  1  6  0  0  0
  1 17  1  0  0  0  0
  2  7  1  6  0  0  0
  2 11  1  0  0  0  0
  3 12  1  0  0  0  0
  3 10  1  0  0  0  0
  4 16  1  0  0  0  0
  5 13  1  0  0  0  0
  8 20  1  0  0  0  0
 10  9  2  0  0  0  0
 11  1  1  0  0  0  0
 11  4  1  0  0  0  0
 12 19  1  0  0  0  0
 13 20  1  0  0  0  0
 15 18  1  0  0  0  0
 16 21  1  0  0  0  0
 16 27  1  0  0  0  0
 17  6  1  0  0  0  0
 17 21  1  0  0  0  0
 18  2  1  0  0  0  0
 18  8  1  0  0  0  0
 19 13  1  0  0  0  0
 19 23  1  0  0  0  0
 20  4  1  0  0  0  0
 22 10  1  0  0  0  0
 22 15  1  0  0  0  0
 23 24  1  0  0  0  0
 25 23  1  0  0  0  0
 26 27  1  0  0  0  0
 27 30  1  0  0  0  0
 28 34  1  0  0  0  0
 28 29  1  0  0  0  0
 30 32  1  0  0  0  0
 30 33  2  0  0  0  0
 31 29  2  0  0  0  0
 32 28  2  0  0  0  0
 33 31  1  0  0  0  0
M  END
>  <MODEL>
9

>  <REMARK>
 VINA RESULT:      -5.2      1.948      3.419
  Name = 
  3 active torsions:
  status: ('A' for Active; 'I' for Inactive)
    1  A    between atoms: C_12  and  C_28
    2  A    between atoms: C_13  and  C_29
    3  A    between atoms: C_21  and  C_28
                            x       y       z     vdW  Elec       q    Type
                         _______ _______ _______ _____ _____    ______ ____

>  <TORSDO>
F 3

$$$$
