=
 OpenBabel10272414003D

 30 31  0  0  1  0  0  0  0  0999 V2000
  190.7990  177.3070  141.4270 C   0  0  2  0  0  0  0  0  0  0  0  0
  188.2560  176.9900  138.8130 C   0  0  0  0  0  2  0  0  0  0  0  0
  188.4980  178.2850  139.5120 C   0  0  0  0  0  0  0  0  0  0  0  0
  190.3090  176.1630  140.6620 N   0  0  0  0  0  2  0  0  0  0  0  0
  192.2820  177.6100  141.3610 C   0  0  0  0  0  1  0  0  0  0  0  0
  189.4890  176.4360  138.3660 O   0  0  0  0  0  0  0  0  0  0  0  0
  190.5010  176.0590  139.2510 C   0  0  0  0  0  0  0  0  0  0  0  0
  190.1570  177.5680  142.7870 C   0  0  1  0  0  3  0  0  0  0  0  0
  188.5630  178.3170  140.9400 N   0  0  0  0  0  0  0  0  0  0  0  0
  188.7200  179.3280  138.8440 O   0  0  0  0  0  0  0  0  0  0  0  0
  191.5880  175.6210  138.7980 O   0  0  0  0  0  0  0  0  0  0  0  0
  189.8690  178.5130  141.5870 C   0  0  2  0  0  3  0  0  0  0  0  0
  189.0090  176.6830  143.2400 C   0  0  0  0  0  0  0  0  0  0  0  0
  188.5920  175.7510  142.5690 O   0  0  0  0  0  0  0  0  0  0  0  0
  188.4170  176.9520  144.5940 C   0  0  1  0  0  3  0  0  0  0  0  0
  189.3370  177.7900  145.4850 C   0  0  0  0  0  2  0  0  0  0  0  0
  190.0190  176.9500  146.5520 C   0  0  0  0  0  2  0  0  0  0  0  0
  192.1240  175.8440  147.2130 C   0  0  0  0  0  1  0  0  0  0  0  0
  191.4400  176.6450  146.1240 C   0  0  0  0  0  2  0  0  0  0  0  0
  187.1530  177.5390  144.4740 O   0  0  0  0  0  0  0  0  0  0  0  0
  186.6790  177.6310  145.7830 C   0  0  0  0  0  2  0  0  0  0  0  0
  185.1300  179.2460  144.6860 O   0  0  0  0  0  0  0  0  0  0  0  0
  184.9520  178.8000  146.9320 O   0  0  0  0  0  1  0  0  0  0  0  0
  185.5340  178.5800  145.8390 C   0  0  0  0  0  0  0  0  0  0  0  0
  187.3290  178.6230  141.6610 C   0  0  0  0  0  2  0  0  0  0  0  0
  184.9370  178.9280  141.1750 C   0  0  0  0  0  3  0  0  0  0  0  0
  186.1810  178.8190  140.7230 C   0  0  0  0  0  3  0  0  0  0  0  0
  183.7990  179.1260  140.2710 C   0  0  0  0  0  0  0  0  0  0  0  0
  183.8670  179.9400  139.3100 O   0  0  0  0  0  0  0  0  0  0  0  0
  182.5450  178.3610  140.4980 C   0  0  0  0  0  1  0  0  0  0  0  0
  1  5  1  6  0  0  0
  1 12  1  0  0  0  0
  1  8  1  0  0  0  0
  2  3  1  0  0  0  0
  3  9  1  0  0  0  0
  4  1  1  0  0  0  0
  6  2  1  0  0  0  0
  6  7  1  0  0  0  0
  7  4  1  0  0  0  0
  8 13  1  6  0  0  0
  9 25  1  0  0  0  0
 10  3  2  0  0  0  0
 11  7  2  0  0  0  0
 12  9  1  6  0  0  0
 12  8  1  0  0  0  0
 13 15  1  0  0  0  0
 14 13  2  0  0  0  0
 15 16  1  1  0  0  0
 16 17  1  0  0  0  0
 19 17  1  0  0  0  0
 19 18  1  0  0  0  0
 20 15  1  0  0  0  0
 20 21  1  0  0  0  0
 21 24  1  0  0  0  0
 22 24  2  0  0  0  0
 24 23  1  0  0  0  0
 27 26  2  0  0  0  0
 27 25  1  0  0  0  0
 28 30  1  0  0  0  0
 28 26  1  0  0  0  0
 29 28  2  0  0  0  0
M  END
>  <MODEL>
1

>  <REMARK>
 VINA RESULT:      -6.9      0.000      0.000
  Name = 
  11 active torsions:
  status: ('A' for Active; 'I' for Inactive)
    1  A    between atoms: C_1  and  C_4
    2  A    between atoms: C_1  and  C_22
    3  A    between atoms: C_4  and  C_9
    4  A    between atoms: C_4  and  O_12
    5  A    between atoms: C_7  and  N_23
    6  A    between atoms: C_7  and  C_25
    7  A    between atoms: C_8  and  O_12
    8  A    between atoms: C_8  and  C_30
    9  A    between atoms: C_9  and  C_21
   10  A    between atoms: C_10  and  C_15
   11  A    between atoms: C_17  and  C_21
                            x       y       z     vdW  Elec       q    Type
                         _______ _______ _______ _____ _____    ______ ____

>  <TORSDO>
F 11

$$$$
=
 OpenBabel10272414003D

 30 31  0  0  1  0  0  0  0  0999 V2000
  191.2960  177.1720  140.7310 C   0  0  2  0  0  0  0  0  0  0  0  0
  188.2790  176.8320  138.6860 C   0  0  0  0  0  2  0  0  0  0  0  0
  188.7390  178.1610  139.1820 C   0  0  0  0  0  0  0  0  0  0  0  0
  190.5910  176.0070  140.2000 N   0  0  0  0  0  2  0  0  0  0  0  0
  192.7560  177.3370  140.3570 C   0  0  0  0  0  1  0  0  0  0  0  0
  189.3620  176.1320  138.0820 O   0  0  0  0  0  0  0  0  0  0  0  0
  190.4990  175.7550  138.7980 C   0  0  0  0  0  0  0  0  0  0  0  0
  190.9490  177.6160  142.1490 C   0  0  1  0  0  3  0  0  0  0  0  0
  189.0810  178.3220  140.5600 N   0  0  0  0  0  0  0  0  0  0  0  0
  188.8970  179.1120  138.3740 O   0  0  0  0  0  0  0  0  0  0  0  0
  191.4450  175.1820  138.2010 O   0  0  0  0  0  0  0  0  0  0  0  0
  190.4980  178.4640  140.9280 C   0  0  2  0  0  3  0  0  0  0  0  0
  189.8550  176.8810  142.9030 C   0  0  0  0  0  0  0  0  0  0  0  0
  189.5450  175.7250  142.6520 O   0  0  0  0  0  0  0  0  0  0  0  0
  189.1780  177.6070  144.0290 C   0  0  1  0  0  3  0  0  0  0  0  0
  188.0730  176.7780  144.6870 C   0  0  0  0  0  2  0  0  0  0  0  0
  186.6970  177.3880  144.4760 C   0  0  0  0  0  2  0  0  0  0  0  0
  184.9960  178.9080  145.4180 C   0  0  0  0  0  1  0  0  0  0  0  0
  186.3490  178.2700  145.6580 C   0  0  0  0  0  2  0  0  0  0  0  0
  190.1150  178.0450  144.9710 O   0  0  0  0  0  0  0  0  0  0  0  0
  190.0090  177.1370  146.0260 C   0  0  0  0  0  2  0  0  0  0  0  0
  191.8760  176.8780  147.6550 O   0  0  0  0  0  1  0  0  0  0  0  0
  192.0410  175.9940  145.5420 O   0  0  0  0  0  0  0  0  0  0  0  0
  191.3590  176.6270  146.3890 C   0  0  0  0  0  0  0  0  0  0  0  0
  188.0340  178.8010  141.4610 C   0  0  0  0  0  2  0  0  0  0  0  0
  185.5960  179.1250  141.4670 C   0  0  0  0  0  3  0  0  0  0  0  0
  186.6870  178.7360  140.8160 C   0  0  0  0  0  3  0  0  0  0  0  0
  184.2660  179.0740  140.8500 C   0  0  0  0  0  0  0  0  0  0  0  0
  184.0330  179.6650  139.7610 O   0  0  0  0  0  0  0  0  0  0  0  0
  183.1770  178.3200  141.5240 C   0  0  0  0  0  1  0  0  0  0  0  0
  1  5  1  6  0  0  0
  1 12  1  0  0  0  0
  1  8  1  0  0  0  0
  2  3  1  0  0  0  0
  3  9  1  0  0  0  0
  4  1  1  0  0  0  0
  6  2  1  0  0  0  0
  6  7  1  0  0  0  0
  7  4  1  0  0  0  0
  8 13  1  6  0  0  0
  9 25  1  0  0  0  0
 10  3  2  0  0  0  0
 11  7  2  0  0  0  0
 12  9  1  6  0  0  0
 12  8  1  0  0  0  0
 13 15  1  0  0  0  0
 14 13  2  0  0  0  0
 15 16  1  1  0  0  0
 15 20  1  0  0  0  0
 17 16  1  0  0  0  0
 17 19  1  0  0  0  0
 18 19  1  0  0  0  0
 20 21  1  0  0  0  0
 21 24  1  0  0  0  0
 23 24  2  0  0  0  0
 24 22  1  0  0  0  0
 27 25  1  0  0  0  0
 27 26  2  0  0  0  0
 28 26  1  0  0  0  0
 28 30  1  0  0  0  0
 29 28  2  0  0  0  0
M  END
>  <MODEL>
2

>  <REMARK>
 VINA RESULT:      -6.8      1.652      3.177
  Name = 
  11 active torsions:
  status: ('A' for Active; 'I' for Inactive)
    1  A    between atoms: C_1  and  C_4
    2  A    between atoms: C_1  and  C_22
    3  A    between atoms: C_4  and  C_9
    4  A    between atoms: C_4  and  O_12
    5  A    between atoms: C_7  and  N_23
    6  A    between atoms: C_7  and  C_25
    7  A    between atoms: C_8  and  O_12
    8  A    between atoms: C_8  and  C_30
    9  A    between atoms: C_9  and  C_21
   10  A    between atoms: C_10  and  C_15
   11  A    between atoms: C_17  and  C_21
                            x       y       z     vdW  Elec       q    Type
                         _______ _______ _______ _____ _____    ______ ____

>  <TORSDO>
F 11

$$$$
=
 OpenBabel10272414003D

 30 31  0  0  1  0  0  0  0  0999 V2000
  190.7600  177.3100  141.4980 C   0  0  2  0  0  0  0  0  0  0  0  0
  188.2940  177.0170  138.8090 C   0  0  0  0  0  2  0  0  0  0  0  0
  188.5140  178.3050  139.5280 C   0  0  0  0  0  0  0  0  0  0  0  0
  190.2950  176.1740  140.7080 N   0  0  0  0  0  2  0  0  0  0  0  0
  192.2450  177.6170  141.4770 C   0  0  0  0  0  1  0  0  0  0  0  0
  189.5400  176.4680  138.3920 O   0  0  0  0  0  0  0  0  0  0  0  0
  190.5270  176.0840  139.3020 C   0  0  0  0  0  0  0  0  0  0  0  0
  190.0790  177.5580  142.8410 C   0  0  1  0  0  3  0  0  0  0  0  0
  188.5380  178.3230  140.9560 N   0  0  0  0  0  0  0  0  0  0  0  0
  188.7540  179.3540  138.8760 O   0  0  0  0  0  0  0  0  0  0  0  0
  191.6280  175.6520  138.8760 O   0  0  0  0  0  0  0  0  0  0  0  0
  189.8250  178.5140  141.6430 C   0  0  2  0  0  3  0  0  0  0  0  0
  188.9210  176.6670  143.2530 C   0  0  0  0  0  0  0  0  0  0  0  0
  188.5830  175.6860  142.6070 O   0  0  0  0  0  0  0  0  0  0  0  0
  188.2130  176.9960  144.5360 C   0  0  1  0  0  3  0  0  0  0  0  0
  189.0820  177.8080  145.4980 C   0  0  0  0  0  2  0  0  0  0  0  0
  189.5020  176.9960  146.7120 C   0  0  0  0  0  2  0  0  0  0  0  0
  188.0780  177.7690  148.5750 C   0  0  0  0  0  1  0  0  0  0  0  0
  189.4530  177.8730  147.9480 C   0  0  0  0  0  2  0  0  0  0  0  0
  186.9980  177.6410  144.2800 O   0  0  0  0  0  0  0  0  0  0  0  0
  186.2550  177.4770  145.4500 C   0  0  0  0  0  2  0  0  0  0  0  0
  184.5080  178.7040  146.7360 O   0  0  0  0  0  1  0  0  0  0  0  0
  185.0660  179.3590  144.6070 O   0  0  0  0  0  0  0  0  0  0  0  0
  185.2550  178.5720  145.5700 C   0  0  0  0  0  0  0  0  0  0  0  0
  187.2830  178.6210  141.6450 C   0  0  0  0  0  2  0  0  0  0  0  0
  184.9060  178.9080  141.0830 C   0  0  0  0  0  3  0  0  0  0  0  0
  186.1690  178.8530  140.6750 C   0  0  0  0  0  3  0  0  0  0  0  0
  183.8000  179.1410  140.1480 C   0  0  0  0  0  0  0  0  0  0  0  0
  183.8870  180.0140  139.2440 O   0  0  0  0  0  0  0  0  0  0  0  0
  182.5560  178.3370  140.2760 C   0  0  0  0  0  1  0  0  0  0  0  0
  1  5  1  6  0  0  0
  1 12  1  0  0  0  0
  1  8  1  0  0  0  0
  2  3  1  0  0  0  0
  3  9  1  0  0  0  0
  4  1  1  0  0  0  0
  6  2  1  0  0  0  0
  6  7  1  0  0  0  0
  7  4  1  0  0  0  0
  8 13  1  6  0  0  0
  9 25  1  0  0  0  0
 10  3  2  0  0  0  0
 11  7  2  0  0  0  0
 12  9  1  6  0  0  0
 12  8  1  0  0  0  0
 13 15  1  0  0  0  0
 14 13  2  0  0  0  0
 15 16  1  1  0  0  0
 16 17  1  0  0  0  0
 17 19  1  0  0  0  0
 19 18  1  0  0  0  0
 20 15  1  0  0  0  0
 20 21  1  0  0  0  0
 21 24  1  0  0  0  0
 23 24  2  0  0  0  0
 24 22  1  0  0  0  0
 27 26  2  0  0  0  0
 27 25  1  0  0  0  0
 28 30  1  0  0  0  0
 28 26  1  0  0  0  0
 29 28  2  0  0  0  0
M  END
>  <MODEL>
3

>  <REMARK>
 VINA RESULT:      -6.7      0.685      1.189
  Name = 
  11 active torsions:
  status: ('A' for Active; 'I' for Inactive)
    1  A    between atoms: C_1  and  C_4
    2  A    between atoms: C_1  and  C_22
    3  A    between atoms: C_4  and  C_9
    4  A    between atoms: C_4  and  O_12
    5  A    between atoms: C_7  and  N_23
    6  A    between atoms: C_7  and  C_25
    7  A    between atoms: C_8  and  O_12
    8  A    between atoms: C_8  and  C_30
    9  A    between atoms: C_9  and  C_21
   10  A    between atoms: C_10  and  C_15
   11  A    between atoms: C_17  and  C_21
                            x       y       z     vdW  Elec       q    Type
                         _______ _______ _______ _____ _____    ______ ____

>  <TORSDO>
F 11

$$$$
=
 OpenBabel10272414003D

 30 31  0  0  1  0  0  0  0  0999 V2000
  189.9490  176.3120  143.2870 C   0  0  2  0  0  0  0  0  0  0  0  0
  188.4650  178.4350  145.8740 C   0  0  0  0  0  2  0  0  0  0  0  0
  187.6840  177.3490  145.2130 C   0  0  0  0  0  0  0  0  0  0  0  0
  190.4510  177.4740  144.0150 N   0  0  0  0  0  2  0  0  0  0  0  0
  190.7550  175.0310  143.3720 C   0  0  0  0  0  1  0  0  0  0  0  0
  189.7250  177.9370  146.3120 O   0  0  0  0  0  0  0  0  0  0  0  0
  190.6810  177.4420  145.4240 C   0  0  0  0  0  0  0  0  0  0  0  0
  189.2950  176.5620  141.9310 C   0  0  1  0  0  3  0  0  0  0  0  0
  187.6830  177.2450  143.7880 N   0  0  0  0  0  0  0  0  0  0  0  0
  187.0950  176.4860  145.9130 O   0  0  0  0  0  0  0  0  0  0  0  0
  191.7570  176.9690  145.8720 O   0  0  0  0  0  0  0  0  0  0  0  0
  188.4320  176.1480  143.1550 C   0  0  2  0  0  3  0  0  0  0  0  0
  189.1360  177.9910  141.4440 C   0  0  0  0  0  0  0  0  0  0  0  0
  189.3920  178.9580  142.1470 O   0  0  0  0  0  0  0  0  0  0  0  0
  188.6950  178.1970  140.0230 C   0  0  1  0  0  3  0  0  0  0  0  0
  189.0530  177.0160  139.1180 C   0  0  0  0  0  2  0  0  0  0  0  0
  190.3590  177.2400  138.3750 C   0  0  0  0  0  2  0  0  0  0  0  0
  192.6800  176.4250  138.1720 C   0  0  0  0  0  1  0  0  0  0  0  0
  191.2730  176.0500  138.5890 C   0  0  0  0  0  2  0  0  0  0  0  0
  187.3280  178.4870  139.9650 O   0  0  0  0  0  0  0  0  0  0  0  0
  186.9390  178.1060  138.6800 C   0  0  0  0  0  2  0  0  0  0  0  0
  184.7340  177.5780  137.6460 O   0  0  0  0  0  0  0  0  0  0  0  0
  184.9560  179.3650  139.0700 O   0  0  0  0  0  1  0  0  0  0  0  0
  185.4890  178.3850  138.4900 C   0  0  0  0  0  0  0  0  0  0  0  0
  186.5980  177.9080  143.0670 C   0  0  0  0  0  2  0  0  0  0  0  0
  184.2570  178.5150  143.5160 C   0  0  0  0  0  3  0  0  0  0  0  0
  185.4760  178.2750  143.9850 C   0  0  0  0  0  3  0  0  0  0  0  0
  183.1420  178.8700  144.4010 C   0  0  0  0  0  0  0  0  0  0  0  0
  183.3390  179.1490  145.6140 O   0  0  0  0  0  0  0  0  0  0  0  0
  181.7590  178.8950  143.8570 C   0  0  0  0  0  1  0  0  0  0  0  0
  1  5  1  1  0  0  0
  1  4  1  0  0  0  0
  2  6  1  0  0  0  0
  3  2  1  0  0  0  0
  3 10  2  0  0  0  0
  4  7  1  0  0  0  0
  7 11  2  0  0  0  0
  7  6  1  0  0  0  0
  8 13  1  1  0  0  0
  8 12  1  0  0  0  0
  8  1  1  0  0  0  0
  9  3  1  0  0  0  0
 12  1  1  0  0  0  0
 12  9  1  1  0  0  0
 13 14  2  0  0  0  0
 15 16  1  6  0  0  0
 15 13  1  0  0  0  0
 17 19  1  0  0  0  0
 17 16  1  0  0  0  0
 18 19  1  0  0  0  0
 20 15  1  0  0  0  0
 21 20  1  0  0  0  0
 22 24  2  0  0  0  0
 24 21  1  0  0  0  0
 24 23  1  0  0  0  0
 25  9  1  0  0  0  0
 25 27  1  0  0  0  0
 26 27  2  0  0  0  0
 26 28  1  0  0  0  0
 28 29  2  0  0  0  0
 30 28  1  0  0  0  0
M  END
>  <MODEL>
4

>  <REMARK>
 VINA RESULT:      -6.2      2.312      5.704
  Name = 
  11 active torsions:
  status: ('A' for Active; 'I' for Inactive)
    1  A    between atoms: C_1  and  C_4
    2  A    between atoms: C_1  and  C_22
    3  A    between atoms: C_4  and  C_9
    4  A    between atoms: C_4  and  O_12
    5  A    between atoms: C_7  and  N_23
    6  A    between atoms: C_7  and  C_25
    7  A    between atoms: C_8  and  O_12
    8  A    between atoms: C_8  and  C_30
    9  A    between atoms: C_9  and  C_21
   10  A    between atoms: C_10  and  C_15
   11  A    between atoms: C_17  and  C_21
                            x       y       z     vdW  Elec       q    Type
                         _______ _______ _______ _____ _____    ______ ____

>  <TORSDO>
F 11

$$$$
=
 OpenBabel10272414003D

 30 31  0  0  1  0  0  0  0  0999 V2000
  189.1000  177.6460  146.3270 C   0  0  2  0  0  0  0  0  0  0  0  0
  191.7540  176.6490  144.0110 C   0  0  0  0  0  2  0  0  0  0  0  0
  191.2880  178.0640  144.1010 C   0  0  0  0  0  0  0  0  0  0  0  0
  189.6710  176.3470  145.9840 N   0  0  0  0  0  2  0  0  0  0  0  0
  189.1360  178.0650  147.7830 C   0  0  0  0  0  1  0  0  0  0  0  0
  192.0210  176.1370  145.3120 O   0  0  0  0  0  0  0  0  0  0  0  0
  191.0270  176.0140  146.2840 C   0  0  0  0  0  0  0  0  0  0  0  0
  187.8490  178.0850  145.5700 C   0  0  1  0  0  3  0  0  0  0  0  0
  189.8890  178.3520  144.0600 N   0  0  0  0  0  0  0  0  0  0  0  0
  192.1200  178.9870  144.2890 O   0  0  0  0  0  0  0  0  0  0  0  0
  191.3310  175.6020  147.4320 O   0  0  0  0  0  0  0  0  0  0  0  0
  189.2140  178.7740  145.2970 C   0  0  2  0  0  3  0  0  0  0  0  0
  187.3080  177.1940  144.4650 C   0  0  0  0  0  0  0  0  0  0  0  0
  187.8440  176.1430  144.1460 O   0  0  0  0  0  0  0  0  0  0  0  0
  186.0360  177.6190  143.7900 C   0  0  1  0  0  3  0  0  0  0  0  0
  185.4810  178.9310  144.3500 C   0  0  0  0  0  2  0  0  0  0  0  0
  184.1190  178.7450  144.9990 C   0  0  0  0  0  2  0  0  0  0  0  0
  181.8780  178.6390  143.9710 C   0  0  0  0  0  1  0  0  0  0  0  0
  183.0780  179.5270  144.2230 C   0  0  0  0  0  2  0  0  0  0  0  0
  186.2100  177.6900  142.4050 O   0  0  0  0  0  0  0  0  0  0  0  0
  185.7950  178.9770  142.0600 C   0  0  0  0  0  2  0  0  0  0  0  0
  183.7950  177.9310  141.0030 O   0  0  0  0  0  1  0  0  0  0  0  0
  184.8460  179.7110  140.0030 O   0  0  0  0  0  0  0  0  0  0  0  0
  184.7860  178.9070  140.9680 C   0  0  0  0  0  0  0  0  0  0  0  0
  189.3060  178.6680  142.7570 C   0  0  0  0  0  2  0  0  0  0  0  0
  189.2290  177.6970  140.4990 C   0  0  0  0  0  3  0  0  0  0  0  0
  189.8010  177.7380  141.6960 C   0  0  0  0  0  3  0  0  0  0  0  0
  189.7030  176.7970  139.4430 C   0  0  0  0  0  0  0  0  0  0  0  0
  190.7170  176.0680  139.6180 O   0  0  0  0  0  0  0  0  0  0  0  0
  188.9800  176.7490  138.1450 C   0  0  0  0  0  1  0  0  0  0  0  0
  1  5  1  1  0  0  0
  2  3  1  0  0  0  0
  2  6  1  0  0  0  0
  3 10  2  0  0  0  0
  4  7  1  0  0  0  0
  4  1  1  0  0  0  0
  6  7  1  0  0  0  0
  7 11  2  0  0  0  0
  8 13  1  6  0  0  0
  8  1  1  0  0  0  0
  9  3  1  0  0  0  0
 12  9  1  6  0  0  0
 12  8  1  0  0  0  0
 12  1  1  0  0  0  0
 14 13  2  0  0  0  0
 15 16  1  1  0  0  0
 15 13  1  0  0  0  0
 16 17  1  0  0  0  0
 18 19  1  0  0  0  0
 19 17  1  0  0  0  0
 20 15  1  0  0  0  0
 21 20  1  0  0  0  0
 23 24  2  0  0  0  0
 24 22  1  0  0  0  0
 24 21  1  0  0  0  0
 25  9  1  0  0  0  0
 26 27  2  0  0  0  0
 27 25  1  0  0  0  0
 28 29  2  0  0  0  0
 28 26  1  0  0  0  0
 30 28  1  0  0  0  0
M  END
>  <MODEL>
5

>  <REMARK>
 VINA RESULT:      -6.2      2.514      5.825
  Name = 
  11 active torsions:
  status: ('A' for Active; 'I' for Inactive)
    1  A    between atoms: C_1  and  C_4
    2  A    between atoms: C_1  and  C_22
    3  A    between atoms: C_4  and  C_9
    4  A    between atoms: C_4  and  O_12
    5  A    between atoms: C_7  and  N_23
    6  A    between atoms: C_7  and  C_25
    7  A    between atoms: C_8  and  O_12
    8  A    between atoms: C_8  and  C_30
    9  A    between atoms: C_9  and  C_21
   10  A    between atoms: C_10  and  C_15
   11  A    between atoms: C_17  and  C_21
                            x       y       z     vdW  Elec       q    Type
                         _______ _______ _______ _____ _____    ______ ____

>  <TORSDO>
F 11

$$$$
=
 OpenBabel10272414003D

 30 31  0  0  1  0  0  0  0  0999 V2000
  190.5980  178.5290  143.3850 C   0  0  2  0  0  0  0  0  0  0  0  0
  189.4000  176.5410  140.5540 C   0  0  0  0  0  2  0  0  0  0  0  0
  188.6310  177.7130  141.0650 C   0  0  0  0  0  0  0  0  0  0  0  0
  191.0980  177.3100  142.7550 N   0  0  0  0  0  2  0  0  0  0  0  0
  191.5370  179.7170  143.4590 C   0  0  0  0  0  1  0  0  0  0  0  0
  190.7660  176.8970  140.3600 O   0  0  0  0  0  0  0  0  0  0  0  0
  191.5880  177.2990  141.4140 C   0  0  0  0  0  0  0  0  0  0  0  0
  189.6800  178.3690  144.5940 C   0  0  1  0  0  3  0  0  0  0  0  0
  188.3770  177.8360  142.4650 N   0  0  0  0  0  0  0  0  0  0  0  0
  188.2770  178.6240  140.2730 O   0  0  0  0  0  0  0  0  0  0  0  0
  192.7720  177.6490  141.1770 O   0  0  0  0  0  0  0  0  0  0  0  0
  189.1080  178.8550  143.2340 C   0  0  2  0  0  3  0  0  0  0  0  0
  189.2810  176.9710  145.0340 C   0  0  0  0  0  0  0  0  0  0  0  0
  189.5120  175.9780  144.3590 O   0  0  0  0  0  0  0  0  0  0  0  0
  188.6260  176.8250  146.3770 C   0  0  1  0  0  3  0  0  0  0  0  0
  189.6300  176.5370  147.4950 C   0  0  0  0  0  2  0  0  0  0  0  0
  191.0470  176.9280  147.1070 C   0  0  0  0  0  2  0  0  0  0  0  0
  192.8550  175.7880  148.3410 C   0  0  0  0  0  1  0  0  0  0  0  0
  191.9360  175.7010  147.1400 C   0  0  0  0  0  2  0  0  0  0  0  0
  187.8450  177.9470  146.6720 O   0  0  0  0  0  0  0  0  0  0  0  0
  186.5280  177.4890  146.6080 C   0  0  0  0  0  2  0  0  0  0  0  0
  184.2210  178.4140  146.7870 O   0  0  0  0  0  0  0  0  0  0  0  0
  186.0420  179.7110  147.3100 O   0  0  0  0  0  1  0  0  0  0  0  0
  185.5910  178.5990  146.9320 C   0  0  0  0  0  0  0  0  0  0  0  0
  187.1120  177.3010  142.9680 C   0  0  0  0  0  2  0  0  0  0  0  0
  184.8240  178.1420  143.2970 C   0  0  0  0  0  3  0  0  0  0  0  0
  186.1270  178.3930  143.2410 C   0  0  0  0  0  3  0  0  0  0  0  0
  183.8430  179.1980  143.5690 C   0  0  0  0  0  0  0  0  0  0  0  0
  184.1920  180.2890  144.0970 O   0  0  0  0  0  0  0  0  0  0  0  0
  182.4150  178.9730  143.2230 C   0  0  0  0  0  1  0  0  0  0  0  0
  1  5  1  1  0  0  0
  1  8  1  0  0  0  0
  2  3  1  0  0  0  0
  3  9  1  0  0  0  0
  4  1  1  0  0  0  0
  6  2  1  0  0  0  0
  6  7  1  0  0  0  0
  7  4  1  0  0  0  0
  8 13  1  6  0  0  0
  9 25  1  0  0  0  0
 10  3  2  0  0  0  0
 11  7  2  0  0  0  0
 12  9  1  6  0  0  0
 12  1  1  0  0  0  0
 12  8  1  0  0  0  0
 13 15  1  0  0  0  0
 14 13  2  0  0  0  0
 15 20  1  0  0  0  0
 15 16  1  1  0  0  0
 17 19  1  0  0  0  0
 17 16  1  0  0  0  0
 19 18  1  0  0  0  0
 21 20  1  0  0  0  0
 21 24  1  0  0  0  0
 22 24  2  0  0  0  0
 24 23  1  0  0  0  0
 25 27  1  0  0  0  0
 26 28  1  0  0  0  0
 27 26  2  0  0  0  0
 28 29  2  0  0  0  0
 30 28  1  0  0  0  0
M  END
>  <MODEL>
6

>  <REMARK>
 VINA RESULT:      -6.1      1.959      2.309
  Name = 
  11 active torsions:
  status: ('A' for Active; 'I' for Inactive)
    1  A    between atoms: C_1  and  C_4
    2  A    between atoms: C_1  and  C_22
    3  A    between atoms: C_4  and  C_9
    4  A    between atoms: C_4  and  O_12
    5  A    between atoms: C_7  and  N_23
    6  A    between atoms: C_7  and  C_25
    7  A    between atoms: C_8  and  O_12
    8  A    between atoms: C_8  and  C_30
    9  A    between atoms: C_9  and  C_21
   10  A    between atoms: C_10  and  C_15
   11  A    between atoms: C_17  and  C_21
                            x       y       z     vdW  Elec       q    Type
                         _______ _______ _______ _____ _____    ______ ____

>  <TORSDO>
F 11

$$$$
=
 OpenBabel10272414003D

 30 31  0  0  1  0  0  0  0  0999 V2000
  191.4700  175.9560  145.2740 C   0  0  2  0  0  0  0  0  0  0  0  0
  189.7560  178.0170  147.7670 C   0  0  0  0  0  2  0  0  0  0  0  0
  189.0080  177.0670  146.8940 C   0  0  0  0  0  0  0  0  0  0  0  0
  191.9390  177.0050  146.1760 N   0  0  0  0  0  2  0  0  0  0  0  0
  192.1360  174.5980  145.3720 C   0  0  0  0  0  1  0  0  0  0  0  0
  190.8750  177.3640  148.3570 O   0  0  0  0  0  0  0  0  0  0  0  0
  191.9230  176.8440  147.5950 C   0  0  0  0  0  0  0  0  0  0  0  0
  191.0800  176.3710  143.8580 C   0  0  1  0  0  3  0  0  0  0  0  0
  189.2400  177.0710  145.4830 N   0  0  0  0  0  0  0  0  0  0  0  0
  188.2360  176.2180  147.4070 O   0  0  0  0  0  0  0  0  0  0  0  0
  192.8610  176.2330  148.1670 O   0  0  0  0  0  0  0  0  0  0  0  0
  189.9890  175.9560  144.8840 C   0  0  2  0  0  3  0  0  0  0  0  0
  191.1290  177.8420  143.4840 C   0  0  0  0  0  0  0  0  0  0  0  0
  191.6020  178.6940  144.2220 O   0  0  0  0  0  0  0  0  0  0  0  0
  190.6190  178.2310  142.1260 C   0  0  1  0  0  3  0  0  0  0  0  0
  190.9350  177.1850  141.0540 C   0  0  0  0  0  2  0  0  0  0  0  0
  192.2230  177.4990  140.3120 C   0  0  0  0  0  2  0  0  0  0  0  0
  190.9100  176.7170  138.3730 C   0  0  0  0  0  1  0  0  0  0  0  0
  192.2750  176.6940  139.0290 C   0  0  0  0  0  2  0  0  0  0  0  0
  189.2500  178.5130  142.1730 O   0  0  0  0  0  0  0  0  0  0  0  0
  188.7140  177.8600  141.0630 C   0  0  0  0  0  2  0  0  0  0  0  0
  186.5660  178.9480  141.7060 O   0  0  0  0  0  1  0  0  0  0  0  0
  187.0410  178.5180  139.5010 O   0  0  0  0  0  0  0  0  0  0  0  0
  187.4030  178.4660  140.7050 C   0  0  0  0  0  0  0  0  0  0  0  0
  188.3550  177.8920  144.6590 C   0  0  0  0  0  2  0  0  0  0  0  0
  186.1930  178.7860  145.4170 C   0  0  0  0  0  3  0  0  0  0  0  0
  186.9250  177.7350  145.0690 C   0  0  0  0  0  3  0  0  0  0  0  0
  184.7880  178.6540  145.8160 C   0  0  0  0  0  0  0  0  0  0  0  0
  184.4740  178.3560  147.0000 O   0  0  0  0  0  0  0  0  0  0  0  0
  183.7190  178.8710  144.8060 C   0  0  0  0  0  1  0  0  0  0  0  0
  1  5  1  1  0  0  0
  1  4  1  0  0  0  0
  2  6  1  0  0  0  0
  3 10  2  0  0  0  0
  3  2  1  0  0  0  0
  4  7  1  0  0  0  0
  7 11  2  0  0  0  0
  7  6  1  0  0  0  0
  8 13  1  1  0  0  0
  8 12  1  0  0  0  0
  8  1  1  0  0  0  0
  9  3  1  0  0  0  0
 12  1  1  0  0  0  0
 12  9  1  1  0  0  0
 13 14  2  0  0  0  0
 15 16  1  6  0  0  0
 15 20  1  0  0  0  0
 15 13  1  0  0  0  0
 17 16  1  0  0  0  0
 18 19  1  0  0  0  0
 19 17  1  0  0  0  0
 21 20  1  0  0  0  0
 23 24  2  0  0  0  0
 24 21  1  0  0  0  0
 24 22  1  0  0  0  0
 25 27  1  0  0  0  0
 25  9  1  0  0  0  0
 26 28  1  0  0  0  0
 27 26  2  0  0  0  0
 28 29  2  0  0  0  0
 30 28  1  0  0  0  0
M  END
>  <MODEL>
7

>  <REMARK>
 VINA RESULT:      -5.9      2.737      6.183
  Name = 
  11 active torsions:
  status: ('A' for Active; 'I' for Inactive)
    1  A    between atoms: C_1  and  C_4
    2  A    between atoms: C_1  and  C_22
    3  A    between atoms: C_4  and  C_9
    4  A    between atoms: C_4  and  O_12
    5  A    between atoms: C_7  and  N_23
    6  A    between atoms: C_7  and  C_25
    7  A    between atoms: C_8  and  O_12
    8  A    between atoms: C_8  and  C_30
    9  A    between atoms: C_9  and  C_21
   10  A    between atoms: C_10  and  C_15
   11  A    between atoms: C_17  and  C_21
                            x       y       z     vdW  Elec       q    Type
                         _______ _______ _______ _____ _____    ______ ____

>  <TORSDO>
F 11

$$$$
=
 OpenBabel10272414003D

 30 31  0  0  1  0  0  0  0  0999 V2000
  189.7520  177.0930  140.3210 C   0  0  2  0  0  0  0  0  0  0  0  0
  191.4020  177.2210  143.5860 C   0  0  0  0  0  2  0  0  0  0  0  0
  190.4660  176.1160  143.2280 C   0  0  0  0  0  0  0  0  0  0  0  0
  190.6240  178.0840  140.9460 N   0  0  0  0  0  2  0  0  0  0  0  0
  190.1900  176.5130  138.9910 C   0  0  0  0  0  1  0  0  0  0  0  0
  192.3570  177.4110  142.5470 O   0  0  0  0  0  0  0  0  0  0  0  0
  191.9880  177.8000  141.2570 C   0  0  0  0  0  0  0  0  0  0  0  0
  188.2460  177.2960  140.4600 C   0  0  1  0  0  3  0  0  0  0  0  0
  189.1900  176.4250  142.6650 N   0  0  0  0  0  0  0  0  0  0  0  0
  190.8320  174.9190  143.3520 O   0  0  0  0  0  0  0  0  0  0  0  0
  192.8690  177.9050  140.3670 O   0  0  0  0  0  0  0  0  0  0  0  0
  188.9590  176.1560  141.2380 C   0  0  2  0  0  3  0  0  0  0  0  0
  187.7350  178.4620  141.2880 C   0  0  0  0  0  0  0  0  0  0  0  0
  188.4830  179.2770  141.8090 O   0  0  0  0  0  0  0  0  0  0  0  0
  186.2480  178.6270  141.4140 C   0  0  1  0  0  3  0  0  0  0  0  0
  185.8150  179.0160  142.8290 C   0  0  0  0  0  2  0  0  0  0  0  0
  184.4720  178.4120  143.2030 C   0  0  0  0  0  2  0  0  0  0  0  0
  184.6830  178.7930  145.6330 C   0  0  0  0  0  1  0  0  0  0  0  0
  183.8950  179.1560  144.3910 C   0  0  0  0  0  2  0  0  0  0  0  0
  185.7680  179.5370  140.4670 O   0  0  0  0  0  0  0  0  0  0  0  0
  184.7460  178.8540  139.8050 C   0  0  0  0  0  2  0  0  0  0  0  0
  184.4750  177.4730  137.7480 O   0  0  0  0  0  0  0  0  0  0  0  0
  186.3360  178.7870  138.0340 O   0  0  0  0  0  1  0  0  0  0  0  0
  185.2310  178.3830  138.4790 C   0  0  0  0  0  0  0  0  0  0  0  0
  188.0590  176.5390  143.5860 C   0  0  0  0  0  2  0  0  0  0  0  0
  187.7970  177.0490  145.9780 C   0  0  0  0  0  3  0  0  0  0  0  0
  188.4450  177.2600  144.8380 C   0  0  0  0  0  3  0  0  0  0  0  0
  188.1640  177.7410  147.2170 C   0  0  0  0  0  0  0  0  0  0  0  0
  187.3140  178.4140  147.8620 O   0  0  0  0  0  0  0  0  0  0  0  0
  189.5610  177.6520  147.7170 C   0  0  0  0  0  1  0  0  0  0  0  0
  1  5  1  6  0  0  0
  1  8  1  0  0  0  0
  1  4  1  0  0  0  0
  1 12  1  0  0  0  0
  3 10  2  0  0  0  0
  3  2  1  0  0  0  0
  4  7  1  0  0  0  0
  6  2  1  0  0  0  0
  7  6  1  0  0  0  0
  8 12  1  0  0  0  0
  8 13  1  1  0  0  0
  9  3  1  0  0  0  0
  9 25  1  0  0  0  0
 11  7  2  0  0  0  0
 12  9  1  1  0  0  0
 13 15  1  0  0  0  0
 13 14  2  0  0  0  0
 15 16  1  1  0  0  0
 16 17  1  0  0  0  0
 17 19  1  0  0  0  0
 19 18  1  0  0  0  0
 20 15  1  0  0  0  0
 21 20  1  0  0  0  0
 22 24  2  0  0  0  0
 23 24  1  0  0  0  0
 24 21  1  0  0  0  0
 25 27  1  0  0  0  0
 26 28  1  0  0  0  0
 27 26  2  0  0  0  0
 28 30  1  0  0  0  0
 28 29  2  0  0  0  0
M  END
>  <MODEL>
8

>  <REMARK>
 VINA RESULT:      -5.9      2.094      5.768
  Name = 
  11 active torsions:
  status: ('A' for Active; 'I' for Inactive)
    1  A    between atoms: C_1  and  C_4
    2  A    between atoms: C_1  and  C_22
    3  A    between atoms: C_4  and  C_9
    4  A    between atoms: C_4  and  O_12
    5  A    between atoms: C_7  and  N_23
    6  A    between atoms: C_7  and  C_25
    7  A    between atoms: C_8  and  O_12
    8  A    between atoms: C_8  and  C_30
    9  A    between atoms: C_9  and  C_21
   10  A    between atoms: C_10  and  C_15
   11  A    between atoms: C_17  and  C_21
                            x       y       z     vdW  Elec       q    Type
                         _______ _______ _______ _____ _____    ______ ____

>  <TORSDO>
F 11

$$$$
=
 OpenBabel10272414003D

 30 31  0  0  1  0  0  0  0  0999 V2000
  189.8110  178.1070  144.8340 C   0  0  2  0  0  0  0  0  0  0  0  0
  191.3260  175.3460  142.9680 C   0  0  0  0  0  2  0  0  0  0  0  0
  191.0990  176.6790  142.3400 C   0  0  0  0  0  0  0  0  0  0  0  0
  190.0600  176.7080  145.1730 N   0  0  0  0  0  2  0  0  0  0  0  0
  190.4130  179.1650  145.7370 C   0  0  0  0  0  1  0  0  0  0  0  0
  191.9740  175.5000  144.2270 O   0  0  0  0  0  0  0  0  0  0  0  0
  191.3830  176.1840  145.2910 C   0  0  0  0  0  0  0  0  0  0  0  0
  188.4360  178.4580  144.2720 C   0  0  1  0  0  3  0  0  0  0  0  0
  189.8230  177.3110  142.4620 N   0  0  0  0  0  0  0  0  0  0  0  0
  192.0500  177.2760  141.7720 O   0  0  0  0  0  0  0  0  0  0  0  0
  192.0220  176.3320  146.3630 O   0  0  0  0  0  0  0  0  0  0  0  0
  189.6880  178.4740  143.3520 C   0  0  2  0  0  3  0  0  0  0  0  0
  187.4340  177.3430  144.0300 C   0  0  0  0  0  0  0  0  0  0  0  0
  187.7310  176.1610  144.1190 O   0  0  0  0  0  0  0  0  0  0  0  0
  186.0180  177.7370  143.7210 C   0  0  1  0  0  3  0  0  0  0  0  0
  185.4400  178.7160  144.7450 C   0  0  0  0  0  2  0  0  0  0  0  0
  185.2280  178.0650  146.1020 C   0  0  0  0  0  2  0  0  0  0  0  0
  187.1700  178.0400  147.6250 C   0  0  0  0  0  1  0  0  0  0  0  0
  185.9750  178.8480  147.1620 C   0  0  0  0  0  2  0  0  0  0  0  0
  185.9160  178.2420  142.4210 O   0  0  0  0  0  0  0  0  0  0  0  0
  184.5440  178.3580  142.1910 C   0  0  0  0  0  2  0  0  0  0  0  0
  183.0260  179.0500  140.3400 O   0  0  0  0  0  1  0  0  0  0  0  0
  185.2690  179.5360  140.2530 O   0  0  0  0  0  0  0  0  0  0  0  0
  184.3070  179.0230  140.8810 C   0  0  0  0  0  0  0  0  0  0  0  0
  188.8580  177.0910  141.3860 C   0  0  0  0  0  2  0  0  0  0  0  0
  188.6810  177.5910  138.9840 C   0  0  0  0  0  3  0  0  0  0  0  0
  189.2110  177.8820  140.1670 C   0  0  0  0  0  3  0  0  0  0  0  0
  189.0090  178.3580  137.7780 C   0  0  0  0  0  0  0  0  0  0  0  0
  188.9800  179.6190  137.7830 O   0  0  0  0  0  0  0  0  0  0  0  0
  189.3730  177.6370  136.5300 C   0  0  0  0  0  1  0  0  0  0  0  0
  1  4  1  0  0  0  0
  1  5  1  1  0  0  0
  2  6  1  0  0  0  0
  3  9  1  0  0  0  0
  3  2  1  0  0  0  0
  4  7  1  0  0  0  0
  6  7  1  0  0  0  0
  7 11  2  0  0  0  0
  8 13  1  6  0  0  0
  8  1  1  0  0  0  0
 10  3  2  0  0  0  0
 12  9  1  6  0  0  0
 12  8  1  0  0  0  0
 12  1  1  0  0  0  0
 13 14  2  0  0  0  0
 15 13  1  0  0  0  0
 15 16  1  1  0  0  0
 16 17  1  0  0  0  0
 17 19  1  0  0  0  0
 19 18  1  0  0  0  0
 20 15  1  0  0  0  0
 21 20  1  0  0  0  0
 22 24  1  0  0  0  0
 23 24  2  0  0  0  0
 24 21  1  0  0  0  0
 25  9  1  0  0  0  0
 26 27  2  0  0  0  0
 27 25  1  0  0  0  0
 28 29  2  0  0  0  0
 28 26  1  0  0  0  0
 30 28  1  0  0  0  0
M  END
>  <MODEL>
9

>  <REMARK>
 VINA RESULT:      -5.8      2.162      4.764
  Name = 
  11 active torsions:
  status: ('A' for Active; 'I' for Inactive)
    1  A    between atoms: C_1  and  C_4
    2  A    between atoms: C_1  and  C_22
    3  A    between atoms: C_4  and  C_9
    4  A    between atoms: C_4  and  O_12
    5  A    between atoms: C_7  and  N_23
    6  A    between atoms: C_7  and  C_25
    7  A    between atoms: C_8  and  O_12
    8  A    between atoms: C_8  and  C_30
    9  A    between atoms: C_9  and  C_21
   10  A    between atoms: C_10  and  C_15
   11  A    between atoms: C_17  and  C_21
                            x       y       z     vdW  Elec       q    Type
                         _______ _______ _______ _____ _____    ______ ____

>  <TORSDO>
F 11

$$$$
