=
 OpenBabel10272414593D

 37 42  0  0  1  0  0  0  0  0999 V2000
  188.2090  178.4520  148.8730 C   0  0  0  0  0  2  0  0  0  0  0  0
  189.7980  178.0550  144.9630 C   0  0  1  0  0  3  0  0  0  0  0  0
  188.2580  176.4200  142.3680 C   0  0  1  0  0  3  0  0  0  0  0  0
  189.3330  176.8550  147.2080 C   0  0  1  0  0  3  0  0  0  0  0  0
  188.8190  178.2960  143.7860 C   0  0  1  0  0  3  0  0  0  0  0  0
  188.8530  177.8040  146.1190 C   0  0  2  0  0  3  0  0  0  0  0  0
  189.0940  177.6710  142.4340 C   0  0  1  0  0  3  0  0  0  0  0  0
  190.8140  177.0610  147.4480 C   0  0  0  0  0  2  0  0  0  0  0  0
  187.6020  177.2580  145.5000 C   0  0  1  0  0  3  0  0  0  0  0  0
  186.3100  178.7820  147.1140 C   0  0  0  0  0  3  0  0  0  0  0  0
  191.9050  177.2580  143.8080 C   0  0  0  0  0  2  0  0  0  0  0  0
  191.6040  176.7030  146.1800 C   0  0  0  0  0  2  0  0  0  0  0  0
  186.3680  177.4610  146.3900 C   0  0  0  0  0  2  0  0  0  0  0  0
  188.9410  175.3360  142.9220 O   0  0  0  0  0  1  0  0  0  0  0  0
  190.8530  176.9310  144.8490 C   0  0  1  0  0  3  0  0  0  0  0  0
  187.4680  177.8550  144.1800 N   0  0  2  0  0  0  0  0  0  0  0  0
  188.4820  176.9970  148.4760 C   0  0  0  0  0  2  0  0  0  0  0  0
  190.4980  177.7210  141.8210 C   0  0  1  0  0  3  0  0  0  0  0  0
  187.0760  179.1700  148.1570 C   0  0  0  0  0  3  0  0  0  0  0  0
  187.0760  176.7730  143.2620 C   0  0  1  0  0  3  0  0  0  0  0  0
  191.4830  176.7530  142.4490 C   0  0  0  0  0  2  0  0  0  0  0  0
  189.3980  178.1060  139.5740 C   0  0  0  0  0  3  0  0  0  0  0  0
  190.4530  177.5720  140.3310 C   0  0  0  0  0  0  0  0  0  0  0  0
  191.4990  176.9070  139.6830 C   0  0  0  0  0  3  0  0  0  0  0  0
  192.6030  176.0580  137.6100 C   0  0  0  0  0  1  0  0  0  0  0  0
  190.4350  177.2970  137.5420 C   0  0  0  0  0  3  0  0  0  0  0  0
  191.4910  176.7670  138.2920 C   0  0  0  0  0  0  0  0  0  0  0  0
  189.3890  177.9670  138.1840 C   0  0  0  0  0  3  0  0  0  0  0  0
  186.0080  177.2050  142.4710 O   0  0  0  0  0  0  0  0  0  0  0  0
  185.6650  178.4710  142.9630 C   0  0  2  0  0  3  0  0  0  0  0  0
  184.3560  178.4040  143.7470 C   0  0  0  0  0  2  0  0  0  0  0  0
  183.9630  179.7550  144.3240 C   0  0  0  0  0  1  0  0  0  0  0  0
  185.5560  179.4700  141.8190 C   0  0  0  0  0  2  0  0  0  0  0  0
  183.7660  179.2600  140.0420 C   0  0  0  0  0  1  0  0  0  0  0  0
  185.1260  178.7720  140.5280 C   0  0  1  0  0  3  0  0  0  0  0  0
  185.5430  178.3950  138.2990 C   0  0  0  0  0  1  0  0  0  0  0  0
  186.1160  178.7960  139.5180 O   0  0  0  0  0  0  0  0  0  0  0  0
  2  6  1  0  0  0  0
  3  7  1  0  0  0  0
  3 14  1  0  0  0  0
  3 20  1  0  0  0  0
  4  8  1  0  0  0  0
  4 17  1  0  0  0  0
  5 16  1  0  0  0  0
  5  2  1  0  0  0  0
  6  4  1  0  0  0  0
  7  5  1  0  0  0  0
  9  6  1  0  0  0  0
  9 13  1  0  0  0  0
 10 19  2  0  0  0  0
 11 15  1  0  0  0  0
 12  8  1  0  0  0  0
 13 10  1  0  0  0  0
 15  2  1  0  0  0  0
 15 12  1  0  0  0  0
 16  9  1  0  0  0  0
 17  1  1  0  0  0  0
 18  7  1  0  0  0  0
 18 21  1  0  0  0  0
 19  1  1  0  0  0  0
 20 16  1  0  0  0  0
 21 11  1  0  0  0  0
 22 23  1  0  0  0  0
 23 18  1  0  0  0  0
 24 23  2  0  0  0  0
 25 27  1  0  0  0  0
 26 28  1  0  0  0  0
 26 27  2  0  0  0  0
 27 24  1  0  0  0  0
 28 22  2  0  0  0  0
 29 30  1  0  0  0  0
 29 20  1  0  0  0  0
 30 31  1  0  0  0  0
 31 32  1  0  0  0  0
 33 30  1  0  0  0  0
 34 35  1  0  0  0  0
 35 33  1  0  0  0  0
 36 37  1  0  0  0  0
 37 35  1  0  0  0  0
M  END
>  <MODEL>
1

>  <REMARK>
 VINA RESULT:      -9.0      0.000      0.000
  Name = 
  7 active torsions:
  status: ('A' for Active; 'I' for Inactive)
    1  A    between atoms: C_5  and  C_17
    2  A    between atoms: C_5  and  O_23
    3  A    between atoms: C_6  and  C_31
    4  A    between atoms: C_11  and  C_26
    5  A    between atoms: C_17  and  C_26
    6  A    between atoms: C_26  and  O_33
    7  A    between atoms: O_33  and  C_36
                            x       y       z     vdW  Elec       q    Type
                         _______ _______ _______ _____ _____    ______ ____

>  <TORSDO>
F 7

$$$$
=
 OpenBabel10272414593D

 37 42  0  0  1  0  0  0  0  0999 V2000
  191.0840  176.2090  144.7600 C   0  0  0  0  0  2  0  0  0  0  0  0
  187.0090  177.3000  144.3360 C   0  0  1  0  0  3  0  0  0  0  0  0
  185.7790  179.4250  141.9390 C   0  0  1  0  0  3  0  0  0  0  0  0
  189.3510  178.0670  145.1260 C   0  0  1  0  0  3  0  0  0  0  0  0
  186.4360  177.3050  142.8960 C   0  0  1  0  0  3  0  0  0  0  0  0
  188.5020  177.3500  144.0860 C   0  0  2  0  0  3  0  0  0  0  0  0
  185.2360  178.1670  142.5640 C   0  0  1  0  0  3  0  0  0  0  0  0
  188.8050  177.7880  146.5120 C   0  0  0  0  0  2  0  0  0  0  0  0
  188.6620  178.0280  142.7600 C   0  0  1  0  0  3  0  0  0  0  0  0
  190.4440  176.2560  142.2300 C   0  0  0  0  0  3  0  0  0  0  0  0
  185.1140  178.2560  145.7160 C   0  0  0  0  0  2  0  0  0  0  0  0
  187.3860  178.3620  146.6380 C   0  0  0  0  0  2  0  0  0  0  0  0
  189.9970  177.6880  142.0820 C   0  0  0  0  0  2  0  0  0  0  0  0
  186.0900  180.3720  142.9160 O   0  0  0  0  0  1  0  0  0  0  0  0
  186.5710  178.4030  145.3260 C   0  0  1  0  0  3  0  0  0  0  0  0
  187.5000  177.6930  141.9520 N   0  0  2  0  0  0  0  0  0  0  0  0
  190.8340  177.7070  144.9690 C   0  0  0  0  0  2  0  0  0  0  0  0
  184.0180  178.2040  143.4940 C   0  0  1  0  0  3  0  0  0  0  0  0
  190.9080  175.6630  143.3510 C   0  0  0  0  0  3  0  0  0  0  0  0
  187.0680  178.9350  141.2920 C   0  0  1  0  0  3  0  0  0  0  0  0
  184.2280  179.0160  144.7570 C   0  0  0  0  0  2  0  0  0  0  0  0
  181.7060  179.2320  143.4370 C   0  0  0  0  0  3  0  0  0  0  0  0
  182.7820  178.6310  142.7640 C   0  0  0  0  0  0  0  0  0  0  0  0
  182.7130  178.4480  141.3790 C   0  0  0  0  0  3  0  0  0  0  0  0
  181.5100  178.6540  139.2000 C   0  0  0  0  0  1  0  0  0  0  0  0
  180.5070  179.4470  141.3450 C   0  0  0  0  0  3  0  0  0  0  0  0
  181.5780  178.8530  140.6700 C   0  0  0  0  0  0  0  0  0  0  0  0
  180.5710  179.6370  142.7290 C   0  0  0  0  0  3  0  0  0  0  0  0
  186.8410  178.6830  139.9360 O   0  0  0  0  0  0  0  0  0  0  0  0
  187.9020  177.8660  139.5240 C   0  0  2  0  0  3  0  0  0  0  0  0
  189.0890  178.7160  139.0740 C   0  0  0  0  0  2  0  0  0  0  0  0
  190.1340  177.8950  138.3350 C   0  0  0  0  0  1  0  0  0  0  0  0
  187.4500  176.9370  138.4050 C   0  0  0  0  0  2  0  0  0  0  0  0
  187.0550  177.9130  136.1040 C   0  0  0  0  0  1  0  0  0  0  0  0
  186.4580  177.6440  137.4810 C   0  0  1  0  0  3  0  0  0  0  0  0
  185.3520  175.7020  136.9450 C   0  0  0  0  0  1  0  0  0  0  0  0
  185.1940  177.0140  137.4220 O   0  0  0  0  0  0  0  0  0  0  0  0
  1 17  1  0  0  0  0
  2 15  1  0  0  0  0
  3  7  1  0  0  0  0
  3 14  1  0  0  0  0
  4  8  1  0  0  0  0
  5  2  1  0  0  0  0
  6  2  1  0  0  0  0
  6  4  1  0  0  0  0
  7  5  1  0  0  0  0
  7 18  1  0  0  0  0
  8 12  1  0  0  0  0
  9  6  1  0  0  0  0
 10 19  2  0  0  0  0
 13 10  1  0  0  0  0
 13  9  1  0  0  0  0
 15 11  1  0  0  0  0
 15 12  1  0  0  0  0
 16  9  1  0  0  0  0
 16  5  1  0  0  0  0
 17  4  1  0  0  0  0
 18 21  1  0  0  0  0
 19  1  1  0  0  0  0
 20  3  1  0  0  0  0
 20 16  1  0  0  0  0
 21 11  1  0  0  0  0
 23 22  1  0  0  0  0
 23 18  1  0  0  0  0
 24 23  2  0  0  0  0
 25 27  1  0  0  0  0
 26 28  1  0  0  0  0
 27 26  2  0  0  0  0
 27 24  1  0  0  0  0
 28 22  2  0  0  0  0
 29 20  1  0  0  0  0
 30 29  1  0  0  0  0
 31 30  1  0  0  0  0
 32 31  1  0  0  0  0
 33 30  1  0  0  0  0
 34 35  1  0  0  0  0
 35 33  1  0  0  0  0
 36 37  1  0  0  0  0
 37 35  1  0  0  0  0
M  END
>  <MODEL>
2

>  <REMARK>
 VINA RESULT:      -8.6      1.820      6.168
  Name = 
  7 active torsions:
  status: ('A' for Active; 'I' for Inactive)
    1  A    between atoms: C_5  and  C_17
    2  A    between atoms: C_5  and  O_23
    3  A    between atoms: C_6  and  C_31
    4  A    between atoms: C_11  and  C_26
    5  A    between atoms: C_17  and  C_26
    6  A    between atoms: C_26  and  O_33
    7  A    between atoms: O_33  and  C_36
                            x       y       z     vdW  Elec       q    Type
                         _______ _______ _______ _____ _____    ______ ____

>  <TORSDO>
F 7

$$$$
=
 OpenBabel10272414593D

 37 42  0  0  1  0  0  0  0  0999 V2000
  191.4990  176.2760  145.1060 C   0  0  0  0  0  2  0  0  0  0  0  0
  187.4390  177.2130  144.3220 C   0  0  1  0  0  3  0  0  0  0  0  0
  186.3350  179.1680  141.7270 C   0  0  1  0  0  3  0  0  0  0  0  0
  189.6930  178.0940  145.2400 C   0  0  1  0  0  3  0  0  0  0  0  0
  186.9770  177.1230  142.8450 C   0  0  1  0  0  3  0  0  0  0  0  0
  188.9450  177.2970  144.1810 C   0  0  2  0  0  3  0  0  0  0  0  0
  185.7820  177.9270  142.3780 C   0  0  1  0  0  3  0  0  0  0  0  0
  189.0520  177.8720  146.5940 C   0  0  0  0  0  2  0  0  0  0  0  0
  189.1860  177.9080  142.8350 C   0  0  1  0  0  3  0  0  0  0  0  0
  191.0510  176.1680  142.5370 C   0  0  0  0  0  3  0  0  0  0  0  0
  185.4190  178.1790  145.5030 C   0  0  0  0  0  2  0  0  0  0  0  0
  187.6110  178.4060  146.5840 C   0  0  0  0  0  2  0  0  0  0  0  0
  190.5770  177.5750  142.2780 C   0  0  0  0  0  2  0  0  0  0  0  0
  186.5450  180.1740  142.6710 O   0  0  0  0  0  1  0  0  0  0  0  0
  186.8970  178.3520  145.2150 C   0  0  1  0  0  3  0  0  0  0  0  0
  188.0980  177.4940  141.9630 N   0  0  2  0  0  0  0  0  0  0  0  0
  191.1930  177.7750  145.2130 C   0  0  0  0  0  2  0  0  0  0  0  0
  184.4960  177.9750  143.2120 C   0  0  1  0  0  3  0  0  0  0  0  0
  191.4460  175.6500  143.7210 C   0  0  0  0  0  3  0  0  0  0  0  0
  187.6830  178.6850  141.2050 C   0  0  1  0  0  3  0  0  0  0  0  0
  184.5880  178.8590  144.4410 C   0  0  0  0  0  2  0  0  0  0  0  0
  183.2340  177.9510  141.0180 C   0  0  0  0  0  3  0  0  0  0  0  0
  183.3070  178.3230  142.3700 C   0  0  0  0  0  0  0  0  0  0  0  0
  182.2400  179.0120  142.9540 C   0  0  0  0  0  3  0  0  0  0  0  0
  179.9820  180.0710  142.8220 C   0  0  0  0  0  1  0  0  0  0  0  0
  181.0440  178.9670  140.8490 C   0  0  0  0  0  3  0  0  0  0  0  0
  181.1110  179.3370  142.1960 C   0  0  0  0  0  0  0  0  0  0  0  0
  182.1060  178.2740  140.2600 C   0  0  0  0  0  3  0  0  0  0  0  0
  187.5660  178.3540  139.8520 O   0  0  0  0  0  0  0  0  0  0  0  0
  188.8780  178.3040  139.3640 C   0  0  2  0  0  3  0  0  0  0  0  0
  189.0060  179.1270  138.0840 C   0  0  0  0  0  2  0  0  0  0  0  0
  187.9390  178.7680  137.0620 C   0  0  0  0  0  1  0  0  0  0  0  0
  189.2950  176.8600  139.1190 C   0  0  0  0  0  2  0  0  0  0  0  0
  191.8090  176.6850  138.8870 C   0  0  0  0  0  1  0  0  0  0  0  0
  190.4780  176.7940  138.1530 C   0  0  1  0  0  3  0  0  0  0  0  0
  189.0880  175.1700  137.3050 C   0  0  0  0  0  1  0  0  0  0  0  0
  190.3240  175.8190  137.1400 O   0  0  0  0  0  0  0  0  0  0  0  0
  1 17  1  0  0  0  0
  2 15  1  0  0  0  0
  3  7  1  0  0  0  0
  3 14  1  0  0  0  0
  4  8  1  0  0  0  0
  5  2  1  0  0  0  0
  6  2  1  0  0  0  0
  6  4  1  0  0  0  0
  7  5  1  0  0  0  0
  7 18  1  0  0  0  0
  9  6  1  0  0  0  0
 10 19  2  0  0  0  0
 12  8  1  0  0  0  0
 13 10  1  0  0  0  0
 13  9  1  0  0  0  0
 15 11  1  0  0  0  0
 15 12  1  0  0  0  0
 16  9  1  0  0  0  0
 16  5  1  0  0  0  0
 17  4  1  0  0  0  0
 18 21  1  0  0  0  0
 19  1  1  0  0  0  0
 20  3  1  0  0  0  0
 20 16  1  0  0  0  0
 21 11  1  0  0  0  0
 22 23  1  0  0  0  0
 23 24  2  0  0  0  0
 23 18  1  0  0  0  0
 26 27  2  0  0  0  0
 27 25  1  0  0  0  0
 27 24  1  0  0  0  0
 28 26  1  0  0  0  0
 28 22  2  0  0  0  0
 29 20  1  0  0  0  0
 30 29  1  0  0  0  0
 31 30  1  0  0  0  0
 32 31  1  0  0  0  0
 33 30  1  0  0  0  0
 35 34  1  0  0  0  0
 35 33  1  0  0  0  0
 37 36  1  0  0  0  0
 37 35  1  0  0  0  0
M  END
>  <MODEL>
3

>  <REMARK>
 VINA RESULT:      -8.5      1.943      6.376
  Name = 
  7 active torsions:
  status: ('A' for Active; 'I' for Inactive)
    1  A    between atoms: C_5  and  C_17
    2  A    between atoms: C_5  and  O_23
    3  A    between atoms: C_6  and  C_31
    4  A    between atoms: C_11  and  C_26
    5  A    between atoms: C_17  and  C_26
    6  A    between atoms: C_26  and  O_33
    7  A    between atoms: O_33  and  C_36
                            x       y       z     vdW  Elec       q    Type
                         _______ _______ _______ _____ _____    ______ ____

>  <TORSDO>
F 7

$$$$
=
 OpenBabel10272414593D

 37 42  0  0  1  0  0  0  0  0999 V2000
  190.5890  175.8200  137.1410 C   0  0  0  0  0  2  0  0  0  0  0  0
  190.3980  176.4940  141.3230 C   0  0  1  0  0  3  0  0  0  0  0  0
  188.1050  178.5100  142.8890 C   0  0  1  0  0  3  0  0  0  0  0  0
  191.0770  177.4860  139.0310 C   0  0  1  0  0  3  0  0  0  0  0  0
  188.9900  176.4570  141.9700 C   0  0  1  0  0  3  0  0  0  0  0  0
  190.0710  176.6990  139.8580 C   0  0  2  0  0  3  0  0  0  0  0  0
  188.7360  177.1960  143.2680 C   0  0  1  0  0  3  0  0  0  0  0  0
  192.4840  177.1370  139.4700 C   0  0  0  0  0  2  0  0  0  0  0  0
  188.7500  177.4050  139.8390 C   0  0  1  0  0  3  0  0  0  0  0  0
  188.0980  175.8300  137.9180 C   0  0  0  0  0  3  0  0  0  0  0  0
  191.8920  177.2350  143.2270 C   0  0  0  0  0  2  0  0  0  0  0  0
  192.6950  177.5610  140.9320 C   0  0  0  0  0  2  0  0  0  0  0  0
  187.9980  177.2110  138.5150 C   0  0  0  0  0  2  0  0  0  0  0  0
  189.0810  179.4720  142.6230 O   0  0  0  0  0  1  0  0  0  0  0  0
  191.4290  177.5350  141.8160 C   0  0  1  0  0  3  0  0  0  0  0  0
  187.9980  176.9630  141.0030 N   0  0  2  0  0  0  0  0  0  0  0  0
  190.8370  177.2820  137.5300 C   0  0  0  0  0  2  0  0  0  0  0  0
  189.7290  177.0970  144.4310 C   0  0  1  0  0  3  0  0  0  0  0  0
  189.1820  175.2750  137.3360 C   0  0  0  0  0  3  0  0  0  0  0  0
  187.3830  178.1620  141.5940 C   0  0  1  0  0  3  0  0  0  0  0  0
  190.9940  177.9120  144.2360 C   0  0  0  0  0  2  0  0  0  0  0  0
  189.7920  177.3650  146.9470 C   0  0  0  0  0  3  0  0  0  0  0  0
  189.0730  177.4050  145.7420 C   0  0  0  0  0  0  0  0  0  0  0  0
  187.7210  177.7630  145.7570 C   0  0  0  0  0  3  0  0  0  0  0  0
  185.6510  178.4490  146.9730 C   0  0  0  0  0  1  0  0  0  0  0  0
  187.8060  178.0260  148.1630 C   0  0  0  0  0  3  0  0  0  0  0  0
  187.0870  178.0710  146.9640 C   0  0  0  0  0  0  0  0  0  0  0  0
  189.1590  177.6730  148.1540 C   0  0  0  0  0  3  0  0  0  0  0  0
  186.0370  177.9040  141.8670 O   0  0  0  0  0  0  0  0  0  0  0  0
  185.4090  179.1560  141.8710 C   0  0  2  0  0  3  0  0  0  0  0  0
  184.9960  179.5440  143.2890 C   0  0  0  0  0  2  0  0  0  0  0  0
  183.6980  178.8750  143.7130 C   0  0  0  0  0  1  0  0  0  0  0  0
  184.2010  179.1430  140.9430 C   0  0  0  0  0  2  0  0  0  0  0  0
  184.3750  178.0320  138.6760 C   0  0  0  0  0  1  0  0  0  0  0  0
  184.6360  179.2970  139.4850 C   0  0  1  0  0  3  0  0  0  0  0  0
  182.7310  180.3680  138.7710 C   0  0  0  0  0  1  0  0  0  0  0  0
  184.1300  180.4640  138.8660 O   0  0  0  0  0  0  0  0  0  0  0  0
  1 19  1  0  0  0  0
  1 17  1  0  0  0  0
  2 15  1  0  0  0  0
  2  5  1  0  0  0  0
  3  7  1  0  0  0  0
  4  8  1  0  0  0  0
  4  6  1  0  0  0  0
  5  7  1  0  0  0  0
  6  2  1  0  0  0  0
  7 18  1  0  0  0  0
  8 12  1  0  0  0  0
  9  6  1  0  0  0  0
  9 16  1  0  0  0  0
 10 13  1  0  0  0  0
 11 21  1  0  0  0  0
 12 15  1  0  0  0  0
 13  9  1  0  0  0  0
 14  3  1  0  0  0  0
 15 11  1  0  0  0  0
 16 20  1  0  0  0  0
 16  5  1  0  0  0  0
 17  4  1  0  0  0  0
 18 23  1  0  0  0  0
 19 10  2  0  0  0  0
 20 29  1  0  0  0  0
 20  3  1  0  0  0  0
 21 18  1  0  0  0  0
 22 28  1  0  0  0  0
 23 24  1  0  0  0  0
 23 22  2  0  0  0  0
 24 27  2  0  0  0  0
 27 25  1  0  0  0  0
 27 26  1  0  0  0  0
 28 26  2  0  0  0  0
 29 30  1  0  0  0  0
 30 31  1  0  0  0  0
 31 32  1  0  0  0  0
 33 30  1  0  0  0  0
 34 35  1  0  0  0  0
 35 33  1  0  0  0  0
 36 37  1  0  0  0  0
 37 35  1  0  0  0  0
M  END
>  <MODEL>
4

>  <REMARK>
 VINA RESULT:      -7.8      1.524      6.427
  Name = 
  7 active torsions:
  status: ('A' for Active; 'I' for Inactive)
    1  A    between atoms: C_5  and  C_17
    2  A    between atoms: C_5  and  O_23
    3  A    between atoms: C_6  and  C_31
    4  A    between atoms: C_11  and  C_26
    5  A    between atoms: C_17  and  C_26
    6  A    between atoms: C_26  and  O_33
    7  A    between atoms: O_33  and  C_36
                            x       y       z     vdW  Elec       q    Type
                         _______ _______ _______ _____ _____    ______ ____

>  <TORSDO>
F 7

$$$$
=
 OpenBabel10272414593D

 37 42  0  0  1  0  0  0  0  0999 V2000
  187.9410  178.6510  148.7310 C   0  0  0  0  0  2  0  0  0  0  0  0
  189.7750  177.9590  144.9710 C   0  0  1  0  0  3  0  0  0  0  0  0
  188.1420  176.8810  142.1520 C   0  0  1  0  0  3  0  0  0  0  0  0
  188.7710  176.8610  147.0890 C   0  0  1  0  0  3  0  0  0  0  0  0
  189.0260  178.4920  143.7230 C   0  0  1  0  0  3  0  0  0  0  0  0
  188.6790  177.9370  146.0170 C   0  0  2  0  0  3  0  0  0  0  0  0
  189.2680  177.8570  142.3690 C   0  0  1  0  0  3  0  0  0  0  0  0
  190.2200  176.6520  147.4790 C   0  0  0  0  0  2  0  0  0  0  0  0
  187.4020  177.7690  145.2510 C   0  0  1  0  0  3  0  0  0  0  0  0
  186.3970  179.5350  146.8220 C   0  0  0  0  0  3  0  0  0  0  0  0
  191.7050  176.6580  143.9760 C   0  0  0  0  0  2  0  0  0  0  0  0
  191.0160  176.1330  146.2730 C   0  0  0  0  0  2  0  0  0  0  0  0
  186.1780  178.2700  146.0320 C   0  0  0  0  0  2  0  0  0  0  0  0
  188.4490  175.6360  142.7040 O   0  0  0  0  0  1  0  0  0  0  0  0
  190.5000  176.5960  144.8920 C   0  0  1  0  0  3  0  0  0  0  0  0
  187.5730  178.4190  143.9620 N   0  0  2  0  0  0  0  0  0  0  0  0
  187.8580  177.1880  148.2780 C   0  0  0  0  0  2  0  0  0  0  0  0
  190.6920  177.5440  141.8950 C   0  0  1  0  0  3  0  0  0  0  0  0
  187.1220  179.6700  147.9530 C   0  0  0  0  0  3  0  0  0  0  0  0
  187.0080  177.5130  142.9500 C   0  0  1  0  0  3  0  0  0  0  0  0
  191.3110  176.3270  142.5560 C   0  0  0  0  0  2  0  0  0  0  0  0
  191.8520  176.8390  139.7590 C   0  0  0  0  0  3  0  0  0  0  0  0
  190.7680  177.4580  140.4020 C   0  0  0  0  0  0  0  0  0  0  0  0
  189.7220  177.9850  139.6370 C   0  0  0  0  0  3  0  0  0  0  0  0
  188.6470  178.4680  137.4360 C   0  0  0  0  0  1  0  0  0  0  0  0
  190.8430  177.2900  137.6060 C   0  0  0  0  0  3  0  0  0  0  0  0
  189.7590  177.9040  138.2420 C   0  0  0  0  0  0  0  0  0  0  0  0
  191.8890  176.7570  138.3650 C   0  0  0  0  0  3  0  0  0  0  0  0
  186.1830  178.2410  142.0870 O   0  0  0  0  0  0  0  0  0  0  0  0
  184.8750  178.0040  142.5310 C   0  0  2  0  0  3  0  0  0  0  0  0
  183.9630  177.6630  141.3550 C   0  0  0  0  0  2  0  0  0  0  0  0
  183.9870  178.7390  140.2800 C   0  0  0  0  0  1  0  0  0  0  0  0
  184.3480  179.2150  143.2890 C   0  0  0  0  0  2  0  0  0  0  0  0
  182.9170  178.7890  145.3330 C   0  0  0  0  0  1  0  0  0  0  0  0
  182.9370  178.9510  143.8170 C   0  0  1  0  0  3  0  0  0  0  0  0
  180.8870  179.1790  142.8020 C   0  0  0  0  0  1  0  0  0  0  0  0
  181.9780  179.8780  143.3480 O   0  0  0  0  0  0  0  0  0  0  0  0
  2  6  1  0  0  0  0
  3  7  1  0  0  0  0
  3 14  1  0  0  0  0
  3 20  1  0  0  0  0
  4  8  1  0  0  0  0
  4 17  1  0  0  0  0
  5 16  1  0  0  0  0
  5  2  1  0  0  0  0
  6  4  1  0  0  0  0
  7  5  1  0  0  0  0
  9  6  1  0  0  0  0
  9 13  1  0  0  0  0
 10 19  2  0  0  0  0
 11 15  1  0  0  0  0
 12  8  1  0  0  0  0
 13 10  1  0  0  0  0
 15  2  1  0  0  0  0
 15 12  1  0  0  0  0
 16  9  1  0  0  0  0
 17  1  1  0  0  0  0
 18  7  1  0  0  0  0
 18 21  1  0  0  0  0
 19  1  1  0  0  0  0
 20 16  1  0  0  0  0
 21 11  1  0  0  0  0
 22 23  1  0  0  0  0
 23 18  1  0  0  0  0
 24 23  2  0  0  0  0
 25 27  1  0  0  0  0
 26 27  2  0  0  0  0
 26 28  1  0  0  0  0
 27 24  1  0  0  0  0
 28 22  2  0  0  0  0
 29 30  1  0  0  0  0
 29 20  1  0  0  0  0
 30 33  1  0  0  0  0
 31 30  1  0  0  0  0
 32 31  1  0  0  0  0
 33 35  1  0  0  0  0
 35 34  1  0  0  0  0
 36 37  1  0  0  0  0
 37 35  1  0  0  0  0
M  END
>  <MODEL>
5

>  <REMARK>
 VINA RESULT:      -7.4      1.245      2.341
  Name = 
  7 active torsions:
  status: ('A' for Active; 'I' for Inactive)
    1  A    between atoms: C_5  and  C_17
    2  A    between atoms: C_5  and  O_23
    3  A    between atoms: C_6  and  C_31
    4  A    between atoms: C_11  and  C_26
    5  A    between atoms: C_17  and  C_26
    6  A    between atoms: C_26  and  O_33
    7  A    between atoms: O_33  and  C_36
                            x       y       z     vdW  Elec       q    Type
                         _______ _______ _______ _____ _____    ______ ____

>  <TORSDO>
F 7

$$$$
=
 OpenBabel10272414593D

 37 42  0  0  1  0  0  0  0  0999 V2000
  186.0300  177.7500  144.7270 C   0  0  0  0  0  2  0  0  0  0  0  0
  183.3730  177.8200  141.4240 C   0  0  1  0  0  3  0  0  0  0  0  0
  183.9350  179.4930  138.4800 C   0  0  1  0  0  3  0  0  0  0  0  0
  184.3170  179.1540  143.4310 C   0  0  1  0  0  3  0  0  0  0  0  0
  184.0030  177.6310  140.0200 C   0  0  1  0  0  3  0  0  0  0  0  0
  184.5720  178.2150  142.2610 C   0  0  2  0  0  3  0  0  0  0  0  0
  183.2920  178.1680  138.7950 C   0  0  1  0  0  3  0  0  0  0  0  0
  182.9940  178.8100  144.0840 C   0  0  0  0  0  2  0  0  0  0  0  0
  185.5320  178.8570  141.3070 C   0  0  1  0  0  3  0  0  0  0  0  0
  187.3830  177.5410  142.5050 C   0  0  0  0  0  3  0  0  0  0  0  0
  180.9530  178.3520  140.9050 C   0  0  0  0  0  2  0  0  0  0  0  0
  181.8460  179.0330  143.0870 C   0  0  0  0  0  2  0  0  0  0  0  0
  186.9800  178.8180  141.8130 C   0  0  0  0  0  2  0  0  0  0  0  0
  183.3220  180.5250  139.1930 O   0  0  0  0  0  1  0  0  0  0  0  0
  182.2130  178.8260  141.6010 C   0  0  1  0  0  3  0  0  0  0  0  0
  185.3530  178.2230  140.0100 N   0  0  2  0  0  0  0  0  0  0  0  0
  185.5000  179.1530  144.4070 C   0  0  0  0  0  2  0  0  0  0  0  0
  181.7870  177.9510  138.6060 C   0  0  1  0  0  3  0  0  0  0  0  0
  186.9880  177.1210  143.7270 C   0  0  0  0  0  3  0  0  0  0  0  0
  185.3520  179.2990  139.0060 C   0  0  1  0  0  3  0  0  0  0  0  0
  180.9190  178.8400  139.4760 C   0  0  0  0  0  2  0  0  0  0  0  0
  181.3880  176.9080  136.3350 C   0  0  0  0  0  3  0  0  0  0  0  0
  181.3950  178.0420  137.1630 C   0  0  0  0  0  0  0  0  0  0  0  0
  181.0060  179.2790  136.6420 C   0  0  0  0  0  3  0  0  0  0  0  0
  180.2100  180.7080  134.7540 C   0  0  0  0  0  1  0  0  0  0  0  0
  180.6180  178.2590  134.4790 C   0  0  0  0  0  3  0  0  0  0  0  0
  180.6200  179.3900  135.3020 C   0  0  0  0  0  0  0  0  0  0  0  0
  181.0020  177.0180  134.9960 C   0  0  0  0  0  3  0  0  0  0  0  0
  186.1950  178.9450  137.9490 O   0  0  0  0  0  0  0  0  0  0  0  0
  187.0020  177.9120  138.4440 C   0  0  2  0  0  3  0  0  0  0  0  0
  188.4540  178.3730  138.5570 C   0  0  0  0  0  2  0  0  0  0  0  0
  188.9430  179.0480  137.2860 C   0  0  0  0  0  1  0  0  0  0  0  0
  186.8950  176.6850  137.5480 C   0  0  0  0  0  2  0  0  0  0  0  0
  186.9040  176.7380  135.0180 C   0  0  0  0  0  1  0  0  0  0  0  0
  186.0970  177.0040  136.2840 C   0  0  1  0  0  3  0  0  0  0  0  0
  184.8410  175.2290  137.0290 C   0  0  0  0  0  1  0  0  0  0  0  0
  184.8170  176.4040  136.2590 O   0  0  0  0  0  0  0  0  0  0  0  0
  2 15  1  0  0  0  0
  2  6  1  0  0  0  0
  3  7  1  0  0  0  0
  3 20  1  0  0  0  0
  3 14  1  0  0  0  0
  4  8  1  0  0  0  0
  4 17  1  0  0  0  0
  5  2  1  0  0  0  0
  6  4  1  0  0  0  0
  7  5  1  0  0  0  0
  9 13  1  0  0  0  0
  9  6  1  0  0  0  0
 10 19  2  0  0  0  0
 11 15  1  0  0  0  0
 12  8  1  0  0  0  0
 13 10  1  0  0  0  0
 15 12  1  0  0  0  0
 16  5  1  0  0  0  0
 16  9  1  0  0  0  0
 17  1  1  0  0  0  0
 18  7  1  0  0  0  0
 18 21  1  0  0  0  0
 19  1  1  0  0  0  0
 20 16  1  0  0  0  0
 21 11  1  0  0  0  0
 22 23  1  0  0  0  0
 23 18  1  0  0  0  0
 24 23  2  0  0  0  0
 25 27  1  0  0  0  0
 26 28  1  0  0  0  0
 26 27  2  0  0  0  0
 27 24  1  0  0  0  0
 28 22  2  0  0  0  0
 29 30  1  0  0  0  0
 29 20  1  0  0  0  0
 30 31  1  0  0  0  0
 32 31  1  0  0  0  0
 33 30  1  0  0  0  0
 34 35  1  0  0  0  0
 35 33  1  0  0  0  0
 37 35  1  0  0  0  0
 37 36  1  0  0  0  0
M  END
>  <MODEL>
6

>  <REMARK>
 VINA RESULT:      -6.9      3.313      7.763
  Name = 
  7 active torsions:
  status: ('A' for Active; 'I' for Inactive)
    1  A    between atoms: C_5  and  C_17
    2  A    between atoms: C_5  and  O_23
    3  A    between atoms: C_6  and  C_31
    4  A    between atoms: C_11  and  C_26
    5  A    between atoms: C_17  and  C_26
    6  A    between atoms: C_26  and  O_33
    7  A    between atoms: O_33  and  C_36
                            x       y       z     vdW  Elec       q    Type
                         _______ _______ _______ _____ _____    ______ ____

>  <TORSDO>
F 7

$$$$
=
 OpenBabel10272414593D

 37 42  0  0  1  0  0  0  0  0999 V2000
  186.1010  177.7720  145.3620 C   0  0  0  0  0  2  0  0  0  0  0  0
  183.6520  177.8650  141.9020 C   0  0  1  0  0  3  0  0  0  0  0  0
  184.5960  179.1300  138.8550 C   0  0  1  0  0  3  0  0  0  0  0  0
  184.6750  179.2570  143.8300 C   0  0  1  0  0  3  0  0  0  0  0  0
  184.3180  177.4460  140.5670 C   0  0  1  0  0  3  0  0  0  0  0  0
  184.8510  178.1750  142.7740 C   0  0  2  0  0  3  0  0  0  0  0  0
  183.7540  177.9460  139.2530 C   0  0  1  0  0  3  0  0  0  0  0  0
  183.2850  179.1670  144.4260 C   0  0  0  0  0  2  0  0  0  0  0  0
  185.9400  178.5770  141.8260 C   0  0  1  0  0  3  0  0  0  0  0  0
  187.5200  177.1490  143.2620 C   0  0  0  0  0  3  0  0  0  0  0  0
  181.3620  178.6680  141.1800 C   0  0  0  0  0  2  0  0  0  0  0  0
  182.2330  179.4420  143.3400 C   0  0  0  0  0  2  0  0  0  0  0  0
  187.3400  178.3910  142.4260 C   0  0  0  0  0  2  0  0  0  0  0  0
  184.1020  180.3050  139.4240 O   0  0  0  0  0  1  0  0  0  0  0  0
  182.6410  179.0340  141.9070 C   0  0  1  0  0  3  0  0  0  0  0  0
  185.7380  177.8420  140.5870 N   0  0  2  0  0  0  0  0  0  0  0  0
  185.7940  179.1930  144.8760 C   0  0  0  0  0  2  0  0  0  0  0  0
  182.2450  177.9200  138.9880 C   0  0  1  0  0  3  0  0  0  0  0  0
  187.0070  176.9170  144.4900 C   0  0  0  0  0  3  0  0  0  0  0  0
  185.9420  178.7980  139.4880 C   0  0  1  0  0  3  0  0  0  0  0  0
  181.4710  179.0060  139.7120 C   0  0  0  0  0  2  0  0  0  0  0  0
  182.1360  176.7630  136.7400 C   0  0  0  0  0  3  0  0  0  0  0  0
  181.9440  177.9140  137.5210 C   0  0  0  0  0  0  0  0  0  0  0  0
  181.4380  179.0740  136.9270 C   0  0  0  0  0  3  0  0  0  0  0  0
  180.5980  180.3280  134.9370 C   0  0  0  0  0  1  0  0  0  0  0  0
  181.3290  177.9440  134.7870 C   0  0  0  0  0  3  0  0  0  0  0  0
  181.1330  179.0920  135.5620 C   0  0  0  0  0  0  0  0  0  0  0  0
  181.8310  176.7790  135.3760 C   0  0  0  0  0  3  0  0  0  0  0  0
  186.7780  178.2240  138.5260 O   0  0  0  0  0  0  0  0  0  0  0  0
  188.0750  178.3410  139.0410 C   0  0  2  0  0  3  0  0  0  0  0  0
  188.9820  179.0690  138.0510 C   0  0  0  0  0  2  0  0  0  0  0  0
  188.6180  178.7620  136.6060 C   0  0  0  0  0  1  0  0  0  0  0  0
  188.6380  176.9650  139.3720 C   0  0  0  0  0  2  0  0  0  0  0  0
  190.5950  177.2900  140.9430 C   0  0  0  0  0  1  0  0  0  0  0  0
  190.1600  177.0190  139.5070 C   0  0  1  0  0  3  0  0  0  0  0  0
  191.6490  176.3500  137.8890 C   0  0  0  0  0  1  0  0  0  0  0  0
  190.8160  175.9070  138.9310 O   0  0  0  0  0  0  0  0  0  0  0  0
  2 15  1  0  0  0  0
  2  6  1  0  0  0  0
  3  7  1  0  0  0  0
  3 14  1  0  0  0  0
  3 20  1  0  0  0  0
  4  8  1  0  0  0  0
  4 17  1  0  0  0  0
  5 16  1  0  0  0  0
  5  2  1  0  0  0  0
  6  4  1  0  0  0  0
  7  5  1  0  0  0  0
  9 13  1  0  0  0  0
  9  6  1  0  0  0  0
 10 19  2  0  0  0  0
 11 15  1  0  0  0  0
 12  8  1  0  0  0  0
 13 10  1  0  0  0  0
 15 12  1  0  0  0  0
 16  9  1  0  0  0  0
 17  1  1  0  0  0  0
 18  7  1  0  0  0  0
 18 21  1  0  0  0  0
 19  1  1  0  0  0  0
 20 16  1  0  0  0  0
 21 11  1  0  0  0  0
 22 23  1  0  0  0  0
 23 18  1  0  0  0  0
 24 23  2  0  0  0  0
 25 27  1  0  0  0  0
 26 28  1  0  0  0  0
 26 27  2  0  0  0  0
 27 24  1  0  0  0  0
 28 22  2  0  0  0  0
 29 30  1  0  0  0  0
 29 20  1  0  0  0  0
 30 33  1  0  0  0  0
 31 30  1  0  0  0  0
 32 31  1  0  0  0  0
 33 35  1  0  0  0  0
 35 34  1  0  0  0  0
 36 37  1  0  0  0  0
 37 35  1  0  0  0  0
M  END
>  <MODEL>
7

>  <REMARK>
 VINA RESULT:      -6.9      2.704      7.433
  Name = 
  7 active torsions:
  status: ('A' for Active; 'I' for Inactive)
    1  A    between atoms: C_5  and  C_17
    2  A    between atoms: C_5  and  O_23
    3  A    between atoms: C_6  and  C_31
    4  A    between atoms: C_11  and  C_26
    5  A    between atoms: C_17  and  C_26
    6  A    between atoms: C_26  and  O_33
    7  A    between atoms: O_33  and  C_36
                            x       y       z     vdW  Elec       q    Type
                         _______ _______ _______ _____ _____    ______ ____

>  <TORSDO>
F 7

$$$$
=
 OpenBabel10272414593D

 37 42  0  0  1  0  0  0  0  0999 V2000
  190.1460  176.7110  146.5690 C   0  0  0  0  0  2  0  0  0  0  0  0
  186.5210  177.3850  144.4750 C   0  0  1  0  0  3  0  0  0  0  0  0
  186.1870  179.3920  141.7120 C   0  0  1  0  0  3  0  0  0  0  0  0
  188.2460  178.3790  146.1280 C   0  0  1  0  0  3  0  0  0  0  0  0
  186.5930  177.3430  142.9270 C   0  0  1  0  0  3  0  0  0  0  0  0
  187.9730  177.5880  144.8570 C   0  0  2  0  0  3  0  0  0  0  0  0
  185.5590  178.0800  142.1030 C   0  0  1  0  0  3  0  0  0  0  0  0
  187.2080  178.0360  147.1770 C   0  0  0  0  0  2  0  0  0  0  0  0
  188.5980  178.2890  143.6900 C   0  0  1  0  0  3  0  0  0  0  0  0
  190.6010  176.7120  143.9990 C   0  0  0  0  0  3  0  0  0  0  0  0
  184.1440  178.1320  144.9230 C   0  0  0  0  0  2  0  0  0  0  0  0
  185.8140  178.4610  146.6910 C   0  0  0  0  0  2  0  0  0  0  0  0
  190.1190  178.0920  143.6310 C   0  0  0  0  0  2  0  0  0  0  0  0
  185.9770  180.3580  142.6980 O   0  0  0  0  0  1  0  0  0  0  0  0
  185.6110  178.4300  145.1600 C   0  0  1  0  0  3  0  0  0  0  0  0
  187.9080  177.8440  142.4890 N   0  0  2  0  0  0  0  0  0  0  0  0
  189.6900  178.1740  146.6050 C   0  0  0  0  0  2  0  0  0  0  0  0
  184.0690  177.9860  142.4500 C   0  0  1  0  0  3  0  0  0  0  0  0
  190.6180  176.1600  145.2320 C   0  0  0  0  0  3  0  0  0  0  0  0
  187.6690  179.0410  141.6670 C   0  0  1  0  0  3  0  0  0  0  0  0
  183.6620  178.8060  143.6600 C   0  0  0  0  0  2  0  0  0  0  0  0
  183.4710  177.7280  140.0050 C   0  0  0  0  0  3  0  0  0  0  0  0
  183.2070  178.2910  141.2640 C   0  0  0  0  0  0  0  0  0  0  0  0
  182.1040  179.1350  141.4240 C   0  0  0  0  0  3  0  0  0  0  0  0
  180.1050  180.3240  140.5140 C   0  0  0  0  0  1  0  0  0  0  0  0
  181.5420  178.8650  139.0840 C   0  0  0  0  0  3  0  0  0  0  0  0
  181.2740  179.4250  140.3380 C   0  0  0  0  0  0  0  0  0  0  0  0
  182.6400  178.0160  138.9180 C   0  0  0  0  0  3  0  0  0  0  0  0
  188.0440  178.7780  140.3470 O   0  0  0  0  0  0  0  0  0  0  0  0
  188.8500  177.6330  140.4080 C   0  0  2  0  0  3  0  0  0  0  0  0
  190.3270  178.0200  140.4620 C   0  0  0  0  0  2  0  0  0  0  0  0
  191.2400  176.8400  140.1650 C   0  0  0  0  0  1  0  0  0  0  0  0
  188.5730  176.7280  139.2150 C   0  0  0  0  0  2  0  0  0  0  0  0
  188.6750  178.1490  137.1240 C   0  0  0  0  0  1  0  0  0  0  0  0
  187.7710  177.4700  138.1460 C   0  0  1  0  0  3  0  0  0  0  0  0
  187.2930  176.0030  136.4430 C   0  0  0  0  0  1  0  0  0  0  0  0
  186.7590  176.6810  137.5520 O   0  0  0  0  0  0  0  0  0  0  0  0
  1 17  1  0  0  0  0
  2  6  1  0  0  0  0
  2 15  1  0  0  0  0
  3  7  1  0  0  0  0
  3 14  1  0  0  0  0
  4 17  1  0  0  0  0
  4  8  1  0  0  0  0
  5  2  1  0  0  0  0
  6  4  1  0  0  0  0
  7 18  1  0  0  0  0
  7  5  1  0  0  0  0
  9  6  1  0  0  0  0
 10 19  2  0  0  0  0
 11 15  1  0  0  0  0
 12  8  1  0  0  0  0
 13  9  1  0  0  0  0
 13 10  1  0  0  0  0
 15 12  1  0  0  0  0
 16  5  1  0  0  0  0
 16  9  1  0  0  0  0
 18 21  1  0  0  0  0
 19  1  1  0  0  0  0
 20  3  1  0  0  0  0
 20 16  1  0  0  0  0
 21 11  1  0  0  0  0
 22 23  1  0  0  0  0
 23 24  2  0  0  0  0
 23 18  1  0  0  0  0
 26 27  2  0  0  0  0
 27 25  1  0  0  0  0
 27 24  1  0  0  0  0
 28 26  1  0  0  0  0
 28 22  2  0  0  0  0
 29 30  1  0  0  0  0
 29 20  1  0  0  0  0
 30 31  1  0  0  0  0
 32 31  1  0  0  0  0
 33 30  1  0  0  0  0
 34 35  1  0  0  0  0
 35 33  1  0  0  0  0
 36 37  1  0  0  0  0
 37 35  1  0  0  0  0
M  END
>  <MODEL>
8

>  <REMARK>
 VINA RESULT:      -6.9      1.741      5.966
  Name = 
  7 active torsions:
  status: ('A' for Active; 'I' for Inactive)
    1  A    between atoms: C_5  and  C_17
    2  A    between atoms: C_5  and  O_23
    3  A    between atoms: C_6  and  C_31
    4  A    between atoms: C_11  and  C_26
    5  A    between atoms: C_17  and  C_26
    6  A    between atoms: C_26  and  O_33
    7  A    between atoms: O_33  and  C_36
                            x       y       z     vdW  Elec       q    Type
                         _______ _______ _______ _____ _____    ______ ____

>  <TORSDO>
F 7

$$$$
=
 OpenBabel10272414593D

 37 42  0  0  1  0  0  0  0  0999 V2000
  192.0000  175.4060  146.5250 C   0  0  0  0  0  2  0  0  0  0  0  0
  188.2540  176.7810  145.0910 C   0  0  1  0  0  3  0  0  0  0  0  0
  187.7420  178.2890  142.0510 C   0  0  1  0  0  3  0  0  0  0  0  0
  190.5420  177.4720  146.0840 C   0  0  1  0  0  3  0  0  0  0  0  0
  187.9110  176.4530  143.6150 C   0  0  1  0  0  3  0  0  0  0  0  0
  189.7570  176.5950  145.1180 C   0  0  2  0  0  3  0  0  0  0  0  0
  186.9230  177.3180  142.8600 C   0  0  1  0  0  3  0  0  0  0  0  0
  189.7580  177.6460  147.3680 C   0  0  0  0  0  2  0  0  0  0  0  0
  190.2170  176.8610  143.7170 C   0  0  1  0  0  3  0  0  0  0  0  0
  191.7600  174.8270  143.9910 C   0  0  0  0  0  3  0  0  0  0  0  0
  186.3460  178.2810  145.8090 C   0  0  0  0  0  2  0  0  0  0  0  0
  188.4420  178.3850  147.0810 C   0  0  0  0  0  2  0  0  0  0  0  0
  191.5690  176.2030  143.4070 C   0  0  0  0  0  2  0  0  0  0  0  0
  188.0480  179.4270  142.7990 O   0  0  0  0  0  1  0  0  0  0  0  0
  187.8500  178.1540  145.6730 C   0  0  1  0  0  3  0  0  0  0  0  0
  189.1520  176.4480  142.8180 N   0  0  2  0  0  0  0  0  0  0  0  0
  191.9580  176.9220  146.3000 C   0  0  0  0  0  2  0  0  0  0  0  0
  185.6000  177.7420  143.5080 C   0  0  1  0  0  3  0  0  0  0  0  0
  191.9540  174.5170  145.2910 C   0  0  0  0  0  3  0  0  0  0  0  0
  189.0220  177.5010  141.7990 C   0  0  1  0  0  3  0  0  0  0  0  0
  185.7430  178.8420  144.5430 C   0  0  0  0  0  2  0  0  0  0  0  0
  183.2530  178.4140  142.8410 C   0  0  0  0  0  3  0  0  0  0  0  0
  184.5690  178.0870  142.4770 C   0  0  0  0  0  0  0  0  0  0  0  0
  184.9370  178.1060  141.1280 C   0  0  0  0  0  3  0  0  0  0  0  0
  184.3950  178.4550  138.7160 C   0  0  0  0  0  1  0  0  0  0  0  0
  182.6870  178.7610  140.5130 C   0  0  0  0  0  3  0  0  0  0  0  0
  183.9990  178.4390  140.1470 C   0  0  0  0  0  0  0  0  0  0  0  0
  182.3150  178.7480  141.8610 C   0  0  0  0  0  3  0  0  0  0  0  0
  188.9640  176.9130  140.5320 O   0  0  0  0  0  0  0  0  0  0  0  0
  189.7460  177.7290  139.7050 C   0  0  2  0  0  3  0  0  0  0  0  0
  188.8850  178.8030  139.0430 C   0  0  0  0  0  2  0  0  0  0  0  0
  189.1090  178.8740  137.5410 C   0  0  0  0  0  1  0  0  0  0  0  0
  190.4580  176.8870  138.6540 C   0  0  0  0  0  2  0  0  0  0  0  0
  192.7400  176.0390  137.9650 C   0  0  0  0  0  1  0  0  0  0  0  0
  191.8660  176.5150  139.1190 C   0  0  1  0  0  3  0  0  0  0  0  0
  193.7360  177.0560  140.3420 C   0  0  0  0  0  1  0  0  0  0  0  0
  192.4830  177.5170  139.9040 O   0  0  0  0  0  0  0  0  0  0  0  0
  2  6  1  0  0  0  0
  2 15  1  0  0  0  0
  3 14  1  0  0  0  0
  3  7  1  0  0  0  0
  4 17  1  0  0  0  0
  4  8  1  0  0  0  0
  5  2  1  0  0  0  0
  6  4  1  0  0  0  0
  7 18  1  0  0  0  0
  7  5  1  0  0  0  0
  9  6  1  0  0  0  0
 10 19  2  0  0  0  0
 12  8  1  0  0  0  0
 13  9  1  0  0  0  0
 13 10  1  0  0  0  0
 15 11  1  0  0  0  0
 15 12  1  0  0  0  0
 16  5  1  0  0  0  0
 16  9  1  0  0  0  0
 17  1  1  0  0  0  0
 18 21  1  0  0  0  0
 19  1  1  0  0  0  0
 20  3  1  0  0  0  0
 20 16  1  0  0  0  0
 21 11  1  0  0  0  0
 23 22  1  0  0  0  0
 23 18  1  0  0  0  0
 24 23  2  0  0  0  0
 25 27  1  0  0  0  0
 26 28  1  0  0  0  0
 27 26  2  0  0  0  0
 27 24  1  0  0  0  0
 28 22  2  0  0  0  0
 29 20  1  0  0  0  0
 30 29  1  0  0  0  0
 31 30  1  0  0  0  0
 32 31  1  0  0  0  0
 33 35  1  0  0  0  0
 33 30  1  0  0  0  0
 34 35  1  0  0  0  0
 35 37  1  0  0  0  0
 37 36  1  0  0  0  0
M  END
>  <MODEL>
9

>  <REMARK>
 VINA RESULT:      -6.8      1.701      5.822
  Name = 
  7 active torsions:
  status: ('A' for Active; 'I' for Inactive)
    1  A    between atoms: C_5  and  C_17
    2  A    between atoms: C_5  and  O_23
    3  A    between atoms: C_6  and  C_31
    4  A    between atoms: C_11  and  C_26
    5  A    between atoms: C_17  and  C_26
    6  A    between atoms: C_26  and  O_33
    7  A    between atoms: O_33  and  C_36
                            x       y       z     vdW  Elec       q    Type
                         _______ _______ _______ _____ _____    ______ ____

>  <TORSDO>
F 7

$$$$
