=
 OpenBabel10272413093D

 32 37  0  0  1  0  0  0  0  0999 V2000
  187.6160  177.9740  141.1730 N   0  0  1  0  0  0  0  0  0  0  0  0
  188.5150  177.5300  138.9890 C   0  0  1  0  0  3  0  0  0  0  0  0
  186.7470  178.9390  141.8640 C   0  0  0  0  0  2  0  0  0  0  0  0
  187.5380  178.3530  139.7520 C   0  0  1  0  0  3  0  0  0  0  0  0
  188.1040  176.8430  137.7190 C   0  0  2  0  0  3  0  0  0  0  0  0
  192.4700  176.5380  137.7900 S   0  0  0  0  0  0  0  0  0  0  0  0
  190.6000  177.4020  139.7110 C   0  0  2  0  0  3  0  0  0  0  0  0
  190.9700  174.5310  137.3460 C   0  0  0  0  0  2  0  0  0  0  0  0
  190.1060  175.4110  138.1160 N   0  0  2  0  0  0  0  0  0  0  0  0
  186.1340  178.1220  139.1900 C   0  0  2  0  0  3  0  0  0  0  0  0
  189.3730  176.2220  137.1140 C   0  0  0  0  0  2  0  0  0  0  0  0
  186.1000  178.4130  137.6690 C   0  0  0  0  0  2  0  0  0  0  0  0
  185.1430  178.9960  139.9440 C   0  0  0  0  0  2  0  0  0  0  0  0
  190.0250  177.0240  141.1090 C   0  0  0  0  0  2  0  0  0  0  0  0
  189.0060  178.0470  141.7370 C   0  0  2  0  0  3  0  0  0  0  0  0
  189.7390  178.1980  138.9410 O   0  0  0  0  0  0  0  0  0  0  0  0
  187.3070  177.8430  136.8650 C   0  0  2  0  0  3  0  0  0  0  0  0
  185.2850  178.7560  141.4480 C   0  0  0  0  0  2  0  0  0  0  0  0
  191.9810  175.2780  136.7010 O   0  0  0  0  0  0  0  0  0  0  0  0
  191.0950  176.1630  138.8960 C   0  0  1  0  0  3  0  0  0  0  0  0
  190.0760  177.3680  145.4730 C   0  0  0  0  0  0  0  0  0  0  0  0
  191.0650  177.3010  146.2560 O   0  0  0  0  0  0  0  0  0  0  0  0
  188.9770  177.7490  143.2170 C   0  0  0  0  0  0  0  0  0  0  0  0
  188.7290  177.2540  146.0380 C   0  0  0  0  0  3  0  0  0  0  0  0
  187.7840  177.6340  143.8240 C   0  0  0  0  0  3  0  0  0  0  0  0
  190.2780  177.5600  143.9850 C   0  0  1  0  0  3  0  0  0  0  0  0
  191.2280  178.7170  143.7190 C   0  0  0  0  0  1  0  0  0  0  0  0
  187.6440  177.3710  145.2600 C   0  0  0  0  0  0  0  0  0  0  0  0
  185.6880  178.3870  146.3840 C   0  0  0  0  0  1  0  0  0  0  0  0
  186.3570  177.2880  145.7890 O   0  0  0  0  0  0  0  0  0  0  0  0
  186.7950  177.1880  135.5900 C   0  0  0  0  0  2  0  0  0  0  0  0
  186.7330  178.1330  134.5550 O   0  0  0  0  0  1  0  0  0  0  0  0
  1 15  1  0  0  0  0
  1  3  1  1  0  0  0
  2 16  1  6  0  0  0
  2  4  1  0  0  0  0
  4  1  1  0  0  0  0
  5  2  1  0  0  0  0
  6 20  1  0  0  0  0
  7 14  1  0  0  0  0
  8  9  1  0  0  0  0
  9 20  1  0  0  0  0
 10  4  1  0  0  0  0
 10 13  1  0  0  0  0
 11  5  1  0  0  0  0
 11  9  1  0  0  0  0
 12 10  1  0  0  0  0
 13 18  1  0  0  0  0
 14 15  1  0  0  0  0
 15 23  1  0  0  0  0
 16  7  1  0  0  0  0
 17 12  1  0  0  0  0
 17  5  1  0  0  0  0
 18  3  1  0  0  0  0
 19  8  1  0  0  0  0
 19  6  1  0  0  0  0
 20  7  1  0  0  0  0
 21 24  1  0  0  0  0
 21 22  2  0  0  0  0
 23 25  2  0  0  0  0
 23 26  1  0  0  0  0
 25 28  1  0  0  0  0
 26 21  1  0  0  0  0
 27 26  1  0  0  0  0
 28 30  1  0  0  0  0
 28 24  2  0  0  0  0
 30 29  1  0  0  0  0
 31 17  1  0  0  0  0
 32 31  1  0  0  0  0
M  END
>  <MODEL>
1

>  <REMARK>
 VINA RESULT:      -9.3      0.000      0.000
  Name = 
  3 active torsions:
  status: ('A' for Active; 'I' for Inactive)
    1  A    between atoms: C_13  and  C_29
    2  A    between atoms: O_15  and  C_26
    3  A    between atoms: C_16  and  C_27
                            x       y       z     vdW  Elec       q    Type
                         _______ _______ _______ _____ _____    ______ ____

>  <TORSDO>
F 3

$$$$
=
 OpenBabel10272413093D

 32 37  0  0  1  0  0  0  0  0999 V2000
  186.9040  177.8290  140.0180 N   0  0  1  0  0  0  0  0  0  0  0  0
  184.8280  178.6880  140.8700 C   0  0  1  0  0  3  0  0  0  0  0  0
  188.3540  177.9470  140.2400 C   0  0  0  0  0  2  0  0  0  0  0  0
  186.2950  178.6160  141.1040 C   0  0  1  0  0  3  0  0  0  0  0  0
  183.8640  178.4050  141.9860 C   0  0  2  0  0  3  0  0  0  0  0  0
  181.4160  180.1770  138.8190 S   0  0  0  0  0  0  0  0  0  0  0  0
  184.0920  179.2970  138.8780 C   0  0  2  0  0  3  0  0  0  0  0  0
  180.7640  178.0200  140.0020 C   0  0  0  0  0  2  0  0  0  0  0  0
  182.2090  178.0440  140.1570 N   0  0  2  0  0  0  0  0  0  0  0  0
  186.5580  177.9770  142.4700 C   0  0  2  0  0  3  0  0  0  0  0  0
  182.4560  178.7190  141.4540 C   0  0  0  0  0  2  0  0  0  0  0  0
  185.8140  178.7500  143.5870 C   0  0  0  0  0  2  0  0  0  0  0  0
  188.0580  177.9420  142.7250 C   0  0  0  0  0  2  0  0  0  0  0  0
  185.0320  178.2140  138.2690 C   0  0  0  0  0  2  0  0  0  0  0  0
  186.5570  178.3320  138.6460 C   0  0  2  0  0  3  0  0  0  0  0  0
  184.5410  179.8160  140.1010 O   0  0  0  0  0  0  0  0  0  0  0  0
  184.3470  179.1490  143.2420 C   0  0  2  0  0  3  0  0  0  0  0  0
  188.7650  177.2670  141.5490 C   0  0  0  0  0  2  0  0  0  0  0  0
  180.2690  179.3300  139.8080 O   0  0  0  0  0  0  0  0  0  0  0  0
  182.6040  178.8280  138.9810 C   0  0  1  0  0  3  0  0  0  0  0  0
  188.8890  177.3180  135.6310 C   0  0  0  0  0  0  0  0  0  0  0  0
  189.6900  177.7670  134.7630 O   0  0  0  0  0  0  0  0  0  0  0  0
  187.3060  177.5390  137.6030 C   0  0  0  0  0  0  0  0  0  0  0  0
  188.7190  175.8670  135.7400 C   0  0  0  0  0  3  0  0  0  0  0  0
  187.2160  176.2000  137.6290 C   0  0  0  0  0  3  0  0  0  0  0  0
  188.1200  178.2580  136.5350 C   0  0  1  0  0  3  0  0  0  0  0  0
  189.0570  179.2720  137.1710 C   0  0  0  0  0  1  0  0  0  0  0  0
  187.9230  175.3350  136.6780 C   0  0  0  0  0  0  0  0  0  0  0  0
  186.5620  173.3400  137.2160 C   0  0  0  0  0  1  0  0  0  0  0  0
  187.7720  173.9560  136.8080 O   0  0  0  0  0  0  0  0  0  0  0  0
  183.4520  178.8460  144.4350 C   0  0  0  0  0  2  0  0  0  0  0  0
  184.1440  179.0930  145.6300 O   0  0  0  0  0  1  0  0  0  0  0  0
  1  3  1  1  0  0  0
  1  4  1  0  0  0  0
  2 16  1  1  0  0  0
  2  4  1  0  0  0  0
  2  5  1  0  0  0  0
  3 18  1  0  0  0  0
  4 10  1  0  0  0  0
  5 17  1  0  0  0  0
  6 20  1  0  0  0  0
  6 19  1  0  0  0  0
  7 20  1  0  0  0  0
  7 16  1  0  0  0  0
  8  9  1  0  0  0  0
  9 11  1  0  0  0  0
 10 13  1  0  0  0  0
 10 12  1  0  0  0  0
 11  5  1  0  0  0  0
 14 15  1  0  0  0  0
 14  7  1  0  0  0  0
 15  1  1  0  0  0  0
 17 12  1  0  0  0  0
 17 31  1  0  0  0  0
 18 13  1  0  0  0  0
 19  8  1  0  0  0  0
 20  9  1  0  0  0  0
 21 24  1  0  0  0  0
 21 26  1  0  0  0  0
 22 21  2  0  0  0  0
 23 25  2  0  0  0  0
 23 15  1  0  0  0  0
 24 28  2  0  0  0  0
 26 27  1  0  0  0  0
 26 23  1  0  0  0  0
 28 30  1  0  0  0  0
 28 25  1  0  0  0  0
 30 29  1  0  0  0  0
 31 32  1  0  0  0  0
M  END
>  <MODEL>
2

>  <REMARK>
 VINA RESULT:      -8.8      3.554      7.911
  Name = 
  3 active torsions:
  status: ('A' for Active; 'I' for Inactive)
    1  A    between atoms: C_13  and  C_29
    2  A    between atoms: O_15  and  C_26
    3  A    between atoms: C_16  and  C_27
                            x       y       z     vdW  Elec       q    Type
                         _______ _______ _______ _____ _____    ______ ____

>  <TORSDO>
F 3

$$$$
=
 OpenBabel10272413093D

 32 37  0  0  1  0  0  0  0  0999 V2000
  187.5120  177.8170  140.5850 N   0  0  1  0  0  0  0  0  0  0  0  0
  185.3180  178.5820  141.1990 C   0  0  1  0  0  3  0  0  0  0  0  0
  188.9200  177.9840  140.9780 C   0  0  0  0  0  2  0  0  0  0  0  0
  186.7490  178.5580  141.6040 C   0  0  1  0  0  3  0  0  0  0  0  0
  184.2410  178.2400  142.1880 C   0  0  2  0  0  3  0  0  0  0  0  0
  182.1170  179.9870  138.7830 S   0  0  0  0  0  0  0  0  0  0  0  0
  184.7990  179.2050  139.1440 C   0  0  2  0  0  3  0  0  0  0  0  0
  181.4130  177.7840  139.8450 C   0  0  0  0  0  2  0  0  0  0  0  0
  182.8280  177.8570  140.1700 N   0  0  2  0  0  0  0  0  0  0  0  0
  186.8750  177.9020  142.9800 C   0  0  2  0  0  3  0  0  0  0  0  0
  182.8950  178.5140  141.4980 C   0  0  0  0  0  2  0  0  0  0  0  0
  185.9740  178.6240  144.0140 C   0  0  0  0  0  2  0  0  0  0  0  0
  188.3340  177.9160  143.4100 C   0  0  0  0  0  2  0  0  0  0  0  0
  185.8450  178.1700  138.6330 C   0  0  0  0  0  2  0  0  0  0  0  0
  187.3090  178.3360  139.1900 C   0  0  2  0  0  3  0  0  0  0  0  0
  185.0800  179.7140  140.4200 O   0  0  0  0  0  0  0  0  0  0  0  0
  184.5440  178.9750  143.5050 C   0  0  2  0  0  3  0  0  0  0  0  0
  189.2010  177.2930  142.3160 C   0  0  0  0  0  2  0  0  0  0  0  0
  180.8950  179.0780  139.6160 O   0  0  0  0  0  0  0  0  0  0  0  0
  183.3280  178.6800  139.0620 C   0  0  1  0  0  3  0  0  0  0  0  0
  189.0550  177.0170  135.9080 C   0  0  0  0  0  0  0  0  0  0  0  0
  189.0890  177.1350  134.6500 O   0  0  0  0  0  0  0  0  0  0  0  0
  188.2060  177.5930  138.2300 C   0  0  0  0  0  0  0  0  0  0  0  0
  190.0470  176.1550  136.5540 C   0  0  0  0  0  3  0  0  0  0  0  0
  189.1520  176.7830  138.7320 C   0  0  0  0  0  3  0  0  0  0  0  0
  188.0130  177.7480  136.7270 C   0  0  1  0  0  3  0  0  0  0  0  0
  187.9670  179.2190  136.3440 C   0  0  0  0  0  1  0  0  0  0  0  0
  190.0910  176.0350  137.8890 C   0  0  0  0  0  0  0  0  0  0  0  0
  192.2640  174.8530  137.9050 C   0  0  0  0  0  1  0  0  0  0  0  0
  191.0450  175.2380  138.5180 O   0  0  0  0  0  0  0  0  0  0  0  0
  183.5270  178.6150  144.5790 C   0  0  0  0  0  2  0  0  0  0  0  0
  183.9670  179.0730  145.8300 O   0  0  0  0  0  1  0  0  0  0  0  0
  1  3  1  1  0  0  0
  1  4  1  0  0  0  0
  2 16  1  1  0  0  0
  2  4  1  0  0  0  0
  2  5  1  0  0  0  0
  3 18  1  0  0  0  0
  4 10  1  0  0  0  0
  5 17  1  0  0  0  0
  6 20  1  0  0  0  0
  6 19  1  0  0  0  0
  7 16  1  0  0  0  0
  8  9  1  0  0  0  0
  9 11  1  0  0  0  0
 10 13  1  0  0  0  0
 10 12  1  0  0  0  0
 11  5  1  0  0  0  0
 14  7  1  0  0  0  0
 14 15  1  0  0  0  0
 15  1  1  0  0  0  0
 17 12  1  0  0  0  0
 17 31  1  0  0  0  0
 18 13  1  0  0  0  0
 19  8  1  0  0  0  0
 20  7  1  0  0  0  0
 20  9  1  0  0  0  0
 21 24  1  0  0  0  0
 21 26  1  0  0  0  0
 22 21  2  0  0  0  0
 23 25  2  0  0  0  0
 23 15  1  0  0  0  0
 24 28  2  0  0  0  0
 26 23  1  0  0  0  0
 27 26  1  0  0  0  0
 28 30  1  0  0  0  0
 28 25  1  0  0  0  0
 29 30  1  0  0  0  0
 31 32  1  0  0  0  0
M  END
>  <MODEL>
3

>  <REMARK>
 VINA RESULT:      -8.2      3.121      7.667
  Name = 
  3 active torsions:
  status: ('A' for Active; 'I' for Inactive)
    1  A    between atoms: C_13  and  C_29
    2  A    between atoms: O_15  and  C_26
    3  A    between atoms: C_16  and  C_27
                            x       y       z     vdW  Elec       q    Type
                         _______ _______ _______ _____ _____    ______ ____

>  <TORSDO>
F 3

$$$$
=
 OpenBabel10272413093D

 32 37  0  0  1  0  0  0  0  0999 V2000
  185.5340  178.3100  144.1700 N   0  0  1  0  0  0  0  0  0  0  0  0
  187.7770  177.6470  144.7200 C   0  0  1  0  0  3  0  0  0  0  0  0
  184.1530  178.1330  144.6470 C   0  0  0  0  0  2  0  0  0  0  0  0
  186.3680  177.6600  145.1960 C   0  0  1  0  0  3  0  0  0  0  0  0
  188.8910  178.0830  145.6270 C   0  0  2  0  0  3  0  0  0  0  0  0
  190.8940  176.1650  142.2400 S   0  0  0  0  0  0  0  0  0  0  0  0
  188.2120  176.8990  142.6860 C   0  0  2  0  0  3  0  0  0  0  0  0
  191.5840  178.4530  143.1150 C   0  0  0  0  0  2  0  0  0  0  0  0
  190.1900  178.3650  143.5170 N   0  0  2  0  0  0  0  0  0  0  0  0
  186.2920  178.4050  146.5300 C   0  0  2  0  0  3  0  0  0  0  0  0
  190.2090  177.7980  144.8880 C   0  0  0  0  0  2  0  0  0  0  0  0
  187.2640  177.7790  147.5610 C   0  0  0  0  0  2  0  0  0  0  0  0
  184.8570  178.3820  147.0350 C   0  0  0  0  0  2  0  0  0  0  0  0
  187.1100  177.8690  142.1630 C   0  0  0  0  0  2  0  0  0  0  0  0
  185.6820  177.7030  142.8050 C   0  0  2  0  0  3  0  0  0  0  0  0
  188.0090  176.4700  144.0060 O   0  0  0  0  0  0  0  0  0  0  0  0
  188.6760  177.4310  147.0030 C   0  0  2  0  0  3  0  0  0  0  0  0
  183.9180  178.9060  145.9480 C   0  0  0  0  0  2  0  0  0  0  0  0
  192.1290  177.1600  142.9460 O   0  0  0  0  0  0  0  0  0  0  0  0
  189.6600  177.4560  142.4940 C   0  0  1  0  0  3  0  0  0  0  0  0
  184.1470  179.6770  139.7540 C   0  0  0  0  0  0  0  0  0  0  0  0
  184.4310  180.2860  138.6840 O   0  0  0  0  0  0  0  0  0  0  0  0
  184.7160  178.3550  141.8450 C   0  0  0  0  0  0  0  0  0  0  0  0
  182.7350  179.4670  140.0830 C   0  0  0  0  0  3  0  0  0  0  0  0
  183.3990  178.2090  142.0620 C   0  0  0  0  0  3  0  0  0  0  0  0
  185.2400  179.1780  140.6750 C   0  0  1  0  0  3  0  0  0  0  0  0
  186.2810  178.3930  139.8930 C   0  0  0  0  0  1  0  0  0  0  0  0
  182.3780  178.7810  141.1780 C   0  0  0  0  0  0  0  0  0  0  0  0
  180.4760  178.8360  142.7590 C   0  0  0  0  0  1  0  0  0  0  0  0
  181.0380  178.5530  141.4890 O   0  0  0  0  0  0  0  0  0  0  0  0
  189.7350  177.8900  147.9970 C   0  0  0  0  0  2  0  0  0  0  0  0
  189.1210  178.4130  149.1450 O   0  0  0  0  0  1  0  0  0  0  0  0
  1  3  1  1  0  0  0
  1  4  1  0  0  0  0
  2 16  1  1  0  0  0
  2  4  1  0  0  0  0
  2  5  1  0  0  0  0
  3 18  1  0  0  0  0
  4 10  1  0  0  0  0
  5 17  1  0  0  0  0
  6 20  1  0  0  0  0
  6 19  1  0  0  0  0
  7 16  1  0  0  0  0
  8  9  1  0  0  0  0
  9 11  1  0  0  0  0
 10 13  1  0  0  0  0
 10 12  1  0  0  0  0
 11  5  1  0  0  0  0
 14  7  1  0  0  0  0
 14 15  1  0  0  0  0
 15  1  1  0  0  0  0
 17 12  1  0  0  0  0
 17 31  1  0  0  0  0
 18 13  1  0  0  0  0
 19  8  1  0  0  0  0
 20  7  1  0  0  0  0
 20  9  1  0  0  0  0
 21 24  1  0  0  0  0
 21 26  1  0  0  0  0
 22 21  2  0  0  0  0
 23 25  2  0  0  0  0
 23 15  1  0  0  0  0
 24 28  2  0  0  0  0
 26 23  1  0  0  0  0
 27 26  1  0  0  0  0
 28 30  1  0  0  0  0
 28 25  1  0  0  0  0
 30 29  1  0  0  0  0
 31 32  1  0  0  0  0
M  END
>  <MODEL>
4

>  <REMARK>
 VINA RESULT:      -8.1      3.232      7.264
  Name = 
  3 active torsions:
  status: ('A' for Active; 'I' for Inactive)
    1  A    between atoms: C_13  and  C_29
    2  A    between atoms: O_15  and  C_26
    3  A    between atoms: C_16  and  C_27
                            x       y       z     vdW  Elec       q    Type
                         _______ _______ _______ _____ _____    ______ ____

>  <TORSDO>
F 3

$$$$
=
 OpenBabel10272413093D

 32 37  0  0  1  0  0  0  0  0999 V2000
  186.2880  178.1800  140.0550 N   0  0  1  0  0  0  0  0  0  0  0  0
  188.6030  177.7710  140.5520 C   0  0  1  0  0  3  0  0  0  0  0  0
  185.4500  178.8910  139.0770 C   0  0  0  0  0  2  0  0  0  0  0  0
  187.6620  178.3230  139.5420 C   0  0  1  0  0  3  0  0  0  0  0  0
  189.6950  176.8260  140.1390 C   0  0  2  0  0  3  0  0  0  0  0  0
  190.7040  177.9740  144.2410 S   0  0  0  0  0  0  0  0  0  0  0  0
  188.4200  178.4250  142.6550 C   0  0  2  0  0  3  0  0  0  0  0  0
  190.6600  175.5470  143.4760 C   0  0  0  0  0  2  0  0  0  0  0  0
  189.7420  176.1900  142.5500 N   0  0  2  0  0  0  0  0  0  0  0  0
  187.8430  177.5750  138.2190 C   0  0  2  0  0  3  0  0  0  0  0  0
  190.5680  176.5790  141.3800 C   0  0  0  0  0  2  0  0  0  0  0  0
  189.3190  177.6370  137.7550 C   0  0  0  0  0  2  0  0  0  0  0  0
  186.9080  178.1690  137.1760 C   0  0  0  0  0  2  0  0  0  0  0  0
  186.9070  178.0670  142.5680 C   0  0  0  0  0  2  0  0  0  0  0  0
  186.0940  178.7750  141.4200 C   0  0  2  0  0  3  0  0  0  0  0  0
  188.9890  178.7890  141.4250 O   0  0  0  0  0  0  0  0  0  0  0  0
  190.3710  177.3910  138.8780 C   0  0  2  0  0  3  0  0  0  0  0  0
  185.4780  178.1880  137.7170 C   0  0  0  0  0  2  0  0  0  0  0  0
  191.5730  176.4910  143.9970 O   0  0  0  0  0  0  0  0  0  0  0  0
  189.2720  177.3190  143.3610 C   0  0  1  0  0  3  0  0  0  0  0  0
  182.7470  178.7540  143.5090 C   0  0  0  0  0  0  0  0  0  0  0  0
  182.2630  178.9210  144.6630 O   0  0  0  0  0  0  0  0  0  0  0  0
  184.6410  178.6810  141.8200 C   0  0  0  0  0  0  0  0  0  0  0  0
  181.8260  178.5490  142.3880 C   0  0  0  0  0  3  0  0  0  0  0  0
  183.7220  178.5010  140.8570 C   0  0  0  0  0  3  0  0  0  0  0  0
  184.2450  178.7640  143.2880 C   0  0  1  0  0  3  0  0  0  0  0  0
  184.8730  179.9850  143.9420 C   0  0  0  0  0  1  0  0  0  0  0  0
  182.2830  178.4200  141.1350 C   0  0  0  0  0  0  0  0  0  0  0  0
  181.7090  178.6950  138.7440 C   0  0  0  0  0  1  0  0  0  0  0  0
  181.4160  178.2490  140.0570 O   0  0  0  0  0  0  0  0  0  0  0  0
  191.4440  176.4430  138.3620 C   0  0  0  0  0  2  0  0  0  0  0  0
  190.9440  175.1330  138.3110 O   0  0  0  0  0  1  0  0  0  0  0  0
  1  3  1  6  0  0  0
  1 15  1  0  0  0  0
  2 16  1  6  0  0  0
  4  1  1  0  0  0  0
  4  2  1  0  0  0  0
  5  2  1  0  0  0  0
  5 11  1  0  0  0  0
  7 20  1  0  0  0  0
  8 19  1  0  0  0  0
  9 20  1  0  0  0  0
  9  8  1  0  0  0  0
 10  4  1  0  0  0  0
 11  9  1  0  0  0  0
 12 10  1  0  0  0  0
 12 17  1  0  0  0  0
 13 18  1  0  0  0  0
 13 10  1  0  0  0  0
 14  7  1  0  0  0  0
 15 23  1  0  0  0  0
 15 14  1  0  0  0  0
 16  7  1  0  0  0  0
 17  5  1  0  0  0  0
 18  3  1  0  0  0  0
 19  6  1  0  0  0  0
 20  6  1  0  0  0  0
 21 22  2  0  0  0  0
 23 26  1  0  0  0  0
 24 21  1  0  0  0  0
 25 28  1  0  0  0  0
 25 23  2  0  0  0  0
 26 21  1  0  0  0  0
 26 27  1  0  0  0  0
 28 24  2  0  0  0  0
 29 30  1  0  0  0  0
 30 28  1  0  0  0  0
 31 17  1  0  0  0  0
 32 31  1  0  0  0  0
M  END
>  <MODEL>
5

>  <REMARK>
 VINA RESULT:      -7.9      2.704      5.331
  Name = 
  3 active torsions:
  status: ('A' for Active; 'I' for Inactive)
    1  A    between atoms: C_13  and  C_29
    2  A    between atoms: O_15  and  C_26
    3  A    between atoms: C_16  and  C_27
                            x       y       z     vdW  Elec       q    Type
                         _______ _______ _______ _____ _____    ______ ____

>  <TORSDO>
F 3

$$$$
=
 OpenBabel10272413093D

 32 37  0  0  1  0  0  0  0  0999 V2000
  186.3940  178.1190  142.4830 N   0  0  1  0  0  0  0  0  0  0  0  0
  186.2630  178.2020  140.0850 C   0  0  1  0  0  3  0  0  0  0  0  0
  185.8490  178.7960  143.6700 C   0  0  0  0  0  2  0  0  0  0  0  0
  185.6640  178.7100  141.3480 C   0  0  1  0  0  3  0  0  0  0  0  0
  185.3860  177.6760  138.9850 C   0  0  2  0  0  3  0  0  0  0  0  0
  189.3390  178.1040  137.1540 S   0  0  0  0  0  0  0  0  0  0  0  0
  188.4540  178.3090  139.8210 C   0  0  2  0  0  3  0  0  0  0  0  0
  187.9620  175.9750  136.9430 C   0  0  0  0  0  2  0  0  0  0  0  0
  187.4630  176.5560  138.1790 N   0  0  2  0  0  0  0  0  0  0  0  0
  184.1790  178.3420  141.3890 C   0  0  2  0  0  3  0  0  0  0  0  0
  186.3000  177.3870  137.7830 C   0  0  0  0  0  2  0  0  0  0  0  0
  183.4510  178.8720  140.1280 C   0  0  0  0  0  2  0  0  0  0  0  0
  183.5600  178.8990  142.6620 C   0  0  0  0  0  2  0  0  0  0  0  0
  188.5910  177.6130  141.2070 C   0  0  0  0  0  2  0  0  0  0  0  0
  187.8800  178.3310  142.4150 C   0  0  2  0  0  3  0  0  0  0  0  0
  187.2810  179.0650  139.6790 O   0  0  0  0  0  0  0  0  0  0  0  0
  184.2170  178.6550  138.7890 C   0  0  2  0  0  3  0  0  0  0  0  0
  184.3730  178.4410  143.8740 C   0  0  0  0  0  2  0  0  0  0  0  0
  188.5190  176.9780  136.1190 O   0  0  0  0  0  0  0  0  0  0  0  0
  188.6330  177.3240  138.6200 C   0  0  1  0  0  3  0  0  0  0  0  0
  190.5070  176.8770  144.9730 C   0  0  0  0  0  0  0  0  0  0  0  0
  191.7160  176.5380  145.1150 O   0  0  0  0  0  0  0  0  0  0  0  0
  188.5330  177.7900  143.6640 C   0  0  0  0  0  0  0  0  0  0  0  0
  189.6350  176.8590  146.1510 C   0  0  0  0  0  3  0  0  0  0  0  0
  187.8120  177.7430  144.7960 C   0  0  0  0  0  3  0  0  0  0  0  0
  189.9710  177.2910  143.6190 C   0  0  1  0  0  3  0  0  0  0  0  0
  190.8790  178.3300  142.9810 C   0  0  0  0  0  1  0  0  0  0  0  0
  188.3580  177.2600  146.0690 C   0  0  0  0  0  0  0  0  0  0  0  0
  187.9350  177.7410  148.4580 C   0  0  0  0  0  1  0  0  0  0  0  0
  187.5250  177.2700  147.1860 O   0  0  0  0  0  0  0  0  0  0  0  0
  183.2460  178.1440  137.7340 C   0  0  0  0  0  2  0  0  0  0  0  0
  182.1180  178.9760  137.6740 O   0  0  0  0  0  1  0  0  0  0  0  0
  1  3  1  1  0  0  0
  2 16  1  6  0  0  0
  2  4  1  0  0  0  0
  3 18  1  0  0  0  0
  4 10  1  0  0  0  0
  4  1  1  0  0  0  0
  5  2  1  0  0  0  0
  6 20  1  0  0  0  0
  7 14  1  0  0  0  0
  8  9  1  0  0  0  0
  9 20  1  0  0  0  0
 10 13  1  0  0  0  0
 11  9  1  0  0  0  0
 11  5  1  0  0  0  0
 12 10  1  0  0  0  0
 13 18  1  0  0  0  0
 14 15  1  0  0  0  0
 15  1  1  0  0  0  0
 15 23  1  0  0  0  0
 16  7  1  0  0  0  0
 17  5  1  0  0  0  0
 17 12  1  0  0  0  0
 19  8  1  0  0  0  0
 19  6  1  0  0  0  0
 20  7  1  0  0  0  0
 21 22  2  0  0  0  0
 21 24  1  0  0  0  0
 23 25  2  0  0  0  0
 25 28  1  0  0  0  0
 26 23  1  0  0  0  0
 26 21  1  0  0  0  0
 27 26  1  0  0  0  0
 28 24  2  0  0  0  0
 28 30  1  0  0  0  0
 30 29  1  0  0  0  0
 31 17  1  0  0  0  0
 32 31  1  0  0  0  0
M  END
>  <MODEL>
6

>  <REMARK>
 VINA RESULT:      -7.6      1.970      2.717
  Name = 
  3 active torsions:
  status: ('A' for Active; 'I' for Inactive)
    1  A    between atoms: C_13  and  C_29
    2  A    between atoms: O_15  and  C_26
    3  A    between atoms: C_16  and  C_27
                            x       y       z     vdW  Elec       q    Type
                         _______ _______ _______ _____ _____    ______ ____

>  <TORSDO>
F 3

$$$$
=
 OpenBabel10272413093D

 32 37  0  0  1  0  0  0  0  0999 V2000
  185.5240  178.0900  139.8920 N   0  0  1  0  0  0  0  0  0  0  0  0
  186.8140  178.3150  141.9070 C   0  0  1  0  0  3  0  0  0  0  0  0
  185.5620  178.4820  138.4740 C   0  0  0  0  0  2  0  0  0  0  0  0
  186.8230  178.5250  140.4340 C   0  0  1  0  0  3  0  0  0  0  0  0
  187.9710  177.6390  142.5860 C   0  0  2  0  0  3  0  0  0  0  0  0
  185.6080  179.3550  145.8470 S   0  0  0  0  0  0  0  0  0  0  0  0
  185.1120  179.0840  143.0870 C   0  0  2  0  0  3  0  0  0  0  0  0
  186.3990  176.9370  145.8620 C   0  0  0  0  0  2  0  0  0  0  0  0
  186.3540  177.2480  144.4430 N   0  0  2  0  0  0  0  0  0  0  0  0
  187.9770  177.7330  139.8170 C   0  0  2  0  0  3  0  0  0  0  0  0
  187.7150  177.7260  144.0990 C   0  0  0  0  0  2  0  0  0  0  0  0
  189.3220  178.1190  140.4820 C   0  0  0  0  0  2  0  0  0  0  0  0
  188.0090  177.9820  138.3160 C   0  0  0  0  0  2  0  0  0  0  0  0
  184.1690  178.3550  142.0840 C   0  0  0  0  0  2  0  0  0  0  0  0
  184.3470  178.7360  140.5660 C   0  0  2  0  0  3  0  0  0  0  0  0
  186.3420  179.4690  142.5320 O   0  0  0  0  0  0  0  0  0  0  0  0
  189.2740  178.2410  142.0340 C   0  0  2  0  0  3  0  0  0  0  0  0
  186.6320  177.6930  137.7160 C   0  0  0  0  0  2  0  0  0  0  0  0
  186.5510  178.1200  146.6190 O   0  0  0  0  0  0  0  0  0  0  0  0
  185.3220  178.2910  144.4180 C   0  0  1  0  0  3  0  0  0  0  0  0
  180.8660  178.7950  138.7120 C   0  0  0  0  0  0  0  0  0  0  0  0
  179.9820  179.5530  138.2220 O   0  0  0  0  0  0  0  0  0  0  0  0
  183.0690  178.3190  139.8800 C   0  0  0  0  0  0  0  0  0  0  0  0
  180.7270  177.3480  138.5250 C   0  0  0  0  0  3  0  0  0  0  0  0
  182.8580  177.0110  139.6580 C   0  0  0  0  0  3  0  0  0  0  0  0
  182.0400  179.3670  139.4780 C   0  0  1  0  0  3  0  0  0  0  0  0
  182.6990  180.4860  138.6870 C   0  0  0  0  0  1  0  0  0  0  0  0
  181.6620  176.5020  138.9770 C   0  0  0  0  0  0  0  0  0  0  0  0
  180.3750  174.4960  138.3120 C   0  0  0  0  0  1  0  0  0  0  0  0
  181.5540  175.1250  138.7840 O   0  0  0  0  0  0  0  0  0  0  0  0
  190.4910  177.5480  142.6300 C   0  0  0  0  0  2  0  0  0  0  0  0
  190.4860  176.1880  142.2860 O   0  0  0  0  0  1  0  0  0  0  0  0
  1  3  1  6  0  0  0
  1  4  1  0  0  0  0
  1 15  1  0  0  0  0
  2 16  1  1  0  0  0
  2  5  1  0  0  0  0
  4  2  1  0  0  0  0
  5 11  1  0  0  0  0
  6 19  1  0  0  0  0
  7 20  1  0  0  0  0
  8 19  1  0  0  0  0
  9  8  1  0  0  0  0
 10  4  1  0  0  0  0
 10 12  1  0  0  0  0
 11  9  1  0  0  0  0
 12 17  1  0  0  0  0
 13 10  1  0  0  0  0
 14  7  1  0  0  0  0
 15 14  1  0  0  0  0
 16  7  1  0  0  0  0
 17  5  1  0  0  0  0
 17 31  1  0  0  0  0
 18 13  1  0  0  0  0
 18  3  1  0  0  0  0
 20  9  1  0  0  0  0
 20  6  1  0  0  0  0
 21 26  1  0  0  0  0
 22 21  2  0  0  0  0
 23 15  1  0  0  0  0
 24 21  1  0  0  0  0
 24 28  2  0  0  0  0
 25 23  2  0  0  0  0
 26 23  1  0  0  0  0
 27 26  1  0  0  0  0
 28 25  1  0  0  0  0
 29 30  1  0  0  0  0
 30 28  1  0  0  0  0
 32 31  1  0  0  0  0
M  END
>  <MODEL>
7

>  <REMARK>
 VINA RESULT:      -7.5      3.753      7.772
  Name = 
  3 active torsions:
  status: ('A' for Active; 'I' for Inactive)
    1  A    between atoms: C_13  and  C_29
    2  A    between atoms: O_15  and  C_26
    3  A    between atoms: C_16  and  C_27
                            x       y       z     vdW  Elec       q    Type
                         _______ _______ _______ _____ _____    ______ ____

>  <TORSDO>
F 3

$$$$
=
 OpenBabel10272413093D

 32 37  0  0  1  0  0  0  0  0999 V2000
  185.8580  178.1660  143.4380 N   0  0  1  0  0  0  0  0  0  0  0  0
  183.8430  178.6160  142.2080 C   0  0  1  0  0  3  0  0  0  0  0  0
  186.5790  178.6260  144.6350 C   0  0  0  0  0  2  0  0  0  0  0  0
  184.5790  178.8960  143.4710 C   0  0  1  0  0  3  0  0  0  0  0  0
  182.3920  178.2310  142.2420 C   0  0  2  0  0  3  0  0  0  0  0  0
  183.2180  179.1060  138.0330 S   0  0  0  0  0  0  0  0  0  0  0  0
  184.8970  178.8550  140.2810 C   0  0  2  0  0  3  0  0  0  0  0  0
  182.0360  176.9790  138.7770 C   0  0  0  0  0  2  0  0  0  0  0  0
  182.8130  177.3390  139.9520 N   0  0  2  0  0  0  0  0  0  0  0  0
  183.7210  178.4630  144.6620 C   0  0  2  0  0  3  0  0  0  0  0  0
  181.9100  178.1720  140.7830 C   0  0  0  0  0  2  0  0  0  0  0  0
  182.3350  179.1520  144.6150 C   0  0  0  0  0  2  0  0  0  0  0  0
  184.4580  178.7880  145.9530 C   0  0  0  0  0  2  0  0  0  0  0  0
  186.0300  177.9570  140.8620 C   0  0  0  0  0  2  0  0  0  0  0  0
  186.6770  178.4480  142.2110 C   0  0  2  0  0  3  0  0  0  0  0  0
  184.1880  179.5740  141.2540 O   0  0  0  0  0  0  0  0  0  0  0  0
  181.6640  179.1790  143.2090 C   0  0  2  0  0  3  0  0  0  0  0  0
  185.8610  178.1810  145.9120 C   0  0  0  0  0  2  0  0  0  0  0  0
  181.7900  178.1210  137.9820 O   0  0  0  0  0  0  0  0  0  0  0  0
  183.9220  178.0770  139.3380 C   0  0  1  0  0  3  0  0  0  0  0  0
  190.0970  176.6950  141.3190 C   0  0  0  0  0  0  0  0  0  0  0  0
  190.8570  176.3640  140.3660 O   0  0  0  0  0  0  0  0  0  0  0  0
  188.0110  177.7470  142.3120 C   0  0  0  0  0  0  0  0  0  0  0  0
  190.5690  176.4920  142.6910 C   0  0  0  0  0  3  0  0  0  0  0  0
  188.5270  177.5240  143.5310 C   0  0  0  0  0  3  0  0  0  0  0  0
  188.7300  177.2880  141.0500 C   0  0  1  0  0  3  0  0  0  0  0  0
  188.8290  178.4260  140.0470 C   0  0  0  0  0  1  0  0  0  0  0  0
  189.8260  176.8740  143.7390 C   0  0  0  0  0  0  0  0  0  0  0  0
  189.6310  177.2880  146.1710 C   0  0  0  0  0  1  0  0  0  0  0  0
  190.2740  176.7080  145.0490 O   0  0  0  0  0  0  0  0  0  0  0  0
  180.1960  178.7980  143.3460 C   0  0  0  0  0  2  0  0  0  0  0  0
  180.0740  177.6190  144.0970 O   0  0  0  0  0  1  0  0  0  0  0  0
  1  4  1  0  0  0  0
  1  3  1  1  0  0  0
  2 16  1  6  0  0  0
  2  5  1  0  0  0  0
  2  4  1  0  0  0  0
  3 18  1  0  0  0  0
  4 10  1  0  0  0  0
  5 17  1  0  0  0  0
  6 20  1  0  0  0  0
  7 14  1  0  0  0  0
  7 16  1  0  0  0  0
  8  9  1  0  0  0  0
  9 11  1  0  0  0  0
 10 13  1  0  0  0  0
 11  5  1  0  0  0  0
 12 10  1  0  0  0  0
 14 15  1  0  0  0  0
 15 23  1  0  0  0  0
 15  1  1  0  0  0  0
 17 31  1  0  0  0  0
 17 12  1  0  0  0  0
 18 13  1  0  0  0  0
 19  6  1  0  0  0  0
 19  8  1  0  0  0  0
 20  9  1  0  0  0  0
 20  7  1  0  0  0  0
 21 24  1  0  0  0  0
 22 21  2  0  0  0  0
 23 25  2  0  0  0  0
 24 28  2  0  0  0  0
 25 28  1  0  0  0  0
 26 21  1  0  0  0  0
 26 23  1  0  0  0  0
 27 26  1  0  0  0  0
 28 30  1  0  0  0  0
 30 29  1  0  0  0  0
 31 32  1  0  0  0  0
M  END
>  <MODEL>
8

>  <REMARK>
 VINA RESULT:      -7.3      3.419      6.420
  Name = 
  3 active torsions:
  status: ('A' for Active; 'I' for Inactive)
    1  A    between atoms: C_13  and  C_29
    2  A    between atoms: O_15  and  C_26
    3  A    between atoms: C_16  and  C_27
                            x       y       z     vdW  Elec       q    Type
                         _______ _______ _______ _____ _____    ______ ____

>  <TORSDO>
F 3

$$$$
=
 OpenBabel10272413093D

 32 37  0  0  1  0  0  0  0  0999 V2000
  189.1950  177.2350  139.3810 N   0  0  1  0  0  0  0  0  0  0  0  0
  188.9120  177.9400  141.6600 C   0  0  1  0  0  3  0  0  0  0  0  0
  190.1560  177.3500  138.2720 C   0  0  0  0  0  2  0  0  0  0  0  0
  189.8730  177.8640  140.5280 C   0  0  1  0  0  3  0  0  0  0  0  0
  189.3200  177.4990  143.0360 C   0  0  2  0  0  3  0  0  0  0  0  0
  185.5370  179.6210  143.6220 S   0  0  0  0  0  0  0  0  0  0  0  0
  186.9030  178.7890  141.3030 C   0  0  2  0  0  3  0  0  0  0  0  0
  185.9770  177.3190  144.6130 C   0  0  0  0  0  2  0  0  0  0  0  0
  186.8690  177.3480  143.4660 N   0  0  2  0  0  0  0  0  0  0  0  0
  191.1010  177.0600  140.9590 C   0  0  2  0  0  3  0  0  0  0  0  0
  188.1630  177.8540  143.9840 C   0  0  0  0  0  2  0  0  0  0  0  0
  191.7320  177.6690  142.2360 C   0  0  0  0  0  2  0  0  0  0  0  0
  192.1000  177.0180  139.8120 C   0  0  0  0  0  2  0  0  0  0  0  0
  186.7730  177.8100  140.0980 C   0  0  0  0  0  2  0  0  0  0  0  0
  187.9040  177.9050  139.0060 C   0  0  2  0  0  3  0  0  0  0  0  0
  188.2250  179.1530  141.5990 O   0  0  0  0  0  0  0  0  0  0  0  0
  190.7110  178.0830  143.3380 C   0  0  2  0  0  3  0  0  0  0  0  0
  191.4100  176.5140  138.5440 C   0  0  0  0  0  2  0  0  0  0  0  0
  185.6860  178.6340  145.0420 O   0  0  0  0  0  0  0  0  0  0  0  0
  186.1610  178.2840  142.5850 C   0  0  1  0  0  3  0  0  0  0  0  0
  186.3750  177.3440  135.4140 C   0  0  0  0  0  0  0  0  0  0  0  0
  186.0170  177.9290  134.3530 O   0  0  0  0  0  0  0  0  0  0  0  0
  187.3360  177.2670  137.7620 C   0  0  0  0  0  0  0  0  0  0  0  0
  186.3520  175.8790  135.4450 C   0  0  0  0  0  3  0  0  0  0  0  0
  187.2820  175.9270  137.6970 C   0  0  0  0  0  3  0  0  0  0  0  0
  186.8160  178.1370  136.6250 C   0  0  1  0  0  3  0  0  0  0  0  0
  187.8530  179.1790  136.2330 C   0  0  0  0  0  1  0  0  0  0  0  0
  186.7710  175.2060  136.5250 C   0  0  0  0  0  0  0  0  0  0  0  0
  185.8790  173.0490  137.3450 C   0  0  0  0  0  1  0  0  0  0  0  0
  186.7770  173.8130  136.5580 O   0  0  0  0  0  0  0  0  0  0  0  0
  191.2190  177.6130  144.6940 C   0  0  0  0  0  2  0  0  0  0  0  0
  191.6030  176.2650  144.6220 O   0  0  0  0  0  1  0  0  0  0  0  0
  1  3  1  6  0  0  0
  1  4  1  0  0  0  0
  2 16  1  1  0  0  0
  2  5  1  0  0  0  0
  3 18  1  0  0  0  0
  4 10  1  0  0  0  0
  4  2  1  0  0  0  0
  5 17  1  0  0  0  0
  5 11  1  0  0  0  0
  6 19  1  0  0  0  0
  7 16  1  0  0  0  0
  7 20  1  0  0  0  0
  8 19  1  0  0  0  0
  9 11  1  0  0  0  0
  9  8  1  0  0  0  0
 10 12  1  0  0  0  0
 12 17  1  0  0  0  0
 13 10  1  0  0  0  0
 14  7  1  0  0  0  0
 15  1  1  0  0  0  0
 15 14  1  0  0  0  0
 17 31  1  0  0  0  0
 18 13  1  0  0  0  0
 20  9  1  0  0  0  0
 20  6  1  0  0  0  0
 21 24  1  0  0  0  0
 21 26  1  0  0  0  0
 22 21  2  0  0  0  0
 23 15  1  0  0  0  0
 24 28  2  0  0  0  0
 25 23  2  0  0  0  0
 26 23  1  0  0  0  0
 27 26  1  0  0  0  0
 28 30  1  0  0  0  0
 28 25  1  0  0  0  0
 30 29  1  0  0  0  0
 32 31  1  0  0  0  0
M  END
>  <MODEL>
9

>  <REMARK>
 VINA RESULT:      -7.1      2.471      7.766
  Name = 
  3 active torsions:
  status: ('A' for Active; 'I' for Inactive)
    1  A    between atoms: C_13  and  C_29
    2  A    between atoms: O_15  and  C_26
    3  A    between atoms: C_16  and  C_27
                            x       y       z     vdW  Elec       q    Type
                         _______ _______ _______ _____ _____    ______ ____

>  <TORSDO>
F 3

$$$$
