=
 OpenBabel10272401533D

 28 32  0  0  1  0  0  0  0  0999 V2000
  188.7950  177.3330  138.1760 C   0  0  2  0  0  0  0  0  0  0  0  0
  190.2710  177.6090  137.8580 C   0  0  0  0  0  2  0  0  0  0  0  0
  190.6300  175.2800  137.0410 C   0  0  0  0  0  2  0  0  0  0  0  0
  190.9320  178.4990  143.2260 C   0  0  0  0  0  3  0  0  0  0  0  0
  185.1900  179.3470  141.1720 C   0  0  0  0  0  1  0  0  0  0  0  0
  190.7780  176.7570  136.6990 C   0  0  0  0  0  2  0  0  0  0  0  0
  188.5630  175.8180  138.3930 C   0  0  0  0  0  2  0  0  0  0  0  0
  189.0260  177.2560  144.0780 C   0  0  0  0  0  0  0  0  0  0  0  0
  188.8010  178.5120  141.8960 C   0  0  1  0  0  3  0  0  0  0  0  0
  189.1650  174.9170  137.2990 C   0  0  1  0  0  3  0  0  0  0  0  0
  191.1140  177.2690  145.3060 C   0  0  0  0  0  0  0  0  0  0  0  0
  189.6000  178.0890  143.0970 C   0  0  0  0  0  0  0  0  0  0  0  0
  186.9170  177.0990  142.7980 C   0  0  0  0  0  2  0  0  0  0  0  0
  189.7860  176.8550  145.1810 C   0  0  0  0  0  3  0  0  0  0  0  0
  186.9370  178.2780  139.6930 C   0  0  0  0  0  0  0  0  0  0  0  0
  189.1500  177.6250  140.7040 C   0  0  0  0  0  2  0  0  0  0  0  0
  187.6890  176.8550  143.9730 O   0  0  0  0  0  0  0  0  0  0  0  0
  186.4440  177.6860  137.3120 C   0  0  0  0  0  2  0  0  0  0  0  0
  186.4910  178.7140  140.9930 N   0  0  0  0  0  0  0  0  0  0  0  0
  186.0630  178.1630  138.6830 C   0  0  0  0  0  3  0  0  0  0  0  0
  191.8850  176.8580  146.4280 N   0  0  0  0  0  1  0  0  0  0  0  0
  191.6870  178.0910  144.3310 C   0  0  0  0  0  3  0  0  0  0  0  0
  187.2890  178.4550  142.1920 C   0  0  2  0  0  3  0  0  0  0  0  0
  187.9330  177.8760  137.0270 C   0  0  0  0  0  2  0  0  0  0  0  0
  188.4270  178.1200  139.4520 C   0  0  1  0  0  3  0  0  0  0  0  0
  188.3300  174.9060  136.0140 C   0  0  1  0  0  3  0  0  0  0  0  0
  189.0150  174.2370  134.9990 O   0  0  0  0  0  1  0  0  0  0  0  0
  187.0030  174.2080  136.2490 C   0  0  0  0  0  1  0  0  0  0  0  0
  1 24  1  6  0  0  0
  1  7  1  0  0  0  0
  1 25  1  0  0  0  0
  2  1  1  0  0  0  0
  3 10  1  0  0  0  0
  4 22  1  0  0  0  0
  6  3  1  0  0  0  0
  6  2  1  0  0  0  0
  8 14  2  0  0  0  0
  9 16  1  6  0  0  0
  9 23  1  0  0  0  0
  9 12  1  0  0  0  0
 10 26  1  6  0  0  0
 10  7  1  0  0  0  0
 11 21  1  0  0  0  0
 12  4  2  0  0  0  0
 12  8  1  0  0  0  0
 13 17  1  0  0  0  0
 14 11  1  0  0  0  0
 15 19  1  0  0  0  0
 17  8  1  0  0  0  0
 18 20  1  0  0  0  0
 19  5  1  0  0  0  0
 19 23  1  0  0  0  0
 20 15  2  0  0  0  0
 22 11  2  0  0  0  0
 23 13  1  6  0  0  0
 24 18  1  0  0  0  0
 25 15  1  0  0  0  0
 25 16  1  1  0  0  0
 26 28  1  1  0  0  0
 27 26  1  0  0  0  0
M  END
>  <MODEL>
1

>  <REMARK>
 VINA RESULT:      -7.1      0.000      0.000
  Name = 
  1 active torsions:
  status: ('A' for Active; 'I' for Inactive)
    1  A    between atoms: C_6  and  C_11
                            x       y       z     vdW  Elec       q    Type
                         _______ _______ _______ _____ _____    ______ ____

>  <TORSDO>
F 1

$$$$
=
 OpenBabel10272401533D

 28 32  0  0  1  0  0  0  0  0999 V2000
  183.9930  176.2920  137.1600 C   0  0  2  0  0  0  0  0  0  0  0  0
  185.4660  175.9800  137.4610 C   0  0  0  0  0  2  0  0  0  0  0  0
  185.0080  173.5360  137.6570 C   0  0  0  0  0  2  0  0  0  0  0  0
  184.8520  179.0040  141.9910 C   0  0  0  0  0  3  0  0  0  0  0  0
  180.9070  180.3430  137.4560 C   0  0  0  0  0  1  0  0  0  0  0  0
  185.8700  174.5910  136.9760 C   0  0  0  0  0  2  0  0  0  0  0  0
  183.0800  175.1690  137.7120 C   0  0  0  0  0  2  0  0  0  0  0  0
  182.4400  178.8570  142.2500 C   0  0  0  0  0  0  0  0  0  0  0  0
  183.4230  178.9860  139.9240 C   0  0  1  0  0  3  0  0  0  0  0  0
  183.5240  173.7440  137.3380 C   0  0  1  0  0  3  0  0  0  0  0  0
  183.8730  178.8620  144.2030 C   0  0  0  0  0  0  0  0  0  0  0  0
  183.5750  178.9590  141.4190 C   0  0  0  0  0  0  0  0  0  0  0  0
  180.9430  178.7110  140.2880 C   0  0  0  0  0  2  0  0  0  0  0  0
  182.5960  178.8140  143.6380 C   0  0  0  0  0  3  0  0  0  0  0  0
  182.3710  178.2890  137.3190 C   0  0  0  0  0  0  0  0  0  0  0  0
  183.6860  177.5960  139.3520 C   0  0  0  0  0  2  0  0  0  0  0  0
  181.1560  178.8320  141.6940 O   0  0  0  0  0  0  0  0  0  0  0  0
  182.3880  176.8340  135.2820 C   0  0  0  0  0  2  0  0  0  0  0  0
  181.7980  179.3720  138.0790 N   0  0  0  0  0  0  0  0  0  0  0  0
  181.8680  177.9670  136.1180 C   0  0  0  0  0  3  0  0  0  0  0  0
  184.0280  178.8160  145.6160 N   0  0  0  0  0  1  0  0  0  0  0  0
  185.0000  178.9570  143.3810 C   0  0  0  0  0  3  0  0  0  0  0  0
  182.0210  179.4830  139.5210 C   0  0  2  0  0  3  0  0  0  0  0  0
  183.8240  176.4610  135.6430 C   0  0  0  0  0  2  0  0  0  0  0  0
  183.6450  177.6400  137.8250 C   0  0  1  0  0  3  0  0  0  0  0  0
  183.1800  173.3750  135.8900 C   0  0  1  0  0  3  0  0  0  0  0  0
  183.7790  172.1620  135.5460 O   0  0  0  0  0  1  0  0  0  0  0  0
  181.6780  173.2420  135.7190 C   0  0  0  0  0  1  0  0  0  0  0  0
  1 24  1  6  0  0  0
  1  2  1  0  0  0  0
  1  7  1  0  0  0  0
  1 25  1  0  0  0  0
  4 22  1  0  0  0  0
  5 19  1  0  0  0  0
  6  2  1  0  0  0  0
  6  3  1  0  0  0  0
  8 14  2  0  0  0  0
  9 16  1  1  0  0  0
  9 12  1  0  0  0  0
 10 26  1  6  0  0  0
 10  3  1  0  0  0  0
 10  7  1  0  0  0  0
 11 21  1  0  0  0  0
 12  4  2  0  0  0  0
 12  8  1  0  0  0  0
 13 17  1  0  0  0  0
 14 11  1  0  0  0  0
 15 25  1  0  0  0  0
 15 19  1  0  0  0  0
 17  8  1  0  0  0  0
 18 24  1  0  0  0  0
 18 20  1  0  0  0  0
 19 23  1  0  0  0  0
 20 15  2  0  0  0  0
 22 11  2  0  0  0  0
 23  9  1  0  0  0  0
 23 13  1  1  0  0  0
 25 16  1  1  0  0  0
 26 28  1  1  0  0  0
 27 26  1  0  0  0  0
M  END
>  <MODEL>
2

>  <REMARK>
 VINA RESULT:      -6.4      4.619      5.988
  Name = 
  1 active torsions:
  status: ('A' for Active; 'I' for Inactive)
    1  A    between atoms: C_6  and  C_11
                            x       y       z     vdW  Elec       q    Type
                         _______ _______ _______ _____ _____    ______ ____

>  <TORSDO>
F 1

$$$$
=
 OpenBabel10272401533D

 28 32  0  0  1  0  0  0  0  0999 V2000
  182.9280  178.0720  139.7430 C   0  0  2  0  0  0  0  0  0  0  0  0
  183.3520  178.4160  138.3090 C   0  0  0  0  0  2  0  0  0  0  0  0
  182.6140  176.1920  137.4540 C   0  0  0  0  0  2  0  0  0  0  0  0
  188.4680  178.7710  140.2460 C   0  0  0  0  0  3  0  0  0  0  0  0
  184.0620  179.6760  144.4510 C   0  0  0  0  0  1  0  0  0  0  0  0
  182.4970  177.7000  137.2690 C   0  0  0  0  0  2  0  0  0  0  0  0
  182.8940  176.5360  139.9430 C   0  0  0  0  0  2  0  0  0  0  0  0
  188.2400  177.3990  142.2380 C   0  0  0  0  0  0  0  0  0  0  0  0
  186.3080  178.8650  141.5250 C   0  0  1  0  0  3  0  0  0  0  0  0
  182.1350  175.7670  138.8460 C   0  0  1  0  0  3  0  0  0  0  0  0
  190.2920  177.3410  140.9520 C   0  0  0  0  0  0  0  0  0  0  0  0
  187.7050  178.3430  141.3380 C   0  0  0  0  0  0  0  0  0  0  0  0
  186.1210  177.3200  143.5090 C   0  0  0  0  0  2  0  0  0  0  0  0
  189.5340  176.9080  142.0430 C   0  0  0  0  0  3  0  0  0  0  0  0
  183.4820  178.8090  142.1510 C   0  0  0  0  0  0  0  0  0  0  0  0
  185.3470  178.1130  140.6080 C   0  0  0  0  0  2  0  0  0  0  0  0
  187.4970  176.9770  143.3470 O   0  0  0  0  0  0  0  0  0  0  0  0
  181.1040  178.4500  141.4550 C   0  0  0  0  0  2  0  0  0  0  0  0
  184.4570  179.0980  143.1730 N   0  0  0  0  0  0  0  0  0  0  0  0
  182.1760  178.7750  142.4550 C   0  0  0  0  0  3  0  0  0  0  0  0
  191.6070  176.8370  140.7540 N   0  0  0  0  0  1  0  0  0  0  0  0
  189.7600  178.2720  140.0540 C   0  0  0  0  0  3  0  0  0  0  0  0
  185.8650  178.7390  142.9960 C   0  0  2  0  0  3  0  0  0  0  0  0
  181.5570  178.7060  140.0180 C   0  0  0  0  0  2  0  0  0  0  0  0
  183.9460  178.7140  140.7100 C   0  0  1  0  0  3  0  0  0  0  0  0
  180.6130  175.8660  138.9960 C   0  0  1  0  0  3  0  0  0  0  0  0
  179.9820  175.3560  137.8600 O   0  0  0  0  0  1  0  0  0  0  0  0
  180.1470  175.0790  140.2070 C   0  0  0  0  0  1  0  0  0  0  0  0
  1  2  1  6  0  0  0
  1  7  1  0  0  0  0
  1 24  1  0  0  0  0
  1 25  1  0  0  0  0
  3 10  1  0  0  0  0
  4 12  1  0  0  0  0
  6  3  1  0  0  0  0
  6  2  1  0  0  0  0
  8 17  1  0  0  0  0
  9 16  1  6  0  0  0
  9 23  1  0  0  0  0
 10 26  1  6  0  0  0
 10  7  1  0  0  0  0
 11 14  2  0  0  0  0
 12  9  1  0  0  0  0
 12  8  2  0  0  0  0
 14  8  1  0  0  0  0
 15 20  2  0  0  0  0
 15 19  1  0  0  0  0
 17 13  1  0  0  0  0
 18 20  1  0  0  0  0
 19  5  1  0  0  0  0
 21 11  1  0  0  0  0
 22  4  2  0  0  0  0
 22 11  1  0  0  0  0
 23 19  1  0  0  0  0
 23 13  1  6  0  0  0
 24 18  1  0  0  0  0
 25 16  1  1  0  0  0
 25 15  1  0  0  0  0
 26 28  1  1  0  0  0
 27 26  1  0  0  0  0
M  END
>  <MODEL>
3

>  <REMARK>
 VINA RESULT:      -6.2      3.644      5.528
  Name = 
  1 active torsions:
  status: ('A' for Active; 'I' for Inactive)
    1  A    between atoms: C_6  and  C_11
                            x       y       z     vdW  Elec       q    Type
                         _______ _______ _______ _____ _____    ______ ____

>  <TORSDO>
F 1

$$$$
=
 OpenBabel10272401533D

 28 32  0  0  1  0  0  0  0  0999 V2000
  183.3400  176.6530  136.8810 C   0  0  2  0  0  0  0  0  0  0  0  0
  184.7950  176.2000  136.6970 C   0  0  0  0  0  2  0  0  0  0  0  0
  184.1560  173.7900  136.7720 C   0  0  0  0  0  2  0  0  0  0  0  0
  185.8300  178.6550  141.4880 C   0  0  0  0  0  3  0  0  0  0  0  0
  180.9160  180.8430  138.4920 C   0  0  0  0  0  1  0  0  0  0  0  0
  184.8930  174.8600  135.9760 C   0  0  0  0  0  2  0  0  0  0  0  0
  182.5090  175.5370  137.5630 C   0  0  0  0  0  2  0  0  0  0  0  0
  183.5930  178.6490  142.4360 C   0  0  0  0  0  0  0  0  0  0  0  0
  183.8760  179.0040  139.9490 C   0  0  1  0  0  3  0  0  0  0  0  0
  182.6740  174.1430  136.9310 C   0  0  1  0  0  3  0  0  0  0  0  0
  185.5180  178.3000  143.8640 C   0  0  0  0  0  0  0  0  0  0  0  0
  184.4460  178.7750  141.3200 C   0  0  0  0  0  0  0  0  0  0  0  0
  181.5890  178.8640  141.0030 C   0  0  0  0  0  2  0  0  0  0  0  0
  184.1350  178.4170  143.7030 C   0  0  0  0  0  3  0  0  0  0  0  0
  182.0520  178.7240  137.7180 C   0  0  0  0  0  0  0  0  0  0  0  0
  183.8140  177.6830  139.1860 C   0  0  0  0  0  2  0  0  0  0  0  0
  182.2080  178.7870  142.2870 O   0  0  0  0  0  0  0  0  0  0  0  0
  181.3300  177.5450  135.6310 C   0  0  0  0  0  2  0  0  0  0  0  0
  181.8400  179.7390  138.7190 N   0  0  0  0  0  0  0  0  0  0  0  0
  181.1950  178.5960  136.6940 C   0  0  0  0  0  3  0  0  0  0  0  0
  186.0660  178.0630  145.1550 N   0  0  0  0  0  1  0  0  0  0  0  0
  186.3650  178.4200  142.7580 C   0  0  0  0  0  3  0  0  0  0  0  0
  182.4770  179.6480  140.0340 C   0  0  2  0  0  3  0  0  0  0  0  0
  182.7610  177.0270  135.5090 C   0  0  0  0  0  2  0  0  0  0  0  0
  183.3420  177.9260  137.7540 C   0  0  1  0  0  3  0  0  0  0  0  0
  181.8920  173.9880  135.6220 C   0  0  1  0  0  3  0  0  0  0  0  0
  182.2420  172.7950  134.9890 O   0  0  0  0  0  1  0  0  0  0  0  0
  180.3980  173.9760  135.8940 C   0  0  0  0  0  1  0  0  0  0  0  0
  1 24  1  6  0  0  0
  1  7  1  0  0  0  0
  1 25  1  0  0  0  0
  2  1  1  0  0  0  0
  3 10  1  0  0  0  0
  4 22  1  0  0  0  0
  5 19  1  0  0  0  0
  6  2  1  0  0  0  0
  6  3  1  0  0  0  0
  8 14  2  0  0  0  0
  9 16  1  1  0  0  0
  9 23  1  0  0  0  0
  9 12  1  0  0  0  0
 10 26  1  6  0  0  0
 10  7  1  0  0  0  0
 11 21  1  0  0  0  0
 12  4  2  0  0  0  0
 12  8  1  0  0  0  0
 13 17  1  0  0  0  0
 14 11  1  0  0  0  0
 15 25  1  0  0  0  0
 15 19  1  0  0  0  0
 17  8  1  0  0  0  0
 18 20  1  0  0  0  0
 19 23  1  0  0  0  0
 20 15  2  0  0  0  0
 22 11  2  0  0  0  0
 23 13  1  1  0  0  0
 24 18  1  0  0  0  0
 25 16  1  1  0  0  0
 26 28  1  1  0  0  0
 27 26  1  0  0  0  0
M  END
>  <MODEL>
4

>  <REMARK>
 VINA RESULT:      -5.9      4.237      5.836
  Name = 
  1 active torsions:
  status: ('A' for Active; 'I' for Inactive)
    1  A    between atoms: C_6  and  C_11
                            x       y       z     vdW  Elec       q    Type
                         _______ _______ _______ _____ _____    ______ ____

>  <TORSDO>
F 1

$$$$
=
 OpenBabel10272401533D

 28 32  0  0  1  0  0  0  0  0999 V2000
  187.2670  177.3250  136.4340 C   0  0  2  0  0  0  0  0  0  0  0  0
  187.5280  178.8260  136.6130 C   0  0  0  0  0  2  0  0  0  0  0  0
  189.3460  178.4100  138.2690 C   0  0  0  0  0  2  0  0  0  0  0  0
  182.4130  179.1610  138.5550 C   0  0  0  0  0  3  0  0  0  0  0  0
  183.4310  174.3780  134.8130 C   0  0  0  0  0  1  0  0  0  0  0  0
  188.9820  179.1180  136.9710 C   0  0  0  0  0  2  0  0  0  0  0  0
  187.7530  176.5390  137.6770 C   0  0  0  0  0  2  0  0  0  0  0  0
  182.0910  176.8530  139.2420 C   0  0  0  0  0  0  0  0  0  0  0  0
  183.4320  177.3400  137.1550 C   0  0  1  0  0  3  0  0  0  0  0  0
  189.1780  176.8930  138.1380 C   0  0  1  0  0  3  0  0  0  0  0  0
  181.1480  178.6540  140.5580 C   0  0  0  0  0  0  0  0  0  0  0  0
  182.6200  177.7940  138.3360 C   0  0  0  0  0  0  0  0  0  0  0  0
  183.1460  174.9860  138.0110 C   0  0  0  0  0  2  0  0  0  0  0  0
  181.3530  177.2880  140.3460 C   0  0  0  0  0  3  0  0  0  0  0  0
  185.3560  175.7760  135.6620 C   0  0  0  0  0  0  0  0  0  0  0  0
  184.9200  177.4760  137.4680 C   0  0  0  0  0  2  0  0  0  0  0  0
  182.2720  175.4820  139.0250 O   0  0  0  0  0  0  0  0  0  0  0  0
  187.7010  175.3710  134.8870 C   0  0  0  0  0  2  0  0  0  0  0  0
  183.9730  175.3740  135.7280 N   0  0  0  0  0  0  0  0  0  0  0  0
  186.2410  175.0370  134.9760 C   0  0  0  0  0  3  0  0  0  0  0  0
  180.3990  179.0940  141.6840 N   0  0  0  0  0  1  0  0  0  0  0  0
  181.6770  179.5900  139.6640 C   0  0  0  0  0  3  0  0  0  0  0  0
  183.0870  175.8870  136.7750 C   0  0  2  0  0  3  0  0  0  0  0  0
  187.9740  176.8500  135.1560 C   0  0  0  0  0  2  0  0  0  0  0  0
  185.7490  177.1250  136.2340 C   0  0  1  0  0  3  0  0  0  0  0  0
  190.2610  176.2590  137.2580 C   0  0  1  0  0  3  0  0  0  0  0  0
  191.5260  176.6800  137.6710 O   0  0  0  0  0  1  0  0  0  0  0  0
  190.1990  174.7450  137.3460 C   0  0  0  0  0  1  0  0  0  0  0  0
  1 24  1  6  0  0  0
  1  2  1  0  0  0  0
  1  7  1  0  0  0  0
  2  6  1  0  0  0  0
  4 22  1  0  0  0  0
  5 19  1  0  0  0  0
  6  3  1  0  0  0  0
  7 10  1  0  0  0  0
  8 14  2  0  0  0  0
  9 16  1  1  0  0  0
  9 12  1  0  0  0  0
 10 26  1  6  0  0  0
 10  3  1  0  0  0  0
 11 21  1  0  0  0  0
 12  4  2  0  0  0  0
 12  8  1  0  0  0  0
 13 17  1  0  0  0  0
 14 11  1  0  0  0  0
 15 19  1  0  0  0  0
 15 25  1  0  0  0  0
 17  8  1  0  0  0  0
 18 20  1  0  0  0  0
 18 24  1  0  0  0  0
 19 23  1  0  0  0  0
 20 15  2  0  0  0  0
 22 11  2  0  0  0  0
 23  9  1  0  0  0  0
 23 13  1  1  0  0  0
 25  1  1  0  0  0  0
 25 16  1  1  0  0  0
 26 28  1  1  0  0  0
 26 27  1  0  0  0  0
M  END
>  <MODEL>
5

>  <REMARK>
 VINA RESULT:      -5.8      4.672      6.687
  Name = 
  1 active torsions:
  status: ('A' for Active; 'I' for Inactive)
    1  A    between atoms: C_6  and  C_11
                            x       y       z     vdW  Elec       q    Type
                         _______ _______ _______ _____ _____    ______ ____

>  <TORSDO>
F 1

$$$$
=
 OpenBabel10272401533D

 28 32  0  0  1  0  0  0  0  0999 V2000
  189.8770  177.4620  141.1590 C   0  0  2  0  0  0  0  0  0  0  0  0
  188.5370  178.1910  141.3340 C   0  0  0  0  0  2  0  0  0  0  0  0
  187.9850  176.8820  143.3850 C   0  0  0  0  0  2  0  0  0  0  0  0
  187.0840  176.0130  136.5190 C   0  0  0  0  0  3  0  0  0  0  0  0
  193.1590  176.5640  137.3580 C   0  0  0  0  0  1  0  0  0  0  0  0
  188.1210  178.2810  142.7990 C   0  0  0  0  0  2  0  0  0  0  0  0
  189.8390  176.0830  141.8630 C   0  0  0  0  0  2  0  0  0  0  0  0
  188.6050  174.1190  136.4580 C   0  0  0  0  0  0  0  0  0  0  0  0
  189.3930  176.2990  137.4650 C   0  0  1  0  0  3  0  0  0  0  0  0
  189.3120  176.1200  143.3090 C   0  0  1  0  0  3  0  0  0  0  0  0
  186.3590  173.9020  135.5760 C   0  0  0  0  0  0  0  0  0  0  0  0
  188.3420  175.4640  136.7910 C   0  0  0  0  0  0  0  0  0  0  0  0
  190.8580  174.2460  137.4660 C   0  0  0  0  0  2  0  0  0  0  0  0
  187.6120  173.3470  135.8470 C   0  0  0  0  0  3  0  0  0  0  0  0
  191.5590  176.9410  139.2760 C   0  0  0  0  0  0  0  0  0  0  0  0
  189.1320  176.3450  138.9690 C   0  0  0  0  0  2  0  0  0  0  0  0
  189.8640  173.5610  136.7050 O   0  0  0  0  0  0  0  0  0  0  0  0
  192.3690  177.7050  141.5180 C   0  0  0  0  0  2  0  0  0  0  0  0
  191.8300  176.4530  137.9470 N   0  0  0  0  0  0  0  0  0  0  0  0
  192.5710  177.2250  140.1100 C   0  0  0  0  0  3  0  0  0  0  0  0
  185.3510  173.1140  134.9560 N   0  0  0  0  0  1  0  0  0  0  0  0
  186.0950  175.2340  135.9100 C   0  0  0  0  0  3  0  0  0  0  0  0
  190.8040  175.7490  137.1770 C   0  0  2  0  0  3  0  0  0  0  0  0
  190.9980  178.3500  141.7180 C   0  0  0  0  0  2  0  0  0  0  0  0
  190.1290  177.2840  139.6460 C   0  0  1  0  0  3  0  0  0  0  0  0
  190.3480  176.6510  144.3050 C   0  0  1  0  0  3  0  0  0  0  0  0
  189.7900  176.7410  145.5810 O   0  0  0  0  0  1  0  0  0  0  0  0
  191.5510  175.7260  144.3640 C   0  0  0  0  0  1  0  0  0  0  0  0
  1  2  1  1  0  0  0
  1 24  1  0  0  0  0
  1  7  1  0  0  0  0
  2  6  1  0  0  0  0
  4 12  1  0  0  0  0
  5 19  1  0  0  0  0
  6  3  1  0  0  0  0
  7 10  1  0  0  0  0
  8 17  1  0  0  0  0
  8 12  2  0  0  0  0
  9 16  1  1  0  0  0
 10  3  1  0  0  0  0
 10 26  1  1  0  0  0
 11 14  2  0  0  0  0
 11 22  1  0  0  0  0
 12  9  1  0  0  0  0
 14  8  1  0  0  0  0
 15 25  1  0  0  0  0
 15 20  2  0  0  0  0
 17 13  1  0  0  0  0
 18 24  1  0  0  0  0
 19 15  1  0  0  0  0
 20 18  1  0  0  0  0
 21 11  1  0  0  0  0
 22  4  2  0  0  0  0
 23  9  1  0  0  0  0
 23 13  1  1  0  0  0
 23 19  1  0  0  0  0
 25 16  1  1  0  0  0
 25  1  1  0  0  0  0
 26 28  1  1  0  0  0
 26 27  1  0  0  0  0
M  END
>  <MODEL>
6

>  <REMARK>
 VINA RESULT:      -5.7      2.625      7.678
  Name = 
  1 active torsions:
  status: ('A' for Active; 'I' for Inactive)
    1  A    between atoms: C_6  and  C_11
                            x       y       z     vdW  Elec       q    Type
                         _______ _______ _______ _____ _____    ______ ____

>  <TORSDO>
F 1

$$$$
=
 OpenBabel10272401533D

 28 32  0  0  1  0  0  0  0  0999 V2000
  190.1860  177.5710  141.3330 C   0  0  2  0  0  0  0  0  0  0  0  0
  189.1220  178.5330  141.8800 C   0  0  0  0  0  2  0  0  0  0  0  0
  188.7480  177.1230  143.9030 C   0  0  0  0  0  2  0  0  0  0  0  0
  186.1850  177.3200  137.4140 C   0  0  0  0  0  3  0  0  0  0  0  0
  192.2550  176.4930  136.7970 C   0  0  0  0  0  1  0  0  0  0  0  0
  189.0700  178.5260  143.4040 C   0  0  0  0  0  2  0  0  0  0  0  0
  189.9870  176.1530  141.9240 C   0  0  0  0  0  2  0  0  0  0  0  0
  187.1760  175.1740  136.8500 C   0  0  0  0  0  0  0  0  0  0  0  0
  188.6480  177.0010  137.7920 C   0  0  1  0  0  3  0  0  0  0  0  0
  189.8140  176.1190  143.4530 C   0  0  1  0  0  3  0  0  0  0  0  0
  184.8040  175.5390  136.5250 C   0  0  0  0  0  0  0  0  0  0  0  0
  187.3100  176.4920  137.3330 C   0  0  0  0  0  0  0  0  0  0  0  0
  189.5630  174.7060  137.2900 C   0  0  0  0  0  2  0  0  0  0  0  0
  185.9230  174.7070  136.4430 C   0  0  0  0  0  3  0  0  0  0  0  0
  191.2470  176.9510  139.0670 C   0  0  0  0  0  0  0  0  0  0  0  0
  188.7410  176.9140  139.3140 C   0  0  0  0  0  2  0  0  0  0  0  0
  188.2960  174.3420  136.7440 O   0  0  0  0  0  0  0  0  0  0  0  0
  192.6830  177.2460  141.0960 C   0  0  0  0  0  2  0  0  0  0  0  0
  191.0990  176.5870  137.6800 N   0  0  0  0  0  0  0  0  0  0  0  0
  192.4540  176.9130  139.6500 C   0  0  0  0  0  3  0  0  0  0  0  0
  183.5300  175.0590  136.1120 N   0  0  0  0  0  1  0  0  0  0  0  0
  184.9340  176.8440  137.0090 C   0  0  0  0  0  3  0  0  0  0  0  0
  189.7950  176.2110  137.1320 C   0  0  2  0  0  3  0  0  0  0  0  0
  191.5760  178.1310  141.6680 C   0  0  0  0  0  2  0  0  0  0  0  0
  190.0510  177.5340  139.7960 C   0  0  1  0  0  3  0  0  0  0  0  0
  191.1370  176.2950  144.2050 C   0  0  1  0  0  3  0  0  0  0  0  0
  190.8950  176.5560  145.5550 O   0  0  0  0  0  1  0  0  0  0  0  0
  191.9820  175.0380  144.0960 C   0  0  0  0  0  1  0  0  0  0  0  0
  1 24  1  1  0  0  0
  1  2  1  0  0  0  0
  1  7  1  0  0  0  0
  2  6  1  0  0  0  0
  5 19  1  0  0  0  0
  6  3  1  0  0  0  0
  7 10  1  0  0  0  0
  8 12  2  0  0  0  0
  9 16  1  1  0  0  0
 10  3  1  0  0  0  0
 10 26  1  1  0  0  0
 11 22  1  0  0  0  0
 12  4  1  0  0  0  0
 12  9  1  0  0  0  0
 14 11  2  0  0  0  0
 14  8  1  0  0  0  0
 15 20  2  0  0  0  0
 15 25  1  0  0  0  0
 17  8  1  0  0  0  0
 17 13  1  0  0  0  0
 18 24  1  0  0  0  0
 19 15  1  0  0  0  0
 20 18  1  0  0  0  0
 21 11  1  0  0  0  0
 22  4  2  0  0  0  0
 23 13  1  1  0  0  0
 23 19  1  0  0  0  0
 23  9  1  0  0  0  0
 25 16  1  1  0  0  0
 25  1  1  0  0  0  0
 26 28  1  1  0  0  0
 26 27  1  0  0  0  0
M  END
>  <MODEL>
7

>  <REMARK>
 VINA RESULT:      -5.6      2.615      7.461
  Name = 
  1 active torsions:
  status: ('A' for Active; 'I' for Inactive)
    1  A    between atoms: C_6  and  C_11
                            x       y       z     vdW  Elec       q    Type
                         _______ _______ _______ _____ _____    ______ ____

>  <TORSDO>
F 1

$$$$
=
 OpenBabel10272401533D

 28 32  0  0  1  0  0  0  0  0999 V2000
  189.6830  175.6410  137.4970 C   0  0  2  0  0  0  0  0  0  0  0  0
  189.8990  176.0880  138.9500 C   0  0  0  0  0  2  0  0  0  0  0  0
  189.5610  178.4880  138.3620 C   0  0  0  0  0  2  0  0  0  0  0  0
  194.9830  174.0950  138.4710 C   0  0  0  0  0  3  0  0  0  0  0  0
  190.8730  171.5940  134.6280 C   0  0  0  0  0  1  0  0  0  0  0  0
  189.1210  177.3570  139.2820 C   0  0  0  0  0  2  0  0  0  0  0  0
  189.9820  176.8070  136.5230 C   0  0  0  0  0  2  0  0  0  0  0  0
  195.2180  174.1670  136.0540 C   0  0  0  0  0  0  0  0  0  0  0  0
  192.9710  173.5870  137.0550 C   0  0  1  0  0  3  0  0  0  0  0  0
  189.3040  178.1380  136.8940 C   0  0  1  0  0  3  0  0  0  0  0  0
  197.1170  174.6630  137.4740 C   0  0  0  0  0  0  0  0  0  0  0  0
  194.4230  173.9470  137.1970 C   0  0  0  0  0  0  0  0  0  0  0  0
  193.2810  173.8030  134.5620 C   0  0  0  0  0  2  0  0  0  0  0  0
  196.5630  174.5190  136.1990 C   0  0  0  0  0  3  0  0  0  0  0  0
  190.2830  173.6440  135.9820 C   0  0  0  0  0  0  0  0  0  0  0  0
  192.1080  174.8310  137.2470 C   0  0  0  0  0  2  0  0  0  0  0  0
  194.6780  174.0030  134.7730 O   0  0  0  0  0  0  0  0  0  0  0  0
  187.9780  174.6190  135.9330 C   0  0  0  0  0  2  0  0  0  0  0  0
  191.2640  172.7230  135.4630 N   0  0  0  0  0  0  0  0  0  0  0  0
  189.0440  173.6690  135.4690 C   0  0  0  0  0  3  0  0  0  0  0  0
  198.4850  175.0240  137.6190 N   0  0  0  0  0  1  0  0  0  0  0  0
  196.3280  174.4510  138.6090 C   0  0  0  0  0  3  0  0  0  0  0  0
  192.6940  172.9410  135.6830 C   0  0  2  0  0  3  0  0  0  0  0  0
  188.2400  175.1370  137.3460 C   0  0  0  0  0  2  0  0  0  0  0  0
  190.6280  174.4530  137.2170 C   0  0  1  0  0  3  0  0  0  0  0  0
  187.8140  178.1640  136.5380 C   0  0  1  0  0  3  0  0  0  0  0  0
  187.2370  179.3620  136.9650 O   0  0  0  0  0  1  0  0  0  0  0  0
  187.6230  178.0380  135.0380 C   0  0  0  0  0  1  0  0  0  0  0  0
  1  7  1  6  0  0  0
  1  2  1  0  0  0  0
  2  6  1  0  0  0  0
  3  6  1  0  0  0  0
  4 22  1  0  0  0  0
  5 19  1  0  0  0  0
  7 10  1  0  0  0  0
  8 14  2  0  0  0  0
  8 12  1  0  0  0  0
  9 12  1  0  0  0  0
  9 16  1  6  0  0  0
 10 26  1  1  0  0  0
 10  3  1  0  0  0  0
 11 21  1  0  0  0  0
 11 22  2  0  0  0  0
 12  4  2  0  0  0  0
 13 17  1  0  0  0  0
 14 11  1  0  0  0  0
 15 25  1  0  0  0  0
 17  8  1  0  0  0  0
 18 24  1  0  0  0  0
 19 23  1  0  0  0  0
 19 15  1  0  0  0  0
 20 18  1  0  0  0  0
 20 15  2  0  0  0  0
 23 13  1  6  0  0  0
 23  9  1  0  0  0  0
 24  1  1  0  0  0  0
 25 16  1  6  0  0  0
 25  1  1  0  0  0  0
 26 28  1  6  0  0  0
 26 27  1  0  0  0  0
M  END
>  <MODEL>
8

>  <REMARK>
 VINA RESULT:      -5.6      4.463      7.546
  Name = 
  1 active torsions:
  status: ('A' for Active; 'I' for Inactive)
    1  A    between atoms: C_6  and  C_11
                            x       y       z     vdW  Elec       q    Type
                         _______ _______ _______ _____ _____    ______ ____

>  <TORSDO>
F 1

$$$$
=
 OpenBabel10272401533D

 28 32  0  0  1  0  0  0  0  0999 V2000
  185.2920  175.6390  136.4890 C   0  0  2  0  0  0  0  0  0  0  0  0
  186.7950  175.7320  136.7870 C   0  0  0  0  0  2  0  0  0  0  0  0
  186.9340  173.3040  137.3370 C   0  0  0  0  0  2  0  0  0  0  0  0
  185.4520  179.1400  140.8650 C   0  0  0  0  0  3  0  0  0  0  0  0
  181.3240  178.8400  136.3060 C   0  0  0  0  0  1  0  0  0  0  0  0
  187.5220  174.4250  136.4890 C   0  0  0  0  0  2  0  0  0  0  0  0
  184.6710  174.4220  137.2190 C   0  0  0  0  0  2  0  0  0  0  0  0
  183.1450  178.4630  141.2130 C   0  0  0  0  0  0  0  0  0  0  0  0
  184.0800  178.4880  138.8650 C   0  0  1  0  0  3  0  0  0  0  0  0
  185.4460  173.1050  137.0360 C   0  0  1  0  0  3  0  0  0  0  0  0
  184.5260  179.0880  143.1030 C   0  0  0  0  0  0  0  0  0  0  0  0
  184.2260  178.7120  140.3430 C   0  0  0  0  0  0  0  0  0  0  0  0
  181.7360  177.6860  139.3360 C   0  0  0  0  0  2  0  0  0  0  0  0
  183.3000  178.6570  142.5880 C   0  0  0  0  0  3  0  0  0  0  0  0
  183.2370  177.1950  136.4150 C   0  0  0  0  0  0  0  0  0  0  0  0
  184.6710  177.1320  138.4850 C   0  0  0  0  0  2  0  0  0  0  0  0
  181.9070  178.0540  140.7050 O   0  0  0  0  0  0  0  0  0  0  0  0
  183.6120  175.5090  134.6030 C   0  0  0  0  0  2  0  0  0  0  0  0
  182.4190  178.2080  137.0330 N   0  0  0  0  0  0  0  0  0  0  0  0
  182.8320  176.5940  135.2860 C   0  0  0  0  0  3  0  0  0  0  0  0
  184.6810  179.2830  144.5030 N   0  0  0  0  0  1  0  0  0  0  0  0
  185.6010  179.3300  142.2420 C   0  0  0  0  0  3  0  0  0  0  0  0
  182.6010  178.5740  138.4370 C   0  0  2  0  0  3  0  0  0  0  0  0
  185.0940  175.5440  134.9690 C   0  0  0  0  0  2  0  0  0  0  0  0
  184.6280  176.9470  136.9690 C   0  0  1  0  0  3  0  0  0  0  0  0
  185.2070  172.4610  135.6660 C   0  0  1  0  0  3  0  0  0  0  0  0
  186.1210  171.4280  135.4520 O   0  0  0  0  0  1  0  0  0  0  0  0
  183.8010  171.8940  135.5840 C   0  0  0  0  0  1  0  0  0  0  0  0
  1 24  1  6  0  0  0
  1  2  1  0  0  0  0
  1 25  1  0  0  0  0
  1  7  1  0  0  0  0
  4 22  1  0  0  0  0
  5 19  1  0  0  0  0
  6  2  1  0  0  0  0
  6  3  1  0  0  0  0
  8 14  2  0  0  0  0
  9 16  1  1  0  0  0
  9 12  1  0  0  0  0
 10 26  1  6  0  0  0
 10  7  1  0  0  0  0
 10  3  1  0  0  0  0
 11 21  1  0  0  0  0
 12  4  2  0  0  0  0
 12  8  1  0  0  0  0
 13 17  1  0  0  0  0
 14 11  1  0  0  0  0
 15 25  1  0  0  0  0
 15 19  1  0  0  0  0
 17  8  1  0  0  0  0
 18 24  1  0  0  0  0
 18 20  1  0  0  0  0
 19 23  1  0  0  0  0
 20 15  2  0  0  0  0
 22 11  2  0  0  0  0
 23  9  1  0  0  0  0
 23 13  1  1  0  0  0
 25 16  1  1  0  0  0
 26 28  1  1  0  0  0
 27 26  1  0  0  0  0
M  END
>  <MODEL>
9

>  <REMARK>
 VINA RESULT:      -5.5      4.037      5.466
  Name = 
  1 active torsions:
  status: ('A' for Active; 'I' for Inactive)
    1  A    between atoms: C_6  and  C_11
                            x       y       z     vdW  Elec       q    Type
                         _______ _______ _______ _____ _____    ______ ____

>  <TORSDO>
F 1

$$$$
