=
 OpenBabel10272415093D

 34 39  0  0  1  0  0  0  0  0999 V2000
  190.0680  176.1670  138.4090 C   0  0  1  0  0  3  0  0  0  0  0  0
  191.9460  175.0060  135.1590 C   0  0  0  0  0  2  0  0  0  0  0  0
  190.4530  177.0190  135.6160 C   0  0  0  0  0  2  0  0  0  0  0  0
  189.0540  176.7350  140.5190 C   0  0  2  0  0  3  0  0  0  0  0  0
  190.2560  176.1810  139.8550 N   0  0  0  0  0  2  0  0  0  0  0  0
  189.0750  178.5150  138.6650 C   0  0  1  0  0  3  0  0  0  0  0  0
  188.2880  179.2160  137.7190 O   0  0  0  0  0  0  0  0  0  0  0  0
  188.2120  177.7300  139.6590 C   0  0  0  0  0  2  0  0  0  0  0  0
  189.3720  177.5040  136.5720 C   0  0  1  0  0  3  0  0  0  0  0  0
  189.9850  177.5880  137.9030 C   0  0  2  0  0  3  0  0  0  0  0  0
  188.8180  178.8910  136.4440 C   0  0  0  0  0  2  0  0  0  0  0  0
  192.6070  173.9460  135.8100 O   0  0  0  0  0  0  0  0  0  0  0  0
  193.7950  174.4250  136.4230 C   0  0  2  0  0  3  0  0  0  0  0  0
  193.7130  175.8350  137.0400 C   0  0  0  0  0  2  0  0  0  0  0  0
  190.8770  175.5990  136.0750 C   0  0  2  0  0  3  0  0  0  0  0  0
  192.5790  175.9960  138.0530 C   0  0  0  0  0  2  0  0  0  0  0  0
  191.1920  175.4760  137.6130 C   0  0  1  0  0  3  0  0  0  0  0  0
  191.2770  177.4520  143.4700 O   0  0  0  0  0  0  0  0  0  0  0  0
  188.5170  177.9690  144.1120 C   0  0  0  0  0  2  0  0  0  0  0  0
  191.2480  176.3310  147.0890 C   0  0  2  0  0  3  0  0  0  0  0  0
  191.8450  176.9490  145.8270 C   0  0  0  0  0  2  0  0  0  0  0  0
  190.8110  177.2570  144.7740 C   0  0  0  0  0  0  0  0  0  0  0  0
  189.4270  177.3000  141.8900 C   0  0  1  0  0  3  0  0  0  0  0  0
  188.9780  177.0900  146.4640 C   0  0  0  0  0  2  0  0  0  0  0  0
  189.5060  177.4220  145.0930 C   0  0  0  0  0  0  0  0  0  0  0  0
  190.0530  177.1560  147.5390 C   0  0  0  0  0  2  0  0  0  0  0  0
  188.3320  177.0490  142.9200 C   0  0  0  0  0  2  0  0  0  0  0  0
  190.7590  176.7300  142.3570 C   0  0  0  0  0  2  0  0  0  0  0  0
  192.2750  176.2680  148.1670 C   0  0  0  0  0  0  0  0  0  0  0  0
  192.8960  175.1950  148.3750 O   0  0  0  0  0  0  0  0  0  0  0  0
  192.5510  177.3860  148.9460 O   0  0  0  0  0  1  0  0  0  0  0  0
  194.9640  174.3020  135.5020 C   0  0  0  0  0  0  0  0  0  0  0  0
  195.2440  173.1980  134.9650 O   0  0  0  0  0  0  0  0  0  0  0  0
  195.7700  175.4430  135.2300 N   0  0  0  0  0  1  0  0  0  0  0  0
  1  5  1  1  0  0  0
  2 12  1  0  0  0  0
  2 15  1  0  0  0  0
  3 15  1  0  0  0  0
  4  8  1  6  0  0  0
  4 23  1  0  0  0  0
  5  4  1  0  0  0  0
  6  8  1  1  0  0  0
  7  6  1  0  0  0  0
  9  3  1  6  0  0  0
  9 10  1  0  0  0  0
 10  1  1  0  0  0  0
 10  6  1  0  0  0  0
 11  9  1  0  0  0  0
 11  7  1  0  0  0  0
 12 13  1  0  0  0  0
 13 14  1  0  0  0  0
 14 16  1  0  0  0  0
 15 17  1  0  0  0  0
 17 16  1  0  0  0  0
 17  1  1  0  0  0  0
 18 22  1  0  0  0  0
 19 25  1  0  0  0  0
 20 26  1  0  0  0  0
 20 29  1  0  0  0  0
 21 20  1  0  0  0  0
 22 25  2  0  0  0  0
 22 21  1  0  0  0  0
 23 28  1  0  0  0  0
 23 27  1  0  0  0  0
 24 26  1  0  0  0  0
 25 24  1  0  0  0  0
 27 19  1  0  0  0  0
 28 18  1  0  0  0  0
 29 30  2  0  0  0  0
 29 31  1  0  0  0  0
 32 13  1  0  0  0  0
 33 32  2  0  0  0  0
 34 32  1  0  0  0  0
M  END
>  <MODEL>
1

>  <REMARK>
 VINA RESULT:      -9.0      0.000      0.000
  Name = 
  3 active torsions:
  status: ('A' for Active; 'I' for Inactive)
    1  A    between atoms: C_3  and  C_25
    2  A    between atoms: C_7  and  C_11
    3  A    between atoms: C_8  and  C_18
                            x       y       z     vdW  Elec       q    Type
                         _______ _______ _______ _____ _____    ______ ____

>  <TORSDO>
F 3

$$$$
=
 OpenBabel10272415093D

 34 39  0  0  1  0  0  0  0  0999 V2000
  189.3980  177.1840  137.6350 C   0  0  1  0  0  3  0  0  0  0  0  0
  187.2330  177.2080  134.3560 C   0  0  0  0  0  2  0  0  0  0  0  0
  189.3480  175.9290  134.9710 C   0  0  0  0  0  2  0  0  0  0  0  0
  190.5440  177.2690  139.7510 C   0  0  2  0  0  3  0  0  0  0  0  0
  189.2250  177.2740  139.0800 N   0  0  0  0  0  2  0  0  0  0  0  0
  191.1660  175.3920  138.1080 C   0  0  1  0  0  3  0  0  0  0  0  0
  192.1540  174.9120  137.2140 O   0  0  0  0  0  0  0  0  0  0  0  0
  191.6890  176.5450  138.9730 C   0  0  0  0  0  2  0  0  0  0  0  0
  190.5300  175.9770  135.9310 C   0  0  1  0  0  3  0  0  0  0  0  0
  189.9860  175.8380  137.2870 C   0  0  2  0  0  3  0  0  0  0  0  0
  191.5450  174.8740  135.9340 C   0  0  0  0  0  2  0  0  0  0  0  0
  186.2350  178.0310  134.9120 O   0  0  0  0  0  0  0  0  0  0  0  0
  185.2960  177.2360  135.6220 C   0  0  2  0  0  3  0  0  0  0  0  0
  185.8780  176.0310  136.3880 C   0  0  0  0  0  2  0  0  0  0  0  0
  188.4420  177.1480  135.2880 C   0  0  2  0  0  3  0  0  0  0  0  0
  186.9930  176.4060  137.3650 C   0  0  0  0  0  2  0  0  0  0  0  0
  188.1010  177.3300  136.8140 C   0  0  1  0  0  3  0  0  0  0  0  0
  188.7490  176.4640  142.9600 O   0  0  0  0  0  0  0  0  0  0  0  0
  191.6020  176.4560  143.3490 C   0  0  0  0  0  2  0  0  0  0  0  0
  188.9140  177.8880  146.4670 C   0  0  2  0  0  3  0  0  0  0  0  0
  188.3180  177.0740  145.3210 C   0  0  0  0  0  2  0  0  0  0  0  0
  189.2900  176.8450  144.1920 C   0  0  0  0  0  0  0  0  0  0  0  0
  190.3960  176.7730  141.1910 C   0  0  1  0  0  3  0  0  0  0  0  0
  191.2140  177.4520  145.6670 C   0  0  0  0  0  2  0  0  0  0  0  0
  190.6270  176.9200  144.3850 C   0  0  0  0  0  0  0  0  0  0  0  0
  190.2660  177.3090  146.8500 C   0  0  0  0  0  2  0  0  0  0  0  0
  191.5220  177.2850  142.0820 C   0  0  0  0  0  2  0  0  0  0  0  0
  189.0350  177.1600  141.7510 C   0  0  0  0  0  2  0  0  0  0  0  0
  187.9920  177.8790  147.6390 C   0  0  0  0  0  0  0  0  0  0  0  0
  188.4620  177.7790  148.8010 O   0  0  0  0  0  1  0  0  0  0  0  0
  186.6170  177.9780  147.4570 O   0  0  0  0  0  0  0  0  0  0  0  0
  184.1630  176.8250  134.7420 C   0  0  0  0  0  0  0  0  0  0  0  0
  183.3180  177.6710  134.3480 O   0  0  0  0  0  0  0  0  0  0  0  0
  184.0360  175.4640  134.3460 N   0  0  0  0  0  1  0  0  0  0  0  0
  1  5  1  1  0  0  0
  2 12  1  0  0  0  0
  2 15  1  0  0  0  0
  3 15  1  0  0  0  0
  4  8  1  6  0  0  0
  4 23  1  0  0  0  0
  5  4  1  0  0  0  0
  6  8  1  6  0  0  0
  7  6  1  0  0  0  0
  9  3  1  6  0  0  0
  9 11  1  0  0  0  0
  9 10  1  0  0  0  0
 10  1  1  0  0  0  0
 10  6  1  0  0  0  0
 11  7  1  0  0  0  0
 12 13  1  0  0  0  0
 13 14  1  0  0  0  0
 14 16  1  0  0  0  0
 15 17  1  0  0  0  0
 17 16  1  0  0  0  0
 17  1  1  0  0  0  0
 18 22  1  0  0  0  0
 19 25  1  0  0  0  0
 20 26  1  0  0  0  0
 20 29  1  0  0  0  0
 21 20  1  0  0  0  0
 22 25  2  0  0  0  0
 22 21  1  0  0  0  0
 23 28  1  0  0  0  0
 23 27  1  0  0  0  0
 24 26  1  0  0  0  0
 25 24  1  0  0  0  0
 27 19  1  0  0  0  0
 28 18  1  0  0  0  0
 29 30  1  0  0  0  0
 31 29  2  0  0  0  0
 32 13  1  0  0  0  0
 33 32  2  0  0  0  0
 34 32  1  0  0  0  0
M  END
>  <MODEL>
2

>  <REMARK>
 VINA RESULT:      -8.8      2.939      5.329
  Name = 
  3 active torsions:
  status: ('A' for Active; 'I' for Inactive)
    1  A    between atoms: C_3  and  C_25
    2  A    between atoms: C_7  and  C_11
    3  A    between atoms: C_8  and  C_18
                            x       y       z     vdW  Elec       q    Type
                         _______ _______ _______ _____ _____    ______ ____

>  <TORSDO>
F 3

$$$$
=
 OpenBabel10272415093D

 34 39  0  0  1  0  0  0  0  0999 V2000
  181.5690  177.0120  139.0790 C   0  0  1  0  0  3  0  0  0  0  0  0
  181.1860  174.4990  136.0830 C   0  0  0  0  0  2  0  0  0  0  0  0
  181.1870  177.0460  136.1590 C   0  0  0  0  0  2  0  0  0  0  0  0
  181.8850  178.3750  141.0400 C   0  0  2  0  0  3  0  0  0  0  0  0
  182.2900  177.1340  140.3410 N   0  0  0  0  0  2  0  0  0  0  0  0
  182.0460  179.5060  138.7380 C   0  0  1  0  0  3  0  0  0  0  0  0
  181.4040  180.3790  137.8260 O   0  0  0  0  0  0  0  0  0  0  0  0
  181.3790  179.5290  140.1170 C   0  0  0  0  0  2  0  0  0  0  0  0
  180.9600  178.2060  137.1180 C   0  0  1  0  0  3  0  0  0  0  0  0
  182.0010  178.1210  138.1490 C   0  0  2  0  0  3  0  0  0  0  0  0
  181.1560  179.6180  136.6550 C   0  0  0  0  0  2  0  0  0  0  0  0
  181.4380  173.3670  136.8810 O   0  0  0  0  0  0  0  0  0  0  0  0
  182.8380  173.1540  136.9870 C   0  0  2  0  0  3  0  0  0  0  0  0
  183.7070  174.4250  137.0780 C   0  0  0  0  0  2  0  0  0  0  0  0
  181.0040  175.7330  136.9650 C   0  0  2  0  0  3  0  0  0  0  0  0
  183.3000  175.3650  138.2130 C   0  0  0  0  0  2  0  0  0  0  0  0
  181.7930  175.6860  138.3270 C   0  0  1  0  0  3  0  0  0  0  0  0
  185.3780  178.5760  142.4280 O   0  0  0  0  0  0  0  0  0  0  0  0
  183.4590  179.5800  144.3260 C   0  0  0  0  0  2  0  0  0  0  0  0
  186.9790  177.3730  145.6440 C   0  0  2  0  0  3  0  0  0  0  0  0
  186.9570  177.9050  144.2130 C   0  0  0  0  0  2  0  0  0  0  0  0
  185.6070  178.4320  143.8000 C   0  0  0  0  0  0  0  0  0  0  0  0
  182.9920  178.8190  141.9990 C   0  0  1  0  0  3  0  0  0  0  0  0
  184.8780  178.5610  146.1870 C   0  0  0  0  0  2  0  0  0  0  0  0
  184.6930  178.8290  144.7160 C   0  0  0  0  0  0  0  0  0  0  0  0
  186.3410  178.3920  146.5730 C   0  0  0  0  0  2  0  0  0  0  0  0
  182.5400  178.7470  143.4520 C   0  0  0  0  0  2  0  0  0  0  0  0
  184.2530  177.9960  141.7760 C   0  0  0  0  0  2  0  0  0  0  0  0
  188.3800  177.0870  146.0660 C   0  0  0  0  0  0  0  0  0  0  0  0
  189.2930  177.0340  145.2030 O   0  0  0  0  0  0  0  0  0  0  0  0
  188.6850  176.8770  147.4060 O   0  0  0  0  0  1  0  0  0  0  0  0
  183.3260  172.2380  135.9130 C   0  0  0  0  0  0  0  0  0  0  0  0
  184.1050  172.6590  135.0170 O   0  0  0  0  0  0  0  0  0  0  0  0
  182.9060  170.8790  135.9010 N   0  0  0  0  0  1  0  0  0  0  0  0
  1  5  1  1  0  0  0
  2 12  1  0  0  0  0
  2 15  1  0  0  0  0
  3 15  1  0  0  0  0
  4  8  1  6  0  0  0
  4 23  1  0  0  0  0
  5  4  1  0  0  0  0
  6  8  1  1  0  0  0
  7  6  1  0  0  0  0
  9  3  1  6  0  0  0
  9 10  1  0  0  0  0
 10  6  1  0  0  0  0
 10  1  1  0  0  0  0
 11  9  1  0  0  0  0
 11  7  1  0  0  0  0
 12 13  1  0  0  0  0
 13 14  1  0  0  0  0
 14 16  1  0  0  0  0
 15 17  1  0  0  0  0
 16 17  1  0  0  0  0
 17  1  1  0  0  0  0
 18 22  1  0  0  0  0
 19 25  1  0  0  0  0
 20 29  1  0  0  0  0
 20 26  1  0  0  0  0
 21 20  1  0  0  0  0
 22 21  1  0  0  0  0
 22 25  2  0  0  0  0
 23 27  1  0  0  0  0
 24 26  1  0  0  0  0
 25 24  1  0  0  0  0
 27 19  1  0  0  0  0
 28 23  1  0  0  0  0
 28 18  1  0  0  0  0
 29 31  1  0  0  0  0
 30 29  2  0  0  0  0
 32 13  1  0  0  0  0
 33 32  2  0  0  0  0
 34 32  1  0  0  0  0
M  END
>  <MODEL>
3

>  <REMARK>
 VINA RESULT:      -8.5      6.687      8.058
  Name = 
  3 active torsions:
  status: ('A' for Active; 'I' for Inactive)
    1  A    between atoms: C_3  and  C_25
    2  A    between atoms: C_7  and  C_11
    3  A    between atoms: C_8  and  C_18
                            x       y       z     vdW  Elec       q    Type
                         _______ _______ _______ _____ _____    ______ ____

>  <TORSDO>
F 3

$$$$
=
 OpenBabel10272415093D

 34 39  0  0  1  0  0  0  0  0999 V2000
  189.0540  175.5450  136.6390 C   0  0  1  0  0  3  0  0  0  0  0  0
  187.1400  172.8650  134.4960 C   0  0  0  0  0  2  0  0  0  0  0  0
  189.5000  172.8850  135.4560 C   0  0  0  0  0  2  0  0  0  0  0  0
  190.0210  177.2840  137.9970 C   0  0  2  0  0  3  0  0  0  0  0  0
  188.7900  176.5190  137.6930 N   0  0  0  0  0  2  0  0  0  0  0  0
  191.2360  175.0220  137.8760 C   0  0  1  0  0  3  0  0  0  0  0  0
  192.3630  174.3350  137.3630 O   0  0  0  0  0  0  0  0  0  0  0  0
  191.3620  176.5390  137.7030 C   0  0  0  0  0  2  0  0  0  0  0  0
  190.5680  173.8440  135.9640 C   0  0  1  0  0  3  0  0  0  0  0  0
  190.0200  174.5050  137.1540 C   0  0  2  0  0  3  0  0  0  0  0  0
  191.8550  173.3140  136.5200 C   0  0  0  0  0  2  0  0  0  0  0  0
  185.9220  173.5700  134.5370 O   0  0  0  0  0  0  0  0  0  0  0  0
  185.2160  173.2420  135.7250 C   0  0  2  0  0  3  0  0  0  0  0  0
  186.0790  173.0340  136.9850 C   0  0  0  0  0  2  0  0  0  0  0  0
  188.2680  173.7360  135.0490 C   0  0  2  0  0  3  0  0  0  0  0  0
  186.9900  174.2210  137.3060 C   0  0  0  0  0  2  0  0  0  0  0  0
  187.8130  174.7870  136.1280 C   0  0  1  0  0  3  0  0  0  0  0  0
  191.2160  177.9910  141.4960 O   0  0  0  0  0  0  0  0  0  0  0  0
  188.3930  178.5080  141.2490 C   0  0  0  0  0  2  0  0  0  0  0  0
  190.0620  176.8590  144.9230 C   0  0  2  0  0  3  0  0  0  0  0  0
  191.0220  177.4800  143.9110 C   0  0  0  0  0  2  0  0  0  0  0  0
  190.3680  177.7920  142.5900 C   0  0  0  0  0  0  0  0  0  0  0  0
  189.9500  177.8440  139.4190 C   0  0  1  0  0  3  0  0  0  0  0  0
  188.0990  177.6210  143.6250 C   0  0  0  0  0  2  0  0  0  0  0  0
  189.0280  177.9570  142.4870 C   0  0  0  0  0  0  0  0  0  0  0  0
  188.7870  177.6830  144.9820 C   0  0  0  0  0  2  0  0  0  0  0  0
  188.5880  177.5920  140.0560 C   0  0  0  0  0  2  0  0  0  0  0  0
  191.0700  177.2720  140.2750 C   0  0  0  0  0  2  0  0  0  0  0  0
  190.7030  176.7920  146.2670 C   0  0  0  0  0  0  0  0  0  0  0  0
  191.9530  176.8930  146.3680 O   0  0  0  0  0  0  0  0  0  0  0  0
  189.9310  176.6180  147.4100 O   0  0  0  0  0  1  0  0  0  0  0  0
  184.2930  172.0890  135.5030 C   0  0  0  0  0  0  0  0  0  0  0  0
  183.8770  171.8160  134.3460 O   0  0  0  0  0  0  0  0  0  0  0  0
  183.8800  171.2940  136.6080 N   0  0  0  0  0  1  0  0  0  0  0  0
  1 10  1  0  0  0  0
  1  5  1  1  0  0  0
  2 12  1  0  0  0  0
  2 15  1  0  0  0  0
  4  8  1  1  0  0  0
  4 23  1  0  0  0  0
  5  4  1  0  0  0  0
  6  8  1  6  0  0  0
  7  6  1  0  0  0  0
  9  3  1  1  0  0  0
  9 11  1  0  0  0  0
  9 10  1  0  0  0  0
 10  6  1  0  0  0  0
 11  7  1  0  0  0  0
 12 13  1  0  0  0  0
 13 14  1  0  0  0  0
 14 16  1  0  0  0  0
 15  3  1  0  0  0  0
 15 17  1  0  0  0  0
 17  1  1  0  0  0  0
 17 16  1  0  0  0  0
 18 22  1  0  0  0  0
 19 25  1  0  0  0  0
 20 26  1  0  0  0  0
 20 29  1  0  0  0  0
 21 20  1  0  0  0  0
 22 21  1  0  0  0  0
 23 27  1  0  0  0  0
 23 28  1  0  0  0  0
 24 26  1  0  0  0  0
 25 22  2  0  0  0  0
 25 24  1  0  0  0  0
 27 19  1  0  0  0  0
 28 18  1  0  0  0  0
 29 30  2  0  0  0  0
 29 31  1  0  0  0  0
 32 13  1  0  0  0  0
 32 34  1  0  0  0  0
 33 32  2  0  0  0  0
M  END
>  <MODEL>
4

>  <REMARK>
 VINA RESULT:      -8.3      3.661      5.316
  Name = 
  3 active torsions:
  status: ('A' for Active; 'I' for Inactive)
    1  A    between atoms: C_3  and  C_25
    2  A    between atoms: C_7  and  C_11
    3  A    between atoms: C_8  and  C_18
                            x       y       z     vdW  Elec       q    Type
                         _______ _______ _______ _____ _____    ______ ____

>  <TORSDO>
F 3

$$$$
=
 OpenBabel10272415093D

 34 39  0  0  1  0  0  0  0  0999 V2000
  187.9510  176.8650  136.7050 C   0  0  1  0  0  3  0  0  0  0  0  0
  184.9580  175.9060  134.3480 C   0  0  0  0  0  2  0  0  0  0  0  0
  186.8630  174.5130  135.3070 C   0  0  0  0  0  2  0  0  0  0  0  0
  189.6690  177.6470  138.2020 C   0  0  2  0  0  3  0  0  0  0  0  0
  188.2380  177.7430  137.8350 N   0  0  0  0  0  2  0  0  0  0  0  0
  189.3890  175.1100  137.8950 C   0  0  1  0  0  3  0  0  0  0  0  0
  189.9490  173.9400  137.3280 O   0  0  0  0  0  0  0  0  0  0  0  0
  190.3620  176.2930  137.8480 C   0  0  0  0  0  2  0  0  0  0  0  0
  188.2620  174.6550  135.8920 C   0  0  1  0  0  3  0  0  0  0  0  0
  188.1300  175.4280  137.1330 C   0  0  2  0  0  3  0  0  0  0  0  0
  188.9920  173.4500  136.4030 C   0  0  0  0  0  2  0  0  0  0  0  0
  184.3540  177.1740  134.4460 O   0  0  0  0  0  0  0  0  0  0  0  0
  183.5320  177.2280  135.6030 C   0  0  2  0  0  3  0  0  0  0  0  0
  184.0640  176.4800  136.8420 C   0  0  0  0  0  2  0  0  0  0  0  0
  186.3530  175.9390  134.9710 C   0  0  2  0  0  3  0  0  0  0  0  0
  185.4710  176.9110  137.2600 C   0  0  0  0  0  2  0  0  0  0  0  0
  186.5250  176.9860  136.1330 C   0  0  1  0  0  3  0  0  0  0  0  0
  191.4480  177.9060  141.5090 O   0  0  0  0  0  0  0  0  0  0  0  0
  188.6630  178.5850  141.7840 C   0  0  0  0  0  2  0  0  0  0  0  0
  190.7810  176.4620  144.9480 C   0  0  2  0  0  3  0  0  0  0  0  0
  191.6080  177.1430  143.8590 C   0  0  0  0  0  2  0  0  0  0  0  0
  190.7730  177.6300  142.7020 C   0  0  0  0  0  0  0  0  0  0  0  0
  189.8610  178.0510  139.6650 C   0  0  1  0  0  3  0  0  0  0  0  0
  188.6920  177.4580  144.0750 C   0  0  0  0  0  2  0  0  0  0  0  0
  189.4490  177.8710  142.8390 C   0  0  0  0  0  0  0  0  0  0  0  0
  189.5890  177.3370  145.2990 C   0  0  0  0  0  2  0  0  0  0  0  0
  188.6050  177.7970  140.4890 C   0  0  0  0  0  2  0  0  0  0  0  0
  191.0630  177.3330  140.2630 C   0  0  0  0  0  2  0  0  0  0  0  0
  191.6220  176.2170  146.1550 C   0  0  0  0  0  0  0  0  0  0  0  0
  192.3510  175.1940  146.2090 O   0  0  0  0  0  0  0  0  0  0  0  0
  191.6050  177.1090  147.2210 O   0  0  0  0  0  1  0  0  0  0  0  0
  182.1300  176.8240  135.2860 C   0  0  0  0  0  0  0  0  0  0  0  0
  181.4380  177.4940  134.4750 O   0  0  0  0  0  0  0  0  0  0  0  0
  181.5700  175.6730  135.9080 N   0  0  0  0  0  1  0  0  0  0  0  0
  1 10  1  0  0  0  0
  1  5  1  1  0  0  0
  2 12  1  0  0  0  0
  2 15  1  0  0  0  0
  4  8  1  1  0  0  0
  4 23  1  0  0  0  0
  5  4  1  0  0  0  0
  6  8  1  6  0  0  0
  7  6  1  0  0  0  0
  9  3  1  1  0  0  0
  9 11  1  0  0  0  0
  9 10  1  0  0  0  0
 10  6  1  0  0  0  0
 11  7  1  0  0  0  0
 12 13  1  0  0  0  0
 13 14  1  0  0  0  0
 14 16  1  0  0  0  0
 15  3  1  0  0  0  0
 15 17  1  0  0  0  0
 17  1  1  0  0  0  0
 17 16  1  0  0  0  0
 18 22  1  0  0  0  0
 19 25  1  0  0  0  0
 20 26  1  0  0  0  0
 20 29  1  0  0  0  0
 21 20  1  0  0  0  0
 22 25  2  0  0  0  0
 22 21  1  0  0  0  0
 23 28  1  0  0  0  0
 23 27  1  0  0  0  0
 24 26  1  0  0  0  0
 25 24  1  0  0  0  0
 27 19  1  0  0  0  0
 28 18  1  0  0  0  0
 29 30  2  0  0  0  0
 29 31  1  0  0  0  0
 32 13  1  0  0  0  0
 32 34  1  0  0  0  0
 33 32  2  0  0  0  0
M  END
>  <MODEL>
5

>  <REMARK>
 VINA RESULT:      -7.9      3.620      6.030
  Name = 
  3 active torsions:
  status: ('A' for Active; 'I' for Inactive)
    1  A    between atoms: C_3  and  C_25
    2  A    between atoms: C_7  and  C_11
    3  A    between atoms: C_8  and  C_18
                            x       y       z     vdW  Elec       q    Type
                         _______ _______ _______ _____ _____    ______ ____

>  <TORSDO>
F 3

$$$$
=
 OpenBabel10272415093D

 34 39  0  0  1  0  0  0  0  0999 V2000
  184.9620  179.0180  140.9980 C   0  0  1  0  0  3  0  0  0  0  0  0
  184.1210  179.5640  144.7970 C   0  0  0  0  0  2  0  0  0  0  0  0
  182.7160  178.6690  142.8700 C   0  0  0  0  0  2  0  0  0  0  0  0
  185.7010  178.7020  138.7270 C   0  0  2  0  0  3  0  0  0  0  0  0
  186.0830  178.6170  140.1550 N   0  0  0  0  0  2  0  0  0  0  0  0
  183.4860  177.6140  139.4450 C   0  0  1  0  0  3  0  0  0  0  0  0
  182.0750  177.6680  139.3310 O   0  0  0  0  0  0  0  0  0  0  0  0
  184.1770  178.5300  138.4300 C   0  0  0  0  0  2  0  0  0  0  0  0
  182.6370  178.6830  141.3500 C   0  0  1  0  0  3  0  0  0  0  0  0
  183.8440  178.0130  140.8510 C   0  0  2  0  0  3  0  0  0  0  0  0
  181.5800  177.8910  140.6410 C   0  0  0  0  0  2  0  0  0  0  0  0
  185.4400  179.9280  145.1300 O   0  0  0  0  0  0  0  0  0  0  0  0
  186.2120  178.7640  145.3850 C   0  0  2  0  0  3  0  0  0  0  0  0
  185.9040  177.5440  144.4920 C   0  0  0  0  0  2  0  0  0  0  0  0
  183.9650  179.4930  143.2780 C   0  0  2  0  0  3  0  0  0  0  0  0
  186.0030  177.8410  142.9950 C   0  0  0  0  0  2  0  0  0  0  0  0
  185.2810  179.1140  142.5030 C   0  0  1  0  0  3  0  0  0  0  0  0
  188.4580  176.2240  138.0740 O   0  0  0  0  0  0  0  0  0  0  0  0
  187.4850  177.3510  135.6090 C   0  0  0  0  0  2  0  0  0  0  0  0
  191.7040  176.3890  136.1280 C   0  0  2  0  0  3  0  0  0  0  0  0
  190.7050  175.8030  137.1220 C   0  0  0  0  0  2  0  0  0  0  0  0
  189.3250  176.3940  136.9900 C   0  0  0  0  0  0  0  0  0  0  0  0
  186.5800  177.7660  137.8950 C   0  0  1  0  0  3  0  0  0  0  0  0
  189.8770  177.2870  134.7220 C   0  0  0  0  0  2  0  0  0  0  0  0
  188.9170  176.9860  135.8430 C   0  0  0  0  0  0  0  0  0  0  0  0
  191.0980  176.3770  134.7340 C   0  0  0  0  0  2  0  0  0  0  0  0
  187.0030  178.4120  136.5810 C   0  0  0  0  0  2  0  0  0  0  0  0
  187.7910  177.3160  138.6990 C   0  0  0  0  0  2  0  0  0  0  0  0
  192.9730  175.6060  136.1510 C   0  0  0  0  0  0  0  0  0  0  0  0
  192.9830  174.4230  135.7240 O   0  0  0  0  0  0  0  0  0  0  0  0
  194.1440  176.1720  136.6420 O   0  0  0  0  0  1  0  0  0  0  0  0
  186.1760  178.3990  146.8330 C   0  0  0  0  0  0  0  0  0  0  0  0
  185.0900  178.4120  147.4700 O   0  0  0  0  0  0  0  0  0  0  0  0
  187.3800  178.0360  147.4980 N   0  0  0  0  0  1  0  0  0  0  0  0
  1  5  1  6  0  0  0
  1 17  1  0  0  0  0
  2 12  1  0  0  0  0
  3 15  1  0  0  0  0
  4  8  1  1  0  0  0
  4  5  1  0  0  0  0
  6  8  1  6  0  0  0
  6 10  1  0  0  0  0
  7  6  1  0  0  0  0
  7 11  1  0  0  0  0
  9 11  1  1  0  0  0
  9  3  1  0  0  0  0
 10  1  1  0  0  0  0
 10  9  1  0  0  0  0
 12 13  1  0  0  0  0
 13 32  1  0  0  0  0
 14 13  1  0  0  0  0
 15  2  1  0  0  0  0
 16 14  1  0  0  0  0
 17 16  1  0  0  0  0
 17 15  1  0  0  0  0
 18 28  1  0  0  0  0
 19 25  1  0  0  0  0
 19 27  1  0  0  0  0
 20 29  1  0  0  0  0
 20 21  1  0  0  0  0
 22 21  1  0  0  0  0
 22 18  1  0  0  0  0
 23 28  1  0  0  0  0
 23  4  1  0  0  0  0
 24 26  1  0  0  0  0
 24 25  1  0  0  0  0
 25 22  2  0  0  0  0
 26 20  1  0  0  0  0
 27 23  1  0  0  0  0
 29 31  1  0  0  0  0
 30 29  2  0  0  0  0
 32 33  2  0  0  0  0
 32 34  1  0  0  0  0
M  END
>  <MODEL>
6

>  <REMARK>
 VINA RESULT:      -7.5      4.189     10.024
  Name = 
  3 active torsions:
  status: ('A' for Active; 'I' for Inactive)
    1  A    between atoms: C_3  and  C_25
    2  A    between atoms: C_7  and  C_11
    3  A    between atoms: C_8  and  C_18
                            x       y       z     vdW  Elec       q    Type
                         _______ _______ _______ _____ _____    ______ ____

>  <TORSDO>
F 3

$$$$
=
 OpenBabel10272415093D

 34 39  0  0  1  0  0  0  0  0999 V2000
  184.7250  179.0470  140.8940 C   0  0  1  0  0  3  0  0  0  0  0  0
  183.9610  179.4150  144.7310 C   0  0  0  0  0  2  0  0  0  0  0  0
  182.5950  178.4130  142.8280 C   0  0  0  0  0  2  0  0  0  0  0  0
  185.4150  178.8630  138.5940 C   0  0  2  0  0  3  0  0  0  0  0  0
  185.8530  178.7880  140.0060 N   0  0  0  0  0  2  0  0  0  0  0  0
  183.3560  177.5250  139.3540 C   0  0  1  0  0  3  0  0  0  0  0  0
  181.9450  177.4270  139.2860 O   0  0  0  0  0  0  0  0  0  0  0  0
  183.9090  178.5330  138.3410 C   0  0  0  0  0  2  0  0  0  0  0  0
  182.4630  178.4530  141.3110 C   0  0  1  0  0  3  0  0  0  0  0  0
  183.7180  177.9300  140.7580 C   0  0  2  0  0  3  0  0  0  0  0  0
  181.4740  177.5660  140.6170 C   0  0  0  0  0  2  0  0  0  0  0  0
  185.2430  179.9130  145.0310 O   0  0  0  0  0  0  0  0  0  0  0  0
  186.1450  178.8340  145.2310 C   0  0  2  0  0  3  0  0  0  0  0  0
  185.9410  177.6080  144.3190 C   0  0  0  0  0  2  0  0  0  0  0  0
  183.7610  179.3600  143.2170 C   0  0  2  0  0  3  0  0  0  0  0  0
  185.9550  177.9470  142.8270 C   0  0  0  0  0  2  0  0  0  0  0  0
  185.0830  179.1440  142.3900 C   0  0  1  0  0  3  0  0  0  0  0  0
  186.3970  176.1930  136.1290 O   0  0  0  0  0  0  0  0  0  0  0  0
  188.7160  177.2710  137.4550 C   0  0  0  0  0  2  0  0  0  0  0  0
  188.4970  173.0500  136.3890 C   0  0  2  0  0  3  0  0  0  0  0  0
  187.4970  174.0080  135.7460 C   0  0  0  0  0  2  0  0  0  0  0  0
  187.5100  175.3810  136.3670 C   0  0  0  0  0  0  0  0  0  0  0  0
  186.3610  178.0470  137.7100 C   0  0  1  0  0  3  0  0  0  0  0  0
  189.7320  174.9300  137.4200 C   0  0  0  0  0  2  0  0  0  0  0  0
  188.5870  175.8360  137.0500 C   0  0  0  0  0  0  0  0  0  0  0  0
  189.8530  173.7290  136.4920 C   0  0  0  0  0  2  0  0  0  0  0  0
  187.6430  177.6800  138.4470 C   0  0  0  0  0  2  0  0  0  0  0  0
  185.6580  176.8050  137.1810 C   0  0  0  0  0  2  0  0  0  0  0  0
  188.6000  171.7980  135.5860 C   0  0  0  0  0  0  0  0  0  0  0  0
  187.7300  170.9000  135.7180 O   0  0  0  0  0  1  0  0  0  0  0  0
  189.6510  171.6150  134.6950 O   0  0  0  0  0  0  0  0  0  0  0  0
  186.1990  178.4370  146.6700 C   0  0  0  0  0  0  0  0  0  0  0  0
  185.2870  178.7850  147.4650 O   0  0  0  0  0  0  0  0  0  0  0  0
  187.2910  177.6580  147.1460 N   0  0  0  0  0  1  0  0  0  0  0  0
  1  5  1  6  0  0  0
  1 17  1  0  0  0  0
  2 12  1  0  0  0  0
  3 15  1  0  0  0  0
  4  8  1  1  0  0  0
  4  5  1  0  0  0  0
  6  8  1  6  0  0  0
  6 10  1  0  0  0  0
  7  6  1  0  0  0  0
  7 11  1  0  0  0  0
  9 11  1  1  0  0  0
  9  3  1  0  0  0  0
 10  1  1  0  0  0  0
 10  9  1  0  0  0  0
 12 13  1  0  0  0  0
 13 32  1  0  0  0  0
 14 13  1  0  0  0  0
 15  2  1  0  0  0  0
 16 14  1  0  0  0  0
 17 16  1  0  0  0  0
 17 15  1  0  0  0  0
 18 22  1  0  0  0  0
 18 28  1  0  0  0  0
 19 27  1  0  0  0  0
 20 26  1  0  0  0  0
 21 22  1  0  0  0  0
 21 20  1  0  0  0  0
 22 25  2  0  0  0  0
 23 27  1  0  0  0  0
 23  4  1  0  0  0  0
 25 24  1  0  0  0  0
 25 19  1  0  0  0  0
 26 24  1  0  0  0  0
 28 23  1  0  0  0  0
 29 30  1  0  0  0  0
 29 20  1  0  0  0  0
 31 29  2  0  0  0  0
 32 34  1  0  0  0  0
 32 33  2  0  0  0  0
M  END
>  <MODEL>
7

>  <REMARK>
 VINA RESULT:      -7.5      4.641     10.301
  Name = 
  3 active torsions:
  status: ('A' for Active; 'I' for Inactive)
    1  A    between atoms: C_3  and  C_25
    2  A    between atoms: C_7  and  C_11
    3  A    between atoms: C_8  and  C_18
                            x       y       z     vdW  Elec       q    Type
                         _______ _______ _______ _____ _____    ______ ____

>  <TORSDO>
F 3

$$$$
=
 OpenBabel10272415093D

 34 39  0  0  1  0  0  0  0  0999 V2000
  184.8350  179.2160  142.2850 C   0  0  1  0  0  3  0  0  0  0  0  0
  185.6070  179.0910  146.1350 C   0  0  0  0  0  2  0  0  0  0  0  0
  183.4350  178.7870  144.8400 C   0  0  0  0  0  2  0  0  0  0  0  0
  184.5900  179.2710  139.8890 C   0  0  2  0  0  3  0  0  0  0  0  0
  185.4550  178.8530  141.0150 N   0  0  0  0  0  2  0  0  0  0  0  0
  182.6390  178.3530  141.2880 C   0  0  1  0  0  3  0  0  0  0  0  0
  181.3290  178.6080  141.7620 O   0  0  0  0  0  0  0  0  0  0  0  0
  183.0640  179.3580  140.2130 C   0  0  0  0  0  2  0  0  0  0  0  0
  182.7960  179.1170  143.4980 C   0  0  1  0  0  3  0  0  0  0  0  0
  183.5700  178.4120  142.4690 C   0  0  2  0  0  3  0  0  0  0  0  0
  181.4160  178.6250  143.1780 C   0  0  0  0  0  2  0  0  0  0  0  0
  186.9990  179.2100  145.9530 O   0  0  0  0  0  0  0  0  0  0  0  0
  187.5640  177.9290  145.7150 C   0  0  2  0  0  3  0  0  0  0  0  0
  186.7110  176.9630  144.8690 C   0  0  0  0  0  2  0  0  0  0  0  0
  184.8820  179.3470  144.8150 C   0  0  2  0  0  3  0  0  0  0  0  0
  186.2970  177.5390  143.5140 C   0  0  0  0  0  2  0  0  0  0  0  0
  185.7080  178.9670  143.5300 C   0  0  1  0  0  3  0  0  0  0  0  0
  184.0410  176.5290  137.3690 O   0  0  0  0  0  0  0  0  0  0  0  0
  186.7120  177.5880  137.1710 C   0  0  0  0  0  2  0  0  0  0  0  0
  185.9200  173.3500  136.5240 C   0  0  2  0  0  3  0  0  0  0  0  0
  184.7370  174.3140  136.5080 C   0  0  0  0  0  2  0  0  0  0  0  0
  185.0970  175.7000  136.9800 C   0  0  0  0  0  0  0  0  0  0  0  0
  184.8890  178.4170  138.6550 C   0  0  1  0  0  3  0  0  0  0  0  0
  187.5290  175.2260  136.6520 C   0  0  0  0  0  2  0  0  0  0  0  0
  186.3740  176.1470  136.9450 C   0  0  0  0  0  0  0  0  0  0  0  0
  187.1130  174.0030  135.8450 C   0  0  0  0  0  2  0  0  0  0  0  0
  186.3640  178.0400  138.5760 C   0  0  0  0  0  2  0  0  0  0  0  0
  184.0050  177.1780  138.6360 C   0  0  0  0  0  2  0  0  0  0  0  0
  185.5590  172.0790  135.8330 C   0  0  0  0  0  0  0  0  0  0  0  0
  186.3620  171.5640  135.0150 O   0  0  0  0  0  0  0  0  0  0  0  0
  184.3400  171.4600  136.0860 O   0  0  0  0  0  1  0  0  0  0  0  0
  188.0040  177.2890  146.9910 C   0  0  0  0  0  0  0  0  0  0  0  0
  187.2890  177.3650  148.0250 O   0  0  0  0  0  0  0  0  0  0  0  0
  189.2420  176.5890  147.0380 N   0  0  0  0  0  1  0  0  0  0  0  0
  1  5  1  6  0  0  0
  1 10  1  0  0  0  0
  1 17  1  0  0  0  0
  4  8  1  1  0  0  0
  4  5  1  0  0  0  0
  6  8  1  6  0  0  0
  6  7  1  0  0  0  0
  6 10  1  0  0  0  0
  7 11  1  0  0  0  0
  9 11  1  1  0  0  0
  9  3  1  0  0  0  0
 10  9  1  0  0  0  0
 12  2  1  0  0  0  0
 13 12  1  0  0  0  0
 13 32  1  0  0  0  0
 14 13  1  0  0  0  0
 15  3  1  0  0  0  0
 15  2  1  0  0  0  0
 16 17  1  0  0  0  0
 16 14  1  0  0  0  0
 17 15  1  0  0  0  0
 18 28  1  0  0  0  0
 19 27  1  0  0  0  0
 21 20  1  0  0  0  0
 21 22  1  0  0  0  0
 22 18  1  0  0  0  0
 23  4  1  0  0  0  0
 24 25  1  0  0  0  0
 25 22  2  0  0  0  0
 25 19  1  0  0  0  0
 26 20  1  0  0  0  0
 26 24  1  0  0  0  0
 27 23  1  0  0  0  0
 28 23  1  0  0  0  0
 29 31  1  0  0  0  0
 29 20  1  0  0  0  0
 30 29  2  0  0  0  0
 32 34  1  0  0  0  0
 32 33  2  0  0  0  0
M  END
>  <MODEL>
8

>  <REMARK>
 VINA RESULT:      -7.4      4.964     10.618
  Name = 
  3 active torsions:
  status: ('A' for Active; 'I' for Inactive)
    1  A    between atoms: C_3  and  C_25
    2  A    between atoms: C_7  and  C_11
    3  A    between atoms: C_8  and  C_18
                            x       y       z     vdW  Elec       q    Type
                         _______ _______ _______ _____ _____    ______ ____

>  <TORSDO>
F 3

$$$$
=
 OpenBabel10272415093D

 34 39  0  0  1  0  0  0  0  0999 V2000
  188.2610  175.7820  136.8370 C   0  0  1  0  0  3  0  0  0  0  0  0
  186.7690  172.9020  134.6190 C   0  0  0  0  0  2  0  0  0  0  0  0
  189.0980  173.2470  135.5910 C   0  0  0  0  0  2  0  0  0  0  0  0
  188.9580  177.6100  138.2410 C   0  0  2  0  0  3  0  0  0  0  0  0
  187.8540  176.6800  137.9120 N   0  0  0  0  0  2  0  0  0  0  0  0
  190.4940  175.5570  138.0720 C   0  0  1  0  0  3  0  0  0  0  0  0
  191.7120  175.0580  137.5480 O   0  0  0  0  0  0  0  0  0  0  0  0
  190.3950  177.0800  137.9360 C   0  0  0  0  0  2  0  0  0  0  0  0
  190.0120  174.3410  136.1280 C   0  0  1  0  0  3  0  0  0  0  0  0
  189.3700  174.8830  137.3310 C   0  0  2  0  0  3  0  0  0  0  0  0
  191.3620  173.9940  136.6770 C   0  0  0  0  0  2  0  0  0  0  0  0
  185.4590  173.4170  134.6710 O   0  0  0  0  0  0  0  0  0  0  0  0
  184.8080  172.9590  135.8470 C   0  0  2  0  0  3  0  0  0  0  0  0
  185.6910  172.8500  137.1070 C   0  0  0  0  0  2  0  0  0  0  0  0
  187.7540  173.9160  135.1990 C   0  0  2  0  0  3  0  0  0  0  0  0
  186.4150  174.1500  137.4610 C   0  0  0  0  0  2  0  0  0  0  0  0
  187.1470  174.8610  136.3010 C   0  0  1  0  0  3  0  0  0  0  0  0
  189.9790  178.2640  141.8040 O   0  0  0  0  0  0  0  0  0  0  0  0
  187.1440  178.6360  141.4630 C   0  0  0  0  0  2  0  0  0  0  0  0
  188.7630  176.9580  145.1460 C   0  0  2  0  0  3  0  0  0  0  0  0
  189.7240  177.6640  144.1930 C   0  0  0  0  0  2  0  0  0  0  0  0
  189.1030  177.9840  142.8580 C   0  0  0  0  0  0  0  0  0  0  0  0
  188.8020  178.1190  139.6760 C   0  0  1  0  0  3  0  0  0  0  0  0
  186.8100  177.6560  143.7970 C   0  0  0  0  0  2  0  0  0  0  0  0
  187.7610  178.0800  142.7080 C   0  0  0  0  0  0  0  0  0  0  0  0
  187.4420  177.7100  145.1810 C   0  0  0  0  0  2  0  0  0  0  0  0
  187.4340  177.7720  140.2510 C   0  0  0  0  0  2  0  0  0  0  0  0
  189.9200  177.5800  140.5570 C   0  0  0  0  0  2  0  0  0  0  0  0
  189.3550  176.8820  146.5120 C   0  0  0  0  0  0  0  0  0  0  0  0
  190.6040  176.9360  146.6540 O   0  0  0  0  0  0  0  0  0  0  0  0
  188.5390  176.7500  147.6300 O   0  0  0  0  0  1  0  0  0  0  0  0
  184.0670  171.6880  135.5930 C   0  0  0  0  0  0  0  0  0  0  0  0
  184.4900  170.8590  134.7440 O   0  0  0  0  0  0  0  0  0  0  0  0
  182.8710  171.4120  136.3140 N   0  0  0  0  0  1  0  0  0  0  0  0
  1 10  1  0  0  0  0
  1  5  1  1  0  0  0
  2 12  1  0  0  0  0
  2 15  1  0  0  0  0
  4  8  1  1  0  0  0
  4 23  1  0  0  0  0
  5  4  1  0  0  0  0
  6  8  1  6  0  0  0
  7  6  1  0  0  0  0
  9  3  1  1  0  0  0
  9 11  1  0  0  0  0
  9 10  1  0  0  0  0
 10  6  1  0  0  0  0
 11  7  1  0  0  0  0
 12 13  1  0  0  0  0
 13 14  1  0  0  0  0
 14 16  1  0  0  0  0
 15  3  1  0  0  0  0
 15 17  1  0  0  0  0
 17  1  1  0  0  0  0
 17 16  1  0  0  0  0
 18 22  1  0  0  0  0
 19 25  1  0  0  0  0
 20 26  1  0  0  0  0
 20 29  1  0  0  0  0
 21 20  1  0  0  0  0
 22 21  1  0  0  0  0
 23 27  1  0  0  0  0
 23 28  1  0  0  0  0
 24 26  1  0  0  0  0
 25 22  2  0  0  0  0
 25 24  1  0  0  0  0
 27 19  1  0  0  0  0
 28 18  1  0  0  0  0
 29 30  2  0  0  0  0
 29 31  1  0  0  0  0
 32 13  1  0  0  0  0
 32 34  1  0  0  0  0
 33 32  2  0  0  0  0
M  END
>  <MODEL>
9

>  <REMARK>
 VINA RESULT:      -7.4      3.884      5.461
  Name = 
  3 active torsions:
  status: ('A' for Active; 'I' for Inactive)
    1  A    between atoms: C_3  and  C_25
    2  A    between atoms: C_7  and  C_11
    3  A    between atoms: C_8  and  C_18
                            x       y       z     vdW  Elec       q    Type
                         _______ _______ _______ _____ _____    ______ ____

>  <TORSDO>
F 3

$$$$
