=
 OpenBabel10272413543D

 30 33  0  0  0  0  0  0  0  0999 V2000
  187.8030  177.6090  143.4540 N   0  0  0  0  0  0  0  0  0  0  0  0
  187.2540  177.6940  145.7780 C   0  0  0  0  0  0  0  0  0  0  0  0
  184.0300  179.0380  142.3580 C   0  0  0  0  0  3  0  0  0  0  0  0
  187.5220  177.7630  142.1320 C   0  0  0  0  0  0  0  0  0  0  0  0
  183.7300  179.2490  141.0120 C   0  0  0  0  0  3  0  0  0  0  0  0
  186.3270  177.9700  146.7870 C   0  0  0  0  0  3  0  0  0  0  0  0
  188.4880  177.2430  146.1100 F   0  0  0  0  0  0  0  0  0  0  0  0
  185.2910  178.5480  142.7430 C   0  0  0  0  0  0  0  0  0  0  0  0
  185.0510  178.4350  146.4630 C   0  0  0  0  0  3  0  0  0  0  0  0
  186.9030  177.8830  144.4340 C   0  0  0  0  0  0  0  0  0  0  0  0
  186.2550  178.2570  141.7450 C   0  0  0  0  0  0  0  0  0  0  0  0
  184.6860  178.9780  140.0320 C   0  0  0  0  0  3  0  0  0  0  0  0
  185.9410  178.4900  140.3980 C   0  0  0  0  0  3  0  0  0  0  0  0
  184.6950  178.6280  145.1260 C   0  0  0  0  0  3  0  0  0  0  0  0
  185.6140  178.3550  144.0980 C   0  0  0  0  0  0  0  0  0  0  0  0
  191.7520  177.2690  143.2510 C   0  0  0  0  0  2  0  0  0  0  0  0
  190.5870  176.3800  140.8060 O   0  0  0  0  0  0  0  0  0  0  0  0
  189.9010  177.1520  141.5290 C   0  0  0  0  0  0  0  0  0  0  0  0
  190.0210  178.9520  143.3290 C   0  0  0  0  0  2  0  0  0  0  0  0
  190.5020  177.7410  142.6950 N   0  0  0  0  0  0  0  0  0  0  0  0
  188.5360  177.4350  141.1640 N   0  0  0  0  0  0  0  0  0  0  0  0
  192.0220  178.1480  144.4560 C   0  0  0  0  0  2  0  0  0  0  0  0
  191.0860  179.3420  144.3350 C   0  0  0  0  0  2  0  0  0  0  0  0
  188.1810  177.4690  139.7510 C   0  0  0  0  0  2  0  0  0  0  0  0
  189.0770  178.4480  139.0100 C   0  0  0  0  0  2  0  0  0  0  0  0
  189.4020  177.9180  137.6260 C   0  0  0  0  0  2  0  0  0  0  0  0
  189.4120  176.4650  137.6420 N   0  0  0  0  0  2  0  0  0  0  0  0
  191.7300  176.3020  137.3980 O   0  0  0  0  0  0  0  0  0  0  0  0
  190.6210  175.7160  137.5220 C   0  0  0  0  0  0  0  0  0  0  0  0
  190.5740  174.2940  137.5420 N   0  0  0  0  0  1  0  0  0  0  0  0
  1 10  1  0  0  0  0
  2  7  1  0  0  0  0
  2  6  1  0  0  0  0
  3  8  1  0  0  0  0
  4  1  2  0  0  0  0
  5  3  2  0  0  0  0
  8 15  1  0  0  0  0
  9  6  2  0  0  0  0
 10  2  2  0  0  0  0
 11  4  1  0  0  0  0
 11  8  2  0  0  0  0
 12 13  2  0  0  0  0
 12  5  1  0  0  0  0
 13 11  1  0  0  0  0
 14  9  1  0  0  0  0
 15 10  1  0  0  0  0
 15 14  2  0  0  0  0
 16 22  1  0  0  0  0
 17 18  2  0  0  0  0
 18 20  1  0  0  0  0
 19 23  1  0  0  0  0
 20 16  1  0  0  0  0
 20 19  1  0  0  0  0
 21 18  1  0  0  0  0
 21  4  1  0  0  0  0
 23 22  1  0  0  0  0
 24 21  1  0  0  0  0
 25 24  1  0  0  0  0
 26 27  1  0  0  0  0
 26 25  1  0  0  0  0
 28 29  2  0  0  0  0
 29 30  1  0  0  0  0
 29 27  1  0  0  0  0
M  END
>  <MODEL>
1

>  <REMARK>
 VINA RESULT:      -8.5      0.000      0.000
  Name = 
  5 active torsions:
  status: ('A' for Active; 'I' for Inactive)
    1  A    between atoms: C_4  and  N_13
    2  A    between atoms: N_7  and  C_16
    3  A    between atoms: N_13  and  C_27
    4  A    between atoms: C_16  and  C_30
    5  A    between atoms: C_27  and  C_30
                            x       y       z     vdW  Elec       q    Type
                         _______ _______ _______ _____ _____    ______ ____

>  <TORSDO>
F 5

$$$$
=
 OpenBabel10272413543D

 30 33  0  0  0  0  0  0  0  0999 V2000
  187.7760  177.6320  143.4000 N   0  0  0  0  0  0  0  0  0  0  0  0
  187.2450  177.6800  145.7290 C   0  0  0  0  0  0  0  0  0  0  0  0
  183.9640  178.9880  142.3510 C   0  0  0  0  0  3  0  0  0  0  0  0
  187.4810  177.7930  142.0820 C   0  0  0  0  0  0  0  0  0  0  0  0
  183.6480  179.2070  141.0100 C   0  0  0  0  0  3  0  0  0  0  0  0
  186.3220  177.9240  146.7490 C   0  0  0  0  0  3  0  0  0  0  0  0
  188.4920  177.2520  146.0460 F   0  0  0  0  0  0  0  0  0  0  0  0
  185.2380  178.5220  142.7200 C   0  0  0  0  0  0  0  0  0  0  0  0
  185.0330  178.3650  146.4400 C   0  0  0  0  0  3  0  0  0  0  0  0
  186.8790  177.8750  144.3900 C   0  0  0  0  0  0  0  0  0  0  0  0
  186.2000  178.2640  141.7120 C   0  0  0  0  0  0  0  0  0  0  0  0
  184.6010  178.9680  140.0190 C   0  0  0  0  0  3  0  0  0  0  0  0
  185.8700  178.5030  140.3690 C   0  0  0  0  0  3  0  0  0  0  0  0
  184.6620  178.5630  145.1090 C   0  0  0  0  0  3  0  0  0  0  0  0
  185.5780  178.3220  144.0700 C   0  0  0  0  0  0  0  0  0  0  0  0
  191.6550  176.9580  143.2090 C   0  0  0  0  0  2  0  0  0  0  0  0
  190.4890  176.3650  140.6760 O   0  0  0  0  0  0  0  0  0  0  0  0
  189.8340  177.1050  141.4590 C   0  0  0  0  0  0  0  0  0  0  0  0
  190.0180  178.7230  143.4190 C   0  0  0  0  0  2  0  0  0  0  0  0
  190.4430  177.5500  142.6820 N   0  0  0  0  0  0  0  0  0  0  0  0
  188.4940  177.4980  141.1020 N   0  0  0  0  0  0  0  0  0  0  0  0
  191.9500  177.7060  144.4940 C   0  0  0  0  0  2  0  0  0  0  0  0
  191.0840  178.9570  144.4710 C   0  0  0  0  0  2  0  0  0  0  0  0
  188.1680  177.6810  139.6930 C   0  0  0  0  0  2  0  0  0  0  0  0
  189.0980  178.7110  139.0720 C   0  0  0  0  0  2  0  0  0  0  0  0
  188.9520  178.7060  137.5620 C   0  0  0  0  0  2  0  0  0  0  0  0
  187.5460  178.6150  137.2010 N   0  0  0  0  0  2  0  0  0  0  0  0
  187.8120  176.6600  135.9490 O   0  0  0  0  0  0  0  0  0  0  0  0
  187.0430  177.5580  136.3850 C   0  0  0  0  0  0  0  0  0  0  0  0
  185.6580  177.5170  136.0610 N   0  0  0  0  0  1  0  0  0  0  0  0
  1 10  1  0  0  0  0
  2  7  1  0  0  0  0
  2  6  1  0  0  0  0
  3  8  1  0  0  0  0
  4  1  2  0  0  0  0
  5  3  2  0  0  0  0
  8 15  1  0  0  0  0
  9  6  2  0  0  0  0
 10  2  2  0  0  0  0
 11  4  1  0  0  0  0
 11  8  2  0  0  0  0
 12 13  2  0  0  0  0
 12  5  1  0  0  0  0
 13 11  1  0  0  0  0
 14  9  1  0  0  0  0
 15 10  1  0  0  0  0
 15 14  2  0  0  0  0
 16 22  1  0  0  0  0
 17 18  2  0  0  0  0
 18 20  1  0  0  0  0
 19 23  1  0  0  0  0
 20 16  1  0  0  0  0
 20 19  1  0  0  0  0
 21 18  1  0  0  0  0
 21  4  1  0  0  0  0
 23 22  1  0  0  0  0
 24 21  1  0  0  0  0
 25 24  1  0  0  0  0
 26 25  1  0  0  0  0
 27 26  1  0  0  0  0
 28 29  2  0  0  0  0
 29 27  1  0  0  0  0
 30 29  1  0  0  0  0
M  END
>  <MODEL>
2

>  <REMARK>
 VINA RESULT:      -8.3      1.429      1.651
  Name = 
  5 active torsions:
  status: ('A' for Active; 'I' for Inactive)
    1  A    between atoms: C_4  and  N_13
    2  A    between atoms: N_7  and  C_16
    3  A    between atoms: N_13  and  C_27
    4  A    between atoms: C_16  and  C_30
    5  A    between atoms: C_27  and  C_30
                            x       y       z     vdW  Elec       q    Type
                         _______ _______ _______ _____ _____    ______ ____

>  <TORSDO>
F 5

$$$$
=
 OpenBabel10272413543D

 30 33  0  0  0  0  0  0  0  0999 V2000
  188.2050  177.5470  144.2840 N   0  0  0  0  0  0  0  0  0  0  0  0
  189.1100  177.2790  146.4780 C   0  0  0  0  0  0  0  0  0  0  0  0
  184.4840  178.7010  145.7990 C   0  0  0  0  0  3  0  0  0  0  0  0
  187.2050  177.8370  143.4080 C   0  0  0  0  0  0  0  0  0  0  0  0
  183.4540  179.0490  144.9240 C   0  0  0  0  0  3  0  0  0  0  0  0
  188.9420  177.3250  147.8650 C   0  0  0  0  0  3  0  0  0  0  0  0
  190.3120  176.9200  145.9640 F   0  0  0  0  0  0  0  0  0  0  0  0
  185.7380  178.3010  145.3060 C   0  0  0  0  0  0  0  0  0  0  0  0
  187.7100  177.6930  148.4120 C   0  0  0  0  0  3  0  0  0  0  0  0
  188.0410  177.5990  145.6310 C   0  0  0  0  0  0  0  0  0  0  0  0
  185.9450  178.2410  143.9050 C   0  0  0  0  0  0  0  0  0  0  0  0
  183.6640  179.0060  143.5460 C   0  0  0  0  0  3  0  0  0  0  0  0
  184.9020  178.6090  143.0400 C   0  0  0  0  0  3  0  0  0  0  0  0
  186.6410  178.0150  147.5730 C   0  0  0  0  0  3  0  0  0  0  0  0
  186.7920  177.9720  146.1770 C   0  0  0  0  0  0  0  0  0  0  0  0
  191.2440  177.0720  141.8310 C   0  0  0  0  0  2  0  0  0  0  0  0
  188.8250  176.7920  140.3500 O   0  0  0  0  0  0  0  0  0  0  0  0
  188.7590  177.3750  141.4670 C   0  0  0  0  0  0  0  0  0  0  0  0
  190.0870  178.6980  143.1930 C   0  0  0  0  0  2  0  0  0  0  0  0
  189.9720  177.6690  142.1790 N   0  0  0  0  0  0  0  0  0  0  0  0
  187.4700  177.7420  141.9960 N   0  0  0  0  0  0  0  0  0  0  0  0
  192.2460  177.6410  142.8160 C   0  0  0  0  0  2  0  0  0  0  0  0
  191.5700  178.8330  143.4770 C   0  0  0  0  0  2  0  0  0  0  0  0
  186.4090  178.1110  141.0670 C   0  0  0  0  0  2  0  0  0  0  0  0
  187.0040  178.5030  139.7230 C   0  0  0  0  0  2  0  0  0  0  0  0
  185.9450  178.4300  138.6400 C   0  0  0  0  0  2  0  0  0  0  0  0
  184.6270  178.3120  139.2420 N   0  0  0  0  0  2  0  0  0  0  0  0
  184.0900  180.5650  138.9340 O   0  0  0  0  0  0  0  0  0  0  0  0
  183.7460  179.4290  139.3580 C   0  0  0  0  0  0  0  0  0  0  0  0
  182.4670  179.2580  139.9570 N   0  0  0  0  0  1  0  0  0  0  0  0
  1 10  1  0  0  0  0
  2  6  1  0  0  0  0
  4 11  1  0  0  0  0
  4  1  2  0  0  0  0
  5  3  2  0  0  0  0
  6  9  2  0  0  0  0
  7  2  1  0  0  0  0
  8  3  1  0  0  0  0
  8 15  1  0  0  0  0
 10 15  1  0  0  0  0
 10  2  2  0  0  0  0
 11  8  2  0  0  0  0
 12  5  1  0  0  0  0
 13 12  2  0  0  0  0
 13 11  1  0  0  0  0
 14  9  1  0  0  0  0
 15 14  2  0  0  0  0
 16 20  1  0  0  0  0
 16 22  1  0  0  0  0
 17 18  2  0  0  0  0
 18 21  1  0  0  0  0
 18 20  1  0  0  0  0
 19 23  1  0  0  0  0
 20 19  1  0  0  0  0
 21  4  1  0  0  0  0
 22 23  1  0  0  0  0
 24 21  1  0  0  0  0
 25 24  1  0  0  0  0
 26 27  1  0  0  0  0
 26 25  1  0  0  0  0
 27 29  1  0  0  0  0
 28 29  2  0  0  0  0
 29 30  1  0  0  0  0
M  END
>  <MODEL>
3

>  <REMARK>
 VINA RESULT:      -8.3      2.389      3.720
  Name = 
  5 active torsions:
  status: ('A' for Active; 'I' for Inactive)
    1  A    between atoms: C_4  and  N_13
    2  A    between atoms: N_7  and  C_16
    3  A    between atoms: N_13  and  C_27
    4  A    between atoms: C_16  and  C_30
    5  A    between atoms: C_27  and  C_30
                            x       y       z     vdW  Elec       q    Type
                         _______ _______ _______ _____ _____    ______ ____

>  <TORSDO>
F 5

$$$$
=
 OpenBabel10272413543D

 30 33  0  0  0  0  0  0  0  0999 V2000
  184.2800  178.6380  139.6230 N   0  0  0  0  0  0  0  0  0  0  0  0
  186.6510  178.4790  139.3810 C   0  0  0  0  0  0  0  0  0  0  0  0
  184.5530  178.5780  143.7930 C   0  0  0  0  0  3  0  0  0  0  0  0
  183.1330  178.6960  140.3530 C   0  0  0  0  0  0  0  0  0  0  0  0
  183.3970  178.6820  144.5680 C   0  0  0  0  0  3  0  0  0  0  0  0
  187.9180  178.3750  139.9640 C   0  0  0  0  0  3  0  0  0  0  0  0
  186.5390  178.5140  138.0300 F   0  0  0  0  0  0  0  0  0  0  0  0
  184.4770  178.5860  142.3900 C   0  0  0  0  0  0  0  0  0  0  0  0
  188.0510  178.3380  141.3530 C   0  0  0  0  0  3  0  0  0  0  0  0
  185.5100  178.5440  140.1910 C   0  0  0  0  0  0  0  0  0  0  0  0
  183.2100  178.6900  141.7650 C   0  0  0  0  0  0  0  0  0  0  0  0
  182.1510  178.8010  143.9520 C   0  0  0  0  0  3  0  0  0  0  0  0
  182.0590  178.8090  142.5590 C   0  0  0  0  0  3  0  0  0  0  0  0
  186.9180  178.4040  142.1670 C   0  0  0  0  0  3  0  0  0  0  0  0
  185.6370  178.5070  141.5980 C   0  0  0  0  0  0  0  0  0  0  0  0
  181.4640  175.3030  138.0960 C   0  0  0  0  0  2  0  0  0  0  0  0
  180.0000  177.6070  138.9170 O   0  0  0  0  0  0  0  0  0  0  0  0
  181.2560  177.6490  139.0190 C   0  0  0  0  0  0  0  0  0  0  0  0
  183.4390  176.6940  138.1190 C   0  0  0  0  0  2  0  0  0  0  0  0
  182.0420  176.5730  138.4820 N   0  0  0  0  0  0  0  0  0  0  0  0
  181.8730  178.7830  139.6610 N   0  0  0  0  0  0  0  0  0  0  0  0
  182.6210  174.4640  137.5900 C   0  0  0  0  0  2  0  0  0  0  0  0
  183.7810  175.4220  137.3670 C   0  0  0  0  0  2  0  0  0  0  0  0
  181.2400  180.0890  139.5400 C   0  0  0  0  0  2  0  0  0  0  0  0
  181.6680  180.7600  138.2440 C   0  0  0  0  0  2  0  0  0  0  0  0
  181.2790  182.2250  138.2590 C   0  0  0  0  0  2  0  0  0  0  0  0
  180.8590  182.6400  136.9300 N   0  0  0  0  0  2  0  0  0  0  0  0
  181.8840  184.7350  137.0660 O   0  0  0  0  0  0  0  0  0  0  0  0
  181.1990  183.9170  136.3940 C   0  0  0  0  0  0  0  0  0  0  0  0
  180.7620  184.2720  135.0870 N   0  0  0  0  0  1  0  0  0  0  0  0
  1 10  2  0  0  0  0
  1  4  1  0  0  0  0
  2  6  2  0  0  0  0
  2 10  1  0  0  0  0
  3  5  2  0  0  0  0
  4 11  2  0  0  0  0
  6  9  1  0  0  0  0
  7  2  1  0  0  0  0
  8  3  1  0  0  0  0
  9 14  2  0  0  0  0
 10 15  1  0  0  0  0
 11  8  1  0  0  0  0
 11 13  1  0  0  0  0
 12  5  1  0  0  0  0
 13 12  2  0  0  0  0
 15 14  1  0  0  0  0
 15  8  2  0  0  0  0
 16 20  1  0  0  0  0
 17 18  2  0  0  0  0
 18 21  1  0  0  0  0
 19 20  1  0  0  0  0
 20 18  1  0  0  0  0
 21  4  1  0  0  0  0
 22 16  1  0  0  0  0
 23 22  1  0  0  0  0
 23 19  1  0  0  0  0
 24 21  1  0  0  0  0
 25 26  1  0  0  0  0
 25 24  1  0  0  0  0
 27 26  1  0  0  0  0
 29 27  1  0  0  0  0
 29 28  2  0  0  0  0
 30 29  1  0  0  0  0
M  END
>  <MODEL>
4

>  <REMARK>
 VINA RESULT:      -8.2      5.575      8.190
  Name = 
  5 active torsions:
  status: ('A' for Active; 'I' for Inactive)
    1  A    between atoms: C_4  and  N_13
    2  A    between atoms: N_7  and  C_16
    3  A    between atoms: N_13  and  C_27
    4  A    between atoms: C_16  and  C_30
    5  A    between atoms: C_27  and  C_30
                            x       y       z     vdW  Elec       q    Type
                         _______ _______ _______ _____ _____    ______ ____

>  <TORSDO>
F 5

$$$$
=
 OpenBabel10272413543D

 30 33  0  0  0  0  0  0  0  0999 V2000
  184.6350  178.3380  141.3050 N   0  0  0  0  0  0  0  0  0  0  0  0
  185.7890  178.0510  143.3770 C   0  0  0  0  0  0  0  0  0  0  0  0
  181.1260  179.5090  143.2520 C   0  0  0  0  0  3  0  0  0  0  0  0
  183.5400  178.6400  140.5540 C   0  0  0  0  0  0  0  0  0  0  0  0
  180.0020  179.8690  142.5060 C   0  0  0  0  0  3  0  0  0  0  0  0
  185.7840  178.0920  144.7740 C   0  0  0  0  0  3  0  0  0  0  0  0
  186.9190  177.6880  142.7230 F   0  0  0  0  0  0  0  0  0  0  0  0
  182.3100  179.1030  142.6130 C   0  0  0  0  0  0  0  0  0  0  0  0
  184.6280  178.4640  145.4630 C   0  0  0  0  0  3  0  0  0  0  0  0
  184.6300  178.3840  142.6620 C   0  0  0  0  0  0  0  0  0  0  0  0
  182.3500  179.0500  141.1970 C   0  0  0  0  0  0  0  0  0  0  0  0
  180.0490  179.8320  141.1120 C   0  0  0  0  0  3  0  0  0  0  0  0
  181.2170  179.4300  140.4620 C   0  0  0  0  0  3  0  0  0  0  0  0
  183.4700  178.7980  144.7580 C   0  0  0  0  0  3  0  0  0  0  0  0
  183.4560  178.7620  143.3530 C   0  0  0  0  0  0  0  0  0  0  0  0
  180.5590  176.4830  138.1360 C   0  0  0  0  0  2  0  0  0  0  0  0
  182.4530  178.3540  137.1190 O   0  0  0  0  0  0  0  0  0  0  0  0
  182.6100  177.9540  138.3040 C   0  0  0  0  0  0  0  0  0  0  0  0
  182.1200  176.0540  139.9300 C   0  0  0  0  0  2  0  0  0  0  0  0
  181.7700  176.9030  138.8090 N   0  0  0  0  0  0  0  0  0  0  0  0
  183.6370  178.5510  139.1200 N   0  0  0  0  0  0  0  0  0  0  0  0
  179.9820  175.3700  138.9890 C   0  0  0  0  0  2  0  0  0  0  0  0
  181.0880  174.9440  139.9440 C   0  0  0  0  0  2  0  0  0  0  0  0
  184.8610  179.0160  138.4790 C   0  0  0  0  0  2  0  0  0  0  0  0
  185.5580  177.8570  137.7830 C   0  0  0  0  0  2  0  0  0  0  0  0
  187.0290  178.1710  137.5880 C   0  0  0  0  0  2  0  0  0  0  0  0
  187.6670  178.3750  138.8780 N   0  0  0  0  0  2  0  0  0  0  0  0
  189.1280  176.5670  138.6400 O   0  0  0  0  0  0  0  0  0  0  0  0
  188.7170  177.5290  139.3440 C   0  0  0  0  0  0  0  0  0  0  0  0
  189.3070  177.7730  140.6160 N   0  0  0  0  0  1  0  0  0  0  0  0
  1 10  1  0  0  0  0
  2  6  1  0  0  0  0
  4 11  1  0  0  0  0
  4  1  2  0  0  0  0
  5  3  2  0  0  0  0
  6  9  2  0  0  0  0
  7  2  1  0  0  0  0
  8  3  1  0  0  0  0
  8 15  1  0  0  0  0
 10 15  1  0  0  0  0
 10  2  2  0  0  0  0
 11  8  2  0  0  0  0
 12  5  1  0  0  0  0
 13 12  2  0  0  0  0
 13 11  1  0  0  0  0
 14  9  1  0  0  0  0
 15 14  2  0  0  0  0
 16 20  1  0  0  0  0
 16 22  1  0  0  0  0
 17 18  2  0  0  0  0
 18 20  1  0  0  0  0
 18 21  1  0  0  0  0
 19 23  1  0  0  0  0
 20 19  1  0  0  0  0
 21  4  1  0  0  0  0
 22 23  1  0  0  0  0
 24 21  1  0  0  0  0
 25 24  1  0  0  0  0
 26 25  1  0  0  0  0
 26 27  1  0  0  0  0
 27 29  1  0  0  0  0
 28 29  2  0  0  0  0
 29 30  1  0  0  0  0
M  END
>  <MODEL>
5

>  <REMARK>
 VINA RESULT:      -8.1      3.603      6.015
  Name = 
  5 active torsions:
  status: ('A' for Active; 'I' for Inactive)
    1  A    between atoms: C_4  and  N_13
    2  A    between atoms: N_7  and  C_16
    3  A    between atoms: N_13  and  C_27
    4  A    between atoms: C_16  and  C_30
    5  A    between atoms: C_27  and  C_30
                            x       y       z     vdW  Elec       q    Type
                         _______ _______ _______ _____ _____    ______ ____

>  <TORSDO>
F 5

$$$$
=
 OpenBabel10272413543D

 30 33  0  0  0  0  0  0  0  0999 V2000
  188.1440  177.6810  144.0430 N   0  0  0  0  0  0  0  0  0  0  0  0
  189.2320  177.0750  146.0820 C   0  0  0  0  0  0  0  0  0  0  0  0
  184.5760  178.5600  146.0340 C   0  0  0  0  0  3  0  0  0  0  0  0
  187.0750  178.1000  143.3130 C   0  0  0  0  0  0  0  0  0  0  0  0
  183.4770  179.0350  145.3170 C   0  0  0  0  0  3  0  0  0  0  0  0
  189.1830  176.9020  147.4680 C   0  0  0  0  0  3  0  0  0  0  0  0
  190.3820  176.8100  145.4160 F   0  0  0  0  0  0  0  0  0  0  0  0
  185.7800  178.2500  145.3780 C   0  0  0  0  0  0  0  0  0  0  0  0
  188.0060  177.1710  148.1690 C   0  0  0  0  0  3  0  0  0  0  0  0
  188.0960  177.5190  145.3900 C   0  0  0  0  0  0  0  0  0  0  0  0
  185.8650  178.4140  143.9730 C   0  0  0  0  0  0  0  0  0  0  0  0
  183.5680  179.2120  143.9360 C   0  0  0  0  0  3  0  0  0  0  0  0
  184.7560  178.9070  143.2700 C   0  0  0  0  0  3  0  0  0  0  0  0
  186.8710  177.6150  147.4870 C   0  0  0  0  0  3  0  0  0  0  0  0
  186.9020  177.7940  146.0930 C   0  0  0  0  0  0  0  0  0  0  0  0
  190.8100  177.0550  141.2280 C   0  0  0  0  0  2  0  0  0  0  0  0
  188.2760  177.4140  139.9730 O   0  0  0  0  0  0  0  0  0  0  0  0
  188.3880  177.7820  141.1740 C   0  0  0  0  0  0  0  0  0  0  0  0
  190.0350  178.5520  142.9580 C   0  0  0  0  0  2  0  0  0  0  0  0
  189.6810  177.7570  141.8000 N   0  0  0  0  0  0  0  0  0  0  0  0
  187.2170  178.2310  141.8860 N   0  0  0  0  0  0  0  0  0  0  0  0
  191.9600  177.2770  142.1900 C   0  0  0  0  0  2  0  0  0  0  0  0
  191.5370  178.4130  143.1100 C   0  0  0  0  0  2  0  0  0  0  0  0
  186.1660  178.9170  141.1460 C   0  0  0  0  0  2  0  0  0  0  0  0
  185.5030  177.9580  140.1690 C   0  0  0  0  0  2  0  0  0  0  0  0
  185.0560  178.7030  138.9260 C   0  0  0  0  0  2  0  0  0  0  0  0
  185.3470  177.9100  137.7420 N   0  0  0  0  0  2  0  0  0  0  0  0
  187.3440  179.0260  137.2670 O   0  0  0  0  0  0  0  0  0  0  0  0
  186.5160  178.1280  136.9550 C   0  0  0  0  0  0  0  0  0  0  0  0
  186.7510  177.3230  135.8050 N   0  0  0  0  0  1  0  0  0  0  0  0
  1 10  1  0  0  0  0
  2  6  1  0  0  0  0
  4 11  1  0  0  0  0
  4  1  2  0  0  0  0
  5  3  2  0  0  0  0
  6  9  2  0  0  0  0
  7  2  1  0  0  0  0
  8  3  1  0  0  0  0
  8 15  1  0  0  0  0
 10  2  2  0  0  0  0
 10 15  1  0  0  0  0
 11  8  2  0  0  0  0
 12  5  1  0  0  0  0
 13 12  2  0  0  0  0
 13 11  1  0  0  0  0
 14  9  1  0  0  0  0
 15 14  2  0  0  0  0
 16 20  1  0  0  0  0
 16 22  1  0  0  0  0
 17 18  2  0  0  0  0
 18 20  1  0  0  0  0
 18 21  1  0  0  0  0
 19 23  1  0  0  0  0
 20 19  1  0  0  0  0
 21  4  1  0  0  0  0
 22 23  1  0  0  0  0
 24 21  1  0  0  0  0
 25 24  1  0  0  0  0
 26 25  1  0  0  0  0
 27 26  1  0  0  0  0
 29 28  2  0  0  0  0
 29 27  1  0  0  0  0
 30 29  1  0  0  0  0
M  END
>  <MODEL>
6

>  <REMARK>
 VINA RESULT:      -8.1      2.065      3.119
  Name = 
  5 active torsions:
  status: ('A' for Active; 'I' for Inactive)
    1  A    between atoms: C_4  and  N_13
    2  A    between atoms: N_7  and  C_16
    3  A    between atoms: N_13  and  C_27
    4  A    between atoms: C_16  and  C_30
    5  A    between atoms: C_27  and  C_30
                            x       y       z     vdW  Elec       q    Type
                         _______ _______ _______ _____ _____    ______ ____

>  <TORSDO>
F 5

$$$$
=
 OpenBabel10272413543D

 30 33  0  0  0  0  0  0  0  0999 V2000
  185.1330  178.8700  142.5180 N   0  0  0  0  0  0  0  0  0  0  0  0
  183.9970  179.0990  144.6060 C   0  0  0  0  0  0  0  0  0  0  0  0
  188.3810  176.9570  144.3250 C   0  0  0  0  0  3  0  0  0  0  0  0
  186.1820  178.4880  141.7390 C   0  0  0  0  0  0  0  0  0  0  0  0
  189.4490  176.5130  143.5450 C   0  0  0  0  0  3  0  0  0  0  0  0
  183.9680  178.9030  145.9900 C   0  0  0  0  0  3  0  0  0  0  0  0
  182.9490  179.7050  143.9960 F   0  0  0  0  0  0  0  0  0  0  0  0
  187.2860  177.6110  143.7340 C   0  0  0  0  0  0  0  0  0  0  0  0
  185.0390  178.2800  146.6340 C   0  0  0  0  0  3  0  0  0  0  0  0
  185.1040  178.6720  143.8610 C   0  0  0  0  0  0  0  0  0  0  0  0
  187.2820  177.8280  142.3330 C   0  0  0  0  0  0  0  0  0  0  0  0
  189.4370  176.7120  142.1640 C   0  0  0  0  0  3  0  0  0  0  0  0
  188.3570  177.3610  141.5630 C   0  0  0  0  0  3  0  0  0  0  0  0
  186.1450  177.8510  145.8980 C   0  0  0  0  0  3  0  0  0  0  0  0
  186.1920  178.0410  144.5060 C   0  0  0  0  0  0  0  0  0  0  0  0
  182.4000  179.3740  139.6660 C   0  0  0  0  0  2  0  0  0  0  0  0
  185.0030  179.8720  138.6150 O   0  0  0  0  0  0  0  0  0  0  0  0
  184.9200  179.1590  139.6520 C   0  0  0  0  0  0  0  0  0  0  0  0
  183.3960  177.6130  140.9860 C   0  0  0  0  0  2  0  0  0  0  0  0
  183.6260  178.7600  140.1300 N   0  0  0  0  0  0  0  0  0  0  0  0
  186.1280  178.7500  140.3240 N   0  0  0  0  0  0  0  0  0  0  0  0
  181.2820  178.6740  140.4130 C   0  0  0  0  0  2  0  0  0  0  0  0
  181.8930  177.4200  141.0230 C   0  0  0  0  0  2  0  0  0  0  0  0
  187.3280  178.5150  139.5310 C   0  0  0  0  0  2  0  0  0  0  0  0
  186.9850  177.6970  138.2950 C   0  0  0  0  0  2  0  0  0  0  0  0
  188.1690  177.6580  137.3480 C   0  0  0  0  0  2  0  0  0  0  0  0
  188.8910  176.4060  137.5090 N   0  0  0  0  0  2  0  0  0  0  0  0
  190.6310  177.3620  138.7400 O   0  0  0  0  0  0  0  0  0  0  0  0
  190.1250  176.3310  138.2210 C   0  0  0  0  0  0  0  0  0  0  0  0
  190.7900  175.0790  138.3470 N   0  0  0  0  0  1  0  0  0  0  0  0
  1 10  1  0  0  0  0
  2  6  1  0  0  0  0
  4 11  1  0  0  0  0
  4  1  2  0  0  0  0
  5  3  2  0  0  0  0
  6  9  2  0  0  0  0
  7  2  1  0  0  0  0
  8  3  1  0  0  0  0
  8 15  1  0  0  0  0
 10 15  1  0  0  0  0
 10  2  2  0  0  0  0
 11  8  2  0  0  0  0
 12  5  1  0  0  0  0
 13 12  2  0  0  0  0
 13 11  1  0  0  0  0
 14  9  1  0  0  0  0
 15 14  2  0  0  0  0
 16 20  1  0  0  0  0
 16 22  1  0  0  0  0
 17 18  2  0  0  0  0
 18 20  1  0  0  0  0
 18 21  1  0  0  0  0
 19 23  1  0  0  0  0
 20 19  1  0  0  0  0
 21  4  1  0  0  0  0
 22 23  1  0  0  0  0
 24 21  1  0  0  0  0
 25 24  1  0  0  0  0
 26 27  1  0  0  0  0
 26 25  1  0  0  0  0
 27 29  1  0  0  0  0
 29 30  1  0  0  0  0
 29 28  2  0  0  0  0
M  END
>  <MODEL>
7

>  <REMARK>
 VINA RESULT:      -8.1      2.469      5.003
  Name = 
  5 active torsions:
  status: ('A' for Active; 'I' for Inactive)
    1  A    between atoms: C_4  and  N_13
    2  A    between atoms: N_7  and  C_16
    3  A    between atoms: N_13  and  C_27
    4  A    between atoms: C_16  and  C_30
    5  A    between atoms: C_27  and  C_30
                            x       y       z     vdW  Elec       q    Type
                         _______ _______ _______ _____ _____    ______ ____

>  <TORSDO>
F 5

$$$$
=
 OpenBabel10272413543D

 30 33  0  0  0  0  0  0  0  0999 V2000
  187.9300  178.0720  144.5470 N   0  0  0  0  0  0  0  0  0  0  0  0
  186.6260  178.7800  146.4200 C   0  0  0  0  0  0  0  0  0  0  0  0
  190.8750  176.4410  147.0250 C   0  0  0  0  0  3  0  0  0  0  0  0
  189.0190  177.4920  143.9730 C   0  0  0  0  0  0  0  0  0  0  0  0
  191.9790  175.7990  146.4640 C   0  0  0  0  0  3  0  0  0  0  0  0
  186.4600  178.8770  147.8050 C   0  0  0  0  0  3  0  0  0  0  0  0
  185.6780  179.2890  145.5970 F   0  0  0  0  0  0  0  0  0  0  0  0
  189.8810  177.0040  146.2060 C   0  0  0  0  0  0  0  0  0  0  0  0
  187.4270  178.3570  148.6670 C   0  0  0  0  0  3  0  0  0  0  0  0
  187.7680  178.1600  145.8930 C   0  0  0  0  0  0  0  0  0  0  0  0
  190.0170  176.9240  144.7970 C   0  0  0  0  0  0  0  0  0  0  0  0
  192.1040  175.7070  145.0770 C   0  0  0  0  0  3  0  0  0  0  0  0
  191.1260  176.2620  144.2500 C   0  0  0  0  0  3  0  0  0  0  0  0
  188.5670  177.7370  148.1490 C   0  0  0  0  0  3  0  0  0  0  0  0
  188.7500  177.6320  146.7590 C   0  0  0  0  0  0  0  0  0  0  0  0
  185.9130  179.2420  141.3880 C   0  0  0  0  0  2  0  0  0  0  0  0
  188.5410  178.5290  140.5440 O   0  0  0  0  0  0  0  0  0  0  0  0
  188.1650  178.1270  141.6780 C   0  0  0  0  0  0  0  0  0  0  0  0
  186.1320  177.5540  143.1030 C   0  0  0  0  0  2  0  0  0  0  0  0
  186.8020  178.3350  142.0820 N   0  0  0  0  0  0  0  0  0  0  0  0
  189.1090  177.4560  142.5360 N   0  0  0  0  0  0  0  0  0  0  0  0
  184.5920  179.1670  142.1280 C   0  0  0  0  0  2  0  0  0  0  0  0
  184.6670  177.9330  143.0160 C   0  0  0  0  0  2  0  0  0  0  0  0
  190.1540  176.6420  141.9290 C   0  0  0  0  0  2  0  0  0  0  0  0
  191.3150  177.5220  141.4920 C   0  0  0  0  0  2  0  0  0  0  0  0
  191.6400  177.2730  140.0320 C   0  0  0  0  0  2  0  0  0  0  0  0
  190.8680  176.1450  139.5370 N   0  0  0  0  0  2  0  0  0  0  0  0
  191.5290  176.4390  137.3160 O   0  0  0  0  0  0  0  0  0  0  0  0
  190.8590  175.7830  138.1580 C   0  0  0  0  0  0  0  0  0  0  0  0
  190.0840  174.6690  137.7270 N   0  0  0  0  0  1  0  0  0  0  0  0
  1 10  1  0  0  0  0
  2  6  1  0  0  0  0
  4  1  2  0  0  0  0
  4 11  1  0  0  0  0
  5  3  1  0  0  0  0
  6  9  2  0  0  0  0
  7  2  1  0  0  0  0
  8 15  1  0  0  0  0
  8  3  2  0  0  0  0
 10  2  2  0  0  0  0
 10 15  1  0  0  0  0
 11  8  1  0  0  0  0
 12  5  2  0  0  0  0
 13 11  2  0  0  0  0
 13 12  1  0  0  0  0
 14  9  1  0  0  0  0
 15 14  2  0  0  0  0
 16 20  1  0  0  0  0
 16 22  1  0  0  0  0
 17 18  2  0  0  0  0
 18 20  1  0  0  0  0
 18 21  1  0  0  0  0
 20 19  1  0  0  0  0
 21  4  1  0  0  0  0
 22 23  1  0  0  0  0
 23 19  1  0  0  0  0
 24 21  1  0  0  0  0
 25 24  1  0  0  0  0
 26 25  1  0  0  0  0
 27 26  1  0  0  0  0
 28 29  2  0  0  0  0
 29 27  1  0  0  0  0
 30 29  1  0  0  0  0
M  END
>  <MODEL>
8

>  <REMARK>
 VINA RESULT:      -8.0      1.927      4.819
  Name = 
  5 active torsions:
  status: ('A' for Active; 'I' for Inactive)
    1  A    between atoms: C_4  and  N_13
    2  A    between atoms: N_7  and  C_16
    3  A    between atoms: N_13  and  C_27
    4  A    between atoms: C_16  and  C_30
    5  A    between atoms: C_27  and  C_30
                            x       y       z     vdW  Elec       q    Type
                         _______ _______ _______ _____ _____    ______ ____

>  <TORSDO>
F 5

$$$$
=
 OpenBabel10272413543D

 30 33  0  0  0  0  0  0  0  0999 V2000
  187.8600  178.1190  140.3370 N   0  0  0  0  0  0  0  0  0  0  0  0
  185.9940  178.6840  138.9580 C   0  0  0  0  0  0  0  0  0  0  0  0
  185.5240  178.2330  143.8010 C   0  0  0  0  0  3  0  0  0  0  0  0
  188.4560  177.8670  141.5350 C   0  0  0  0  0  0  0  0  0  0  0  0
  186.0980  177.9330  145.0380 C   0  0  0  0  0  3  0  0  0  0  0  0
  184.6390  179.0060  138.8360 C   0  0  0  0  0  3  0  0  0  0  0  0
  186.7680  178.6280  137.8470 F   0  0  0  0  0  0  0  0  0  0  0  0
  186.2980  178.2100  142.6280 C   0  0  0  0  0  0  0  0  0  0  0  0
  183.8270  179.0680  139.9710 C   0  0  0  0  0  3  0  0  0  0  0  0
  186.5420  178.4250  140.2210 C   0  0  0  0  0  0  0  0  0  0  0  0
  187.6760  177.8880  142.7140 C   0  0  0  0  0  0  0  0  0  0  0  0
  187.4500  177.6010  145.1180 C   0  0  0  0  0  3  0  0  0  0  0  0
  188.2320  177.5740  143.9630 C   0  0  0  0  0  3  0  0  0  0  0  0
  184.3660  178.8090  141.2330 C   0  0  0  0  0  3  0  0  0  0  0  0
  185.7270  178.4860  141.3730 C   0  0  0  0  0  0  0  0  0  0  0  0
  190.7630  177.1570  137.8520 C   0  0  0  0  0  2  0  0  0  0  0  0
  191.8880  177.7190  140.4100 O   0  0  0  0  0  0  0  0  0  0  0  0
  190.6580  177.4460  140.3630 C   0  0  0  0  0  0  0  0  0  0  0  0
  188.8520  176.2500  139.0200 C   0  0  0  0  0  2  0  0  0  0  0  0
  190.0810  177.0130  139.1210 N   0  0  0  0  0  0  0  0  0  0  0  0
  189.8630  177.5620  141.5600 N   0  0  0  0  0  0  0  0  0  0  0  0
  189.8200  176.5850  136.8120 C   0  0  0  0  0  2  0  0  0  0  0  0
  188.7650  175.7970  137.5760 C   0  0  0  0  0  2  0  0  0  0  0  0
  190.4870  177.2850  142.8470 C   0  0  0  0  0  2  0  0  0  0  0  0
  190.7700  175.7960  142.9800 C   0  0  0  0  0  2  0  0  0  0  0  0
  191.7780  175.5510  144.0860 C   0  0  0  0  0  2  0  0  0  0  0  0
  191.4940  176.4200  145.2170 N   0  0  0  0  0  2  0  0  0  0  0  0
  192.6400  175.0880  146.7560 O   0  0  0  0  0  0  0  0  0  0  0  0
  191.9590  176.1250  146.5330 C   0  0  0  0  0  0  0  0  0  0  0  0
  191.6520  177.0100  147.6040 N   0  0  0  0  0  1  0  0  0  0  0  0
  1  4  1  0  0  0  0
  2 10  1  0  0  0  0
  3  5  2  0  0  0  0
  4 21  1  0  0  0  0
  4 11  2  0  0  0  0
  5 12  1  0  0  0  0
  6  2  2  0  0  0  0
  6  9  1  0  0  0  0
  7  2  1  0  0  0  0
  8 11  1  0  0  0  0
  8  3  1  0  0  0  0
  9 14  2  0  0  0  0
 10  1  2  0  0  0  0
 10 15  1  0  0  0  0
 11 13  1  0  0  0  0
 13 12  2  0  0  0  0
 14 15  1  0  0  0  0
 15  8  2  0  0  0  0
 16 20  1  0  0  0  0
 18 17  2  0  0  0  0
 18 21  1  0  0  0  0
 19 20  1  0  0  0  0
 20 18  1  0  0  0  0
 21 24  1  0  0  0  0
 22 23  1  0  0  0  0
 22 16  1  0  0  0  0
 23 19  1  0  0  0  0
 24 25  1  0  0  0  0
 25 26  1  0  0  0  0
 26 27  1  0  0  0  0
 27 29  1  0  0  0  0
 29 28  2  0  0  0  0
 29 30  1  0  0  0  0
M  END
>  <MODEL>
9

>  <REMARK>
 VINA RESULT:      -8.0      2.584      5.826
  Name = 
  5 active torsions:
  status: ('A' for Active; 'I' for Inactive)
    1  A    between atoms: C_4  and  N_13
    2  A    between atoms: N_7  and  C_16
    3  A    between atoms: N_13  and  C_27
    4  A    between atoms: C_16  and  C_30
    5  A    between atoms: C_27  and  C_30
                            x       y       z     vdW  Elec       q    Type
                         _______ _______ _______ _____ _____    ______ ____

>  <TORSDO>
F 5

$$$$
