=
 OpenBabel10272413143D

 32 36  0  0  1  0  0  0  0  0999 V2000
  189.3350  177.4410  142.1880 O   0  0  0  0  0  0  0  0  0  0  0  0
  187.7440  177.9480  143.8830 C   0  0  0  0  0  0  0  0  0  0  0  0
  190.4440  176.6500  141.7460 C   0  0  2  0  0  3  0  0  0  0  0  0
  188.9810  177.5490  143.5400 C   0  0  0  0  0  0  0  0  0  0  0  0
  187.3560  178.0310  145.2760 N   0  0  0  0  0  0  0  0  0  0  0  0
  182.9490  178.6070  142.5950 C   0  0  0  0  0  2  0  0  0  0  0  0
  186.7760  178.3600  142.8080 C   0  0  0  0  0  2  0  0  0  0  0  0
  183.6100  178.5820  145.0030 C   0  0  0  0  0  2  0  0  0  0  0  0
  185.0790  178.7270  144.6130 C   0  0  1  0  0  3  0  0  0  0  0  0
  190.0310  177.2840  144.5960 C   0  0  1  0  0  3  0  0  0  0  0  0
  185.9330  177.9820  145.6290 C   0  0  0  0  0  2  0  0  0  0  0  0
  189.4170  176.8850  145.9310 C   0  0  0  0  0  2  0  0  0  0  0  0
  191.0300  176.2380  144.1260 C   0  0  0  0  0  2  0  0  0  0  0  0
  185.3290  178.1290  143.2240 C   0  0  1  0  0  3  0  0  0  0  0  0
  188.3980  177.9440  146.3180 C   0  0  2  0  0  3  0  0  0  0  0  0
  191.5800  176.6410  142.7660 C   0  0  0  0  0  2  0  0  0  0  0  0
  182.7140  179.2420  143.9610 C   0  0  0  0  0  2  0  0  0  0  0  0
  184.4100  178.7720  142.1880 C   0  0  0  0  0  2  0  0  0  0  0  0
  187.8520  177.6390  147.7090 C   0  0  0  0  0  2  0  0  0  0  0  0
  188.7170  178.3000  148.7640 C   0  0  0  0  0  1  0  0  0  0  0  0
  190.9420  177.1330  140.3880 C   0  0  1  0  0  3  0  0  0  0  0  0
  192.4240  177.4490  140.4680 C   0  0  0  0  0  1  0  0  0  0  0  0
  190.7230  176.1560  139.4090 O   0  0  0  0  0  0  0  0  0  0  0  0
  189.7050  176.3700  137.1770 C   0  0  2  0  0  0  0  0  0  0  0  0
  188.9040  179.7790  137.2880 O   0  0  0  0  0  0  0  0  0  0  0  0
  191.1110  175.9820  136.7370 C   0  0  0  0  0  1  0  0  0  0  0  0
  189.3600  178.0760  138.9370 C   0  0  0  0  0  2  0  0  0  0  0  0
  189.3720  177.6200  136.5980 O   0  0  0  0  0  0  0  0  0  0  0  0
  189.5860  176.5800  138.7120 C   0  0  2  0  0  3  0  0  0  0  0  0
  189.1860  178.5840  137.5640 C   0  0  0  0  0  0  0  0  0  0  0  0
  188.7300  175.2980  136.7050 C   0  0  0  0  0  2  0  0  0  0  0  0
  187.4930  175.4370  137.3380 O   0  0  0  0  0  1  0  0  0  0  0  0
  1  4  1  0  0  0  0
  2  5  1  0  0  0  0
  3 21  1  6  0  0  0
  3  1  1  0  0  0  0
  3 16  1  0  0  0  0
  4  2  2  0  0  0  0
  4 10  1  0  0  0  0
  5 11  1  0  0  0  0
  5 15  1  0  0  0  0
  6 17  1  0  0  0  0
  7 14  1  0  0  0  0
  7  2  1  0  0  0  0
  9  8  1  1  0  0  0
  9 11  1  0  0  0  0
 10 13  1  6  0  0  0
 10 12  1  0  0  0  0
 12 15  1  0  0  0  0
 14 18  1  6  0  0  0
 14  9  1  0  0  0  0
 15 19  1  1  0  0  0
 16 13  1  0  0  0  0
 17  8  1  0  0  0  0
 18  6  1  0  0  0  0
 19 20  1  0  0  0  0
 21 22  1  1  0  0  0
 23 21  1  0  0  0  0
 24 26  1  6  0  0  0
 24 29  1  0  0  0  0
 25 30  2  0  0  0  0
 28 24  1  0  0  0  0
 28 30  1  0  0  0  0
 29 27  1  0  0  0  0
 29 23  1  1  0  0  0
 30 27  1  0  0  0  0
 31 24  1  0  0  0  0
 31 32  1  0  0  0  0
M  END
>  <MODEL>
1

>  <REMARK>
 VINA RESULT:     -10.3      0.000      0.000
  Name = 
  5 active torsions:
  status: ('A' for Active; 'I' for Inactive)
    1  A    between atoms: C_3  and  C_22
    2  A    between atoms: C_4  and  C_24
    3  A    between atoms: C_13  and  C_29
    4  A    between atoms: O_16  and  C_20
    5  A    between atoms: O_16  and  C_24
                            x       y       z     vdW  Elec       q    Type
                         _______ _______ _______ _____ _____    ______ ____

>  <TORSDO>
F 5

$$$$
=
 OpenBabel10272413143D

 32 36  0  0  1  0  0  0  0  0999 V2000
  186.9300  178.1920  143.4310 O   0  0  0  0  0  0  0  0  0  0  0  0
  186.7540  178.4030  141.0680 C   0  0  0  0  0  0  0  0  0  0  0  0
  186.3180  177.8500  144.6790 C   0  0  2  0  0  3  0  0  0  0  0  0
  186.1820  178.4820  142.2810 C   0  0  0  0  0  0  0  0  0  0  0  0
  185.9820  178.6680  139.8710 N   0  0  0  0  0  0  0  0  0  0  0  0
  190.4630  176.6580  138.1890 C   0  0  0  0  0  2  0  0  0  0  0  0
  188.2210  178.0880  140.9600 C   0  0  0  0  0  2  0  0  0  0  0  0
  188.3640  177.5220  137.1460 C   0  0  0  0  0  2  0  0  0  0  0  0
  187.9550  178.1610  138.4710 C   0  0  1  0  0  3  0  0  0  0  0  0
  184.7540  178.9550  142.4370 C   0  0  1  0  0  3  0  0  0  0  0  0
  186.4380  178.1230  138.5870 C   0  0  0  0  0  2  0  0  0  0  0  0
  183.9210  178.6900  141.1910 C   0  0  0  0  0  2  0  0  0  0  0  0
  184.1020  178.3380  143.6650 C   0  0  0  0  0  2  0  0  0  0  0  0
  188.5600  177.3900  139.6500 C   0  0  1  0  0  3  0  0  0  0  0  0
  184.6490  179.2900  139.9990 C   0  0  2  0  0  3  0  0  0  0  0  0
  184.9880  178.5730  144.8790 C   0  0  0  0  0  2  0  0  0  0  0  0
  189.8830  177.4620  137.0300 C   0  0  0  0  0  2  0  0  0  0  0  0
  190.0790  177.3060  139.5150 C   0  0  0  0  0  2  0  0  0  0  0  0
  183.7840  179.1500  138.7510 C   0  0  0  0  0  2  0  0  0  0  0  0
  182.4740  179.8900  138.9390 C   0  0  0  0  0  1  0  0  0  0  0  0
  187.2650  178.1340  145.8400 C   0  0  1  0  0  3  0  0  0  0  0  0
  186.4690  178.3380  147.1140 C   0  0  0  0  0  1  0  0  0  0  0  0
  188.1620  177.0730  146.0120 O   0  0  0  0  0  0  0  0  0  0  0  0
  190.3630  177.4830  144.9840 C   0  0  2  0  0  0  0  0  0  0  0  0
  192.3870  176.2570  147.5680 O   0  0  0  0  0  0  0  0  0  0  0  0
  189.8300  176.4870  143.9630 C   0  0  0  0  0  1  0  0  0  0  0  0
  190.1150  177.0560  147.4100 C   0  0  0  0  0  2  0  0  0  0  0  0
  191.5720  176.9810  145.5260 O   0  0  0  0  0  0  0  0  0  0  0  0
  189.4130  177.6730  146.1990 C   0  0  2  0  0  3  0  0  0  0  0  0
  191.4490  176.7280  146.8750 C   0  0  0  0  0  0  0  0  0  0  0  0
  190.6150  178.8140  144.2860 C   0  0  0  0  0  2  0  0  0  0  0  0
  191.9820  179.0260  144.0970 O   0  0  0  0  0  1  0  0  0  0  0  0
  1  3  1  0  0  0  0
  2  4  2  0  0  0  0
  3 16  1  0  0  0  0
  3 21  1  1  0  0  0
  4 10  1  0  0  0  0
  4  1  1  0  0  0  0
  5 15  1  0  0  0  0
  5  2  1  0  0  0  0
  6 18  1  0  0  0  0
  7  2  1  0  0  0  0
  9  8  1  6  0  0  0
  9 11  1  0  0  0  0
  9 14  1  0  0  0  0
 10 12  1  6  0  0  0
 10 13  1  0  0  0  0
 11  5  1  0  0  0  0
 13 16  1  0  0  0  0
 14 18  1  6  0  0  0
 14  7  1  0  0  0  0
 15 19  1  6  0  0  0
 15 12  1  0  0  0  0
 17  8  1  0  0  0  0
 17  6  1  0  0  0  0
 19 20  1  0  0  0  0
 21 23  1  0  0  0  0
 21 22  1  1  0  0  0
 24 26  1  6  0  0  0
 24 28  1  0  0  0  0
 24 29  1  0  0  0  0
 28 30  1  0  0  0  0
 29 23  1  6  0  0  0
 29 27  1  0  0  0  0
 30 27  1  0  0  0  0
 30 25  2  0  0  0  0
 31 24  1  0  0  0  0
 32 31  1  0  0  0  0
M  END
>  <MODEL>
2

>  <REMARK>
 VINA RESULT:     -10.2      2.918      7.694
  Name = 
  5 active torsions:
  status: ('A' for Active; 'I' for Inactive)
    1  A    between atoms: C_3  and  C_22
    2  A    between atoms: C_4  and  C_24
    3  A    between atoms: C_13  and  C_29
    4  A    between atoms: O_16  and  C_20
    5  A    between atoms: O_16  and  C_24
                            x       y       z     vdW  Elec       q    Type
                         _______ _______ _______ _____ _____    ______ ____

>  <TORSDO>
F 5

$$$$
=
 OpenBabel10272413143D

 32 36  0  0  1  0  0  0  0  0999 V2000
  189.3570  177.4440  142.0350 O   0  0  0  0  0  0  0  0  0  0  0  0
  187.7410  177.9460  143.7080 C   0  0  0  0  0  0  0  0  0  0  0  0
  190.4810  176.6660  141.6120 C   0  0  2  0  0  3  0  0  0  0  0  0
  188.9870  177.5620  143.3820 C   0  0  0  0  0  0  0  0  0  0  0  0
  187.3380  178.0380  145.0960 N   0  0  0  0  0  0  0  0  0  0  0  0
  182.9490  178.5190  142.3660 C   0  0  0  0  0  2  0  0  0  0  0  0
  186.7770  178.3320  142.6200 C   0  0  0  0  0  2  0  0  0  0  0  0
  183.5870  178.5290  144.7810 C   0  0  0  0  0  2  0  0  0  0  0  0
  185.0570  178.6930  144.4040 C   0  0  1  0  0  3  0  0  0  0  0  0
  190.0300  177.3240  144.4510 C   0  0  1  0  0  3  0  0  0  0  0  0
  185.9120  177.9720  145.4360 C   0  0  0  0  0  2  0  0  0  0  0  0
  189.4090  176.9290  145.7840 C   0  0  0  0  0  2  0  0  0  0  0  0
  191.0500  176.2880  144.0010 C   0  0  0  0  0  2  0  0  0  0  0  0
  185.3300  178.0830  143.0240 C   0  0  1  0  0  3  0  0  0  0  0  0
  188.3710  177.9780  146.1490 C   0  0  2  0  0  3  0  0  0  0  0  0
  191.6070  176.6850  142.6430 C   0  0  0  0  0  2  0  0  0  0  0  0
  182.6920  179.1650  143.7240 C   0  0  0  0  0  2  0  0  0  0  0  0
  184.4120  178.7010  141.9720 C   0  0  0  0  0  2  0  0  0  0  0  0
  187.8150  177.6800  147.5380 C   0  0  0  0  0  2  0  0  0  0  0  0
  188.7620  178.2020  148.6010 C   0  0  0  0  0  1  0  0  0  0  0  0
  190.9860  177.1420  140.2540 C   0  0  1  0  0  3  0  0  0  0  0  0
  192.4950  177.2880  140.2900 C   0  0  0  0  0  1  0  0  0  0  0  0
  190.6260  176.2330  139.2510 O   0  0  0  0  0  0  0  0  0  0  0  0
  189.4040  177.2160  137.3520 C   0  0  2  0  0  0  0  0  0  0  0  0
  191.1410  175.6520  134.7420 O   0  0  0  0  0  0  0  0  0  0  0  0
  188.2430  176.4620  137.9880 C   0  0  0  0  0  1  0  0  0  0  0  0
  191.6080  176.1270  137.0620 C   0  0  0  0  0  2  0  0  0  0  0  0
  189.5640  176.7680  136.0180 O   0  0  0  0  0  0  0  0  0  0  0  0
  190.7640  176.9360  138.0490 C   0  0  2  0  0  3  0  0  0  0  0  0
  190.7820  176.1500  135.8400 C   0  0  0  0  0  0  0  0  0  0  0  0
  189.0890  178.7070  137.3700 C   0  0  0  0  0  2  0  0  0  0  0  0
  188.9770  179.1770  138.6810 O   0  0  0  0  0  1  0  0  0  0  0  0
  1  4  1  0  0  0  0
  2  5  1  0  0  0  0
  3 21  1  6  0  0  0
  3  1  1  0  0  0  0
  3 16  1  0  0  0  0
  4  2  2  0  0  0  0
  4 10  1  0  0  0  0
  5 11  1  0  0  0  0
  5 15  1  0  0  0  0
  6 17  1  0  0  0  0
  7 14  1  0  0  0  0
  7  2  1  0  0  0  0
  9  8  1  1  0  0  0
  9 11  1  0  0  0  0
 10 13  1  6  0  0  0
 10 12  1  0  0  0  0
 12 15  1  0  0  0  0
 14 18  1  6  0  0  0
 14  9  1  0  0  0  0
 15 19  1  1  0  0  0
 16 13  1  0  0  0  0
 17  8  1  0  0  0  0
 18  6  1  0  0  0  0
 19 20  1  0  0  0  0
 21 22  1  1  0  0  0
 23 21  1  0  0  0  0
 24 31  1  0  0  0  0
 24 26  1  1  0  0  0
 24 29  1  0  0  0  0
 25 30  2  0  0  0  0
 27 29  1  0  0  0  0
 28 24  1  0  0  0  0
 29 23  1  1  0  0  0
 30 28  1  0  0  0  0
 30 27  1  0  0  0  0
 31 32  1  0  0  0  0
M  END
>  <MODEL>
3

>  <REMARK>
 VINA RESULT:     -10.1      0.818      1.743
  Name = 
  5 active torsions:
  status: ('A' for Active; 'I' for Inactive)
    1  A    between atoms: C_3  and  C_22
    2  A    between atoms: C_4  and  C_24
    3  A    between atoms: C_13  and  C_29
    4  A    between atoms: O_16  and  C_20
    5  A    between atoms: O_16  and  C_24
                            x       y       z     vdW  Elec       q    Type
                         _______ _______ _______ _____ _____    ______ ____

>  <TORSDO>
F 5

$$$$
=
 OpenBabel10272413143D

 32 36  0  0  1  0  0  0  0  0999 V2000
  185.1590  178.2020  143.3270 O   0  0  0  0  0  0  0  0  0  0  0  0
  187.3470  177.7060  144.1190 C   0  0  0  0  0  0  0  0  0  0  0  0
  183.9290  178.9140  143.4920 C   0  0  2  0  0  3  0  0  0  0  0  0
  186.0650  178.0100  144.3800 C   0  0  0  0  0  0  0  0  0  0  0  0
  188.2990  177.5390  145.1990 N   0  0  0  0  0  0  0  0  0  0  0  0
  191.1540  177.6410  140.8640 C   0  0  0  0  0  2  0  0  0  0  0  0
  187.7810  177.4890  142.6950 C   0  0  0  0  0  2  0  0  0  0  0  0
  191.5890  177.3880  143.3110 C   0  0  0  0  0  2  0  0  0  0  0  0
  190.1050  177.1330  143.5600 C   0  0  1  0  0  3  0  0  0  0  0  0
  185.5570  178.0750  145.8030 C   0  0  1  0  0  3  0  0  0  0  0  0
  189.7320  177.6970  144.9230 C   0  0  0  0  0  2  0  0  0  0  0  0
  186.6620  178.4130  146.7940 C   0  0  0  0  0  2  0  0  0  0  0  0
  184.3990  179.0540  145.9280 C   0  0  0  0  0  2  0  0  0  0  0  0
  189.2530  177.8240  142.4890 C   0  0  1  0  0  3  0  0  0  0  0  0
  187.8020  177.4300  146.5840 C   0  0  2  0  0  3  0  0  0  0  0  0
  183.3410  178.7210  144.8880 C   0  0  0  0  0  2  0  0  0  0  0  0
  191.9850  176.9140  141.9170 C   0  0  0  0  0  2  0  0  0  0  0  0
  189.6710  177.3700  141.0930 C   0  0  0  0  0  2  0  0  0  0  0  0
  188.8750  177.6630  147.6420 C   0  0  0  0  0  2  0  0  0  0  0  0
  188.2320  178.0380  148.9630 C   0  0  0  0  0  1  0  0  0  0  0  0
  182.9220  178.5070  142.4220 C   0  0  1  0  0  3  0  0  0  0  0  0
  181.5290  178.9390  142.8370 C   0  0  0  0  0  1  0  0  0  0  0  0
  183.2490  179.0920  141.1920 O   0  0  0  0  0  0  0  0  0  0  0  0
  183.9760  178.4690  138.9230 C   0  0  2  0  0  0  0  0  0  0  0  0
  181.8270  175.7500  138.4100 O   0  0  0  0  0  0  0  0  0  0  0  0
  183.4500  179.8620  138.6060 C   0  0  0  0  0  1  0  0  0  0  0  0
  182.6680  176.9210  140.3450 C   0  0  0  0  0  2  0  0  0  0  0  0
  183.2840  177.5250  138.1240 O   0  0  0  0  0  0  0  0  0  0  0  0
  183.7100  178.0400  140.3930 C   0  0  2  0  0  3  0  0  0  0  0  0
  182.5420  176.6610  138.9000 C   0  0  0  0  0  0  0  0  0  0  0  0
  185.4670  178.4250  138.6130 C   0  0  0  0  0  2  0  0  0  0  0  0
  186.2190  178.7880  139.7310 O   0  0  0  0  0  1  0  0  0  0  0  0
  1  3  1  0  0  0  0
  1  4  1  0  0  0  0
  2  4  2  0  0  0  0
  2  5  1  0  0  0  0
  3 21  1  6  0  0  0
  3 16  1  0  0  0  0
  4 10  1  0  0  0  0
  5 15  1  0  0  0  0
  6 18  1  0  0  0  0
  6 17  1  0  0  0  0
  7  2  1  0  0  0  0
  9  8  1  6  0  0  0
  9 11  1  0  0  0  0
 10 13  1  6  0  0  0
 10 12  1  0  0  0  0
 11  5  1  0  0  0  0
 14 18  1  6  0  0  0
 14  7  1  0  0  0  0
 14  9  1  0  0  0  0
 15 12  1  0  0  0  0
 15 19  1  1  0  0  0
 16 13  1  0  0  0  0
 17  8  1  0  0  0  0
 19 20  1  0  0  0  0
 21 22  1  1  0  0  0
 23 21  1  0  0  0  0
 24 26  1  6  0  0  0
 24 29  1  0  0  0  0
 25 30  2  0  0  0  0
 27 29  1  0  0  0  0
 28 30  1  0  0  0  0
 28 24  1  0  0  0  0
 29 23  1  1  0  0  0
 30 27  1  0  0  0  0
 31 24  1  0  0  0  0
 31 32  1  0  0  0  0
M  END
>  <MODEL>
4

>  <REMARK>
 VINA RESULT:      -9.3      2.630      6.234
  Name = 
  5 active torsions:
  status: ('A' for Active; 'I' for Inactive)
    1  A    between atoms: C_3  and  C_22
    2  A    between atoms: C_4  and  C_24
    3  A    between atoms: C_13  and  C_29
    4  A    between atoms: O_16  and  C_20
    5  A    between atoms: O_16  and  C_24
                            x       y       z     vdW  Elec       q    Type
                         _______ _______ _______ _____ _____    ______ ____

>  <TORSDO>
F 5

$$$$
=
 OpenBabel10272413143D

 32 36  0  0  1  0  0  0  0  0999 V2000
  184.7450  178.0570  142.8240 O   0  0  0  0  0  0  0  0  0  0  0  0
  186.7450  177.8060  144.0890 C   0  0  0  0  0  0  0  0  0  0  0  0
  183.5040  178.7380  142.6200 C   0  0  2  0  0  3  0  0  0  0  0  0
  185.4350  178.1010  144.0440 C   0  0  0  0  0  0  0  0  0  0  0  0
  187.4760  177.8810  145.3370 N   0  0  0  0  0  0  0  0  0  0  0  0
  191.1010  177.2860  141.6690 C   0  0  0  0  0  2  0  0  0  0  0  0
  187.4420  177.3440  142.8380 C   0  0  0  0  0  2  0  0  0  0  0  0
  191.0650  177.5110  144.1560 C   0  0  0  0  0  2  0  0  0  0  0  0
  189.5610  177.2480  144.1700 C   0  0  1  0  0  3  0  0  0  0  0  0
  184.6660  178.4110  145.3090 C   0  0  1  0  0  3  0  0  0  0  0  0
  188.9340  178.0410  145.3070 C   0  0  0  0  0  2  0  0  0  0  0  0
  185.5620  178.9720  146.4040 C   0  0  0  0  0  2  0  0  0  0  0  0
  183.5030  179.3490  145.0280 C   0  0  0  0  0  2  0  0  0  0  0  0
  188.9250  177.6930  142.8480 C   0  0  1  0  0  3  0  0  0  0  0  0
  186.7250  178.0130  146.6010 C   0  0  2  0  0  3  0  0  0  0  0  0
  182.6620  178.7850  143.8930 C   0  0  0  0  0  2  0  0  0  0  0  0
  191.7190  176.8020  142.9770 C   0  0  0  0  0  2  0  0  0  0  0  0
  189.6020  177.0030  141.6660 C   0  0  0  0  0  2  0  0  0  0  0  0
  187.5780  178.4810  147.7760 C   0  0  0  0  0  2  0  0  0  0  0  0
  188.0520  177.2890  148.5840 C   0  0  0  0  0  1  0  0  0  0  0  0
  182.7200  178.0980  141.4790 C   0  0  1  0  0  3  0  0  0  0  0  0
  182.0130  179.1730  140.6760 C   0  0  0  0  0  1  0  0  0  0  0  0
  183.5750  177.3730  140.6410 O   0  0  0  0  0  0  0  0  0  0  0  0
  183.5410  177.3890  138.1780 C   0  0  2  0  0  0  0  0  0  0  0  0
  186.7140  178.7660  137.6180 O   0  0  0  0  0  0  0  0  0  0  0  0
  183.4440  175.8840  138.3850 C   0  0  0  0  0  1  0  0  0  0  0  0
  185.1670  178.7380  139.4700 C   0  0  0  0  0  2  0  0  0  0  0  0
  184.6870  177.6710  137.3940 O   0  0  0  0  0  0  0  0  0  0  0  0
  183.7460  178.1720  139.5050 C   0  0  2  0  0  3  0  0  0  0  0  0
  185.6070  178.4130  138.1010 C   0  0  0  0  0  0  0  0  0  0  0  0
  182.2850  177.8680  137.4620 C   0  0  0  0  0  2  0  0  0  0  0  0
  181.2020  177.0310  137.7420 O   0  0  0  0  0  1  0  0  0  0  0  0
  1  4  1  0  0  0  0
  2  5  1  0  0  0  0
  3 21  1  6  0  0  0
  3  1  1  0  0  0  0
  3 16  1  0  0  0  0
  4  2  2  0  0  0  0
  4 10  1  0  0  0  0
  5 15  1  0  0  0  0
  6 17  1  0  0  0  0
  7 14  1  0  0  0  0
  7  2  1  0  0  0  0
  9  8  1  6  0  0  0
  9 11  1  0  0  0  0
 10 13  1  6  0  0  0
 10 12  1  0  0  0  0
 11  5  1  0  0  0  0
 12 15  1  0  0  0  0
 14 18  1  6  0  0  0
 14  9  1  0  0  0  0
 15 19  1  1  0  0  0
 16 13  1  0  0  0  0
 17  8  1  0  0  0  0
 18  6  1  0  0  0  0
 19 20  1  0  0  0  0
 21 22  1  6  0  0  0
 23 21  1  0  0  0  0
 24 26  1  1  0  0  0
 24 29  1  0  0  0  0
 25 30  2  0  0  0  0
 27 29  1  0  0  0  0
 28 30  1  0  0  0  0
 28 24  1  0  0  0  0
 29 23  1  1  0  0  0
 30 27  1  0  0  0  0
 31 32  1  0  0  0  0
 31 24  1  0  0  0  0
M  END
>  <MODEL>
5

>  <REMARK>
 VINA RESULT:      -9.1      2.703      5.898
  Name = 
  5 active torsions:
  status: ('A' for Active; 'I' for Inactive)
    1  A    between atoms: C_3  and  C_22
    2  A    between atoms: C_4  and  C_24
    3  A    between atoms: C_13  and  C_29
    4  A    between atoms: O_16  and  C_20
    5  A    between atoms: O_16  and  C_24
                            x       y       z     vdW  Elec       q    Type
                         _______ _______ _______ _____ _____    ______ ____

>  <TORSDO>
F 5

$$$$
=
 OpenBabel10272413143D

 32 36  0  0  1  0  0  0  0  0999 V2000
  187.4800  177.9250  141.5370 O   0  0  0  0  0  0  0  0  0  0  0  0
  186.4560  178.0310  143.6820 C   0  0  0  0  0  0  0  0  0  0  0  0
  187.5630  178.4130  140.1940 C   0  0  2  0  0  3  0  0  0  0  0  0
  186.3550  178.1380  142.3460 C   0  0  0  0  0  0  0  0  0  0  0  0
  185.3080  178.2820  144.5300 N   0  0  0  0  0  0  0  0  0  0  0  0
  189.3570  177.9780  147.7650 C   0  0  0  0  0  2  0  0  0  0  0  0
  187.7600  177.5960  144.2930 C   0  0  0  0  0  2  0  0  0  0  0  0
  186.8960  178.3450  147.9780 C   0  0  0  0  0  2  0  0  0  0  0  0
  186.6890  177.8770  146.5400 C   0  0  1  0  0  3  0  0  0  0  0  0
  185.0210  178.4130  141.6880 C   0  0  1  0  0  3  0  0  0  0  0  0
  185.5210  178.6420  145.9370 C   0  0  0  0  0  2  0  0  0  0  0  0
  184.0670  179.1580  142.6110 C   0  0  0  0  0  2  0  0  0  0  0  0
  185.2000  179.1620  140.3760 C   0  0  0  0  0  2  0  0  0  0  0  0
  187.9440  178.1480  145.7000 C   0  0  1  0  0  3  0  0  0  0  0  0
  183.9700  178.3840  143.9160 C   0  0  2  0  0  3  0  0  0  0  0  0
  186.2010  178.4190  139.5040 C   0  0  0  0  0  2  0  0  0  0  0  0
  188.1140  177.6640  148.5910 C   0  0  0  0  0  2  0  0  0  0  0  0
  189.1670  177.4890  146.3320 C   0  0  0  0  0  2  0  0  0  0  0  0
  182.9280  179.0370  144.8180 C   0  0  0  0  0  2  0  0  0  0  0  0
  181.5490  178.9050  144.2020 C   0  0  0  0  0  1  0  0  0  0  0  0
  188.5720  177.6030  139.3870 C   0  0  1  0  0  3  0  0  0  0  0  0
  188.1620  177.5790  137.9270 C   0  0  0  0  0  1  0  0  0  0  0  0
  189.8530  178.1560  139.5060 O   0  0  0  0  0  0  0  0  0  0  0  0
  191.0660  177.2280  141.4390 C   0  0  2  0  0  0  0  0  0  0  0  0
  194.2310  176.9130  139.9710 O   0  0  0  0  0  0  0  0  0  0  0  0
  190.6920  178.5750  142.0450 C   0  0  0  0  0  1  0  0  0  0  0  0
  191.9730  177.0880  139.1390 C   0  0  0  0  0  2  0  0  0  0  0  0
  192.4750  177.0880  141.4680 O   0  0  0  0  0  0  0  0  0  0  0  0
  190.6700  177.1060  139.9410 C   0  0  2  0  0  3  0  0  0  0  0  0
  192.9980  177.0180  140.1960 C   0  0  0  0  0  0  0  0  0  0  0  0
  190.4120  176.1230  142.2580 C   0  0  0  0  0  2  0  0  0  0  0  0
  191.1730  175.8260  143.3910 O   0  0  0  0  0  1  0  0  0  0  0  0
  1  4  1  0  0  0  0
  2  7  1  0  0  0  0
  2  5  1  0  0  0  0
  3 21  1  6  0  0  0
  3  1  1  0  0  0  0
  4  2  2  0  0  0  0
  5 11  1  0  0  0  0
  6 17  1  0  0  0  0
  8 17  1  0  0  0  0
  9 11  1  6  0  0  0
  9  8  1  0  0  0  0
 10 13  1  6  0  0  0
 10  4  1  0  0  0  0
 10 12  1  0  0  0  0
 12 15  1  0  0  0  0
 14  7  1  6  0  0  0
 14 18  1  0  0  0  0
 14  9  1  0  0  0  0
 15  5  1  0  0  0  0
 15 19  1  1  0  0  0
 16  3  1  0  0  0  0
 16 13  1  0  0  0  0
 18  6  1  0  0  0  0
 20 19  1  0  0  0  0
 21 22  1  6  0  0  0
 21 23  1  0  0  0  0
 24 28  1  0  0  0  0
 24 26  1  1  0  0  0
 24 31  1  0  0  0  0
 25 30  2  0  0  0  0
 27 29  1  0  0  0  0
 27 30  1  0  0  0  0
 29 23  1  6  0  0  0
 29 24  1  0  0  0  0
 30 28  1  0  0  0  0
 31 32  1  0  0  0  0
M  END
>  <MODEL>
6

>  <REMARK>
 VINA RESULT:      -9.1      1.749      5.125
  Name = 
  5 active torsions:
  status: ('A' for Active; 'I' for Inactive)
    1  A    between atoms: C_3  and  C_22
    2  A    between atoms: C_4  and  C_24
    3  A    between atoms: C_13  and  C_29
    4  A    between atoms: O_16  and  C_20
    5  A    between atoms: O_16  and  C_24
                            x       y       z     vdW  Elec       q    Type
                         _______ _______ _______ _____ _____    ______ ____

>  <TORSDO>
F 5

$$$$
=
 OpenBabel10272413143D

 32 36  0  0  1  0  0  0  0  0999 V2000
  187.9900  177.7920  141.5370 O   0  0  0  0  0  0  0  0  0  0  0  0
  186.8960  177.8950  143.6480 C   0  0  0  0  0  0  0  0  0  0  0  0
  188.1240  178.2890  140.2020 C   0  0  2  0  0  3  0  0  0  0  0  0
  186.8420  178.0130  142.3100 C   0  0  0  0  0  0  0  0  0  0  0  0
  185.7240  178.1540  144.4580 N   0  0  0  0  0  0  0  0  0  0  0  0
  189.6570  177.7760  147.8250 C   0  0  0  0  0  2  0  0  0  0  0  0
  188.1730  177.4400  144.2980 C   0  0  0  0  0  2  0  0  0  0  0  0
  187.1950  178.1720  147.9580 C   0  0  0  0  0  2  0  0  0  0  0  0
  187.0310  177.7170  146.5100 C   0  0  1  0  0  3  0  0  0  0  0  0
  185.5340  178.3100  141.6100 C   0  0  1  0  0  3  0  0  0  0  0  0
  185.8930  178.5010  145.8740 C   0  0  0  0  0  2  0  0  0  0  0  0
  184.5580  179.0600  142.5060 C   0  0  0  0  0  2  0  0  0  0  0  0
  185.7660  179.0660  140.3110 C   0  0  0  0  0  2  0  0  0  0  0  0
  188.3160  177.9790  145.7160 C   0  0  1  0  0  3  0  0  0  0  0  0
  184.4080  178.2770  143.8010 C   0  0  2  0  0  3  0  0  0  0  0  0
  186.7860  178.3170  139.4670 C   0  0  0  0  0  2  0  0  0  0  0  0
  188.3830  177.4720  148.6060 C   0  0  0  0  0  2  0  0  0  0  0  0
  189.5100  177.3000  146.3830 C   0  0  0  0  0  2  0  0  0  0  0  0
  183.3440  178.9360  144.6730 C   0  0  0  0  0  2  0  0  0  0  0  0
  181.9780  178.7810  144.0340 C   0  0  0  0  0  1  0  0  0  0  0  0
  189.1500  177.4720  139.4230 C   0  0  1  0  0  3  0  0  0  0  0  0
  190.1210  176.8160  140.3860 C   0  0  0  0  0  1  0  0  0  0  0  0
  188.5140  176.4900  138.6550 O   0  0  0  0  0  0  0  0  0  0  0  0
  187.7980  176.3730  136.3010 C   0  0  2  0  0  0  0  0  0  0  0  0
  190.5140  174.5730  135.0140 O   0  0  0  0  0  0  0  0  0  0  0  0
  186.6480  175.5860  136.9150 C   0  0  0  0  0  1  0  0  0  0  0  0
  190.1370  175.9250  136.9770 C   0  0  0  0  0  2  0  0  0  0  0  0
  188.4470  175.5620  135.3380 O   0  0  0  0  0  0  0  0  0  0  0  0
  188.8980  176.7470  137.3340 C   0  0  2  0  0  3  0  0  0  0  0  0
  189.7470  175.2930  135.7030 C   0  0  0  0  0  0  0  0  0  0  0  0
  187.2370  177.6250  135.6390 C   0  0  0  0  0  2  0  0  0  0  0  0
  187.7490  178.7780  136.2380 O   0  0  0  0  0  1  0  0  0  0  0  0
  1  4  1  0  0  0  0
  2  7  1  0  0  0  0
  2  5  1  0  0  0  0
  3 21  1  6  0  0  0
  3  1  1  0  0  0  0
  4  2  2  0  0  0  0
  5 11  1  0  0  0  0
  6 17  1  0  0  0  0
  8 17  1  0  0  0  0
  9 11  1  6  0  0  0
  9  8  1  0  0  0  0
 10 13  1  6  0  0  0
 10  4  1  0  0  0  0
 10 12  1  0  0  0  0
 12 15  1  0  0  0  0
 14  7  1  6  0  0  0
 14 18  1  0  0  0  0
 14  9  1  0  0  0  0
 15  5  1  0  0  0  0
 15 19  1  1  0  0  0
 16  3  1  0  0  0  0
 16 13  1  0  0  0  0
 18  6  1  0  0  0  0
 20 19  1  0  0  0  0
 21 22  1  1  0  0  0
 23 21  1  0  0  0  0
 24 26  1  1  0  0  0
 24 29  1  0  0  0  0
 25 30  2  0  0  0  0
 27 29  1  0  0  0  0
 28 30  1  0  0  0  0
 28 24  1  0  0  0  0
 29 23  1  1  0  0  0
 30 27  1  0  0  0  0
 31 32  1  0  0  0  0
 31 24  1  0  0  0  0
M  END
>  <MODEL>
7

>  <REMARK>
 VINA RESULT:      -9.0      1.573      4.532
  Name = 
  5 active torsions:
  status: ('A' for Active; 'I' for Inactive)
    1  A    between atoms: C_3  and  C_22
    2  A    between atoms: C_4  and  C_24
    3  A    between atoms: C_13  and  C_29
    4  A    between atoms: O_16  and  C_20
    5  A    between atoms: O_16  and  C_24
                            x       y       z     vdW  Elec       q    Type
                         _______ _______ _______ _____ _____    ______ ____

>  <TORSDO>
F 5

$$$$
=
 OpenBabel10272413143D

 32 36  0  0  1  0  0  0  0  0999 V2000
  188.1570  178.0130  140.0470 O   0  0  0  0  0  0  0  0  0  0  0  0
  188.3890  177.8970  142.4120 C   0  0  0  0  0  0  0  0  0  0  0  0
  188.4810  177.4840  138.7580 C   0  0  2  0  0  3  0  0  0  0  0  0
  188.9200  177.7320  141.1890 C   0  0  0  0  0  0  0  0  0  0  0  0
  189.1570  177.5780  143.5980 N   0  0  0  0  0  0  0  0  0  0  0  0
  184.3090  178.3590  145.2810 C   0  0  0  0  0  2  0  0  0  0  0  0
  187.0040  178.4680  142.5470 C   0  0  0  0  0  2  0  0  0  0  0  0
  186.5100  177.7840  146.3120 C   0  0  0  0  0  2  0  0  0  0  0  0
  187.2290  178.1780  145.0240 C   0  0  1  0  0  3  0  0  0  0  0  0
  190.3640  177.3150  141.0200 C   0  0  1  0  0  3  0  0  0  0  0  0
  188.4530  177.2910  144.8540 C   0  0  0  0  0  2  0  0  0  0  0  0
  190.8790  176.5240  142.2140 C   0  0  0  0  0  2  0  0  0  0  0  0
  190.5630  176.5370  139.7280 C   0  0  0  0  0  2  0  0  0  0  0  0
  186.3080  177.9870  143.8130 C   0  0  1  0  0  3  0  0  0  0  0  0
  190.6080  177.3350  143.4710 C   0  0  2  0  0  3  0  0  0  0  0  0
  189.9880  177.3320  138.5660 C   0  0  0  0  0  2  0  0  0  0  0  0
  185.2280  178.5920  146.4750 C   0  0  0  0  0  2  0  0  0  0  0  0
  185.0130  178.7750  143.9930 C   0  0  0  0  0  2  0  0  0  0  0  0
  191.2200  176.6270  144.6750 C   0  0  0  0  0  2  0  0  0  0  0  0
  191.9800  175.3950  144.2240 C   0  0  0  0  0  1  0  0  0  0  0  0
  187.8820  178.3490  137.6540 C   0  0  1  0  0  3  0  0  0  0  0  0
  188.9760  179.1610  136.9870 C   0  0  0  0  0  1  0  0  0  0  0  0
  187.2410  177.5520  136.6980 O   0  0  0  0  0  0  0  0  0  0  0  0
  185.3110  176.0400  136.4560 C   0  0  2  0  0  0  0  0  0  0  0  0
  182.8230  178.1560  137.7210 O   0  0  0  0  0  0  0  0  0  0  0  0
  185.6730  176.1670  134.9820 C   0  0  0  0  0  1  0  0  0  0  0  0
  185.2260  178.0420  137.9100 C   0  0  0  0  0  2  0  0  0  0  0  0
  183.9720  176.4650  136.6380 O   0  0  0  0  0  0  0  0  0  0  0  0
  186.1650  176.9610  137.3710 C   0  0  2  0  0  3  0  0  0  0  0  0
  183.9060  177.5850  137.4370 C   0  0  0  0  0  0  0  0  0  0  0  0
  185.4600  174.5820  136.8740 C   0  0  0  0  0  2  0  0  0  0  0  0
  186.7500  174.3280  137.3460 O   0  0  0  0  0  1  0  0  0  0  0  0
  1  4  1  0  0  0  0
  2  7  1  0  0  0  0
  2  5  1  0  0  0  0
  3 21  1  6  0  0  0
  3  1  1  0  0  0  0
  4  2  2  0  0  0  0
  5 11  1  0  0  0  0
  6 17  1  0  0  0  0
  8 17  1  0  0  0  0
  9 11  1  6  0  0  0
  9  8  1  0  0  0  0
 10 13  1  6  0  0  0
 10  4  1  0  0  0  0
 10 12  1  0  0  0  0
 12 15  1  0  0  0  0
 14  7  1  6  0  0  0
 14 18  1  0  0  0  0
 14  9  1  0  0  0  0
 15  5  1  0  0  0  0
 15 19  1  1  0  0  0
 16  3  1  0  0  0  0
 16 13  1  0  0  0  0
 18  6  1  0  0  0  0
 20 19  1  0  0  0  0
 21 22  1  6  0  0  0
 23 21  1  0  0  0  0
 24 26  1  6  0  0  0
 24 28  1  0  0  0  0
 24 31  1  0  0  0  0
 24 29  1  0  0  0  0
 28 30  1  0  0  0  0
 29 23  1  6  0  0  0
 29 27  1  0  0  0  0
 30 25  2  0  0  0  0
 30 27  1  0  0  0  0
 31 32  1  0  0  0  0
M  END
>  <MODEL>
8

>  <REMARK>
 VINA RESULT:      -8.9      2.326      3.921
  Name = 
  5 active torsions:
  status: ('A' for Active; 'I' for Inactive)
    1  A    between atoms: C_3  and  C_22
    2  A    between atoms: C_4  and  C_24
    3  A    between atoms: C_13  and  C_29
    4  A    between atoms: O_16  and  C_20
    5  A    between atoms: O_16  and  C_24
                            x       y       z     vdW  Elec       q    Type
                         _______ _______ _______ _____ _____    ______ ____

>  <TORSDO>
F 5

$$$$
=
 OpenBabel10272413143D

 32 36  0  0  1  0  0  0  0  0999 V2000
  188.2140  177.7800  140.0860 O   0  0  0  0  0  0  0  0  0  0  0  0
  187.9690  178.0100  142.4410 C   0  0  0  0  0  0  0  0  0  0  0  0
  188.8340  177.1200  138.9780 C   0  0  2  0  0  3  0  0  0  0  0  0
  188.7480  177.7400  141.3810 C   0  0  0  0  0  0  0  0  0  0  0  0
  188.5030  177.9390  143.7860 N   0  0  0  0  0  0  0  0  0  0  0  0
  183.3670  178.4130  144.3790 C   0  0  0  0  0  2  0  0  0  0  0  0
  186.5450  178.4410  142.2210 C   0  0  0  0  0  2  0  0  0  0  0  0
  185.3520  178.2230  145.8840 C   0  0  0  0  0  2  0  0  0  0  0  0
  186.2840  178.5140  144.7110 C   0  0  1  0  0  3  0  0  0  0  0  0
  190.2250  177.4620  141.5540 C   0  0  1  0  0  3  0  0  0  0  0  0
  187.5830  177.7490  144.9140 C   0  0  0  0  0  2  0  0  0  0  0  0
  190.5470  176.8990  142.9320 C   0  0  0  0  0  2  0  0  0  0  0  0
  190.7430  176.5420  140.4590 C   0  0  0  0  0  2  0  0  0  0  0  0
  185.6460  178.0640  143.3910 C   0  0  1  0  0  3  0  0  0  0  0  0
  189.9630  177.8380  143.9740 C   0  0  2  0  0  3  0  0  0  0  0  0
  190.3560  177.1060  139.1010 C   0  0  0  0  0  2  0  0  0  0  0  0
  184.0040  178.9030  145.6750 C   0  0  0  0  0  2  0  0  0  0  0  0
  184.2830  178.7250  143.1990 C   0  0  0  0  0  2  0  0  0  0  0  0
  190.3720  177.3690  145.3670 C   0  0  0  0  0  2  0  0  0  0  0  0
  191.6070  176.4940  145.2800 C   0  0  0  0  0  1  0  0  0  0  0  0
  188.4050  177.7590  137.6610 C   0  0  1  0  0  3  0  0  0  0  0  0
  188.9820  179.1580  137.5580 C   0  0  0  0  0  1  0  0  0  0  0  0
  188.8440  176.9890  136.5760 O   0  0  0  0  0  0  0  0  0  0  0  0
  188.8620  174.6060  135.9550 C   0  0  2  0  0  0  0  0  0  0  0  0
  185.7090  174.4340  134.4390 O   0  0  0  0  0  0  0  0  0  0  0  0
  190.0390  175.0600  135.1020 C   0  0  0  0  0  1  0  0  0  0  0  0
  186.7660  175.9220  136.0160 C   0  0  0  0  0  2  0  0  0  0  0  0
  187.8840  174.0220  135.1130 O   0  0  0  0  0  0  0  0  0  0  0  0
  188.1420  175.7820  136.6710 C   0  0  2  0  0  3  0  0  0  0  0  0
  186.7140  174.7480  135.1270 C   0  0  0  0  0  0  0  0  0  0  0  0
  189.3580  173.5830  136.9700 C   0  0  0  0  0  2  0  0  0  0  0  0
  190.4700  174.0670  137.6630 O   0  0  0  0  0  1  0  0  0  0  0  0
  1  4  1  0  0  0  0
  2  5  1  0  0  0  0
  3 21  1  6  0  0  0
  3 16  1  0  0  0  0
  3  1  1  0  0  0  0
  4 10  1  0  0  0  0
  4  2  2  0  0  0  0
  5 15  1  0  0  0  0
  5 11  1  0  0  0  0
  6 17  1  0  0  0  0
  7  2  1  0  0  0  0
  9 11  1  1  0  0  0
  9  8  1  0  0  0  0
 10 13  1  6  0  0  0
 10 12  1  0  0  0  0
 12 15  1  0  0  0  0
 14  7  1  6  0  0  0
 14  9  1  0  0  0  0
 15 19  1  1  0  0  0
 16 13  1  0  0  0  0
 17  8  1  0  0  0  0
 18 14  1  0  0  0  0
 18  6  1  0  0  0  0
 20 19  1  0  0  0  0
 21 22  1  6  0  0  0
 23 21  1  0  0  0  0
 24 26  1  6  0  0  0
 24 29  1  0  0  0  0
 24 31  1  0  0  0  0
 25 30  2  0  0  0  0
 27 29  1  0  0  0  0
 28 30  1  0  0  0  0
 28 24  1  0  0  0  0
 29 23  1  6  0  0  0
 30 27  1  0  0  0  0
 31 32  1  0  0  0  0
M  END
>  <MODEL>
9

>  <REMARK>
 VINA RESULT:      -8.9      1.647      3.206
  Name = 
  5 active torsions:
  status: ('A' for Active; 'I' for Inactive)
    1  A    between atoms: C_3  and  C_22
    2  A    between atoms: C_4  and  C_24
    3  A    between atoms: C_13  and  C_29
    4  A    between atoms: O_16  and  C_20
    5  A    between atoms: O_16  and  C_24
                            x       y       z     vdW  Elec       q    Type
                         _______ _______ _______ _____ _____    ______ ____

>  <TORSDO>
F 5

$$$$
