=
 OpenBabel10272401573D

 28 32  0  0  1  0  0  0  0  0999 V2000
  189.9040  176.8950  143.0180 N   0  0  0  0  0  0  0  0  0  0  0  0
  185.0030  178.3630  142.9730 S   0  0  0  0  0  0  0  0  0  0  0  0
  189.4410  178.0670  147.7200 C   0  0  0  0  0  2  0  0  0  0  0  0
  184.7760  178.4740  145.4620 C   0  0  0  0  0  0  0  0  0  0  0  0
  187.1040  177.7560  144.8190 C   0  0  1  0  0  3  0  0  0  0  0  0
  185.7200  178.2170  144.4850 C   0  0  0  0  0  0  0  0  0  0  0  0
  186.4290  177.8900  147.2500 C   0  0  0  0  0  2  0  0  0  0  0  0
  183.5150  178.8280  144.9740 C   0  0  0  0  0  3  0  0  0  0  0  0
  189.5710  176.9850  145.4730 C   0  0  2  0  0  3  0  0  0  0  0  0
  188.0340  178.1620  143.8360 O   0  0  0  0  0  0  0  0  0  0  0  0
  185.1180  178.4100  146.8490 N   0  0  0  0  0  2  0  0  0  0  0  0
  191.6140  175.9420  144.5330 C   0  0  0  0  0  2  0  0  0  0  0  0
  188.8600  177.7540  146.5580 C   0  0  0  0  0  0  0  0  0  0  0  0
  191.0600  176.7460  145.7030 C   0  0  0  0  0  2  0  0  0  0  0  0
  183.4880  178.7980  143.5820 C   0  0  0  0  0  0  0  0  0  0  0  0
  187.4980  178.2860  146.2160 C   0  0  1  0  0  3  0  0  0  0  0  0
  191.3430  176.6780  143.2210 C   0  0  0  0  0  2  0  0  0  0  0  0
  189.3630  177.7100  144.1190 C   0  0  2  0  0  3  0  0  0  0  0  0
  182.3080  179.1490  142.7460 C   0  0  0  0  0  2  0  0  0  0  0  0
  181.0300  178.8650  143.5100 C   0  0  0  0  0  1  0  0  0  0  0  0
  189.6970  177.5400  141.7090 C   0  0  0  0  0  2  0  0  0  0  0  0
  190.7510  177.2130  140.6840 C   0  0  0  0  0  0  0  0  0  0  0  0
  192.7080  176.6160  138.7710 C   0  0  0  0  0  0  0  0  0  0  0  0
  190.4200  176.4570  139.5510 C   0  0  0  0  0  3  0  0  0  0  0  0
  192.0620  177.6750  140.8510 C   0  0  0  0  0  3  0  0  0  0  0  0
  193.0390  177.3750  139.8980 C   0  0  0  0  0  3  0  0  0  0  0  0
  193.6780  176.3170  137.8250 O   0  0  0  0  0  1  0  0  0  0  0  0
  191.3980  176.1580  138.5980 C   0  0  0  0  0  3  0  0  0  0  0  0
  1 17  1  0  0  0  0
  1 18  1  0  0  0  0
  2 15  1  0  0  0  0
  2  6  1  0  0  0  0
  4 11  1  0  0  0  0
  5 10  1  6  0  0  0
  5 16  1  0  0  0  0
  6  5  1  0  0  0  0
  6  4  2  0  0  0  0
  8  4  1  0  0  0  0
  9 14  1  1  0  0  0
  9 13  1  0  0  0  0
 11  7  1  0  0  0  0
 12 14  1  0  0  0  0
 13  3  2  0  0  0  0
 15  8  2  0  0  0  0
 16 13  1  0  0  0  0
 16  7  1  1  0  0  0
 17 12  1  0  0  0  0
 18 10  1  6  0  0  0
 18  9  1  0  0  0  0
 19 20  1  0  0  0  0
 19 15  1  0  0  0  0
 21  1  1  0  0  0  0
 22 25  1  0  0  0  0
 22 21  1  0  0  0  0
 23 26  1  0  0  0  0
 24 22  2  0  0  0  0
 26 25  2  0  0  0  0
 27 23  1  0  0  0  0
 28 23  2  0  0  0  0
 28 24  1  0  0  0  0
M  END
>  <MODEL>
1

>  <REMARK>
 VINA RESULT:      -9.9      0.000      0.000
  Name = 
  3 active torsions:
  status: ('A' for Active; 'I' for Inactive)
    1  A    between atoms: N_1  and  C_2
    2  A    between atoms: C_2  and  C_3
    3  A    between atoms: C_12  and  C_24
                            x       y       z     vdW  Elec       q    Type
                         _______ _______ _______ _____ _____    ______ ____

>  <TORSDO>
F 3

$$$$
=
 OpenBabel10272401573D

 28 32  0  0  1  0  0  0  0  0999 V2000
  184.7560  178.4290  142.9870 N   0  0  0  0  0  0  0  0  0  0  0  0
  189.2540  177.4880  140.7370 S   0  0  0  0  0  0  0  0  0  0  0  0
  187.4180  177.5960  146.9760 C   0  0  0  0  0  2  0  0  0  0  0  0
  190.5860  177.5500  142.8540 C   0  0  0  0  0  0  0  0  0  0  0  0
  188.1490  177.9780  143.3300 C   0  0  1  0  0  3  0  0  0  0  0  0
  189.2800  177.6470  142.4090 C   0  0  0  0  0  0  0  0  0  0  0  0
  189.8540  178.0630  145.1940 C   0  0  0  0  0  2  0  0  0  0  0  0
  191.5270  177.3030  141.8500 C   0  0  0  0  0  3  0  0  0  0  0  0
  186.1640  178.5220  145.0260 C   0  0  2  0  0  3  0  0  0  0  0  0
  186.9340  177.4170  142.8770 O   0  0  0  0  0  0  0  0  0  0  0  0
  190.8970  177.6610  144.2460 N   0  0  0  0  0  2  0  0  0  0  0  0
  183.8070  179.2850  145.1050 C   0  0  0  0  0  2  0  0  0  0  0  0
  187.3740  177.8990  145.6760 C   0  0  0  0  0  0  0  0  0  0  0  0
  184.9200  178.6150  145.9030 C   0  0  0  0  0  2  0  0  0  0  0  0
  190.9220  177.2520  140.5970 C   0  0  0  0  0  0  0  0  0  0  0  0
  188.4910  177.4940  144.7570 C   0  0  1  0  0  3  0  0  0  0  0  0
  183.5470  178.5040  143.8170 C   0  0  0  0  0  2  0  0  0  0  0  0
  185.8290  177.7430  143.7290 C   0  0  2  0  0  3  0  0  0  0  0  0
  191.6350  176.9780  139.3190 C   0  0  0  0  0  2  0  0  0  0  0  0
  190.7890  176.0820  138.4370 C   0  0  0  0  0  1  0  0  0  0  0  0
  184.4310  177.7320  141.7290 C   0  0  0  0  0  2  0  0  0  0  0  0
  183.6530  178.5640  140.7440 C   0  0  0  0  0  0  0  0  0  0  0  0
  182.2060  180.1000  138.9030 C   0  0  0  0  0  0  0  0  0  0  0  0
  184.3270  179.3400  139.7920 C   0  0  0  0  0  3  0  0  0  0  0  0
  182.2530  178.5530  140.7650 C   0  0  0  0  0  3  0  0  0  0  0  0
  181.5310  179.3210  139.8470 C   0  0  0  0  0  3  0  0  0  0  0  0
  181.4890  180.8640  137.9930 O   0  0  0  0  0  1  0  0  0  0  0  0
  183.6040  180.1090  138.8750 C   0  0  0  0  0  3  0  0  0  0  0  0
  1 18  1  0  0  0  0
  1 17  1  0  0  0  0
  2  6  1  0  0  0  0
  4 11  1  0  0  0  0
  5  6  1  6  0  0  0
  5 16  1  0  0  0  0
  6  4  2  0  0  0  0
  8  4  1  0  0  0  0
  9 13  1  0  0  0  0
  9 14  1  1  0  0  0
 10  5  1  0  0  0  0
 11  7  1  0  0  0  0
 12 14  1  0  0  0  0
 13  3  2  0  0  0  0
 15  2  1  0  0  0  0
 15  8  2  0  0  0  0
 16  7  1  1  0  0  0
 16 13  1  0  0  0  0
 17 12  1  0  0  0  0
 18 10  1  6  0  0  0
 18  9  1  0  0  0  0
 19 15  1  0  0  0  0
 20 19  1  0  0  0  0
 21  1  1  0  0  0  0
 22 25  1  0  0  0  0
 22 21  1  0  0  0  0
 23 26  1  0  0  0  0
 24 22  2  0  0  0  0
 26 25  2  0  0  0  0
 27 23  1  0  0  0  0
 28 23  2  0  0  0  0
 28 24  1  0  0  0  0
M  END
>  <MODEL>
2

>  <REMARK>
 VINA RESULT:      -9.7      2.762      7.301
  Name = 
  3 active torsions:
  status: ('A' for Active; 'I' for Inactive)
    1  A    between atoms: N_1  and  C_2
    2  A    between atoms: C_2  and  C_3
    3  A    between atoms: C_12  and  C_24
                            x       y       z     vdW  Elec       q    Type
                         _______ _______ _______ _____ _____    ______ ____

>  <TORSDO>
F 3

$$$$
=
 OpenBabel10272401573D

 28 32  0  0  1  0  0  0  0  0999 V2000
  188.5590  177.5670  138.8370 N   0  0  0  0  0  0  0  0  0  0  0  0
  185.3320  178.4160  142.7160 S   0  0  0  0  0  0  0  0  0  0  0  0
  191.7360  177.2930  142.5150 C   0  0  0  0  0  2  0  0  0  0  0  0
  186.9600  177.7880  144.5080 C   0  0  0  0  0  0  0  0  0  0  0  0
  188.0170  177.5540  142.2330 C   0  0  1  0  0  3  0  0  0  0  0  0
  186.8840  177.9300  143.1350 C   0  0  0  0  0  0  0  0  0  0  0  0
  189.2980  176.9130  144.3150 C   0  0  0  0  0  2  0  0  0  0  0  0
  185.7870  178.1190  145.1940 C   0  0  0  0  0  3  0  0  0  0  0  0
  190.0870  176.9160  140.6780 C   0  0  2  0  0  3  0  0  0  0  0  0
  188.0130  178.3270  141.0510 O   0  0  0  0  0  0  0  0  0  0  0  0
  188.1750  177.3720  145.1370 N   0  0  0  0  0  2  0  0  0  0  0  0
  190.6940  176.4260  138.3250 C   0  0  0  0  0  2  0  0  0  0  0  0
  190.4680  177.2580  142.0960 C   0  0  0  0  0  0  0  0  0  0  0  0
  191.2480  176.7950  139.6960 C   0  0  0  0  0  2  0  0  0  0  0  0
  184.7750  178.4840  144.3100 C   0  0  0  0  0  0  0  0  0  0  0  0
  189.3520  177.7060  142.9970 C   0  0  1  0  0  3  0  0  0  0  0  0
  189.6690  177.4680  137.8800 C   0  0  0  0  0  2  0  0  0  0  0  0
  189.0740  177.9680  140.1580 C   0  0  2  0  0  3  0  0  0  0  0  0
  183.4100  178.9210  144.7130 C   0  0  0  0  0  2  0  0  0  0  0  0
  182.5260  179.0480  143.4900 C   0  0  0  0  0  1  0  0  0  0  0  0
  187.5680  178.5300  138.3230 C   0  0  0  0  0  2  0  0  0  0  0  0
  186.1940  177.9500  138.1110 C   0  0  0  0  0  0  0  0  0  0  0  0
  183.6370  176.8820  137.7080 C   0  0  0  0  0  0  0  0  0  0  0  0
  185.0990  178.4580  138.8230 C   0  0  0  0  0  3  0  0  0  0  0  0
  186.0030  176.9110  137.1920 C   0  0  0  0  0  3  0  0  0  0  0  0
  184.7270  176.3770  136.9920 C   0  0  0  0  0  3  0  0  0  0  0  0
  182.3710  176.3490  137.5100 O   0  0  0  0  0  1  0  0  0  0  0  0
  183.8230  177.9220  138.6220 C   0  0  0  0  0  3  0  0  0  0  0  0
  1 18  1  0  0  0  0
  2  6  1  0  0  0  0
  2 15  1  0  0  0  0
  4 11  1  0  0  0  0
  4  8  1  0  0  0  0
  5 10  1  6  0  0  0
  5 16  1  0  0  0  0
  5  6  1  0  0  0  0
  6  4  2  0  0  0  0
  7 11  1  0  0  0  0
  9 14  1  6  0  0  0
  9 13  1  0  0  0  0
 12 14  1  0  0  0  0
 13  3  2  0  0  0  0
 13 16  1  0  0  0  0
 15 19  1  0  0  0  0
 15  8  2  0  0  0  0
 16  7  1  1  0  0  0
 17 12  1  0  0  0  0
 17  1  1  0  0  0  0
 18  9  1  0  0  0  0
 18 10  1  1  0  0  0
 20 19  1  0  0  0  0
 21  1  1  0  0  0  0
 22 21  1  0  0  0  0
 22 24  1  0  0  0  0
 23 28  1  0  0  0  0
 25 22  2  0  0  0  0
 26 25  1  0  0  0  0
 26 23  2  0  0  0  0
 27 23  1  0  0  0  0
 28 24  2  0  0  0  0
M  END
>  <MODEL>
3

>  <REMARK>
 VINA RESULT:      -9.6      3.324      5.301
  Name = 
  3 active torsions:
  status: ('A' for Active; 'I' for Inactive)
    1  A    between atoms: N_1  and  C_2
    2  A    between atoms: C_2  and  C_3
    3  A    between atoms: C_12  and  C_24
                            x       y       z     vdW  Elec       q    Type
                         _______ _______ _______ _____ _____    ______ ____

>  <TORSDO>
F 3

$$$$
=
 OpenBabel10272401573D

 28 32  0  0  1  0  0  0  0  0999 V2000
  188.7070  177.4840  141.1200 N   0  0  0  0  0  0  0  0  0  0  0  0
  183.9560  178.7880  142.5020 S   0  0  0  0  0  0  0  0  0  0  0  0
  189.3770  177.7230  145.9350 C   0  0  0  0  0  2  0  0  0  0  0  0
  184.3200  178.4150  144.9480 C   0  0  0  0  0  0  0  0  0  0  0  0
  186.4200  177.9030  143.6550 C   0  0  1  0  0  3  0  0  0  0  0  0
  185.0050  178.3780  143.7480 C   0  0  0  0  0  0  0  0  0  0  0  0
  186.3360  177.5500  146.1560 C   0  0  0  0  0  2  0  0  0  0  0  0
  182.9850  178.8180  144.8450 C   0  0  0  0  0  3  0  0  0  0  0  0
  188.9590  177.0940  143.5550 C   0  0  2  0  0  3  0  0  0  0  0  0
  187.1010  178.5160  142.5790 O   0  0  0  0  0  0  0  0  0  0  0  0
  184.9770  178.0970  146.1790 N   0  0  0  0  0  2  0  0  0  0  0  0
  190.7070  176.3110  141.9820 C   0  0  0  0  0  2  0  0  0  0  0  0
  188.5350  177.6200  144.9030 C   0  0  0  0  0  0  0  0  0  0  0  0
  190.4570  176.8600  143.3810 C   0  0  0  0  0  2  0  0  0  0  0  0
  182.6330  179.0540  143.5190 C   0  0  0  0  0  0  0  0  0  0  0  0
  187.1400  178.1670  144.9970 C   0  0  1  0  0  3  0  0  0  0  0  0
  190.1490  177.2750  140.9360 C   0  0  0  0  0  2  0  0  0  0  0  0
  188.4520  178.0580  142.4530 C   0  0  2  0  0  3  0  0  0  0  0  0
  181.2950  179.5230  143.0650 C   0  0  0  0  0  2  0  0  0  0  0  0
  180.2050  178.7450  143.7750 C   0  0  0  0  0  1  0  0  0  0  0  0
  188.2090  178.3610  140.0440 C   0  0  0  0  0  2  0  0  0  0  0  0
  188.4680  177.8430  138.6540 C   0  0  0  0  0  0  0  0  0  0  0  0
  188.9600  176.8740  136.0730 C   0  0  0  0  0  0  0  0  0  0  0  0
  189.1100  178.6530  137.7100 C   0  0  0  0  0  3  0  0  0  0  0  0
  188.0790  176.5440  138.3040 C   0  0  0  0  0  3  0  0  0  0  0  0
  188.3230  176.0610  137.0160 C   0  0  0  0  0  3  0  0  0  0  0  0
  189.2010  176.3950  134.7930 O   0  0  0  0  0  1  0  0  0  0  0  0
  189.3540  178.1700  136.4200 C   0  0  0  0  0  3  0  0  0  0  0  0
  1 18  1  0  0  0  0
  2 15  1  0  0  0  0
  2  6  1  0  0  0  0
  4 11  1  0  0  0  0
  5 10  1  6  0  0  0
  5  6  1  0  0  0  0
  5 16  1  0  0  0  0
  6  4  2  0  0  0  0
  7 11  1  0  0  0  0
  8  4  1  0  0  0  0
  9 14  1  1  0  0  0
  9 13  1  0  0  0  0
 12 14  1  0  0  0  0
 13 16  1  0  0  0  0
 13  3  2  0  0  0  0
 15  8  2  0  0  0  0
 16  7  1  1  0  0  0
 17  1  1  0  0  0  0
 17 12  1  0  0  0  0
 18 10  1  1  0  0  0
 18  9  1  0  0  0  0
 19 15  1  0  0  0  0
 19 20  1  0  0  0  0
 21  1  1  0  0  0  0
 22 21  1  0  0  0  0
 23 28  2  0  0  0  0
 23 26  1  0  0  0  0
 24 22  2  0  0  0  0
 25 22  1  0  0  0  0
 26 25  2  0  0  0  0
 27 23  1  0  0  0  0
 28 24  1  0  0  0  0
M  END
>  <MODEL>
4

>  <REMARK>
 VINA RESULT:      -9.5      2.075      2.663
  Name = 
  3 active torsions:
  status: ('A' for Active; 'I' for Inactive)
    1  A    between atoms: N_1  and  C_2
    2  A    between atoms: C_2  and  C_3
    3  A    between atoms: C_12  and  C_24
                            x       y       z     vdW  Elec       q    Type
                         _______ _______ _______ _____ _____    ______ ____

>  <TORSDO>
F 3

$$$$
=
 OpenBabel10272401573D

 28 32  0  0  1  0  0  0  0  0999 V2000
  190.7830  177.4290  144.2140 N   0  0  0  0  0  0  0  0  0  0  0  0
  186.5180  178.6930  141.6870 S   0  0  0  0  0  0  0  0  0  0  0  0
  187.7650  177.8340  148.0120 C   0  0  0  0  0  2  0  0  0  0  0  0
  184.9950  178.4060  143.6500 C   0  0  0  0  0  0  0  0  0  0  0  0
  187.3760  177.8880  144.2950 C   0  0  1  0  0  3  0  0  0  0  0  0
  186.3360  178.3420  143.3190 C   0  0  0  0  0  0  0  0  0  0  0  0
  185.5040  177.6140  145.9710 C   0  0  0  0  0  2  0  0  0  0  0  0
  184.1530  178.7820  142.6000 C   0  0  0  0  0  3  0  0  0  0  0  0
  189.1910  177.1210  146.0900 C   0  0  2  0  0  3  0  0  0  0  0  0
  188.6300  178.4790  144.0240 O   0  0  0  0  0  0  0  0  0  0  0  0
  184.5550  178.1390  144.9850 N   0  0  0  0  0  2  0  0  0  0  0  0
  191.5270  176.3190  146.2970 C   0  0  0  0  0  2  0  0  0  0  0  0
  187.9290  177.6830  146.6950 C   0  0  0  0  0  0  0  0  0  0  0  0
  190.3480  176.9090  147.0610 C   0  0  0  0  0  2  0  0  0  0  0  0
  184.8710  178.9690  141.4220 C   0  0  0  0  0  0  0  0  0  0  0  0
  186.9040  178.2080  145.7310 C   0  0  1  0  0  3  0  0  0  0  0  0
  191.9100  177.2390  145.1380 C   0  0  0  0  0  2  0  0  0  0  0  0
  189.6490  178.0400  144.9290 C   0  0  2  0  0  3  0  0  0  0  0  0
  184.2820  179.4000  140.1250 C   0  0  0  0  0  2  0  0  0  0  0  0
  182.8790  178.8430  139.9840 C   0  0  0  0  0  1  0  0  0  0  0  0
  191.2270  178.2620  143.0820 C   0  0  0  0  0  2  0  0  0  0  0  0
  191.0530  177.6160  141.7330 C   0  0  0  0  0  0  0  0  0  0  0  0
  190.7260  176.4280  139.2180 C   0  0  0  0  0  0  0  0  0  0  0  0
  189.7980  177.1320  141.3410 C   0  0  0  0  0  3  0  0  0  0  0  0
  192.1410  177.5110  140.8580 C   0  0  0  0  0  3  0  0  0  0  0  0
  191.9790  176.9170  139.6030 C   0  0  0  0  0  3  0  0  0  0  0  0
  190.5650  175.8360  137.9730 O   0  0  0  0  0  1  0  0  0  0  0  0
  189.6360  176.5370  140.0860 C   0  0  0  0  0  3  0  0  0  0  0  0
  1 18  1  0  0  0  0
  1 17  1  0  0  0  0
  2  6  1  0  0  0  0
  4 11  1  0  0  0  0
  5  6  1  6  0  0  0
  5 16  1  0  0  0  0
  6  4  2  0  0  0  0
  8  4  1  0  0  0  0
  9 13  1  0  0  0  0
  9 14  1  1  0  0  0
 10  5  1  0  0  0  0
 11  7  1  0  0  0  0
 12 14  1  0  0  0  0
 13  3  2  0  0  0  0
 15  2  1  0  0  0  0
 15  8  2  0  0  0  0
 16  7  1  1  0  0  0
 16 13  1  0  0  0  0
 17 12  1  0  0  0  0
 18 10  1  6  0  0  0
 18  9  1  0  0  0  0
 19 15  1  0  0  0  0
 20 19  1  0  0  0  0
 21  1  1  0  0  0  0
 22 21  1  0  0  0  0
 23 26  2  0  0  0  0
 23 28  1  0  0  0  0
 24 22  1  0  0  0  0
 25 22  2  0  0  0  0
 26 25  1  0  0  0  0
 27 23  1  0  0  0  0
 28 24  2  0  0  0  0
M  END
>  <MODEL>
5

>  <REMARK>
 VINA RESULT:      -9.4      1.568      1.938
  Name = 
  3 active torsions:
  status: ('A' for Active; 'I' for Inactive)
    1  A    between atoms: N_1  and  C_2
    2  A    between atoms: C_2  and  C_3
    3  A    between atoms: C_12  and  C_24
                            x       y       z     vdW  Elec       q    Type
                         _______ _______ _______ _____ _____    ______ ____

>  <TORSDO>
F 3

$$$$
=
 OpenBabel10272401573D

 28 32  0  0  1  0  0  0  0  0999 V2000
  187.2860  178.3560  141.3130 N   0  0  0  0  0  0  0  0  0  0  0  0
  190.1240  177.2010  145.4100 S   0  0  0  0  0  0  0  0  0  0  0  0
  183.7640  178.3500  144.6740 C   0  0  0  0  0  2  0  0  0  0  0  0
  188.3260  177.6910  147.0790 C   0  0  0  0  0  0  0  0  0  0  0  0
  187.4940  178.1030  144.7370 C   0  0  1  0  0  3  0  0  0  0  0  0
  188.5360  177.6560  145.7120 C   0  0  0  0  0  0  0  0  0  0  0  0
  186.0130  178.5840  146.7270 C   0  0  0  0  0  2  0  0  0  0  0  0
  189.4280  177.3050  147.8470 C   0  0  0  0  0  3  0  0  0  0  0  0
  185.5820  178.8650  143.0410 C   0  0  2  0  0  3  0  0  0  0  0  0
  187.6180  177.4250  143.5040 O   0  0  0  0  0  0  0  0  0  0  0  0
  187.0530  178.0600  147.6170 N   0  0  0  0  0  2  0  0  0  0  0  0
  185.2050  179.5380  140.6860 C   0  0  0  0  0  2  0  0  0  0  0  0
  185.0670  178.4140  144.3850 C   0  0  0  0  0  0  0  0  0  0  0  0
  184.5220  179.0650  141.9630 C   0  0  0  0  0  2  0  0  0  0  0  0
  190.5240  177.0080  147.0410 C   0  0  0  0  0  0  0  0  0  0  0  0
  186.0920  177.8950  145.3520 C   0  0  1  0  0  3  0  0  0  0  0  0
  186.2740  178.5320  140.2630 C   0  0  0  0  0  2  0  0  0  0  0  0
  186.6460  177.8550  142.5420 C   0  0  2  0  0  3  0  0  0  0  0  0
  191.8450  176.5380  147.5400 C   0  0  0  0  0  2  0  0  0  0  0  0
  192.3570  175.4100  146.6670 C   0  0  0  0  0  1  0  0  0  0  0  0
  188.3270  177.4340  140.8250 C   0  0  0  0  0  2  0  0  0  0  0  0
  188.6080  177.5430  139.3500 C   0  0  0  0  0  0  0  0  0  0  0  0
  189.1180  177.7500  136.6030 C   0  0  0  0  0  0  0  0  0  0  0  0
  188.4830  176.4180  138.5240 C   0  0  0  0  0  3  0  0  0  0  0  0
  188.9820  178.7730  138.7940 C   0  0  0  0  0  3  0  0  0  0  0  0
  189.2380  178.8760  137.4240 C   0  0  0  0  0  3  0  0  0  0  0  0
  189.3740  177.8510  135.2430 O   0  0  0  0  0  1  0  0  0  0  0  0
  188.7400  176.5210  137.1540 C   0  0  0  0  0  3  0  0  0  0  0  0
  1 18  1  0  0  0  0
  2  6  1  0  0  0  0
  2 15  1  0  0  0  0
  4 11  1  0  0  0  0
  4  8  1  0  0  0  0
  5 10  1  6  0  0  0
  5 16  1  0  0  0  0
  5  6  1  0  0  0  0
  6  4  2  0  0  0  0
  7 11  1  0  0  0  0
  9 14  1  6  0  0  0
  9 13  1  0  0  0  0
 12 14  1  0  0  0  0
 13  3  2  0  0  0  0
 13 16  1  0  0  0  0
 15 19  1  0  0  0  0
 15  8  2  0  0  0  0
 16  7  1  1  0  0  0
 17 12  1  0  0  0  0
 17  1  1  0  0  0  0
 18  9  1  0  0  0  0
 18 10  1  1  0  0  0
 20 19  1  0  0  0  0
 21  1  1  0  0  0  0
 22 21  1  0  0  0  0
 23 28  2  0  0  0  0
 23 26  1  0  0  0  0
 24 22  2  0  0  0  0
 25 22  1  0  0  0  0
 26 25  2  0  0  0  0
 27 23  1  0  0  0  0
 28 24  1  0  0  0  0
M  END
>  <MODEL>
6

>  <REMARK>
 VINA RESULT:      -9.1      2.677      5.458
  Name = 
  3 active torsions:
  status: ('A' for Active; 'I' for Inactive)
    1  A    between atoms: N_1  and  C_2
    2  A    between atoms: C_2  and  C_3
    3  A    between atoms: C_12  and  C_24
                            x       y       z     vdW  Elec       q    Type
                         _______ _______ _______ _____ _____    ______ ____

>  <TORSDO>
F 3

$$$$
=
 OpenBabel10272401573D

 28 32  0  0  1  0  0  0  0  0999 V2000
  186.9450  178.0420  140.1290 N   0  0  0  0  0  0  0  0  0  0  0  0
  187.6040  177.7450  145.1940 S   0  0  0  0  0  0  0  0  0  0  0  0
  191.7750  177.4390  140.2120 C   0  0  0  0  0  2  0  0  0  0  0  0
  189.9820  176.9790  145.0710 C   0  0  0  0  0  0  0  0  0  0  0  0
  189.0400  177.3130  142.7580 C   0  0  1  0  0  3  0  0  0  0  0  0
  188.9410  177.3720  144.2490 C   0  0  0  0  0  0  0  0  0  0  0  0
  191.3900  176.4370  143.0720 C   0  0  0  0  0  2  0  0  0  0  0  0
  189.6970  177.0330  146.4380 C   0  0  0  0  0  3  0  0  0  0  0  0
  189.2890  177.2330  140.1040 C   0  0  2  0  0  3  0  0  0  0  0  0
  188.2250  178.2930  142.1480 O   0  0  0  0  0  0  0  0  0  0  0  0
  191.2450  176.5950  144.5220 N   0  0  0  0  0  2  0  0  0  0  0  0
  187.9660  177.2780  138.0090 C   0  0  0  0  0  2  0  0  0  0  0  0
  190.6000  177.3380  140.8410 C   0  0  0  0  0  0  0  0  0  0  0  0
  189.3630  177.4390  138.5950 C   0  0  0  0  0  2  0  0  0  0  0  0
  188.3840  177.4390  146.6620 C   0  0  0  0  0  0  0  0  0  0  0  0
  190.5180  177.4700  142.3350 C   0  0  1  0  0  3  0  0  0  0  0  0
  187.0040  178.2600  138.6780 C   0  0  0  0  0  2  0  0  0  0  0  0
  188.2820  178.2390  140.7170 C   0  0  2  0  0  3  0  0  0  0  0  0
  187.7690  177.6280  148.0040 C   0  0  0  0  0  2  0  0  0  0  0  0
  188.7400  178.3430  148.9230 C   0  0  0  0  0  1  0  0  0  0  0  0
  185.9520  178.9630  140.7110 C   0  0  0  0  0  2  0  0  0  0  0  0
  184.5510  178.7680  140.1960 C   0  0  0  0  0  0  0  0  0  0  0  0
  181.9490  178.3960  139.2290 C   0  0  0  0  0  0  0  0  0  0  0  0
  184.0280  179.6390  139.2310 C   0  0  0  0  0  3  0  0  0  0  0  0
  183.7690  177.7060  140.6690 C   0  0  0  0  0  3  0  0  0  0  0  0
  182.4700  177.5220  140.1870 C   0  0  0  0  0  3  0  0  0  0  0  0
  180.6580  178.2140  138.7520 O   0  0  0  0  0  1  0  0  0  0  0  0
  182.7280  179.4540  138.7500 C   0  0  0  0  0  3  0  0  0  0  0  0
  1 21  1  0  0  0  0
  1 18  1  0  0  0  0
  2 15  1  0  0  0  0
  3 13  2  0  0  0  0
  4  8  1  0  0  0  0
  5 10  1  6  0  0  0
  5  6  1  0  0  0  0
  6  4  2  0  0  0  0
  6  2  1  0  0  0  0
  7 11  1  0  0  0  0
  8 15  2  0  0  0  0
  9 14  1  6  0  0  0
  9 18  1  0  0  0  0
  9 13  1  0  0  0  0
 11  4  1  0  0  0  0
 12 14  1  0  0  0  0
 12 17  1  0  0  0  0
 13 16  1  0  0  0  0
 15 19  1  0  0  0  0
 16  5  1  0  0  0  0
 16  7  1  1  0  0  0
 17  1  1  0  0  0  0
 18 10  1  1  0  0  0
 19 20  1  0  0  0  0
 22 25  1  0  0  0  0
 22 21  1  0  0  0  0
 23 26  1  0  0  0  0
 24 22  2  0  0  0  0
 26 25  2  0  0  0  0
 27 23  1  0  0  0  0
 28 23  2  0  0  0  0
 28 24  1  0  0  0  0
M  END
>  <MODEL>
7

>  <REMARK>
 VINA RESULT:      -9.1      2.986      7.040
  Name = 
  3 active torsions:
  status: ('A' for Active; 'I' for Inactive)
    1  A    between atoms: N_1  and  C_2
    2  A    between atoms: C_2  and  C_3
    3  A    between atoms: C_12  and  C_24
                            x       y       z     vdW  Elec       q    Type
                         _______ _______ _______ _____ _____    ______ ____

>  <TORSDO>
F 3

$$$$
=
 OpenBabel10272401573D

 28 32  0  0  1  0  0  0  0  0999 V2000
  187.9800  177.7680  141.8650 N   0  0  0  0  0  0  0  0  0  0  0  0
  183.7360  178.9170  139.2490 S   0  0  0  0  0  0  0  0  0  0  0  0
  185.0650  178.8290  145.6160 C   0  0  0  0  0  2  0  0  0  0  0  0
  182.2400  178.9720  141.2530 C   0  0  0  0  0  0  0  0  0  0  0  0
  184.6030  178.4170  141.9290 C   0  0  1  0  0  3  0  0  0  0  0  0
  183.5690  178.7930  140.9160 C   0  0  0  0  0  0  0  0  0  0  0  0
  182.7550  178.4660  143.6510 C   0  0  0  0  0  2  0  0  0  0  0  0
  181.3970  179.2520  140.1740 C   0  0  0  0  0  3  0  0  0  0  0  0
  186.4130  177.7950  143.7860 C   0  0  2  0  0  3  0  0  0  0  0  0
  185.8800  178.8990  141.5660 O   0  0  0  0  0  0  0  0  0  0  0  0
  181.8140  178.9070  142.6170 N   0  0  0  0  0  2  0  0  0  0  0  0
  188.7080  176.9020  144.0650 C   0  0  0  0  0  2  0  0  0  0  0  0
  185.1940  178.4980  144.3280 C   0  0  0  0  0  0  0  0  0  0  0  0
  187.5770  177.6490  144.7610 C   0  0  0  0  0  2  0  0  0  0  0  0
  182.1000  179.2440  138.9720 C   0  0  0  0  0  0  0  0  0  0  0  0
  184.1780  178.9470  143.3170 C   0  0  1  0  0  3  0  0  0  0  0  0
  189.1140  177.6410  142.7900 C   0  0  0  0  0  2  0  0  0  0  0  0
  186.8940  178.5280  142.5080 C   0  0  2  0  0  3  0  0  0  0  0  0
  181.5080  179.5330  137.6380 C   0  0  0  0  0  2  0  0  0  0  0  0
  181.1640  181.0050  137.5310 C   0  0  0  0  0  1  0  0  0  0  0  0
  188.4440  178.4200  140.6260 C   0  0  0  0  0  2  0  0  0  0  0  0
  189.0140  177.4730  139.6040 C   0  0  0  0  0  0  0  0  0  0  0  0
  190.0710  175.7010  137.7100 C   0  0  0  0  0  0  0  0  0  0  0  0
  190.3360  177.0230  139.7230 C   0  0  0  0  0  3  0  0  0  0  0  0
  188.2220  177.0270  138.5390 C   0  0  0  0  0  3  0  0  0  0  0  0
  188.7500  176.1440  137.5930 C   0  0  0  0  0  3  0  0  0  0  0  0
  190.5960  174.8260  136.7700 O   0  0  0  0  0  1  0  0  0  0  0  0
  190.8630  176.1400  138.7750 C   0  0  0  0  0  3  0  0  0  0  0  0
  1 18  1  0  0  0  0
  1 17  1  0  0  0  0
  2  6  1  0  0  0  0
  4 11  1  0  0  0  0
  5  6  1  6  0  0  0
  5 16  1  0  0  0  0
  6  4  2  0  0  0  0
  8  4  1  0  0  0  0
  9 13  1  0  0  0  0
  9 14  1  1  0  0  0
 10  5  1  0  0  0  0
 11  7  1  0  0  0  0
 12 14  1  0  0  0  0
 13  3  2  0  0  0  0
 15  2  1  0  0  0  0
 15  8  2  0  0  0  0
 16  7  1  1  0  0  0
 16 13  1  0  0  0  0
 17 12  1  0  0  0  0
 18 10  1  6  0  0  0
 18  9  1  0  0  0  0
 19 15  1  0  0  0  0
 20 19  1  0  0  0  0
 21  1  1  0  0  0  0
 22 24  1  0  0  0  0
 22 21  1  0  0  0  0
 23 28  1  0  0  0  0
 25 22  2  0  0  0  0
 26 23  2  0  0  0  0
 26 25  1  0  0  0  0
 27 23  1  0  0  0  0
 28 24  2  0  0  0  0
M  END
>  <MODEL>
8

>  <REMARK>
 VINA RESULT:      -9.1      2.672      4.029
  Name = 
  3 active torsions:
  status: ('A' for Active; 'I' for Inactive)
    1  A    between atoms: N_1  and  C_2
    2  A    between atoms: C_2  and  C_3
    3  A    between atoms: C_12  and  C_24
                            x       y       z     vdW  Elec       q    Type
                         _______ _______ _______ _____ _____    ______ ____

>  <TORSDO>
F 3

$$$$
=
 OpenBabel10272401573D

 28 32  0  0  1  0  0  0  0  0999 V2000
  185.8120  178.2380  144.3050 N   0  0  0  0  0  0  0  0  0  0  0  0
  189.2420  177.5320  140.5750 S   0  0  0  0  0  0  0  0  0  0  0  0
  189.6340  176.9810  147.0450 C   0  0  0  0  0  2  0  0  0  0  0  0
  191.2130  177.3670  142.1060 C   0  0  0  0  0  0  0  0  0  0  0  0
  189.1000  177.7470  143.4250 C   0  0  1  0  0  3  0  0  0  0  0  0
  189.8390  177.5130  142.1450 C   0  0  0  0  0  0  0  0  0  0  0  0
  191.3380  177.6290  144.5940 C   0  0  0  0  0  2  0  0  0  0  0  0
  191.7480  177.2260  140.8230 C   0  0  0  0  0  3  0  0  0  0  0  0
  187.8300  178.1120  145.7410 C   0  0  2  0  0  3  0  0  0  0  0  0
  187.7830  177.2400  143.3600 O   0  0  0  0  0  0  0  0  0  0  0  0
  191.9820  177.3290  143.3120 N   0  0  0  0  0  2  0  0  0  0  0  0
  185.6700  178.8660  146.6940 C   0  0  0  0  0  2  0  0  0  0  0  0
  189.1640  177.4210  145.8740 C   0  0  0  0  0  0  0  0  0  0  0  0
  186.9610  178.1130  146.9940 C   0  0  0  0  0  2  0  0  0  0  0  0
  190.7540  177.3090  139.8520 C   0  0  0  0  0  0  0  0  0  0  0  0
  189.8870  177.1140  144.5950 C   0  0  1  0  0  3  0  0  0  0  0  0
  184.9590  178.2270  145.5010 C   0  0  0  0  0  2  0  0  0  0  0  0
  187.0450  177.4750  144.5650 C   0  0  2  0  0  3  0  0  0  0  0  0
  190.9800  177.1710  138.3870 C   0  0  0  0  0  2  0  0  0  0  0  0
  189.6510  177.1180  137.6610 C   0  0  0  0  0  1  0  0  0  0  0  0
  185.0530  177.6800  143.1710 C   0  0  0  0  0  2  0  0  0  0  0  0
  183.7150  178.3300  142.9420 C   0  0  0  0  0  0  0  0  0  0  0  0
  181.2190  179.5280  142.5170 C   0  0  0  0  0  0  0  0  0  0  0  0
  183.2160  178.4730  141.6410 C   0  0  0  0  0  3  0  0  0  0  0  0
  182.9570  178.7820  144.0290 C   0  0  0  0  0  3  0  0  0  0  0  0
  181.7120  179.3810  143.8170 C   0  0  0  0  0  3  0  0  0  0  0  0
  179.9840  180.1240  142.3060 O   0  0  0  0  0  1  0  0  0  0  0  0
  181.9710  179.0730  141.4290 C   0  0  0  0  0  3  0  0  0  0  0  0
  1 18  1  0  0  0  0
  1 17  1  0  0  0  0
  2  6  1  0  0  0  0
  4  6  2  0  0  0  0
  4 11  1  0  0  0  0
  5  6  1  6  0  0  0
  5 16  1  0  0  0  0
  8  4  1  0  0  0  0
  9 13  1  0  0  0  0
  9 14  1  1  0  0  0
 10  5  1  0  0  0  0
 11  7  1  0  0  0  0
 12 14  1  0  0  0  0
 13  3  2  0  0  0  0
 15  2  1  0  0  0  0
 15  8  2  0  0  0  0
 16  7  1  1  0  0  0
 16 13  1  0  0  0  0
 17 12  1  0  0  0  0
 18 10  1  6  0  0  0
 18  9  1  0  0  0  0
 19 15  1  0  0  0  0
 20 19  1  0  0  0  0
 21  1  1  0  0  0  0
 22 21  1  0  0  0  0
 22 25  1  0  0  0  0
 23 26  1  0  0  0  0
 24 22  2  0  0  0  0
 26 25  2  0  0  0  0
 27 23  1  0  0  0  0
 28 24  1  0  0  0  0
 28 23  2  0  0  0  0
M  END
>  <MODEL>
9

>  <REMARK>
 VINA RESULT:      -9.0      2.199      7.535
  Name = 
  3 active torsions:
  status: ('A' for Active; 'I' for Inactive)
    1  A    between atoms: N_1  and  C_2
    2  A    between atoms: C_2  and  C_3
    3  A    between atoms: C_12  and  C_24
                            x       y       z     vdW  Elec       q    Type
                         _______ _______ _______ _____ _____    ______ ____

>  <TORSDO>
F 3

$$$$
