=
 OpenBabel10272414443D

 37 43  0  0  1  0  0  0  0  0999 V2000
  189.2470  176.7580  145.3710 C   0  0  0  0  0  2  0  0  0  0  0  0
  183.8270  178.6750  143.9360 C   0  0  0  0  0  2  0  0  0  0  0  0
  187.2630  177.9840  141.1270 C   0  0  0  0  0  0  0  0  0  0  0  0
  189.6560  178.1130  145.9580 C   0  0  2  0  0  3  0  0  0  0  0  0
  190.5220  176.0560  141.3620 O   0  0  0  0  0  0  0  0  0  0  0  0
  185.4200  179.2630  142.1390 C   0  0  0  0  0  0  0  0  0  0  0  0
  188.3690  177.2740  141.5810 C   0  0  0  0  0  0  0  0  0  0  0  0
  186.5810  178.4970  142.2880 C   0  0  2  0  0  3  0  0  0  0  0  0
  189.3300  176.4670  140.7200 C   0  0  1  0  0  3  0  0  0  0  0  0
  184.9810  179.5280  140.8770 N   0  0  0  0  0  0  0  0  0  0  0  0
  191.1010  178.4460  145.6050 C   0  0  0  0  0  2  0  0  0  0  0  0
  187.2760  178.0950  143.4120 C   0  0  0  0  0  0  0  0  0  0  0  0
  185.6630  177.4740  145.1860 C   0  0  0  0  0  2  0  0  0  0  0  0
  187.4000  177.9050  138.6440 O   0  0  0  0  0  0  0  0  0  0  0  0
  185.6260  179.0810  139.7580 C   0  0  0  0  0  3  0  0  0  0  0  0
  186.8420  178.3600  144.8190 C   0  0  0  0  0  2  0  0  0  0  0  0
  191.2900  178.4490  144.0900 C   0  0  0  0  0  2  0  0  0  0  0  0
  191.1210  177.1710  141.9670 C   0  0  0  0  0  2  0  0  0  0  0  0
  186.7850  178.2930  139.8400 C   0  0  0  0  0  0  0  0  0  0  0  0
  188.3920  177.3530  142.9870 C   0  0  0  0  0  0  0  0  0  0  0  0
  184.6490  179.7880  143.3040 C   0  0  0  0  0  2  0  0  0  0  0  0
  189.5660  177.0610  139.3290 C   0  0  2  0  0  3  0  0  0  0  0  0
  184.3880  178.2980  145.3010 C   0  0  0  0  0  2  0  0  0  0  0  0
  190.9360  177.0850  143.4810 C   0  0  2  0  0  0  0  0  0  0  0  0
  189.4740  176.7010  143.8510 C   0  0  1  0  0  3  0  0  0  0  0  0
  188.3140  176.8280  138.5050 C   0  0  0  0  0  2  0  0  0  0  0  0
  191.9800  177.1160  138.6790 C   0  0  0  0  0  3  0  0  0  0  0  0
  190.7490  176.4520  138.6310 C   0  0  0  0  0  0  0  0  0  0  0  0
  190.6470  175.2310  137.9450 C   0  0  0  0  0  3  0  0  0  0  0  0
  191.6640  173.5070  136.6530 F   0  0  0  0  0  0  0  0  0  0  0  0
  192.9930  175.3520  137.3650 C   0  0  0  0  0  3  0  0  0  0  0  0
  191.7670  174.6840  137.3130 C   0  0  0  0  0  0  0  0  0  0  0  0
  193.1000  176.5680  138.0470 C   0  0  0  0  0  3  0  0  0  0  0  0
  191.8810  175.9990  144.0170 C   0  0  0  0  0  2  0  0  0  0  0  0
  191.3400  174.7220  143.8410 O   0  0  0  0  0  1  0  0  0  0  0  0
  188.7180  176.9630  147.6000 C   0  0  0  0  0  1  0  0  0  0  0  0
  189.5090  178.0850  147.3460 O   0  0  0  0  0  0  0  0  0  0  0  0
  1  4  1  0  0  0  0
  2 23  1  0  0  0  0
  3  7  2  0  0  0  0
  4 37  1  1  0  0  0
  5 18  1  0  0  0  0
  6  8  1  0  0  0  0
  6 21  1  0  0  0  0
  7 20  1  0  0  0  0
  8  3  1  6  0  0  0
  8 12  1  0  0  0  0
  9  5  1  1  0  0  0
  9  7  1  0  0  0  0
 10  6  2  0  0  0  0
 11  4  1  0  0  0  0
 12 16  1  0  0  0  0
 13 23  1  0  0  0  0
 14 19  1  0  0  0  0
 15 19  2  0  0  0  0
 15 10  1  0  0  0  0
 16 13  1  0  0  0  0
 17 11  1  0  0  0  0
 18 24  1  0  0  0  0
 19  3  1  0  0  0  0
 20 12  2  0  0  0  0
 20 25  1  0  0  0  0
 21  2  1  0  0  0  0
 22 28  1  6  0  0  0
 22  9  1  0  0  0  0
 24 25  1  0  0  0  0
 24 34  1  1  0  0  0
 24 17  1  0  0  0  0
 25  1  1  1  0  0  0
 26 14  1  0  0  0  0
 26 22  1  0  0  0  0
 28 27  1  0  0  0  0
 29 28  2  0  0  0  0
 30 32  1  0  0  0  0
 31 33  1  0  0  0  0
 32 31  2  0  0  0  0
 32 29  1  0  0  0  0
 33 27  2  0  0  0  0
 35 34  1  0  0  0  0
 37 36  1  0  0  0  0
M  END
>  <MODEL>
1

>  <REMARK>
 VINA RESULT:      -8.8      0.000      0.000
  Name = 
  3 active torsions:
  status: ('A' for Active; 'I' for Inactive)
    1  A    between atoms: C_5  and  O_23
    2  A    between atoms: C_6  and  C_31
    3  A    between atoms: C_11  and  C_33
                            x       y       z     vdW  Elec       q    Type
                         _______ _______ _______ _____ _____    ______ ____

>  <TORSDO>
F 3

$$$$
=
 OpenBabel10272414443D

 37 43  0  0  1  0  0  0  0  0999 V2000
  183.4380  179.6050  141.9060 C   0  0  0  0  0  2  0  0  0  0  0  0
  186.8740  178.5520  146.6170 C   0  0  0  0  0  2  0  0  0  0  0  0
  187.8010  177.5480  142.3380 C   0  0  0  0  0  0  0  0  0  0  0  0
  182.4850  178.4530  142.2450 C   0  0  2  0  0  3  0  0  0  0  0  0
  186.4210  178.6960  138.9960 O   0  0  0  0  0  0  0  0  0  0  0  0
  187.5600  177.0900  144.7440 C   0  0  0  0  0  0  0  0  0  0  0  0
  187.0210  178.1080  141.3330 C   0  0  0  0  0  0  0  0  0  0  0  0
  187.0270  177.5930  143.5520 C   0  0  0  0  0  0  0  0  0  0  0  0
  187.4590  178.3700  139.8990 C   0  0  1  0  0  3  0  0  0  0  0  0
  188.8050  176.5380  144.7110 N   0  0  0  0  0  2  0  0  0  0  0  0
  182.0440  177.7200  140.9830 C   0  0  0  0  0  2  0  0  0  0  0  0
  185.8060  178.1730  143.2670 C   0  0  0  0  0  0  0  0  0  0  0  0
  185.1550  179.6620  145.1360 C   0  0  0  0  0  2  0  0  0  0  0  0
  189.8900  176.7980  141.2140 O   0  0  0  0  0  0  0  0  0  0  0  0
  189.5470  176.4540  143.5660 C   0  0  0  0  0  3  0  0  0  0  0  0
  184.7490  178.4720  144.2830 C   0  0  0  0  0  2  0  0  0  0  0  0
  183.2600  177.1930  140.2250 C   0  0  0  0  0  2  0  0  0  0  0  0
  185.4070  177.7300  139.0990 C   0  0  0  0  0  2  0  0  0  0  0  0
  189.0770  176.9550  142.3420 C   0  0  0  0  0  0  0  0  0  0  0  0
  185.7830  178.4790  141.8950 C   0  0  0  0  0  0  0  0  0  0  0  0
  186.8220  177.1460  146.0410 C   0  0  0  0  0  2  0  0  0  0  0  0
  188.4350  177.3260  139.3490 C   0  0  2  0  0  3  0  0  0  0  0  0
  185.5040  179.2140  146.5490 C   0  0  0  0  0  2  0  0  0  0  0  0
  184.2070  178.3330  139.8260 C   0  0  2  0  0  0  0  0  0  0  0  0
  184.6500  179.1220  141.0920 C   0  0  1  0  0  3  0  0  0  0  0  0
  189.7800  177.5480  140.0140 C   0  0  0  0  0  2  0  0  0  0  0  0
  189.2190  178.5290  137.3020 C   0  0  0  0  0  3  0  0  0  0  0  0
  188.5920  177.4080  137.8570 C   0  0  0  0  0  0  0  0  0  0  0  0
  188.1350  176.3820  137.0140 C   0  0  0  0  0  3  0  0  0  0  0  0
  187.8610  175.4900  134.8210 F   0  0  0  0  0  0  0  0  0  0  0  0
  188.9290  177.6040  135.0830 C   0  0  0  0  0  3  0  0  0  0  0  0
  188.3040  176.4820  135.6300 C   0  0  0  0  0  0  0  0  0  0  0  0
  189.3870  178.6280  135.9180 C   0  0  0  0  0  3  0  0  0  0  0  0
  183.5030  179.3010  138.8640 C   0  0  0  0  0  2  0  0  0  0  0  0
  184.0890  180.5690  138.8990 O   0  0  0  0  0  1  0  0  0  0  0  0
  180.5840  179.5360  141.9090 C   0  0  0  0  0  1  0  0  0  0  0  0
  181.3650  178.9550  142.9100 O   0  0  0  0  0  0  0  0  0  0  0  0
  1  4  1  0  0  0  0
  3 19  1  0  0  0  0
  3  8  1  0  0  0  0
  4 37  1  6  0  0  0
  5 18  1  0  0  0  0
  6 21  1  0  0  0  0
  7 20  1  0  0  0  0
  7  3  2  0  0  0  0
  8  6  2  0  0  0  0
  9  5  1  6  0  0  0
  9  7  1  0  0  0  0
 10  6  1  0  0  0  0
 11  4  1  0  0  0  0
 12  8  1  0  0  0  0
 12 16  1  0  0  0  0
 13 23  1  0  0  0  0
 14 19  1  0  0  0  0
 15 10  1  0  0  0  0
 16 13  1  0  0  0  0
 17 11  1  0  0  0  0
 18 24  1  0  0  0  0
 19 15  2  0  0  0  0
 20 12  2  0  0  0  0
 21  2  1  0  0  0  0
 22 28  1  6  0  0  0
 22  9  1  0  0  0  0
 22 26  1  0  0  0  0
 23  2  1  0  0  0  0
 24 34  1  6  0  0  0
 24 17  1  0  0  0  0
 24 25  1  0  0  0  0
 25 20  1  0  0  0  0
 25  1  1  1  0  0  0
 26 14  1  0  0  0  0
 27 28  1  0  0  0  0
 29 28  2  0  0  0  0
 30 32  1  0  0  0  0
 31 32  2  0  0  0  0
 31 33  1  0  0  0  0
 32 29  1  0  0  0  0
 33 27  2  0  0  0  0
 34 35  1  0  0  0  0
 36 37  1  0  0  0  0
M  END
>  <MODEL>
2

>  <REMARK>
 VINA RESULT:      -8.7      2.634      5.690
  Name = 
  3 active torsions:
  status: ('A' for Active; 'I' for Inactive)
    1  A    between atoms: C_5  and  O_23
    2  A    between atoms: C_6  and  C_31
    3  A    between atoms: C_11  and  C_33
                            x       y       z     vdW  Elec       q    Type
                         _______ _______ _______ _____ _____    ______ ____

>  <TORSDO>
F 3

$$$$
=
 OpenBabel10272414443D

 37 43  0  0  1  0  0  0  0  0999 V2000
  190.2970  176.2830  142.1090 C   0  0  0  0  0  2  0  0  0  0  0  0
  191.6840  175.8690  147.8550 C   0  0  0  0  0  2  0  0  0  0  0  0
  187.9470  177.6530  146.1160 C   0  0  0  0  0  0  0  0  0  0  0  0
  191.2740  177.4410  141.8760 C   0  0  2  0  0  3  0  0  0  0  0  0
  186.2370  177.4300  142.7360 O   0  0  0  0  0  0  0  0  0  0  0  0
  189.9530  177.6060  147.5400 C   0  0  0  0  0  0  0  0  0  0  0  0
  187.6530  177.4220  144.7770 C   0  0  0  0  0  0  0  0  0  0  0  0
  189.3620  177.4410  146.2830 C   0  0  0  0  0  0  0  0  0  0  0  0
  186.2660  177.4250  144.1510 C   0  0  1  0  0  3  0  0  0  0  0  0
  189.1610  177.9970  148.5780 N   0  0  0  0  0  2  0  0  0  0  0  0
  190.6760  178.4770  140.9320 C   0  0  0  0  0  2  0  0  0  0  0  0
  189.8960  177.0890  145.0590 C   0  0  0  0  0  0  0  0  0  0  0  0
  191.5980  175.3210  145.3910 C   0  0  0  0  0  2  0  0  0  0  0  0
  185.8000  178.3690  147.1500 O   0  0  0  0  0  0  0  0  0  0  0  0
  187.8220  178.2360  148.4390 C   0  0  0  0  0  3  0  0  0  0  0  0
  191.3240  176.7080  144.8330 C   0  0  0  0  0  2  0  0  0  0  0  0
  189.3560  179.0040  141.4900 C   0  0  0  0  0  2  0  0  0  0  0  0
  187.0600  178.4660  142.2680 C   0  0  0  0  0  2  0  0  0  0  0  0
  187.1670  178.0710  147.2090 C   0  0  0  0  0  0  0  0  0  0  0  0
  188.8520  177.0910  144.1160 C   0  0  0  0  0  0  0  0  0  0  0  0
  191.4050  177.3620  147.7840 C   0  0  0  0  0  2  0  0  0  0  0  0
  185.3030  178.4370  144.7790 C   0  0  2  0  0  3  0  0  0  0  0  0
  192.4710  175.4080  146.6360 C   0  0  0  0  0  2  0  0  0  0  0  0
  188.3400  177.8700  141.6840 C   0  0  2  0  0  0  0  0  0  0  0  0
  188.9340  176.7790  142.6200 C   0  0  1  0  0  3  0  0  0  0  0  0
  184.9060  177.9140  146.1460 C   0  0  0  0  0  2  0  0  0  0  0  0
  182.8320  178.7650  144.5880 C   0  0  0  0  0  3  0  0  0  0  0  0
  184.0720  178.6600  143.9480 C   0  0  0  0  0  0  0  0  0  0  0  0
  184.1430  178.7770  142.5500 C   0  0  0  0  0  3  0  0  0  0  0  0
  183.0530  179.1070  140.4560 F   0  0  0  0  0  0  0  0  0  0  0  0
  181.7460  179.0980  142.4490 C   0  0  0  0  0  3  0  0  0  0  0  0
  182.9810  178.9950  141.8040 C   0  0  0  0  0  0  0  0  0  0  0  0
  181.6710  178.9830  143.8400 C   0  0  0  0  0  3  0  0  0  0  0  0
  187.9940  177.2260  140.3340 C   0  0  0  0  0  2  0  0  0  0  0  0
  187.5300  178.1770  139.4200 O   0  0  0  0  0  1  0  0  0  0  0  0
  192.4450  177.3500  140.0000 C   0  0  0  0  0  1  0  0  0  0  0  0
  192.4630  176.9470  141.3370 O   0  0  0  0  0  0  0  0  0  0  0  0
  3  8  1  0  0  0  0
  3 19  1  0  0  0  0
  4 37  1  6  0  0  0
  4  1  1  0  0  0  0
  6 21  1  0  0  0  0
  6 10  1  0  0  0  0
  7  3  2  0  0  0  0
  8  6  2  0  0  0  0
  9  5  1  6  0  0  0
  9  7  1  0  0  0  0
  9 22  1  0  0  0  0
 11 17  1  0  0  0  0
 11  4  1  0  0  0  0
 12  8  1  0  0  0  0
 13 23  1  0  0  0  0
 14 19  1  0  0  0  0
 15 10  1  0  0  0  0
 16 12  1  0  0  0  0
 16 13  1  0  0  0  0
 17 24  1  0  0  0  0
 18  5  1  0  0  0  0
 19 15  2  0  0  0  0
 20  7  1  0  0  0  0
 20 12  2  0  0  0  0
 21  2  1  0  0  0  0
 22 28  1  6  0  0  0
 22 26  1  0  0  0  0
 23  2  1  0  0  0  0
 24 34  1  6  0  0  0
 24 18  1  0  0  0  0
 24 25  1  0  0  0  0
 25  1  1  6  0  0  0
 25 20  1  0  0  0  0
 26 14  1  0  0  0  0
 28 27  1  0  0  0  0
 29 28  2  0  0  0  0
 30 32  1  0  0  0  0
 31 33  1  0  0  0  0
 32 31  2  0  0  0  0
 32 29  1  0  0  0  0
 33 27  2  0  0  0  0
 35 34  1  0  0  0  0
 36 37  1  0  0  0  0
M  END
>  <MODEL>
3

>  <REMARK>
 VINA RESULT:      -8.4      2.983      7.374
  Name = 
  3 active torsions:
  status: ('A' for Active; 'I' for Inactive)
    1  A    between atoms: C_5  and  O_23
    2  A    between atoms: C_6  and  C_31
    3  A    between atoms: C_11  and  C_33
                            x       y       z     vdW  Elec       q    Type
                         _______ _______ _______ _____ _____    ______ ____

>  <TORSDO>
F 3

$$$$
=
 OpenBabel10272414443D

 37 43  0  0  1  0  0  0  0  0999 V2000
  183.6620  178.0760  143.2430 C   0  0  0  0  0  2  0  0  0  0  0  0
  185.3430  177.7520  137.5700 C   0  0  0  0  0  2  0  0  0  0  0  0
  188.0300  177.7910  141.1690 C   0  0  0  0  0  0  0  0  0  0  0  0
  183.3360  179.5700  143.1420 C   0  0  2  0  0  3  0  0  0  0  0  0
  187.4960  177.1600  144.8720 O   0  0  0  0  0  0  0  0  0  0  0  0
  187.2400  178.5230  138.9560 C   0  0  0  0  0  0  0  0  0  0  0  0
  187.4710  177.5910  142.4260 C   0  0  2  0  0  3  0  0  0  0  0  0
  186.9710  178.2360  140.2990 C   0  0  0  0  0  0  0  0  0  0  0  0
  188.1850  177.0220  143.6440 C   0  0  1  0  0  3  0  0  0  0  0  0
  188.5230  178.3980  138.5150 N   0  0  0  0  0  0  0  0  0  0  0  0
  183.7640  180.3070  144.4060 C   0  0  0  0  0  2  0  0  0  0  0  0
  185.8030  178.2970  141.0340 C   0  0  0  0  0  0  0  0  0  0  0  0
  183.9230  177.4850  139.6410 C   0  0  0  0  0  2  0  0  0  0  0  0
  190.4590  177.3300  141.4450 O   0  0  0  0  0  0  0  0  0  0  0  0
  189.5510  178.0080  139.3270 C   0  0  0  0  0  3  0  0  0  0  0  0
  184.4610  178.6410  140.4680 C   0  0  0  0  0  2  0  0  0  0  0  0
  185.2570  180.1090  144.6550 C   0  0  0  0  0  2  0  0  0  0  0  0
  187.1110  178.5000  145.0310 C   0  0  0  0  0  2  0  0  0  0  0  0
  189.3440  177.6890  140.6790 C   0  0  0  0  0  0  0  0  0  0  0  0
  186.1020  177.9180  142.3540 C   0  0  0  0  0  0  0  0  0  0  0  0
  186.1780  178.9490  137.9980 C   0  0  0  0  0  2  0  0  0  0  0  0
  189.6640  177.4070  143.7330 C   0  0  2  0  0  3  0  0  0  0  0  0
  183.9410  177.8330  138.1590 C   0  0  0  0  0  2  0  0  0  0  0  0
  185.6040  178.6220  144.8120 C   0  0  2  0  0  0  0  0  0  0  0  0
  185.1500  177.8350  143.5490 C   0  0  1  0  0  3  0  0  0  0  0  0
  190.4140  176.6230  142.6740 C   0  0  0  0  0  2  0  0  0  0  0  0
  191.4000  176.3230  145.1680 C   0  0  0  0  0  3  0  0  0  0  0  0
  190.2570  177.1260  145.0840 C   0  0  0  0  0  0  0  0  0  0  0  0
  189.6970  177.6590  146.2560 C   0  0  0  0  0  3  0  0  0  0  0  0
  189.7330  177.9030  148.6260 F   0  0  0  0  0  0  0  0  0  0  0  0
  191.4170  176.5840  147.5760 C   0  0  0  0  0  3  0  0  0  0  0  0
  190.2760  177.3870  147.4980 C   0  0  0  0  0  0  0  0  0  0  0  0
  191.9790  176.0520  146.4120 C   0  0  0  0  0  3  0  0  0  0  0  0
  184.8940  178.0340  146.0400 C   0  0  0  0  0  2  0  0  0  0  0  0
  185.1580  178.7870  147.1890 O   0  0  0  0  0  1  0  0  0  0  0  0
  181.3650  178.8000  143.7910 C   0  0  0  0  0  1  0  0  0  0  0  0
  181.9640  179.7360  142.9460 O   0  0  0  0  0  0  0  0  0  0  0  0
  2 21  1  0  0  0  0
  2 23  1  0  0  0  0
  4 37  1  1  0  0  0
  4  1  1  0  0  0  0
  4 11  1  0  0  0  0
  5 18  1  0  0  0  0
  6  8  1  0  0  0  0
  7  3  1  6  0  0  0
  7  9  1  0  0  0  0
  8 12  1  0  0  0  0
  8  3  2  0  0  0  0
  9 22  1  0  0  0  0
  9  5  1  1  0  0  0
 10  6  2  0  0  0  0
 10 15  1  0  0  0  0
 11 17  1  0  0  0  0
 12 20  2  0  0  0  0
 13 16  1  0  0  0  0
 14 26  1  0  0  0  0
 15 19  2  0  0  0  0
 16 12  1  0  0  0  0
 17 24  1  0  0  0  0
 19  3  1  0  0  0  0
 19 14  1  0  0  0  0
 20  7  1  0  0  0  0
 20 25  1  0  0  0  0
 21  6  1  0  0  0  0
 22 28  1  1  0  0  0
 23 13  1  0  0  0  0
 24 18  1  0  0  0  0
 24 34  1  1  0  0  0
 25  1  1  6  0  0  0
 25 24  1  0  0  0  0
 26 22  1  0  0  0  0
 27 33  1  0  0  0  0
 28 27  2  0  0  0  0
 28 29  1  0  0  0  0
 29 32  2  0  0  0  0
 32 31  1  0  0  0  0
 32 30  1  0  0  0  0
 33 31  2  0  0  0  0
 34 35  1  0  0  0  0
 37 36  1  0  0  0  0
M  END
>  <MODEL>
4

>  <REMARK>
 VINA RESULT:      -7.8      3.055      6.398
  Name = 
  3 active torsions:
  status: ('A' for Active; 'I' for Inactive)
    1  A    between atoms: C_5  and  O_23
    2  A    between atoms: C_6  and  C_31
    3  A    between atoms: C_11  and  C_33
                            x       y       z     vdW  Elec       q    Type
                         _______ _______ _______ _____ _____    ______ ____

>  <TORSDO>
F 3

$$$$
=
 OpenBabel10272414443D

 37 43  0  0  1  0  0  0  0  0999 V2000
  189.7720  178.3200  142.9560 C   0  0  0  0  0  2  0  0  0  0  0  0
  192.7110  176.6200  138.0990 C   0  0  0  0  0  2  0  0  0  0  0  0
  188.2680  177.1420  138.5050 C   0  0  0  0  0  0  0  0  0  0  0  0
  189.9390  176.9530  143.6300 C   0  0  2  0  0  3  0  0  0  0  0  0
  186.0340  178.9320  140.9950 O   0  0  0  0  0  0  0  0  0  0  0  0
  190.3380  175.9500  137.9120 C   0  0  0  0  0  0  0  0  0  0  0  0
  187.7700  177.8080  139.6190 C   0  0  2  0  0  3  0  0  0  0  0  0
  189.5850  176.6670  138.8480 C   0  0  0  0  0  0  0  0  0  0  0  0
  186.4520  178.5660  139.6930 C   0  0  1  0  0  3  0  0  0  0  0  0
  189.7800  175.6920  136.6970 N   0  0  0  0  0  0  0  0  0  0  0  0
  188.6720  176.5570  144.3790 C   0  0  0  0  0  2  0  0  0  0  0  0
  189.8600  177.0500  140.1460 C   0  0  0  0  0  0  0  0  0  0  0  0
  192.2290  177.7540  140.3030 C   0  0  0  0  0  2  0  0  0  0  0  0
  186.4320  177.1930  136.8270 O   0  0  0  0  0  0  0  0  0  0  0  0
  188.5200  176.1030  136.3580 C   0  0  0  0  0  3  0  0  0  0  0  0
  191.1620  176.8160  140.8430 C   0  0  0  0  0  2  0  0  0  0  0  0
  187.4790  176.5330  143.4270 C   0  0  0  0  0  2  0  0  0  0  0  0
  186.0690  177.7980  141.8210 C   0  0  0  0  0  2  0  0  0  0  0  0
  187.7210  176.8410  137.2450 C   0  0  0  0  0  0  0  0  0  0  0  0
  188.7380  177.7400  140.6400 C   0  0  0  0  0  0  0  0  0  0  0  0
  191.7220  175.4680  138.1950 C   0  0  0  0  0  2  0  0  0  0  0  0
  185.3330  177.9510  138.8490 C   0  0  2  0  0  3  0  0  0  0  0  0
  193.2500  176.9850  139.4760 C   0  0  0  0  0  2  0  0  0  0  0  0
  187.2570  177.9050  142.7760 C   0  0  2  0  0  0  0  0  0  0  0  0
  188.5460  178.3530  142.0280 C   0  0  1  0  0  3  0  0  0  0  0  0
  185.6430  178.2280  137.3910 C   0  0  0  0  0  2  0  0  0  0  0  0
  183.0930  177.7150  139.9350 C   0  0  0  0  0  3  0  0  0  0  0  0
  183.9780  178.5030  139.1910 C   0  0  0  0  0  0  0  0  0  0  0  0
  183.5890  179.7910  138.7890 C   0  0  0  0  0  3  0  0  0  0  0  0
  181.9540  181.5240  138.7410 F   0  0  0  0  0  0  0  0  0  0  0  0
  181.4460  179.4900  139.8730 C   0  0  0  0  0  3  0  0  0  0  0  0
  182.3260  180.2820  139.1300 C   0  0  0  0  0  0  0  0  0  0  0  0
  181.8300  178.2070  140.2760 C   0  0  0  0  0  3  0  0  0  0  0  0
  186.9170  178.9540  143.8440 C   0  0  0  0  0  2  0  0  0  0  0  0
  185.7540  178.6130  144.5410 O   0  0  0  0  0  1  0  0  0  0  0  0
  191.6070  178.2450  144.3010 C   0  0  0  0  0  1  0  0  0  0  0  0
  191.0130  177.0000  144.5200 O   0  0  0  0  0  0  0  0  0  0  0  0
  1  4  1  0  0  0  0
  2 21  1  0  0  0  0
  2 23  1  0  0  0  0
  3  8  2  0  0  0  0
  4 11  1  0  0  0  0
  4 37  1  1  0  0  0
  5 18  1  0  0  0  0
  6 21  1  0  0  0  0
  6  8  1  0  0  0  0
  7  3  1  6  0  0  0
  7  9  1  0  0  0  0
  7 20  1  0  0  0  0
  8 12  1  0  0  0  0
  9  5  1  1  0  0  0
 10  6  2  0  0  0  0
 12 20  2  0  0  0  0
 12 16  1  0  0  0  0
 13 16  1  0  0  0  0
 14 19  1  0  0  0  0
 14 26  1  0  0  0  0
 15 10  1  0  0  0  0
 15 19  2  0  0  0  0
 17 11  1  0  0  0  0
 18 24  1  0  0  0  0
 19  3  1  0  0  0  0
 20 25  1  0  0  0  0
 22 28  1  1  0  0  0
 22  9  1  0  0  0  0
 23 13  1  0  0  0  0
 24 17  1  0  0  0  0
 24 34  1  1  0  0  0
 25 24  1  0  0  0  0
 25  1  1  1  0  0  0
 26 22  1  0  0  0  0
 27 33  1  0  0  0  0
 28 27  2  0  0  0  0
 29 32  2  0  0  0  0
 29 28  1  0  0  0  0
 30 32  1  0  0  0  0
 31 33  2  0  0  0  0
 32 31  1  0  0  0  0
 34 35  1  0  0  0  0
 36 37  1  0  0  0  0
M  END
>  <MODEL>
5

>  <REMARK>
 VINA RESULT:      -7.4      3.122      6.779
  Name = 
  3 active torsions:
  status: ('A' for Active; 'I' for Inactive)
    1  A    between atoms: C_5  and  O_23
    2  A    between atoms: C_6  and  C_31
    3  A    between atoms: C_11  and  C_33
                            x       y       z     vdW  Elec       q    Type
                         _______ _______ _______ _____ _____    ______ ____

>  <TORSDO>
F 3

$$$$
=
 OpenBabel10272414443D

 37 43  0  0  1  0  0  0  0  0999 V2000
  190.2990  176.6050  144.7150 C   0  0  0  0  0  2  0  0  0  0  0  0
  184.9820  177.9810  146.9380 C   0  0  0  0  0  2  0  0  0  0  0  0
  186.3080  178.4350  142.6710 C   0  0  0  0  0  0  0  0  0  0  0  0
  190.9630  177.8430  145.3300 C   0  0  2  0  0  3  0  0  0  0  0  0
  189.1600  176.9990  140.6230 O   0  0  0  0  0  0  0  0  0  0  0  0
  185.3240  179.1770  144.8020 C   0  0  0  0  0  0  0  0  0  0  0  0
  187.4810  177.8120  142.2630 C   0  0  0  0  0  0  0  0  0  0  0  0
  186.3760  178.5750  144.1040 C   0  0  2  0  0  3  0  0  0  0  0  0
  187.8120  177.3630  140.8470 C   0  0  1  0  0  3  0  0  0  0  0  0
  184.2630  179.6470  144.0880 N   0  0  0  0  0  0  0  0  0  0  0  0
  191.9760  178.4520  144.3670 C   0  0  0  0  0  2  0  0  0  0  0  0
  187.5750  178.0400  144.5350 C   0  0  0  0  0  0  0  0  0  0  0  0
  187.2030  176.8140  146.6550 C   0  0  0  0  0  2  0  0  0  0  0  0
  185.0570  178.9270  140.5770 O   0  0  0  0  0  0  0  0  0  0  0  0
  184.1880  179.5560  142.7260 C   0  0  0  0  0  3  0  0  0  0  0  0
  187.9850  177.9220  145.9680 C   0  0  0  0  0  2  0  0  0  0  0  0
  191.3000  178.8170  143.0470 C   0  0  0  0  0  2  0  0  0  0  0  0
  189.9930  178.0280  141.0880 C   0  0  0  0  0  2  0  0  0  0  0  0
  185.2020  178.9480  141.9700 C   0  0  0  0  0  0  0  0  0  0  0  0
  188.2740  177.5810  143.4050 C   0  0  0  0  0  0  0  0  0  0  0  0
  185.3200  179.3130  146.2880 C   0  0  0  0  0  2  0  0  0  0  0  0
  187.2440  178.2780  139.7580 C   0  0  2  0  0  3  0  0  0  0  0  0
  186.2010  177.3980  147.6410 C   0  0  0  0  0  2  0  0  0  0  0  0
  190.6710  177.5840  142.3830 C   0  0  2  0  0  0  0  0  0  0  0  0
  189.6530  176.9200  143.3550 C   0  0  1  0  0  3  0  0  0  0  0  0
  185.7450  178.0530  139.6960 C   0  0  0  0  0  2  0  0  0  0  0  0
  188.7580  178.9420  137.8830 C   0  0  0  0  0  3  0  0  0  0  0  0
  187.8480  178.0170  138.4080 C   0  0  0  0  0  0  0  0  0  0  0  0
  187.5290  176.8650  137.6720 C   0  0  0  0  0  3  0  0  0  0  0  0
  187.8050  175.5320  135.7150 F   0  0  0  0  0  0  0  0  0  0  0  0
  189.0230  177.5720  135.9030 C   0  0  0  0  0  3  0  0  0  0  0  0
  188.1160  176.6440  136.4220 C   0  0  0  0  0  0  0  0  0  0  0  0
  189.3440  178.7200  136.6330 C   0  0  0  0  0  3  0  0  0  0  0  0
  191.7550  176.5570  142.0270 C   0  0  0  0  0  2  0  0  0  0  0  0
  192.6370  177.0600  141.0660 O   0  0  0  0  0  1  0  0  0  0  0  0
  191.9740  176.1530  146.3410 C   0  0  0  0  0  1  0  0  0  0  0  0
  191.6030  177.4870  146.5180 O   0  0  0  0  0  0  0  0  0  0  0  0
  1  4  1  0  0  0  0
  2 23  1  0  0  0  0
  4 37  1  1  0  0  0
  5 18  1  0  0  0  0
  6 21  1  0  0  0  0
  7  3  2  0  0  0  0
  7 20  1  0  0  0  0
  8  3  1  6  0  0  0
  8 12  1  0  0  0  0
  8  6  1  0  0  0  0
  9  5  1  1  0  0  0
  9  7  1  0  0  0  0
 10  6  2  0  0  0  0
 11  4  1  0  0  0  0
 12 16  1  0  0  0  0
 13 23  1  0  0  0  0
 14 19  1  0  0  0  0
 15 10  1  0  0  0  0
 16 13  1  0  0  0  0
 17 11  1  0  0  0  0
 18 24  1  0  0  0  0
 19  3  1  0  0  0  0
 19 15  2  0  0  0  0
 20 12  2  0  0  0  0
 21  2  1  0  0  0  0
 22 28  1  6  0  0  0
 22  9  1  0  0  0  0
 24 34  1  6  0  0  0
 24 17  1  0  0  0  0
 24 25  1  0  0  0  0
 25 20  1  0  0  0  0
 25  1  1  1  0  0  0
 26 22  1  0  0  0  0
 26 14  1  0  0  0  0
 27 28  1  0  0  0  0
 29 28  2  0  0  0  0
 30 32  1  0  0  0  0
 31 32  2  0  0  0  0
 31 33  1  0  0  0  0
 32 29  1  0  0  0  0
 33 27  2  0  0  0  0
 35 34  1  0  0  0  0
 36 37  1  0  0  0  0
M  END
>  <MODEL>
6

>  <REMARK>
 VINA RESULT:      -7.3      2.244      2.780
  Name = 
  3 active torsions:
  status: ('A' for Active; 'I' for Inactive)
    1  A    between atoms: C_5  and  O_23
    2  A    between atoms: C_6  and  C_31
    3  A    between atoms: C_11  and  C_33
                            x       y       z     vdW  Elec       q    Type
                         _______ _______ _______ _____ _____    ______ ____

>  <TORSDO>
F 3

$$$$
=
 OpenBabel10272414443D

 37 43  0  0  1  0  0  0  0  0999 V2000
  185.1540  179.1660  139.1530 C   0  0  0  0  0  2  0  0  0  0  0  0
  185.5830  179.1540  145.0630 C   0  0  0  0  0  2  0  0  0  0  0  0
  188.5340  177.4240  142.1530 C   0  0  0  0  0  0  0  0  0  0  0  0
  184.0990  178.0550  139.1490 C   0  0  2  0  0  3  0  0  0  0  0  0
  189.1550  177.8730  138.4370 O   0  0  0  0  0  0  0  0  0  0  0  0
  187.0540  177.4060  144.1190 C   0  0  0  0  0  0  0  0  0  0  0  0
  188.4210  177.7530  140.8070 C   0  0  0  0  0  0  0  0  0  0  0  0
  187.2460  177.6560  142.7560 C   0  0  0  0  0  0  0  0  0  0  0  0
  189.5540  177.7660  139.7910 C   0  0  1  0  0  3  0  0  0  0  0  0
  188.1010  176.9130  144.8380 N   0  0  0  0  0  2  0  0  0  0  0  0
  184.3340  177.0830  137.9990 C   0  0  0  0  0  2  0  0  0  0  0  0
  186.3860  178.1180  141.7790 C   0  0  0  0  0  0  0  0  0  0  0  0
  184.9480  179.8940  142.7330 C   0  0  0  0  0  2  0  0  0  0  0  0
  190.8550  176.5750  142.4350 O   0  0  0  0  0  0  0  0  0  0  0  0
  189.3240  176.6540  144.2830 C   0  0  0  0  0  3  0  0  0  0  0  0
  184.9750  178.5500  142.0250 C   0  0  0  0  0  2  0  0  0  0  0  0
  185.7340  176.4810  138.0920 C   0  0  0  0  0  2  0  0  0  0  0  0
  188.1810  176.8980  138.1710 C   0  0  0  0  0  2  0  0  0  0  0  0
  189.5850  176.9000  142.9260 C   0  0  0  0  0  0  0  0  0  0  0  0
  187.0960  178.1650  140.5660 C   0  0  0  0  0  0  0  0  0  0  0  0
  185.7560  177.6650  144.8090 C   0  0  0  0  0  2  0  0  0  0  0  0
  190.6120  176.6840  140.0260 C   0  0  2  0  0  3  0  0  0  0  0  0
  184.4880  179.7310  144.1750 C   0  0  0  0  0  2  0  0  0  0  0  0
  186.8150  177.5700  138.0460 C   0  0  2  0  0  0  0  0  0  0  0  0
  186.5830  178.5970  139.1910 C   0  0  1  0  0  3  0  0  0  0  0  0
  191.4270  177.0860  141.2400 C   0  0  0  0  0  2  0  0  0  0  0  0
  192.7970  177.0770  138.8760 C   0  0  0  0  0  3  0  0  0  0  0  0
  191.5230  176.4980  138.8470 C   0  0  0  0  0  0  0  0  0  0  0  0
  191.1290  175.7480  137.7270 C   0  0  0  0  0  3  0  0  0  0  0  0
  191.6190  174.8590  135.5710 F   0  0  0  0  0  0  0  0  0  0  0  0
  193.2730  176.1640  136.6840 C   0  0  0  0  0  3  0  0  0  0  0  0
  192.0030  175.5820  136.6490 C   0  0  0  0  0  0  0  0  0  0  0  0
  193.6700  176.9110  137.7970 C   0  0  0  0  0  3  0  0  0  0  0  0
  186.7690  178.3120  136.7020 C   0  0  0  0  0  2  0  0  0  0  0  0
  187.4810  179.5130  136.7590 O   0  0  0  0  0  1  0  0  0  0  0  0
  183.0560  179.9830  138.8460 C   0  0  0  0  0  1  0  0  0  0  0  0
  182.8270  178.6190  139.0320 O   0  0  0  0  0  0  0  0  0  0  0  0
  3  8  1  0  0  0  0
  3 19  1  0  0  0  0
  4 37  1  6  0  0  0
  4  1  1  0  0  0  0
  6 21  1  0  0  0  0
  6 10  1  0  0  0  0
  7  3  2  0  0  0  0
  8  6  2  0  0  0  0
  9  5  1  6  0  0  0
  9 22  1  0  0  0  0
  9  7  1  0  0  0  0
 11 17  1  0  0  0  0
 11  4  1  0  0  0  0
 12 16  1  0  0  0  0
 12  8  1  0  0  0  0
 13 23  1  0  0  0  0
 14 19  1  0  0  0  0
 15 10  1  0  0  0  0
 16 13  1  0  0  0  0
 18  5  1  0  0  0  0
 19 15  2  0  0  0  0
 20  7  1  0  0  0  0
 20 12  2  0  0  0  0
 21  2  1  0  0  0  0
 22 28  1  6  0  0  0
 22 26  1  0  0  0  0
 23  2  1  0  0  0  0
 24 34  1  6  0  0  0
 24 17  1  0  0  0  0
 24 18  1  0  0  0  0
 24 25  1  0  0  0  0
 25  1  1  1  0  0  0
 25 20  1  0  0  0  0
 26 14  1  0  0  0  0
 28 27  1  0  0  0  0
 29 28  2  0  0  0  0
 30 32  1  0  0  0  0
 31 33  1  0  0  0  0
 32 31  2  0  0  0  0
 32 29  1  0  0  0  0
 33 27  2  0  0  0  0
 34 35  1  0  0  0  0
 36 37  1  0  0  0  0
M  END
>  <MODEL>
7

>  <REMARK>
 VINA RESULT:      -7.3      1.906      5.334
  Name = 
  3 active torsions:
  status: ('A' for Active; 'I' for Inactive)
    1  A    between atoms: C_5  and  O_23
    2  A    between atoms: C_6  and  C_31
    3  A    between atoms: C_11  and  C_33
                            x       y       z     vdW  Elec       q    Type
                         _______ _______ _______ _____ _____    ______ ____

>  <TORSDO>
F 3

$$$$
=
 OpenBabel10272414443D

 37 43  0  0  1  0  0  0  0  0999 V2000
  186.4110  178.7320  137.1200 C   0  0  0  0  0  2  0  0  0  0  0  0
  181.2960  179.9730  139.8420 C   0  0  0  0  0  2  0  0  0  0  0  0
  185.0560  178.4390  141.7600 C   0  0  0  0  0  0  0  0  0  0  0  0
  185.8690  177.4280  136.5250 C   0  0  2  0  0  3  0  0  0  0  0  0
  188.6950  178.2860  140.6950 O   0  0  0  0  0  0  0  0  0  0  0  0
  182.6470  178.4630  141.2590 C   0  0  0  0  0  0  0  0  0  0  0  0
  186.2400  178.4640  141.0320 C   0  0  0  0  0  0  0  0  0  0  0  0
  183.9730  178.4800  140.8120 C   0  0  0  0  0  0  0  0  0  0  0  0
  187.6460  178.5400  141.6100 C   0  0  1  0  0  3  0  0  0  0  0  0
  182.4200  178.3760  142.5990 N   0  0  0  0  0  2  0  0  0  0  0  0
  186.9270  176.3320  136.5580 C   0  0  0  0  0  2  0  0  0  0  0  0
  184.5110  178.5300  139.5410 C   0  0  0  0  0  0  0  0  0  0  0  0
  183.1670  180.0770  138.1490 C   0  0  0  0  0  2  0  0  0  0  0  0
  185.7480  178.2220  144.1400 O   0  0  0  0  0  0  0  0  0  0  0  0
  183.4300  178.3040  143.5180 C   0  0  0  0  0  3  0  0  0  0  0  0
  183.7100  178.6640  138.2840 C   0  0  0  0  0  2  0  0  0  0  0  0
  187.4060  176.1000  137.9890 C   0  0  0  0  0  2  0  0  0  0  0  0
  188.4340  177.0800  140.0270 C   0  0  0  0  0  2  0  0  0  0  0  0
  184.7800  178.3340  143.1360 C   0  0  0  0  0  0  0  0  0  0  0  0
  185.9110  178.5030  139.6630 C   0  0  0  0  0  0  0  0  0  0  0  0
  181.4840  178.5440  140.3270 C   0  0  0  0  0  2  0  0  0  0  0  0
  187.8110  177.8000  142.9400 C   0  0  2  0  0  3  0  0  0  0  0  0
  181.6610  180.0960  138.3680 C   0  0  0  0  0  2  0  0  0  0  0  0
  188.0030  177.3790  138.5920 C   0  0  2  0  0  0  0  0  0  0  0  0
  186.9550  178.5280  138.5440 C   0  0  1  0  0  3  0  0  0  0  0  0
  187.1080  178.6080  144.0140 C   0  0  0  0  0  2  0  0  0  0  0  0
  189.7750  176.3050  143.3420 C   0  0  0  0  0  3  0  0  0  0  0  0
  189.2510  177.6030  143.3200 C   0  0  0  0  0  0  0  0  0  0  0  0
  190.0800  178.6900  143.6400 C   0  0  0  0  0  3  0  0  0  0  0  0
  192.2150  179.5280  144.2870 F   0  0  0  0  0  0  0  0  0  0  0  0
  191.9360  177.1790  144.0010 C   0  0  0  0  0  3  0  0  0  0  0  0
  191.4190  178.4770  143.9790 C   0  0  0  0  0  0  0  0  0  0  0  0
  191.1140  176.0930  143.6820 C   0  0  0  0  0  3  0  0  0  0  0  0
  189.2460  177.8130  137.8020 C   0  0  0  0  0  2  0  0  0  0  0  0
  190.3440  176.9980  138.0920 O   0  0  0  0  0  1  0  0  0  0  0  0
  186.6390  177.9590  134.5190 C   0  0  0  0  0  1  0  0  0  0  0  0
  185.4650  177.6490  135.2070 O   0  0  0  0  0  0  0  0  0  0  0  0
  2 21  1  0  0  0  0
  3 19  1  0  0  0  0
  4 37  1  6  0  0  0
  4 11  1  0  0  0  0
  4  1  1  0  0  0  0
  6 10  1  0  0  0  0
  7  9  1  0  0  0  0
  7  3  2  0  0  0  0
  8  6  2  0  0  0  0
  8  3  1  0  0  0  0
  9  5  1  6  0  0  0
  9 22  1  0  0  0  0
 10 15  1  0  0  0  0
 11 17  1  0  0  0  0
 12 20  2  0  0  0  0
 12  8  1  0  0  0  0
 13 16  1  0  0  0  0
 13 23  1  0  0  0  0
 16 12  1  0  0  0  0
 17 24  1  0  0  0  0
 18  5  1  0  0  0  0
 19 15  2  0  0  0  0
 19 14  1  0  0  0  0
 20  7  1  0  0  0  0
 21  6  1  0  0  0  0
 22 28  1  1  0  0  0
 22 26  1  0  0  0  0
 23  2  1  0  0  0  0
 24 34  1  6  0  0  0
 24 18  1  0  0  0  0
 25  1  1  6  0  0  0
 25 24  1  0  0  0  0
 25 20  1  0  0  0  0
 26 14  1  0  0  0  0
 27 33  1  0  0  0  0
 28 27  2  0  0  0  0
 28 29  1  0  0  0  0
 29 32  2  0  0  0  0
 32 31  1  0  0  0  0
 32 30  1  0  0  0  0
 33 31  2  0  0  0  0
 34 35  1  0  0  0  0
 36 37  1  0  0  0  0
M  END
>  <MODEL>
8

>  <REMARK>
 VINA RESULT:      -7.0      2.901      6.633
  Name = 
  3 active torsions:
  status: ('A' for Active; 'I' for Inactive)
    1  A    between atoms: C_5  and  O_23
    2  A    between atoms: C_6  and  C_31
    3  A    between atoms: C_11  and  C_33
                            x       y       z     vdW  Elec       q    Type
                         _______ _______ _______ _____ _____    ______ ____

>  <TORSDO>
F 3

$$$$
=
 OpenBabel10272414443D

 37 43  0  0  1  0  0  0  0  0999 V2000
  184.6330  179.8060  143.5650 C   0  0  0  0  0  2  0  0  0  0  0  0
  188.0000  178.4130  148.2380 C   0  0  0  0  0  2  0  0  0  0  0  0
  188.8590  177.4690  143.9320 C   0  0  0  0  0  0  0  0  0  0  0  0
  183.6100  178.7080  143.8760 C   0  0  2  0  0  3  0  0  0  0  0  0
  187.5500  178.7900  140.6240 O   0  0  0  0  0  0  0  0  0  0  0  0
  188.5910  176.9620  146.3250 C   0  0  0  0  0  0  0  0  0  0  0  0
  188.1140  178.1030  142.9440 C   0  0  0  0  0  0  0  0  0  0  0  0
  188.0900  177.5290  145.1480 C   0  0  0  0  0  0  0  0  0  0  0  0
  188.5670  178.3750  141.5160 C   0  0  1  0  0  3  0  0  0  0  0  0
  189.7990  176.3340  146.2740 N   0  0  0  0  0  2  0  0  0  0  0  0
  183.1230  178.0380  142.5960 C   0  0  0  0  0  2  0  0  0  0  0  0
  186.9070  178.1920  144.8820 C   0  0  0  0  0  0  0  0  0  0  0  0
  186.3530  179.6680  146.7920 C   0  0  0  0  0  2  0  0  0  0  0  0
  190.8950  176.6190  142.7820 O   0  0  0  0  0  0  0  0  0  0  0  0
  190.5340  176.2340  145.1250 C   0  0  0  0  0  3  0  0  0  0  0  0
  185.8730  178.5290  145.9080 C   0  0  0  0  0  2  0  0  0  0  0  0
  184.3030  177.4560  141.8210 C   0  0  0  0  0  2  0  0  0  0  0  0
  186.4790  177.8880  140.7040 C   0  0  0  0  0  2  0  0  0  0  0  0
  190.0940  176.7970  143.9170 C   0  0  0  0  0  0  0  0  0  0  0  0
  186.9030  178.5360  143.5190 C   0  0  0  0  0  0  0  0  0  0  0  0
  187.8590  177.0290  147.6240 C   0  0  0  0  0  2  0  0  0  0  0  0
  189.4750  177.2880  140.9350 C   0  0  2  0  0  3  0  0  0  0  0  0
  186.6740  179.1620  148.1910 C   0  0  0  0  0  2  0  0  0  0  0  0
  185.3190  178.5450  141.4500 C   0  0  2  0  0  0  0  0  0  0  0  0
  185.8120  179.2700  142.7360 C   0  0  1  0  0  3  0  0  0  0  0  0
  190.8320  177.4070  141.6030 C   0  0  0  0  0  2  0  0  0  0  0  0
  190.2460  176.3510  138.7490 C   0  0  0  0  0  3  0  0  0  0  0  0
  189.6350  177.4000  139.4460 C   0  0  0  0  0  0  0  0  0  0  0  0
  189.1770  178.5250  138.7420 C   0  0  0  0  0  3  0  0  0  0  0  0
  188.8870  179.6830  136.6800 F   0  0  0  0  0  0  0  0  0  0  0  0
  189.9420  177.5470  136.6650 C   0  0  0  0  0  3  0  0  0  0  0  0
  189.3310  178.5970  137.3550 C   0  0  0  0  0  0  0  0  0  0  0  0
  190.3990  176.4240  137.3620 C   0  0  0  0  0  3  0  0  0  0  0  0
  184.6760  179.5810  140.5160 C   0  0  0  0  0  2  0  0  0  0  0  0
  184.8580  179.2370  139.1740 O   0  0  0  0  0  1  0  0  0  0  0  0
  181.3990  178.8080  143.8650 C   0  0  0  0  0  1  0  0  0  0  0  0
  182.5240  179.2610  144.5560 O   0  0  0  0  0  0  0  0  0  0  0  0
  1  4  1  0  0  0  0
  3  8  1  0  0  0  0
  4 37  1  6  0  0  0
  5 18  1  0  0  0  0
  6 21  1  0  0  0  0
  7 20  1  0  0  0  0
  7  3  2  0  0  0  0
  8  6  2  0  0  0  0
  9  5  1  6  0  0  0
  9  7  1  0  0  0  0
 10  6  1  0  0  0  0
 11  4  1  0  0  0  0
 12  8  1  0  0  0  0
 12 16  1  0  0  0  0
 13 23  1  0  0  0  0
 14 19  1  0  0  0  0
 15 10  1  0  0  0  0
 16 13  1  0  0  0  0
 17 11  1  0  0  0  0
 18 24  1  0  0  0  0
 19  3  1  0  0  0  0
 19 15  2  0  0  0  0
 20 12  2  0  0  0  0
 21  2  1  0  0  0  0
 22 28  1  6  0  0  0
 22  9  1  0  0  0  0
 22 26  1  0  0  0  0
 23  2  1  0  0  0  0
 24 34  1  6  0  0  0
 24 17  1  0  0  0  0
 24 25  1  0  0  0  0
 25 20  1  0  0  0  0
 25  1  1  1  0  0  0
 26 14  1  0  0  0  0
 27 28  1  0  0  0  0
 29 28  2  0  0  0  0
 30 32  1  0  0  0  0
 31 32  2  0  0  0  0
 31 33  1  0  0  0  0
 32 29  1  0  0  0  0
 33 27  2  0  0  0  0
 35 34  1  0  0  0  0
 36 37  1  0  0  0  0
M  END
>  <MODEL>
9

>  <REMARK>
 VINA RESULT:      -7.0      2.579      5.380
  Name = 
  3 active torsions:
  status: ('A' for Active; 'I' for Inactive)
    1  A    between atoms: C_5  and  O_23
    2  A    between atoms: C_6  and  C_31
    3  A    between atoms: C_11  and  C_33
                            x       y       z     vdW  Elec       q    Type
                         _______ _______ _______ _____ _____    ______ ____

>  <TORSDO>
F 3

$$$$
