=
 OpenBabel10272415293D

 34 37  0  0  1  0  0  0  0  0999 V2000
  183.4390  178.3830  139.7340 C   0  0  1  0  0  0  0  0  0  0  0  0
  182.0820  175.3610  138.3810 C   0  0  0  0  0  2  0  0  0  0  0  0
  181.2620  177.6080  139.0150 C   0  0  1  0  0  3  0  0  0  0  0  0
  184.4760  179.4790  139.4700 C   0  0  0  0  0  1  0  0  0  0  0  0
  181.9950  178.8490  139.5090 C   0  0  2  0  0  3  0  0  0  0  0  0
  182.5020  174.7030  137.0700 C   0  0  0  0  0  2  0  0  0  0  0  0
  183.9690  174.9710  136.6820 C   0  0  1  0  0  3  0  0  0  0  0  0
  184.3330  176.4420  136.4470 C   0  0  0  0  0  2  0  0  0  0  0  0
  182.2590  176.8110  138.2810 N   0  0  1  0  0  0  0  0  0  0  0  0
  184.6340  177.2470  137.7210 C   0  0  0  0  0  2  0  0  0  0  0  0
  183.5720  177.1320  138.8330 C   0  0  1  0  0  3  0  0  0  0  0  0
  185.0880  174.0870  137.2660 C   0  0  0  0  0  3  0  0  0  0  0  0
  184.5880  172.6800  137.5420 C   0  0  0  0  0  2  0  0  0  0  0  0
  185.4990  172.9370  136.3610 C   0  0  0  0  0  2  0  0  0  0  0  0
  181.2850  179.6680  137.1800 C   0  0  0  0  0  1  0  0  0  0  0  0
  181.8080  180.0510  138.5580 C   0  0  0  0  0  3  0  0  0  0  0  0
  180.8900  181.0860  139.1800 C   0  0  0  0  0  1  0  0  0  0  0  0
  180.6480  176.9160  140.1690 C   0  0  0  0  0  0  0  0  0  0  0  0
  180.1390  176.3480  141.1050 C   0  0  0  0  0  3  0  0  0  0  0  0
  183.5450  177.9980  141.2150 C   0  0  0  0  0  2  0  0  0  0  0  0
  183.3900  179.1370  142.1150 N   0  0  0  0  0  0  0  0  0  0  0  0
  184.7210  179.3810  142.6530 C   0  0  0  0  0  2  0  0  0  0  0  0
  187.5960  177.2040  144.8340 C   0  0  2  0  0  3  0  0  0  0  0  0
  187.2800  176.7350  143.4780 N   0  0  0  0  0  2  0  0  0  0  0  0
  186.6370  177.8020  142.7070 C   0  0  0  0  0  2  0  0  0  0  0  0
  185.3740  178.3460  144.7970 C   0  0  0  0  0  3  0  0  0  0  0  0
  185.2660  178.1250  143.3100 C   0  0  1  0  0  3  0  0  0  0  0  0
  186.4350  177.9200  145.4930 C   0  0  0  0  0  3  0  0  0  0  0  0
  188.9030  178.0020  144.8830 C   0  0  0  0  0  2  0  0  0  0  0  0
  189.8330  177.0130  146.7870 C   0  0  0  0  0  1  0  0  0  0  0  0
  190.0130  177.1870  145.3580 N   0  0  0  0  0  2  0  0  0  0  0  0
  182.5530  178.7050  143.2270 C   0  0  0  0  0  2  0  0  0  0  0  0
  180.2050  178.6000  144.0400 C   0  0  0  0  0  1  0  0  0  0  0  0
  181.1550  179.2870  143.0830 C   0  0  0  0  0  2  0  0  0  0  0  0
  1  4  1  6  0  0  0
  1 20  1  0  0  0  0
  3  5  1  0  0  0  0
  3 18  1  1  0  0  0
  5 16  1  6  0  0  0
  5  1  1  0  0  0  0
  6  2  1  0  0  0  0
  7  6  1  0  0  0  0
  7 12  1  1  0  0  0
  8  7  1  0  0  0  0
  8 10  1  0  0  0  0
  9  2  1  1  0  0  0
  9 11  1  0  0  0  0
  9  3  1  0  0  0  0
 11 10  1  6  0  0  0
 11  1  1  0  0  0  0
 12 13  1  0  0  0  0
 14 12  1  0  0  0  0
 14 13  1  0  0  0  0
 15 16  1  0  0  0  0
 16 17  1  0  0  0  0
 18 19  3  0  0  0  0
 20 21  1  0  0  0  0
 21 22  1  0  0  0  0
 21 32  1  0  0  0  0
 23 29  1  6  0  0  0
 23 28  1  0  0  0  0
 24 23  1  0  0  0  0
 25 27  1  0  0  0  0
 25 24  1  0  0  0  0
 26 28  2  0  0  0  0
 27 22  1  6  0  0  0
 27 26  1  0  0  0  0
 29 31  1  0  0  0  0
 31 30  1  0  0  0  0
 34 32  1  0  0  0  0
 34 33  1  0  0  0  0
M  END
>  <MODEL>
1

>  <REMARK>
 VINA RESULT:      -6.0      0.000      0.000
  Name = 
  11 active torsions:
  status: ('A' for Active; 'I' for Inactive)
    1  A    between atoms: C_1  and  C_8
    2  A    between atoms: C_3  and  C_25
    3  A    between atoms: C_5  and  C_19
    4  A    between atoms: C_6  and  N_18
    5  A    between atoms: C_6  and  C_28
    6  A    between atoms: C_7  and  C_11
    7  A    between atoms: C_8  and  N_18
    8  A    between atoms: C_11  and  N_21
    9  A    between atoms: C_12  and  C_20
   10  A    between atoms: N_18  and  C_30
   11  A    between atoms: C_30  and  C_31
                            x       y       z     vdW  Elec       q    Type
                         _______ _______ _______ _____ _____    ______ ____

>  <TORSDO>
F 11

$$$$
=
 OpenBabel10272415293D

 34 37  0  0  1  0  0  0  0  0999 V2000
  183.3410  178.3410  139.5280 C   0  0  1  0  0  0  0  0  0  0  0  0
  182.4350  175.3000  137.8740 C   0  0  0  0  0  2  0  0  0  0  0  0
  181.3800  177.4750  138.4030 C   0  0  1  0  0  3  0  0  0  0  0  0
  184.3400  179.5000  139.4850 C   0  0  0  0  0  1  0  0  0  0  0  0
  181.9350  178.7350  139.0540 C   0  0  2  0  0  3  0  0  0  0  0  0
  183.1230  174.7130  136.6460 C   0  0  0  0  0  2  0  0  0  0  0  0
  184.6170  175.0740  136.5390 C   0  0  1  0  0  3  0  0  0  0  0  0
  184.9290  176.5700  136.4110 C   0  0  0  0  0  2  0  0  0  0  0  0
  182.5400  176.7600  137.8440 N   0  0  1  0  0  0  0  0  0  0  0  0
  184.9460  177.3440  137.7390 C   0  0  0  0  0  2  0  0  0  0  0  0
  183.7090  177.1320  138.6340 C   0  0  1  0  0  3  0  0  0  0  0  0
  185.6640  174.2320  137.2950 C   0  0  0  0  0  3  0  0  0  0  0  0
  185.2280  172.7810  137.4000 C   0  0  0  0  0  2  0  0  0  0  0  0
  186.3320  173.1680  136.4390 C   0  0  0  0  0  2  0  0  0  0  0  0
  181.1540  179.6720  136.7930 C   0  0  0  0  0  1  0  0  0  0  0  0
  181.8520  179.9590  138.1160 C   0  0  0  0  0  3  0  0  0  0  0  0
  181.1660  181.1190  138.8110 C   0  0  0  0  0  1  0  0  0  0  0  0
  180.6100  176.7100  139.4080 C   0  0  0  0  0  0  0  0  0  0  0  0
  179.9900  176.0840  140.2330 C   0  0  0  0  0  3  0  0  0  0  0  0
  183.1990  177.9090  140.9930 C   0  0  0  0  0  2  0  0  0  0  0  0
  183.9880  178.7280  141.9090 N   0  0  0  0  0  0  0  0  0  0  0  0
  184.7900  177.7820  142.6720 C   0  0  0  0  0  2  0  0  0  0  0  0
  188.9810  177.6420  143.0950 C   0  0  2  0  0  3  0  0  0  0  0  0
  188.1930  177.9720  144.2910 N   0  0  0  0  0  2  0  0  0  0  0  0
  186.8000  177.5540  144.1130 C   0  0  0  0  0  2  0  0  0  0  0  0
  187.0030  178.3930  141.7650 C   0  0  0  0  0  3  0  0  0  0  0  0
  186.1450  178.3830  143.0040 C   0  0  1  0  0  3  0  0  0  0  0  0
  188.3000  178.0600  141.8090 C   0  0  0  0  0  3  0  0  0  0  0  0
  189.4410  176.1800  143.0880 C   0  0  0  0  0  2  0  0  0  0  0  0
  191.5420  177.1400  143.4540 C   0  0  0  0  0  1  0  0  0  0  0  0
  190.8560  176.0630  142.7650 N   0  0  0  0  0  2  0  0  0  0  0  0
  183.0610  179.3540  142.8430 C   0  0  0  0  0  2  0  0  0  0  0  0
  180.6010  179.7080  142.7440 C   0  0  0  0  0  1  0  0  0  0  0  0
  181.7040  178.6710  142.7670 C   0  0  0  0  0  2  0  0  0  0  0  0
  1  4  1  6  0  0  0
  1 20  1  0  0  0  0
  3  5  1  0  0  0  0
  3 18  1  1  0  0  0
  5 16  1  6  0  0  0
  5  1  1  0  0  0  0
  6  2  1  0  0  0  0
  7  6  1  0  0  0  0
  7 12  1  1  0  0  0
  8  7  1  0  0  0  0
  8 10  1  0  0  0  0
  9  2  1  1  0  0  0
  9  3  1  0  0  0  0
  9 11  1  0  0  0  0
 11 10  1  6  0  0  0
 11  1  1  0  0  0  0
 12 13  1  0  0  0  0
 14 12  1  0  0  0  0
 14 13  1  0  0  0  0
 15 16  1  0  0  0  0
 16 17  1  0  0  0  0
 18 19  3  0  0  0  0
 20 21  1  0  0  0  0
 21 22  1  0  0  0  0
 21 32  1  0  0  0  0
 23 29  1  6  0  0  0
 23 24  1  0  0  0  0
 25 24  1  0  0  0  0
 26 28  2  0  0  0  0
 26 27  1  0  0  0  0
 27 22  1  6  0  0  0
 27 25  1  0  0  0  0
 28 23  1  0  0  0  0
 31 29  1  0  0  0  0
 31 30  1  0  0  0  0
 33 34  1  0  0  0  0
 34 32  1  0  0  0  0
M  END
>  <MODEL>
2

>  <REMARK>
 VINA RESULT:      -5.7      1.198      1.573
  Name = 
  11 active torsions:
  status: ('A' for Active; 'I' for Inactive)
    1  A    between atoms: C_1  and  C_8
    2  A    between atoms: C_3  and  C_25
    3  A    between atoms: C_5  and  C_19
    4  A    between atoms: C_6  and  N_18
    5  A    between atoms: C_6  and  C_28
    6  A    between atoms: C_7  and  C_11
    7  A    between atoms: C_8  and  N_18
    8  A    between atoms: C_11  and  N_21
    9  A    between atoms: C_12  and  C_20
   10  A    between atoms: N_18  and  C_30
   11  A    between atoms: C_30  and  C_31
                            x       y       z     vdW  Elec       q    Type
                         _______ _______ _______ _____ _____    ______ ____

>  <TORSDO>
F 11

$$$$
=
 OpenBabel10272415293D

 34 37  0  0  1  0  0  0  0  0999 V2000
  189.2740  176.9400  137.7810 C   0  0  1  0  0  0  0  0  0  0  0  0
  190.3190  173.7020  136.6720 C   0  0  0  0  0  2  0  0  0  0  0  0
  188.4820  175.2910  136.1960 C   0  0  1  0  0  3  0  0  0  0  0  0
  189.7260  178.4000  137.8760 C   0  0  0  0  0  1  0  0  0  0  0  0
  188.2130  176.7040  136.6980 C   0  0  2  0  0  3  0  0  0  0  0  0
  191.6520  173.3740  136.0080 C   0  0  0  0  0  2  0  0  0  0  0  0
  192.8050  174.3020  136.4370 C   0  0  1  0  0  3  0  0  0  0  0  0
  192.6210  175.7860  136.0970 C   0  0  0  0  0  2  0  0  0  0  0  0
  189.9320  175.0750  136.3440 N   0  0  1  0  0  0  0  0  0  0  0  0
  191.7560  176.5760  137.0920 C   0  0  0  0  0  2  0  0  0  0  0  0
  190.3960  175.9340  137.4290 C   0  0  1  0  0  3  0  0  0  0  0  0
  193.5890  174.0000  137.7290 C   0  0  0  0  0  3  0  0  0  0  0  0
  194.6410  172.9300  137.4960 C   0  0  0  0  0  2  0  0  0  0  0  0
  195.0610  174.3750  137.6570 C   0  0  0  0  0  2  0  0  0  0  0  0
  189.0260  177.3410  134.3460 C   0  0  0  0  0  1  0  0  0  0  0  0
  188.1750  177.7320  135.5470 C   0  0  0  0  0  3  0  0  0  0  0  0
  186.7480  177.9800  135.1000 C   0  0  0  0  0  1  0  0  0  0  0  0
  187.6370  174.3400  136.9500 C   0  0  0  0  0  0  0  0  0  0  0  0
  186.9400  173.5690  137.5640 C   0  0  0  0  0  3  0  0  0  0  0  0
  188.6180  176.5740  139.1180 C   0  0  0  0  0  2  0  0  0  0  0  0
  188.5510  177.6970  140.0490 N   0  0  0  0  0  0  0  0  0  0  0  0
  188.7070  177.1070  141.3710 C   0  0  0  0  0  2  0  0  0  0  0  0
  191.5230  177.3230  144.5000 C   0  0  2  0  0  3  0  0  0  0  0  0
  191.0520  178.5920  143.9270 N   0  0  0  0  0  2  0  0  0  0  0  0
  189.7960  178.3860  143.1990 C   0  0  0  0  0  2  0  0  0  0  0  0
  190.8060  176.2590  142.3550 C   0  0  0  0  0  3  0  0  0  0  0  0
  190.0440  177.5020  141.9740 C   0  0  1  0  0  3  0  0  0  0  0  0
  191.4860  176.1810  143.5060 C   0  0  0  0  0  3  0  0  0  0  0  0
  190.8300  176.9930  145.8260 C   0  0  0  0  0  2  0  0  0  0  0  0
  191.9400  175.6220  147.3610 C   0  0  0  0  0  1  0  0  0  0  0  0
  191.7690  176.9990  146.9400 N   0  0  0  0  0  2  0  0  0  0  0  0
  187.2000  178.2410  139.9810 C   0  0  0  0  0  2  0  0  0  0  0  0
  185.2860  179.0250  141.3620 C   0  0  0  0  0  1  0  0  0  0  0  0
  186.7750  178.7530  141.3490 C   0  0  0  0  0  2  0  0  0  0  0  0
  1  4  1  6  0  0  0
  1 20  1  0  0  0  0
  3  9  1  0  0  0  0
  3  5  1  0  0  0  0
  3 18  1  1  0  0  0
  5 16  1  6  0  0  0
  5  1  1  0  0  0  0
  6  7  1  0  0  0  0
  6  2  1  0  0  0  0
  7 12  1  1  0  0  0
  8  7  1  0  0  0  0
  8 10  1  0  0  0  0
  9  2  1  1  0  0  0
  9 11  1  0  0  0  0
 11 10  1  6  0  0  0
 11  1  1  0  0  0  0
 13 14  1  0  0  0  0
 13 12  1  0  0  0  0
 14 12  1  0  0  0  0
 15 16  1  0  0  0  0
 17 16  1  0  0  0  0
 18 19  3  0  0  0  0
 20 21  1  0  0  0  0
 21 22  1  0  0  0  0
 23 29  1  1  0  0  0
 24 23  1  0  0  0  0
 25 24  1  0  0  0  0
 26 28  2  0  0  0  0
 27 22  1  1  0  0  0
 27 26  1  0  0  0  0
 27 25  1  0  0  0  0
 28 23  1  0  0  0  0
 29 31  1  0  0  0  0
 31 30  1  0  0  0  0
 32 21  1  0  0  0  0
 32 34  1  0  0  0  0
 34 33  1  0  0  0  0
M  END
>  <MODEL>
3

>  <REMARK>
 VINA RESULT:      -5.3      4.933      6.861
  Name = 
  11 active torsions:
  status: ('A' for Active; 'I' for Inactive)
    1  A    between atoms: C_1  and  C_8
    2  A    between atoms: C_3  and  C_25
    3  A    between atoms: C_5  and  C_19
    4  A    between atoms: C_6  and  N_18
    5  A    between atoms: C_6  and  C_28
    6  A    between atoms: C_7  and  C_11
    7  A    between atoms: C_8  and  N_18
    8  A    between atoms: C_11  and  N_21
    9  A    between atoms: C_12  and  C_20
   10  A    between atoms: N_18  and  C_30
   11  A    between atoms: C_30  and  C_31
                            x       y       z     vdW  Elec       q    Type
                         _______ _______ _______ _____ _____    ______ ____

>  <TORSDO>
F 11

$$$$
=
 OpenBabel10272415293D

 34 37  0  0  1  0  0  0  0  0999 V2000
  182.5620  177.7540  139.7650 C   0  0  1  0  0  0  0  0  0  0  0  0
  185.7390  178.9110  140.9370 C   0  0  0  0  0  2  0  0  0  0  0  0
  184.1930  179.4000  139.0670 C   0  0  1  0  0  3  0  0  0  0  0  0
  181.0930  177.6100  140.1700 C   0  0  0  0  0  1  0  0  0  0  0  0
  182.8020  178.8720  138.7420 C   0  0  2  0  0  3  0  0  0  0  0  0
  186.0110  179.5450  142.2970 C   0  0  0  0  0  2  0  0  0  0  0  0
  185.0610  179.0620  143.4090 C   0  0  1  0  0  3  0  0  0  0  0  0
  183.5740  179.3710  143.1910 C   0  0  0  0  0  2  0  0  0  0  0  0
  184.3700  179.2170  140.5180 N   0  0  1  0  0  0  0  0  0  0  0  0
  182.8360  178.3810  142.2750 C   0  0  0  0  0  2  0  0  0  0  0  0
  183.5260  178.0990  140.9260 C   0  0  1  0  0  3  0  0  0  0  0  0
  185.3720  177.7560  144.1670 C   0  0  0  0  0  3  0  0  0  0  0  0
  186.8690  177.5550  144.3220 C   0  0  0  0  0  2  0  0  0  0  0  0
  186.0380  177.9720  145.5160 C   0  0  0  0  0  2  0  0  0  0  0  0
  182.3440  181.3990  138.6870 C   0  0  0  0  0  1  0  0  0  0  0  0
  181.7460  179.9980  138.7040 C   0  0  0  0  0  3  0  0  0  0  0  0
  180.8230  179.8250  137.5140 C   0  0  0  0  0  1  0  0  0  0  0  0
  185.1880  178.6940  138.2310 C   0  0  0  0  0  0  0  0  0  0  0  0
  185.9990  178.1250  137.5420 C   0  0  0  0  0  3  0  0  0  0  0  0
  182.9810  176.4450  139.0840 C   0  0  0  0  0  2  0  0  0  0  0  0
  182.1290  176.0910  137.9520 N   0  0  0  0  0  0  0  0  0  0  0  0
  182.1080  174.6360  137.9300 C   0  0  0  0  0  2  0  0  0  0  0  0
  183.7900  171.5750  135.5700 C   0  0  2  0  0  3  0  0  0  0  0  0
  184.7180  172.4610  136.2880 N   0  0  0  0  0  2  0  0  0  0  0  0
  184.0210  173.1520  137.3770 C   0  0  0  0  0  2  0  0  0  0  0  0
  182.1050  173.4080  135.7880 C   0  0  0  0  0  3  0  0  0  0  0  0
  182.9760  174.1100  136.7990 C   0  0  1  0  0  3  0  0  0  0  0  0
  182.4810  172.2530  135.2230 C   0  0  0  0  0  3  0  0  0  0  0  0
  183.6050  170.2300  136.2800 C   0  0  0  0  0  2  0  0  0  0  0  0
  183.5460  168.0560  135.4200 C   0  0  0  0  0  1  0  0  0  0  0  0
  182.8110  169.3060  135.4820 N   0  0  0  0  0  2  0  0  0  0  0  0
  182.8110  176.5270  136.7400 C   0  0  0  0  0  2  0  0  0  0  0  0
  182.5160  177.7390  134.5870 C   0  0  0  0  0  1  0  0  0  0  0  0
  181.8000  177.0620  135.7370 C   0  0  0  0  0  2  0  0  0  0  0  0
  1  4  1  1  0  0  0
  1 11  1  0  0  0  0
  2  6  1  0  0  0  0
  3 18  1  6  0  0  0
  3  9  1  0  0  0  0
  5 16  1  1  0  0  0
  5  3  1  0  0  0  0
  5  1  1  0  0  0  0
  6  7  1  0  0  0  0
  7 12  1  6  0  0  0
  8  7  1  0  0  0  0
  9 11  1  0  0  0  0
  9  2  1  6  0  0  0
 10  8  1  0  0  0  0
 11 10  1  1  0  0  0
 12 13  1  0  0  0  0
 12 14  1  0  0  0  0
 13 14  1  0  0  0  0
 15 16  1  0  0  0  0
 17 16  1  0  0  0  0
 19 18  3  0  0  0  0
 20  1  1  0  0  0  0
 21 20  1  0  0  0  0
 22 21  1  0  0  0  0
 23 29  1  1  0  0  0
 23 24  1  0  0  0  0
 24 25  1  0  0  0  0
 26 27  1  0  0  0  0
 27 25  1  0  0  0  0
 27 22  1  1  0  0  0
 28 23  1  0  0  0  0
 28 26  2  0  0  0  0
 30 31  1  0  0  0  0
 31 29  1  0  0  0  0
 32 21  1  0  0  0  0
 33 34  1  0  0  0  0
 34 32  1  0  0  0  0
M  END
>  <MODEL>
4

>  <REMARK>
 VINA RESULT:      -4.8      2.393      7.921
  Name = 
  11 active torsions:
  status: ('A' for Active; 'I' for Inactive)
    1  A    between atoms: C_1  and  C_8
    2  A    between atoms: C_3  and  C_25
    3  A    between atoms: C_5  and  C_19
    4  A    between atoms: C_6  and  N_18
    5  A    between atoms: C_6  and  C_28
    6  A    between atoms: C_7  and  C_11
    7  A    between atoms: C_8  and  N_18
    8  A    between atoms: C_11  and  N_21
    9  A    between atoms: C_12  and  C_20
   10  A    between atoms: N_18  and  C_30
   11  A    between atoms: C_30  and  C_31
                            x       y       z     vdW  Elec       q    Type
                         _______ _______ _______ _____ _____    ______ ____

>  <TORSDO>
F 11

$$$$
=
 OpenBabel10272415293D

 34 37  0  0  1  0  0  0  0  0999 V2000
  189.8270  175.6420  137.4590 C   0  0  1  0  0  0  0  0  0  0  0  0
  186.5630  175.7810  135.9970 C   0  0  0  0  0  2  0  0  0  0  0  0
  188.7940  176.7670  135.5810 C   0  0  1  0  0  3  0  0  0  0  0  0
  190.9650  174.6790  137.8090 C   0  0  0  0  0  1  0  0  0  0  0  0
  190.1420  176.5390  136.2550 C   0  0  2  0  0  3  0  0  0  0  0  0
  185.7910  174.5960  135.4250 C   0  0  0  0  0  2  0  0  0  0  0  0
  186.1310  173.2500  136.0940 C   0  0  1  0  0  3  0  0  0  0  0  0
  187.5890  172.7930  135.9580 C   0  0  0  0  0  2  0  0  0  0  0  0
  188.0000  175.5530  135.8360 N   0  0  1  0  0  0  0  0  0  0  0  0
  188.5610  173.4220  136.9690 C   0  0  0  0  0  2  0  0  0  0  0  0
  188.4930  174.9580  137.0750 C   0  0  1  0  0  3  0  0  0  0  0  0
  185.4180  172.8430  137.3990 C   0  0  0  0  0  3  0  0  0  0  0  0
  184.0710  173.5320  137.5250 C   0  0  0  0  0  2  0  0  0  0  0  0
  184.1340  172.0600  137.1790 C   0  0  0  0  0  2  0  0  0  0  0  0
  192.5420  175.6900  135.9180 C   0  0  0  0  0  1  0  0  0  0  0  0
  191.2020  176.0070  135.2670 C   0  0  0  0  0  3  0  0  0  0  0  0
  190.6870  174.7790  134.5420 C   0  0  0  0  0  1  0  0  0  0  0  0
  188.1960  178.0150  136.1020 C   0  0  0  0  0  0  0  0  0  0  0  0
  187.7140  179.0390  136.5220 C   0  0  0  0  0  3  0  0  0  0  0  0
  189.6300  176.5770  138.6580 C   0  0  0  0  0  2  0  0  0  0  0  0
  190.6040  176.3540  139.7230 N   0  0  0  0  0  0  0  0  0  0  0  0
  189.8430  176.4450  140.9610 C   0  0  0  0  0  2  0  0  0  0  0  0
  190.7150  177.5570  144.9320 C   0  0  2  0  0  3  0  0  0  0  0  0
  190.4120  178.6360  143.9800 N   0  0  0  0  0  2  0  0  0  0  0  0
  189.7130  178.0980  142.8090 C   0  0  0  0  0  2  0  0  0  0  0  0
  191.2910  176.1610  142.9400 C   0  0  0  0  0  3  0  0  0  0  0  0
  190.6460  177.1720  142.0250 C   0  0  1  0  0  3  0  0  0  0  0  0
  191.3270  176.3420  144.2670 C   0  0  0  0  0  3  0  0  0  0  0  0
  189.5180  177.2190  145.8260 C   0  0  0  0  0  2  0  0  0  0  0  0
  188.7340  177.8420  147.9390 C   0  0  0  0  0  1  0  0  0  0  0  0
  189.8690  177.2720  147.2380 N   0  0  0  0  0  2  0  0  0  0  0  0
  191.5320  177.4770  139.7090 C   0  0  0  0  0  2  0  0  0  0  0  0
  193.9240  177.0250  140.2230 C   0  0  0  0  0  1  0  0  0  0  0  0
  192.8720  177.0400  139.1350 C   0  0  0  0  0  2  0  0  0  0  0  0
  1  4  1  1  0  0  0
  1 20  1  0  0  0  0
  3  9  1  0  0  0  0
  3 18  1  1  0  0  0
  3  5  1  0  0  0  0
  5 16  1  6  0  0  0
  5  1  1  0  0  0  0
  6  2  1  0  0  0  0
  6  7  1  0  0  0  0
  7 12  1  1  0  0  0
  8  7  1  0  0  0  0
  8 10  1  0  0  0  0
  9  2  1  1  0  0  0
  9 11  1  0  0  0  0
 11 10  1  6  0  0  0
 11  1  1  0  0  0  0
 12 13  1  0  0  0  0
 14 12  1  0  0  0  0
 14 13  1  0  0  0  0
 16 15  1  0  0  0  0
 17 16  1  0  0  0  0
 18 19  3  0  0  0  0
 20 21  1  0  0  0  0
 21 22  1  0  0  0  0
 23 29  1  6  0  0  0
 24 23  1  0  0  0  0
 25 24  1  0  0  0  0
 26 28  2  0  0  0  0
 27 22  1  6  0  0  0
 27 25  1  0  0  0  0
 27 26  1  0  0  0  0
 28 23  1  0  0  0  0
 29 31  1  0  0  0  0
 31 30  1  0  0  0  0
 32 21  1  0  0  0  0
 34 32  1  0  0  0  0
 34 33  1  0  0  0  0
M  END
>  <MODEL>
5

>  <REMARK>
 VINA RESULT:      -4.3      4.882      7.239
  Name = 
  11 active torsions:
  status: ('A' for Active; 'I' for Inactive)
    1  A    between atoms: C_1  and  C_8
    2  A    between atoms: C_3  and  C_25
    3  A    between atoms: C_5  and  C_19
    4  A    between atoms: C_6  and  N_18
    5  A    between atoms: C_6  and  C_28
    6  A    between atoms: C_7  and  C_11
    7  A    between atoms: C_8  and  N_18
    8  A    between atoms: C_11  and  N_21
    9  A    between atoms: C_12  and  C_20
   10  A    between atoms: N_18  and  C_30
   11  A    between atoms: C_30  and  C_31
                            x       y       z     vdW  Elec       q    Type
                         _______ _______ _______ _____ _____    ______ ____

>  <TORSDO>
F 11

$$$$
=
 OpenBabel10272415293D

 34 37  0  0  1  0  0  0  0  0999 V2000
  189.6240  175.3720  137.4900 C   0  0  1  0  0  0  0  0  0  0  0  0
  186.8920  175.3840  135.1780 C   0  0  0  0  0  2  0  0  0  0  0  0
  189.0490  176.5640  135.4620 C   0  0  1  0  0  3  0  0  0  0  0  0
  190.7060  174.4720  138.0920 C   0  0  0  0  0  1  0  0  0  0  0  0
  190.1730  176.3840  136.4750 C   0  0  2  0  0  3  0  0  0  0  0  0
  186.4220  174.1950  134.3460 C   0  0  0  0  0  2  0  0  0  0  0  0
  186.6880  172.8300  135.0090 C   0  0  1  0  0  3  0  0  0  0  0  0
  188.1630  172.4940  135.2630 C   0  0  0  0  0  2  0  0  0  0  0  0
  188.3330  175.2770  135.4150 N   0  0  1  0  0  0  0  0  0  0  0  0
  188.7560  173.1100  136.5400 C   0  0  0  0  0  2  0  0  0  0  0  0
  188.5170  174.6240  136.7080 C   0  0  1  0  0  3  0  0  0  0  0  0
  185.6840  172.2680  136.0350 C   0  0  0  0  0  3  0  0  0  0  0  0
  184.2620  172.3420  135.5080 C   0  0  0  0  0  2  0  0  0  0  0  0
  184.9730  171.0070  135.5720 C   0  0  0  0  0  2  0  0  0  0  0  0
  191.6090  176.4590  134.3460 C   0  0  0  0  0  1  0  0  0  0  0  0
  191.5100  176.0110  135.7980 C   0  0  0  0  0  3  0  0  0  0  0  0
  192.6800  176.5720  136.5840 C   0  0  0  0  0  1  0  0  0  0  0  0
  188.2170  177.7190  135.8620 C   0  0  0  0  0  0  0  0  0  0  0  0
  187.5450  178.6660  136.1930 C   0  0  0  0  0  3  0  0  0  0  0  0
  189.0180  176.1930  138.6350 C   0  0  0  0  0  2  0  0  0  0  0  0
  189.9760  177.1020  139.2560 N   0  0  0  0  0  0  0  0  0  0  0  0
  190.3490  176.4640  140.5110 C   0  0  0  0  0  2  0  0  0  0  0  0
  191.0460  177.7680  144.4580 C   0  0  2  0  0  3  0  0  0  0  0  0
  189.6480  177.5780  144.0470 N   0  0  0  0  0  2  0  0  0  0  0  0
  189.5790  176.7250  142.8570 C   0  0  0  0  0  2  0  0  0  0  0  0
  191.5780  177.9770  142.0250 C   0  0  0  0  0  3  0  0  0  0  0  0
  190.2150  177.4430  141.6640 C   0  0  1  0  0  3  0  0  0  0  0  0
  191.9540  178.1310  143.3010 C   0  0  0  0  0  3  0  0  0  0  0  0
  191.5710  176.5950  145.2920 C   0  0  0  0  0  2  0  0  0  0  0  0
  191.9440  175.7930  147.4570 C   0  0  0  0  0  1  0  0  0  0  0  0
  191.0830  176.6490  146.6630 N   0  0  0  0  0  2  0  0  0  0  0  0
  189.2600  178.3250  139.5960 C   0  0  0  0  0  2  0  0  0  0  0  0
  187.1020  178.6440  140.7900 C   0  0  0  0  0  1  0  0  0  0  0  0
  187.7590  178.0820  139.5480 C   0  0  0  0  0  2  0  0  0  0  0  0
  1  4  1  1  0  0  0
  1 20  1  0  0  0  0
  3 18  1  1  0  0  0
  3  5  1  0  0  0  0
  5 16  1  6  0  0  0
  5  1  1  0  0  0  0
  6  7  1  0  0  0  0
  6  2  1  0  0  0  0
  7  8  1  0  0  0  0
  7 12  1  1  0  0  0
  8 10  1  0  0  0  0
  9  2  1  1  0  0  0
  9  3  1  0  0  0  0
  9 11  1  0  0  0  0
 11 10  1  6  0  0  0
 11  1  1  0  0  0  0
 13 14  1  0  0  0  0
 13 12  1  0  0  0  0
 14 12  1  0  0  0  0
 15 16  1  0  0  0  0
 16 17  1  0  0  0  0
 18 19  3  0  0  0  0
 20 21  1  0  0  0  0
 21 32  1  0  0  0  0
 21 22  1  0  0  0  0
 23 29  1  6  0  0  0
 24 23  1  0  0  0  0
 25 24  1  0  0  0  0
 26 28  2  0  0  0  0
 27 22  1  6  0  0  0
 27 26  1  0  0  0  0
 27 25  1  0  0  0  0
 28 23  1  0  0  0  0
 29 31  1  0  0  0  0
 31 30  1  0  0  0  0
 34 32  1  0  0  0  0
 34 33  1  0  0  0  0
M  END
>  <MODEL>
6

>  <REMARK>
 VINA RESULT:      -4.2      4.616      6.754
  Name = 
  11 active torsions:
  status: ('A' for Active; 'I' for Inactive)
    1  A    between atoms: C_1  and  C_8
    2  A    between atoms: C_3  and  C_25
    3  A    between atoms: C_5  and  C_19
    4  A    between atoms: C_6  and  N_18
    5  A    between atoms: C_6  and  C_28
    6  A    between atoms: C_7  and  C_11
    7  A    between atoms: C_8  and  N_18
    8  A    between atoms: C_11  and  N_21
    9  A    between atoms: C_12  and  C_20
   10  A    between atoms: N_18  and  C_30
   11  A    between atoms: C_30  and  C_31
                            x       y       z     vdW  Elec       q    Type
                         _______ _______ _______ _____ _____    ______ ____

>  <TORSDO>
F 11

$$$$
=
 OpenBabel10272415293D

 34 37  0  0  1  0  0  0  0  0999 V2000
  188.6290  176.8450  138.5500 C   0  0  1  0  0  0  0  0  0  0  0  0
  185.8450  175.7140  136.6070 C   0  0  0  0  0  2  0  0  0  0  0  0
  186.9420  177.8660  137.1470 C   0  0  1  0  0  3  0  0  0  0  0  0
  190.1460  176.7060  138.7020 C   0  0  0  0  0  1  0  0  0  0  0  0
  188.2030  178.1870  137.9400 C   0  0  2  0  0  3  0  0  0  0  0  0
  185.9130  174.7400  135.4340 C   0  0  0  0  0  2  0  0  0  0  0  0
  187.0740  173.7320  135.5300 C   0  0  1  0  0  3  0  0  0  0  0  0
  188.4810  174.3410  135.5370 C   0  0  0  0  0  2  0  0  0  0  0  0
  187.0930  176.4750  136.6850 N   0  0  1  0  0  0  0  0  0  0  0  0
  188.9570  174.8570  136.9040 C   0  0  0  0  0  2  0  0  0  0  0  0
  187.9680  175.7900  137.6310 C   0  0  1  0  0  3  0  0  0  0  0  0
  186.8970  172.4380  136.3490 C   0  0  0  0  0  3  0  0  0  0  0  0
  185.6330  171.7010  135.9450 C   0  0  0  0  0  2  0  0  0  0  0  0
  186.9830  171.1680  135.5170 C   0  0  0  0  0  2  0  0  0  0  0  0
  189.3640  178.3770  135.6560 C   0  0  0  0  0  1  0  0  0  0  0  0
  189.2610  178.9100  137.0790 C   0  0  0  0  0  3  0  0  0  0  0  0
  188.9910  180.4020  137.0440 C   0  0  0  0  0  1  0  0  0  0  0  0
  185.7580  178.1050  138.0010 C   0  0  0  0  0  0  0  0  0  0  0  0
  184.7930  178.3110  138.6970 C   0  0  0  0  0  3  0  0  0  0  0  0
  188.0200  176.7960  139.9570 C   0  0  0  0  0  2  0  0  0  0  0  0
  188.6630  177.7160  140.8910 N   0  0  0  0  0  0  0  0  0  0  0  0
  188.8520  176.9480  142.1140 C   0  0  0  0  0  2  0  0  0  0  0  0
  191.6190  177.1110  145.2890 C   0  0  2  0  0  3  0  0  0  0  0  0
  191.3080  178.3710  144.6000 N   0  0  0  0  0  2  0  0  0  0  0  0
  190.0500  178.2480  143.8580 C   0  0  0  0  0  2  0  0  0  0  0  0
  190.8220  175.9550  143.2220 C   0  0  0  0  0  3  0  0  0  0  0  0
  190.2150  177.2400  142.7180 C   0  0  1  0  0  3  0  0  0  0  0  0
  191.4680  175.8990  144.3930 C   0  0  0  0  0  3  0  0  0  0  0  0
  190.8700  176.9760  146.6190 C   0  0  0  0  0  2  0  0  0  0  0  0
  192.4770  175.6790  147.7160 C   0  0  0  0  0  1  0  0  0  0  0  0
  191.7850  176.9540  147.7520 N   0  0  0  0  0  2  0  0  0  0  0  0
  187.7040  178.7710  141.1930 C   0  0  0  0  0  2  0  0  0  0  0  0
  185.4990  179.2320  142.2470 C   0  0  0  0  0  1  0  0  0  0  0  0
  186.6560  178.2600  142.1700 C   0  0  0  0  0  2  0  0  0  0  0  0
  1  4  1  1  0  0  0
  1 20  1  0  0  0  0
  3  5  1  0  0  0  0
  3 18  1  1  0  0  0
  5 16  1  6  0  0  0
  5  1  1  0  0  0  0
  6  7  1  0  0  0  0
  6  2  1  0  0  0  0
  7  8  1  0  0  0  0
  7 12  1  1  0  0  0
  8 10  1  0  0  0  0
  9  2  1  1  0  0  0
  9  3  1  0  0  0  0
  9 11  1  0  0  0  0
 11 10  1  6  0  0  0
 11  1  1  0  0  0  0
 13 12  1  0  0  0  0
 14 13  1  0  0  0  0
 14 12  1  0  0  0  0
 15 16  1  0  0  0  0
 17 16  1  0  0  0  0
 18 19  3  0  0  0  0
 20 21  1  0  0  0  0
 21 32  1  0  0  0  0
 21 22  1  0  0  0  0
 23 29  1  1  0  0  0
 24 23  1  0  0  0  0
 25 24  1  0  0  0  0
 26 28  2  0  0  0  0
 27 22  1  1  0  0  0
 27 26  1  0  0  0  0
 27 25  1  0  0  0  0
 28 23  1  0  0  0  0
 29 31  1  0  0  0  0
 30 31  1  0  0  0  0
 32 34  1  0  0  0  0
 34 33  1  0  0  0  0
M  END
>  <MODEL>
7

>  <REMARK>
 VINA RESULT:      -4.1      3.224      5.177
  Name = 
  11 active torsions:
  status: ('A' for Active; 'I' for Inactive)
    1  A    between atoms: C_1  and  C_8
    2  A    between atoms: C_3  and  C_25
    3  A    between atoms: C_5  and  C_19
    4  A    between atoms: C_6  and  N_18
    5  A    between atoms: C_6  and  C_28
    6  A    between atoms: C_7  and  C_11
    7  A    between atoms: C_8  and  N_18
    8  A    between atoms: C_11  and  N_21
    9  A    between atoms: C_12  and  C_20
   10  A    between atoms: N_18  and  C_30
   11  A    between atoms: C_30  and  C_31
                            x       y       z     vdW  Elec       q    Type
                         _______ _______ _______ _____ _____    ______ ____

>  <TORSDO>
F 11

$$$$
=
 OpenBabel10272415293D

 34 37  0  0  1  0  0  0  0  0999 V2000
  189.4460  175.1390  136.8880 C   0  0  1  0  0  0  0  0  0  0  0  0
  186.1650  175.2800  135.4660 C   0  0  0  0  0  2  0  0  0  0  0  0
  188.4380  176.0790  134.8990 C   0  0  1  0  0  3  0  0  0  0  0  0
  190.5380  174.1650  137.3400 C   0  0  0  0  0  1  0  0  0  0  0  0
  189.7840  175.8610  135.5770 C   0  0  2  0  0  3  0  0  0  0  0  0
  185.3180  174.0780  135.0570 C   0  0  0  0  0  2  0  0  0  0  0  0
  185.5990  172.8090  135.8850 C   0  0  1  0  0  3  0  0  0  0  0  0
  187.0260  172.2570  135.7870 C   0  0  0  0  0  2  0  0  0  0  0  0
  187.5840  174.9530  135.3150 N   0  0  1  0  0  0  0  0  0  0  0  0
  188.0520  172.9510  136.6980 C   0  0  0  0  0  2  0  0  0  0  0  0
  188.0690  174.4890  136.6110 C   0  0  1  0  0  3  0  0  0  0  0  0
  184.8920  172.6080  137.2400 C   0  0  0  0  0  3  0  0  0  0  0  0
  183.5130  173.2440  137.2390 C   0  0  0  0  0  2  0  0  0  0  0  0
  183.6480  171.7390  137.1610 C   0  0  0  0  0  2  0  0  0  0  0  0
  192.1420  175.8530  134.5580 C   0  0  0  0  0  1  0  0  0  0  0  0
  190.7940  175.1510  134.6500 C   0  0  0  0  0  3  0  0  0  0  0  0
  190.9980  173.7130  135.0850 C   0  0  0  0  0  1  0  0  0  0  0  0
  187.9190  177.4140  135.2680 C   0  0  0  0  0  0  0  0  0  0  0  0
  187.5010  178.5040  135.5780 C   0  0  0  0  0  3  0  0  0  0  0  0
  189.3260  176.2260  137.9640 C   0  0  0  0  0  2  0  0  0  0  0  0
  190.5120  176.3290  138.8080 N   0  0  0  0  0  0  0  0  0  0  0  0
  190.1790  177.3260  139.8150 C   0  0  0  0  0  2  0  0  0  0  0  0
  188.5490  177.0820  143.6940 C   0  0  2  0  0  3  0  0  0  0  0  0
  189.2530  175.8980  143.1820 N   0  0  0  0  0  2  0  0  0  0  0  0
  190.1210  176.2680  142.0610 C   0  0  0  0  0  2  0  0  0  0  0  0
  188.2600  177.7600  141.3070 C   0  0  0  0  0  3  0  0  0  0  0  0
  189.2690  176.7270  140.8740 C   0  0  1  0  0  3  0  0  0  0  0  0
  187.9270  177.9170  142.5940 C   0  0  0  0  0  3  0  0  0  0  0  0
  189.4140  177.9000  144.6580 C   0  0  0  0  0  2  0  0  0  0  0  0
  189.5120  177.0420  146.8320 C   0  0  0  0  0  1  0  0  0  0  0  0
  188.8120  177.9860  145.9810 N   0  0  0  0  0  2  0  0  0  0  0  0
  191.5820  176.8880  137.9920 C   0  0  0  0  0  2  0  0  0  0  0  0
  193.7410  175.6630  137.8330 C   0  0  0  0  0  1  0  0  0  0  0  0
  192.9290  176.6410  138.6550 C   0  0  0  0  0  2  0  0  0  0  0  0
  1  4  1  1  0  0  0
  1 20  1  0  0  0  0
  3 18  1  1  0  0  0
  3  9  1  0  0  0  0
  3  5  1  0  0  0  0
  5 16  1  6  0  0  0
  5  1  1  0  0  0  0
  6  2  1  0  0  0  0
  6  7  1  0  0  0  0
  7 12  1  1  0  0  0
  8  7  1  0  0  0  0
  8 10  1  0  0  0  0
  9  2  1  1  0  0  0
  9 11  1  0  0  0  0
 11 10  1  6  0  0  0
 11  1  1  0  0  0  0
 13 12  1  0  0  0  0
 14 13  1  0  0  0  0
 14 12  1  0  0  0  0
 15 16  1  0  0  0  0
 16 17  1  0  0  0  0
 18 19  3  0  0  0  0
 20 21  1  0  0  0  0
 21 22  1  0  0  0  0
 23 29  1  6  0  0  0
 24 23  1  0  0  0  0
 25 24  1  0  0  0  0
 26 28  2  0  0  0  0
 27 22  1  6  0  0  0
 27 26  1  0  0  0  0
 27 25  1  0  0  0  0
 28 23  1  0  0  0  0
 29 31  1  0  0  0  0
 31 30  1  0  0  0  0
 32 34  1  0  0  0  0
 32 21  1  0  0  0  0
 33 34  1  0  0  0  0
M  END
>  <MODEL>
8

>  <REMARK>
 VINA RESULT:      -3.8      4.471      7.296
  Name = 
  11 active torsions:
  status: ('A' for Active; 'I' for Inactive)
    1  A    between atoms: C_1  and  C_8
    2  A    between atoms: C_3  and  C_25
    3  A    between atoms: C_5  and  C_19
    4  A    between atoms: C_6  and  N_18
    5  A    between atoms: C_6  and  C_28
    6  A    between atoms: C_7  and  C_11
    7  A    between atoms: C_8  and  N_18
    8  A    between atoms: C_11  and  N_21
    9  A    between atoms: C_12  and  C_20
   10  A    between atoms: N_18  and  C_30
   11  A    between atoms: C_30  and  C_31
                            x       y       z     vdW  Elec       q    Type
                         _______ _______ _______ _____ _____    ______ ____

>  <TORSDO>
F 11

$$$$
=
 OpenBabel10272415293D

 34 37  0  0  1  0  0  0  0  0999 V2000
  186.2430  175.8000  136.3600 C   0  0  1  0  0  0  0  0  0  0  0  0
  185.3550  178.2230  138.8400 C   0  0  0  0  0  2  0  0  0  0  0  0
  187.1900  177.8560  137.2190 C   0  0  1  0  0  3  0  0  0  0  0  0
  185.7550  175.1480  135.0640 C   0  0  0  0  0  1  0  0  0  0  0  0
  187.3900  176.7970  136.1420 C   0  0  2  0  0  3  0  0  0  0  0  0
  184.0840  179.0670  138.8480 C   0  0  0  0  0  2  0  0  0  0  0  0
  182.8830  178.3860  138.1640 C   0  0  1  0  0  3  0  0  0  0  0  0
  183.0610  178.0690  136.6740 C   0  0  0  0  0  2  0  0  0  0  0  0
  185.7380  177.9250  137.4580 N   0  0  1  0  0  0  0  0  0  0  0  0
  183.8300  176.7720  136.3760 C   0  0  0  0  0  2  0  0  0  0  0  0
  185.1730  176.6230  137.1170 C   0  0  1  0  0  3  0  0  0  0  0  0
  182.0070  177.4000  138.9610 C   0  0  0  0  0  3  0  0  0  0  0  0
  181.9390  177.7880  140.4280 C   0  0  0  0  0  2  0  0  0  0  0  0
  180.7420  178.0220  139.5310 C   0  0  0  0  0  2  0  0  0  0  0  0
  186.7370  178.7270  134.5780 C   0  0  0  0  0  1  0  0  0  0  0  0
  187.4950  177.4160  134.7310 C   0  0  0  0  0  3  0  0  0  0  0  0
  188.9470  177.6200  134.3460 C   0  0  0  0  0  1  0  0  0  0  0  0
  187.9930  177.4970  138.4080 C   0  0  0  0  0  0  0  0  0  0  0  0
  188.6560  177.2110  139.3750 C   0  0  0  0  0  3  0  0  0  0  0  0
  186.8020  174.6850  137.2530 C   0  0  0  0  0  2  0  0  0  0  0  0
  186.5290  173.3480  136.7360 N   0  0  0  0  0  0  0  0  0  0  0  0
  185.3790  172.8730  137.4910 C   0  0  0  0  0  2  0  0  0  0  0  0
  182.0060  171.6720  135.2660 C   0  0  2  0  0  3  0  0  0  0  0  0
  182.3450  170.8820  136.4590 N   0  0  0  0  0  2  0  0  0  0  0  0
  183.2220  171.6510  137.3460 C   0  0  0  0  0  2  0  0  0  0  0  0
  184.3880  172.4290  135.2740 C   0  0  0  0  0  3  0  0  0  0  0  0
  184.5740  171.8830  136.6670 C   0  0  1  0  0  3  0  0  0  0  0  0
  183.2160  172.3270  134.6340 C   0  0  0  0  0  3  0  0  0  0  0  0
  180.8560  172.6510  135.5250 C   0  0  0  0  0  2  0  0  0  0  0  0
  180.6810  174.7040  136.6300 C   0  0  0  0  0  1  0  0  0  0  0  0
  181.3120  174.0340  135.5090 N   0  0  0  0  0  2  0  0  0  0  0  0
  187.6580  172.5010  137.1000 C   0  0  0  0  0  2  0  0  0  0  0  0
  189.8880  173.4760  136.5880 C   0  0  0  0  0  1  0  0  0  0  0  0
  188.7580  172.6210  136.0560 C   0  0  0  0  0  2  0  0  0  0  0  0
  1  4  1  6  0  0  0
  1 11  1  0  0  0  0
  1 20  1  0  0  0  0
  2  6  1  0  0  0  0
  3  9  1  0  0  0  0
  3 18  1  1  0  0  0
  5 16  1  6  0  0  0
  5  1  1  0  0  0  0
  5  3  1  0  0  0  0
  7  6  1  0  0  0  0
  7 12  1  1  0  0  0
  8  7  1  0  0  0  0
  9  2  1  1  0  0  0
 10  8  1  0  0  0  0
 11 10  1  6  0  0  0
 11  9  1  0  0  0  0
 12 14  1  0  0  0  0
 12 13  1  0  0  0  0
 14 13  1  0  0  0  0
 15 16  1  0  0  0  0
 17 16  1  0  0  0  0
 18 19  3  0  0  0  0
 21 32  1  0  0  0  0
 21 20  1  0  0  0  0
 21 22  1  0  0  0  0
 23 29  1  1  0  0  0
 23 24  1  0  0  0  0
 24 25  1  0  0  0  0
 26 27  1  0  0  0  0
 27 25  1  0  0  0  0
 27 22  1  1  0  0  0
 28 23  1  0  0  0  0
 28 26  2  0  0  0  0
 31 29  1  0  0  0  0
 31 30  1  0  0  0  0
 34 33  1  0  0  0  0
 34 32  1  0  0  0  0
M  END
>  <MODEL>
9

>  <REMARK>
 VINA RESULT:      -3.8      3.816      8.671
  Name = 
  11 active torsions:
  status: ('A' for Active; 'I' for Inactive)
    1  A    between atoms: C_1  and  C_8
    2  A    between atoms: C_3  and  C_25
    3  A    between atoms: C_5  and  C_19
    4  A    between atoms: C_6  and  N_18
    5  A    between atoms: C_6  and  C_28
    6  A    between atoms: C_7  and  C_11
    7  A    between atoms: C_8  and  N_18
    8  A    between atoms: C_11  and  N_21
    9  A    between atoms: C_12  and  C_20
   10  A    between atoms: N_18  and  C_30
   11  A    between atoms: C_30  and  C_31
                            x       y       z     vdW  Elec       q    Type
                         _______ _______ _______ _____ _____    ______ ____

>  <TORSDO>
F 11

$$$$
