=
 OpenBabel10272413443D

 30 32  0  0  1  0  0  0  0  0999 V2000
  188.2360  177.3010  141.8300 N   0  0  2  0  0  0  0  0  0  0  0  0
  189.4800  177.5120  142.6140 C   0  0  1  0  0  3  0  0  0  0  0  0
  188.0720  178.1850  140.6660 C   0  0  0  0  0  2  0  0  0  0  0  0
  189.4780  176.3700  138.5210 O   0  0  0  0  0  0  0  0  0  0  0  0
  190.1170  177.0670  139.5500 C   0  0  1  0  0  3  0  0  0  0  0  0
  188.8960  178.9650  138.2040 S   0  0  0  0  0  0  0  0  0  0  0  0
  189.3530  178.3540  139.8310 C   0  0  1  0  0  3  0  0  0  0  0  0
  190.3380  176.1620  140.7650 C   0  0  0  0  0  2  0  0  0  0  0  0
  190.3090  177.3720  136.6290 O   0  0  0  0  0  1  0  0  0  0  0  0
  189.2250  177.3110  137.5070 C   0  0  1  0  0  3  0  0  0  0  0  0
  190.6740  176.9490  141.9540 N   0  0  0  0  0  0  0  0  0  0  0  0
  191.2760  176.0240  142.8970 C   0  0  0  0  0  1  0  0  0  0  0  0
  187.3530  177.3110  144.1470 C   0  0  1  0  0  3  0  0  0  0  0  0
  184.7680  178.3190  143.1340 C   0  0  2  0  0  3  0  0  0  0  0  0
  186.0770  177.2580  144.9910 C   0  0  2  0  0  3  0  0  0  0  0  0
  188.1570  176.2290  144.4570 F   0  0  0  0  0  0  0  0  0  0  0  0
  185.1090  178.3900  144.6280 C   0  0  1  0  0  3  0  0  0  0  0  0
  186.3920  177.3010  146.3510 O   0  0  0  0  0  1  0  0  0  0  0  0
  187.0140  177.2910  142.6500 C   0  0  1  0  0  3  0  0  0  0  0  0
  185.6630  179.7590  145.0190 C   0  0  0  0  0  1  0  0  0  0  0  0
  186.0280  178.4060  142.2740 C   0  0  0  0  0  2  0  0  0  0  0  0
  183.8760  179.3330  142.7800 O   0  0  0  0  0  0  0  0  0  0  0  0
  182.7020  178.9000  143.1890 O   0  0  0  0  0  1  0  0  0  0  0  0
  189.7280  178.9790  142.9760 C   0  0  0  0  0  2  0  0  0  0  0  0
  190.6010  179.0810  144.2130 C   0  0  0  0  0  2  0  0  0  0  0  0
  189.8960  178.5510  145.3690 N   0  0  0  0  0  2  0  0  0  0  0  0
  190.4220  177.5890  146.2950 C   0  0  0  0  0  0  0  0  0  0  0  0
  189.5980  177.3190  147.6770 S   0  0  0  0  0  0  0  0  0  0  0  0
  191.6710  176.8320  146.0830 C   0  0  0  0  0  3  0  0  0  0  0  0
  192.0710  175.8200  146.8410 C   0  0  0  0  0  2  0  0  0  0  0  0
  1  3  1  6  0  0  0
  1  2  1  0  0  0  0
  1 19  1  0  0  0  0
  2 24  1  6  0  0  0
  4  5  1  0  0  0  0
  5  7  1  0  0  0  0
  5  8  1  1  0  0  0
  6  7  1  0  0  0  0
  7  3  1  1  0  0  0
  8 11  1  0  0  0  0
 10  9  1  6  0  0  0
 10  6  1  0  0  0  0
 10  4  1  0  0  0  0
 11  2  1  0  0  0  0
 11 12  1  0  0  0  0
 13 16  1  1  0  0  0
 13 15  1  0  0  0  0
 14 22  1  6  0  0  0
 14 17  1  0  0  0  0
 15 18  1  1  0  0  0
 17 15  1  0  0  0  0
 17 20  1  6  0  0  0
 19 21  1  6  0  0  0
 19 13  1  0  0  0  0
 21 14  1  0  0  0  0
 22 23  1  0  0  0  0
 24 25  1  0  0  0  0
 25 26  1  0  0  0  0
 26 27  1  0  0  0  0
 27 28  2  0  0  0  0
 29 27  1  0  0  0  0
 29 30  2  0  0  0  0
M  END
>  <MODEL>
1

>  <REMARK>
 VINA RESULT:      -5.9      0.000      0.000
  Name = 
  7 active torsions:
  status: ('A' for Active; 'I' for Inactive)
    1  A    between atoms: N_1  and  C_22
    2  A    between atoms: C_3  and  O_11
    3  A    between atoms: C_4  and  C_23
    4  A    between atoms: C_7  and  N_10
    5  A    between atoms: C_7  and  C_15
    6  A    between atoms: N_10  and  C_25
    7  A    between atoms: C_23  and  C_25
                            x       y       z     vdW  Elec       q    Type
                         _______ _______ _______ _____ _____    ______ ____

>  <TORSDO>
F 7

$$$$
=
 OpenBabel10272413443D

 30 32  0  0  1  0  0  0  0  0999 V2000
  189.5250  175.9030  136.9060 N   0  0  2  0  0  0  0  0  0  0  0  0
  189.3870  177.0650  137.8200 C   0  0  1  0  0  3  0  0  0  0  0  0
  188.4480  174.9050  136.9940 C   0  0  0  0  0  2  0  0  0  0  0  0
  186.5320  176.1180  134.8180 O   0  0  0  0  0  0  0  0  0  0  0  0
  186.7760  176.6540  136.0860 C   0  0  1  0  0  3  0  0  0  0  0  0
  185.8430  174.2550  136.6160 S   0  0  0  0  0  0  0  0  0  0  0  0
  187.0390  175.5180  137.0660 C   0  0  1  0  0  3  0  0  0  0  0  0
  187.8680  177.7250  136.0220 C   0  0  0  0  0  2  0  0  0  0  0  0
  184.3040  175.5740  134.9110 O   0  0  0  0  0  1  0  0  0  0  0  0
  185.6050  175.0760  135.0040 C   0  0  1  0  0  3  0  0  0  0  0  0
  188.3770  178.0390  137.3590 N   0  0  0  0  0  0  0  0  0  0  0  0
  189.0520  179.3190  137.2480 C   0  0  0  0  0  1  0  0  0  0  0  0
  191.3200  174.8270  135.5750 C   0  0  1  0  0  3  0  0  0  0  0  0
  193.2280  175.3520  137.7670 C   0  0  2  0  0  3  0  0  0  0  0  0
  192.6720  174.1130  135.6590 C   0  0  2  0  0  3  0  0  0  0  0  0
  190.3860  173.9820  135.0010 F   0  0  0  0  0  0  0  0  0  0  0  0
  193.7250  174.9750  136.3660 C   0  0  1  0  0  3  0  0  0  0  0  0
  193.1100  173.7520  134.3840 O   0  0  0  0  0  1  0  0  0  0  0  0
  190.8420  175.2510  136.9720 C   0  0  1  0  0  3  0  0  0  0  0  0
  194.0950  176.2080  135.5440 C   0  0  0  0  0  1  0  0  0  0  0  0
  191.8970  176.0970  137.7010 C   0  0  0  0  0  2  0  0  0  0  0  0
  194.1780  176.1270  138.4370 O   0  0  0  0  0  0  0  0  0  0  0  0
  193.4680  176.9620  139.1670 O   0  0  0  0  0  1  0  0  0  0  0  0
  189.1000  176.6650  139.2700 C   0  0  0  0  0  2  0  0  0  0  0  0
  189.9610  177.4730  140.2250 C   0  0  0  0  0  2  0  0  0  0  0  0
  190.3490  176.6560  141.3630 N   0  0  0  0  0  2  0  0  0  0  0  0
  190.2980  177.0670  142.7370 C   0  0  0  0  0  0  0  0  0  0  0  0
  191.5470  177.9350  143.3270 S   0  0  0  0  0  0  0  0  0  0  0  0
  189.1910  176.7450  143.6580 C   0  0  0  0  0  3  0  0  0  0  0  0
  187.9830  176.3590  143.2720 C   0  0  0  0  0  2  0  0  0  0  0  0
  1 19  1  0  0  0  0
  1  3  1  1  0  0  0
  1  2  1  0  0  0  0
  2 24  1  1  0  0  0
  4 10  1  0  0  0  0
  4  5  1  0  0  0  0
  5  8  1  6  0  0  0
  5  7  1  0  0  0  0
  6  7  1  0  0  0  0
  7  3  1  6  0  0  0
  8 11  1  0  0  0  0
 10  9  1  1  0  0  0
 10  6  1  0  0  0  0
 11  2  1  0  0  0  0
 12 11  1  0  0  0  0
 13 16  1  1  0  0  0
 13 15  1  0  0  0  0
 13 19  1  0  0  0  0
 14 22  1  6  0  0  0
 15 18  1  6  0  0  0
 15 17  1  0  0  0  0
 17 20  1  6  0  0  0
 17 14  1  0  0  0  0
 19 21  1  6  0  0  0
 21 14  1  0  0  0  0
 22 23  1  0  0  0  0
 24 25  1  0  0  0  0
 25 26  1  0  0  0  0
 26 27  1  0  0  0  0
 27 28  2  0  0  0  0
 27 29  1  0  0  0  0
 30 29  2  0  0  0  0
M  END
>  <MODEL>
2

>  <REMARK>
 VINA RESULT:      -5.9      4.498      7.834
  Name = 
  7 active torsions:
  status: ('A' for Active; 'I' for Inactive)
    1  A    between atoms: N_1  and  C_22
    2  A    between atoms: C_3  and  O_11
    3  A    between atoms: C_4  and  C_23
    4  A    between atoms: C_7  and  N_10
    5  A    between atoms: C_7  and  C_15
    6  A    between atoms: N_10  and  C_25
    7  A    between atoms: C_23  and  C_25
                            x       y       z     vdW  Elec       q    Type
                         _______ _______ _______ _____ _____    ______ ____

>  <TORSDO>
F 7

$$$$
=
 OpenBabel10272413443D

 30 32  0  0  1  0  0  0  0  0999 V2000
  186.2970  175.8990  136.0890 N   0  0  2  0  0  0  0  0  0  0  0  0
  185.1770  176.8520  136.3020 C   0  0  1  0  0  3  0  0  0  0  0  0
  186.1330  174.5860  136.7320 C   0  0  0  0  0  2  0  0  0  0  0  0
  184.7030  173.1010  134.3600 O   0  0  0  0  0  0  0  0  0  0  0  0
  184.1350  174.0910  135.1690 C   0  0  1  0  0  3  0  0  0  0  0  0
  184.8140  172.2230  136.8880 S   0  0  0  0  0  0  0  0  0  0  0  0
  184.7240  173.9890  136.5700 C   0  0  1  0  0  3  0  0  0  0  0  0
  184.2560  175.4670  134.5100 C   0  0  0  0  0  2  0  0  0  0  0  0
  183.4340  171.2500  134.8480 O   0  0  0  0  0  1  0  0  0  0  0  0
  184.6410  171.9060  135.1000 C   0  0  1  0  0  3  0  0  0  0  0  0
  183.9950  176.5370  135.4750 N   0  0  0  0  0  0  0  0  0  0  0  0
  183.7040  177.7270  134.6940 C   0  0  0  0  0  1  0  0  0  0  0  0
  187.5200  177.9610  136.7220 C   0  0  1  0  0  3  0  0  0  0  0  0
  189.7440  176.3040  137.7380 C   0  0  2  0  0  3  0  0  0  0  0  0
  188.9070  178.5490  136.9980 C   0  0  2  0  0  3  0  0  0  0  0  0
  186.9370  178.6310  135.6610 F   0  0  0  0  0  0  0  0  0  0  0  0
  189.6340  177.7870  138.1130 C   0  0  1  0  0  3  0  0  0  0  0  0
  188.8050  179.9040  137.3170 O   0  0  0  0  0  1  0  0  0  0  0  0
  187.6200  176.4640  136.3950 C   0  0  1  0  0  3  0  0  0  0  0  0
  188.9580  177.9810  139.4690 C   0  0  0  0  0  1  0  0  0  0  0  0
  188.3660  175.6910  137.4930 C   0  0  0  0  0  2  0  0  0  0  0  0
  190.4160  175.5900  138.7330 O   0  0  0  0  0  0  0  0  0  0  0  0
  191.0810  174.6590  138.0810 O   0  0  0  0  0  1  0  0  0  0  0  0
  184.7640  176.9850  137.7700 C   0  0  0  0  0  2  0  0  0  0  0  0
  184.2600  178.3880  138.0550 C   0  0  0  0  0  2  0  0  0  0  0  0
  185.0740  179.0130  139.0860 N   0  0  0  0  0  2  0  0  0  0  0  0
  184.9190  178.8160  140.4990 C   0  0  0  0  0  0  0  0  0  0  0  0
  183.4210  178.5290  141.0770 S   0  0  0  0  0  0  0  0  0  0  0  0
  186.0290  178.8680  141.4700 C   0  0  0  0  0  3  0  0  0  0  0  0
  186.0270  178.2520  142.6440 C   0  0  0  0  0  2  0  0  0  0  0  0
  1  2  1  0  0  0  0
  1 19  1  0  0  0  0
  1  3  1  1  0  0  0
  2 24  1  1  0  0  0
  4 10  1  0  0  0  0
  4  5  1  0  0  0  0
  5  8  1  6  0  0  0
  5  7  1  0  0  0  0
  7  3  1  6  0  0  0
  7  6  1  0  0  0  0
  8 11  1  0  0  0  0
 10  9  1  1  0  0  0
 10  6  1  0  0  0  0
 11  2  1  0  0  0  0
 12 11  1  0  0  0  0
 13 16  1  6  0  0  0
 13 15  1  0  0  0  0
 14 17  1  0  0  0  0
 14 22  1  1  0  0  0
 15 18  1  1  0  0  0
 15 17  1  0  0  0  0
 17 20  1  1  0  0  0
 19 13  1  0  0  0  0
 19 21  1  1  0  0  0
 21 14  1  0  0  0  0
 23 22  1  0  0  0  0
 24 25  1  0  0  0  0
 25 26  1  0  0  0  0
 26 27  1  0  0  0  0
 27 28  2  0  0  0  0
 27 29  1  0  0  0  0
 29 30  2  0  0  0  0
M  END
>  <MODEL>
3

>  <REMARK>
 VINA RESULT:      -5.6      5.151      8.154
  Name = 
  7 active torsions:
  status: ('A' for Active; 'I' for Inactive)
    1  A    between atoms: N_1  and  C_22
    2  A    between atoms: C_3  and  O_11
    3  A    between atoms: C_4  and  C_23
    4  A    between atoms: C_7  and  N_10
    5  A    between atoms: C_7  and  C_15
    6  A    between atoms: N_10  and  C_25
    7  A    between atoms: C_23  and  C_25
                            x       y       z     vdW  Elec       q    Type
                         _______ _______ _______ _____ _____    ______ ____

>  <TORSDO>
F 7

$$$$
=
 OpenBabel10272413443D

 30 32  0  0  1  0  0  0  0  0999 V2000
  189.8380  177.6950  139.3760 N   0  0  2  0  0  0  0  0  0  0  0  0
  190.7350  176.7170  138.7090 C   0  0  1  0  0  3  0  0  0  0  0  0
  189.2600  177.2470  140.6520 C   0  0  0  0  0  2  0  0  0  0  0  0
  191.5080  178.3280  142.5650 O   0  0  0  0  0  0  0  0  0  0  0  0
  191.6240  177.2370  141.6980 C   0  0  1  0  0  3  0  0  0  0  0  0
  189.6150  176.5600  143.2510 S   0  0  0  0  0  0  0  0  0  0  0  0
  190.2710  176.5480  141.5780 C   0  0  1  0  0  3  0  0  0  0  0  0
  192.2580  177.6630  140.3710 C   0  0  0  0  0  2  0  0  0  0  0  0
  191.7250  177.3610  144.6360 O   0  0  0  0  0  1  0  0  0  0  0  0
  190.8180  177.8570  143.6970 C   0  0  1  0  0  3  0  0  0  0  0  0
  192.0670  176.6380  139.3430 N   0  0  0  0  0  0  0  0  0  0  0  0
  193.0400  176.9170  138.3030 C   0  0  0  0  0  1  0  0  0  0  0  0
  188.8940  177.6360  137.0830 C   0  0  1  0  0  3  0  0  0  0  0  0
  186.3420  178.6910  138.1310 C   0  0  2  0  0  3  0  0  0  0  0  0
  187.8270  178.2330  136.1620 C   0  0  2  0  0  3  0  0  0  0  0  0
  190.1500  177.8900  136.5610 F   0  0  0  0  0  0  0  0  0  0  0  0
  186.4170  178.0540  136.7370 C   0  0  1  0  0  3  0  0  0  0  0  0
  187.9130  177.6670  134.8890 O   0  0  0  0  0  1  0  0  0  0  0  0
  188.7910  178.2340  138.4940 C   0  0  1  0  0  3  0  0  0  0  0  0
  185.9950  176.5860  136.7610 C   0  0  0  0  0  1  0  0  0  0  0  0
  187.3770  178.0810  139.0740 C   0  0  0  0  0  2  0  0  0  0  0  0
  185.0610  178.5520  138.6700 O   0  0  0  0  0  0  0  0  0  0  0  0
  184.8140  179.7140  139.2380 O   0  0  0  0  0  1  0  0  0  0  0  0
  190.1290  175.3150  138.5980 C   0  0  0  0  0  2  0  0  0  0  0  0
  190.5870  174.6380  137.3190 C   0  0  0  0  0  2  0  0  0  0  0  0
  189.8930  173.3710  137.1470 N   0  0  0  0  0  2  0  0  0  0  0  0
  188.5800  173.2120  136.5920 C   0  0  0  0  0  0  0  0  0  0  0  0
  188.2500  173.9440  135.1710 S   0  0  0  0  0  0  0  0  0  0  0  0
  187.4980  172.4360  137.2290 C   0  0  0  0  0  3  0  0  0  0  0  0
  186.2460  172.8540  137.3480 C   0  0  0  0  0  2  0  0  0  0  0  0
  1  3  1  1  0  0  0
  2 24  1  1  0  0  0
  2 11  1  0  0  0  0
  2  1  1  0  0  0  0
  4 10  1  0  0  0  0
  5  8  1  6  0  0  0
  5  4  1  0  0  0  0
  6 10  1  0  0  0  0
  7  3  1  6  0  0  0
  7  5  1  0  0  0  0
  7  6  1  0  0  0  0
 10  9  1  1  0  0  0
 11  8  1  0  0  0  0
 12 11  1  0  0  0  0
 13 16  1  6  0  0  0
 13 19  1  0  0  0  0
 14 22  1  1  0  0  0
 14 21  1  0  0  0  0
 15 18  1  6  0  0  0
 15 17  1  0  0  0  0
 15 13  1  0  0  0  0
 17 20  1  1  0  0  0
 17 14  1  0  0  0  0
 19 21  1  1  0  0  0
 19  1  1  0  0  0  0
 22 23  1  0  0  0  0
 25 24  1  0  0  0  0
 26 25  1  0  0  0  0
 27 26  1  0  0  0  0
 27 29  1  0  0  0  0
 28 27  2  0  0  0  0
 29 30  2  0  0  0  0
M  END
>  <MODEL>
4

>  <REMARK>
 VINA RESULT:      -5.5      3.918      7.200
  Name = 
  7 active torsions:
  status: ('A' for Active; 'I' for Inactive)
    1  A    between atoms: N_1  and  C_22
    2  A    between atoms: C_3  and  O_11
    3  A    between atoms: C_4  and  C_23
    4  A    between atoms: C_7  and  N_10
    5  A    between atoms: C_7  and  C_15
    6  A    between atoms: N_10  and  C_25
    7  A    between atoms: C_23  and  C_25
                            x       y       z     vdW  Elec       q    Type
                         _______ _______ _______ _____ _____    ______ ____

>  <TORSDO>
F 7

$$$$
=
 OpenBabel10272413443D

 30 32  0  0  1  0  0  0  0  0999 V2000
  189.3550  175.4760  136.0480 N   0  0  2  0  0  0  0  0  0  0  0  0
  189.6060  176.5160  137.0790 C   0  0  1  0  0  3  0  0  0  0  0  0
  188.4160  174.4160  136.4430 C   0  0  0  0  0  2  0  0  0  0  0  0
  185.7650  175.7620  135.4230 O   0  0  0  0  0  0  0  0  0  0  0  0
  186.5120  176.1620  136.5350 C   0  0  1  0  0  3  0  0  0  0  0  0
  185.8910  173.6690  137.0900 S   0  0  0  0  0  0  0  0  0  0  0  0
  187.1620  174.9370  137.1660 C   0  0  1  0  0  3  0  0  0  0  0  0
  187.4750  177.2930  136.1660 C   0  0  0  0  0  2  0  0  0  0  0  0
  183.7790  175.0870  136.3540 O   0  0  0  0  0  1  0  0  0  0  0  0
  185.0020  174.6560  135.8390 C   0  0  1  0  0  3  0  0  0  0  0  0
  188.4930  177.4780  137.2030 N   0  0  0  0  0  0  0  0  0  0  0  0
  189.0570  178.7980  136.9890 C   0  0  0  0  0  1  0  0  0  0  0  0
  191.6310  175.9840  135.2020 C   0  0  1  0  0  3  0  0  0  0  0  0
  192.4100  173.1750  135.6770 C   0  0  2  0  0  3  0  0  0  0  0  0
  192.8880  175.3760  134.5750 C   0  0  2  0  0  3  0  0  0  0  0  0
  191.0990  176.9320  134.3460 F   0  0  0  0  0  0  0  0  0  0  0  0
  193.4720  174.2570  135.4460 C   0  0  1  0  0  3  0  0  0  0  0  0
  193.8440  176.3670  134.3460 O   0  0  0  0  0  1  0  0  0  0  0  0
  190.5830  174.8960  135.4820 C   0  0  1  0  0  3  0  0  0  0  0  0
  194.0310  174.7940  136.7630 C   0  0  0  0  0  1  0  0  0  0  0  0
  191.1600  173.7570  136.3350 C   0  0  0  0  0  2  0  0  0  0  0  0
  192.9220  172.1360  136.4570 O   0  0  0  0  0  0  0  0  0  0  0  0
  192.9110  171.0870  135.6620 O   0  0  0  0  0  1  0  0  0  0  0  0
  189.9480  175.9360  138.4540 C   0  0  0  0  0  2  0  0  0  0  0  0
  191.2460  176.5290  138.9730 C   0  0  0  0  0  2  0  0  0  0  0  0
  190.9710  177.4760  140.0420 N   0  0  0  0  0  2  0  0  0  0  0  0
  189.9610  177.3220  141.0490 C   0  0  0  0  0  0  0  0  0  0  0  0
  188.5670  178.1520  140.8750 S   0  0  0  0  0  0  0  0  0  0  0  0
  190.1040  176.4670  142.2440 C   0  0  0  0  0  3  0  0  0  0  0  0
  189.0900  176.0270  142.9750 C   0  0  0  0  0  2  0  0  0  0  0  0
  1  3  1  1  0  0  0
  1  2  1  0  0  0  0
  2 11  1  0  0  0  0
  2 24  1  1  0  0  0
  4 10  1  0  0  0  0
  4  5  1  0  0  0  0
  5  8  1  6  0  0  0
  5  7  1  0  0  0  0
  6  7  1  0  0  0  0
  7  3  1  6  0  0  0
  8 11  1  0  0  0  0
 10  9  1  1  0  0  0
 10  6  1  0  0  0  0
 12 11  1  0  0  0  0
 13 16  1  6  0  0  0
 13 19  1  0  0  0  0
 14 21  1  0  0  0  0
 14 22  1  1  0  0  0
 15 18  1  1  0  0  0
 15 13  1  0  0  0  0
 15 17  1  0  0  0  0
 17 14  1  0  0  0  0
 17 20  1  1  0  0  0
 19  1  1  0  0  0  0
 19 21  1  1  0  0  0
 23 22  1  0  0  0  0
 24 25  1  0  0  0  0
 25 26  1  0  0  0  0
 26 27  1  0  0  0  0
 27 29  1  0  0  0  0
 28 27  2  0  0  0  0
 29 30  2  0  0  0  0
M  END
>  <MODEL>
5

>  <REMARK>
 VINA RESULT:      -5.4      4.823      8.558
  Name = 
  7 active torsions:
  status: ('A' for Active; 'I' for Inactive)
    1  A    between atoms: N_1  and  C_22
    2  A    between atoms: C_3  and  O_11
    3  A    between atoms: C_4  and  C_23
    4  A    between atoms: C_7  and  N_10
    5  A    between atoms: C_7  and  C_15
    6  A    between atoms: N_10  and  C_25
    7  A    between atoms: C_23  and  C_25
                            x       y       z     vdW  Elec       q    Type
                         _______ _______ _______ _____ _____    ______ ____

>  <TORSDO>
F 7

$$$$
=
 OpenBabel10272413443D

 30 32  0  0  1  0  0  0  0  0999 V2000
  189.0770  176.7020  137.8940 N   0  0  2  0  0  0  0  0  0  0  0  0
  190.0630  175.8240  137.2140 C   0  0  1  0  0  3  0  0  0  0  0  0
  188.3700  177.6470  137.0170 C   0  0  0  0  0  2  0  0  0  0  0  0
  185.9170  175.8250  136.2790 O   0  0  0  0  0  0  0  0  0  0  0  0
  187.2290  175.6580  135.8240 C   0  0  1  0  0  3  0  0  0  0  0  0
  186.6080  178.0750  135.0010 S   0  0  0  0  0  0  0  0  0  0  0  0
  187.8900  177.0240  135.6950 C   0  0  1  0  0  3  0  0  0  0  0  0
  187.9820  174.6500  136.6950 C   0  0  0  0  0  2  0  0  0  0  0  0
  184.7610  176.2920  134.3520 O   0  0  0  0  0  1  0  0  0  0  0  0
  185.3540  176.8430  135.4890 C   0  0  1  0  0  3  0  0  0  0  0  0
  189.4260  174.7260  136.4600 N   0  0  0  0  0  0  0  0  0  0  0  0
  189.9880  173.4880  136.9710 C   0  0  0  0  0  1  0  0  0  0  0  0
  188.6200  177.3590  140.2420 C   0  0  1  0  0  3  0  0  0  0  0  0
  191.5220  177.6630  140.6980 C   0  0  2  0  0  3  0  0  0  0  0  0
  189.1740  178.1180  141.4500 C   0  0  2  0  0  3  0  0  0  0  0  0
  187.4220  177.9280  139.8480 F   0  0  0  0  0  0  0  0  0  0  0  0
  190.5450  177.5820  141.8780 C   0  0  1  0  0  3  0  0  0  0  0  0
  188.2720  178.0600  142.5150 O   0  0  0  0  0  1  0  0  0  0  0  0
  189.6170  177.3950  139.0750 C   0  0  1  0  0  3  0  0  0  0  0  0
  190.4510  176.1640  142.4400 C   0  0  0  0  0  1  0  0  0  0  0  0
  191.0020  176.8810  139.4930 C   0  0  0  0  0  2  0  0  0  0  0  0
  192.7840  177.1920  141.0670 O   0  0  0  0  0  0  0  0  0  0  0  0
  193.5070  177.2880  139.9700 O   0  0  0  0  0  1  0  0  0  0  0  0
  191.0300  176.5870  136.3050 C   0  0  0  0  0  2  0  0  0  0  0  0
  191.1520  175.8960  134.9590 C   0  0  0  0  0  2  0  0  0  0  0  0
  192.5400  175.5500  134.6980 N   0  0  0  0  0  2  0  0  0  0  0  0
  193.2490  174.4520  135.2900 C   0  0  0  0  0  0  0  0  0  0  0  0
  193.0810  172.9750  134.6180 S   0  0  0  0  0  0  0  0  0  0  0  0
  194.1140  174.5690  136.4800 C   0  0  0  0  0  3  0  0  0  0  0  0
  193.7190  174.3220  137.7210 C   0  0  0  0  0  2  0  0  0  0  0  0
  1  3  1  6  0  0  0
  1 19  1  0  0  0  0
  2 24  1  6  0  0  0
  2  1  1  0  0  0  0
  5  4  1  0  0  0  0
  5  8  1  1  0  0  0
  6 10  1  0  0  0  0
  6  7  1  0  0  0  0
  7  5  1  0  0  0  0
  7  3  1  1  0  0  0
 10  9  1  6  0  0  0
 10  4  1  0  0  0  0
 11  8  1  0  0  0  0
 11 12  1  0  0  0  0
 11  2  1  0  0  0  0
 13 16  1  6  0  0  0
 13 15  1  0  0  0  0
 14 22  1  1  0  0  0
 14 17  1  0  0  0  0
 15 17  1  0  0  0  0
 15 18  1  1  0  0  0
 17 20  1  6  0  0  0
 19 21  1  1  0  0  0
 19 13  1  0  0  0  0
 21 14  1  0  0  0  0
 23 22  1  0  0  0  0
 25 24  1  0  0  0  0
 26 25  1  0  0  0  0
 26 27  1  0  0  0  0
 27 29  1  0  0  0  0
 28 27  2  0  0  0  0
 29 30  2  0  0  0  0
M  END
>  <MODEL>
6

>  <REMARK>
 VINA RESULT:      -5.3      4.551      7.301
  Name = 
  7 active torsions:
  status: ('A' for Active; 'I' for Inactive)
    1  A    between atoms: N_1  and  C_22
    2  A    between atoms: C_3  and  O_11
    3  A    between atoms: C_4  and  C_23
    4  A    between atoms: C_7  and  N_10
    5  A    between atoms: C_7  and  C_15
    6  A    between atoms: N_10  and  C_25
    7  A    between atoms: C_23  and  C_25
                            x       y       z     vdW  Elec       q    Type
                         _______ _______ _______ _____ _____    ______ ____

>  <TORSDO>
F 7

$$$$
=
 OpenBabel10272413443D

 30 32  0  0  1  0  0  0  0  0999 V2000
  190.1500  176.9700  138.0300 N   0  0  2  0  0  0  0  0  0  0  0  0
  188.8310  176.7450  137.3850 C   0  0  1  0  0  3  0  0  0  0  0  0
  191.0190  175.7870  138.1090 C   0  0  0  0  0  2  0  0  0  0  0  0
  192.5300  176.1580  135.3780 O   0  0  0  0  0  0  0  0  0  0  0  0
  191.1960  175.7680  135.5300 C   0  0  1  0  0  3  0  0  0  0  0  0
  192.5190  173.9160  136.8440 S   0  0  0  0  0  0  0  0  0  0  0  0
  191.0560  174.9580  136.8130 C   0  0  1  0  0  3  0  0  0  0  0  0
  190.2610  176.9730  135.4160 C   0  0  0  0  0  2  0  0  0  0  0  0
  193.4980  174.3120  134.4150 O   0  0  0  0  0  1  0  0  0  0  0  0
  193.3050  175.0070  135.6100 C   0  0  1  0  0  3  0  0  0  0  0  0
  188.9220  176.6510  135.9150 N   0  0  0  0  0  0  0  0  0  0  0  0
  188.0310  177.6640  135.3760 C   0  0  0  0  0  1  0  0  0  0  0  0
  188.6000  177.8790  139.7400 C   0  0  1  0  0  3  0  0  0  0  0  0
  190.7410  177.6630  141.7630 C   0  0  2  0  0  3  0  0  0  0  0  0
  188.5210  178.6100  141.0820 C   0  0  2  0  0  3  0  0  0  0  0  0
  187.9700  178.6320  138.7650 F   0  0  0  0  0  0  0  0  0  0  0  0
  189.2790  177.8580  142.1830 C   0  0  1  0  0  3  0  0  0  0  0  0
  187.1890  178.8050  141.4510 O   0  0  0  0  0  1  0  0  0  0  0  0
  190.0630  177.6370  139.3390 C   0  0  1  0  0  3  0  0  0  0  0  0
  188.6070  176.5310  142.5310 C   0  0  0  0  0  1  0  0  0  0  0  0
  190.8410  176.9040  140.4410 C   0  0  0  0  0  2  0  0  0  0  0  0
  191.4570  176.9920  142.7570 O   0  0  0  0  0  0  0  0  0  0  0  0
  191.7010  177.9110  143.6680 O   0  0  0  0  0  1  0  0  0  0  0  0
  188.0850  175.5280  137.9390 C   0  0  0  0  0  2  0  0  0  0  0  0
  187.3130  174.8290  136.8350 C   0  0  0  0  0  2  0  0  0  0  0  0
  185.9000  174.7730  137.1690 N   0  0  0  0  0  2  0  0  0  0  0  0
  184.8870  175.6480  136.6520 C   0  0  0  0  0  0  0  0  0  0  0  0
  183.7090  175.0020  135.7270 S   0  0  0  0  0  0  0  0  0  0  0  0
  184.8470  177.1030  136.8940 C   0  0  0  0  0  3  0  0  0  0  0  0
  184.8570  177.6640  138.0960 C   0  0  0  0  0  2  0  0  0  0  0  0
  1  3  1  1  0  0  0
  1 19  1  0  0  0  0
  2 24  1  1  0  0  0
  2  1  1  0  0  0  0
  4  5  1  0  0  0  0
  4 10  1  0  0  0  0
  5  8  1  1  0  0  0
  5  7  1  0  0  0  0
  7  6  1  0  0  0  0
  7  3  1  1  0  0  0
  8 11  1  0  0  0  0
 10  9  1  6  0  0  0
 10  6  1  0  0  0  0
 11  2  1  0  0  0  0
 12 11  1  0  0  0  0
 13 16  1  6  0  0  0
 13 15  1  0  0  0  0
 14 17  1  0  0  0  0
 14 22  1  1  0  0  0
 15 18  1  1  0  0  0
 15 17  1  0  0  0  0
 17 20  1  6  0  0  0
 19 13  1  0  0  0  0
 19 21  1  1  0  0  0
 21 14  1  0  0  0  0
 22 23  1  0  0  0  0
 25 26  1  0  0  0  0
 25 24  1  0  0  0  0
 27 29  1  0  0  0  0
 27 26  1  0  0  0  0
 28 27  2  0  0  0  0
 29 30  2  0  0  0  0
M  END
>  <MODEL>
7

>  <REMARK>
 VINA RESULT:      -5.1      4.378      7.172
  Name = 
  7 active torsions:
  status: ('A' for Active; 'I' for Inactive)
    1  A    between atoms: N_1  and  C_22
    2  A    between atoms: C_3  and  O_11
    3  A    between atoms: C_4  and  C_23
    4  A    between atoms: C_7  and  N_10
    5  A    between atoms: C_7  and  C_15
    6  A    between atoms: N_10  and  C_25
    7  A    between atoms: C_23  and  C_25
                            x       y       z     vdW  Elec       q    Type
                         _______ _______ _______ _____ _____    ______ ____

>  <TORSDO>
F 7

$$$$
=
 OpenBabel10272413443D

 30 32  0  0  1  0  0  0  0  0999 V2000
  189.7420  177.7540  139.4420 N   0  0  2  0  0  0  0  0  0  0  0  0
  190.6260  176.7760  138.7570 C   0  0  1  0  0  3  0  0  0  0  0  0
  189.1530  177.2890  140.7060 C   0  0  0  0  0  2  0  0  0  0  0  0
  191.4110  178.2920  142.6490 O   0  0  0  0  0  0  0  0  0  0  0  0
  191.5130  177.2190  141.7580 C   0  0  1  0  0  3  0  0  0  0  0  0
  189.4880  176.5410  143.2900 S   0  0  0  0  0  0  0  0  0  0  0  0
  190.1500  176.5540  141.6200 C   0  0  1  0  0  3  0  0  0  0  0  0
  192.1580  177.6630  140.4430 C   0  0  0  0  0  2  0  0  0  0  0  0
  191.6060  177.2780  144.6990 O   0  0  0  0  0  1  0  0  0  0  0  0
  190.7110  177.8080  143.7680 C   0  0  1  0  0  3  0  0  0  0  0  0
  191.9540  176.6630  139.3930 N   0  0  0  0  0  0  0  0  0  0  0  0
  192.9360  176.9490  138.3620 C   0  0  0  0  0  1  0  0  0  0  0  0
  188.8420  177.8030  137.1310 C   0  0  1  0  0  3  0  0  0  0  0  0
  186.2610  178.7840  138.1820 C   0  0  2  0  0  3  0  0  0  0  0  0
  187.7870  178.4380  136.2220 C   0  0  2  0  0  3  0  0  0  0  0  0
  190.1050  178.0930  136.6470 F   0  0  0  0  0  0  0  0  0  0  0  0
  186.3680  178.2180  136.7600 C   0  0  1  0  0  3  0  0  0  0  0  0
  187.9010  177.9370  134.9230 O   0  0  0  0  0  1  0  0  0  0  0  0
  188.7070  178.3290  138.5680 C   0  0  1  0  0  3  0  0  0  0  0  0
  185.9590  176.7470  136.7020 C   0  0  0  0  0  1  0  0  0  0  0  0
  187.2840  178.1350  139.1130 C   0  0  0  0  0  2  0  0  0  0  0  0
  184.9720  178.6080  138.6900 O   0  0  0  0  0  0  0  0  0  0  0  0
  184.8470  179.5440  139.6070 O   0  0  0  0  0  1  0  0  0  0  0  0
  189.9980  175.3870  138.6140 C   0  0  0  0  0  2  0  0  0  0  0  0
  190.3110  174.8000  137.2500 C   0  0  0  0  0  2  0  0  0  0  0  0
  191.4220  173.8670  137.3490 N   0  0  0  0  0  2  0  0  0  0  0  0
  192.4060  173.6350  136.3310 C   0  0  0  0  0  0  0  0  0  0  0  0
  191.9900  173.9200  134.7790 S   0  0  0  0  0  0  0  0  0  0  0  0
  193.7720  173.1440  136.5940 C   0  0  0  0  0  3  0  0  0  0  0  0
  194.7490  173.8810  137.1040 C   0  0  0  0  0  2  0  0  0  0  0  0
  1  3  1  1  0  0  0
  2 24  1  1  0  0  0
  2 11  1  0  0  0  0
  2  1  1  0  0  0  0
  4 10  1  0  0  0  0
  5  8  1  6  0  0  0
  5  4  1  0  0  0  0
  6 10  1  0  0  0  0
  7  3  1  6  0  0  0
  7  5  1  0  0  0  0
  7  6  1  0  0  0  0
 10  9  1  1  0  0  0
 11  8  1  0  0  0  0
 12 11  1  0  0  0  0
 13 16  1  6  0  0  0
 13 19  1  0  0  0  0
 14 22  1  1  0  0  0
 14 21  1  0  0  0  0
 15 18  1  6  0  0  0
 15 17  1  0  0  0  0
 15 13  1  0  0  0  0
 17 20  1  1  0  0  0
 17 14  1  0  0  0  0
 19 21  1  1  0  0  0
 19  1  1  0  0  0  0
 22 23  1  0  0  0  0
 25 26  1  0  0  0  0
 25 24  1  0  0  0  0
 27 29  1  0  0  0  0
 27 26  1  0  0  0  0
 28 27  2  0  0  0  0
 29 30  2  0  0  0  0
M  END
>  <MODEL>
8

>  <REMARK>
 VINA RESULT:      -5.0      3.878      7.117
  Name = 
  7 active torsions:
  status: ('A' for Active; 'I' for Inactive)
    1  A    between atoms: N_1  and  C_22
    2  A    between atoms: C_3  and  O_11
    3  A    between atoms: C_4  and  C_23
    4  A    between atoms: C_7  and  N_10
    5  A    between atoms: C_7  and  C_15
    6  A    between atoms: N_10  and  C_25
    7  A    between atoms: C_23  and  C_25
                            x       y       z     vdW  Elec       q    Type
                         _______ _______ _______ _____ _____    ______ ____

>  <TORSDO>
F 7

$$$$
=
 OpenBabel10272413443D

 30 32  0  0  1  0  0  0  0  0999 V2000
  184.6070  177.7910  137.4420 N   0  0  2  0  0  0  0  0  0  0  0  0
  183.9110  176.6260  136.8380 C   0  0  1  0  0  3  0  0  0  0  0  0
  185.9160  177.4970  138.0440 C   0  0  0  0  0  2  0  0  0  0  0  0
  187.7010  178.0150  135.5100 O   0  0  0  0  0  0  0  0  0  0  0  0
  186.8450  176.9260  135.7000 C   0  0  1  0  0  3  0  0  0  0  0  0
  188.5030  176.7510  137.7310 S   0  0  0  0  0  0  0  0  0  0  0  0
  186.8010  176.5790  137.1830 C   0  0  1  0  0  3  0  0  0  0  0  0
  185.4830  177.1860  135.0520 C   0  0  0  0  0  2  0  0  0  0  0  0
  189.7730  177.0290  135.4240 O   0  0  0  0  0  1  0  0  0  0  0  0
  188.8720  177.7240  136.2330 C   0  0  1  0  0  3  0  0  0  0  0  0
  184.4800  176.2340  135.5330 N   0  0  0  0  0  0  0  0  0  0  0  0
  183.3900  176.2710  134.5750 C   0  0  0  0  0  1  0  0  0  0  0  0
  182.2920  178.5180  137.9560 C   0  0  1  0  0  3  0  0  0  0  0  0
  183.0910  179.0030  140.7580 C   0  0  2  0  0  3  0  0  0  0  0  0
  181.4350  179.3570  138.9080 C   0  0  2  0  0  3  0  0  0  0  0  0
  182.1600  179.0030  136.6670 F   0  0  0  0  0  0  0  0  0  0  0  0
  181.6100  178.9160  140.3660 C   0  0  1  0  0  3  0  0  0  0  0  0
  180.0920  179.2930  138.5350 O   0  0  0  0  0  1  0  0  0  0  0  0
  183.7690  178.5620  138.3740 C   0  0  1  0  0  3  0  0  0  0  0  0
  181.0400  177.5200  140.6100 C   0  0  0  0  0  1  0  0  0  0  0  0
  183.9580  178.1440  139.8400 C   0  0  0  0  0  2  0  0  0  0  0  0
  183.2750  178.6190  142.0880 O   0  0  0  0  0  0  0  0  0  0  0  0
  184.4480  178.0220  142.1020 O   0  0  0  0  0  1  0  0  0  0  0  0
  183.8490  175.4090  137.7650 C   0  0  0  0  0  2  0  0  0  0  0  0
  182.4100  175.0860  138.1230 C   0  0  0  0  0  2  0  0  0  0  0  0
  181.7470  174.4440  136.9990 N   0  0  0  0  0  2  0  0  0  0  0  0
  181.4820  173.0380  136.8830 C   0  0  0  0  0  0  0  0  0  0  0  0
  180.0690  172.4700  137.4690 S   0  0  0  0  0  0  0  0  0  0  0  0
  182.4120  172.0660  136.2770 C   0  0  0  0  0  3  0  0  0  0  0  0
  183.3830  171.4470  136.9340 C   0  0  0  0  0  2  0  0  0  0  0  0
  1  3  1  1  0  0  0
  1 19  1  0  0  0  0
  2  1  1  0  0  0  0
  2 24  1  1  0  0  0
  4  5  1  0  0  0  0
  4 10  1  0  0  0  0
  5  8  1  1  0  0  0
  5  7  1  0  0  0  0
  7  6  1  0  0  0  0
  7  3  1  1  0  0  0
  8 11  1  0  0  0  0
 10  9  1  6  0  0  0
 10  6  1  0  0  0  0
 11  2  1  0  0  0  0
 12 11  1  0  0  0  0
 13 16  1  6  0  0  0
 13 19  1  0  0  0  0
 13 15  1  0  0  0  0
 14 22  1  1  0  0  0
 15 18  1  6  0  0  0
 15 17  1  0  0  0  0
 17 20  1  6  0  0  0
 17 14  1  0  0  0  0
 19 21  1  1  0  0  0
 21 14  1  0  0  0  0
 22 23  1  0  0  0  0
 24 25  1  0  0  0  0
 26 25  1  0  0  0  0
 27 26  1  0  0  0  0
 27 28  2  0  0  0  0
 29 27  1  0  0  0  0
 29 30  2  0  0  0  0
M  END
>  <MODEL>
9

>  <REMARK>
 VINA RESULT:      -4.8      6.131      8.302
  Name = 
  7 active torsions:
  status: ('A' for Active; 'I' for Inactive)
    1  A    between atoms: N_1  and  C_22
    2  A    between atoms: C_3  and  O_11
    3  A    between atoms: C_4  and  C_23
    4  A    between atoms: C_7  and  N_10
    5  A    between atoms: C_7  and  C_15
    6  A    between atoms: N_10  and  C_25
    7  A    between atoms: C_23  and  C_25
                            x       y       z     vdW  Elec       q    Type
                         _______ _______ _______ _____ _____    ______ ____

>  <TORSDO>
F 7

$$$$
