=
 OpenBabel10272401453D

 28 32  0  0  1  0  0  0  0  0999 V2000
  183.8220  178.3810  142.1890 C   0  0  0  0  0  0  0  0  0  0  0  0
  185.4420  178.5920  146.8890 C   0  0  0  0  0  1  0  0  0  0  0  0
  187.1250  177.6890  143.6280 C   0  0  0  0  0  0  0  0  0  0  0  0
  184.5960  178.4950  144.5030 C   0  0  0  0  0  0  0  0  0  0  0  0
  186.0960  177.8420  142.7480 N   0  0  0  0  0  0  0  0  0  0  0  0
  182.2940  179.0390  143.9610 C   0  0  0  0  0  3  0  0  0  0  0  0
  185.6390  178.3390  145.4320 C   0  0  0  0  0  0  0  0  0  0  0  0
  183.3140  178.8970  144.9030 C   0  0  0  0  0  3  0  0  0  0  0  0
  186.8980  177.9340  144.9900 C   0  0  0  0  0  3  0  0  0  0  0  0
  182.5450  178.7820  142.6120 C   0  0  0  0  0  3  0  0  0  0  0  0
  184.8520  178.2350  143.1370 C   0  0  0  0  0  0  0  0  0  0  0  0
  188.8360  175.9890  143.4470 C   0  0  0  0  0  3  0  0  0  0  0  0
  190.6440  178.2300  142.4270 C   0  0  0  0  0  3  0  0  0  0  0  0
  191.2800  176.1200  143.5810 C   0  0  0  0  0  0  0  0  0  0  0  0
  188.4560  177.2380  143.1460 C   0  0  0  0  0  0  0  0  0  0  0  0
  188.6870  179.0250  141.4440 O   0  0  0  0  0  1  0  0  0  0  0  0
  191.5240  177.3900  143.2620 C   0  0  0  0  0  3  0  0  0  0  0  0
  189.3090  178.1540  142.3300 C   0  0  0  0  0  0  0  0  0  0  0  0
  192.1580  175.4560  144.3700 F   0  0  0  0  0  0  0  0  0  0  0  0
  190.1210  175.3760  143.0050 C   0  0  0  0  0  2  0  0  0  0  0  0
  184.0810  178.0980  140.7360 C   0  0  2  0  0  3  0  0  0  0  0  0
  184.7310  179.3040  140.0420 C   0  0  0  0  0  2  0  0  0  0  0  0
  182.8810  177.8720  138.5080 C   0  0  1  0  0  3  0  0  0  0  0  0
  183.7680  180.0180  139.3100 O   0  0  0  0  0  0  0  0  0  0  0  0
  182.5470  176.3090  140.2890 O   0  0  0  0  0  1  0  0  0  0  0  0
  182.7950  177.6550  140.0220 C   0  0  1  0  0  3  0  0  0  0  0  0
  181.9810  179.0170  138.0910 C   0  0  0  0  0  2  0  0  0  0  0  0
  183.4770  179.2490  138.1650 C   0  0  2  0  0  3  0  0  0  0  0  0
  1 10  2  0  0  0  0
  1 11  1  0  0  0  0
  3  9  1  0  0  0  0
  4  8  1  0  0  0  0
  4  7  1  0  0  0  0
  5 11  1  0  0  0  0
  5  3  2  0  0  0  0
  6  8  2  0  0  0  0
  7  2  1  0  0  0  0
  9  7  2  0  0  0  0
 10  6  1  0  0  0  0
 11  4  2  0  0  0  0
 13 17  1  0  0  0  0
 14 19  1  0  0  0  0
 15 12  2  0  0  0  0
 15  3  1  0  0  0  0
 16 18  1  0  0  0  0
 17 14  2  0  0  0  0
 18 13  2  0  0  0  0
 18 15  1  0  0  0  0
 20 12  1  0  0  0  0
 20 14  1  0  0  0  0
 21  1  1  1  0  0  0
 22 21  1  0  0  0  0
 23 27  1  1  0  0  0
 23 26  1  0  0  0  0
 24 22  1  0  0  0  0
 26 25  1  6  0  0  0
 26 21  1  0  0  0  0
 28 27  1  6  0  0  0
 28 23  1  0  0  0  0
 28 24  1  0  0  0  0
M  END
>  <MODEL>
1

>  <REMARK>
 VINA RESULT:      -9.8      0.000      0.000
  Name = 
  2 active torsions:
  status: ('A' for Active; 'I' for Inactive)
    1  A    between atoms: C_1  and  C_2
    2  A    between atoms: C_10  and  C_13
                            x       y       z     vdW  Elec       q    Type
                         _______ _______ _______ _____ _____    ______ ____

>  <TORSDO>
F 2

$$$$
=
 OpenBabel10272401453D

 28 32  0  0  1  0  0  0  0  0999 V2000
  187.0700  177.6480  143.7370 C   0  0  0  0  0  0  0  0  0  0  0  0
  182.5210  179.3700  144.7810 C   0  0  0  0  0  1  0  0  0  0  0  0
  184.1160  178.0840  141.6060 C   0  0  0  0  0  0  0  0  0  0  0  0
  184.8430  178.4930  144.2740 C   0  0  0  0  0  0  0  0  0  0  0  0
  185.3730  177.7880  142.0430 N   0  0  0  0  0  0  0  0  0  0  0  0
  186.5440  178.3640  146.0000 C   0  0  0  0  0  3  0  0  0  0  0  0
  183.5420  178.8120  143.8480 C   0  0  0  0  0  0  0  0  0  0  0  0
  185.2450  178.6850  145.6030 C   0  0  0  0  0  3  0  0  0  0  0  0
  183.1860  178.6090  142.5140 C   0  0  0  0  0  3  0  0  0  0  0  0
  187.4530  177.8500  145.0720 C   0  0  0  0  0  3  0  0  0  0  0  0
  185.7610  177.9720  143.3340 C   0  0  0  0  0  0  0  0  0  0  0  0
  182.8030  176.9810  139.9000 C   0  0  0  0  0  3  0  0  0  0  0  0
  184.7680  178.2060  137.9070 C   0  0  0  0  0  3  0  0  0  0  0  0
  183.4010  176.1400  137.6770 C   0  0  0  0  0  0  0  0  0  0  0  0
  183.7570  177.8810  140.1790 C   0  0  0  0  0  0  0  0  0  0  0  0
  184.7730  180.0000  139.3940 O   0  0  0  0  0  1  0  0  0  0  0  0
  184.4760  176.8630  137.3690 C   0  0  0  0  0  3  0  0  0  0  0  0
  184.4270  178.6840  139.1140 C   0  0  0  0  0  0  0  0  0  0  0  0
  183.2530  174.9110  137.1280 F   0  0  0  0  0  0  0  0  0  0  0  0
  182.3040  176.6900  138.5260 C   0  0  0  0  0  2  0  0  0  0  0  0
  188.0570  177.1010  142.7440 C   0  0  2  0  0  3  0  0  0  0  0  0
  188.7980  175.8800  143.3090 C   0  0  0  0  0  2  0  0  0  0  0  0
  190.3270  177.5970  141.7150 C   0  0  1  0  0  3  0  0  0  0  0  0
  190.0750  176.2550  143.7570 O   0  0  0  0  0  0  0  0  0  0  0  0
  188.4220  178.9860  141.3060 O   0  0  0  0  0  1  0  0  0  0  0  0
  189.0320  178.1920  142.2760 C   0  0  1  0  0  3  0  0  0  0  0  0
  191.4760  177.8470  142.6700 C   0  0  0  0  0  2  0  0  0  0  0  0
  190.8640  176.4620  142.6070 C   0  0  2  0  0  3  0  0  0  0  0  0
  1 10  1  0  0  0  0
  3  5  2  0  0  0  0
  3  9  1  0  0  0  0
  4  8  2  0  0  0  0
  5 11  1  0  0  0  0
  7  4  1  0  0  0  0
  7  2  1  0  0  0  0
  8  6  1  0  0  0  0
  9  7  2  0  0  0  0
 10  6  2  0  0  0  0
 11  1  2  0  0  0  0
 11  4  1  0  0  0  0
 12 15  2  0  0  0  0
 13 18  2  0  0  0  0
 14 20  1  0  0  0  0
 15  3  1  0  0  0  0
 17 14  2  0  0  0  0
 17 13  1  0  0  0  0
 18 16  1  0  0  0  0
 18 15  1  0  0  0  0
 19 14  1  0  0  0  0
 20 12  1  0  0  0  0
 21 22  1  0  0  0  0
 21  1  1  1  0  0  0
 22 24  1  0  0  0  0
 23 26  1  0  0  0  0
 23 28  1  0  0  0  0
 23 27  1  1  0  0  0
 26 25  1  6  0  0  0
 26 21  1  0  0  0  0
 28 27  1  1  0  0  0
 28 24  1  0  0  0  0
M  END
>  <MODEL>
2

>  <REMARK>
 VINA RESULT:      -9.6      2.511      6.537
  Name = 
  2 active torsions:
  status: ('A' for Active; 'I' for Inactive)
    1  A    between atoms: C_1  and  C_2
    2  A    between atoms: C_10  and  C_13
                            x       y       z     vdW  Elec       q    Type
                         _______ _______ _______ _____ _____    ______ ____

>  <TORSDO>
F 2

$$$$
=
 OpenBabel10272401453D

 28 32  0  0  1  0  0  0  0  0999 V2000
  187.6700  177.8840  144.2820 C   0  0  0  0  0  0  0  0  0  0  0  0
  182.8500  178.8720  145.0220 C   0  0  0  0  0  1  0  0  0  0  0  0
  184.9700  178.6060  141.9060 C   0  0  0  0  0  0  0  0  0  0  0  0
  185.3070  178.3640  144.6700 C   0  0  0  0  0  0  0  0  0  0  0  0
  186.1900  178.3160  142.4390 N   0  0  0  0  0  0  0  0  0  0  0  0
  186.7850  177.9350  146.5450 C   0  0  0  0  0  3  0  0  0  0  0  0
  184.0390  178.6690  144.1450 C   0  0  0  0  0  0  0  0  0  0  0  0
  185.5160  178.2350  146.0500 C   0  0  0  0  0  3  0  0  0  0  0  0
  183.8780  178.7920  142.7650 C   0  0  0  0  0  3  0  0  0  0  0  0
  187.8570  177.7620  145.6670 C   0  0  0  0  0  3  0  0  0  0  0  0
  186.3910  178.1880  143.7790 C   0  0  0  0  0  0  0  0  0  0  0  0
  183.6360  179.1870  139.9730 C   0  0  0  0  0  3  0  0  0  0  0  0
  185.8420  177.8620  138.3270 C   0  0  0  0  0  3  0  0  0  0  0  0
  183.4360  178.1470  137.7620 C   0  0  0  0  0  0  0  0  0  0  0  0
  184.8170  178.7530  140.4350 C   0  0  0  0  0  0  0  0  0  0  0  0
  187.2500  178.7440  139.9610 O   0  0  0  0  0  1  0  0  0  0  0  0
  184.5890  177.4920  137.6410 C   0  0  0  0  0  3  0  0  0  0  0  0
  185.9630  178.4500  139.5270 C   0  0  0  0  0  0  0  0  0  0  0  0
  182.3480  177.7000  137.0920 F   0  0  0  0  0  0  0  0  0  0  0  0
  183.3370  179.4220  138.5310 C   0  0  0  0  0  2  0  0  0  0  0  0
  188.8320  177.7040  143.3450 C   0  0  2  0  0  3  0  0  0  0  0  0
  188.7320  176.3740  142.5850 C   0  0  0  0  0  2  0  0  0  0  0  0
  191.3120  177.1550  143.3330 C   0  0  1  0  0  3  0  0  0  0  0  0
  189.5820  175.4190  143.1680 O   0  0  0  0  0  0  0  0  0  0  0  0
  190.4700  179.1840  144.2830 O   0  0  0  0  0  1  0  0  0  0  0  0
  190.1680  177.8360  144.0900 C   0  0  1  0  0  3  0  0  0  0  0  0
  191.7420  175.8950  144.0560 C   0  0  0  0  0  2  0  0  0  0  0  0
  190.8980  175.7700  142.8030 C   0  0  2  0  0  3  0  0  0  0  0  0
  1 10  1  0  0  0  0
  3  5  2  0  0  0  0
  3  9  1  0  0  0  0
  4  8  2  0  0  0  0
  5 11  1  0  0  0  0
  7  4  1  0  0  0  0
  7  2  1  0  0  0  0
  8  6  1  0  0  0  0
  9  7  2  0  0  0  0
 10  6  2  0  0  0  0
 11  1  2  0  0  0  0
 11  4  1  0  0  0  0
 12 15  2  0  0  0  0
 13 18  2  0  0  0  0
 14 20  1  0  0  0  0
 15  3  1  0  0  0  0
 17 14  2  0  0  0  0
 17 13  1  0  0  0  0
 18 16  1  0  0  0  0
 18 15  1  0  0  0  0
 19 14  1  0  0  0  0
 20 12  1  0  0  0  0
 21 26  1  0  0  0  0
 21  1  1  1  0  0  0
 22 24  1  0  0  0  0
 22 21  1  0  0  0  0
 23 27  1  1  0  0  0
 23 26  1  0  0  0  0
 26 25  1  6  0  0  0
 28 24  1  0  0  0  0
 28 23  1  0  0  0  0
 28 27  1  1  0  0  0
M  END
>  <MODEL>
3

>  <REMARK>
 VINA RESULT:      -9.2      2.833      6.810
  Name = 
  2 active torsions:
  status: ('A' for Active; 'I' for Inactive)
    1  A    between atoms: C_1  and  C_2
    2  A    between atoms: C_10  and  C_13
                            x       y       z     vdW  Elec       q    Type
                         _______ _______ _______ _____ _____    ______ ____

>  <TORSDO>
F 2

$$$$
=
 OpenBabel10272401453D

 28 32  0  0  1  0  0  0  0  0999 V2000
  188.3490  177.2130  144.0530 C   0  0  0  0  0  0  0  0  0  0  0  0
  185.2320  178.9220  147.5350 C   0  0  0  0  0  1  0  0  0  0  0  0
  184.9130  178.4720  143.7970 C   0  0  0  0  0  0  0  0  0  0  0  0
  186.8350  178.0450  145.7800 C   0  0  0  0  0  0  0  0  0  0  0  0
  186.1380  177.9650  143.4850 N   0  0  0  0  0  0  0  0  0  0  0  0
  189.0650  177.2950  146.3750 C   0  0  0  0  0  3  0  0  0  0  0  0
  185.5800  178.5740  146.1260 C   0  0  0  0  0  0  0  0  0  0  0  0
  187.8250  177.8180  146.7460 C   0  0  0  0  0  3  0  0  0  0  0  0
  184.6260  178.7890  145.1320 C   0  0  0  0  0  3  0  0  0  0  0  0
  189.3260  176.9960  145.0360 C   0  0  0  0  0  3  0  0  0  0  0  0
  187.0980  177.7420  144.4240 C   0  0  0  0  0  0  0  0  0  0  0  0
  182.6230  178.7880  143.0820 C   0  0  0  0  0  3  0  0  0  0  0  0
  183.6910  178.4230  140.2430 C   0  0  0  0  0  3  0  0  0  0  0  0
  181.4050  177.9740  141.1170 C   0  0  0  0  0  0  0  0  0  0  0  0
  183.9130  178.7130  142.7250 C   0  0  0  0  0  0  0  0  0  0  0  0
  185.5630  179.5380  141.0690 O   0  0  0  0  0  1  0  0  0  0  0  0
  182.3810  177.7420  140.2420 C   0  0  0  0  0  3  0  0  0  0  0  0
  184.3570  178.8910  141.3100 C   0  0  0  0  0  0  0  0  0  0  0  0
  180.2510  177.2720  141.0220 F   0  0  0  0  0  0  0  0  0  0  0  0
  181.5070  179.0630  142.1330 C   0  0  0  0  0  2  0  0  0  0  0  0
  188.6420  176.8960  142.6130 C   0  0  2  0  0  3  0  0  0  0  0  0
  189.4350  175.5880  142.4820 C   0  0  0  0  0  2  0  0  0  0  0  0
  190.1270  177.6130  140.6800 C   0  0  1  0  0  3  0  0  0  0  0  0
  190.7960  175.8660  142.2730 O   0  0  0  0  0  0  0  0  0  0  0  0
  188.4290  179.0450  141.5700 O   0  0  0  0  0  1  0  0  0  0  0  0
  189.3570  178.0680  141.9240 C   0  0  1  0  0  3  0  0  0  0  0  0
  191.6190  177.6620  140.9390 C   0  0  0  0  0  2  0  0  0  0  0  0
  190.9180  176.3180  140.9430 C   0  0  2  0  0  3  0  0  0  0  0  0
  1 11  2  0  0  0  0
  1 10  1  0  0  0  0
  3  9  1  0  0  0  0
  4  7  1  0  0  0  0
  4  8  2  0  0  0  0
  5  3  2  0  0  0  0
  5 11  1  0  0  0  0
  6  8  1  0  0  0  0
  7  2  1  0  0  0  0
  9  7  2  0  0  0  0
 10  6  2  0  0  0  0
 11  4  1  0  0  0  0
 13 18  2  0  0  0  0
 14 20  1  0  0  0  0
 15 12  2  0  0  0  0
 15  3  1  0  0  0  0
 16 18  1  0  0  0  0
 17 13  1  0  0  0  0
 17 14  2  0  0  0  0
 18 15  1  0  0  0  0
 19 14  1  0  0  0  0
 20 12  1  0  0  0  0
 21  1  1  1  0  0  0
 22 21  1  0  0  0  0
 23 27  1  1  0  0  0
 23 28  1  0  0  0  0
 23 26  1  0  0  0  0
 24 22  1  0  0  0  0
 26 25  1  6  0  0  0
 26 21  1  0  0  0  0
 28 27  1  1  0  0  0
 28 24  1  0  0  0  0
M  END
>  <MODEL>
4

>  <REMARK>
 VINA RESULT:      -9.0      2.820      6.698
  Name = 
  2 active torsions:
  status: ('A' for Active; 'I' for Inactive)
    1  A    between atoms: C_1  and  C_2
    2  A    between atoms: C_10  and  C_13
                            x       y       z     vdW  Elec       q    Type
                         _______ _______ _______ _____ _____    ______ ____

>  <TORSDO>
F 2

$$$$
=
 OpenBabel10272401453D

 28 32  0  0  1  0  0  0  0  0999 V2000
  189.9350  177.7720  141.7510 C   0  0  0  0  0  0  0  0  0  0  0  0
  187.8310  177.5750  137.2460 C   0  0  0  0  0  1  0  0  0  0  0  0
  186.5330  178.5890  140.6470 C   0  0  0  0  0  0  0  0  0  0  0  0
  188.9240  177.6700  139.5290 C   0  0  0  0  0  0  0  0  0  0  0  0
  187.6390  178.3970  141.4200 N   0  0  0  0  0  0  0  0  0  0  0  0
  191.2440  177.0300  139.8410 C   0  0  0  0  0  3  0  0  0  0  0  0
  187.7970  177.8550  138.7110 C   0  0  0  0  0  0  0  0  0  0  0  0
  190.1410  177.2100  139.0060 C   0  0  0  0  0  3  0  0  0  0  0  0
  186.6050  178.3110  139.2750 C   0  0  0  0  0  3  0  0  0  0  0  0
  191.1420  177.3080  141.2060 C   0  0  0  0  0  3  0  0  0  0  0  0
  188.8200  177.9530  140.9110 C   0  0  0  0  0  0  0  0  0  0  0  0
  185.2370  179.1990  142.5970 C   0  0  0  0  0  3  0  0  0  0  0  0
  182.8140  179.1180  140.7390 C   0  0  0  0  0  3  0  0  0  0  0  0
  182.9020  178.7630  143.2000 C   0  0  0  0  0  0  0  0  0  0  0  0
  185.2660  179.0570  141.2640 C   0  0  0  0  0  0  0  0  0  0  0  0
  184.3110  179.9440  139.1560 O   0  0  0  0  0  1  0  0  0  0  0  0
  182.3260  178.5620  142.0160 C   0  0  0  0  0  3  0  0  0  0  0  0
  184.0870  179.3810  140.4060 C   0  0  0  0  0  0  0  0  0  0  0  0
  182.3680  178.1840  144.3010 F   0  0  0  0  0  0  0  0  0  0  0  0
  184.0570  179.6940  143.3610 C   0  0  0  0  0  2  0  0  0  0  0  0
  189.8320  178.0610  143.2220 C   0  0  2  0  0  3  0  0  0  0  0  0
  190.9930  178.9460  143.6980 C   0  0  0  0  0  2  0  0  0  0  0  0
  190.1600  176.9670  145.4920 C   0  0  1  0  0  3  0  0  0  0  0  0
  191.9690  178.1620  144.3350 O   0  0  0  0  0  0  0  0  0  0  0  0
  188.4320  176.2710  143.9900 O   0  0  0  0  0  1  0  0  0  0  0  0
  189.7370  176.7600  144.0350 C   0  0  1  0  0  3  0  0  0  0  0  0
  191.4970  176.3020  145.7490 C   0  0  0  0  0  2  0  0  0  0  0  0
  191.4460  177.8090  145.5960 C   0  0  2  0  0  3  0  0  0  0  0  0
  2  7  1  0  0  0  0
  3 15  1  0  0  0  0
  3  5  2  0  0  0  0
  4 11  1  0  0  0  0
  6 10  2  0  0  0  0
  7  9  2  0  0  0  0
  7  4  1  0  0  0  0
  8  4  2  0  0  0  0
  8  6  1  0  0  0  0
  9  3  1  0  0  0  0
 10  1  1  0  0  0  0
 11  5  1  0  0  0  0
 11  1  2  0  0  0  0
 12 20  1  0  0  0  0
 13 17  1  0  0  0  0
 14 20  1  0  0  0  0
 14 19  1  0  0  0  0
 15 12  2  0  0  0  0
 16 18  1  0  0  0  0
 17 14  2  0  0  0  0
 18 13  2  0  0  0  0
 18 15  1  0  0  0  0
 21  1  1  6  0  0  0
 21 22  1  0  0  0  0
 21 26  1  0  0  0  0
 22 24  1  0  0  0  0
 23 28  1  0  0  0  0
 23 27  1  6  0  0  0
 24 28  1  0  0  0  0
 26 25  1  1  0  0  0
 26 23  1  0  0  0  0
 28 27  1  6  0  0  0
M  END
>  <MODEL>
5

>  <REMARK>
 VINA RESULT:      -8.6      2.996      7.865
  Name = 
  2 active torsions:
  status: ('A' for Active; 'I' for Inactive)
    1  A    between atoms: C_1  and  C_2
    2  A    between atoms: C_10  and  C_13
                            x       y       z     vdW  Elec       q    Type
                         _______ _______ _______ _____ _____    ______ ____

>  <TORSDO>
F 2

$$$$
=
 OpenBabel10272401453D

 28 32  0  0  1  0  0  0  0  0999 V2000
  189.0380  177.4680  139.6070 C   0  0  0  0  0  0  0  0  0  0  0  0
  189.5680  177.4260  144.5540 C   0  0  0  0  0  1  0  0  0  0  0  0
  186.6950  178.3600  142.2840 C   0  0  0  0  0  0  0  0  0  0  0  0
  189.3200  177.4360  142.0330 C   0  0  0  0  0  0  0  0  0  0  0  0
  187.2440  178.1370  141.0570 N   0  0  0  0  0  0  0  0  0  0  0  0
  191.1480  176.7600  140.5860 C   0  0  0  0  0  3  0  0  0  0  0  0
  188.7800  177.6630  143.3100 C   0  0  0  0  0  0  0  0  0  0  0  0
  190.6330  176.9740  141.8660 C   0  0  0  0  0  3  0  0  0  0  0  0
  187.4700  178.1280  143.4290 C   0  0  0  0  0  3  0  0  0  0  0  0
  190.3560  177.0070  139.4620 C   0  0  0  0  0  3  0  0  0  0  0  0
  188.5170  177.6850  140.8960 C   0  0  0  0  0  0  0  0  0  0  0  0
  184.8400  179.1490  143.6230 C   0  0  0  0  0  3  0  0  0  0  0  0
  183.1670  178.8490  141.0840 C   0  0  0  0  0  3  0  0  0  0  0  0
  182.4280  178.7480  143.4570 C   0  0  0  0  0  0  0  0  0  0  0  0
  185.3050  178.8720  142.3960 C   0  0  0  0  0  0  0  0  0  0  0  0
  185.1220  179.5280  140.0120 O   0  0  0  0  0  1  0  0  0  0  0  0
  182.2720  178.4200  142.1750 C   0  0  0  0  0  3  0  0  0  0  0  0
  184.4840  179.0920  141.1670 C   0  0  0  0  0  0  0  0  0  0  0  0
  181.5460  178.2780  144.3710 F   0  0  0  0  0  0  0  0  0  0  0  0
  183.4850  179.7050  143.8980 C   0  0  0  0  0  2  0  0  0  0  0  0
  188.1960  177.7380  138.3910 C   0  0  2  0  0  3  0  0  0  0  0  0
  187.6060  176.4390  137.8230 C   0  0  0  0  0  2  0  0  0  0  0  0
  188.3890  178.3470  135.9320 C   0  0  1  0  0  3  0  0  0  0  0  0
  188.3500  176.0170  136.7100 O   0  0  0  0  0  0  0  0  0  0  0  0
  189.0280  179.8680  137.6650 O   0  0  0  0  0  1  0  0  0  0  0  0
  188.9910  178.5150  137.3300 C   0  0  1  0  0  3  0  0  0  0  0  0
  189.2870  177.4770  135.0760 C   0  0  0  0  0  2  0  0  0  0  0  0
  188.0160  176.8800  135.6470 C   0  0  2  0  0  3  0  0  0  0  0  0
  1 11  1  0  0  0  0
  3 15  1  0  0  0  0
  3  9  1  0  0  0  0
  4  7  1  0  0  0  0
  5  3  2  0  0  0  0
  6  8  2  0  0  0  0
  7  9  2  0  0  0  0
  7  2  1  0  0  0  0
  8  4  1  0  0  0  0
 10  1  2  0  0  0  0
 10  6  1  0  0  0  0
 11  5  1  0  0  0  0
 11  4  2  0  0  0  0
 12 20  1  0  0  0  0
 13 18  2  0  0  0  0
 13 17  1  0  0  0  0
 14 20  1  0  0  0  0
 14 19  1  0  0  0  0
 15 12  2  0  0  0  0
 16 18  1  0  0  0  0
 17 14  2  0  0  0  0
 18 15  1  0  0  0  0
 21  1  1  1  0  0  0
 22 21  1  0  0  0  0
 23 27  1  6  0  0  0
 23 26  1  0  0  0  0
 24 22  1  0  0  0  0
 26 25  1  1  0  0  0
 26 21  1  0  0  0  0
 28 27  1  6  0  0  0
 28 23  1  0  0  0  0
 28 24  1  0  0  0  0
M  END
>  <MODEL>
6

>  <REMARK>
 VINA RESULT:      -8.6      3.732      6.525
  Name = 
  2 active torsions:
  status: ('A' for Active; 'I' for Inactive)
    1  A    between atoms: C_1  and  C_2
    2  A    between atoms: C_10  and  C_13
                            x       y       z     vdW  Elec       q    Type
                         _______ _______ _______ _____ _____    ______ ____

>  <TORSDO>
F 2

$$$$
=
 OpenBabel10272401453D

 28 32  0  0  1  0  0  0  0  0999 V2000
  189.8330  177.0080  139.6490 C   0  0  0  0  0  0  0  0  0  0  0  0
  191.8800  178.2770  144.0030 C   0  0  0  0  0  1  0  0  0  0  0  0
  188.3050  177.7420  142.9030 C   0  0  0  0  0  0  0  0  0  0  0  0
  190.8600  177.6260  141.7770 C   0  0  0  0  0  0  0  0  0  0  0  0
  188.4770  177.4180  141.5900 N   0  0  0  0  0  0  0  0  0  0  0  0
  192.2480  177.2210  139.8280 C   0  0  0  0  0  3  0  0  0  0  0  0
  190.7090  177.9690  143.1320 C   0  0  0  0  0  0  0  0  0  0  0  0
  192.1250  177.5590  141.1760 C   0  0  0  0  0  3  0  0  0  0  0  0
  189.4310  178.0280  143.6870 C   0  0  0  0  0  3  0  0  0  0  0  0
  191.1080  176.9480  139.0680 C   0  0  0  0  0  3  0  0  0  0  0  0
  189.7060  177.3500  141.0090 C   0  0  0  0  0  0  0  0  0  0  0  0
  185.9320  178.1400  142.6480 C   0  0  0  0  0  3  0  0  0  0  0  0
  185.8340  178.1710  145.7020 C   0  0  0  0  0  3  0  0  0  0  0  0
  184.3120  179.2910  144.0830 C   0  0  0  0  0  0  0  0  0  0  0  0
  186.9370  177.8200  143.4760 C   0  0  0  0  0  0  0  0  0  0  0  0
  187.4850  176.5360  145.5240 O   0  0  0  0  0  1  0  0  0  0  0  0
  184.8810  179.2180  145.2850 C   0  0  0  0  0  3  0  0  0  0  0  0
  186.7090  177.5190  144.9210 C   0  0  0  0  0  0  0  0  0  0  0  0
  183.4640  180.3120  143.8150 F   0  0  0  0  0  0  0  0  0  0  0  0
  184.5020  178.2210  143.0610 C   0  0  0  0  0  2  0  0  0  0  0  0
  188.6110  176.7200  138.8210 C   0  0  2  0  0  3  0  0  0  0  0  0
  188.8730  175.5880  137.8180 C   0  0  0  0  0  2  0  0  0  0  0  0
  187.2390  177.6670  136.9040 C   0  0  1  0  0  3  0  0  0  0  0  0
  189.1130  176.1200  136.5410 O   0  0  0  0  0  0  0  0  0  0  0  0
  187.3710  178.7630  139.0270 O   0  0  0  0  0  1  0  0  0  0  0  0
  188.1040  177.9930  138.1260 C   0  0  1  0  0  3  0  0  0  0  0  0
  187.9830  178.0110  135.6300 C   0  0  0  0  0  2  0  0  0  0  0  0
  187.8680  176.5570  136.0430 C   0  0  2  0  0  3  0  0  0  0  0  0
  1 11  1  0  0  0  0
  3 15  1  0  0  0  0
  3  9  1  0  0  0  0
  4  7  1  0  0  0  0
  5  3  2  0  0  0  0
  6  8  2  0  0  0  0
  7  9  2  0  0  0  0
  7  2  1  0  0  0  0
  8  4  1  0  0  0  0
 10  1  2  0  0  0  0
 10  6  1  0  0  0  0
 11  5  1  0  0  0  0
 11  4  2  0  0  0  0
 12 20  1  0  0  0  0
 12 15  2  0  0  0  0
 14 17  2  0  0  0  0
 15 18  1  0  0  0  0
 17 13  1  0  0  0  0
 18 16  1  0  0  0  0
 18 13  2  0  0  0  0
 19 14  1  0  0  0  0
 20 14  1  0  0  0  0
 21  1  1  6  0  0  0
 22 21  1  0  0  0  0
 23 27  1  6  0  0  0
 23 26  1  0  0  0  0
 24 22  1  0  0  0  0
 26 21  1  0  0  0  0
 26 25  1  1  0  0  0
 28 27  1  6  0  0  0
 28 24  1  0  0  0  0
 28 23  1  0  0  0  0
M  END
>  <MODEL>
7

>  <REMARK>
 VINA RESULT:      -8.3      3.564      6.356
  Name = 
  2 active torsions:
  status: ('A' for Active; 'I' for Inactive)
    1  A    between atoms: C_1  and  C_2
    2  A    between atoms: C_10  and  C_13
                            x       y       z     vdW  Elec       q    Type
                         _______ _______ _______ _____ _____    ______ ____

>  <TORSDO>
F 2

$$$$
=
 OpenBabel10272401453D

 28 32  0  0  1  0  0  0  0  0999 V2000
  183.3580  178.4130  141.8400 C   0  0  0  0  0  0  0  0  0  0  0  0
  184.8630  178.7730  146.5690 C   0  0  0  0  0  1  0  0  0  0  0  0
  186.7080  178.2070  143.3200 C   0  0  0  0  0  0  0  0  0  0  0  0
  184.0740  178.5970  144.1680 C   0  0  0  0  0  0  0  0  0  0  0  0
  185.6800  178.2180  142.4260 N   0  0  0  0  0  0  0  0  0  0  0  0
  181.7230  178.7930  143.5990 C   0  0  0  0  0  3  0  0  0  0  0  0
  185.1160  178.5840  145.1110 C   0  0  0  0  0  0  0  0  0  0  0  0
  182.7400  178.7880  144.5550 C   0  0  0  0  0  3  0  0  0  0  0  0
  186.4280  178.3850  144.6820 C   0  0  0  0  0  3  0  0  0  0  0  0
  182.0290  178.6050  142.2490 C   0  0  0  0  0  3  0  0  0  0  0  0
  184.3850  178.4080  142.8020 C   0  0  0  0  0  0  0  0  0  0  0  0
  188.3630  178.1900  141.5550 C   0  0  0  0  0  3  0  0  0  0  0  0
  190.1340  176.6760  143.5310 C   0  0  0  0  0  3  0  0  0  0  0  0
  190.1800  176.6280  141.0440 C   0  0  0  0  0  0  0  0  0  0  0  0
  188.0990  177.9760  142.8520 C   0  0  0  0  0  0  0  0  0  0  0  0
  189.1050  178.0380  145.1160 O   0  0  0  0  0  1  0  0  0  0  0  0
  190.4140  176.0530  142.2220 C   0  0  0  0  0  3  0  0  0  0  0  0
  189.1560  177.5480  143.8170 C   0  0  0  0  0  0  0  0  0  0  0  0
  190.4660  175.9470  139.9080 F   0  0  0  0  0  0  0  0  0  0  0  0
  189.7120  178.0410  140.9400 C   0  0  0  0  0  2  0  0  0  0  0  0
  183.6770  178.2040  140.3860 C   0  0  2  0  0  3  0  0  0  0  0  0
  183.9620  179.5380  139.6810 C   0  0  0  0  0  2  0  0  0  0  0  0
  182.5740  177.6380  138.1690 C   0  0  1  0  0  3  0  0  0  0  0  0
  182.8340  179.9510  138.9540 O   0  0  0  0  0  0  0  0  0  0  0  0
  182.6980  176.0560  139.9600 O   0  0  0  0  0  1  0  0  0  0  0  0
  182.5610  177.4160  139.6840 C   0  0  1  0  0  3  0  0  0  0  0  0
  181.3890  178.4850  137.7530 C   0  0  0  0  0  2  0  0  0  0  0  0
  182.7620  179.1240  137.8140 C   0  0  2  0  0  3  0  0  0  0  0  0
  1 10  2  0  0  0  0
  1 11  1  0  0  0  0
  3  9  1  0  0  0  0
  4  8  1  0  0  0  0
  4  7  1  0  0  0  0
  5 11  1  0  0  0  0
  5  3  2  0  0  0  0
  6  8  2  0  0  0  0
  7  2  1  0  0  0  0
  9  7  2  0  0  0  0
 10  6  1  0  0  0  0
 11  4  2  0  0  0  0
 12 15  2  0  0  0  0
 13 18  2  0  0  0  0
 14 17  2  0  0  0  0
 15  3  1  0  0  0  0
 15 18  1  0  0  0  0
 17 13  1  0  0  0  0
 18 16  1  0  0  0  0
 19 14  1  0  0  0  0
 20 14  1  0  0  0  0
 20 12  1  0  0  0  0
 21  1  1  1  0  0  0
 22 21  1  0  0  0  0
 23 27  1  1  0  0  0
 23 26  1  0  0  0  0
 24 22  1  0  0  0  0
 26 25  1  6  0  0  0
 26 21  1  0  0  0  0
 28 27  1  6  0  0  0
 28 23  1  0  0  0  0
 28 24  1  0  0  0  0
M  END
>  <MODEL>
8

>  <REMARK>
 VINA RESULT:      -8.3      1.459      1.754
  Name = 
  2 active torsions:
  status: ('A' for Active; 'I' for Inactive)
    1  A    between atoms: C_1  and  C_2
    2  A    between atoms: C_10  and  C_13
                            x       y       z     vdW  Elec       q    Type
                         _______ _______ _______ _____ _____    ______ ____

>  <TORSDO>
F 2

$$$$
=
 OpenBabel10272401453D

 28 32  0  0  1  0  0  0  0  0999 V2000
  186.1170  178.2260  139.8170 C   0  0  0  0  0  0  0  0  0  0  0  0
  182.7010  179.3210  143.2650 C   0  0  0  0  0  1  0  0  0  0  0  0
  186.2030  177.9180  143.4710 C   0  0  0  0  0  0  0  0  0  0  0  0
  184.4260  178.7740  141.4920 C   0  0  0  0  0  0  0  0  0  0  0  0
  186.5490  177.8760  142.1540 N   0  0  0  0  0  0  0  0  0  0  0  0
  183.9660  179.1320  139.1360 C   0  0  0  0  0  3  0  0  0  0  0  0
  184.0420  178.8220  142.8430 C   0  0  0  0  0  0  0  0  0  0  0  0
  183.5620  179.1940  140.4700 C   0  0  0  0  0  3  0  0  0  0  0  0
  184.9320  178.3900  143.8260 C   0  0  0  0  0  3  0  0  0  0  0  0
  185.2360  178.6500  138.8100 C   0  0  0  0  0  3  0  0  0  0  0  0
  185.7120  178.2870  141.1630 C   0  0  0  0  0  0  0  0  0  0  0  0
  186.8330  177.6460  145.7920 C   0  0  0  0  0  3  0  0  0  0  0  0
  189.5850  176.8610  144.7230 C   0  0  0  0  0  3  0  0  0  0  0  0
  188.9960  177.8570  146.9250 C   0  0  0  0  0  0  0  0  0  0  0  0
  187.1540  177.4370  144.5070 C   0  0  0  0  0  0  0  0  0  0  0  0
  188.3620  175.8920  142.9920 O   0  0  0  0  0  1  0  0  0  0  0  0
  189.8660  177.6490  145.9380 C   0  0  0  0  0  3  0  0  0  0  0  0
  188.4020  176.7210  144.1060 C   0  0  0  0  0  0  0  0  0  0  0  0
  189.3680  178.6140  147.9850 F   0  0  0  0  0  0  0  0  0  0  0  0
  187.6610  177.1910  146.9450 C   0  0  0  0  0  2  0  0  0  0  0  0
  187.4790  177.7010  139.4560 C   0  0  2  0  0  3  0  0  0  0  0  0
  188.5700  178.7450  139.7350 C   0  0  0  0  0  2  0  0  0  0  0  0
  188.9420  177.1810  137.4450 C   0  0  1  0  0  3  0  0  0  0  0  0
  188.9470  179.3800  138.5410 O   0  0  0  0  0  0  0  0  0  0  0  0
  186.9480  175.9440  137.9120 O   0  0  0  0  0  1  0  0  0  0  0  0
  187.5140  177.2150  138.0000 C   0  0  1  0  0  3  0  0  0  0  0  0
  189.1360  178.2890  136.4300 C   0  0  0  0  0  2  0  0  0  0  0  0
  189.7250  178.4540  137.8170 C   0  0  2  0  0  3  0  0  0  0  0  0
  1 11  1  0  0  0  0
  3  9  1  0  0  0  0
  3 15  1  0  0  0  0
  4  7  1  0  0  0  0
  5  3  2  0  0  0  0
  6  8  2  0  0  0  0
  7  2  1  0  0  0  0
  7  9  2  0  0  0  0
  8  4  1  0  0  0  0
 10  6  1  0  0  0  0
 10  1  2  0  0  0  0
 11  4  2  0  0  0  0
 11  5  1  0  0  0  0
 12 20  1  0  0  0  0
 13 17  1  0  0  0  0
 14 20  1  0  0  0  0
 14 19  1  0  0  0  0
 15 12  2  0  0  0  0
 16 18  1  0  0  0  0
 17 14  2  0  0  0  0
 18 15  1  0  0  0  0
 18 13  2  0  0  0  0
 21 22  1  0  0  0  0
 21  1  1  6  0  0  0
 23 27  1  6  0  0  0
 23 28  1  0  0  0  0
 23 26  1  0  0  0  0
 24 22  1  0  0  0  0
 26 25  1  1  0  0  0
 26 21  1  0  0  0  0
 28 27  1  6  0  0  0
 28 24  1  0  0  0  0
M  END
>  <MODEL>
9

>  <REMARK>
 VINA RESULT:      -8.3      2.890      4.218
  Name = 
  2 active torsions:
  status: ('A' for Active; 'I' for Inactive)
    1  A    between atoms: C_1  and  C_2
    2  A    between atoms: C_10  and  C_13
                            x       y       z     vdW  Elec       q    Type
                         _______ _______ _______ _____ _____    ______ ____

>  <TORSDO>
F 2

$$$$
