=
 OpenBabel10272415303D

 34 38  0  0  1  0  0  0  0  0999 V2000
  182.4750  176.9940  139.2010 C   0  0  1  0  0  3  0  0  0  0  0  0
  184.8770  176.4300  136.1360 C   0  0  0  0  0  2  0  0  0  0  0  0
  182.6940  177.7040  136.3340 C   0  0  0  0  0  2  0  0  0  0  0  0
  182.6200  178.6800  141.0890 C   0  0  1  0  0  3  0  0  0  0  0  0
  182.5500  177.1990  140.7150 C   0  0  0  0  0  2  0  0  0  0  0  0
  181.4160  179.3480  138.9730 C   0  0  2  0  0  3  0  0  0  0  0  0
  182.4840  180.0480  138.4070 O   0  0  0  0  0  1  0  0  0  0  0  0
  181.4480  179.4630  140.4950 C   0  0  0  0  0  2  0  0  0  0  0  0
  181.3230  177.6400  137.0040 C   0  0  1  0  0  3  0  0  0  0  0  0
  181.3940  177.8720  138.5270 C   0  0  1  0  0  3  0  0  0  0  0  0
  180.3390  178.5640  136.3110 C   0  0  0  0  0  1  0  0  0  0  0  0
  186.1480  176.2850  136.9730 C   0  0  0  0  0  2  0  0  0  0  0  0
  186.7200  177.6510  137.3590 C   0  0  1  0  0  3  0  0  0  0  0  0
  185.6540  178.6960  137.7110 C   0  0  0  0  0  2  0  0  0  0  0  0
  183.6190  176.6830  136.9860 C   0  0  2  0  0  3  0  0  0  0  0  0
  184.6790  178.2500  138.8030 C   0  0  0  0  0  2  0  0  0  0  0  0
  183.8390  176.9920  138.4840 C   0  0  1  0  0  3  0  0  0  0  0  0
  187.7520  177.5010  138.4660 C   0  0  0  0  0  2  0  0  0  0  0  0
  189.0160  179.1930  138.0580 O   0  0  0  0  0  1  0  0  0  0  0  0
  188.1360  178.7600  138.9360 O   0  0  0  0  0  0  0  0  0  0  0  0
  182.7360  178.8730  142.6020 C   0  0  0  0  0  2  0  0  0  0  0  0
  186.4080  177.9130  142.7970 C   0  0  0  0  0  3  0  0  0  0  0  0
  184.3140  178.5750  144.5270 C   0  0  0  0  0  3  0  0  0  0  0  0
  188.2180  177.9940  146.1410 C   0  0  1  0  0  3  0  0  0  0  0  0
  187.9960  177.5640  144.6870 C   0  0  0  0  0  2  0  0  0  0  0  0
  186.6390  177.9560  144.1740 C   0  0  0  0  0  0  0  0  0  0  0  0
  185.7880  178.3940  146.5310 C   0  0  0  0  0  2  0  0  0  0  0  0
  185.5740  178.2690  145.0490 C   0  0  0  0  0  0  0  0  0  0  0  0
  187.0160  177.6210  147.0040 C   0  0  0  0  0  2  0  0  0  0  0  0
  184.0920  178.5410  143.1480 C   0  0  0  0  0  0  0  0  0  0  0  0
  185.1430  178.2110  142.2840 C   0  0  0  0  0  3  0  0  0  0  0  0
  189.5100  177.4110  146.7090 C   0  0  0  0  0  2  0  0  0  0  0  0
  190.5880  177.2390  145.6490 C   0  0  0  0  0  2  0  0  0  0  0  0
  191.8330  176.8470  146.2850 N   0  0  0  0  0  1  0  0  0  0  0  0
  1  5  1  1  0  0  0
  2 12  1  0  0  0  0
  2 15  1  0  0  0  0
  3 15  1  0  0  0  0
  3  9  1  0  0  0  0
  4 21  1  1  0  0  0
  5  4  1  0  0  0  0
  6  7  1  6  0  0  0
  6  8  1  0  0  0  0
  8  4  1  0  0  0  0
  9 11  1  6  0  0  0
  9 10  1  0  0  0  0
 10  6  1  0  0  0  0
 10  1  1  0  0  0  0
 12 13  1  0  0  0  0
 13 14  1  0  0  0  0
 13 18  1  0  0  0  0
 14 16  1  0  0  0  0
 15 17  1  0  0  0  0
 17 16  1  0  0  0  0
 17  1  1  0  0  0  0
 18 20  1  0  0  0  0
 19 20  1  0  0  0  0
 21 30  1  0  0  0  0
 22 26  1  0  0  0  0
 23 28  1  0  0  0  0
 24 32  1  0  0  0  0
 24 29  1  0  0  0  0
 25 24  1  0  0  0  0
 26 25  1  0  0  0  0
 26 28  2  0  0  0  0
 27 29  1  0  0  0  0
 28 27  1  0  0  0  0
 30 23  2  0  0  0  0
 31 22  2  0  0  0  0
 31 30  1  0  0  0  0
 33 34  1  0  0  0  0
 33 32  1  0  0  0  0
M  END
>  <MODEL>
1

>  <REMARK>
 VINA RESULT:      -9.1      0.000      0.000
  Name = 
  6 active torsions:
  status: ('A' for Active; 'I' for Inactive)
    1  A    between atoms: C_3  and  O_24
    2  A    between atoms: C_3  and  C_25
    3  A    between atoms: C_7  and  C_11
    4  A    between atoms: C_8  and  C_18
    5  A    between atoms: C_11  and  C_15
    6  A    between atoms: C_18  and  C_30
                            x       y       z     vdW  Elec       q    Type
                         _______ _______ _______ _____ _____    ______ ____

>  <TORSDO>
F 6

$$$$
=
 OpenBabel10272415303D

 34 38  0  0  1  0  0  0  0  0999 V2000
  189.0070  176.3650  143.5540 C   0  0  1  0  0  3  0  0  0  0  0  0
  185.4000  177.8050  144.1800 C   0  0  0  0  0  2  0  0  0  0  0  0
  187.5410  178.0250  145.5200 C   0  0  0  0  0  2  0  0  0  0  0  0
  190.8720  177.2410  142.0760 C   0  0  1  0  0  3  0  0  0  0  0  0
  189.9520  176.0600  142.3900 C   0  0  0  0  0  2  0  0  0  0  0  0
  190.7280  178.0810  144.4540 C   0  0  2  0  0  3  0  0  0  0  0  0
  190.0700  179.2750  144.1510 O   0  0  0  0  0  1  0  0  0  0  0  0
  191.6600  177.6800  143.3120 C   0  0  0  0  0  2  0  0  0  0  0  0
  188.7710  177.2320  145.9540 C   0  0  1  0  0  3  0  0  0  0  0  0
  189.7390  176.9460  144.7870 C   0  0  1  0  0  3  0  0  0  0  0  0
  189.4530  177.8960  147.1360 C   0  0  0  0  0  1  0  0  0  0  0  0
  185.0120  177.8740  142.7020 C   0  0  0  0  0  2  0  0  0  0  0  0
  185.5630  179.1380  142.0390 C   0  0  1  0  0  3  0  0  0  0  0  0
  186.9720  179.5250  142.5090 C   0  0  0  0  0  2  0  0  0  0  0  0
  186.8230  177.2680  144.4070 C   0  0  2  0  0  3  0  0  0  0  0  0
  188.0070  178.4080  142.3620 C   0  0  0  0  0  2  0  0  0  0  0  0
  187.7190  177.1140  143.1580 C   0  0  1  0  0  3  0  0  0  0  0  0
  185.4840  179.0220  140.5250 C   0  0  0  0  0  2  0  0  0  0  0  0
  184.4540  180.2710  139.1090 O   0  0  0  0  0  1  0  0  0  0  0  0
  184.2180  179.4140  140.0800 O   0  0  0  0  0  0  0  0  0  0  0  0
  191.7850  176.9420  140.8860 C   0  0  0  0  0  2  0  0  0  0  0  0
  190.9180  176.2670  137.2470 C   0  0  0  0  0  3  0  0  0  0  0  0
  189.8880  177.6860  139.4260 C   0  0  0  0  0  3  0  0  0  0  0  0
  187.6220  177.5160  135.8170 C   0  0  1  0  0  3  0  0  0  0  0  0
  189.0710  177.0220  135.7520 C   0  0  0  0  0  2  0  0  0  0  0  0
  189.7240  176.9790  137.1050 C   0  0  0  0  0  0  0  0  0  0  0  0
  187.9030  178.4390  138.1170 C   0  0  0  0  0  2  0  0  0  0  0  0
  189.2160  177.7140  138.2000 C   0  0  0  0  0  0  0  0  0  0  0  0
  187.5180  178.7720  136.6780 C   0  0  0  0  0  2  0  0  0  0  0  0
  191.0750  176.9640  139.5650 C   0  0  0  0  0  0  0  0  0  0  0  0
  191.5880  176.2530  138.4730 C   0  0  0  0  0  3  0  0  0  0  0  0
  187.0440  177.7500  134.4240 C   0  0  0  0  0  2  0  0  0  0  0  0
  185.5590  177.4270  134.3460 C   0  0  0  0  0  2  0  0  0  0  0  0
  185.2540  176.3300  135.2470 N   0  0  0  0  0  1  0  0  0  0  0  0
  1  5  1  6  0  0  0
  1 10  1  0  0  0  0
  2 15  1  0  0  0  0
  3  9  1  0  0  0  0
  4 21  1  6  0  0  0
  4  5  1  0  0  0  0
  4  8  1  0  0  0  0
  6  7  1  6  0  0  0
  6 10  1  0  0  0  0
  8  6  1  0  0  0  0
  9 11  1  1  0  0  0
 10  9  1  0  0  0  0
 12  2  1  0  0  0  0
 13 14  1  0  0  0  0
 13 12  1  0  0  0  0
 15  3  1  0  0  0  0
 16 14  1  0  0  0  0
 16 17  1  0  0  0  0
 17  1  1  0  0  0  0
 17 15  1  0  0  0  0
 18 13  1  0  0  0  0
 19 20  1  0  0  0  0
 20 18  1  0  0  0  0
 22 31  1  0  0  0  0
 23 30  1  0  0  0  0
 24 29  1  0  0  0  0
 25 24  1  0  0  0  0
 25 26  1  0  0  0  0
 26 22  2  0  0  0  0
 26 28  1  0  0  0  0
 27 28  1  0  0  0  0
 28 23  2  0  0  0  0
 29 27  1  0  0  0  0
 30 21  1  0  0  0  0
 31 30  2  0  0  0  0
 32 24  1  0  0  0  0
 33 32  1  0  0  0  0
 33 34  1  0  0  0  0
M  END
>  <MODEL>
2

>  <REMARK>
 VINA RESULT:      -8.8      3.591      8.905
  Name = 
  6 active torsions:
  status: ('A' for Active; 'I' for Inactive)
    1  A    between atoms: C_3  and  O_24
    2  A    between atoms: C_3  and  C_25
    3  A    between atoms: C_7  and  C_11
    4  A    between atoms: C_8  and  C_18
    5  A    between atoms: C_11  and  C_15
    6  A    between atoms: C_18  and  C_30
                            x       y       z     vdW  Elec       q    Type
                         _______ _______ _______ _____ _____    ______ ____

>  <TORSDO>
F 6

$$$$
=
 OpenBabel10272415303D

 34 38  0  0  1  0  0  0  0  0999 V2000
  182.3750  177.0830  139.3250 C   0  0  1  0  0  3  0  0  0  0  0  0
  185.1830  176.6390  136.6060 C   0  0  0  0  0  2  0  0  0  0  0  0
  182.9120  177.7600  136.4930 C   0  0  0  0  0  2  0  0  0  0  0  0
  182.1610  178.8050  141.1740 C   0  0  1  0  0  3  0  0  0  0  0  0
  182.2400  177.3170  140.8310 C   0  0  0  0  0  2  0  0  0  0  0  0
  181.1970  179.3530  138.9050 C   0  0  2  0  0  3  0  0  0  0  0  0
  182.2800  180.1170  138.4630 O   0  0  0  0  0  1  0  0  0  0  0  0
  181.0250  179.4950  140.4160 C   0  0  0  0  0  2  0  0  0  0  0  0
  181.4750  177.6110  136.9840 C   0  0  1  0  0  3  0  0  0  0  0  0
  181.3320  177.8720  138.4980 C   0  0  1  0  0  3  0  0  0  0  0  0
  180.5280  178.4530  136.1490 C   0  0  0  0  0  1  0  0  0  0  0  0
  186.3440  176.5970  137.6010 C   0  0  0  0  0  2  0  0  0  0  0  0
  186.7680  178.0050  138.0230 C   0  0  1  0  0  3  0  0  0  0  0  0
  185.5970  178.9790  138.2110 C   0  0  0  0  0  2  0  0  0  0  0  0
  183.8130  176.8170  137.2820 C   0  0  2  0  0  3  0  0  0  0  0  0
  184.5220  178.4830  139.1800 C   0  0  0  0  0  2  0  0  0  0  0  0
  183.8170  177.1650  138.7880 C   0  0  1  0  0  3  0  0  0  0  0  0
  187.6560  177.9460  139.2560 C   0  0  0  0  0  2  0  0  0  0  0  0
  188.9710  179.1330  138.0360 O   0  0  0  0  0  1  0  0  0  0  0  0
  188.5270  179.0390  139.2720 O   0  0  0  0  0  0  0  0  0  0  0  0
  182.0680  179.0300  142.6840 C   0  0  0  0  0  2  0  0  0  0  0  0
  184.6260  178.6760  145.4740 C   0  0  0  0  0  3  0  0  0  0  0  0
  184.4840  178.3630  142.6990 C   0  0  0  0  0  3  0  0  0  0  0  0
  188.0770  177.2700  144.7180 C   0  0  1  0  0  3  0  0  0  0  0  0
  187.0410  178.0610  145.5230 C   0  0  0  0  0  2  0  0  0  0  0  0
  185.7560  178.2550  144.7690 C   0  0  0  0  0  0  0  0  0  0  0  0
  186.8560  177.6050  142.5690 C   0  0  0  0  0  2  0  0  0  0  0  0
  185.6900  178.1190  143.3630 C   0  0  0  0  0  0  0  0  0  0  0  0
  188.1830  177.8110  143.2950 C   0  0  0  0  0  2  0  0  0  0  0  0
  183.3540  178.7730  143.4100 C   0  0  0  0  0  0  0  0  0  0  0  0
  183.4280  178.9280  144.8000 C   0  0  0  0  0  3  0  0  0  0  0  0
  189.4380  177.2600  145.4090 C   0  0  0  0  0  2  0  0  0  0  0  0
  190.5820  176.9870  144.4430 C   0  0  0  0  0  2  0  0  0  0  0  0
  191.5470  178.0690  144.5170 N   0  0  0  0  0  1  0  0  0  0  0  0
  1  5  1  1  0  0  0
  2 15  1  0  0  0  0
  2 12  1  0  0  0  0
  3  9  1  0  0  0  0
  3 15  1  0  0  0  0
  4 21  1  1  0  0  0
  5  4  1  0  0  0  0
  6  7  1  1  0  0  0
  6  8  1  0  0  0  0
  8  4  1  0  0  0  0
  9 11  1  6  0  0  0
  9 10  1  0  0  0  0
 10  6  1  0  0  0  0
 10  1  1  0  0  0  0
 12 13  1  0  0  0  0
 13 14  1  0  0  0  0
 13 18  1  0  0  0  0
 14 16  1  0  0  0  0
 15 17  1  0  0  0  0
 17 16  1  0  0  0  0
 17  1  1  0  0  0  0
 18 20  1  0  0  0  0
 19 20  1  0  0  0  0
 21 30  1  0  0  0  0
 23 28  2  0  0  0  0
 23 30  1  0  0  0  0
 24 32  1  0  0  0  0
 24 25  1  0  0  0  0
 26 22  2  0  0  0  0
 26 25  1  0  0  0  0
 27 29  1  0  0  0  0
 27 28  1  0  0  0  0
 28 26  1  0  0  0  0
 29 24  1  0  0  0  0
 30 31  2  0  0  0  0
 31 22  1  0  0  0  0
 33 34  1  0  0  0  0
 33 32  1  0  0  0  0
M  END
>  <MODEL>
3

>  <REMARK>
 VINA RESULT:      -8.7      0.824      1.521
  Name = 
  6 active torsions:
  status: ('A' for Active; 'I' for Inactive)
    1  A    between atoms: C_3  and  O_24
    2  A    between atoms: C_3  and  C_25
    3  A    between atoms: C_7  and  C_11
    4  A    between atoms: C_8  and  C_18
    5  A    between atoms: C_11  and  C_15
    6  A    between atoms: C_18  and  C_30
                            x       y       z     vdW  Elec       q    Type
                         _______ _______ _______ _____ _____    ______ ____

>  <TORSDO>
F 6

$$$$
=
 OpenBabel10272415303D

 34 38  0  0  1  0  0  0  0  0999 V2000
  189.7660  176.4280  135.9610 C   0  0  1  0  0  3  0  0  0  0  0  0
  186.3840  175.2270  134.3510 C   0  0  0  0  0  2  0  0  0  0  0  0
  188.6250  174.0660  134.5890 C   0  0  0  0  0  2  0  0  0  0  0  0
  190.4980  176.4360  138.3890 C   0  0  1  0  0  3  0  0  0  0  0  0
  190.2600  177.2780  137.1350 C   0  0  0  0  0  2  0  0  0  0  0  0
  190.9380  174.3680  137.0090 C   0  0  2  0  0  3  0  0  0  0  0  0
  189.8260  173.6500  137.4560 O   0  0  0  0  0  1  0  0  0  0  0  0
  191.4630  175.2820  138.1140 C   0  0  0  0  0  2  0  0  0  0  0  0
  190.1270  174.3330  134.5300 C   0  0  1  0  0  3  0  0  0  0  0  0
  190.6310  175.1670  135.7260 C   0  0  1  0  0  3  0  0  0  0  0  0
  190.9000  173.0400  134.3460 C   0  0  0  0  0  1  0  0  0  0  0  0
  185.4850  176.0820  135.2450 C   0  0  0  0  0  2  0  0  0  0  0  0
  185.2490  175.4140  136.6020 C   0  0  1  0  0  3  0  0  0  0  0  0
  186.4840  174.7000  137.1680 C   0  0  0  0  0  2  0  0  0  0  0  0
  187.8810  175.3950  134.6610 C   0  0  2  0  0  3  0  0  0  0  0  0
  187.7250  175.5890  137.2720 C   0  0  0  0  0  2  0  0  0  0  0  0
  188.2460  176.1790  135.9420 C   0  0  1  0  0  3  0  0  0  0  0  0
  184.6690  176.4120  137.5920 C   0  0  0  0  0  2  0  0  0  0  0  0
  185.5860  178.2870  138.1120 O   0  0  0  0  0  1  0  0  0  0  0  0
  184.8970  177.7170  137.1450 O   0  0  0  0  0  0  0  0  0  0  0  0
  190.9510  177.2990  139.5680 C   0  0  0  0  0  2  0  0  0  0  0  0
  187.6380  178.0400  141.2780 C   0  0  0  0  0  3  0  0  0  0  0  0
  190.2100  177.1810  141.9600 C   0  0  0  0  0  3  0  0  0  0  0  0
  187.2020  177.2880  144.9810 C   0  0  1  0  0  3  0  0  0  0  0  0
  186.8770  177.9770  143.6520 C   0  0  0  0  0  2  0  0  0  0  0  0
  187.9360  177.7450  142.6100 C   0  0  0  0  0  0  0  0  0  0  0  0
  189.5930  176.9380  144.3640 C   0  0  0  0  0  2  0  0  0  0  0  0
  189.2430  177.3320  142.9580 C   0  0  0  0  0  0  0  0  0  0  0  0
  188.6480  177.5580  145.3890 C   0  0  0  0  0  2  0  0  0  0  0  0
  189.9030  177.4670  140.6280 C   0  0  0  0  0  0  0  0  0  0  0  0
  188.6140  177.8960  140.2890 C   0  0  0  0  0  3  0  0  0  0  0  0
  186.2290  177.7020  146.0820 C   0  0  0  0  0  2  0  0  0  0  0  0
  185.4950  178.9950  145.7570 C   0  0  0  0  0  2  0  0  0  0  0  0
  184.0670  178.7950  145.9230 N   0  0  0  0  0  1  0  0  0  0  0  0
  1  5  1  1  0  0  0
  2 15  1  0  0  0  0
  2 12  1  0  0  0  0
  3 15  1  0  0  0  0
  4 21  1  1  0  0  0
  5  4  1  0  0  0  0
  6  7  1  1  0  0  0
  6  8  1  0  0  0  0
  8  4  1  0  0  0  0
  9 11  1  1  0  0  0
  9  3  1  0  0  0  0
  9 10  1  0  0  0  0
 10  1  1  0  0  0  0
 10  6  1  0  0  0  0
 12 13  1  0  0  0  0
 13 14  1  0  0  0  0
 13 18  1  0  0  0  0
 14 16  1  0  0  0  0
 15 17  1  0  0  0  0
 17  1  1  0  0  0  0
 17 16  1  0  0  0  0
 20 18  1  0  0  0  0
 20 19  1  0  0  0  0
 21 30  1  0  0  0  0
 22 26  1  0  0  0  0
 23 28  1  0  0  0  0
 24 29  1  0  0  0  0
 24 32  1  0  0  0  0
 25 24  1  0  0  0  0
 26 28  2  0  0  0  0
 26 25  1  0  0  0  0
 27 29  1  0  0  0  0
 28 27  1  0  0  0  0
 30 23  2  0  0  0  0
 31 30  1  0  0  0  0
 31 22  2  0  0  0  0
 33 34  1  0  0  0  0
 33 32  1  0  0  0  0
M  END
>  <MODEL>
4

>  <REMARK>
 VINA RESULT:      -8.3      3.321      6.483
  Name = 
  6 active torsions:
  status: ('A' for Active; 'I' for Inactive)
    1  A    between atoms: C_3  and  O_24
    2  A    between atoms: C_3  and  C_25
    3  A    between atoms: C_7  and  C_11
    4  A    between atoms: C_8  and  C_18
    5  A    between atoms: C_11  and  C_15
    6  A    between atoms: C_18  and  C_30
                            x       y       z     vdW  Elec       q    Type
                         _______ _______ _______ _____ _____    ______ ____

>  <TORSDO>
F 6

$$$$
=
 OpenBabel10272415303D

 34 38  0  0  1  0  0  0  0  0999 V2000
  190.2030  177.2840  136.8380 C   0  0  1  0  0  3  0  0  0  0  0  0
  186.8340  177.0300  134.8210 C   0  0  0  0  0  2  0  0  0  0  0  0
  188.9110  175.5760  134.7930 C   0  0  0  0  0  2  0  0  0  0  0  0
  190.7520  176.5070  139.1880 C   0  0  1  0  0  3  0  0  0  0  0  0
  190.7000  177.6940  138.2260 C   0  0  0  0  0  2  0  0  0  0  0  0
  191.0610  174.8800  137.2810 C   0  0  2  0  0  3  0  0  0  0  0  0
  189.8480  174.2110  137.4570 O   0  0  0  0  0  1  0  0  0  0  0  0
  191.6030  175.3660  138.6240 C   0  0  0  0  0  2  0  0  0  0  0  0
  190.4330  175.6570  134.8720 C   0  0  1  0  0  3  0  0  0  0  0  0
  190.9380  176.0430  136.2770 C   0  0  1  0  0  3  0  0  0  0  0  0
  191.0700  174.3830  134.3470 C   0  0  0  0  0  1  0  0  0  0  0  0
  185.9730  177.7020  135.8920 C   0  0  0  0  0  2  0  0  0  0  0  0
  185.5670  176.7100  136.9840 C   0  0  1  0  0  3  0  0  0  0  0  0
  186.6710  175.7140  137.3640 C   0  0  0  0  0  2  0  0  0  0  0  0
  188.3140  176.9120  135.2230 C   0  0  2  0  0  3  0  0  0  0  0  0
  187.9910  176.3710  137.7690 C   0  0  0  0  0  2  0  0  0  0  0  0
  188.6690  177.2450  136.6900 C   0  0  1  0  0  3  0  0  0  0  0  0
  185.0300  177.4490  138.2000 C   0  0  0  0  0  2  0  0  0  0  0  0
  184.8720  179.5600  138.5770 O   0  0  0  0  0  1  0  0  0  0  0  0
  185.7720  178.6130  138.4190 O   0  0  0  0  0  0  0  0  0  0  0  0
  191.2110  176.9330  140.5830 C   0  0  0  0  0  2  0  0  0  0  0  0
  189.1480  176.5570  143.7540 C   0  0  0  0  0  3  0  0  0  0  0  0
  188.9500  177.7840  141.2490 C   0  0  0  0  0  3  0  0  0  0  0  0
  185.8780  178.4620  144.1280 C   0  0  1  0  0  3  0  0  0  0  0  0
  186.8840  177.3480  144.4350 C   0  0  0  0  0  2  0  0  0  0  0  0
  188.0080  177.3000  143.4380 C   0  0  0  0  0  0  0  0  0  0  0  0
  186.7240  178.7650  141.8020 C   0  0  0  0  0  2  0  0  0  0  0  0
  187.8980  177.9010  142.1630 C   0  0  0  0  0  0  0  0  0  0  0  0
  185.4950  178.4520  142.6510 C   0  0  0  0  0  2  0  0  0  0  0  0
  190.0920  177.0490  141.5740 C   0  0  0  0  0  0  0  0  0  0  0  0
  190.1890  176.4380  142.8290 C   0  0  0  0  0  3  0  0  0  0  0  0
  184.6430  178.3660  145.0210 C   0  0  0  0  0  2  0  0  0  0  0  0
  184.9970  178.2730  146.4980 C   0  0  0  0  0  2  0  0  0  0  0  0
  185.5530  179.5380  146.9430 N   0  0  0  0  0  1  0  0  0  0  0  0
  1  5  1  1  0  0  0
  2 15  1  0  0  0  0
  2 12  1  0  0  0  0
  3  9  1  0  0  0  0
  3 15  1  0  0  0  0
  4 21  1  1  0  0  0
  5  4  1  0  0  0  0
  6  7  1  1  0  0  0
  6  8  1  0  0  0  0
  8  4  1  0  0  0  0
  9 11  1  1  0  0  0
  9 10  1  0  0  0  0
 10  1  1  0  0  0  0
 10  6  1  0  0  0  0
 12 13  1  0  0  0  0
 13 14  1  0  0  0  0
 13 18  1  0  0  0  0
 14 16  1  0  0  0  0
 15 17  1  0  0  0  0
 17  1  1  0  0  0  0
 17 16  1  0  0  0  0
 18 20  1  0  0  0  0
 20 19  1  0  0  0  0
 21 30  1  0  0  0  0
 23 30  2  0  0  0  0
 23 28  1  0  0  0  0
 24 25  1  0  0  0  0
 24 32  1  0  0  0  0
 26 22  1  0  0  0  0
 26 25  1  0  0  0  0
 27 28  1  0  0  0  0
 27 29  1  0  0  0  0
 28 26  2  0  0  0  0
 29 24  1  0  0  0  0
 30 31  1  0  0  0  0
 31 22  2  0  0  0  0
 32 33  1  0  0  0  0
 33 34  1  0  0  0  0
M  END
>  <MODEL>
5

>  <REMARK>
 VINA RESULT:      -8.0      3.088      6.433
  Name = 
  6 active torsions:
  status: ('A' for Active; 'I' for Inactive)
    1  A    between atoms: C_3  and  O_24
    2  A    between atoms: C_3  and  C_25
    3  A    between atoms: C_7  and  C_11
    4  A    between atoms: C_8  and  C_18
    5  A    between atoms: C_11  and  C_15
    6  A    between atoms: C_18  and  C_30
                            x       y       z     vdW  Elec       q    Type
                         _______ _______ _______ _____ _____    ______ ____

>  <TORSDO>
F 6

$$$$
=
 OpenBabel10272415303D

 34 38  0  0  1  0  0  0  0  0999 V2000
  186.6290  177.3990  135.9650 C   0  0  1  0  0  3  0  0  0  0  0  0
  182.7050  177.1750  135.7930 C   0  0  0  0  0  2  0  0  0  0  0  0
  184.4990  175.4510  135.3040 C   0  0  0  0  0  2  0  0  0  0  0  0
  188.1840  177.1720  137.9550 C   0  0  1  0  0  3  0  0  0  0  0  0
  187.7210  178.0660  136.8040 C   0  0  0  0  0  2  0  0  0  0  0  0
  187.5380  175.0830  136.6910 C   0  0  2  0  0  3  0  0  0  0  0  0
  186.5280  174.6840  137.5690 O   0  0  0  0  0  1  0  0  0  0  0  0
  188.6500  175.8050  137.4500 C   0  0  0  0  0  2  0  0  0  0  0  0
  185.8870  175.3070  134.6850 C   0  0  1  0  0  3  0  0  0  0  0  0
  186.9920  175.9550  135.5430 C   0  0  1  0  0  3  0  0  0  0  0  0
  186.1780  173.8560  134.3460 C   0  0  0  0  0  1  0  0  0  0  0  0
  182.4520  178.2270  136.8750 C   0  0  0  0  0  2  0  0  0  0  0  0
  182.5730  177.6250  138.2770 C   0  0  1  0  0  3  0  0  0  0  0  0
  183.7040  176.5970  138.4180 C   0  0  0  0  0  2  0  0  0  0  0  0
  184.2000  176.9300  135.5270 C   0  0  2  0  0  3  0  0  0  0  0  0
  185.0770  177.1180  137.9910 C   0  0  0  0  0  2  0  0  0  0  0  0
  185.2000  177.5670  136.5170 C   0  0  1  0  0  3  0  0  0  0  0  0
  182.6760  178.7260  139.3200 C   0  0  0  0  0  2  0  0  0  0  0  0
  184.4310  179.9480  139.5540 O   0  0  0  0  0  1  0  0  0  0  0  0
  183.3650  179.8230  138.7930 O   0  0  0  0  0  0  0  0  0  0  0  0
  189.2460  177.8640  138.8120 C   0  0  0  0  0  2  0  0  0  0  0  0
  189.8000  177.1190  142.4980 C   0  0  0  0  0  3  0  0  0  0  0  0
  187.7800  178.1010  140.8320 C   0  0  0  0  0  3  0  0  0  0  0  0
  187.1460  178.0760  145.0490 C   0  0  1  0  0  3  0  0  0  0  0  0
  188.3570  177.2990  144.5240 C   0  0  0  0  0  2  0  0  0  0  0  0
  188.5760  177.5030  143.0510 C   0  0  0  0  0  0  0  0  0  0  0  0
  186.2390  178.4660  142.7590 C   0  0  0  0  0  2  0  0  0  0  0  0
  187.5470  177.9780  142.2050 C   0  0  0  0  0  0  0  0  0  0  0  0
  185.9400  177.8780  144.1350 C   0  0  0  0  0  2  0  0  0  0  0  0
  189.0100  177.7260  140.2870 C   0  0  0  0  0  0  0  0  0  0  0  0
  190.0200  177.2360  141.1230 C   0  0  0  0  0  3  0  0  0  0  0  0
  186.8160  177.6980  146.4910 C   0  0  0  0  0  2  0  0  0  0  0  0
  188.0520  177.3090  147.2890 C   0  0  0  0  0  2  0  0  0  0  0  0
  188.1010  178.0870  148.5140 N   0  0  0  0  0  1  0  0  0  0  0  0
  1 17  1  0  0  0  0
  1  5  1  1  0  0  0
  2 12  1  0  0  0  0
  3 15  1  0  0  0  0
  4 21  1  6  0  0  0
  5  4  1  0  0  0  0
  6  8  1  0  0  0  0
  6  7  1  1  0  0  0
  8  4  1  0  0  0  0
  9 11  1  1  0  0  0
  9  3  1  0  0  0  0
  9 10  1  0  0  0  0
 10  1  1  0  0  0  0
 10  6  1  0  0  0  0
 12 13  1  0  0  0  0
 13 14  1  0  0  0  0
 13 18  1  0  0  0  0
 15  2  1  0  0  0  0
 15 17  1  0  0  0  0
 16 14  1  0  0  0  0
 17 16  1  0  0  0  0
 20 18  1  0  0  0  0
 20 19  1  0  0  0  0
 21 30  1  0  0  0  0
 22 26  1  0  0  0  0
 23 28  1  0  0  0  0
 24 32  1  0  0  0  0
 25 24  1  0  0  0  0
 26 25  1  0  0  0  0
 27 29  1  0  0  0  0
 28 27  1  0  0  0  0
 28 26  2  0  0  0  0
 29 24  1  0  0  0  0
 30 23  2  0  0  0  0
 30 31  1  0  0  0  0
 31 22  2  0  0  0  0
 32 33  1  0  0  0  0
 33 34  1  0  0  0  0
M  END
>  <MODEL>
6

>  <REMARK>
 VINA RESULT:      -8.0      1.967      4.886
  Name = 
  6 active torsions:
  status: ('A' for Active; 'I' for Inactive)
    1  A    between atoms: C_3  and  O_24
    2  A    between atoms: C_3  and  C_25
    3  A    between atoms: C_7  and  C_11
    4  A    between atoms: C_8  and  C_18
    5  A    between atoms: C_11  and  C_15
    6  A    between atoms: C_18  and  C_30
                            x       y       z     vdW  Elec       q    Type
                         _______ _______ _______ _____ _____    ______ ____

>  <TORSDO>
F 6

$$$$
=
 OpenBabel10272415303D

 34 38  0  0  1  0  0  0  0  0999 V2000
  189.9030  176.5170  135.9810 C   0  0  1  0  0  3  0  0  0  0  0  0
  186.3020  176.0430  134.4670 C   0  0  0  0  0  2  0  0  0  0  0  0
  188.2610  174.4430  134.6510 C   0  0  0  0  0  2  0  0  0  0  0  0
  190.6850  176.3710  138.3880 C   0  0  1  0  0  3  0  0  0  0  0  0
  190.5930  177.2450  137.1370 C   0  0  0  0  0  2  0  0  0  0  0  0
  190.6510  174.2580  137.0070 C   0  0  2  0  0  3  0  0  0  0  0  0
  189.4270  173.7850  137.4860 O   0  0  0  0  0  1  0  0  0  0  0  0
  191.3840  175.0420  138.0930 C   0  0  0  0  0  2  0  0  0  0  0  0
  189.7830  174.3940  134.5510 C   0  0  1  0  0  3  0  0  0  0  0  0
  190.4810  175.1040  135.7290 C   0  0  1  0  0  3  0  0  0  0  0  0
  190.2660  172.9690  134.3520 C   0  0  0  0  0  1  0  0  0  0  0  0
  185.6250  177.0660  135.3810 C   0  0  0  0  0  2  0  0  0  0  0  0
  185.2930  176.4590  136.7470 C   0  0  1  0  0  3  0  0  0  0  0  0
  186.3680  175.5050  137.2830 C   0  0  0  0  0  2  0  0  0  0  0  0
  187.8100  175.8970  134.7370 C   0  0  2  0  0  3  0  0  0  0  0  0
  187.7680  176.1170  137.3500 C   0  0  0  0  0  2  0  0  0  0  0  0
  188.3630  176.5880  136.0040 C   0  0  1  0  0  3  0  0  0  0  0  0
  184.9580  177.5540  137.7470 C   0  0  0  0  0  2  0  0  0  0  0  0
  186.3160  178.7890  138.8700 O   0  0  0  0  0  1  0  0  0  0  0  0
  185.8830  178.5980  137.6420 O   0  0  0  0  0  0  0  0  0  0  0  0
  191.3390  177.1210  139.5510 C   0  0  0  0  0  2  0  0  0  0  0  0
  188.2910  177.8130  141.7120 C   0  0  0  0  0  3  0  0  0  0  0  0
  190.9400  176.9740  142.0210 C   0  0  0  0  0  3  0  0  0  0  0  0
  188.3820  177.0260  145.4320 C   0  0  1  0  0  3  0  0  0  0  0  0
  187.8680  177.7230  144.1680 C   0  0  0  0  0  2  0  0  0  0  0  0
  188.7740  177.5100  142.9870 C   0  0  0  0  0  0  0  0  0  0  0  0
  190.6660  176.7060  144.4850 C   0  0  0  0  0  2  0  0  0  0  0  0
  190.1200  177.1080  143.1450 C   0  0  0  0  0  0  0  0  0  0  0  0
  189.8680  177.3070  145.6380 C   0  0  0  0  0  2  0  0  0  0  0  0
  190.4480  177.2690  140.7470 C   0  0  0  0  0  0  0  0  0  0  0  0
  189.1210  177.6870  140.5960 C   0  0  0  0  0  3  0  0  0  0  0  0
  187.5680  177.4200  146.6620 C   0  0  0  0  0  2  0  0  0  0  0  0
  188.3430  178.3250  147.6100 C   0  0  0  0  0  2  0  0  0  0  0  0
  188.0890  177.9200  148.9810 N   0  0  0  0  0  1  0  0  0  0  0  0
  1 17  1  0  0  0  0
  1  5  1  1  0  0  0
  2 15  1  0  0  0  0
  2 12  1  0  0  0  0
  3 15  1  0  0  0  0
  4 21  1  1  0  0  0
  5  4  1  0  0  0  0
  6  7  1  1  0  0  0
  6  8  1  0  0  0  0
  8  4  1  0  0  0  0
  9 11  1  1  0  0  0
  9  3  1  0  0  0  0
  9 10  1  0  0  0  0
 10  1  1  0  0  0  0
 10  6  1  0  0  0  0
 12 13  1  0  0  0  0
 13 14  1  0  0  0  0
 13 18  1  0  0  0  0
 14 16  1  0  0  0  0
 15 17  1  0  0  0  0
 17 16  1  0  0  0  0
 20 18  1  0  0  0  0
 20 19  1  0  0  0  0
 21 30  1  0  0  0  0
 22 26  1  0  0  0  0
 23 28  1  0  0  0  0
 24 29  1  0  0  0  0
 24 32  1  0  0  0  0
 25 24  1  0  0  0  0
 26 28  2  0  0  0  0
 26 25  1  0  0  0  0
 27 29  1  0  0  0  0
 28 27  1  0  0  0  0
 30 23  2  0  0  0  0
 31 30  1  0  0  0  0
 31 22  2  0  0  0  0
 32 33  1  0  0  0  0
 33 34  1  0  0  0  0
M  END
>  <MODEL>
7

>  <REMARK>
 VINA RESULT:      -7.8      3.057      6.293
  Name = 
  6 active torsions:
  status: ('A' for Active; 'I' for Inactive)
    1  A    between atoms: C_3  and  O_24
    2  A    between atoms: C_3  and  C_25
    3  A    between atoms: C_7  and  C_11
    4  A    between atoms: C_8  and  C_18
    5  A    between atoms: C_11  and  C_15
    6  A    between atoms: C_18  and  C_30
                            x       y       z     vdW  Elec       q    Type
                         _______ _______ _______ _____ _____    ______ ____

>  <TORSDO>
F 6

$$$$
=
 OpenBabel10272415303D

 34 38  0  0  1  0  0  0  0  0999 V2000
  190.6880  174.6410  137.7190 C   0  0  1  0  0  3  0  0  0  0  0  0
  193.4190  173.0080  135.4060 C   0  0  0  0  0  2  0  0  0  0  0  0
  190.8900  173.0530  135.2280 C   0  0  0  0  0  2  0  0  0  0  0  0
  189.8510  177.0330  137.8070 C   0  0  1  0  0  3  0  0  0  0  0  0
  190.4910  175.8850  138.5880 C   0  0  0  0  0  2  0  0  0  0  0  0
  188.7230  175.4230  136.2210 C   0  0  2  0  0  3  0  0  0  0  0  0
  189.4240  175.8210  135.0800 O   0  0  0  0  0  1  0  0  0  0  0  0
  188.5280  176.6050  137.1680 C   0  0  0  0  0  2  0  0  0  0  0  0
  189.6270  172.9800  136.0820 C   0  0  1  0  0  3  0  0  0  0  0  0
  189.4130  174.2450  136.9380 C   0  0  1  0  0  3  0  0  0  0  0  0
  188.4190  172.6330  135.2300 C   0  0  0  0  0  1  0  0  0  0  0  0
  194.5180  174.0170  135.7450 C   0  0  0  0  0  2  0  0  0  0  0  0
  194.3730  175.2980  134.9210 C   0  0  1  0  0  3  0  0  0  0  0  0
  192.9200  175.7470  134.7180 C   0  0  0  0  0  2  0  0  0  0  0  0
  192.0940  173.2910  136.1340 C   0  0  2  0  0  3  0  0  0  0  0  0
  192.1300  175.9120  136.0170 C   0  0  0  0  0  2  0  0  0  0  0  0
  191.9820  174.6390  136.8820 C   0  0  1  0  0  3  0  0  0  0  0  0
  195.2310  176.4080  135.5100 C   0  0  0  0  0  2  0  0  0  0  0  0
  195.7340  178.4980  135.4580 O   0  0  0  0  0  1  0  0  0  0  0  0
  194.9440  177.6210  134.8770 O   0  0  0  0  0  0  0  0  0  0  0  0
  189.6960  178.2850  138.6720 C   0  0  0  0  0  2  0  0  0  0  0  0
  189.5600  177.0450  142.2620 C   0  0  0  0  0  3  0  0  0  0  0  0
  187.9450  178.4440  140.4580 C   0  0  0  0  0  3  0  0  0  0  0  0
  186.6210  177.9860  144.4860 C   0  0  1  0  0  3  0  0  0  0  0  0
  187.8250  177.1440  144.0500 C   0  0  0  0  0  2  0  0  0  0  0  0
  188.3030  177.4970  142.6700 C   0  0  0  0  0  0  0  0  0  0  0  0
  186.1470  178.7480  142.1600 C   0  0  0  0  0  2  0  0  0  0  0  0
  187.4770  178.1840  141.7500 C   0  0  0  0  0  0  0  0  0  0  0  0
  185.5700  178.0370  143.3810 C   0  0  0  0  0  2  0  0  0  0  0  0
  189.2080  177.9990  140.0600 C   0  0  0  0  0  0  0  0  0  0  0  0
  190.0150  177.3000  140.9660 C   0  0  0  0  0  3  0  0  0  0  0  0
  186.0230  177.4770  145.7950 C   0  0  0  0  0  2  0  0  0  0  0  0
  184.9630  178.4130  146.3550 C   0  0  0  0  0  2  0  0  0  0  0  0
  185.6070  179.5240  147.0330 N   0  0  0  0  0  1  0  0  0  0  0  0
  1  5  1  6  0  0  0
  2 12  1  0  0  0  0
  2 15  1  0  0  0  0
  3  9  1  0  0  0  0
  3 15  1  0  0  0  0
  4  5  1  0  0  0  0
  4 21  1  1  0  0  0
  6  7  1  6  0  0  0
  6 10  1  0  0  0  0
  6  8  1  0  0  0  0
  8  4  1  0  0  0  0
  9 11  1  6  0  0  0
  9 10  1  0  0  0  0
 10  1  1  0  0  0  0
 13 18  1  0  0  0  0
 13 12  1  0  0  0  0
 14 13  1  0  0  0  0
 14 16  1  0  0  0  0
 15 17  1  0  0  0  0
 16 17  1  0  0  0  0
 17  1  1  0  0  0  0
 20 19  1  0  0  0  0
 20 18  1  0  0  0  0
 21 30  1  0  0  0  0
 22 26  1  0  0  0  0
 23 28  1  0  0  0  0
 24 32  1  0  0  0  0
 25 24  1  0  0  0  0
 26 25  1  0  0  0  0
 27 29  1  0  0  0  0
 28 27  1  0  0  0  0
 28 26  2  0  0  0  0
 29 24  1  0  0  0  0
 30 23  2  0  0  0  0
 30 31  1  0  0  0  0
 31 22  2  0  0  0  0
 32 33  1  0  0  0  0
 33 34  1  0  0  0  0
M  END
>  <MODEL>
8

>  <REMARK>
 VINA RESULT:      -7.6      4.691      7.334
  Name = 
  6 active torsions:
  status: ('A' for Active; 'I' for Inactive)
    1  A    between atoms: C_3  and  O_24
    2  A    between atoms: C_3  and  C_25
    3  A    between atoms: C_7  and  C_11
    4  A    between atoms: C_8  and  C_18
    5  A    between atoms: C_11  and  C_15
    6  A    between atoms: C_18  and  C_30
                            x       y       z     vdW  Elec       q    Type
                         _______ _______ _______ _____ _____    ______ ____

>  <TORSDO>
F 6

$$$$
=
 OpenBabel10272415303D

 34 38  0  0  1  0  0  0  0  0999 V2000
  190.3980  174.5130  137.3460 C   0  0  1  0  0  3  0  0  0  0  0  0
  193.3290  173.0620  135.1590 C   0  0  0  0  0  2  0  0  0  0  0  0
  190.8190  173.0550  134.8040 C   0  0  0  0  0  2  0  0  0  0  0  0
  189.4930  176.8770  137.4870 C   0  0  1  0  0  3  0  0  0  0  0  0
  190.1070  175.7080  138.2570 C   0  0  0  0  0  2  0  0  0  0  0  0
  188.5240  175.3210  135.7500 C   0  0  2  0  0  3  0  0  0  0  0  0
  189.2920  175.7920  134.6820 O   0  0  0  0  0  1  0  0  0  0  0  0
  188.2300  176.4500  136.7350 C   0  0  0  0  0  2  0  0  0  0  0  0
  189.5010  172.9100  135.5600 C   0  0  1  0  0  3  0  0  0  0  0  0
  189.1920  174.1260  136.4580 C   0  0  1  0  0  3  0  0  0  0  0  0
  188.3660  172.5770  134.6080 C   0  0  0  0  0  1  0  0  0  0  0  0
  194.3740  174.0780  135.6240 C   0  0  0  0  0  2  0  0  0  0  0  0
  194.2520  175.3950  134.8540 C   0  0  1  0  0  3  0  0  0  0  0  0
  192.8050  175.8190  134.5680 C   0  0  0  0  0  2  0  0  0  0  0  0
  191.9490  173.2770  135.8030 C   0  0  2  0  0  3  0  0  0  0  0  0
  191.9220  175.9000  135.8140 C   0  0  0  0  0  2  0  0  0  0  0  0
  191.7470  174.5830  136.6040 C   0  0  1  0  0  3  0  0  0  0  0  0
  195.0360  176.4940  135.5540 C   0  0  0  0  0  2  0  0  0  0  0  0
  195.7250  178.5300  135.4720 O   0  0  0  0  0  1  0  0  0  0  0  0
  195.0670  177.6420  134.7570 O   0  0  0  0  0  0  0  0  0  0  0  0
  189.2430  178.0810  138.3970 C   0  0  0  0  0  2  0  0  0  0  0  0
  191.3110  177.4450  141.5230 C   0  0  0  0  0  3  0  0  0  0  0  0
  188.6310  177.8110  140.8130 C   0  0  0  0  0  3  0  0  0  0  0  0
  189.6460  177.4880  144.9420 C   0  0  1  0  0  3  0  0  0  0  0  0
  190.7370  177.1280  143.9280 C   0  0  0  0  0  2  0  0  0  0  0  0
  190.3260  177.4260  142.5130 C   0  0  0  0  0  0  0  0  0  0  0  0
  187.8820  177.6430  143.1860 C   0  0  0  0  0  2  0  0  0  0  0  0
  188.9690  177.5890  142.1510 C   0  0  0  0  0  0  0  0  0  0  0  0
  188.2890  176.9570  144.4870 C   0  0  0  0  0  2  0  0  0  0  0  0
  189.6210  177.8410  139.8280 C   0  0  0  0  0  0  0  0  0  0  0  0
  190.9620  177.6580  140.1860 C   0  0  0  0  0  3  0  0  0  0  0  0
  189.9930  176.9900  146.3430 C   0  0  0  0  0  2  0  0  0  0  0  0
  191.4340  176.5130  146.4520 C   0  0  0  0  0  2  0  0  0  0  0  0
  191.9800  176.9120  147.7370 N   0  0  0  0  0  1  0  0  0  0  0  0
  1  5  1  6  0  0  0
  2 12  1  0  0  0  0
  2 15  1  0  0  0  0
  3  9  1  0  0  0  0
  3 15  1  0  0  0  0
  4  5  1  0  0  0  0
  4 21  1  1  0  0  0
  6  7  1  6  0  0  0
  6 10  1  0  0  0  0
  6  8  1  0  0  0  0
  8  4  1  0  0  0  0
  9 11  1  6  0  0  0
  9 10  1  0  0  0  0
 10  1  1  0  0  0  0
 13 18  1  0  0  0  0
 13 12  1  0  0  0  0
 14 13  1  0  0  0  0
 14 16  1  0  0  0  0
 15 17  1  0  0  0  0
 16 17  1  0  0  0  0
 17  1  1  0  0  0  0
 20 19  1  0  0  0  0
 20 18  1  0  0  0  0
 21 30  1  0  0  0  0
 22 26  1  0  0  0  0
 23 28  1  0  0  0  0
 24 32  1  0  0  0  0
 25 24  1  0  0  0  0
 26 25  1  0  0  0  0
 27 29  1  0  0  0  0
 28 26  2  0  0  0  0
 28 27  1  0  0  0  0
 29 24  1  0  0  0  0
 30 31  1  0  0  0  0
 30 23  2  0  0  0  0
 31 22  2  0  0  0  0
 32 33  1  0  0  0  0
 33 34  1  0  0  0  0
M  END
>  <MODEL>
9

>  <REMARK>
 VINA RESULT:      -7.5      4.718      7.207
  Name = 
  6 active torsions:
  status: ('A' for Active; 'I' for Inactive)
    1  A    between atoms: C_3  and  O_24
    2  A    between atoms: C_3  and  C_25
    3  A    between atoms: C_7  and  C_11
    4  A    between atoms: C_8  and  C_18
    5  A    between atoms: C_11  and  C_15
    6  A    between atoms: C_18  and  C_30
                            x       y       z     vdW  Elec       q    Type
                         _______ _______ _______ _____ _____    ______ ____

>  <TORSDO>
F 6

$$$$
