=
 OpenBabel10272400003D

 34 38  0  0  1  0  0  0  0  0999 V2000
  190.3680  176.9010  147.1450 C   0  0  0  0  0  0  0  0  0  0  0  0
  191.2150  176.0350  145.0200 C   0  0  0  0  0  0  0  0  0  0  0  0
  189.1680  177.3440  145.0850 C   0  0  0  0  0  0  0  0  0  0  0  0
  188.1420  177.6320  142.7510 N   0  0  0  0  0  0  0  0  0  0  0  0
  192.3890  175.5620  147.0890 C   0  0  0  0  0  3  0  0  0  0  0  0
  192.2820  175.4380  145.6970 C   0  0  0  0  0  3  0  0  0  0  0  0
  190.1310  176.5280  142.9650 C   0  0  0  0  0  0  0  0  0  0  0  0
  190.2480  176.7530  145.7530 C   0  0  0  0  0  0  0  0  0  0  0  0
  188.6090  177.4070  141.3820 C   0  0  0  0  0  2  0  0  0  0  0  0
  191.4380  176.2960  147.8120 C   0  0  0  0  0  3  0  0  0  0  0  0
  188.3810  178.2720  147.1240 C   0  0  0  0  0  3  0  0  0  0  0  0
  189.4250  177.6670  147.8360 C   0  0  0  0  0  3  0  0  0  0  0  0
  191.1380  175.9800  143.5820 N   0  0  0  0  0  0  0  0  0  0  0  0
  189.9460  176.6340  141.4900 C   0  0  1  0  0  3  0  0  0  0  0  0
  189.0690  177.1280  143.6670 N   0  0  0  0  0  0  0  0  0  0  0  0
  188.2750  178.1030  145.7760 N   0  0  0  0  0  0  0  0  0  0  0  0
  186.7480  177.8410  143.0020 C   0  0  0  0  0  3  0  0  0  0  0  0
  185.9900  178.6220  142.2350 C   0  0  0  0  0  3  0  0  0  0  0  0
  181.4530  178.7520  142.6630 C   0  0  0  0  0  3  0  0  0  0  0  0
  182.1980  178.7320  141.5590 C   0  0  0  0  0  3  0  0  0  0  0  0
  184.5550  178.8480  142.4700 C   0  0  0  0  0  0  0  0  0  0  0  0
  183.6600  178.5240  141.5180 C   0  0  0  0  0  3  0  0  0  0  0  0
  183.0700  179.4460  144.3920 C   0  0  0  0  0  3  0  0  0  0  0  0
  184.2090  179.5700  143.7120 C   0  0  0  0  0  3  0  0  0  0  0  0
  182.0010  178.4740  144.0220 C   0  0  0  0  0  2  0  0  0  0  0  0
  191.0410  177.4780  140.8520 C   0  0  0  0  0  2  0  0  0  0  0  0
  191.4330  176.9360  139.4880 C   0  0  0  0  0  2  0  0  0  0  0  0
  190.4940  175.9960  139.0630 O   0  0  0  0  0  0  0  0  0  0  0  0
  190.0310  176.4830  137.8400 C   0  0  0  0  0  2  0  0  0  0  0  0
  188.5120  176.4660  137.8150 C   0  0  0  0  0  2  0  0  0  0  0  0
  186.6860  178.3420  138.5550 O   0  0  0  0  0  1  0  0  0  0  0  0
  189.0580  179.2790  137.9770 O   0  0  0  0  0  1  0  0  0  0  0  0
  187.8530  178.1500  137.6140 P   0  0  0  0  0  0  0  0  0  0  0  0
  187.3290  178.3760  136.0220 O   0  0  0  0  0  0  0  0  0  0  0  0
  1 10  1  0  0  0  0
  1 12  1  0  0  0  0
  2  6  2  0  0  0  0
  2  8  1  0  0  0  0
  3  8  1  0  0  0  0
  3 16  2  0  0  0  0
  4 17  1  0  0  0  0
  4 15  1  0  0  0  0
  5 10  2  0  0  0  0
  6  5  1  0  0  0  0
  7 13  2  0  0  0  0
  7 15  1  0  0  0  0
  8  1  2  0  0  0  0
  9 14  1  0  0  0  0
  9  4  1  0  0  0  0
 11 12  2  0  0  0  0
 13  2  1  0  0  0  0
 14 26  1  6  0  0  0
 14  7  1  0  0  0  0
 15  3  1  0  0  0  0
 16 11  1  0  0  0  0
 18 21  1  0  0  0  0
 18 17  2  0  0  0  0
 19 25  1  0  0  0  0
 20 19  2  0  0  0  0
 21 24  1  0  0  0  0
 22 20  1  0  0  0  0
 22 21  2  0  0  0  0
 24 23  2  0  0  0  0
 25 23  1  0  0  0  0
 27 26  1  0  0  0  0
 28 27  1  0  0  0  0
 29 28  1  0  0  0  0
 30 29  1  0  0  0  0
 33 30  1  0  0  0  0
 33 32  1  0  0  0  0
 33 31  1  0  0  0  0
 34 33  2  0  0  0  0
M  END
>  <MODEL>
1

>  <REMARK>
 VINA RESULT:      -9.0      0.000      0.000
  Name = 
  8 active torsions:
  status: ('A' for Active; 'I' for Inactive)
    1  A    between atoms: C_3  and  O_13
    2  A    between atoms: C_3  and  C_17
    3  A    between atoms: N_5  and  C_26
    4  A    between atoms: C_12  and  C_28
    5  A    between atoms: O_13  and  C_33
    6  A    between atoms: C_17  and  C_29
    7  A    between atoms: P_20  and  C_34
    8  A    between atoms: C_33  and  C_34
                            x       y       z     vdW  Elec       q    Type
                         _______ _______ _______ _____ _____    ______ ____

>  <TORSDO>
F 8

$$$$
=
 OpenBabel10272400003D

 34 38  0  0  1  0  0  0  0  0999 V2000
  189.8290  177.2130  147.1660 C   0  0  0  0  0  0  0  0  0  0  0  0
  190.8580  176.4630  145.0770 C   0  0  0  0  0  0  0  0  0  0  0  0
  188.6450  177.4680  145.0660 C   0  0  0  0  0  0  0  0  0  0  0  0
  187.6630  177.5930  142.6980 N   0  0  0  0  0  0  0  0  0  0  0  0
  192.0200  176.1740  147.1870 C   0  0  0  0  0  3  0  0  0  0  0  0
  191.9770  176.0280  145.7930 C   0  0  0  0  0  3  0  0  0  0  0  0
  189.7800  176.7840  142.9850 C   0  0  0  0  0  0  0  0  0  0  0  0
  189.7750  177.0410  145.7730 C   0  0  0  0  0  0  0  0  0  0  0  0
  188.2000  177.4280  141.3470 C   0  0  0  0  0  2  0  0  0  0  0  0
  190.9530  176.7700  147.8720 C   0  0  0  0  0  3  0  0  0  0  0  0
  187.6700  178.2870  147.0700 C   0  0  0  0  0  3  0  0  0  0  0  0
  188.7660  177.8410  147.8200 C   0  0  0  0  0  3  0  0  0  0  0  0
  190.8350  176.3890  143.6380 N   0  0  0  0  0  0  0  0  0  0  0  0
  189.6300  176.8540  141.5040 C   0  0  1  0  0  3  0  0  0  0  0  0
  188.6220  177.2310  143.6480 N   0  0  0  0  0  0  0  0  0  0  0  0
  187.6320  178.0970  145.7210 N   0  0  0  0  0  0  0  0  0  0  0  0
  186.2460  177.6020  142.9050 C   0  0  0  0  0  3  0  0  0  0  0  0
  185.4370  178.4580  142.2830 C   0  0  0  0  0  3  0  0  0  0  0  0
  181.0200  179.0750  143.2280 C   0  0  0  0  0  3  0  0  0  0  0  0
  182.0380  178.8480  144.0560 C   0  0  0  0  0  3  0  0  0  0  0  0
  183.9780  178.4840  142.4750 C   0  0  0  0  0  0  0  0  0  0  0  0
  183.4640  178.8230  143.6720 C   0  0  0  0  0  3  0  0  0  0  0  0
  181.9260  178.3570  141.0490 C   0  0  0  0  0  3  0  0  0  0  0  0
  183.1690  177.9790  141.3460 C   0  0  0  0  0  3  0  0  0  0  0  0
  181.2010  179.4290  141.7910 C   0  0  0  0  0  2  0  0  0  0  0  0
  190.6140  177.8410  140.8910 C   0  0  0  0  0  2  0  0  0  0  0  0
  191.4740  177.1760  139.8300 C   0  0  0  0  0  2  0  0  0  0  0  0
  190.7720  176.1270  139.2380 O   0  0  0  0  0  0  0  0  0  0  0  0
  190.3660  176.6240  137.9990 C   0  0  0  0  0  2  0  0  0  0  0  0
  188.8650  176.4520  137.8370 C   0  0  0  0  0  2  0  0  0  0  0  0
  187.9270  178.1770  135.9530 O   0  0  0  0  0  0  0  0  0  0  0  0
  186.5430  178.1050  138.1710 O   0  0  0  0  0  1  0  0  0  0  0  0
  188.0720  178.0440  137.4520 P   0  0  0  0  0  0  0  0  0  0  0  0
  189.0210  179.3160  138.0360 O   0  0  0  0  0  1  0  0  0  0  0  0
  1 12  1  0  0  0  0
  1 10  2  0  0  0  0
  2  8  2  0  0  0  0
  2  6  1  0  0  0  0
  3 16  2  0  0  0  0
  3  8  1  0  0  0  0
  4 17  1  0  0  0  0
  4 15  1  0  0  0  0
  5 10  1  0  0  0  0
  6  5  2  0  0  0  0
  7 13  2  0  0  0  0
  7 15  1  0  0  0  0
  8  1  1  0  0  0  0
  9 14  1  0  0  0  0
  9  4  1  0  0  0  0
 11 12  2  0  0  0  0
 13  2  1  0  0  0  0
 14 26  1  1  0  0  0
 14  7  1  0  0  0  0
 15  3  1  0  0  0  0
 16 11  1  0  0  0  0
 18 21  1  0  0  0  0
 18 17  2  0  0  0  0
 19 20  2  0  0  0  0
 21 22  2  0  0  0  0
 22 20  1  0  0  0  0
 23 24  2  0  0  0  0
 23 25  1  0  0  0  0
 24 21  1  0  0  0  0
 25 19  1  0  0  0  0
 27 26  1  0  0  0  0
 28 27  1  0  0  0  0
 29 28  1  0  0  0  0
 30 29  1  0  0  0  0
 31 33  2  0  0  0  0
 33 30  1  0  0  0  0
 33 34  1  0  0  0  0
 33 32  1  0  0  0  0
M  END
>  <MODEL>
2

>  <REMARK>
 VINA RESULT:      -8.9      0.599      1.459
  Name = 
  8 active torsions:
  status: ('A' for Active; 'I' for Inactive)
    1  A    between atoms: C_3  and  O_13
    2  A    between atoms: C_3  and  C_17
    3  A    between atoms: N_5  and  C_26
    4  A    between atoms: C_12  and  C_28
    5  A    between atoms: O_13  and  C_33
    6  A    between atoms: C_17  and  C_29
    7  A    between atoms: P_20  and  C_34
    8  A    between atoms: C_33  and  C_34
                            x       y       z     vdW  Elec       q    Type
                         _______ _______ _______ _____ _____    ______ ____

>  <TORSDO>
F 8

$$$$
=
 OpenBabel10272400003D

 34 38  0  0  1  0  0  0  0  0999 V2000
  190.0760  176.9520  147.2160 C   0  0  0  0  0  0  0  0  0  0  0  0
  191.1050  176.2330  145.1160 C   0  0  0  0  0  0  0  0  0  0  0  0
  188.9190  177.2960  145.1130 C   0  0  0  0  0  0  0  0  0  0  0  0
  187.9630  177.5120  142.7420 N   0  0  0  0  0  0  0  0  0  0  0  0
  192.2400  175.8560  147.2270 C   0  0  0  0  0  3  0  0  0  0  0  0
  192.2050  175.7490  145.8290 C   0  0  0  0  0  3  0  0  0  0  0  0
  190.0560  176.6400  143.0250 C   0  0  0  0  0  0  0  0  0  0  0  0
  190.0310  176.8200  145.8180 C   0  0  0  0  0  0  0  0  0  0  0  0
  188.5080  177.3700  141.3910 C   0  0  0  0  0  2  0  0  0  0  0  0
  191.1820  176.4610  147.9190 C   0  0  0  0  0  3  0  0  0  0  0  0
  187.9470  178.0850  147.1310 C   0  0  0  0  0  3  0  0  0  0  0  0
  189.0240  177.5900  147.8770 C   0  0  0  0  0  3  0  0  0  0  0  0
  191.0930  176.1990  143.6760 N   0  0  0  0  0  0  0  0  0  0  0  0
  189.9210  176.7540  141.5440 C   0  0  1  0  0  3  0  0  0  0  0  0
  188.9030  177.0990  143.6900 N   0  0  0  0  0  0  0  0  0  0  0  0
  187.9160  177.9330  145.7770 N   0  0  0  0  0  0  0  0  0  0  0  0
  186.5450  177.5530  142.9360 C   0  0  0  0  0  3  0  0  0  0  0  0
  185.7520  178.3770  142.2550 C   0  0  0  0  0  3  0  0  0  0  0  0
  181.3340  179.1260  143.0980 C   0  0  0  0  0  3  0  0  0  0  0  0
  182.3460  178.9830  143.9530 C   0  0  0  0  0  3  0  0  0  0  0  0
  184.2920  178.4350  142.4330 C   0  0  0  0  0  0  0  0  0  0  0  0
  183.7740  178.9060  143.5830 C   0  0  0  0  0  3  0  0  0  0  0  0
  182.2470  178.1680  141.0170 C   0  0  0  0  0  3  0  0  0  0  0  0
  183.4850  177.8150  141.3610 C   0  0  0  0  0  3  0  0  0  0  0  0
  181.5260  179.3200  141.6320 C   0  0  0  0  0  2  0  0  0  0  0  0
  190.9360  177.7320  140.9680 C   0  0  0  0  0  2  0  0  0  0  0  0
  191.7260  177.1020  139.8330 C   0  0  0  0  0  2  0  0  0  0  0  0
  190.9430  176.1510  139.1790 O   0  0  0  0  0  0  0  0  0  0  0  0
  191.4410  176.1150  137.8760 C   0  0  0  0  0  2  0  0  0  0  0  0
  192.2480  174.8450  137.6640 C   0  0  0  0  0  2  0  0  0  0  0  0
  194.0590  176.6530  136.7410 O   0  0  0  0  0  1  0  0  0  0  0  0
  194.9240  175.1090  138.6660 O   0  0  0  0  0  1  0  0  0  0  0  0
  193.9790  175.2400  137.2700 P   0  0  0  0  0  0  0  0  0  0  0  0
  194.5600  174.1720  136.0930 O   0  0  0  0  0  0  0  0  0  0  0  0
  1 12  1  0  0  0  0
  1 10  2  0  0  0  0
  2  8  2  0  0  0  0
  2  6  1  0  0  0  0
  3 16  2  0  0  0  0
  3  8  1  0  0  0  0
  4 17  1  0  0  0  0
  4 15  1  0  0  0  0
  5 10  1  0  0  0  0
  6  5  2  0  0  0  0
  7 13  2  0  0  0  0
  7 15  1  0  0  0  0
  8  1  1  0  0  0  0
  9 14  1  0  0  0  0
  9  4  1  0  0  0  0
 11 12  2  0  0  0  0
 13  2  1  0  0  0  0
 14 26  1  1  0  0  0
 14  7  1  0  0  0  0
 15  3  1  0  0  0  0
 16 11  1  0  0  0  0
 18 21  1  0  0  0  0
 18 17  2  0  0  0  0
 19 20  2  0  0  0  0
 21 22  2  0  0  0  0
 22 20  1  0  0  0  0
 23 24  2  0  0  0  0
 23 25  1  0  0  0  0
 24 21  1  0  0  0  0
 25 19  1  0  0  0  0
 27 26  1  0  0  0  0
 28 27  1  0  0  0  0
 29 28  1  0  0  0  0
 30 29  1  0  0  0  0
 31 33  1  0  0  0  0
 33 30  1  0  0  0  0
 33 32  1  0  0  0  0
 34 33  2  0  0  0  0
M  END
>  <MODEL>
3

>  <REMARK>
 VINA RESULT:      -8.5      1.951      2.921
  Name = 
  8 active torsions:
  status: ('A' for Active; 'I' for Inactive)
    1  A    between atoms: C_3  and  O_13
    2  A    between atoms: C_3  and  C_17
    3  A    between atoms: N_5  and  C_26
    4  A    between atoms: C_12  and  C_28
    5  A    between atoms: O_13  and  C_33
    6  A    between atoms: C_17  and  C_29
    7  A    between atoms: P_20  and  C_34
    8  A    between atoms: C_33  and  C_34
                            x       y       z     vdW  Elec       q    Type
                         _______ _______ _______ _____ _____    ______ ____

>  <TORSDO>
F 8

$$$$
=
 OpenBabel10272400003D

 34 38  0  0  1  0  0  0  0  0999 V2000
  187.1140  178.0550  146.9460 C   0  0  0  0  0  0  0  0  0  0  0  0
  188.7740  177.0500  145.4540 C   0  0  0  0  0  0  0  0  0  0  0  0
  186.8280  178.1850  144.5410 C   0  0  0  0  0  0  0  0  0  0  0  0
  186.8160  178.1500  141.9760 N   0  0  0  0  0  0  0  0  0  0  0  0
  189.0340  176.8880  147.8610 C   0  0  0  0  0  3  0  0  0  0  0  0
  189.4990  176.6150  146.5670 C   0  0  0  0  0  3  0  0  0  0  0  0
  188.5890  177.2410  143.0940 C   0  0  0  0  0  0  0  0  0  0  0  0
  187.5690  177.7570  145.6500 C   0  0  0  0  0  0  0  0  0  0  0  0
  187.8010  177.8270  140.9420 C   0  0  0  0  0  2  0  0  0  0  0  0
  187.8480  177.6110  148.0510 C   0  0  0  0  0  3  0  0  0  0  0  0
  185.2560  179.2460  145.9710 C   0  0  0  0  0  3  0  0  0  0  0  0
  185.9480  178.8050  147.1060 C   0  0  0  0  0  3  0  0  0  0  0  0
  189.2820  176.8440  144.1220 N   0  0  0  0  0  0  0  0  0  0  0  0
  189.0090  177.1820  141.6650 C   0  0  1  0  0  3  0  0  0  0  0  0
  187.3140  177.8190  143.2390 N   0  0  0  0  0  0  0  0  0  0  0  0
  185.7070  178.9340  144.7220 N   0  0  0  0  0  0  0  0  0  0  0  0
  185.4320  178.2660  141.6280 C   0  0  0  0  0  3  0  0  0  0  0  0
  185.0190  178.9020  140.5340 C   0  0  0  0  0  3  0  0  0  0  0  0
  180.8370  179.2080  138.7440 C   0  0  0  0  0  3  0  0  0  0  0  0
  181.9050  179.9760  138.5340 C   0  0  0  0  0  3  0  0  0  0  0  0
  183.6030  179.0310  140.1530 C   0  0  0  0  0  0  0  0  0  0  0  0
  183.2670  179.7020  139.0350 C   0  0  0  0  0  3  0  0  0  0  0  0
  181.4070  178.0540  140.8480 C   0  0  0  0  0  3  0  0  0  0  0  0
  182.6210  178.5250  141.1340 C   0  0  0  0  0  3  0  0  0  0  0  0
  180.9010  177.8980  139.4540 C   0  0  0  0  0  2  0  0  0  0  0  0
  190.2370  178.0440  141.4100 C   0  0  0  0  0  2  0  0  0  0  0  0
  191.2590  177.3130  140.5560 C   0  0  0  0  0  2  0  0  0  0  0  0
  190.6310  176.3060  139.8240 O   0  0  0  0  0  0  0  0  0  0  0  0
  190.6590  176.7570  138.5030 C   0  0  0  0  0  2  0  0  0  0  0  0
  189.3640  176.3860  137.8000 C   0  0  0  0  0  2  0  0  0  0  0  0
  188.8510  178.0230  135.6880 O   0  0  0  0  0  0  0  0  0  0  0  0
  186.8600  177.7140  137.3550 O   0  0  0  0  0  1  0  0  0  0  0  0
  188.5310  177.8700  137.1570 P   0  0  0  0  0  0  0  0  0  0  0  0
  189.0730  179.2400  137.9900 O   0  0  0  0  0  1  0  0  0  0  0  0
  1 12  1  0  0  0  0
  1 10  2  0  0  0  0
  2  8  2  0  0  0  0
  2  6  1  0  0  0  0
  3 16  2  0  0  0  0
  3  8  1  0  0  0  0
  4 15  1  0  0  0  0
  5 10  1  0  0  0  0
  6  5  2  0  0  0  0
  7 15  1  0  0  0  0
  7 13  2  0  0  0  0
  8  1  1  0  0  0  0
  9 14  1  0  0  0  0
  9  4  1  0  0  0  0
 11 12  2  0  0  0  0
 13  2  1  0  0  0  0
 14 26  1  1  0  0  0
 14  7  1  0  0  0  0
 15  3  1  0  0  0  0
 16 11  1  0  0  0  0
 17  4  1  0  0  0  0
 18 17  2  0  0  0  0
 19 25  1  0  0  0  0
 20 19  2  0  0  0  0
 20 22  1  0  0  0  0
 21 18  1  0  0  0  0
 21 24  1  0  0  0  0
 22 21  2  0  0  0  0
 23 24  2  0  0  0  0
 25 23  1  0  0  0  0
 27 26  1  0  0  0  0
 28 27  1  0  0  0  0
 29 28  1  0  0  0  0
 30 29  1  0  0  0  0
 31 33  2  0  0  0  0
 33 32  1  0  0  0  0
 33 30  1  0  0  0  0
 33 34  1  0  0  0  0
M  END
>  <MODEL>
4

>  <REMARK>
 VINA RESULT:      -8.1      1.650      2.737
  Name = 
  8 active torsions:
  status: ('A' for Active; 'I' for Inactive)
    1  A    between atoms: C_3  and  O_13
    2  A    between atoms: C_3  and  C_17
    3  A    between atoms: N_5  and  C_26
    4  A    between atoms: C_12  and  C_28
    5  A    between atoms: O_13  and  C_33
    6  A    between atoms: C_17  and  C_29
    7  A    between atoms: P_20  and  C_34
    8  A    between atoms: C_33  and  C_34
                            x       y       z     vdW  Elec       q    Type
                         _______ _______ _______ _____ _____    ______ ____

>  <TORSDO>
F 8

$$$$
=
 OpenBabel10272400003D

 34 38  0  0  1  0  0  0  0  0999 V2000
  190.4490  176.8510  147.1820 C   0  0  0  0  0  0  0  0  0  0  0  0
  191.2960  175.9500  145.0710 C   0  0  0  0  0  0  0  0  0  0  0  0
  189.2550  177.2710  145.1140 C   0  0  0  0  0  0  0  0  0  0  0  0
  188.2350  177.5310  142.7740 N   0  0  0  0  0  0  0  0  0  0  0  0
  192.4620  175.4990  147.1500 C   0  0  0  0  0  3  0  0  0  0  0  0
  192.3580  175.3560  145.7590 C   0  0  0  0  0  3  0  0  0  0  0  0
  190.2170  176.4190  143.0080 C   0  0  0  0  0  0  0  0  0  0  0  0
  190.3300  176.6840  145.7920 C   0  0  0  0  0  0  0  0  0  0  0  0
  188.7030  177.2840  141.4090 C   0  0  0  0  0  2  0  0  0  0  0  0
  191.5150  176.2500  147.8600 C   0  0  0  0  0  3  0  0  0  0  0  0
  188.4700  178.2320  147.1380 C   0  0  0  0  0  3  0  0  0  0  0  0
  189.5100  177.6320  147.8600 C   0  0  0  0  0  3  0  0  0  0  0  0
  191.2200  175.8750  143.6340 N   0  0  0  0  0  0  0  0  0  0  0  0
  190.0360  176.5050  141.5300 C   0  0  1  0  0  3  0  0  0  0  0  0
  189.1580  177.0350  143.6990 N   0  0  0  0  0  0  0  0  0  0  0  0
  188.3650  178.0450  145.7920 N   0  0  0  0  0  0  0  0  0  0  0  0
  186.8420  177.7510  143.0190 C   0  0  0  0  0  3  0  0  0  0  0  0
  186.1110  178.5970  142.2960 C   0  0  0  0  0  3  0  0  0  0  0  0
  181.5720  178.7810  142.6850 C   0  0  0  0  0  3  0  0  0  0  0  0
  182.3280  178.7930  141.5880 C   0  0  0  0  0  3  0  0  0  0  0  0
  184.6780  178.8350  142.5260 C   0  0  0  0  0  0  0  0  0  0  0  0
  183.7870  178.5640  141.5530 C   0  0  0  0  0  3  0  0  0  0  0  0
  183.1820  179.3810  144.4560 C   0  0  0  0  0  3  0  0  0  0  0  0
  184.3300  179.5130  143.7920 C   0  0  0  0  0  3  0  0  0  0  0  0
  182.1020  178.4410  144.0370 C   0  0  0  0  0  2  0  0  0  0  0  0
  191.1370  177.3340  140.8830 C   0  0  0  0  0  2  0  0  0  0  0  0
  190.9310  177.4510  139.3820 C   0  0  0  0  0  2  0  0  0  0  0  0
  192.0190  176.8960  138.7090 O   0  0  0  0  0  0  0  0  0  0  0  0
  191.4930  175.7970  138.0280 C   0  0  0  0  0  2  0  0  0  0  0  0
  190.5540  176.2670  136.9300 C   0  0  0  0  0  2  0  0  0  0  0  0
  188.6110  175.1360  135.3970 O   0  0  0  0  0  0  0  0  0  0  0  0
  189.4950  173.6330  137.3460 O   0  0  0  0  0  1  0  0  0  0  0  0
  189.0900  175.1910  136.8290 P   0  0  0  0  0  0  0  0  0  0  0  0
  187.8550  175.8070  137.8070 O   0  0  0  0  0  1  0  0  0  0  0  0
  1 10  1  0  0  0  0
  1 12  1  0  0  0  0
  2  6  2  0  0  0  0
  2  8  1  0  0  0  0
  3  8  1  0  0  0  0
  3 16  2  0  0  0  0
  4 17  1  0  0  0  0
  4 15  1  0  0  0  0
  5 10  2  0  0  0  0
  6  5  1  0  0  0  0
  7 13  2  0  0  0  0
  7 15  1  0  0  0  0
  8  1  2  0  0  0  0
  9 14  1  0  0  0  0
  9  4  1  0  0  0  0
 11 12  2  0  0  0  0
 13  2  1  0  0  0  0
 14 26  1  6  0  0  0
 14  7  1  0  0  0  0
 15  3  1  0  0  0  0
 16 11  1  0  0  0  0
 18 21  1  0  0  0  0
 18 17  2  0  0  0  0
 19 25  1  0  0  0  0
 20 19  2  0  0  0  0
 21 24  1  0  0  0  0
 22 20  1  0  0  0  0
 22 21  2  0  0  0  0
 24 23  2  0  0  0  0
 25 23  1  0  0  0  0
 27 26  1  0  0  0  0
 28 27  1  0  0  0  0
 29 28  1  0  0  0  0
 30 29  1  0  0  0  0
 31 33  2  0  0  0  0
 33 30  1  0  0  0  0
 33 32  1  0  0  0  0
 33 34  1  0  0  0  0
M  END
>  <MODEL>
5

>  <REMARK>
 VINA RESULT:      -8.1      1.251      1.620
  Name = 
  8 active torsions:
  status: ('A' for Active; 'I' for Inactive)
    1  A    between atoms: C_3  and  O_13
    2  A    between atoms: C_3  and  C_17
    3  A    between atoms: N_5  and  C_26
    4  A    between atoms: C_12  and  C_28
    5  A    between atoms: O_13  and  C_33
    6  A    between atoms: C_17  and  C_29
    7  A    between atoms: P_20  and  C_34
    8  A    between atoms: C_33  and  C_34
                            x       y       z     vdW  Elec       q    Type
                         _______ _______ _______ _____ _____    ______ ____

>  <TORSDO>
F 8

$$$$
=
 OpenBabel10272400003D

 34 38  0  0  1  0  0  0  0  0999 V2000
  183.4280  178.8970  141.4930 C   0  0  0  0  0  0  0  0  0  0  0  0
  184.7780  179.0270  139.4560 C   0  0  0  0  0  0  0  0  0  0  0  0
  185.7900  178.3520  141.5610 C   0  0  0  0  0  0  0  0  0  0  0  0
  188.2930  177.8470  141.2990 N   0  0  0  0  0  0  0  0  0  0  0  0
  182.4240  179.6100  139.4040 C   0  0  0  0  0  3  0  0  0  0  0  0
  183.6520  179.4540  138.7470 C   0  0  0  0  0  3  0  0  0  0  0  0
  187.0700  178.4060  139.4520 C   0  0  0  0  0  0  0  0  0  0  0  0
  184.6650  178.7670  140.8380 C   0  0  0  0  0  0  0  0  0  0  0  0
  189.1920  177.6390  140.1640 C   0  0  0  0  0  2  0  0  0  0  0  0
  182.3100  179.3270  140.7720 C   0  0  0  0  0  3  0  0  0  0  0  0
  184.4770  178.1290  143.5260 C   0  0  0  0  0  3  0  0  0  0  0  0
  183.3360  178.5760  142.8490 C   0  0  0  0  0  3  0  0  0  0  0  0
  186.0250  178.7880  138.7760 N   0  0  0  0  0  0  0  0  0  0  0  0
  188.4010  178.0360  138.8920 C   0  0  1  0  0  3  0  0  0  0  0  0
  187.0390  178.2750  140.8530 N   0  0  0  0  0  0  0  0  0  0  0  0
  185.6700  178.0240  142.8750 N   0  0  0  0  0  0  0  0  0  0  0  0
  188.8360  178.0740  142.6050 C   0  0  0  0  0  3  0  0  0  0  0  0
  188.9130  177.1150  143.5260 C   0  0  0  0  0  3  0  0  0  0  0  0
  190.0980  177.4750  147.9130 C   0  0  0  0  0  3  0  0  0  0  0  0
  189.0600  178.0100  147.2710 C   0  0  0  0  0  3  0  0  0  0  0  0
  189.4700  177.3220  144.8710 C   0  0  0  0  0  0  0  0  0  0  0  0
  188.6660  177.7040  145.8810 C   0  0  0  0  0  3  0  0  0  0  0  0
  191.6200  176.8690  146.0690 C   0  0  0  0  0  3  0  0  0  0  0  0
  190.9410  177.2350  144.9820 C   0  0  0  0  0  3  0  0  0  0  0  0
  190.9600  176.4100  147.3260 C   0  0  0  0  0  2  0  0  0  0  0  0
  188.3040  176.8150  137.9870 C   0  0  0  0  0  2  0  0  0  0  0  0
  189.6780  176.3430  137.5460 C   0  0  0  0  0  2  0  0  0  0  0  0
  189.7220  174.9490  137.5420 O   0  0  0  0  0  0  0  0  0  0  0  0
  191.0690  174.6360  137.3500 C   0  0  0  0  0  2  0  0  0  0  0  0
  191.8060  175.8380  136.7840 C   0  0  0  0  0  2  0  0  0  0  0  0
  193.9630  174.5880  137.8740 O   0  0  0  0  0  1  0  0  0  0  0  0
  194.5260  176.6500  136.3680 O   0  0  0  0  0  0  0  0  0  0  0  0
  193.4730  175.9670  137.5010 P   0  0  0  0  0  0  0  0  0  0  0  0
  193.4300  176.9370  138.8870 O   0  0  0  0  0  1  0  0  0  0  0  0
  1 12  1  0  0  0  0
  2  8  1  0  0  0  0
  3 16  2  0  0  0  0
  4 17  1  0  0  0  0
  5 10  2  0  0  0  0
  6  5  1  0  0  0  0
  6  2  2  0  0  0  0
  7 15  1  0  0  0  0
  8  1  2  0  0  0  0
  8  3  1  0  0  0  0
  9  4  1  0  0  0  0
 10  1  1  0  0  0  0
 12 11  2  0  0  0  0
 13  7  2  0  0  0  0
 13  2  1  0  0  0  0
 14 26  1  6  0  0  0
 14  7  1  0  0  0  0
 14  9  1  0  0  0  0
 15  4  1  0  0  0  0
 15  3  1  0  0  0  0
 16 11  1  0  0  0  0
 17 18  2  0  0  0  0
 18 21  1  0  0  0  0
 20 19  2  0  0  0  0
 21 24  1  0  0  0  0
 21 22  2  0  0  0  0
 22 20  1  0  0  0  0
 23 25  1  0  0  0  0
 24 23  2  0  0  0  0
 25 19  1  0  0  0  0
 27 26  1  0  0  0  0
 28 27  1  0  0  0  0
 29 28  1  0  0  0  0
 30 29  1  0  0  0  0
 30 33  1  0  0  0  0
 32 33  2  0  0  0  0
 33 31  1  0  0  0  0
 33 34  1  0  0  0  0
M  END
>  <MODEL>
6

>  <REMARK>
 VINA RESULT:      -8.0      2.359      7.000
  Name = 
  8 active torsions:
  status: ('A' for Active; 'I' for Inactive)
    1  A    between atoms: C_3  and  O_13
    2  A    between atoms: C_3  and  C_17
    3  A    between atoms: N_5  and  C_26
    4  A    between atoms: C_12  and  C_28
    5  A    between atoms: O_13  and  C_33
    6  A    between atoms: C_17  and  C_29
    7  A    between atoms: P_20  and  C_34
    8  A    between atoms: C_33  and  C_34
                            x       y       z     vdW  Elec       q    Type
                         _______ _______ _______ _____ _____    ______ ____

>  <TORSDO>
F 8

$$$$
=
 OpenBabel10272400003D

 34 38  0  0  1  0  0  0  0  0999 V2000
  188.9190  177.5910  147.1750 C   0  0  0  0  0  0  0  0  0  0  0  0
  189.9340  176.9340  145.0470 C   0  0  0  0  0  0  0  0  0  0  0  0
  187.6980  177.8880  145.1010 C   0  0  0  0  0  0  0  0  0  0  0  0
  186.6790  178.0690  142.7530 N   0  0  0  0  0  0  0  0  0  0  0  0
  191.1330  176.6020  147.1290 C   0  0  0  0  0  3  0  0  0  0  0  0
  191.0720  176.5010  145.7330 C   0  0  0  0  0  3  0  0  0  0  0  0
  188.8180  177.3000  142.9830 C   0  0  0  0  0  0  0  0  0  0  0  0
  188.8480  177.4640  145.7780 C   0  0  0  0  0  0  0  0  0  0  0  0
  187.1990  177.9620  141.3900 C   0  0  0  0  0  2  0  0  0  0  0  0
  190.0630  177.1510  147.8490 C   0  0  0  0  0  3  0  0  0  0  0  0
  186.7350  178.6170  147.1450 C   0  0  0  0  0  3  0  0  0  0  0  0
  187.8520  178.1720  147.8640 C   0  0  0  0  0  3  0  0  0  0  0  0
  189.8900  176.9070  143.6080 N   0  0  0  0  0  0  0  0  0  0  0  0
  188.6430  177.4150  141.5070 C   0  0  1  0  0  3  0  0  0  0  0  0
  187.6600  177.6980  143.6770 N   0  0  0  0  0  0  0  0  0  0  0  0
  186.6810  178.4710  145.7910 N   0  0  0  0  0  0  0  0  0  0  0  0
  185.2650  178.0390  142.9800 C   0  0  0  0  0  3  0  0  0  0  0  0
  184.4060  178.7410  142.2430 C   0  0  0  0  0  3  0  0  0  0  0  0
  179.9980  179.1540  143.3310 C   0  0  0  0  0  3  0  0  0  0  0  0
  181.0280  178.7950  144.0960 C   0  0  0  0  0  3  0  0  0  0  0  0
  182.9500  178.7230  142.4530 C   0  0  0  0  0  0  0  0  0  0  0  0
  182.4490  178.8470  143.6970 C   0  0  0  0  0  3  0  0  0  0  0  0
  180.8800  178.8280  141.0510 C   0  0  0  0  0  3  0  0  0  0  0  0
  182.1290  178.4140  141.2640 C   0  0  0  0  0  3  0  0  0  0  0  0
  180.1590  179.7510  141.9740 C   0  0  0  0  0  2  0  0  0  0  0  0
  189.5960  178.4440  140.9140 C   0  0  0  0  0  2  0  0  0  0  0  0
  190.0520  178.0380  139.5230 C   0  0  0  0  0  2  0  0  0  0  0  0
  189.8970  176.6620  139.3550 O   0  0  0  0  0  0  0  0  0  0  0  0
  189.3570  176.5180  138.0770 C   0  0  0  0  0  2  0  0  0  0  0  0
  190.4610  176.5890  137.0350 C   0  0  0  0  0  2  0  0  0  0  0  0
  192.4390  174.7230  136.9430 O   0  0  0  0  0  1  0  0  0  0  0  0
  190.0350  173.7670  137.3250 O   0  0  0  0  0  1  0  0  0  0  0  0
  190.9940  174.9200  136.5460 P   0  0  0  0  0  0  0  0  0  0  0  0
  190.8470  174.7380  134.8700 O   0  0  0  0  0  0  0  0  0  0  0  0
  1 10  1  0  0  0  0
  1 12  1  0  0  0  0
  2  6  2  0  0  0  0
  2  8  1  0  0  0  0
  3  8  1  0  0  0  0
  3 16  2  0  0  0  0
  4 17  1  0  0  0  0
  4 15  1  0  0  0  0
  5 10  2  0  0  0  0
  6  5  1  0  0  0  0
  7 13  2  0  0  0  0
  7 15  1  0  0  0  0
  8  1  2  0  0  0  0
  9 14  1  0  0  0  0
  9  4  1  0  0  0  0
 11 12  2  0  0  0  0
 13  2  1  0  0  0  0
 14 26  1  1  0  0  0
 14  7  1  0  0  0  0
 15  3  1  0  0  0  0
 16 11  1  0  0  0  0
 18 21  1  0  0  0  0
 18 17  2  0  0  0  0
 19 20  2  0  0  0  0
 21 22  2  0  0  0  0
 22 20  1  0  0  0  0
 23 24  2  0  0  0  0
 23 25  1  0  0  0  0
 24 21  1  0  0  0  0
 25 19  1  0  0  0  0
 27 26  1  0  0  0  0
 28 27  1  0  0  0  0
 29 28  1  0  0  0  0
 30 29  1  0  0  0  0
 33 31  1  0  0  0  0
 33 30  1  0  0  0  0
 33 32  1  0  0  0  0
 34 33  2  0  0  0  0
M  END
>  <MODEL>
7

>  <REMARK>
 VINA RESULT:      -7.9      1.773      2.670
  Name = 
  8 active torsions:
  status: ('A' for Active; 'I' for Inactive)
    1  A    between atoms: C_3  and  O_13
    2  A    between atoms: C_3  and  C_17
    3  A    between atoms: N_5  and  C_26
    4  A    between atoms: C_12  and  C_28
    5  A    between atoms: O_13  and  C_33
    6  A    between atoms: C_17  and  C_29
    7  A    between atoms: P_20  and  C_34
    8  A    between atoms: C_33  and  C_34
                            x       y       z     vdW  Elec       q    Type
                         _______ _______ _______ _____ _____    ______ ____

>  <TORSDO>
F 8

$$$$
=
 OpenBabel10272400003D

 34 38  0  0  1  0  0  0  0  0999 V2000
  188.8880  177.3720  146.7830 C   0  0  0  0  0  0  0  0  0  0  0  0
  186.7590  178.5650  146.6140 C   0  0  0  0  0  0  0  0  0  0  0  0
  187.9090  177.8130  144.6090 C   0  0  0  0  0  0  0  0  0  0  0  0
  186.6200  178.4310  142.4780 N   0  0  0  0  0  0  0  0  0  0  0  0
  187.7640  178.1580  148.7840 C   0  0  0  0  0  3  0  0  0  0  0  0
  186.7220  178.6820  148.0060 C   0  0  0  0  0  3  0  0  0  0  0  0
  185.7110  178.9300  144.5140 C   0  0  0  0  0  0  0  0  0  0  0  0
  187.8570  177.9230  146.0040 C   0  0  0  0  0  0  0  0  0  0  0  0
  185.2670  178.9080  142.1910 C   0  0  0  0  0  2  0  0  0  0  0  0
  188.8420  177.4990  148.1750 C   0  0  0  0  0  3  0  0  0  0  0  0
  189.9280  176.5720  144.7580 C   0  0  0  0  0  3  0  0  0  0  0  0
  189.9320  176.6920  146.1530 C   0  0  0  0  0  3  0  0  0  0  0  0
  185.6570  179.0310  145.8110 N   0  0  0  0  0  0  0  0  0  0  0  0
  184.6290  179.2820  143.5510 C   0  0  1  0  0  3  0  0  0  0  0  0
  186.8500  178.4290  143.8570 N   0  0  0  0  0  0  0  0  0  0  0  0
  188.9250  177.1260  144.0200 N   0  0  0  0  0  0  0  0  0  0  0  0
  187.6280  178.4970  141.4640 C   0  0  0  0  0  3  0  0  0  0  0  0
  188.1720  177.4100  140.9210 C   0  0  0  0  0  3  0  0  0  0  0  0
  191.5110  176.9310  137.8540 C   0  0  0  0  0  3  0  0  0  0  0  0
  191.5700  176.8800  139.1840 C   0  0  0  0  0  3  0  0  0  0  0  0
  189.2050  177.4520  139.8740 C   0  0  0  0  0  0  0  0  0  0  0  0
  190.4060  176.8840  140.0920 C   0  0  0  0  0  3  0  0  0  0  0  0
  189.3580  178.0660  137.4530 C   0  0  0  0  0  3  0  0  0  0  0  0
  188.8860  178.2670  138.6840 C   0  0  0  0  0  3  0  0  0  0  0  0
  190.2290  176.9090  137.0930 C   0  0  0  0  0  2  0  0  0  0  0  0
  183.3960  178.4120  143.7590 C   0  0  0  0  0  2  0  0  0  0  0  0
  182.1250  179.1590  143.3920 C   0  0  0  0  0  2  0  0  0  0  0  0
  181.3430  178.3760  142.5430 O   0  0  0  0  0  0  0  0  0  0  0  0
  181.2810  179.0980  141.3510 C   0  0  0  0  0  2  0  0  0  0  0  0
  182.1150  178.4110  140.2830 C   0  0  0  0  0  2  0  0  0  0  0  0
  182.5620  178.8320  137.6320 O   0  0  0  0  0  0  0  0  0  0  0  0
  181.3840  180.8050  138.8810 O   0  0  0  0  0  1  0  0  0  0  0  0
  182.5400  179.5730  138.9490 P   0  0  0  0  0  0  0  0  0  0  0  0
  184.0650  180.2450  139.2360 O   0  0  0  0  0  1  0  0  0  0  0  0
  1 10  2  0  0  0  0
  2  6  1  0  0  0  0
  3  8  1  0  0  0  0
  4 15  1  0  0  0  0
  6  5  2  0  0  0  0
  7 13  2  0  0  0  0
  8  2  2  0  0  0  0
  8  1  1  0  0  0  0
  9  4  1  0  0  0  0
  9 14  1  0  0  0  0
 10  5  1  0  0  0  0
 11 12  2  0  0  0  0
 12  1  1  0  0  0  0
 13  2  1  0  0  0  0
 14 26  1  1  0  0  0
 14  7  1  0  0  0  0
 15  7  1  0  0  0  0
 15  3  1  0  0  0  0
 16  3  2  0  0  0  0
 16 11  1  0  0  0  0
 17  4  1  0  0  0  0
 18 17  2  0  0  0  0
 19 20  2  0  0  0  0
 20 22  1  0  0  0  0
 21 22  2  0  0  0  0
 21 18  1  0  0  0  0
 23 24  2  0  0  0  0
 24 21  1  0  0  0  0
 25 23  1  0  0  0  0
 25 19  1  0  0  0  0
 27 26  1  0  0  0  0
 28 27  1  0  0  0  0
 29 28  1  0  0  0  0
 30 29  1  0  0  0  0
 31 33  2  0  0  0  0
 32 33  1  0  0  0  0
 33 34  1  0  0  0  0
 33 30  1  0  0  0  0
M  END
>  <MODEL>
8

>  <REMARK>
 VINA RESULT:      -7.8      2.540      6.448
  Name = 
  8 active torsions:
  status: ('A' for Active; 'I' for Inactive)
    1  A    between atoms: C_3  and  O_13
    2  A    between atoms: C_3  and  C_17
    3  A    between atoms: N_5  and  C_26
    4  A    between atoms: C_12  and  C_28
    5  A    between atoms: O_13  and  C_33
    6  A    between atoms: C_17  and  C_29
    7  A    between atoms: P_20  and  C_34
    8  A    between atoms: C_33  and  C_34
                            x       y       z     vdW  Elec       q    Type
                         _______ _______ _______ _____ _____    ______ ____

>  <TORSDO>
F 8

$$$$
=
 OpenBabel10272400003D

 34 38  0  0  1  0  0  0  0  0999 V2000
  187.0270  177.6810  145.4360 C   0  0  0  0  0  0  0  0  0  0  0  0
  185.2180  178.7900  144.2170 C   0  0  0  0  0  0  0  0  0  0  0  0
  187.1290  177.8800  143.0210 C   0  0  0  0  0  0  0  0  0  0  0  0
  186.9380  178.2510  140.4890 N   0  0  0  0  0  0  0  0  0  0  0  0
  185.1420  178.6240  146.6360 C   0  0  0  0  0  3  0  0  0  0  0  0
  184.5660  179.0400  145.4270 C   0  0  0  0  0  3  0  0  0  0  0  0
  185.2250  178.9180  141.8450 C   0  0  0  0  0  0  0  0  0  0  0  0
  186.4610  178.1240  144.2280 C   0  0  0  0  0  0  0  0  0  0  0  0
  185.8640  178.6580  139.5830 C   0  0  0  0  0  2  0  0  0  0  0  0
  186.3660  177.9410  146.6410 C   0  0  0  0  0  3  0  0  0  0  0  0
  188.8470  176.7190  144.1770 C   0  0  0  0  0  3  0  0  0  0  0  0
  188.2310  176.9740  145.4090 C   0  0  0  0  0  3  0  0  0  0  0  0
  184.5990  179.1430  142.9650 N   0  0  0  0  0  0  0  0  0  0  0  0
  184.6920  179.1430  140.4710 C   0  0  1  0  0  3  0  0  0  0  0  0
  186.5290  178.3890  141.8190 N   0  0  0  0  0  0  0  0  0  0  0  0
  188.2890  177.1690  143.0180 N   0  0  0  0  0  0  0  0  0  0  0  0
  188.2940  178.2480  140.0300 C   0  0  0  0  0  3  0  0  0  0  0  0
  188.9130  177.1400  139.6300 C   0  0  0  0  0  3  0  0  0  0  0  0
  193.3520  176.7140  138.6790 C   0  0  0  0  0  3  0  0  0  0  0  0
  192.7620  177.3170  139.7100 C   0  0  0  0  0  3  0  0  0  0  0  0
  190.3040  177.1120  139.1490 C   0  0  0  0  0  0  0  0  0  0  0  0
  191.3190  177.2630  140.0210 C   0  0  0  0  0  3  0  0  0  0  0  0
  191.5180  176.5310  137.0400 C   0  0  0  0  0  3  0  0  0  0  0  0
  190.4800  177.0660  137.6830 C   0  0  0  0  0  3  0  0  0  0  0  0
  192.6270  175.8160  137.7350 C   0  0  0  0  0  2  0  0  0  0  0  0
  183.4820  178.2630  140.1930 C   0  0  0  0  0  2  0  0  0  0  0  0
  183.5310  177.6830  138.7900 C   0  0  0  0  0  2  0  0  0  0  0  0
  182.5540  176.6980  138.6490 O   0  0  0  0  0  0  0  0  0  0  0  0
  183.2560  175.5510  138.2760 C   0  0  0  0  0  2  0  0  0  0  0  0
  184.4340  175.9270  137.3930 C   0  0  0  0  0  2  0  0  0  0  0  0
  186.8860  174.7690  137.1660 O   0  0  0  0  0  1  0  0  0  0  0  0
  184.9820  173.1730  137.9810 O   0  0  0  0  0  1  0  0  0  0  0  0
  185.4200  174.4570  136.9730 P   0  0  0  0  0  0  0  0  0  0  0  0
  185.1500  174.0250  135.3590 O   0  0  0  0  0  0  0  0  0  0  0  0
  1 10  2  0  0  0  0
  2  8  2  0  0  0  0
  2  6  1  0  0  0  0
  3  8  1  0  0  0  0
  4 15  1  0  0  0  0
  5 10  1  0  0  0  0
  6  5  2  0  0  0  0
  7 13  2  0  0  0  0
  8  1  1  0  0  0  0
  9 14  1  0  0  0  0
  9  4  1  0  0  0  0
 11 12  2  0  0  0  0
 12  1  1  0  0  0  0
 13  2  1  0  0  0  0
 14 26  1  6  0  0  0
 14  7  1  0  0  0  0
 15  7  1  0  0  0  0
 15  3  1  0  0  0  0
 16  3  2  0  0  0  0
 16 11  1  0  0  0  0
 17  4  1  0  0  0  0
 18 17  2  0  0  0  0
 19 20  2  0  0  0  0
 20 22  1  0  0  0  0
 21 18  1  0  0  0  0
 21 22  2  0  0  0  0
 23 24  2  0  0  0  0
 23 25  1  0  0  0  0
 24 21  1  0  0  0  0
 25 19  1  0  0  0  0
 27 26  1  0  0  0  0
 28 27  1  0  0  0  0
 29 28  1  0  0  0  0
 30 29  1  0  0  0  0
 33 31  1  0  0  0  0
 33 30  1  0  0  0  0
 33 32  1  0  0  0  0
 34 33  2  0  0  0  0
M  END
>  <MODEL>
9

>  <REMARK>
 VINA RESULT:      -7.8      2.695      6.823
  Name = 
  8 active torsions:
  status: ('A' for Active; 'I' for Inactive)
    1  A    between atoms: C_3  and  O_13
    2  A    between atoms: C_3  and  C_17
    3  A    between atoms: N_5  and  C_26
    4  A    between atoms: C_12  and  C_28
    5  A    between atoms: O_13  and  C_33
    6  A    between atoms: C_17  and  C_29
    7  A    between atoms: P_20  and  C_34
    8  A    between atoms: C_33  and  C_34
                            x       y       z     vdW  Elec       q    Type
                         _______ _______ _______ _____ _____    ______ ____

>  <TORSDO>
F 8

$$$$
