=
 OpenBabel10272402103D

 32 36  0  0  1  0  0  0  0  0999 V2000
  188.4490  178.8640  140.1200 C   0  0  1  0  0  3  0  0  0  0  0  0
  187.8900  177.3190  141.8540 C   0  0  1  0  0  3  0  0  0  0  0  0
  190.4420  175.1280  138.0380 C   0  0  2  0  0  3  0  0  0  0  0  0
  187.8330  178.3850  138.7890 C   0  0  0  0  0  2  0  0  0  0  0  0
  187.5270  178.6840  141.3270 C   0  0  2  0  0  3  0  0  0  0  0  0
  186.5730  178.0120  143.9740 C   0  0  0  0  0  2  0  0  0  0  0  0
  191.5100  174.2670  137.7750 O   0  0  0  0  0  1  0  0  0  0  0  0
  189.3560  177.1250  141.4510 C   0  0  1  0  0  3  0  0  0  0  0  0
  185.2290  177.9760  143.2620 C   0  0  1  0  0  3  0  0  0  0  0  0
  189.9790  175.8400  136.7470 C   0  0  2  0  0  3  0  0  0  0  0  0
  188.5970  177.1300  138.4630 C   0  0  1  0  0  3  0  0  0  0  0  0
  187.5870  177.0620  143.3430 C   0  0  0  0  0  2  0  0  0  0  0  0
  186.0390  178.7610  140.9880 C   0  0  0  0  0  2  0  0  0  0  0  0
  189.0140  177.9760  136.2370 O   0  0  0  0  0  1  0  0  0  0  0  0
  188.7950  176.8100  136.9750 C   0  0  1  0  0  3  0  0  0  0  0  0
  190.7940  176.1130  139.1810 C   0  0  1  0  0  3  0  0  0  0  0  0
  192.1380  176.4850  139.1180 O   0  0  0  0  0  1  0  0  0  0  0  0
  189.6720  178.0790  140.3730 N   0  0  1  0  0  0  0  0  0  0  0  0
  184.1510  178.1700  144.3150 C   0  0  0  0  0  1  0  0  0  0  0  0
  189.9230  177.3780  139.1130 C   0  0  2  0  0  3  0  0  0  0  0  0
  185.1750  179.0890  142.2030 C   0  0  1  0  0  3  0  0  0  0  0  0
  191.6120  176.1310  144.3200 C   0  0  0  0  0  3  0  0  0  0  0  0
  191.6490  177.4180  145.0980 C   0  0  0  0  0  2  0  0  0  0  0  0
  190.6520  178.4840  143.0730 C   0  0  0  0  0  3  0  0  0  0  0  0
  190.3480  177.2780  142.5720 C   0  0  0  0  0  0  0  0  0  0  0  0
  191.6930  178.6210  144.1510 C   0  0  0  0  0  2  0  0  0  0  0  0
  190.9620  176.0670  143.1520 C   0  0  0  0  0  3  0  0  0  0  0  0
  188.3770  174.4220  136.1770 C   0  0  0  0  0  1  0  0  0  0  0  0
  189.6270  174.8980  135.7770 O   0  0  0  0  0  0  0  0  0  0  0  0
  183.8110  179.2960  141.7430 N   0  0  0  0  0  2  0  0  0  0  0  0
  183.1970  178.3500  140.9120 C   0  0  0  0  0  0  0  0  0  0  0  0
  182.6700  177.5360  140.1950 C   0  0  0  0  0  3  0  0  0  0  0  0
  1  4  1  6  0  0  0
  1 18  1  0  0  0  0
  1  5  1  0  0  0  0
  2 12  1  1  0  0  0
  3  7  1  6  0  0  0
  3 16  1  0  0  0  0
  5 13  1  6  0  0  0
  5  2  1  0  0  0  0
  8  2  1  0  0  0  0
  8 25  1  1  0  0  0
  9  6  1  0  0  0  0
  9 19  1  1  0  0  0
 10 29  1  6  0  0  0
 10 15  1  0  0  0  0
 10  3  1  0  0  0  0
 11  4  1  6  0  0  0
 11 20  1  0  0  0  0
 12  6  1  0  0  0  0
 13 21  1  0  0  0  0
 15 14  1  6  0  0  0
 15 11  1  0  0  0  0
 16 17  1  6  0  0  0
 18  8  1  0  0  0  0
 20 16  1  0  0  0  0
 20 18  1  0  0  0  0
 21  9  1  0  0  0  0
 22 23  1  0  0  0  0
 24 26  1  0  0  0  0
 25 24  2  0  0  0  0
 25 27  1  0  0  0  0
 26 23  1  0  0  0  0
 27 22  2  0  0  0  0
 29 28  1  0  0  0  0
 30 21  1  0  0  0  0
 31 30  1  0  0  0  0
 32 31  3  0  0  0  0
M  END
>  <MODEL>
1

>  <REMARK>
 VINA RESULT:      -7.9      0.000      0.000
  Name = 
  4 active torsions:
  status: ('A' for Active; 'I' for Inactive)
    1  A    between atoms: C_10  and  C_28
    2  A    between atoms: N_14  and  C_21
    3  A    between atoms: N_14  and  C_29
    4  A    between atoms: C_15  and  O_26
                            x       y       z     vdW  Elec       q    Type
                         _______ _______ _______ _____ _____    ______ ____

>  <TORSDO>
F 4

$$$$
=
 OpenBabel10272402103D

 32 36  0  0  1  0  0  0  0  0999 V2000
  191.6220  177.6710  139.2670 C   0  0  1  0  0  3  0  0  0  0  0  0
  190.8060  175.6480  138.2940 C   0  0  1  0  0  3  0  0  0  0  0  0
  188.6340  176.6670  142.7790 C   0  0  2  0  0  3  0  0  0  0  0  0
  192.2330  177.3640  140.6490 C   0  0  0  0  0  2  0  0  0  0  0  0
  191.9500  176.6260  138.2000 C   0  0  2  0  0  3  0  0  0  0  0  0
  191.6600  174.7450  136.0210 C   0  0  0  0  0  2  0  0  0  0  0  0
  187.3930  176.7230  143.4170 O   0  0  0  0  0  1  0  0  0  0  0  0
  189.6250  176.4800  138.8040 C   0  0  1  0  0  3  0  0  0  0  0  0
  192.9250  174.1560  136.6260 C   0  0  1  0  0  3  0  0  0  0  0  0
  189.7280  177.3330  143.6450 C   0  0  2  0  0  3  0  0  0  0  0  0
  191.0520  176.9670  141.4930 C   0  0  1  0  0  3  0  0  0  0  0  0
  190.5160  174.8170  137.0290 C   0  0  0  0  0  2  0  0  0  0  0  0
  193.2900  175.9220  138.4140 C   0  0  0  0  0  2  0  0  0  0  0  0
  191.7550  178.5350  143.1940 O   0  0  0  0  0  1  0  0  0  0  0  0
  191.1290  177.3020  142.9890 C   0  0  1  0  0  3  0  0  0  0  0  0
  188.5490  177.2600  141.3500 C   0  0  1  0  0  3  0  0  0  0  0  0
  187.6670  178.3410  141.3130 O   0  0  0  0  0  1  0  0  0  0  0  0
  190.1540  177.7150  139.4100 N   0  0  1  0  0  0  0  0  0  0  0  0
  193.6160  173.3480  135.5410 C   0  0  0  0  0  1  0  0  0  0  0  0
  189.9280  177.7250  140.8570 C   0  0  2  0  0  3  0  0  0  0  0  0
  193.8310  175.2900  137.1340 C   0  0  1  0  0  3  0  0  0  0  0  0
  187.6690  178.5850  136.3440 C   0  0  0  0  0  3  0  0  0  0  0  0
  186.3570  177.8490  136.3370 C   0  0  0  0  0  2  0  0  0  0  0  0
  187.5690  176.0030  137.5000 C   0  0  0  0  0  3  0  0  0  0  0  0
  188.5950  176.8250  137.7630 C   0  0  0  0  0  0  0  0  0  0  0  0
  186.5850  176.3370  136.4110 C   0  0  0  0  0  2  0  0  0  0  0  0
  188.7020  178.1150  137.0510 C   0  0  0  0  0  3  0  0  0  0  0  0
  189.6130  177.7590  145.8150 C   0  0  0  0  0  1  0  0  0  0  0  0
  189.7890  176.7200  144.8990 O   0  0  0  0  0  0  0  0  0  0  0  0
  195.1710  174.7930  137.4100 N   0  0  0  0  0  2  0  0  0  0  0  0
  195.6580  174.7730  138.7230 C   0  0  0  0  0  0  0  0  0  0  0  0
  196.0780  174.7560  139.8530 C   0  0  0  0  0  3  0  0  0  0  0  0
  1 18  1  0  0  0  0
  1  4  1  1  0  0  0
  2 12  1  6  0  0  0
  2  8  1  0  0  0  0
  3  7  1  1  0  0  0
  3 10  1  0  0  0  0
  5  2  1  0  0  0  0
  5 13  1  1  0  0  0
  5  1  1  0  0  0  0
  6  9  1  0  0  0  0
  6 12  1  0  0  0  0
  8 25  1  6  0  0  0
  8 18  1  0  0  0  0
  9 19  1  6  0  0  0
  9 21  1  0  0  0  0
 10 29  1  1  0  0  0
 11  4  1  6  0  0  0
 11 15  1  0  0  0  0
 15 14  1  6  0  0  0
 15 10  1  0  0  0  0
 16 17  1  1  0  0  0
 16  3  1  0  0  0  0
 18 20  1  0  0  0  0
 20 16  1  0  0  0  0
 20 11  1  0  0  0  0
 21 30  1  0  0  0  0
 21 13  1  0  0  0  0
 22 27  2  0  0  0  0
 23 22  1  0  0  0  0
 23 26  1  0  0  0  0
 24 25  2  0  0  0  0
 26 24  1  0  0  0  0
 27 25  1  0  0  0  0
 29 28  1  0  0  0  0
 30 31  1  0  0  0  0
 31 32  3  0  0  0  0
M  END
>  <MODEL>
2

>  <REMARK>
 VINA RESULT:      -6.7      3.337      8.208
  Name = 
  4 active torsions:
  status: ('A' for Active; 'I' for Inactive)
    1  A    between atoms: C_10  and  C_28
    2  A    between atoms: N_14  and  C_21
    3  A    between atoms: N_14  and  C_29
    4  A    between atoms: C_15  and  O_26
                            x       y       z     vdW  Elec       q    Type
                         _______ _______ _______ _____ _____    ______ ____

>  <TORSDO>
F 4

$$$$
=
 OpenBabel10272402103D

 32 36  0  0  1  0  0  0  0  0999 V2000
  188.2160  179.1270  141.2390 C   0  0  1  0  0  3  0  0  0  0  0  0
  189.1390  176.9870  141.7650 C   0  0  1  0  0  3  0  0  0  0  0  0
  186.0600  176.8410  137.7180 C   0  0  2  0  0  3  0  0  0  0  0  0
  186.6770  179.0460  141.2870 C   0  0  0  0  0  2  0  0  0  0  0  0
  188.9110  178.3530  142.3600 C   0  0  2  0  0  3  0  0  0  0  0  0
  190.7430  176.6080  143.7630 C   0  0  0  0  0  2  0  0  0  0  0  0
  185.9760  176.3550  136.4120 O   0  0  0  0  0  1  0  0  0  0  0  0
  189.2560  177.2370  140.2570 C   0  0  1  0  0  3  0  0  0  0  0  0
  189.6140  176.5710  144.7800 C   0  0  1  0  0  3  0  0  0  0  0  0
  184.9360  177.8640  137.9970 C   0  0  2  0  0  3  0  0  0  0  0  0
  186.3190  178.1630  140.1220 C   0  0  1  0  0  3  0  0  0  0  0  0
  190.2870  176.1610  142.3760 C   0  0  0  0  0  2  0  0  0  0  0  0
  188.0920  178.2580  143.6470 C   0  0  0  0  0  2  0  0  0  0  0  0
  184.7150  179.8130  139.3790 O   0  0  0  0  0  1  0  0  0  0  0  0
  184.9760  178.4410  139.4320 C   0  0  1  0  0  3  0  0  0  0  0  0
  187.4750  177.4010  138.0110 C   0  0  1  0  0  3  0  0  0  0  0  0
  188.0060  178.0230  136.8780 O   0  0  0  0  0  1  0  0  0  0  0  0
  188.6700  178.5540  139.9560 N   0  0  1  0  0  0  0  0  0  0  0  0
  190.2150  176.1630  146.1150 C   0  0  0  0  0  1  0  0  0  0  0  0
  187.4450  178.4140  139.1670 C   0  0  2  0  0  3  0  0  0  0  0  0
  188.9530  177.9560  144.8710 C   0  0  1  0  0  3  0  0  0  0  0  0
  192.1190  176.1600  138.0310 C   0  0  0  0  0  3  0  0  0  0  0  0
  193.2830  176.3740  138.9590 C   0  0  0  0  0  2  0  0  0  0  0  0
  191.6970  177.6630  140.3930 C   0  0  0  0  0  3  0  0  0  0  0  0
  190.6560  177.1660  139.7090 C   0  0  0  0  0  0  0  0  0  0  0  0
  193.0800  177.6390  139.7990 C   0  0  0  0  0  2  0  0  0  0  0  0
  190.8820  176.4990  138.4100 C   0  0  0  0  0  3  0  0  0  0  0  0
  183.3560  176.6540  138.9680 C   0  0  0  0  0  1  0  0  0  0  0  0
  183.6870  177.2830  137.7660 O   0  0  0  0  0  0  0  0  0  0  0  0
  188.1060  178.0460  146.0500 N   0  0  0  0  0  2  0  0  0  0  0  0
  186.7270  178.2440  145.9130 C   0  0  0  0  0  0  0  0  0  0  0  0
  185.5390  178.4140  145.7950 C   0  0  0  0  0  3  0  0  0  0  0  0
  1  4  1  1  0  0  0
  1  5  1  0  0  0  0
  2  5  1  0  0  0  0
  2 12  1  1  0  0  0
  3  7  1  6  0  0  0
  3 10  1  0  0  0  0
  3 16  1  0  0  0  0
  5 13  1  1  0  0  0
  6  9  1  0  0  0  0
  8 25  1  1  0  0  0
  8  2  1  0  0  0  0
  9 21  1  0  0  0  0
  9 19  1  1  0  0  0
 10 29  1  1  0  0  0
 10 15  1  0  0  0  0
 11  4  1  1  0  0  0
 12  6  1  0  0  0  0
 13 21  1  0  0  0  0
 15 14  1  6  0  0  0
 15 11  1  0  0  0  0
 16 17  1  6  0  0  0
 16 20  1  0  0  0  0
 18  8  1  0  0  0  0
 18  1  1  0  0  0  0
 20 18  1  0  0  0  0
 20 11  1  0  0  0  0
 21 30  1  0  0  0  0
 22 27  2  0  0  0  0
 22 23  1  0  0  0  0
 23 26  1  0  0  0  0
 25 24  2  0  0  0  0
 26 24  1  0  0  0  0
 27 25  1  0  0  0  0
 29 28  1  0  0  0  0
 31 30  1  0  0  0  0
 32 31  3  0  0  0  0
M  END
>  <MODEL>
3

>  <REMARK>
 VINA RESULT:      -6.1      2.451      4.642
  Name = 
  4 active torsions:
  status: ('A' for Active; 'I' for Inactive)
    1  A    between atoms: C_10  and  C_28
    2  A    between atoms: N_14  and  C_21
    3  A    between atoms: N_14  and  C_29
    4  A    between atoms: C_15  and  O_26
                            x       y       z     vdW  Elec       q    Type
                         _______ _______ _______ _____ _____    ______ ____

>  <TORSDO>
F 4

$$$$
=
 OpenBabel10272402103D

 32 36  0  0  1  0  0  0  0  0999 V2000
  185.0240  179.1600  140.2300 C   0  0  1  0  0  3  0  0  0  0  0  0
  183.4260  177.3840  140.2640 C   0  0  1  0  0  3  0  0  0  0  0  0
  186.3940  177.4150  144.3950 C   0  0  2  0  0  3  0  0  0  0  0  0
  186.4460  178.5690  140.3150 C   0  0  0  0  0  2  0  0  0  0  0  0
  184.0790  178.3670  139.3250 C   0  0  2  0  0  3  0  0  0  0  0  0
  181.7310  176.9900  138.3450 C   0  0  0  0  0  2  0  0  0  0  0  0
  186.3490  177.3270  145.7880 O   0  0  0  0  0  1  0  0  0  0  0  0
  183.4420  178.0830  141.6280 C   0  0  1  0  0  3  0  0  0  0  0  0
  182.7540  176.2940  137.4620 C   0  0  1  0  0  3  0  0  0  0  0  0
  187.7870  177.8880  143.9190 C   0  0  2  0  0  3  0  0  0  0  0  0
  186.5220  177.9960  141.7040 C   0  0  1  0  0  3  0  0  0  0  0  0
  182.0510  176.8400  139.8300 C   0  0  0  0  0  2  0  0  0  0  0  0
  184.7830  177.6420  138.1780 C   0  0  0  0  0  2  0  0  0  0  0  0
  188.6050  179.1700  142.0630 O   0  0  0  0  0  1  0  0  0  0  0  0
  187.9000  178.0060  142.3800 C   0  0  1  0  0  3  0  0  0  0  0  0
  185.2400  178.2970  143.8570 C   0  0  1  0  0  3  0  0  0  0  0  0
  184.9790  179.3570  144.7280 O   0  0  0  0  0  1  0  0  0  0  0  0
  184.4420  179.1630  141.5860 N   0  0  1  0  0  0  0  0  0  0  0  0
  182.0130  175.7380  136.2570 C   0  0  0  0  0  1  0  0  0  0  0  0
  185.5720  178.8650  142.4680 C   0  0  2  0  0  3  0  0  0  0  0  0
  183.8360  177.2980  137.0320 C   0  0  1  0  0  3  0  0  0  0  0  0
  180.2410  180.0940  141.5030 C   0  0  0  0  0  3  0  0  0  0  0  0
  179.9830  180.2900  142.9730 C   0  0  0  0  0  2  0  0  0  0  0  0
  181.7070  178.5240  143.3470 C   0  0  0  0  0  3  0  0  0  0  0  0
  182.1150  178.6350  142.0740 C   0  0  0  0  0  0  0  0  0  0  0  0
  180.3500  179.0280  143.7590 C   0  0  0  0  0  2  0  0  0  0  0  0
  181.2710  179.3470  141.0930 C   0  0  0  0  0  3  0  0  0  0  0  0
  189.7100  177.8540  145.0170 C   0  0  0  0  0  1  0  0  0  0  0  0
  188.7770  177.0230  144.3920 O   0  0  0  0  0  0  0  0  0  0  0  0
  184.6300  176.7620  135.9370 N   0  0  0  0  0  2  0  0  0  0  0  0
  185.9000  177.2860  135.6660 C   0  0  0  0  0  0  0  0  0  0  0  0
  186.9940  177.7380  135.4330 C   0  0  0  0  0  3  0  0  0  0  0  0
  1  4  1  1  0  0  0
  1 18  1  0  0  0  0
  2 12  1  6  0  0  0
  2  8  1  0  0  0  0
  3  7  1  1  0  0  0
  5 13  1  6  0  0  0
  5  1  1  0  0  0  0
  5  2  1  0  0  0  0
  6 12  1  0  0  0  0
  8 25  1  6  0  0  0
  9 19  1  6  0  0  0
  9  6  1  0  0  0  0
 10 29  1  6  0  0  0
 10  3  1  0  0  0  0
 11  4  1  6  0  0  0
 11 15  1  0  0  0  0
 11 20  1  0  0  0  0
 15 14  1  1  0  0  0
 15 10  1  0  0  0  0
 16  3  1  0  0  0  0
 16 17  1  1  0  0  0
 18  8  1  0  0  0  0
 18 20  1  0  0  0  0
 20 16  1  0  0  0  0
 21  9  1  0  0  0  0
 21 13  1  0  0  0  0
 22 23  1  0  0  0  0
 23 26  1  0  0  0  0
 24 26  1  0  0  0  0
 25 24  2  0  0  0  0
 27 22  2  0  0  0  0
 27 25  1  0  0  0  0
 29 28  1  0  0  0  0
 30 21  1  0  0  0  0
 31 30  1  0  0  0  0
 32 31  3  0  0  0  0
M  END
>  <MODEL>
4

>  <REMARK>
 VINA RESULT:      -5.9      3.641      7.594
  Name = 
  4 active torsions:
  status: ('A' for Active; 'I' for Inactive)
    1  A    between atoms: C_10  and  C_28
    2  A    between atoms: N_14  and  C_21
    3  A    between atoms: N_14  and  C_29
    4  A    between atoms: C_15  and  O_26
                            x       y       z     vdW  Elec       q    Type
                         _______ _______ _______ _____ _____    ______ ____

>  <TORSDO>
F 4

$$$$
=
 OpenBabel10272402103D

 32 36  0  0  1  0  0  0  0  0999 V2000
  183.9120  178.4290  138.1100 C   0  0  1  0  0  3  0  0  0  0  0  0
  182.9990  176.6960  139.4770 C   0  0  1  0  0  3  0  0  0  0  0  0
  187.6710  178.0760  140.9400 C   0  0  2  0  0  3  0  0  0  0  0  0
  185.2300  177.9400  137.4760 C   0  0  0  0  0  2  0  0  0  0  0  0
  182.8110  177.3680  138.1410 C   0  0  2  0  0  3  0  0  0  0  0  0
  180.6500  175.6830  139.0700 C   0  0  0  0  0  2  0  0  0  0  0  0
  188.4200  178.4130  142.0690 O   0  0  0  0  0  1  0  0  0  0  0  0
  183.6220  177.7750  140.3700 C   0  0  1  0  0  3  0  0  0  0  0  0
  181.1330  174.7860  137.9410 C   0  0  1  0  0  3  0  0  0  0  0  0
  188.4410  178.4270  139.6460 C   0  0  2  0  0  3  0  0  0  0  0  0
  186.1740  177.8170  138.6420 C   0  0  1  0  0  3  0  0  0  0  0  0
  181.7580  176.0010  140.0700 C   0  0  0  0  0  2  0  0  0  0  0  0
  182.8950  176.3530  137.0020 C   0  0  0  0  0  2  0  0  0  0  0  0
  187.8190  179.1130  137.4320 O   0  0  0  0  0  1  0  0  0  0  0  0
  187.6600  178.0770  138.3560 C   0  0  1  0  0  3  0  0  0  0  0  0
  186.2610  178.7140  140.9990 C   0  0  1  0  0  3  0  0  0  0  0  0
  186.3150  179.9790  141.5890 O   0  0  0  0  0  1  0  0  0  0  0  0
  184.1880  178.8250  139.5050 N   0  0  1  0  0  0  0  0  0  0  0  0
  179.9820  173.8670  137.5650 C   0  0  0  0  0  1  0  0  0  0  0  0
  185.6490  178.8450  139.5950 C   0  0  2  0  0  3  0  0  0  0  0  0
  181.5660  175.6480  136.7440 C   0  0  1  0  0  3  0  0  0  0  0  0
  182.2350  178.8040  143.7350 C   0  0  0  0  0  3  0  0  0  0  0  0
  180.7660  178.8730  143.4170 C   0  0  0  0  0  2  0  0  0  0  0  0
  181.4460  178.7770  141.0170 C   0  0  0  0  0  3  0  0  0  0  0  0
  182.6820  178.3930  141.3690 C   0  0  0  0  0  0  0  0  0  0  0  0
  180.5430  179.4500  142.0150 C   0  0  0  0  0  2  0  0  0  0  0  0
  183.1220  178.5370  142.7710 C   0  0  0  0  0  3  0  0  0  0  0  0
  189.4630  176.6150  138.8910 C   0  0  0  0  0  1  0  0  0  0  0  0
  189.6780  177.7800  139.6300 O   0  0  0  0  0  0  0  0  0  0  0  0
  181.7150  174.8310  135.5490 N   0  0  0  0  0  2  0  0  0  0  0  0
  182.8490  174.0270  135.3830 C   0  0  0  0  0  0  0  0  0  0  0  0
  183.8260  173.3340  135.2390 C   0  0  0  0  0  3  0  0  0  0  0  0
  1  4  1  1  0  0  0
  1  5  1  0  0  0  0
  1 18  1  0  0  0  0
  2 12  1  1  0  0  0
  2  8  1  0  0  0  0
  3 16  1  0  0  0  0
  3  7  1  1  0  0  0
  5 13  1  6  0  0  0
  5  2  1  0  0  0  0
  6 12  1  0  0  0  0
  8 25  1  1  0  0  0
  9 19  1  6  0  0  0
  9  6  1  0  0  0  0
 10 29  1  6  0  0  0
 10  3  1  0  0  0  0
 11  4  1  6  0  0  0
 11 20  1  0  0  0  0
 15 14  1  6  0  0  0
 15 11  1  0  0  0  0
 15 10  1  0  0  0  0
 16 17  1  6  0  0  0
 18 20  1  0  0  0  0
 18  8  1  0  0  0  0
 20 16  1  0  0  0  0
 21 13  1  0  0  0  0
 21  9  1  0  0  0  0
 23 22  1  0  0  0  0
 24 25  2  0  0  0  0
 24 26  1  0  0  0  0
 25 27  1  0  0  0  0
 26 23  1  0  0  0  0
 27 22  2  0  0  0  0
 28 29  1  0  0  0  0
 30 21  1  0  0  0  0
 31 30  1  0  0  0  0
 32 31  3  0  0  0  0
M  END
>  <MODEL>
5

>  <REMARK>
 VINA RESULT:      -5.6      3.289      6.759
  Name = 
  4 active torsions:
  status: ('A' for Active; 'I' for Inactive)
    1  A    between atoms: C_10  and  C_28
    2  A    between atoms: N_14  and  C_21
    3  A    between atoms: N_14  and  C_29
    4  A    between atoms: C_15  and  O_26
                            x       y       z     vdW  Elec       q    Type
                         _______ _______ _______ _____ _____    ______ ____

>  <TORSDO>
F 4

$$$$
=
 OpenBabel10272402103D

 32 36  0  0  1  0  0  0  0  0999 V2000
  188.1980  176.2910  142.8520 C   0  0  1  0  0  3  0  0  0  0  0  0
  190.0990  177.6950  143.2040 C   0  0  1  0  0  3  0  0  0  0  0  0
  185.9340  179.4270  145.5550 C   0  0  2  0  0  3  0  0  0  0  0  0
  187.0720  177.1110  142.1910 C   0  0  0  0  0  2  0  0  0  0  0  0
  189.5920  176.5990  142.3010 C   0  0  2  0  0  3  0  0  0  0  0  0
  192.4200  177.1940  142.1690 C   0  0  0  0  0  2  0  0  0  0  0  0
  185.4840  179.9260  146.7790 O   0  0  0  0  0  1  0  0  0  0  0  0
  189.3860  177.4590  144.5390 C   0  0  1  0  0  3  0  0  0  0  0  0
  192.0350  177.7500  140.8070 C   0  0  1  0  0  3  0  0  0  0  0  0
  184.7430  179.0740  144.6350 C   0  0  2  0  0  3  0  0  0  0  0  0
  186.6520  178.0850  143.2580 C   0  0  1  0  0  3  0  0  0  0  0  0
  191.6300  177.8410  143.3030 C   0  0  0  0  0  2  0  0  0  0  0  0
  189.5950  177.0480  140.8400 C   0  0  0  0  0  2  0  0  0  0  0  0
  184.3450  177.4450  142.9190 O   0  0  0  0  0  1  0  0  0  0  0  0
  185.1780  178.5140  143.2590 C   0  0  1  0  0  3  0  0  0  0  0  0
  186.9090  178.2410  145.7650 C   0  0  1  0  0  3  0  0  0  0  0  0
  186.5220  177.4690  146.8620 O   0  0  0  0  0  1  0  0  0  0  0  0
  188.2120  176.6020  144.2950 N   0  0  1  0  0  0  0  0  0  0  0  0
  193.2920  177.7780  139.9540 C   0  0  0  0  0  1  0  0  0  0  0  0
  186.9690  177.3420  144.5190 C   0  0  2  0  0  3  0  0  0  0  0  0
  190.9540  176.8600  140.1710 C   0  0  1  0  0  3  0  0  0  0  0  0
  190.8410  176.9000  147.9850 C   0  0  0  0  0  3  0  0  0  0  0  0
  192.1920  176.3430  147.6250 C   0  0  0  0  0  2  0  0  0  0  0  0
  191.2820  176.0610  145.3180 C   0  0  0  0  0  3  0  0  0  0  0  0
  190.2420  176.8530  145.6180 C   0  0  0  0  0  0  0  0  0  0  0  0
  192.0880  175.4140  146.4120 C   0  0  0  0  0  2  0  0  0  0  0  0
  189.9480  177.1740  147.0290 C   0  0  0  0  0  3  0  0  0  0  0  0
  182.7120  179.6850  144.0000 C   0  0  0  0  0  1  0  0  0  0  0  0
  183.9330  180.1960  144.4430 O   0  0  0  0  0  0  0  0  0  0  0  0
  190.8050  177.1640  138.7560 N   0  0  0  0  0  2  0  0  0  0  0  0
  189.7920  178.0290  138.3250 C   0  0  0  0  0  0  0  0  0  0  0  0
  188.9190  178.7730  137.9530 C   0  0  0  0  0  3  0  0  0  0  0  0
  1  4  1  6  0  0  0
  1 18  1  0  0  0  0
  2 12  1  1  0  0  0
  2  8  1  0  0  0  0
  3 16  1  0  0  0  0
  3  7  1  1  0  0  0
  5 13  1  6  0  0  0
  5  1  1  0  0  0  0
  5  2  1  0  0  0  0
  6 12  1  0  0  0  0
  8 25  1  1  0  0  0
  9 19  1  6  0  0  0
  9  6  1  0  0  0  0
 10 29  1  6  0  0  0
 10  3  1  0  0  0  0
 11  4  1  6  0  0  0
 11 15  1  0  0  0  0
 11 20  1  0  0  0  0
 15 14  1  1  0  0  0
 15 10  1  0  0  0  0
 16 17  1  1  0  0  0
 18 20  1  0  0  0  0
 18  8  1  0  0  0  0
 20 16  1  0  0  0  0
 21  9  1  0  0  0  0
 21 13  1  0  0  0  0
 23 22  1  0  0  0  0
 24 25  2  0  0  0  0
 24 26  1  0  0  0  0
 25 27  1  0  0  0  0
 26 23  1  0  0  0  0
 27 22  2  0  0  0  0
 28 29  1  0  0  0  0
 30 21  1  0  0  0  0
 31 30  1  0  0  0  0
 32 31  3  0  0  0  0
M  END
>  <MODEL>
6

>  <REMARK>
 VINA RESULT:      -5.4      3.873      6.894
  Name = 
  4 active torsions:
  status: ('A' for Active; 'I' for Inactive)
    1  A    between atoms: C_10  and  C_28
    2  A    between atoms: N_14  and  C_21
    3  A    between atoms: N_14  and  C_29
    4  A    between atoms: C_15  and  O_26
                            x       y       z     vdW  Elec       q    Type
                         _______ _______ _______ _____ _____    ______ ____

>  <TORSDO>
F 4

$$$$
=
 OpenBabel10272402103D

 32 36  0  0  1  0  0  0  0  0999 V2000
  186.2950  175.3400  135.0410 C   0  0  1  0  0  3  0  0  0  0  0  0
  185.0110  174.3950  136.8210 C   0  0  1  0  0  3  0  0  0  0  0  0
  188.4770  177.7300  138.4750 C   0  0  2  0  0  3  0  0  0  0  0  0
  187.7890  175.0380  135.2720 C   0  0  0  0  0  2  0  0  0  0  0  0
  185.3690  174.1690  135.3740 C   0  0  2  0  0  3  0  0  0  0  0  0
  183.1500  172.6370  136.4240 C   0  0  0  0  0  2  0  0  0  0  0  0
  188.6380  178.8250  139.3270 O   0  0  0  0  0  1  0  0  0  0  0  0
  185.1050  175.9130  137.0100 C   0  0  1  0  0  3  0  0  0  0  0  0
  184.1380  171.4890  136.2860 C   0  0  1  0  0  3  0  0  0  0  0  0
  189.7010  177.5750  137.5440 C   0  0  2  0  0  3  0  0  0  0  0  0
  188.1430  175.8490  136.4900 C   0  0  1  0  0  3  0  0  0  0  0  0
  183.6910  173.7630  137.3020 C   0  0  0  0  0  2  0  0  0  0  0  0
  186.0120  172.7960  135.1790 C   0  0  0  0  0  2  0  0  0  0  0  0
  190.0480  176.7620  135.3130 O   0  0  0  0  0  1  0  0  0  0  0  0
  189.5830  176.3760  136.5730 C   0  0  1  0  0  3  0  0  0  0  0  0
  187.1370  177.8210  137.7030 C   0  0  1  0  0  3  0  0  0  0  0  0
  186.8370  179.1470  137.3850 O   0  0  0  0  0  1  0  0  0  0  0  0
  185.9110  176.4700  135.9100 N   0  0  1  0  0  0  0  0  0  0  0  0
  183.3340  170.2020  136.2180 C   0  0  0  0  0  1  0  0  0  0  0  0
  187.1830  176.9960  136.4070 C   0  0  2  0  0  3  0  0  0  0  0  0
  184.9810  171.6820  135.0150 C   0  0  1  0  0  3  0  0  0  0  0  0
  182.0340  177.7750  135.8230 C   0  0  0  0  0  3  0  0  0  0  0  0
  181.6870  178.5500  137.0650 C   0  0  0  0  0  2  0  0  0  0  0  0
  183.2830  177.0460  138.2570 C   0  0  0  0  0  3  0  0  0  0  0  0
  183.7830  176.6270  137.0850 C   0  0  0  0  0  0  0  0  0  0  0  0
  181.9300  177.7020  138.3170 C   0  0  0  0  0  2  0  0  0  0  0  0
  183.0490  176.9030  135.8330 C   0  0  0  0  0  3  0  0  0  0  0  0
  190.8020  176.1620  138.8460 C   0  0  0  0  0  1  0  0  0  0  0  0
  190.8690  177.4460  138.3000 O   0  0  0  0  0  0  0  0  0  0  0  0
  185.6910  170.4580  134.6770 N   0  0  0  0  0  2  0  0  0  0  0  0
  187.0130  170.2720  135.1010 C   0  0  0  0  0  0  0  0  0  0  0  0
  188.1510  170.1100  135.4650 C   0  0  0  0  0  3  0  0  0  0  0  0
  1  4  1  1  0  0  0
  1  5  1  0  0  0  0
  1 18  1  0  0  0  0
  2  8  1  0  0  0  0
  2 12  1  6  0  0  0
  3  7  1  6  0  0  0
  5 13  1  1  0  0  0
  5  2  1  0  0  0  0
  6 12  1  0  0  0  0
  8 25  1  6  0  0  0
  9 19  1  6  0  0  0
  9  6  1  0  0  0  0
 10 29  1  1  0  0  0
 10  3  1  0  0  0  0
 11  4  1  6  0  0  0
 11 15  1  0  0  0  0
 15 14  1  6  0  0  0
 15 10  1  0  0  0  0
 16 17  1  6  0  0  0
 16  3  1  0  0  0  0
 18 20  1  0  0  0  0
 18  8  1  0  0  0  0
 20 11  1  0  0  0  0
 20 16  1  0  0  0  0
 21 13  1  0  0  0  0
 21  9  1  0  0  0  0
 22 27  2  0  0  0  0
 22 23  1  0  0  0  0
 23 26  1  0  0  0  0
 24 26  1  0  0  0  0
 25 24  2  0  0  0  0
 27 25  1  0  0  0  0
 29 28  1  0  0  0  0
 30 21  1  0  0  0  0
 30 31  1  0  0  0  0
 31 32  3  0  0  0  0
M  END
>  <MODEL>
7

>  <REMARK>
 VINA RESULT:      -5.4      3.910      7.995
  Name = 
  4 active torsions:
  status: ('A' for Active; 'I' for Inactive)
    1  A    between atoms: C_10  and  C_28
    2  A    between atoms: N_14  and  C_21
    3  A    between atoms: N_14  and  C_29
    4  A    between atoms: C_15  and  O_26
                            x       y       z     vdW  Elec       q    Type
                         _______ _______ _______ _____ _____    ______ ____

>  <TORSDO>
F 4

$$$$
=
 OpenBabel10272402103D

 32 36  0  0  1  0  0  0  0  0999 V2000
  184.5240  178.9880  139.2990 C   0  0  1  0  0  3  0  0  0  0  0  0
  183.0020  177.2010  139.7420 C   0  0  1  0  0  3  0  0  0  0  0  0
  186.5910  177.6380  143.3200 C   0  0  2  0  0  3  0  0  0  0  0  0
  185.9580  178.4270  139.2030 C   0  0  0  0  0  2  0  0  0  0  0  0
  183.4700  178.1050  138.6300 C   0  0  2  0  0  3  0  0  0  0  0  0
  181.0340  176.6150  138.1630 C   0  0  0  0  0  2  0  0  0  0  0  0
  186.7710  177.6730  144.7050 O   0  0  0  0  0  1  0  0  0  0  0  0
  183.2160  178.0180  141.0210 C   0  0  1  0  0  3  0  0  0  0  0  0
  181.9210  175.8570  137.1890 C   0  0  1  0  0  3  0  0  0  0  0  0
  187.8760  178.0860  142.5880 C   0  0  2  0  0  3  0  0  0  0  0  0
  186.2710  177.9800  140.6050 C   0  0  1  0  0  3  0  0  0  0  0  0
  181.5910  176.6020  139.5840 C   0  0  0  0  0  2  0  0  0  0  0  0
  184.0000  177.2910  137.4500 C   0  0  0  0  0  2  0  0  0  0  0  0
  188.3510  179.2090  140.5210 O   0  0  0  0  0  1  0  0  0  0  0  0
  187.7380  178.0680  141.0460 C   0  0  1  0  0  3  0  0  0  0  0  0
  185.3410  178.4530  142.9030 C   0  0  1  0  0  3  0  0  0  0  0  0
  185.1930  179.5820  143.7120 O   0  0  0  0  0  1  0  0  0  0  0  0
  184.1670  179.1040  140.7260 N   0  0  1  0  0  0  0  0  0  0  0  0
  181.0130  175.1880  136.1710 C   0  0  0  0  0  1  0  0  0  0  0  0
  185.4310  178.9000  141.4360 C   0  0  2  0  0  3  0  0  0  0  0  0
  182.8920  176.8350  136.5050 C   0  0  1  0  0  3  0  0  0  0  0  0
  180.0570  180.0790  141.2920 C   0  0  0  0  0  3  0  0  0  0  0  0
  179.9840  180.2740  142.7830 C   0  0  0  0  0  2  0  0  0  0  0  0
  181.7130  178.4810  142.9400 C   0  0  0  0  0  3  0  0  0  0  0  0
  181.9630  178.5890  141.6270 C   0  0  0  0  0  0  0  0  0  0  0  0
  180.4250  179.0040  143.5160 C   0  0  0  0  0  2  0  0  0  0  0  0
  181.0170  179.3170  140.7580 C   0  0  0  0  0  3  0  0  0  0  0  0
  189.9240  178.1720  143.4250 C   0  0  0  0  0  1  0  0  0  0  0  0
  188.9530  177.2800  142.9660 O   0  0  0  0  0  0  0  0  0  0  0  0
  183.5160  176.2140  135.3470 N   0  0  0  0  0  2  0  0  0  0  0  0
  184.4950  175.2290  135.5180 C   0  0  0  0  0  0  0  0  0  0  0  0
  185.3400  174.3800  135.6640 C   0  0  0  0  0  3  0  0  0  0  0  0
  1  4  1  1  0  0  0
  1 18  1  0  0  0  0
  2 12  1  6  0  0  0
  2  8  1  0  0  0  0
  3  7  1  1  0  0  0
  5 13  1  6  0  0  0
  5  1  1  0  0  0  0
  5  2  1  0  0  0  0
  6 12  1  0  0  0  0
  8 25  1  6  0  0  0
  9 19  1  6  0  0  0
  9  6  1  0  0  0  0
 10 29  1  6  0  0  0
 10  3  1  0  0  0  0
 11  4  1  6  0  0  0
 11 15  1  0  0  0  0
 11 20  1  0  0  0  0
 15 14  1  6  0  0  0
 15 10  1  0  0  0  0
 16  3  1  0  0  0  0
 16 17  1  1  0  0  0
 18  8  1  0  0  0  0
 18 20  1  0  0  0  0
 20 16  1  0  0  0  0
 21  9  1  0  0  0  0
 21 13  1  0  0  0  0
 22 23  1  0  0  0  0
 23 26  1  0  0  0  0
 24 26  1  0  0  0  0
 25 24  2  0  0  0  0
 27 22  2  0  0  0  0
 27 25  1  0  0  0  0
 29 28  1  0  0  0  0
 30 31  1  0  0  0  0
 30 21  1  0  0  0  0
 31 32  3  0  0  0  0
M  END
>  <MODEL>
8

>  <REMARK>
 VINA RESULT:      -5.3      3.555      7.495
  Name = 
  4 active torsions:
  status: ('A' for Active; 'I' for Inactive)
    1  A    between atoms: C_10  and  C_28
    2  A    between atoms: N_14  and  C_21
    3  A    between atoms: N_14  and  C_29
    4  A    between atoms: C_15  and  O_26
                            x       y       z     vdW  Elec       q    Type
                         _______ _______ _______ _____ _____    ______ ____

>  <TORSDO>
F 4

$$$$
=
 OpenBabel10272402103D

 32 36  0  0  1  0  0  0  0  0999 V2000
  185.9030  177.3250  136.5310 C   0  0  1  0  0  3  0  0  0  0  0  0
  184.4650  175.5790  137.3020 C   0  0  1  0  0  3  0  0  0  0  0  0
  186.3450  178.3820  141.1080 C   0  0  2  0  0  3  0  0  0  0  0  0
  187.2990  177.1550  137.1630 C   0  0  0  0  0  2  0  0  0  0  0  0
  185.2580  176.0080  136.0940 C   0  0  2  0  0  3  0  0  0  0  0  0
  183.3120  173.9050  135.6980 C   0  0  0  0  0  2  0  0  0  0  0  0
  185.9730  179.0470  142.2780 O   0  0  0  0  0  1  0  0  0  0  0  0
  184.1060  176.8880  138.0150 C   0  0  1  0  0  3  0  0  0  0  0  0
  184.5610  173.0530  135.5420 C   0  0  1  0  0  3  0  0  0  0  0  0
  187.7770  178.7800  140.6820 C   0  0  2  0  0  3  0  0  0  0  0  0
  187.0770  177.4410  138.6240 C   0  0  1  0  0  3  0  0  0  0  0  0
  183.2750  174.6380  137.0360 C   0  0  0  0  0  2  0  0  0  0  0  0
  186.2640  174.9310  135.6890 C   0  0  0  0  0  2  0  0  0  0  0  0
  188.9290  178.9960  138.5890 O   0  0  0  0  0  1  0  0  0  0  0  0
  188.2480  178.0740  139.3880 C   0  0  1  0  0  3  0  0  0  0  0  0
  185.2970  178.6000  139.9890 C   0  0  1  0  0  3  0  0  0  0  0  0
  184.7640  179.8890  140.0530 O   0  0  0  0  0  1  0  0  0  0  0  0
  185.0130  177.9440  137.5320 N   0  0  1  0  0  0  0  0  0  0  0  0
  184.1710  171.8090  134.7600 C   0  0  0  0  0  1  0  0  0  0  0  0
  185.9150  178.3850  138.5980 C   0  0  2  0  0  3  0  0  0  0  0  0
  185.6450  173.8540  134.8010 C   0  0  1  0  0  3  0  0  0  0  0  0
  181.1010  178.5920  136.4760 C   0  0  0  0  0  3  0  0  0  0  0  0
  180.2510  178.8070  137.6990 C   0  0  0  0  0  2  0  0  0  0  0  0
  181.7940  177.2190  138.8530 C   0  0  0  0  0  3  0  0  0  0  0  0
  182.6780  177.3290  137.8490 C   0  0  0  0  0  0  0  0  0  0  0  0
  180.3550  177.6080  138.6470 C   0  0  0  0  0  2  0  0  0  0  0  0
  182.2590  177.9310  136.5670 C   0  0  0  0  0  3  0  0  0  0  0  0
  188.8620  177.1260  141.6780 C   0  0  0  0  0  1  0  0  0  0  0  0
  188.6800  178.5110  141.7140 O   0  0  0  0  0  0  0  0  0  0  0  0
  186.7130  172.9770  134.3470 N   0  0  0  0  0  2  0  0  0  0  0  0
  187.5480  172.3440  135.2760 C   0  0  0  0  0  0  0  0  0  0  0  0
  188.2660  171.7990  136.0770 C   0  0  0  0  0  3  0  0  0  0  0  0
  1  4  1  1  0  0  0
  1 18  1  0  0  0  0
  2 12  1  6  0  0  0
  2  8  1  0  0  0  0
  3  7  1  1  0  0  0
  5 13  1  1  0  0  0
  5  1  1  0  0  0  0
  5  2  1  0  0  0  0
  6 12  1  0  0  0  0
  8 25  1  6  0  0  0
  9 19  1  6  0  0  0
  9  6  1  0  0  0  0
 10  3  1  0  0  0  0
 10 29  1  1  0  0  0
 11  4  1  6  0  0  0
 11 15  1  0  0  0  0
 15 14  1  6  0  0  0
 15 10  1  0  0  0  0
 16 17  1  6  0  0  0
 16  3  1  0  0  0  0
 18  8  1  0  0  0  0
 18 20  1  0  0  0  0
 20 11  1  0  0  0  0
 20 16  1  0  0  0  0
 21  9  1  0  0  0  0
 21 13  1  0  0  0  0
 22 27  2  0  0  0  0
 22 23  1  0  0  0  0
 23 26  1  0  0  0  0
 25 24  2  0  0  0  0
 26 24  1  0  0  0  0
 27 25  1  0  0  0  0
 28 29  1  0  0  0  0
 30 21  1  0  0  0  0
 30 31  1  0  0  0  0
 31 32  3  0  0  0  0
M  END
>  <MODEL>
9

>  <REMARK>
 VINA RESULT:      -5.2      3.689      8.166
  Name = 
  4 active torsions:
  status: ('A' for Active; 'I' for Inactive)
    1  A    between atoms: C_10  and  C_28
    2  A    between atoms: N_14  and  C_21
    3  A    between atoms: N_14  and  C_29
    4  A    between atoms: C_15  and  O_26
                            x       y       z     vdW  Elec       q    Type
                         _______ _______ _______ _____ _____    ______ ____

>  <TORSDO>
F 4

$$$$
