=
 OpenBabel10272413163D

 32 34  0  0  1  0  0  0  0  0999 V2000
  190.3950  176.9100  141.1840 S   0  0  0  0  0  0  0  0  0  0  0  0
  190.3310  178.0650  142.5910 C   0  0  1  0  0  3  0  0  0  0  0  0
  189.0240  177.7800  140.4100 C   0  0  0  0  0  0  0  0  0  0  0  0
  187.9000  178.0050  141.1060 C   0  0  0  0  0  0  0  0  0  0  0  0
  187.8070  177.5060  142.5270 C   0  0  0  0  0  2  0  0  0  0  0  0
  189.0180  177.9210  143.3800 C   0  0  0  0  0  2  0  0  0  0  0  0
  189.2140  178.3420  139.0370 C   0  0  0  0  0  2  0  0  0  0  0  0
  188.9940  177.2850  138.0090 C   0  0  0  0  0  0  0  0  0  0  0  0
  188.9680  173.1050  136.4520 C   0  0  0  0  0  2  0  0  0  0  0  0
  189.9630  176.6160  137.4860 N   0  0  0  0  0  0  0  0  0  0  0  0
  187.1140  174.5960  136.9540 C   0  0  0  0  0  2  0  0  0  0  0  0
  187.9040  175.8520  136.5910 C   0  0  1  0  0  3  0  0  0  0  0  0
  187.7020  176.8850  137.5910 N   0  0  0  0  0  2  0  0  0  0  0  0
  189.4300  175.6060  136.5840 C   0  0  2  0  0  3  0  0  0  0  0  0
  187.5810  173.4830  136.1290 N   0  0  0  0  0  2  0  0  0  0  0  0
  189.7930  174.2180  137.1220 C   0  0  0  0  0  2  0  0  0  0  0  0
  186.8470  178.7170  140.5230 O   0  0  0  0  0  0  0  0  0  0  0  0
  185.6790  179.0740  141.2460 C   0  0  0  0  0  2  0  0  0  0  0  0
  184.4600  178.8110  140.3880 C   0  0  0  0  0  2  0  0  0  0  0  0
  184.8830  178.6830  138.9410 C   0  0  0  0  0  1  0  0  0  0  0  0
  191.5310  177.8810  143.5040 C   0  0  0  0  0  2  0  0  0  0  0  0
  191.9380  175.6690  145.2670 O   0  0  0  0  0  0  0  0  0  0  0  0
  191.4210  176.7150  145.7400 C   0  0  0  0  0  0  0  0  0  0  0  0
  191.0850  177.8110  144.8890 N   0  0  0  0  0  2  0  0  0  0  0  0
  191.1940  176.8240  147.2090 C   0  0  0  0  0  2  0  0  0  0  0  0
  189.7190  176.6460  147.5510 C   0  0  0  0  0  2  0  0  0  0  0  0
  188.9780  177.9780  147.5110 C   0  0  0  0  0  2  0  0  0  0  0  0
  187.5700  177.8330  148.0670 C   0  0  0  0  0  2  0  0  0  0  0  0
  186.5740  178.4770  147.1550 C   0  0  0  0  0  0  0  0  0  0  0  0
  185.9650  179.5090  147.5410 O   0  0  0  0  0  0  0  0  0  0  0  0
  186.3200  177.9750  145.8760 O   0  0  0  0  0  0  0  0  0  0  0  0
  185.3140  178.5150  145.0310 C   0  0  0  0  0  1  0  0  0  0  0  0
  1  2  1  0  0  0  0
  2  6  1  0  0  0  0
  2 21  1  1  0  0  0
  3  4  2  0  0  0  0
  3  1  1  0  0  0  0
  4  5  1  0  0  0  0
  5  6  1  0  0  0  0
  7  3  1  0  0  0  0
  8  7  1  0  0  0  0
  9 16  1  0  0  0  0
 10  8  2  0  0  0  0
 12 11  1  1  0  0  0
 12 13  1  0  0  0  0
 13  8  1  0  0  0  0
 14 12  1  0  0  0  0
 14 16  1  1  0  0  0
 14 10  1  0  0  0  0
 15  9  1  0  0  0  0
 15 11  1  0  0  0  0
 17  4  1  0  0  0  0
 17 18  1  0  0  0  0
 19 18  1  0  0  0  0
 20 19  1  0  0  0  0
 21 24  1  0  0  0  0
 22 23  2  0  0  0  0
 23 25  1  0  0  0  0
 24 23  1  0  0  0  0
 25 26  1  0  0  0  0
 27 26  1  0  0  0  0
 27 28  1  0  0  0  0
 29 30  2  0  0  0  0
 29 28  1  0  0  0  0
 31 29  1  0  0  0  0
 32 31  1  0  0  0  0
M  END
>  <MODEL>
1

>  <REMARK>
 VINA RESULT:      -6.9      0.000      0.000
  Name = 
  13 active torsions:
  status: ('A' for Active; 'I' for Inactive)
    1  A    between atoms: C_2  and  C_5
    2  A    between atoms: C_2  and  C_6
    3  A    between atoms: C_3  and  C_19
    4  A    between atoms: C_3  and  O_22
    5  A    between atoms: C_4  and  C_27
    6  A    between atoms: C_7  and  C_19
    7  A    between atoms: C_7  and  C_26
    8  A    between atoms: C_13  and  C_29
    9  A    between atoms: C_14  and  O_18
   10  A    between atoms: C_15  and  C_20
   11  A    between atoms: C_15  and  C_26
   12  A    between atoms: O_18  and  C_29
   13  A    between atoms: N_24  and  C_27
                            x       y       z     vdW  Elec       q    Type
                         _______ _______ _______ _____ _____    ______ ____

>  <TORSDO>
F 13

$$$$
=
 OpenBabel10272413163D

 32 34  0  0  1  0  0  0  0  0999 V2000
  188.5510  177.6140  140.9080 S   0  0  0  0  0  0  0  0  0  0  0  0
  189.8370  177.6460  142.1970 C   0  0  1  0  0  3  0  0  0  0  0  0
  187.3030  177.9940  142.1450 C   0  0  0  0  0  0  0  0  0  0  0  0
  187.2220  177.2520  143.2600 C   0  0  0  0  0  0  0  0  0  0  0  0
  188.1790  176.1000  143.4420 C   0  0  0  0  0  2  0  0  0  0  0  0
  189.6460  176.5060  143.2140 C   0  0  0  0  0  2  0  0  0  0  0  0
  186.4530  179.2100  141.9590 C   0  0  0  0  0  2  0  0  0  0  0  0
  185.2550  178.8840  141.1350 C   0  0  0  0  0  0  0  0  0  0  0  0
  180.9250  179.0180  140.0700 C   0  0  0  0  0  2  0  0  0  0  0  0
  184.2960  178.1420  141.5710 N   0  0  0  0  0  0  0  0  0  0  0  0
  182.8430  179.9950  138.9370 C   0  0  0  0  0  2  0  0  0  0  0  0
  183.7870  178.8770  139.3740 C   0  0  1  0  0  3  0  0  0  0  0  0
  185.0450  179.4290  139.8460 N   0  0  0  0  0  2  0  0  0  0  0  0
  183.2360  178.0760  140.5760 C   0  0  2  0  0  3  0  0  0  0  0  0
  181.4960  179.4480  138.7810 N   0  0  0  0  0  2  0  0  0  0  0  0
  181.9680  178.7100  141.1580 C   0  0  0  0  0  2  0  0  0  0  0  0
  186.2810  177.5680  144.2440 O   0  0  0  0  0  0  0  0  0  0  0  0
  186.6380  177.7530  145.6060 C   0  0  0  0  0  2  0  0  0  0  0  0
  185.7680  178.8360  146.2080 C   0  0  0  0  0  2  0  0  0  0  0  0
  184.4410  178.8730  145.4850 C   0  0  0  0  0  1  0  0  0  0  0  0
  191.2260  177.5930  141.5850 C   0  0  0  0  0  2  0  0  0  0  0  0
  193.4300  177.2610  139.7970 O   0  0  0  0  0  0  0  0  0  0  0  0
  192.2720  177.0340  139.3570 C   0  0  0  0  0  0  0  0  0  0  0  0
  191.1230  177.2920  140.1640 N   0  0  0  0  0  2  0  0  0  0  0  0
  192.1030  176.4510  137.9960 C   0  0  0  0  0  2  0  0  0  0  0  0
  190.6490  176.0760  137.7370 C   0  0  0  0  0  2  0  0  0  0  0  0
  190.0380  176.9540  136.6500 C   0  0  0  0  0  2  0  0  0  0  0  0
  189.4110  178.2030  137.2500 C   0  0  0  0  0  2  0  0  0  0  0  0
  187.9180  178.1300  137.1830 C   0  0  0  0  0  0  0  0  0  0  0  0
  187.2660  179.1600  136.8720 O   0  0  0  0  0  0  0  0  0  0  0  0
  187.2320  176.9390  137.4330 O   0  0  0  0  0  0  0  0  0  0  0  0
  185.8690  176.7540  137.0760 C   0  0  0  0  0  1  0  0  0  0  0  0
  1  3  1  0  0  0  0
  1  2  1  0  0  0  0
  2 21  1  6  0  0  0
  2  6  1  0  0  0  0
  3  4  2  0  0  0  0
  4  5  1  0  0  0  0
  4 17  1  0  0  0  0
  6  5  1  0  0  0  0
  7  3  1  0  0  0  0
  8 10  2  0  0  0  0
  8  7  1  0  0  0  0
  9 16  1  0  0  0  0
 12 11  1  1  0  0  0
 12 13  1  0  0  0  0
 12 14  1  0  0  0  0
 13  8  1  0  0  0  0
 14 16  1  1  0  0  0
 14 10  1  0  0  0  0
 15 11  1  0  0  0  0
 15  9  1  0  0  0  0
 17 18  1  0  0  0  0
 18 19  1  0  0  0  0
 20 19  1  0  0  0  0
 23 22  2  0  0  0  0
 23 24  1  0  0  0  0
 24 21  1  0  0  0  0
 25 23  1  0  0  0  0
 26 25  1  0  0  0  0
 27 28  1  0  0  0  0
 27 26  1  0  0  0  0
 29 28  1  0  0  0  0
 29 31  1  0  0  0  0
 30 29  2  0  0  0  0
 32 31  1  0  0  0  0
M  END
>  <MODEL>
2

>  <REMARK>
 VINA RESULT:      -6.8      2.934      7.004
  Name = 
  13 active torsions:
  status: ('A' for Active; 'I' for Inactive)
    1  A    between atoms: C_2  and  C_5
    2  A    between atoms: C_2  and  C_6
    3  A    between atoms: C_3  and  C_19
    4  A    between atoms: C_3  and  O_22
    5  A    between atoms: C_4  and  C_27
    6  A    between atoms: C_7  and  C_19
    7  A    between atoms: C_7  and  C_26
    8  A    between atoms: C_13  and  C_29
    9  A    between atoms: C_14  and  O_18
   10  A    between atoms: C_15  and  C_20
   11  A    between atoms: C_15  and  C_26
   12  A    between atoms: O_18  and  C_29
   13  A    between atoms: N_24  and  C_27
                            x       y       z     vdW  Elec       q    Type
                         _______ _______ _______ _____ _____    ______ ____

>  <TORSDO>
F 13

$$$$
=
 OpenBabel10272413163D

 32 34  0  0  1  0  0  0  0  0999 V2000
  185.3660  178.7990  143.5850 S   0  0  0  0  0  0  0  0  0  0  0  0
  184.0030  178.3650  144.7130 C   0  0  1  0  0  3  0  0  0  0  0  0
  186.5040  177.8380  144.5940 C   0  0  0  0  0  0  0  0  0  0  0  0
  186.5670  178.0550  145.9170 C   0  0  0  0  0  0  0  0  0  0  0  0
  185.6860  179.1170  146.5270 C   0  0  0  0  0  2  0  0  0  0  0  0
  184.2110  178.9740  146.1110 C   0  0  0  0  0  2  0  0  0  0  0  0
  187.2740  176.7300  143.9510 C   0  0  0  0  0  2  0  0  0  0  0  0
  188.3000  177.2820  143.0220 C   0  0  0  0  0  0  0  0  0  0  0  0
  192.2410  177.3480  140.9320 C   0  0  0  0  0  2  0  0  0  0  0  0
  189.4220  177.7620  143.4370 N   0  0  0  0  0  0  0  0  0  0  0  0
  190.0100  176.9560  140.0470 C   0  0  0  0  0  2  0  0  0  0  0  0
  189.3430  177.8750  141.0690 C   0  0  1  0  0  3  0  0  0  0  0  0
  188.1520  177.2470  141.6160 N   0  0  0  0  0  2  0  0  0  0  0  0
  190.2430  178.1430  142.2970 C   0  0  2  0  0  3  0  0  0  0  0  0
  191.3540  177.4580  139.7610 N   0  0  0  0  0  2  0  0  0  0  0  0
  191.5080  177.2780  142.2840 C   0  0  0  0  0  2  0  0  0  0  0  0
  187.4190  177.2830  146.7120 O   0  0  0  0  0  0  0  0  0  0  0  0
  188.7280  177.7100  147.0610 C   0  0  0  0  0  2  0  0  0  0  0  0
  189.6730  176.5300  146.9960 C   0  0  0  0  0  2  0  0  0  0  0  0
  191.0990  177.0300  146.9620 C   0  0  0  0  0  1  0  0  0  0  0  0
  182.6630  178.7870  144.1370 C   0  0  0  0  0  2  0  0  0  0  0  0
  180.4300  178.4070  142.3950 O   0  0  0  0  0  0  0  0  0  0  0  0
  181.5480  178.6660  141.8760 C   0  0  0  0  0  0  0  0  0  0  0  0
  182.7230  178.7520  142.6820 N   0  0  0  0  0  2  0  0  0  0  0  0
  181.6370  178.9250  140.4100 C   0  0  0  0  0  2  0  0  0  0  0  0
  181.7690  177.6210  139.6310 C   0  0  0  0  0  2  0  0  0  0  0  0
  183.2310  177.2220  139.4670 C   0  0  0  0  0  2  0  0  0  0  0  0
  183.9490  178.1670  138.5160 C   0  0  0  0  0  2  0  0  0  0  0  0
  185.1230  178.8040  139.1890 C   0  0  0  0  0  0  0  0  0  0  0  0
  184.9250  179.6380  140.1100 O   0  0  0  0  0  0  0  0  0  0  0  0
  186.4350  178.4760  138.8370 O   0  0  0  0  0  0  0  0  0  0  0  0
  186.7460  177.7250  137.6720 C   0  0  0  0  0  1  0  0  0  0  0  0
  1  3  1  0  0  0  0
  1  2  1  0  0  0  0
  2 21  1  6  0  0  0
  2  6  1  0  0  0  0
  3  4  2  0  0  0  0
  4  5  1  0  0  0  0
  4 17  1  0  0  0  0
  6  5  1  0  0  0  0
  7  3  1  0  0  0  0
  8 10  2  0  0  0  0
  8  7  1  0  0  0  0
  9 16  1  0  0  0  0
 12 11  1  6  0  0  0
 12 13  1  0  0  0  0
 12 14  1  0  0  0  0
 13  8  1  0  0  0  0
 14 16  1  6  0  0  0
 14 10  1  0  0  0  0
 15 11  1  0  0  0  0
 15  9  1  0  0  0  0
 17 18  1  0  0  0  0
 19 18  1  0  0  0  0
 20 19  1  0  0  0  0
 23 22  2  0  0  0  0
 23 24  1  0  0  0  0
 24 21  1  0  0  0  0
 25 23  1  0  0  0  0
 26 25  1  0  0  0  0
 27 26  1  0  0  0  0
 28 29  1  0  0  0  0
 28 27  1  0  0  0  0
 29 30  2  0  0  0  0
 31 29  1  0  0  0  0
 32 31  1  0  0  0  0
M  END
>  <MODEL>
3

>  <REMARK>
 VINA RESULT:      -6.7      2.787      7.707
  Name = 
  13 active torsions:
  status: ('A' for Active; 'I' for Inactive)
    1  A    between atoms: C_2  and  C_5
    2  A    between atoms: C_2  and  C_6
    3  A    between atoms: C_3  and  C_19
    4  A    between atoms: C_3  and  O_22
    5  A    between atoms: C_4  and  C_27
    6  A    between atoms: C_7  and  C_19
    7  A    between atoms: C_7  and  C_26
    8  A    between atoms: C_13  and  C_29
    9  A    between atoms: C_14  and  O_18
   10  A    between atoms: C_15  and  C_20
   11  A    between atoms: C_15  and  C_26
   12  A    between atoms: O_18  and  C_29
   13  A    between atoms: N_24  and  C_27
                            x       y       z     vdW  Elec       q    Type
                         _______ _______ _______ _____ _____    ______ ____

>  <TORSDO>
F 13

$$$$
=
 OpenBabel10272413163D

 32 34  0  0  1  0  0  0  0  0999 V2000
  185.5650  178.7900  142.7670 S   0  0  0  0  0  0  0  0  0  0  0  0
  183.9380  178.3610  143.4630 C   0  0  1  0  0  3  0  0  0  0  0  0
  186.3690  177.8500  144.0730 C   0  0  0  0  0  0  0  0  0  0  0  0
  186.0510  178.0840  145.3550 C   0  0  0  0  0  0  0  0  0  0  0  0
  185.0280  179.1480  145.6720 C   0  0  0  0  0  2  0  0  0  0  0  0
  183.7350  178.9890  144.8540 C   0  0  0  0  0  2  0  0  0  0  0  0
  187.2940  176.7390  143.6940 C   0  0  0  0  0  2  0  0  0  0  0  0
  188.3900  177.2510  142.8220 C   0  0  0  0  0  0  0  0  0  0  0  0
  192.5140  177.2970  141.1230 C   0  0  0  0  0  2  0  0  0  0  0  0
  189.4490  177.8090  143.2980 N   0  0  0  0  0  0  0  0  0  0  0  0
  190.3950  176.7440  140.0660 C   0  0  0  0  0  2  0  0  0  0  0  0
  189.6020  177.7180  140.9340 C   0  0  1  0  0  3  0  0  0  0  0  0
  188.3830  177.0910  141.4160 N   0  0  0  0  0  2  0  0  0  0  0  0
  190.3670  178.1240  142.2140 C   0  0  2  0  0  3  0  0  0  0  0  0
  191.7440  177.2720  139.8660 N   0  0  0  0  0  2  0  0  0  0  0  0
  191.6540  177.3130  142.3980 C   0  0  0  0  0  2  0  0  0  0  0  0
  186.6420  177.3290  146.3720 O   0  0  0  0  0  0  0  0  0  0  0  0
  187.4400  177.9150  147.3890 C   0  0  0  0  0  2  0  0  0  0  0  0
  188.8690  178.0230  146.9020 C   0  0  0  0  0  2  0  0  0  0  0  0
  189.5960  176.7290  147.1900 C   0  0  0  0  0  1  0  0  0  0  0  0
  182.8170  178.7670  142.5220 C   0  0  0  0  0  2  0  0  0  0  0  0
  181.2030  178.8710  140.1660 O   0  0  0  0  0  0  0  0  0  0  0  0
  182.4510  178.9720  140.0330 C   0  0  0  0  0  0  0  0  0  0  0  0
  183.3190  178.8120  141.1550 N   0  0  0  0  0  2  0  0  0  0  0  0
  183.0250  179.3020  138.6970 C   0  0  0  0  0  2  0  0  0  0  0  0
  183.0430  178.0770  137.7910 C   0  0  0  0  0  2  0  0  0  0  0  0
  184.2760  177.2190  138.0480 C   0  0  0  0  0  2  0  0  0  0  0  0
  185.4480  177.6820  137.1960 C   0  0  0  0  0  2  0  0  0  0  0  0
  186.6130  178.0550  138.0570 C   0  0  0  0  0  0  0  0  0  0  0  0
  186.4040  178.6270  139.1580 O   0  0  0  0  0  0  0  0  0  0  0  0
  187.9260  177.7630  137.6790 O   0  0  0  0  0  0  0  0  0  0  0  0
  188.8600  178.7740  137.3250 C   0  0  0  0  0  1  0  0  0  0  0  0
  1  2  1  0  0  0  0
  1  3  1  0  0  0  0
  2 21  1  6  0  0  0
  2  6  1  0  0  0  0
  3  4  2  0  0  0  0
  4  5  1  0  0  0  0
  4 17  1  0  0  0  0
  6  5  1  0  0  0  0
  7  3  1  0  0  0  0
  8 10  2  0  0  0  0
  8  7  1  0  0  0  0
  9 16  1  0  0  0  0
 12 11  1  1  0  0  0
 12 13  1  0  0  0  0
 12 14  1  0  0  0  0
 13  8  1  0  0  0  0
 14 16  1  1  0  0  0
 14 10  1  0  0  0  0
 15 11  1  0  0  0  0
 15  9  1  0  0  0  0
 17 18  1  0  0  0  0
 19 20  1  0  0  0  0
 19 18  1  0  0  0  0
 23 22  2  0  0  0  0
 23 24  1  0  0  0  0
 24 21  1  0  0  0  0
 25 23  1  0  0  0  0
 26 27  1  0  0  0  0
 26 25  1  0  0  0  0
 28 27  1  0  0  0  0
 28 29  1  0  0  0  0
 29 30  2  0  0  0  0
 31 29  1  0  0  0  0
 32 31  1  0  0  0  0
M  END
>  <MODEL>
4

>  <REMARK>
 VINA RESULT:      -6.7      2.837      7.846
  Name = 
  13 active torsions:
  status: ('A' for Active; 'I' for Inactive)
    1  A    between atoms: C_2  and  C_5
    2  A    between atoms: C_2  and  C_6
    3  A    between atoms: C_3  and  C_19
    4  A    between atoms: C_3  and  O_22
    5  A    between atoms: C_4  and  C_27
    6  A    between atoms: C_7  and  C_19
    7  A    between atoms: C_7  and  C_26
    8  A    between atoms: C_13  and  C_29
    9  A    between atoms: C_14  and  O_18
   10  A    between atoms: C_15  and  C_20
   11  A    between atoms: C_15  and  C_26
   12  A    between atoms: O_18  and  C_29
   13  A    between atoms: N_24  and  C_27
                            x       y       z     vdW  Elec       q    Type
                         _______ _______ _______ _____ _____    ______ ____

>  <TORSDO>
F 13

$$$$
=
 OpenBabel10272413163D

 32 34  0  0  1  0  0  0  0  0999 V2000
  184.2130  178.1580  141.8790 S   0  0  0  0  0  0  0  0  0  0  0  0
  183.0930  179.1710  142.8990 C   0  0  1  0  0  3  0  0  0  0  0  0
  183.4750  178.8460  140.3900 C   0  0  0  0  0  0  0  0  0  0  0  0
  182.1430  178.8220  140.2340 C   0  0  0  0  0  0  0  0  0  0  0  0
  181.2910  178.2030  141.3150 C   0  0  0  0  0  2  0  0  0  0  0  0
  181.6250  178.7460  142.7160 C   0  0  0  0  0  2  0  0  0  0  0  0
  184.3600  179.5380  139.4040 C   0  0  0  0  0  2  0  0  0  0  0  0
  185.1640  178.5440  138.6390 C   0  0  0  0  0  0  0  0  0  0  0  0
  186.9620  176.7720  134.9610 C   0  0  0  0  0  2  0  0  0  0  0  0
  184.6320  177.7240  137.7980 N   0  0  0  0  0  0  0  0  0  0  0  0
  188.0310  177.8770  136.8460 C   0  0  0  0  0  2  0  0  0  0  0  0
  186.9800  177.3940  137.8440 C   0  0  1  0  0  3  0  0  0  0  0  0
  186.5750  178.4790  138.7200 N   0  0  0  0  0  2  0  0  0  0  0  0
  185.6740  176.9410  137.1510 C   0  0  2  0  0  3  0  0  0  0  0  0
  188.1780  176.8790  135.7870 N   0  0  0  0  0  2  0  0  0  0  0  0
  185.6760  177.2580  135.6520 C   0  0  0  0  0  2  0  0  0  0  0  0
  181.5610  179.3920  139.0980 O   0  0  0  0  0  0  0  0  0  0  0  0
  180.2410  179.9120  139.0990 C   0  0  0  0  0  2  0  0  0  0  0  0
  180.2980  181.4210  139.1980 C   0  0  0  0  0  2  0  0  0  0  0  0
  181.3680  181.9450  138.2680 C   0  0  0  0  0  1  0  0  0  0  0  0
  183.4900  179.1180  144.3630 C   0  0  0  0  0  2  0  0  0  0  0  0
  184.9550  178.9180  146.8090 O   0  0  0  0  0  0  0  0  0  0  0  0
  185.5540  178.6430  145.7360 C   0  0  0  0  0  0  0  0  0  0  0  0
  184.9140  178.8340  144.4740 N   0  0  0  0  0  2  0  0  0  0  0  0
  186.9310  178.0740  145.7870 C   0  0  0  0  0  2  0  0  0  0  0  0
  187.2180  177.2200  144.5570 C   0  0  0  0  0  2  0  0  0  0  0  0
  188.7040  176.9060  144.4380 C   0  0  0  0  0  2  0  0  0  0  0  0
  189.5150  177.7340  145.4230 C   0  0  0  0  0  2  0  0  0  0  0  0
  190.9790  177.6060  145.1420 C   0  0  0  0  0  0  0  0  0  0  0  0
  191.4470  178.1020  144.0850 O   0  0  0  0  0  0  0  0  0  0  0  0
  191.8430  176.9690  146.0360 O   0  0  0  0  0  0  0  0  0  0  0  0
  191.4310  176.5560  147.3320 C   0  0  0  0  0  1  0  0  0  0  0  0
  1  2  1  0  0  0  0
  2 21  1  1  0  0  0
  3  1  1  0  0  0  0
  4  3  2  0  0  0  0
  4  5  1  0  0  0  0
  5  6  1  0  0  0  0
  6  2  1  0  0  0  0
  7  3  1  0  0  0  0
  8 13  1  0  0  0  0
  8  7  1  0  0  0  0
  9 16  1  0  0  0  0
  9 15  1  0  0  0  0
 10  8  2  0  0  0  0
 12 11  1  6  0  0  0
 12 13  1  0  0  0  0
 14 16  1  6  0  0  0
 14 10  1  0  0  0  0
 14 12  1  0  0  0  0
 15 11  1  0  0  0  0
 17 18  1  0  0  0  0
 17  4  1  0  0  0  0
 18 19  1  0  0  0  0
 20 19  1  0  0  0  0
 21 24  1  0  0  0  0
 23 25  1  0  0  0  0
 23 22  2  0  0  0  0
 24 23  1  0  0  0  0
 26 25  1  0  0  0  0
 27 26  1  0  0  0  0
 27 28  1  0  0  0  0
 29 28  1  0  0  0  0
 29 31  1  0  0  0  0
 30 29  2  0  0  0  0
 31 32  1  0  0  0  0
M  END
>  <MODEL>
5

>  <REMARK>
 VINA RESULT:      -6.6      3.041      5.464
  Name = 
  13 active torsions:
  status: ('A' for Active; 'I' for Inactive)
    1  A    between atoms: C_2  and  C_5
    2  A    between atoms: C_2  and  C_6
    3  A    between atoms: C_3  and  C_19
    4  A    between atoms: C_3  and  O_22
    5  A    between atoms: C_4  and  C_27
    6  A    between atoms: C_7  and  C_19
    7  A    between atoms: C_7  and  C_26
    8  A    between atoms: C_13  and  C_29
    9  A    between atoms: C_14  and  O_18
   10  A    between atoms: C_15  and  C_20
   11  A    between atoms: C_15  and  C_26
   12  A    between atoms: O_18  and  C_29
   13  A    between atoms: N_24  and  C_27
                            x       y       z     vdW  Elec       q    Type
                         _______ _______ _______ _____ _____    ______ ____

>  <TORSDO>
F 13

$$$$
=
 OpenBabel10272413163D

 32 34  0  0  1  0  0  0  0  0999 V2000
  190.8080  176.6350  141.6750 S   0  0  0  0  0  0  0  0  0  0  0  0
  190.3830  178.0360  142.7570 C   0  0  1  0  0  3  0  0  0  0  0  0
  189.8850  177.3950  140.3310 C   0  0  0  0  0  0  0  0  0  0  0  0
  188.6190  177.7900  140.5320 C   0  0  0  0  0  0  0  0  0  0  0  0
  187.9920  177.5720  141.8870 C   0  0  0  0  0  2  0  0  0  0  0  0
  188.8700  178.0950  143.0380 C   0  0  0  0  0  2  0  0  0  0  0  0
  190.5920  177.6790  139.0450 C   0  0  0  0  0  2  0  0  0  0  0  0
  191.1790  176.4290  138.4870 C   0  0  0  0  0  0  0  0  0  0  0  0
  191.9900  173.4160  135.2980 C   0  0  0  0  0  2  0  0  0  0  0  0
  190.4550  175.4250  138.1260 N   0  0  0  0  0  0  0  0  0  0  0  0
  193.4970  174.9850  136.3840 C   0  0  0  0  0  2  0  0  0  0  0  0
  192.7390  174.9400  137.7090 C   0  0  1  0  0  3  0  0  0  0  0  0
  192.5650  176.2800  138.2410 N   0  0  0  0  0  2  0  0  0  0  0  0
  191.3020  174.3930  137.5470 C   0  0  2  0  0  3  0  0  0  0  0  0
  193.3750  173.6880  135.7200 N   0  0  0  0  0  2  0  0  0  0  0  0
  190.9200  174.2030  136.0750 C   0  0  0  0  0  2  0  0  0  0  0  0
  187.9100  178.4180  139.5040 O   0  0  0  0  0  0  0  0  0  0  0  0
  187.0090  177.7160  138.6620 C   0  0  0  0  0  2  0  0  0  0  0  0
  186.9210  178.4210  137.3260 C   0  0  0  0  0  2  0  0  0  0  0  0
  188.1420  178.0860  136.4990 C   0  0  0  0  0  1  0  0  0  0  0  0
  191.1680  177.9820  144.0560 C   0  0  0  0  0  2  0  0  0  0  0  0
  191.7040  176.6800  146.5420 O   0  0  0  0  0  0  0  0  0  0  0  0
  190.6270  177.3240  146.4320 C   0  0  0  0  0  0  0  0  0  0  0  0
  190.2480  177.8980  145.1810 N   0  0  0  0  0  2  0  0  0  0  0  0
  189.7610  177.5220  147.6290 C   0  0  0  0  0  2  0  0  0  0  0  0
  188.3750  176.9290  147.4060 C   0  0  0  0  0  2  0  0  0  0  0  0
  187.3600  178.0150  147.0680 C   0  0  0  0  0  2  0  0  0  0  0  0
  186.4170  177.5530  145.9670 C   0  0  0  0  0  2  0  0  0  0  0  0
  185.3250  178.5520  145.7530 C   0  0  0  0  0  0  0  0  0  0  0  0
  184.4970  178.7660  146.6770 O   0  0  0  0  0  0  0  0  0  0  0  0
  185.2150  179.2720  144.5610 O   0  0  0  0  0  0  0  0  0  0  0  0
  184.4750  178.7940  143.4460 C   0  0  0  0  0  1  0  0  0  0  0  0
  1  2  1  0  0  0  0
  2  6  1  0  0  0  0
  2 21  1  1  0  0  0
  3  4  2  0  0  0  0
  3  1  1  0  0  0  0
  4  5  1  0  0  0  0
  5  6  1  0  0  0  0
  7  3  1  0  0  0  0
  8  7  1  0  0  0  0
  9 15  1  0  0  0  0
  9 16  1  0  0  0  0
 10  8  2  0  0  0  0
 12 11  1  6  0  0  0
 12 13  1  0  0  0  0
 13  8  1  0  0  0  0
 14 16  1  6  0  0  0
 14 12  1  0  0  0  0
 14 10  1  0  0  0  0
 15 11  1  0  0  0  0
 17  4  1  0  0  0  0
 18 17  1  0  0  0  0
 19 18  1  0  0  0  0
 20 19  1  0  0  0  0
 21 24  1  0  0  0  0
 23 22  2  0  0  0  0
 23 25  1  0  0  0  0
 24 23  1  0  0  0  0
 26 25  1  0  0  0  0
 27 26  1  0  0  0  0
 28 27  1  0  0  0  0
 29 28  1  0  0  0  0
 29 30  2  0  0  0  0
 31 29  1  0  0  0  0
 32 31  1  0  0  0  0
M  END
>  <MODEL>
6

>  <REMARK>
 VINA RESULT:      -6.5      1.937      2.713
  Name = 
  13 active torsions:
  status: ('A' for Active; 'I' for Inactive)
    1  A    between atoms: C_2  and  C_5
    2  A    between atoms: C_2  and  C_6
    3  A    between atoms: C_3  and  C_19
    4  A    between atoms: C_3  and  O_22
    5  A    between atoms: C_4  and  C_27
    6  A    between atoms: C_7  and  C_19
    7  A    between atoms: C_7  and  C_26
    8  A    between atoms: C_13  and  C_29
    9  A    between atoms: C_14  and  O_18
   10  A    between atoms: C_15  and  C_20
   11  A    between atoms: C_15  and  C_26
   12  A    between atoms: O_18  and  C_29
   13  A    between atoms: N_24  and  C_27
                            x       y       z     vdW  Elec       q    Type
                         _______ _______ _______ _____ _____    ______ ____

>  <TORSDO>
F 13

$$$$
=
 OpenBabel10272413163D

 32 34  0  0  1  0  0  0  0  0999 V2000
  188.6110  177.6220  140.9170 S   0  0  0  0  0  0  0  0  0  0  0  0
  189.9310  177.6690  142.1720 C   0  0  1  0  0  3  0  0  0  0  0  0
  187.3880  177.9570  142.1930 C   0  0  0  0  0  0  0  0  0  0  0  0
  187.3560  177.1990  143.2990 C   0  0  0  0  0  0  0  0  0  0  0  0
  188.3440  176.0680  143.4410 C   0  0  0  0  0  2  0  0  0  0  0  0
  189.7940  176.5120  143.1780 C   0  0  0  0  0  2  0  0  0  0  0  0
  186.5050  179.1540  142.0450 C   0  0  0  0  0  2  0  0  0  0  0  0
  185.3280  178.8280  141.1910 C   0  0  0  0  0  0  0  0  0  0  0  0
  181.0090  178.8750  140.0740 C   0  0  0  0  0  2  0  0  0  0  0  0
  184.3880  178.0370  141.5810 N   0  0  0  0  0  0  0  0  0  0  0  0
  182.9090  179.9610  139.0120 C   0  0  0  0  0  2  0  0  0  0  0  0
  183.8830  178.8540  139.4120 C   0  0  1  0  0  3  0  0  0  0  0  0
  185.1170  179.4240  139.9250 N   0  0  0  0  0  2  0  0  0  0  0  0
  183.3430  177.9840  140.5700 C   0  0  2  0  0  3  0  0  0  0  0  0
  181.5820  179.3800  138.8130 N   0  0  0  0  0  2  0  0  0  0  0  0
  182.0480  178.5510  141.1620 C   0  0  0  0  0  2  0  0  0  0  0  0
  186.4340  177.4800  144.3120 O   0  0  0  0  0  0  0  0  0  0  0  0
  186.8220  178.0370  145.5600 C   0  0  0  0  0  2  0  0  0  0  0  0
  185.5940  178.5450  146.2830 C   0  0  0  0  0  2  0  0  0  0  0  0
  184.5010  178.8320  145.2780 C   0  0  0  0  0  1  0  0  0  0  0  0
  191.3030  177.6570  141.5230 C   0  0  0  0  0  2  0  0  0  0  0  0
  193.4760  177.2700  139.7070 O   0  0  0  0  0  0  0  0  0  0  0  0
  192.3110  177.0170  139.2990 C   0  0  0  0  0  0  0  0  0  0  0  0
  191.1760  177.3000  140.1170 N   0  0  0  0  0  2  0  0  0  0  0  0
  192.1210  176.3800  137.9650 C   0  0  0  0  0  2  0  0  0  0  0  0
  193.4050  175.7090  137.4900 C   0  0  0  0  0  2  0  0  0  0  0  0
  193.2380  174.1960  137.4100 C   0  0  0  0  0  2  0  0  0  0  0  0
  194.5650  173.5180  137.1060 C   0  0  0  0  0  2  0  0  0  0  0  0
  195.2280  173.0650  138.3690 C   0  0  0  0  0  0  0  0  0  0  0  0
  195.6290  173.9260  139.1950 O   0  0  0  0  0  0  0  0  0  0  0  0
  195.3920  171.7100  138.6640 O   0  0  0  0  0  0  0  0  0  0  0  0
  195.3180  170.6980  137.6680 C   0  0  0  0  0  1  0  0  0  0  0  0
  1  2  1  0  0  0  0
  1  3  1  0  0  0  0
  2 21  1  6  0  0  0
  2  6  1  0  0  0  0
  3  4  2  0  0  0  0
  4  5  1  0  0  0  0
  4 17  1  0  0  0  0
  6  5  1  0  0  0  0
  7  3  1  0  0  0  0
  8 10  2  0  0  0  0
  8  7  1  0  0  0  0
  9 16  1  0  0  0  0
 12 11  1  1  0  0  0
 12 13  1  0  0  0  0
 12 14  1  0  0  0  0
 13  8  1  0  0  0  0
 14 16  1  1  0  0  0
 14 10  1  0  0  0  0
 15 11  1  0  0  0  0
 15  9  1  0  0  0  0
 17 18  1  0  0  0  0
 18 19  1  0  0  0  0
 20 19  1  0  0  0  0
 23 22  2  0  0  0  0
 23 24  1  0  0  0  0
 24 21  1  0  0  0  0
 25 23  1  0  0  0  0
 26 25  1  0  0  0  0
 27 26  1  0  0  0  0
 28 27  1  0  0  0  0
 28 29  1  0  0  0  0
 29 31  1  0  0  0  0
 29 30  2  0  0  0  0
 32 31  1  0  0  0  0
M  END
>  <MODEL>
7

>  <REMARK>
 VINA RESULT:      -6.5      3.788      8.035
  Name = 
  13 active torsions:
  status: ('A' for Active; 'I' for Inactive)
    1  A    between atoms: C_2  and  C_5
    2  A    between atoms: C_2  and  C_6
    3  A    between atoms: C_3  and  C_19
    4  A    between atoms: C_3  and  O_22
    5  A    between atoms: C_4  and  C_27
    6  A    between atoms: C_7  and  C_19
    7  A    between atoms: C_7  and  C_26
    8  A    between atoms: C_13  and  C_29
    9  A    between atoms: C_14  and  O_18
   10  A    between atoms: C_15  and  C_20
   11  A    between atoms: C_15  and  C_26
   12  A    between atoms: O_18  and  C_29
   13  A    between atoms: N_24  and  C_27
                            x       y       z     vdW  Elec       q    Type
                         _______ _______ _______ _____ _____    ______ ____

>  <TORSDO>
F 13

$$$$
=
 OpenBabel10272413163D

 32 34  0  0  1  0  0  0  0  0999 V2000
  189.9630  175.9820  142.8010 S   0  0  0  0  0  0  0  0  0  0  0  0
  190.6970  177.6110  142.4470 C   0  0  1  0  0  3  0  0  0  0  0  0
  189.0080  176.7050  144.1420 C   0  0  0  0  0  0  0  0  0  0  0  0
  189.6270  177.4350  145.0820 C   0  0  0  0  0  0  0  0  0  0  0  0
  191.1220  177.6200  144.9980 C   0  0  0  0  0  2  0  0  0  0  0  0
  191.5830  178.0950  143.6080 C   0  0  0  0  0  2  0  0  0  0  0  0
  187.5190  176.5760  144.1150 C   0  0  0  0  0  2  0  0  0  0  0  0
  186.9250  177.6050  143.2160 C   0  0  0  0  0  0  0  0  0  0  0  0
  185.1960  179.1190  139.3920 C   0  0  0  0  0  2  0  0  0  0  0  0
  187.5410  178.0560  142.1770 N   0  0  0  0  0  0  0  0  0  0  0  0
  184.1360  178.7570  141.5510 C   0  0  0  0  0  2  0  0  0  0  0  0
  185.4070  179.0790  142.3330 C   0  0  1  0  0  3  0  0  0  0  0  0
  185.6130  178.1050  143.3910 N   0  0  0  0  0  2  0  0  0  0  0  0
  186.6780  178.9810  141.4580 C   0  0  2  0  0  3  0  0  0  0  0  0
  184.1250  179.5380  140.3140 N   0  0  0  0  0  2  0  0  0  0  0  0
  186.3790  178.4060  140.0700 C   0  0  0  0  0  2  0  0  0  0  0  0
  188.8850  178.0340  146.1040 O   0  0  0  0  0  0  0  0  0  0  0  0
  189.0220  177.6570  147.4650 C   0  0  0  0  0  2  0  0  0  0  0  0
  187.7470  177.9920  148.2080 C   0  0  0  0  0  2  0  0  0  0  0  0
  186.6840  178.4100  147.2170 C   0  0  0  0  0  1  0  0  0  0  0  0
  191.4820  177.5850  141.1470 C   0  0  0  0  0  2  0  0  0  0  0  0
  192.4250  176.9000  138.5380 O   0  0  0  0  0  0  0  0  0  0  0  0
  191.2800  176.4980  138.8780 C   0  0  0  0  0  0  0  0  0  0  0  0
  190.7060  176.9030  140.1200 N   0  0  0  0  0  2  0  0  0  0  0  0
  190.5370  175.5580  137.9910 C   0  0  0  0  0  2  0  0  0  0  0  0
  189.2080  176.1570  137.5480 C   0  0  0  0  0  2  0  0  0  0  0  0
  189.4220  177.4060  136.7000 C   0  0  0  0  0  2  0  0  0  0  0  0
  188.2780  178.3910  136.8860 C   0  0  0  0  0  2  0  0  0  0  0  0
  187.1040  178.0030  136.0440 C   0  0  0  0  0  0  0  0  0  0  0  0
  187.0630  178.3660  134.8400 O   0  0  0  0  0  0  0  0  0  0  0  0
  186.0620  177.2250  136.5570 O   0  0  0  0  0  0  0  0  0  0  0  0
  184.7410  177.2830  136.0370 C   0  0  0  0  0  1  0  0  0  0  0  0
  1  3  1  0  0  0  0
  2 21  1  6  0  0  0
  2  1  1  0  0  0  0
  2  6  1  0  0  0  0
  3  4  2  0  0  0  0
  4 17  1  0  0  0  0
  5  4  1  0  0  0  0
  6  5  1  0  0  0  0
  7  3  1  0  0  0  0
  8 13  1  0  0  0  0
  8  7  1  0  0  0  0
  9 16  1  0  0  0  0
  9 15  1  0  0  0  0
 10  8  2  0  0  0  0
 12 11  1  6  0  0  0
 12 13  1  0  0  0  0
 14 16  1  6  0  0  0
 14 10  1  0  0  0  0
 14 12  1  0  0  0  0
 15 11  1  0  0  0  0
 17 18  1  0  0  0  0
 18 19  1  0  0  0  0
 20 19  1  0  0  0  0
 22 23  2  0  0  0  0
 23 24  1  0  0  0  0
 24 21  1  0  0  0  0
 25 23  1  0  0  0  0
 26 25  1  0  0  0  0
 27 28  1  0  0  0  0
 27 26  1  0  0  0  0
 29 31  1  0  0  0  0
 29 28  1  0  0  0  0
 30 29  2  0  0  0  0
 32 31  1  0  0  0  0
M  END
>  <MODEL>
8

>  <REMARK>
 VINA RESULT:      -6.4      2.746      7.378
  Name = 
  13 active torsions:
  status: ('A' for Active; 'I' for Inactive)
    1  A    between atoms: C_2  and  C_5
    2  A    between atoms: C_2  and  C_6
    3  A    between atoms: C_3  and  C_19
    4  A    between atoms: C_3  and  O_22
    5  A    between atoms: C_4  and  C_27
    6  A    between atoms: C_7  and  C_19
    7  A    between atoms: C_7  and  C_26
    8  A    between atoms: C_13  and  C_29
    9  A    between atoms: C_14  and  O_18
   10  A    between atoms: C_15  and  C_20
   11  A    between atoms: C_15  and  C_26
   12  A    between atoms: O_18  and  C_29
   13  A    between atoms: N_24  and  C_27
                            x       y       z     vdW  Elec       q    Type
                         _______ _______ _______ _____ _____    ______ ____

>  <TORSDO>
F 13

$$$$
=
 OpenBabel10272413163D

 32 34  0  0  1  0  0  0  0  0999 V2000
  188.5150  177.5150  139.0090 S   0  0  0  0  0  0  0  0  0  0  0  0
  188.5620  177.6830  137.1960 C   0  0  1  0  0  3  0  0  0  0  0  0
  190.1140  176.6910  138.9720 C   0  0  0  0  0  0  0  0  0  0  0  0
  190.3030  175.6420  138.1580 C   0  0  0  0  0  0  0  0  0  0  0  0
  189.1590  175.1680  137.2970 C   0  0  0  0  0  2  0  0  0  0  0  0
  188.5040  176.3100  136.5010 C   0  0  0  0  0  2  0  0  0  0  0  0
  191.2390  177.2700  139.7680 C   0  0  0  0  0  2  0  0  0  0  0  0
  191.0180  177.0390  141.2240 C   0  0  0  0  0  0  0  0  0  0  0  0
  189.7100  178.1560  145.3400 C   0  0  0  0  0  2  0  0  0  0  0  0
  191.6760  177.6710  142.1330 N   0  0  0  0  0  0  0  0  0  0  0  0
  188.7640  176.5440  143.7840 C   0  0  0  0  0  2  0  0  0  0  0  0
  190.1180  176.2100  143.1620 C   0  0  1  0  0  3  0  0  0  0  0  0
  190.0160  176.1680  141.7140 N   0  0  0  0  0  2  0  0  0  0  0  0
  191.1810  177.2940  143.4490 C   0  0  2  0  0  3  0  0  0  0  0  0
  188.9580  176.8970  145.1900 N   0  0  0  0  0  2  0  0  0  0  0  0
  190.5780  178.5300  144.1250 C   0  0  0  0  0  2  0  0  0  0  0  0
  191.5550  175.0230  138.0950 O   0  0  0  0  0  0  0  0  0  0  0  0
  191.8900  174.0870  137.0810 C   0  0  0  0  0  2  0  0  0  0  0  0
  193.3940  173.9170  137.0360 C   0  0  0  0  0  2  0  0  0  0  0  0
  194.0480  175.0060  137.8550 C   0  0  0  0  0  1  0  0  0  0  0  0
  187.4440  178.5840  136.7010 C   0  0  0  0  0  2  0  0  0  0  0  0
  184.8190  177.4560  136.6820 O   0  0  0  0  0  0  0  0  0  0  0  0
  185.1940  178.0630  137.7200 C   0  0  0  0  0  0  0  0  0  0  0  0
  186.4470  178.7470  137.7500 N   0  0  0  0  0  2  0  0  0  0  0  0
  184.3400  178.0320  138.9410 C   0  0  0  0  0  2  0  0  0  0  0  0
  184.9320  178.8990  140.0460 C   0  0  0  0  0  2  0  0  0  0  0  0
  184.4980  178.4080  141.4230 C   0  0  0  0  0  2  0  0  0  0  0  0
  185.4880  178.8460  142.4920 C   0  0  0  0  0  2  0  0  0  0  0  0
  184.9470  178.5670  143.8590 C   0  0  0  0  0  0  0  0  0  0  0  0
  183.7080  178.6600  144.0600 O   0  0  0  0  0  0  0  0  0  0  0  0
  185.7810  178.1830  144.9120 O   0  0  0  0  0  0  0  0  0  0  0  0
  185.6860  178.7560  146.2080 C   0  0  0  0  0  1  0  0  0  0  0  0
  2 21  1  6  0  0  0
  2  1  1  0  0  0  0
  3  1  1  0  0  0  0
  3  7  1  0  0  0  0
  4  3  2  0  0  0  0
  5  4  1  0  0  0  0
  6  2  1  0  0  0  0
  6  5  1  0  0  0  0
  7  8  1  0  0  0  0
  8 13  1  0  0  0  0
  8 10  2  0  0  0  0
 10 14  1  0  0  0  0
 11 15  1  0  0  0  0
 12 14  1  0  0  0  0
 12 11  1  1  0  0  0
 13 12  1  0  0  0  0
 14 16  1  6  0  0  0
 15  9  1  0  0  0  0
 16  9  1  0  0  0  0
 17  4  1  0  0  0  0
 18 17  1  0  0  0  0
 19 18  1  0  0  0  0
 19 20  1  0  0  0  0
 21 24  1  0  0  0  0
 22 23  2  0  0  0  0
 23 24  1  0  0  0  0
 23 25  1  0  0  0  0
 25 26  1  0  0  0  0
 26 27  1  0  0  0  0
 27 28  1  0  0  0  0
 28 29  1  0  0  0  0
 29 30  2  0  0  0  0
 29 31  1  0  0  0  0
 31 32  1  0  0  0  0
M  END
>  <MODEL>
9

>  <REMARK>
 VINA RESULT:      -6.4      2.617      7.240
  Name = 
  13 active torsions:
  status: ('A' for Active; 'I' for Inactive)
    1  A    between atoms: C_2  and  C_5
    2  A    between atoms: C_2  and  C_6
    3  A    between atoms: C_3  and  C_19
    4  A    between atoms: C_3  and  O_22
    5  A    between atoms: C_4  and  C_27
    6  A    between atoms: C_7  and  C_19
    7  A    between atoms: C_7  and  C_26
    8  A    between atoms: C_13  and  C_29
    9  A    between atoms: C_14  and  O_18
   10  A    between atoms: C_15  and  C_20
   11  A    between atoms: C_15  and  C_26
   12  A    between atoms: O_18  and  C_29
   13  A    between atoms: N_24  and  C_27
                            x       y       z     vdW  Elec       q    Type
                         _______ _______ _______ _____ _____    ______ ____

>  <TORSDO>
F 13

$$$$
