=
 OpenBabel10272401243D

 55 60  0  0  1  0  0  0  0  0999 V2000
  191.1570  177.5450  142.7010 C   0  0  0  0  0  2  0  0  0  0  0  0
  188.2600  177.7920  143.0950 C   0  0  2  0  0  3  0  0  0  0  0  0
  188.8490  177.2160  141.8060 C   0  0  0  0  0  2  0  0  0  0  0  0
  190.5790  178.1020  144.0000 C   0  0  0  0  0  2  0  0  0  0  0  0
  190.2120  177.8430  141.5440 C   0  0  2  0  0  3  0  0  0  0  0  0
  189.1970  177.5070  144.2670 C   0  0  0  0  0  2  0  0  0  0  0  0
  192.3920  177.0430  139.8670 O   0  0  0  0  0  0  0  0  0  0  0  0
  190.8950  177.2060  139.9930 P   0  0  1  0  0  4  0  0  0  0  0  0
  189.8290  176.6110  138.6460 C   0  0  1  0  0  3  0  0  0  0  0  0
  188.6280  177.4340  138.5680 N   0  0  0  0  0  2  0  0  0  0  0  0
  188.9770  179.6250  137.7630 O   0  0  0  0  0  1  0  0  0  0  0  0
  188.6830  178.3100  137.3930 C   0  0  2  0  0  3  0  0  0  0  0  0
  187.3910  178.2620  136.5820 C   0  0  0  0  0  2  0  0  0  0  0  0
  186.6300  176.9580  136.8180 C   0  0  0  0  0  2  0  0  0  0  0  0
  186.6700  175.9950  135.6250 C   0  0  2  0  0  3  0  0  0  0  0  0
  186.1410  176.6250  134.3460 C   0  0  0  0  0  1  0  0  0  0  0  0
  185.9970  174.6920  135.9180 C   0  0  0  0  0  0  0  0  0  0  0  0
  185.1690  174.6190  136.8620 O   0  0  0  0  0  1  0  0  0  0  0  0
  186.2560  173.5680  135.1410 O   0  0  0  0  0  0  0  0  0  0  0  0
  190.5540  176.6350  137.3030 C   0  0  0  0  0  2  0  0  0  0  0  0
  191.3680  173.6910  134.9990 C   0  0  0  0  0  3  0  0  0  0  0  0
  190.3710  172.7890  135.3770 C   0  0  0  0  0  3  0  0  0  0  0  0
  190.5230  175.3060  136.6050 C   0  0  0  0  0  0  0  0  0  0  0  0
  189.5320  174.3920  136.9810 C   0  0  0  0  0  3  0  0  0  0  0  0
  189.4560  173.1380  136.3700 C   0  0  0  0  0  3  0  0  0  0  0  0
  191.4580  174.9460  135.6110 C   0  0  0  0  0  0  0  0  0  0  0  0
  192.5260  175.8850  135.1490 C   0  0  0  0  0  2  0  0  0  0  0  0
  193.5700  175.1650  134.5620 O   0  0  0  0  0  0  0  0  0  0  0  0
  194.6920  175.9870  134.6840 C   0  0  0  0  0  2  0  0  0  0  0  0
  195.7780  175.2660  135.4690 C   0  0  0  0  0  2  0  0  0  0  0  0
  197.1610  175.7690  135.0870 C   0  0  0  0  0  2  0  0  0  0  0  0
  197.6370  173.7770  136.4780 C   0  0  0  0  0  1  0  0  0  0  0  0
  198.2300  175.0300  135.8710 C   0  0  0  0  0  2  0  0  0  0  0  0
  186.8910  177.1970  143.3830 C   0  0  0  0  0  2  0  0  0  0  0  0
  186.1960  177.9740  144.4880 C   0  0  0  0  0  2  0  0  0  0  0  0
  184.8260  178.4450  144.0350 C   0  0  0  0  0  2  0  0  0  0  0  0
  184.8040  178.6610  142.5300 C   0  0  0  0  0  2  0  0  0  0  0  0
  183.6830  177.9430  141.9410 N   0  0  0  0  0  2  0  0  0  0  0  0
  182.9740  176.5270  138.0090 N   0  0  2  0  0  0  0  0  0  0  0  0
  182.0350  180.5360  139.0340 O   0  0  0  0  0  1  0  0  0  0  0  0
  182.0710  179.1430  138.8900 C   0  0  2  0  0  0  0  0  0  0  0  0
  182.9850  178.8590  141.0470 C   0  0  1  0  0  3  0  0  0  0  0  0
  179.9820  176.8220  138.3250 O   0  0  0  0  0  1  0  0  0  0  0  0
  180.9540  178.5120  139.7320 C   0  0  1  0  0  3  0  0  0  0  0  0
  183.2910  178.5880  139.5680 C   0  0  1  0  0  3  0  0  0  0  0  0
  182.8290  177.2290  135.6700 C   0  0  0  0  0  1  0  0  0  0  0  0
  182.1810  176.2410  139.2480 C   0  0  2  0  0  3  0  0  0  0  0  0
  180.9360  179.8730  141.7040 F   0  0  0  0  0  0  0  0  0  0  0  0
  180.8020  176.9870  139.4470 C   0  0  2  0  0  0  0  0  0  0  0  0
  183.4270  177.0570  139.3230 C   0  0  1  0  0  3  0  0  0  0  0  0
  182.1140  178.8520  137.4030 C   0  0  0  0  0  2  0  0  0  0  0  0
  181.4690  178.7140  141.1700 C   0  0  2  0  0  3  0  0  0  0  0  0
  182.2400  177.3810  137.0570 C   0  0  2  0  0  3  0  0  0  0  0  0
  180.0690  176.3190  140.6220 C   0  0  0  0  0  2  0  0  0  0  0  0
  180.0370  174.8000  140.5130 C   0  0  0  0  0  1  0  0  0  0  0  0
  1  4  1  0  0  0  0
  2 34  1  1  0  0  0
  2  6  1  0  0  0  0
  3  2  1  0  0  0  0
  4  6  1  0  0  0  0
  5  8  1  6  0  0  0
  5  3  1  0  0  0  0
  5  1  1  0  0  0  0
  8  7  2  1  0  0  0
  9 20  1  6  0  0  0
  9  8  1  0  0  0  0
 10  9  1  0  0  0  0
 12 11  1  1  0  0  0
 12 10  1  0  0  0  0
 13 14  1  0  0  0  0
 13 12  1  0  0  0  0
 15 16  1  6  0  0  0
 15 17  1  0  0  0  0
 15 14  1  0  0  0  0
 17 18  1  0  0  0  0
 19 17  2  0  0  0  0
 21 22  2  0  0  0  0
 21 26  1  0  0  0  0
 22 25  1  0  0  0  0
 23 24  1  0  0  0  0
 23 20  1  0  0  0  0
 25 24  2  0  0  0  0
 26 23  2  0  0  0  0
 27 26  1  0  0  0  0
 28 29  1  0  0  0  0
 28 27  1  0  0  0  0
 29 30  1  0  0  0  0
 31 30  1  0  0  0  0
 31 33  1  0  0  0  0
 33 32  1  0  0  0  0
 34 35  1  0  0  0  0
 36 35  1  0  0  0  0
 37 36  1  0  0  0  0
 38 37  1  0  0  0  0
 39 47  1  0  0  0  0
 39 50  1  0  0  0  0
 41 40  1  0  0  0  0
 41 45  1  0  0  0  0
 41 44  1  0  0  0  0
 42 52  1  0  0  0  0
 42 38  1  0  0  0  0
 43 49  1  0  0  0  0
 44 52  1  0  0  0  0
 45 42  1  0  0  0  0
 46 53  1  0  0  0  0
 47 50  1  0  0  0  0
 47 49  1  0  0  0  0
 49 44  1  0  0  0  0
 49 54  1  0  0  0  0
 50 45  1  0  0  0  0
 51 41  1  0  0  0  0
 52 48  1  0  0  0  0
 53 51  1  0  0  0  0
 53 39  1  0  0  0  0
 55 54  1  0  0  0  0
M  END
>  <MODEL>
1

>  <REMARK>
 VINA RESULT:      -5.8      0.000      0.000
  Name = 
  23 active torsions:
  status: ('A' for Active; 'I' for Inactive)
    1  A    between atoms: C_4  and  C_37
    2  A    between atoms: C_4  and  C_40
    3  A    between atoms: C_5  and  O_19
    4  A    between atoms: C_5  and  C_40
    5  A    between atoms: C_7  and  N_22
    6  A    between atoms: C_8  and  N_22
    7  A    between atoms: C_8  and  C_43
    8  A    between atoms: C_10  and  C_32
    9  A    between atoms: C_11  and  C_38
   10  A    between atoms: C_13  and  C_48
   11  A    between atoms: C_13  and  C_52
   12  A    between atoms: C_16  and  C_36
   13  A    between atoms: O_19  and  C_45
   14  A    between atoms: C_26  and  C_45
   15  A    between atoms: C_27  and  C_54
   16  A    between atoms: P_28  and  C_44
   17  A    between atoms: P_28  and  C_49
   18  A    between atoms: C_32  and  C_48
   19  A    between atoms: N_33  and  C_49
   20  A    between atoms: N_33  and  C_52
   21  A    between atoms: C_36  and  C_49
   22  A    between atoms: C_43  and  C_51
   23  A    between atoms: C_51  and  C_54
                            x       y       z     vdW  Elec       q    Type
                         _______ _______ _______ _____ _____    ______ ____

>  <TORSDO>
F 23

$$$$
=
 OpenBabel10272401243D

 55 60  0  0  1  0  0  0  0  0999 V2000
  188.6730  178.0530  140.5090 C   0  0  0  0  0  2  0  0  0  0  0  0
  190.6070  176.5740  138.8700 C   0  0  2  0  0  3  0  0  0  0  0  0
  189.4610  177.3690  138.2400 C   0  0  0  0  0  2  0  0  0  0  0  0
  189.8260  177.2800  141.1470 C   0  0  0  0  0  2  0  0  0  0  0  0
  188.2740  177.3950  139.1940 C   0  0  2  0  0  3  0  0  0  0  0  0
  191.0180  177.2160  140.1930 C   0  0  0  0  0  2  0  0  0  0  0  0
  187.1360  179.0590  137.1590 O   0  0  0  0  0  0  0  0  0  0  0  0
  186.8940  178.2890  138.4360 P   0  0  1  0  0  4  0  0  0  0  0  0
  185.1970  178.1590  139.0770 C   0  0  1  0  0  3  0  0  0  0  0  0
  184.9340  179.2570  140.0000 N   0  0  0  0  0  2  0  0  0  0  0  0
  183.1020  178.9230  141.4500 O   0  0  0  0  0  1  0  0  0  0  0  0
  184.4780  178.7390  141.2950 C   0  0  2  0  0  3  0  0  0  0  0  0
  185.2340  179.3680  142.4610 C   0  0  0  0  0  2  0  0  0  0  0  0
  185.7540  178.3060  143.4290 C   0  0  0  0  0  2  0  0  0  0  0  0
  185.0410  178.3050  144.7860 C   0  0  2  0  0  3  0  0  0  0  0  0
  183.7950  179.1760  144.7940 C   0  0  0  0  0  1  0  0  0  0  0  0
  185.9590  178.6450  145.9160 C   0  0  0  0  0  0  0  0  0  0  0  0
  185.5360  179.3470  146.8710 O   0  0  0  0  0  1  0  0  0  0  0  0
  187.2670  178.1730  145.9360 O   0  0  0  0  0  0  0  0  0  0  0  0
  184.1680  178.1790  137.9520 C   0  0  0  0  0  2  0  0  0  0  0  0
  181.9850  175.0380  137.8390 C   0  0  0  0  0  3  0  0  0  0  0  0
  182.7230  174.2480  136.9550 C   0  0  0  0  0  3  0  0  0  0  0  0
  183.6310  176.8130  137.6330 C   0  0  0  0  0  0  0  0  0  0  0  0
  184.3590  176.0160  136.7420 C   0  0  0  0  0  3  0  0  0  0  0  0
  183.9070  174.7380  136.4030 C   0  0  0  0  0  3  0  0  0  0  0  0
  182.4250  176.3220  138.1770 C   0  0  0  0  0  0  0  0  0  0  0  0
  181.6140  177.1160  139.1510 C   0  0  0  0  0  2  0  0  0  0  0  0
  180.6050  177.8080  138.4760 O   0  0  0  0  0  0  0  0  0  0  0  0
  180.4420  178.9980  139.1860 C   0  0  0  0  0  2  0  0  0  0  0  0
  181.2220  180.1160  138.5100 C   0  0  0  0  0  2  0  0  0  0  0  0
  181.0640  180.0620  136.9980 C   0  0  0  0  0  2  0  0  0  0  0  0
  180.8660  182.4890  137.4420 C   0  0  0  0  0  1  0  0  0  0  0  0
  180.5210  181.3780  136.4750 C   0  0  0  0  0  2  0  0  0  0  0  0
  191.8070  176.5150  137.9390 C   0  0  0  0  0  2  0  0  0  0  0  0
  192.2080  175.0740  137.6800 C   0  0  0  0  0  2  0  0  0  0  0  0
  192.6540  174.8910  136.2400 C   0  0  0  0  0  2  0  0  0  0  0  0
  192.5920  173.4240  135.8420 C   0  0  0  0  0  2  0  0  0  0  0  0
  193.9280  172.9370  135.5270 N   0  0  0  0  0  2  0  0  0  0  0  0
  197.4250  170.6290  134.8940 N   0  0  2  0  0  0  0  0  0  0  0  0
  195.3130  170.3370  138.5620 O   0  0  0  0  0  1  0  0  0  0  0  0
  196.1010  170.7410  137.4760 C   0  0  2  0  0  0  0  0  0  0  0  0
  194.4100  172.1790  136.6740 C   0  0  1  0  0  3  0  0  0  0  0  0
  198.9290  172.1160  137.0550 O   0  0  0  0  0  1  0  0  0  0  0  0
  196.6190  172.1640  137.7190 C   0  0  1  0  0  3  0  0  0  0  0  0
  195.2360  170.9520  136.2660 C   0  0  1  0  0  3  0  0  0  0  0  0
  198.5330  168.5380  135.5160 C   0  0  0  0  0  1  0  0  0  0  0  0
  197.3300  172.0950  135.1930 C   0  0  2  0  0  3  0  0  0  0  0  0
  194.7570  173.2400  138.7760 F   0  0  0  0  0  0  0  0  0  0  0  0
  197.6740  172.5880  136.6540 C   0  0  2  0  0  0  0  0  0  0  0  0
  196.0940  171.2820  135.0090 C   0  0  1  0  0  3  0  0  0  0  0  0
  197.1040  169.6340  137.2220 C   0  0  0  0  0  2  0  0  0  0  0  0
  195.3470  173.0150  137.5450 C   0  0  2  0  0  3  0  0  0  0  0  0
  197.9960  169.8630  136.0170 C   0  0  2  0  0  3  0  0  0  0  0  0
  197.7790  174.1220  136.6220 C   0  0  0  0  0  2  0  0  0  0  0  0
  198.8730  174.6210  135.6870 C   0  0  0  0  0  1  0  0  0  0  0  0
  1  4  1  0  0  0  0
  2 34  1  6  0  0  0
  2  6  1  0  0  0  0
  3  2  1  0  0  0  0
  3  5  1  0  0  0  0
  5  8  1  6  0  0  0
  5  1  1  0  0  0  0
  6  4  1  0  0  0  0
  8  7  2  6  0  0  0
  8  9  1  0  0  0  0
  9 20  1  6  0  0  0
  9 10  1  0  0  0  0
 10 12  1  0  0  0  0
 12 11  1  1  0  0  0
 12 13  1  0  0  0  0
 13 14  1  0  0  0  0
 14 15  1  0  0  0  0
 15 16  1  6  0  0  0
 15 17  1  0  0  0  0
 17 19  2  0  0  0  0
 17 18  1  0  0  0  0
 21 26  1  0  0  0  0
 22 21  2  0  0  0  0
 23 20  1  0  0  0  0
 23 26  2  0  0  0  0
 24 23  1  0  0  0  0
 25 24  2  0  0  0  0
 25 22  1  0  0  0  0
 26 27  1  0  0  0  0
 28 27  1  0  0  0  0
 28 29  1  0  0  0  0
 30 29  1  0  0  0  0
 31 30  1  0  0  0  0
 33 31  1  0  0  0  0
 33 32  1  0  0  0  0
 35 34  1  0  0  0  0
 36 35  1  0  0  0  0
 37 36  1  0  0  0  0
 38 37  1  0  0  0  0
 38 42  1  0  0  0  0
 39 50  1  0  0  0  0
 39 47  1  0  0  0  0
 39 53  1  0  0  0  0
 41 44  1  0  0  0  0
 41 40  1  0  0  0  0
 42 52  1  0  0  0  0
 45 42  1  0  0  0  0
 45 41  1  0  0  0  0
 46 53  1  0  0  0  0
 47 49  1  0  0  0  0
 49 43  1  0  0  0  0
 49 44  1  0  0  0  0
 50 47  1  0  0  0  0
 50 45  1  0  0  0  0
 51 41  1  0  0  0  0
 52 44  1  0  0  0  0
 52 48  1  0  0  0  0
 53 51  1  0  0  0  0
 54 49  1  0  0  0  0
 55 54  1  0  0  0  0
M  END
>  <MODEL>
2

>  <REMARK>
 VINA RESULT:      -5.6      4.117     12.461
  Name = 
  23 active torsions:
  status: ('A' for Active; 'I' for Inactive)
    1  A    between atoms: C_4  and  C_37
    2  A    between atoms: C_4  and  C_40
    3  A    between atoms: C_5  and  O_19
    4  A    between atoms: C_5  and  C_40
    5  A    between atoms: C_7  and  N_22
    6  A    between atoms: C_8  and  N_22
    7  A    between atoms: C_8  and  C_43
    8  A    between atoms: C_10  and  C_32
    9  A    between atoms: C_11  and  C_38
   10  A    between atoms: C_13  and  C_48
   11  A    between atoms: C_13  and  C_52
   12  A    between atoms: C_16  and  C_36
   13  A    between atoms: O_19  and  C_45
   14  A    between atoms: C_26  and  C_45
   15  A    between atoms: C_27  and  C_54
   16  A    between atoms: P_28  and  C_44
   17  A    between atoms: P_28  and  C_49
   18  A    between atoms: C_32  and  C_48
   19  A    between atoms: N_33  and  C_49
   20  A    between atoms: N_33  and  C_52
   21  A    between atoms: C_36  and  C_49
   22  A    between atoms: C_43  and  C_51
   23  A    between atoms: C_51  and  C_54
                            x       y       z     vdW  Elec       q    Type
                         _______ _______ _______ _____ _____    ______ ____

>  <TORSDO>
F 23

$$$$
=
 OpenBabel10272401243D

 55 60  0  0  1  0  0  0  0  0999 V2000
  186.7970  177.3740  143.8830 C   0  0  0  0  0  2  0  0  0  0  0  0
  184.6620  179.3220  144.3910 C   0  0  2  0  0  3  0  0  0  0  0  0
  185.2200  179.0900  142.9860 C   0  0  0  0  0  2  0  0  0  0  0  0
  186.2320  177.5830  145.2860 C   0  0  0  0  0  2  0  0  0  0  0  0
  186.6790  178.6640  143.0810 C   0  0  2  0  0  3  0  0  0  0  0  0
  184.7760  178.0390  145.2130 C   0  0  0  0  0  2  0  0  0  0  0  0
  186.4940  178.7390  140.2230 O   0  0  0  0  0  0  0  0  0  0  0  0
  187.3640  178.4370  141.4200 P   0  0  1  0  0  4  0  0  0  0  0  0
  189.1120  178.0110  141.1510 C   0  0  1  0  0  3  0  0  0  0  0  0
  189.3560  176.6390  141.5790 N   0  0  0  0  0  2  0  0  0  0  0  0
  191.1260  175.5330  142.6810 O   0  0  0  0  0  1  0  0  0  0  0  0
  190.2460  176.6170  142.7440 C   0  0  2  0  0  3  0  0  0  0  0  0
  189.4700  176.5960  144.0580 C   0  0  0  0  0  2  0  0  0  0  0  0
  190.1110  177.5090  145.1020 C   0  0  0  0  0  2  0  0  0  0  0  0
  190.1450  176.9080  146.5120 C   0  0  2  0  0  3  0  0  0  0  0  0
  189.4680  177.7960  147.5440 C   0  0  0  0  0  1  0  0  0  0  0  0
  191.5260  176.5220  146.9370 C   0  0  0  0  0  0  0  0  0  0  0  0
  191.9640  176.9090  148.0510 O   0  0  0  0  0  1  0  0  0  0  0  0
  192.3200  175.7170  146.1270 O   0  0  0  0  0  0  0  0  0  0  0  0
  189.5100  178.1690  139.6870 C   0  0  0  0  0  2  0  0  0  0  0  0
  191.8440  175.6060  138.0660 C   0  0  0  0  0  3  0  0  0  0  0  0
  193.0410  175.9030  138.7210 C   0  0  0  0  0  3  0  0  0  0  0  0
  190.7170  177.3530  139.3240 C   0  0  0  0  0  0  0  0  0  0  0  0
  191.9240  177.6480  139.9690 C   0  0  0  0  0  3  0  0  0  0  0  0
  193.0820  176.9270  139.6680 C   0  0  0  0  0  3  0  0  0  0  0  0
  190.6800  176.3290  138.3540 C   0  0  0  0  0  0  0  0  0  0  0  0
  189.4190  175.9510  137.6460 C   0  0  0  0  0  2  0  0  0  0  0  0
  189.5360  176.2310  136.2820 O   0  0  0  0  0  0  0  0  0  0  0  0
  188.7660  175.2580  135.6430 C   0  0  0  0  0  2  0  0  0  0  0  0
  187.9410  174.4950  136.6690 C   0  0  0  0  0  2  0  0  0  0  0  0
  186.7380  173.8270  136.0220 C   0  0  0  0  0  2  0  0  0  0  0  0
  185.8650  171.5330  135.7010 C   0  0  0  0  0  1  0  0  0  0  0  0
  186.4290  172.5100  136.7090 C   0  0  0  0  0  2  0  0  0  0  0  0
  183.2080  179.7620  144.3350 C   0  0  0  0  0  2  0  0  0  0  0  0
  182.3630  178.7160  143.6290 C   0  0  0  0  0  2  0  0  0  0  0  0
  181.5060  179.3550  142.5510 C   0  0  0  0  0  2  0  0  0  0  0  0
  180.6350  178.3120  141.8700 C   0  0  0  0  0  2  0  0  0  0  0  0
  180.4210  178.6760  140.4770 N   0  0  0  0  0  2  0  0  0  0  0  0
  181.2130  175.3070  138.0310 N   0  0  2  0  0  0  0  0  0  0  0  0
  184.2450  178.1880  138.7370 O   0  0  0  0  0  1  0  0  0  0  0  0
  183.1100  177.4870  138.3090 C   0  0  2  0  0  0  0  0  0  0  0  0
  181.7150  178.6620  139.8070 C   0  0  1  0  0  3  0  0  0  0  0  0
  181.5650  177.0350  135.5750 O   0  0  0  0  0  1  0  0  0  0  0  0
  182.2420  178.4000  137.4340 C   0  0  1  0  0  3  0  0  0  0  0  0
  182.1910  177.2420  139.4710 C   0  0  1  0  0  3  0  0  0  0  0  0
  182.9930  173.8100  137.2730 C   0  0  0  0  0  1  0  0  0  0  0  0
  180.4170  176.5290  137.6850 C   0  0  2  0  0  3  0  0  0  0  0  0
  182.4400  180.5270  138.5200 F   0  0  0  0  0  0  0  0  0  0  0  0
  181.0800  177.6180  136.7510 C   0  0  2  0  0  0  0  0  0  0  0  0
  180.9780  176.3580  139.0560 C   0  0  1  0  0  3  0  0  0  0  0  0
  183.5950  176.1710  137.7320 C   0  0  0  0  0  2  0  0  0  0  0  0
  181.6580  179.3870  138.4630 C   0  0  2  0  0  3  0  0  0  0  0  0
  182.4860  175.2370  137.2900 C   0  0  2  0  0  3  0  0  0  0  0  0
  179.9820  178.6060  136.3250 C   0  0  0  0  0  2  0  0  0  0  0  0
  180.5380  179.8520  135.6480 C   0  0  0  0  0  1  0  0  0  0  0  0
  1  4  1  0  0  0  0
  2 34  1  6  0  0  0
  2  6  1  0  0  0  0
  3  5  1  0  0  0  0
  3  2  1  0  0  0  0
  5  8  1  6  0  0  0
  5  1  1  0  0  0  0
  6  4  1  0  0  0  0
  8  7  2  6  0  0  0
  9 20  1  6  0  0  0
  9  8  1  0  0  0  0
  9 10  1  0  0  0  0
 10 12  1  0  0  0  0
 12 11  1  6  0  0  0
 12 13  1  0  0  0  0
 13 14  1  0  0  0  0
 14 15  1  0  0  0  0
 15 17  1  0  0  0  0
 15 16  1  1  0  0  0
 17 18  1  0  0  0  0
 19 17  2  0  0  0  0
 21 26  2  0  0  0  0
 21 22  1  0  0  0  0
 22 25  2  0  0  0  0
 23 20  1  0  0  0  0
 23 24  2  0  0  0  0
 25 24  1  0  0  0  0
 26 23  1  0  0  0  0
 27 26  1  0  0  0  0
 28 27  1  0  0  0  0
 29 28  1  0  0  0  0
 29 30  1  0  0  0  0
 31 30  1  0  0  0  0
 31 33  1  0  0  0  0
 32 33  1  0  0  0  0
 35 34  1  0  0  0  0
 36 35  1  0  0  0  0
 37 36  1  0  0  0  0
 38 37  1  0  0  0  0
 39 50  1  0  0  0  0
 41 40  1  0  0  0  0
 41 45  1  0  0  0  0
 42 38  1  0  0  0  0
 43 49  1  0  0  0  0
 44 41  1  0  0  0  0
 44 52  1  0  0  0  0
 45 42  1  0  0  0  0
 46 53  1  0  0  0  0
 47 39  1  0  0  0  0
 47 50  1  0  0  0  0
 49 44  1  0  0  0  0
 49 47  1  0  0  0  0
 50 45  1  0  0  0  0
 51 41  1  0  0  0  0
 52 48  1  0  0  0  0
 52 42  1  0  0  0  0
 53 51  1  0  0  0  0
 53 39  1  0  0  0  0
 54 49  1  0  0  0  0
 55 54  1  0  0  0  0
M  END
>  <MODEL>
3

>  <REMARK>
 VINA RESULT:      -5.6      2.757      6.272
  Name = 
  23 active torsions:
  status: ('A' for Active; 'I' for Inactive)
    1  A    between atoms: C_4  and  C_37
    2  A    between atoms: C_4  and  C_40
    3  A    between atoms: C_5  and  O_19
    4  A    between atoms: C_5  and  C_40
    5  A    between atoms: C_7  and  N_22
    6  A    between atoms: C_8  and  N_22
    7  A    between atoms: C_8  and  C_43
    8  A    between atoms: C_10  and  C_32
    9  A    between atoms: C_11  and  C_38
   10  A    between atoms: C_13  and  C_48
   11  A    between atoms: C_13  and  C_52
   12  A    between atoms: C_16  and  C_36
   13  A    between atoms: O_19  and  C_45
   14  A    between atoms: C_26  and  C_45
   15  A    between atoms: C_27  and  C_54
   16  A    between atoms: P_28  and  C_44
   17  A    between atoms: P_28  and  C_49
   18  A    between atoms: C_32  and  C_48
   19  A    between atoms: N_33  and  C_49
   20  A    between atoms: N_33  and  C_52
   21  A    between atoms: C_36  and  C_49
   22  A    between atoms: C_43  and  C_51
   23  A    between atoms: C_51  and  C_54
                            x       y       z     vdW  Elec       q    Type
                         _______ _______ _______ _____ _____    ______ ____

>  <TORSDO>
F 23

$$$$
=
 OpenBabel10272401243D

 55 60  0  0  1  0  0  0  0  0999 V2000
  181.7160  179.1060  142.5270 C   0  0  0  0  0  2  0  0  0  0  0  0
  183.9760  178.4230  144.2700 C   0  0  2  0  0  3  0  0  0  0  0  0
  184.1000  178.3940  142.7460 C   0  0  0  0  0  2  0  0  0  0  0  0
  181.5870  179.1580  144.0480 C   0  0  0  0  0  2  0  0  0  0  0  0
  182.7480  178.0570  142.1310 C   0  0  2  0  0  3  0  0  0  0  0  0
  182.9400  179.4660  144.6880 C   0  0  0  0  0  2  0  0  0  0  0  0
  182.9130  176.6140  139.6620 O   0  0  0  0  0  0  0  0  0  0  0  0
  182.8960  177.9690  140.3280 P   0  0  1  0  0  4  0  0  0  0  0  0
  182.8660  179.4600  139.2880 C   0  0  1  0  0  3  0  0  0  0  0  0
  184.2200  179.7920  138.8620 N   0  0  0  0  0  2  0  0  0  0  0  0
  186.0520  179.0300  140.1390 O   0  0  0  0  0  1  0  0  0  0  0  0
  185.1330  178.6800  139.1460 C   0  0  2  0  0  3  0  0  0  0  0  0
  185.8590  178.2000  137.8930 C   0  0  0  0  0  2  0  0  0  0  0  0
  185.1370  177.0180  137.2460 C   0  0  0  0  0  2  0  0  0  0  0  0
  186.0350  176.1680  136.3400 C   0  0  2  0  0  3  0  0  0  0  0  0
  186.4830  174.8760  137.0040 C   0  0  0  0  0  1  0  0  0  0  0  0
  187.1940  176.9390  135.7950 C   0  0  0  0  0  0  0  0  0  0  0  0
  188.3620  176.4940  135.9430 O   0  0  0  0  0  1  0  0  0  0  0  0
  186.9940  178.1290  135.1020 O   0  0  0  0  0  0  0  0  0  0  0  0
  181.9750  179.2740  138.0630 C   0  0  0  0  0  2  0  0  0  0  0  0
  180.2420  181.9150  135.9040 C   0  0  0  0  0  3  0  0  0  0  0  0
  180.3760  183.0390  136.7210 C   0  0  0  0  0  3  0  0  0  0  0  0
  181.4070  180.5680  137.5570 C   0  0  0  0  0  0  0  0  0  0  0  0
  181.5290  181.6990  138.3720 C   0  0  0  0  0  3  0  0  0  0  0  0
  181.0150  182.9300  137.9560 C   0  0  0  0  0  3  0  0  0  0  0  0
  180.7450  180.6750  136.3150 C   0  0  0  0  0  0  0  0  0  0  0  0
  180.6010  179.5100  135.3890 C   0  0  0  0  0  2  0  0  0  0  0  0
  179.9820  178.4480  136.0540 O   0  0  0  0  0  0  0  0  0  0  0  0
  180.5670  177.2960  135.5250 C   0  0  0  0  0  2  0  0  0  0  0  0
  180.4590  176.1550  136.5250 C   0  0  0  0  0  2  0  0  0  0  0  0
  181.7910  175.4400  136.6910 C   0  0  0  0  0  2  0  0  0  0  0  0
  181.0020  173.2080  135.9680 C   0  0  0  0  0  1  0  0  0  0  0  0
  181.5710  174.0020  137.1230 C   0  0  0  0  0  2  0  0  0  0  0  0
  185.3110  178.7440  144.9210 C   0  0  0  0  0  2  0  0  0  0  0  0
  185.2670  178.4310  146.4070 C   0  0  0  0  0  2  0  0  0  0  0  0
  186.6680  178.3980  146.9910 C   0  0  0  0  0  2  0  0  0  0  0  0
  187.4700  177.2510  146.3970 C   0  0  0  0  0  2  0  0  0  0  0  0
  188.6790  177.7630  145.7680 N   0  0  0  0  0  2  0  0  0  0  0  0
  189.0550  178.4160  141.5970 N   0  0  2  0  0  0  0  0  0  0  0  0
  190.0170  174.6320  143.2580 O   0  0  0  0  0  1  0  0  0  0  0  0
  189.9910  175.9770  142.8640 C   0  0  2  0  0  0  0  0  0  0  0  0
  189.2790  176.6780  145.0020 C   0  0  1  0  0  3  0  0  0  0  0  0
  192.0580  178.0870  141.7050 O   0  0  0  0  0  1  0  0  0  0  0  0
  191.1890  176.7140  143.4770 C   0  0  1  0  0  3  0  0  0  0  0  0
  188.8460  176.6840  143.5300 C   0  0  1  0  0  3  0  0  0  0  0  0
  188.9780  177.2960  139.4230 C   0  0  0  0  0  1  0  0  0  0  0  0
  189.9610  178.8970  142.6900 C   0  0  2  0  0  3  0  0  0  0  0  0
  191.3630  175.7340  145.6570 F   0  0  0  0  0  0  0  0  0  0  0  0
  191.3390  178.1550  142.9040 C   0  0  2  0  0  0  0  0  0  0  0  0
  188.7130  178.1490  143.0200 C   0  0  1  0  0  3  0  0  0  0  0  0
  189.8190  175.9930  141.3580 C   0  0  0  0  0  2  0  0  0  0  0  0
  190.8020  176.7930  144.9660 C   0  0  2  0  0  3  0  0  0  0  0  0
  189.6860  177.3800  140.7600 C   0  0  2  0  0  3  0  0  0  0  0  0
  192.1860  179.0020  143.8700 C   0  0  0  0  0  2  0  0  0  0  0  0
  191.4050  180.1570  144.4840 C   0  0  0  0  0  1  0  0  0  0  0  0
  1  4  1  0  0  0  0
  2  6  1  0  0  0  0
  2 34  1  1  0  0  0
  3  2  1  0  0  0  0
  4  6  1  0  0  0  0
  5  8  1  6  0  0  0
  5  1  1  0  0  0  0
  5  3  1  0  0  0  0
  8  7  2  6  0  0  0
  9 20  1  6  0  0  0
  9  8  1  0  0  0  0
 10 12  1  0  0  0  0
 10  9  1  0  0  0  0
 12 11  1  1  0  0  0
 13 12  1  0  0  0  0
 14 13  1  0  0  0  0
 15 16  1  1  0  0  0
 15 14  1  0  0  0  0
 17 18  1  0  0  0  0
 17 15  1  0  0  0  0
 19 17  2  0  0  0  0
 21 26  2  0  0  0  0
 21 22  1  0  0  0  0
 22 25  2  0  0  0  0
 23 20  1  0  0  0  0
 23 24  2  0  0  0  0
 25 24  1  0  0  0  0
 26 23  1  0  0  0  0
 27 28  1  0  0  0  0
 27 26  1  0  0  0  0
 29 28  1  0  0  0  0
 29 30  1  0  0  0  0
 30 31  1  0  0  0  0
 31 33  1  0  0  0  0
 32 33  1  0  0  0  0
 34 35  1  0  0  0  0
 35 36  1  0  0  0  0
 37 36  1  0  0  0  0
 38 37  1  0  0  0  0
 39 47  1  0  0  0  0
 39 50  1  0  0  0  0
 41 40  1  0  0  0  0
 41 44  1  0  0  0  0
 41 45  1  0  0  0  0
 42 38  1  0  0  0  0
 43 49  1  0  0  0  0
 44 52  1  0  0  0  0
 45 42  1  0  0  0  0
 46 53  1  0  0  0  0
 47 49  1  0  0  0  0
 47 50  1  0  0  0  0
 49 44  1  0  0  0  0
 49 54  1  0  0  0  0
 50 45  1  0  0  0  0
 51 41  1  0  0  0  0
 52 42  1  0  0  0  0
 52 48  1  0  0  0  0
 53 51  1  0  0  0  0
 53 39  1  0  0  0  0
 54 55  1  0  0  0  0
M  END
>  <MODEL>
4

>  <REMARK>
 VINA RESULT:      -5.4      4.245      9.568
  Name = 
  23 active torsions:
  status: ('A' for Active; 'I' for Inactive)
    1  A    between atoms: C_4  and  C_37
    2  A    between atoms: C_4  and  C_40
    3  A    between atoms: C_5  and  O_19
    4  A    between atoms: C_5  and  C_40
    5  A    between atoms: C_7  and  N_22
    6  A    between atoms: C_8  and  N_22
    7  A    between atoms: C_8  and  C_43
    8  A    between atoms: C_10  and  C_32
    9  A    between atoms: C_11  and  C_38
   10  A    between atoms: C_13  and  C_48
   11  A    between atoms: C_13  and  C_52
   12  A    between atoms: C_16  and  C_36
   13  A    between atoms: O_19  and  C_45
   14  A    between atoms: C_26  and  C_45
   15  A    between atoms: C_27  and  C_54
   16  A    between atoms: P_28  and  C_44
   17  A    between atoms: P_28  and  C_49
   18  A    between atoms: C_32  and  C_48
   19  A    between atoms: N_33  and  C_49
   20  A    between atoms: N_33  and  C_52
   21  A    between atoms: C_36  and  C_49
   22  A    between atoms: C_43  and  C_51
   23  A    between atoms: C_51  and  C_54
                            x       y       z     vdW  Elec       q    Type
                         _______ _______ _______ _____ _____    ______ ____

>  <TORSDO>
F 23

$$$$
=
 OpenBabel10272401243D

 55 60  0  0  1  0  0  0  0  0999 V2000
  188.9670  177.5780  142.2750 C   0  0  0  0  0  2  0  0  0  0  0  0
  189.5220  176.7570  139.5130 C   0  0  2  0  0  3  0  0  0  0  0  0
  188.5220  177.8690  139.8350 C   0  0  0  0  0  2  0  0  0  0  0  0
  189.9830  176.4810  141.9630 C   0  0  0  0  0  2  0  0  0  0  0  0
  187.8910  177.6090  141.1970 C   0  0  2  0  0  3  0  0  0  0  0  0
  190.6070  176.7070  140.5870 C   0  0  0  0  0  2  0  0  0  0  0  0
  187.1360  180.3150  141.7550 O   0  0  0  0  0  0  0  0  0  0  0  0
  186.6670  178.8920  141.5650 P   0  0  1  0  0  4  0  0  0  0  0  0
  184.8820  178.5470  141.5560 C   0  0  1  0  0  3  0  0  0  0  0  0
  184.2280  179.3060  142.6160 N   0  0  0  0  0  2  0  0  0  0  0  0
  182.9500  178.3770  144.3680 O   0  0  0  0  0  1  0  0  0  0  0  0
  184.2450  178.5490  143.8720 C   0  0  2  0  0  3  0  0  0  0  0  0
  185.1360  179.2030  144.9230 C   0  0  0  0  0  2  0  0  0  0  0  0
  185.6260  178.1870  145.9530 C   0  0  0  0  0  2  0  0  0  0  0  0
  187.1520  178.0590  146.0170 C   0  0  2  0  0  3  0  0  0  0  0  0
  187.6910  176.9900  145.0800 C   0  0  0  0  0  1  0  0  0  0  0  0
  187.6530  177.8700  147.4140 C   0  0  0  0  0  0  0  0  0  0  0  0
  187.5260  178.8020  148.2500 O   0  0  0  0  0  1  0  0  0  0  0  0
  188.2330  176.6680  147.8050 O   0  0  0  0  0  0  0  0  0  0  0  0
  184.2490  178.8960  140.2120 C   0  0  0  0  0  2  0  0  0  0  0  0
  184.2620  176.1900  137.5060 C   0  0  0  0  0  3  0  0  0  0  0  0
  183.2180  175.3780  137.9540 C   0  0  0  0  0  3  0  0  0  0  0  0
  183.9190  177.6800  139.3940 C   0  0  0  0  0  0  0  0  0  0  0  0
  182.8790  176.8550  139.8390 C   0  0  0  0  0  3  0  0  0  0  0  0
  182.5300  175.7080  139.1220 C   0  0  0  0  0  3  0  0  0  0  0  0
  184.6250  177.3370  138.2210 C   0  0  0  0  0  0  0  0  0  0  0  0
  185.7300  178.1870  137.6830 C   0  0  0  0  0  2  0  0  0  0  0  0
  186.0360  177.7980  136.3760 O   0  0  0  0  0  0  0  0  0  0  0  0
  187.3200  178.2930  136.1400 C   0  0  0  0  0  2  0  0  0  0  0  0
  188.0290  177.4240  135.1110 C   0  0  0  0  0  2  0  0  0  0  0  0
  187.3490  176.0710  134.9710 C   0  0  0  0  0  2  0  0  0  0  0  0
  187.5420  174.7160  137.0350 C   0  0  0  0  0  1  0  0  0  0  0  0
  188.1540  174.9970  135.6800 C   0  0  0  0  0  2  0  0  0  0  0  0
  190.1630  176.9770  138.1530 C   0  0  0  0  0  2  0  0  0  0  0  0
  191.6240  176.5600  138.1800 C   0  0  0  0  0  2  0  0  0  0  0  0
  192.1130  176.2240  136.7830 C   0  0  0  0  0  2  0  0  0  0  0  0
  192.7040  174.8230  136.7450 C   0  0  0  0  0  2  0  0  0  0  0  0
  193.8020  174.7210  137.6950 N   0  0  0  0  0  2  0  0  0  0  0  0
  196.0800  171.1500  137.5390 N   0  0  2  0  0  0  0  0  0  0  0  0
  197.6450  174.7490  135.9280 O   0  0  0  0  0  1  0  0  0  0  0  0
  196.9250  173.5750  136.1830 C   0  0  2  0  0  0  0  0  0  0  0  0
  195.0500  174.7900  136.9450 C   0  0  1  0  0  3  0  0  0  0  0  0
  195.9350  171.0600  134.5200 O   0  0  0  0  0  1  0  0  0  0  0  0
  195.8470  173.3900  135.1070 C   0  0  1  0  0  3  0  0  0  0  0  0
  196.0780  173.7500  137.4120 C   0  0  1  0  0  3  0  0  0  0  0  0
  198.3670  170.2850  137.4880 C   0  0  0  0  0  1  0  0  0  0  0  0
  194.8990  171.5270  136.6960 C   0  0  2  0  0  3  0  0  0  0  0  0
  195.0880  175.6290  134.7190 F   0  0  0  0  0  0  0  0  0  0  0  0
  195.1560  171.9970  135.2090 C   0  0  2  0  0  0  0  0  0  0  0  0
  195.3570  172.4240  137.7960 C   0  0  1  0  0  3  0  0  0  0  0  0
  197.9400  172.4700  136.3950 C   0  0  0  0  0  2  0  0  0  0  0  0
  194.8310  174.4920  135.4630 C   0  0  2  0  0  3  0  0  0  0  0  0
  197.3360  171.1300  136.7680 C   0  0  2  0  0  3  0  0  0  0  0  0
  193.7990  172.0470  134.4880 C   0  0  0  0  0  2  0  0  0  0  0  0
  192.6950  171.3280  135.2540 C   0  0  0  0  0  1  0  0  0  0  0  0
  2 34  1  6  0  0  0
  2  3  1  0  0  0  0
  2  6  1  0  0  0  0
  3  5  1  0  0  0  0
  4  1  1  0  0  0  0
  5  8  1  1  0  0  0
  5  1  1  0  0  0  0
  6  4  1  0  0  0  0
  8  7  2  6  0  0  0
  9 20  1  6  0  0  0
  9  8  1  0  0  0  0
  9 10  1  0  0  0  0
 10 12  1  0  0  0  0
 12 11  1  1  0  0  0
 12 13  1  0  0  0  0
 13 14  1  0  0  0  0
 14 15  1  0  0  0  0
 15 16  1  6  0  0  0
 15 17  1  0  0  0  0
 17 19  2  0  0  0  0
 17 18  1  0  0  0  0
 21 22  2  0  0  0  0
 21 26  1  0  0  0  0
 22 25  1  0  0  0  0
 23 24  1  0  0  0  0
 23 20  1  0  0  0  0
 25 24  2  0  0  0  0
 26 23  2  0  0  0  0
 27 26  1  0  0  0  0
 28 27  1  0  0  0  0
 29 28  1  0  0  0  0
 30 29  1  0  0  0  0
 31 30  1  0  0  0  0
 31 33  1  0  0  0  0
 33 32  1  0  0  0  0
 34 35  1  0  0  0  0
 36 35  1  0  0  0  0
 37 36  1  0  0  0  0
 37 38  1  0  0  0  0
 39 50  1  0  0  0  0
 40 41  1  0  0  0  0
 41 51  1  0  0  0  0
 41 45  1  0  0  0  0
 42 45  1  0  0  0  0
 42 38  1  0  0  0  0
 43 49  1  0  0  0  0
 44 49  1  0  0  0  0
 44 52  1  0  0  0  0
 44 41  1  0  0  0  0
 45 50  1  0  0  0  0
 47 39  1  0  0  0  0
 47 50  1  0  0  0  0
 48 52  1  0  0  0  0
 49 47  1  0  0  0  0
 51 53  1  0  0  0  0
 52 42  1  0  0  0  0
 53 46  1  0  0  0  0
 53 39  1  0  0  0  0
 54 49  1  0  0  0  0
 54 55  1  0  0  0  0
M  END
>  <MODEL>
5

>  <REMARK>
 VINA RESULT:      -5.3      3.956     11.054
  Name = 
  23 active torsions:
  status: ('A' for Active; 'I' for Inactive)
    1  A    between atoms: C_4  and  C_37
    2  A    between atoms: C_4  and  C_40
    3  A    between atoms: C_5  and  O_19
    4  A    between atoms: C_5  and  C_40
    5  A    between atoms: C_7  and  N_22
    6  A    between atoms: C_8  and  N_22
    7  A    between atoms: C_8  and  C_43
    8  A    between atoms: C_10  and  C_32
    9  A    between atoms: C_11  and  C_38
   10  A    between atoms: C_13  and  C_48
   11  A    between atoms: C_13  and  C_52
   12  A    between atoms: C_16  and  C_36
   13  A    between atoms: O_19  and  C_45
   14  A    between atoms: C_26  and  C_45
   15  A    between atoms: C_27  and  C_54
   16  A    between atoms: P_28  and  C_44
   17  A    between atoms: P_28  and  C_49
   18  A    between atoms: C_32  and  C_48
   19  A    between atoms: N_33  and  C_49
   20  A    between atoms: N_33  and  C_52
   21  A    between atoms: C_36  and  C_49
   22  A    between atoms: C_43  and  C_51
   23  A    between atoms: C_51  and  C_54
                            x       y       z     vdW  Elec       q    Type
                         _______ _______ _______ _____ _____    ______ ____

>  <TORSDO>
F 23

$$$$
=
 OpenBabel10272401243D

 55 60  0  0  1  0  0  0  0  0999 V2000
  190.0900  177.8040  144.9920 C   0  0  0  0  0  2  0  0  0  0  0  0
  190.9800  177.3020  142.2410 C   0  0  2  0  0  3  0  0  0  0  0  0
  189.5150  177.5940  142.5700 C   0  0  0  0  0  2  0  0  0  0  0  0
  191.5580  177.5330  144.6710 C   0  0  0  0  0  2  0  0  0  0  0  0
  189.2000  177.0980  143.9760 C   0  0  2  0  0  3  0  0  0  0  0  0
  191.8890  177.9970  143.2530 C   0  0  0  0  0  2  0  0  0  0  0  0
  187.0310  177.5070  145.8020 O   0  0  0  0  0  0  0  0  0  0  0  0
  187.4540  177.3930  144.3560 P   0  0  1  0  0  4  0  0  0  0  0  0
  186.2270  177.7130  143.0530 C   0  0  1  0  0  3  0  0  0  0  0  0
  184.9190  177.9430  143.6530 N   0  0  0  0  0  2  0  0  0  0  0  0
  185.1510  179.6210  145.2970 O   0  0  0  0  0  1  0  0  0  0  0  0
  184.7500  179.3620  143.9830 C   0  0  2  0  0  3  0  0  0  0  0  0
  183.3160  179.8340  143.7610 C   0  0  0  0  0  2  0  0  0  0  0  0
  182.3740  178.6600  143.4950 C   0  0  0  0  0  2  0  0  0  0  0  0
  180.9030  179.0680  143.3530 C   0  0  2  0  0  3  0  0  0  0  0  0
  179.9840  178.2760  144.2690 C   0  0  0  0  0  1  0  0  0  0  0  0
  180.4330  179.0310  141.9340 C   0  0  0  0  0  0  0  0  0  0  0  0
  180.3140  180.1060  141.2900 O   0  0  0  0  0  0  0  0  0  0  0  0
  180.1520  177.8200  141.3100 O   0  0  0  0  0  1  0  0  0  0  0  0
  186.6160  178.9140  142.1970 C   0  0  0  0  0  2  0  0  0  0  0  0
  185.7100  178.3480  138.5220 C   0  0  0  0  0  3  0  0  0  0  0  0
  186.9480  177.9530  138.0130 C   0  0  0  0  0  3  0  0  0  0  0  0
  186.6890  178.5850  140.7340 C   0  0  0  0  0  0  0  0  0  0  0  0
  187.9280  178.1950  140.2120 C   0  0  0  0  0  3  0  0  0  0  0  0
  188.0570  177.8810  138.8570 C   0  0  0  0  0  3  0  0  0  0  0  0
  185.5710  178.6730  139.8770 C   0  0  0  0  0  0  0  0  0  0  0  0
  184.2170  179.0620  140.3770 C   0  0  0  0  0  2  0  0  0  0  0  0
  183.2690  178.1230  139.9630 O   0  0  0  0  0  0  0  0  0  0  0  0
  182.5280  178.7660  138.9690 C   0  0  0  0  0  2  0  0  0  0  0  0
  182.1760  177.7790  137.8660 C   0  0  0  0  0  2  0  0  0  0  0  0
  182.6740  176.3810  138.1970 C   0  0  0  0  0  2  0  0  0  0  0  0
  183.5090  174.2760  137.1950 C   0  0  0  0  0  1  0  0  0  0  0  0
  182.6570  175.5050  136.9590 C   0  0  0  0  0  2  0  0  0  0  0  0
  191.3280  177.7720  140.8380 C   0  0  0  0  0  2  0  0  0  0  0  0
  191.7390  176.5950  139.9700 C   0  0  0  0  0  2  0  0  0  0  0  0
  192.9620  176.9400  139.1400 C   0  0  0  0  0  2  0  0  0  0  0  0
  192.8570  176.3290  137.7510 C   0  0  0  0  0  2  0  0  0  0  0  0
  194.1860  176.0340  137.2360 N   0  0  0  0  0  2  0  0  0  0  0  0
  194.2380  172.6490  134.6870 N   0  0  2  0  0  0  0  0  0  0  0  0
  195.0590  172.2130  138.8260 O   0  0  0  0  0  1  0  0  0  0  0  0
  195.0990  172.5030  137.4560 C   0  0  2  0  0  0  0  0  0  0  0  0
  194.6330  174.7850  137.8400 C   0  0  1  0  0  3  0  0  0  0  0  0
  197.2070  172.2480  135.0980 O   0  0  0  0  0  1  0  0  0  0  0  0
  196.3980  173.2510  137.1280 C   0  0  1  0  0  3  0  0  0  0  0  0
  194.0730  173.5490  137.1230 C   0  0  1  0  0  3  0  0  0  0  0  0
  193.8860  170.2290  134.6350 C   0  0  0  0  0  1  0  0  0  0  0  0
  195.2710  173.7290  134.8050 C   0  0  2  0  0  3  0  0  0  0  0  0
  196.6900  174.6770  139.0310 F   0  0  0  0  0  0  0  0  0  0  0  0
  196.6040  173.4110  135.5920 C   0  0  2  0  0  0  0  0  0  0  0  0
  194.0050  173.8070  135.5900 C   0  0  1  0  0  3  0  0  0  0  0  0
  194.7960  171.2130  136.7210 C   0  0  0  0  0  2  0  0  0  0  0  0
  196.1510  174.6350  137.7580 C   0  0  2  0  0  3  0  0  0  0  0  0
  194.7140  171.3570  135.2140 C   0  0  2  0  0  3  0  0  0  0  0  0
  197.5940  174.5580  135.3270 C   0  0  0  0  0  2  0  0  0  0  0  0
  196.9490  175.7450  134.6240 C   0  0  0  0  0  1  0  0  0  0  0  0
  2 34  1  6  0  0  0
  2  3  1  0  0  0  0
  2  6  1  0  0  0  0
  3  5  1  0  0  0  0
  4  1  1  0  0  0  0
  5  8  1  1  0  0  0
  5  1  1  0  0  0  0
  6  4  1  0  0  0  0
  8  7  2  1  0  0  0
  9 20  1  1  0  0  0
  9 10  1  0  0  0  0
  9  8  1  0  0  0  0
 10 12  1  0  0  0  0
 12 11  1  1  0  0  0
 13 12  1  0  0  0  0
 14 13  1  0  0  0  0
 15 14  1  0  0  0  0
 15 16  1  1  0  0  0
 17 15  1  0  0  0  0
 18 17  2  0  0  0  0
 19 17  1  0  0  0  0
 21 26  1  0  0  0  0
 22 21  2  0  0  0  0
 22 25  1  0  0  0  0
 23 20  1  0  0  0  0
 24 23  1  0  0  0  0
 25 24  2  0  0  0  0
 26 27  1  0  0  0  0
 26 23  2  0  0  0  0
 28 27  1  0  0  0  0
 29 28  1  0  0  0  0
 30 31  1  0  0  0  0
 30 29  1  0  0  0  0
 33 32  1  0  0  0  0
 33 31  1  0  0  0  0
 35 34  1  0  0  0  0
 36 35  1  0  0  0  0
 37 36  1  0  0  0  0
 38 37  1  0  0  0  0
 38 42  1  0  0  0  0
 39 47  1  0  0  0  0
 39 53  1  0  0  0  0
 39 50  1  0  0  0  0
 41 40  1  0  0  0  0
 43 49  1  0  0  0  0
 44 41  1  0  0  0  0
 44 52  1  0  0  0  0
 45 41  1  0  0  0  0
 45 42  1  0  0  0  0
 46 53  1  0  0  0  0
 47 50  1  0  0  0  0
 47 49  1  0  0  0  0
 49 44  1  0  0  0  0
 50 45  1  0  0  0  0
 51 41  1  0  0  0  0
 52 42  1  0  0  0  0
 52 48  1  0  0  0  0
 53 51  1  0  0  0  0
 54 49  1  0  0  0  0
 55 54  1  0  0  0  0
M  END
>  <MODEL>
6

>  <REMARK>
 VINA RESULT:      -5.3      3.840     11.183
  Name = 
  23 active torsions:
  status: ('A' for Active; 'I' for Inactive)
    1  A    between atoms: C_4  and  C_37
    2  A    between atoms: C_4  and  C_40
    3  A    between atoms: C_5  and  O_19
    4  A    between atoms: C_5  and  C_40
    5  A    between atoms: C_7  and  N_22
    6  A    between atoms: C_8  and  N_22
    7  A    between atoms: C_8  and  C_43
    8  A    between atoms: C_10  and  C_32
    9  A    between atoms: C_11  and  C_38
   10  A    between atoms: C_13  and  C_48
   11  A    between atoms: C_13  and  C_52
   12  A    between atoms: C_16  and  C_36
   13  A    between atoms: O_19  and  C_45
   14  A    between atoms: C_26  and  C_45
   15  A    between atoms: C_27  and  C_54
   16  A    between atoms: P_28  and  C_44
   17  A    between atoms: P_28  and  C_49
   18  A    between atoms: C_32  and  C_48
   19  A    between atoms: N_33  and  C_49
   20  A    between atoms: N_33  and  C_52
   21  A    between atoms: C_36  and  C_49
   22  A    between atoms: C_43  and  C_51
   23  A    between atoms: C_51  and  C_54
                            x       y       z     vdW  Elec       q    Type
                         _______ _______ _______ _____ _____    ______ ____

>  <TORSDO>
F 23

$$$$
=
 OpenBabel10272401243D

 55 60  0  0  1  0  0  0  0  0999 V2000
  189.0820  177.5490  142.1940 C   0  0  0  0  0  2  0  0  0  0  0  0
  189.9750  176.6500  139.5470 C   0  0  2  0  0  3  0  0  0  0  0  0
  188.9170  177.7430  139.7100 C   0  0  0  0  0  2  0  0  0  0  0  0
  190.1540  176.4710  142.0430 C   0  0  0  0  0  2  0  0  0  0  0  0
  188.1390  177.5110  140.9990 C   0  0  2  0  0  3  0  0  0  0  0  0
  190.9290  176.6690  140.7410 C   0  0  0  0  0  2  0  0  0  0  0  0
  187.1880  180.0710  141.8620 O   0  0  0  0  0  0  0  0  0  0  0  0
  186.8490  178.7690  141.1750 P   0  0  1  0  0  4  0  0  0  0  0  0
  185.2090  178.5780  140.4120 C   0  0  1  0  0  3  0  0  0  0  0  0
  184.2300  179.3760  141.1420 N   0  0  0  0  0  2  0  0  0  0  0  0
  182.4680  178.5340  142.4670 O   0  0  0  0  0  1  0  0  0  0  0  0
  183.8530  178.7060  142.3910 C   0  0  2  0  0  3  0  0  0  0  0  0
  184.3650  179.4540  143.6180 C   0  0  0  0  0  2  0  0  0  0  0  0
  184.5640  178.5120  144.8050 C   0  0  0  0  0  2  0  0  0  0  0  0
  186.0260  178.3730  145.2450 C   0  0  2  0  0  3  0  0  0  0  0  0
  186.6970  177.1370  144.6680 C   0  0  0  0  0  1  0  0  0  0  0  0
  186.1860  178.4460  146.7300 C   0  0  0  0  0  0  0  0  0  0  0  0
  185.2280  178.8460  147.4400 O   0  0  0  0  0  1  0  0  0  0  0  0
  187.3740  178.0490  147.3370 O   0  0  0  0  0  0  0  0  0  0  0  0
  185.2190  178.9960  138.9450 C   0  0  0  0  0  2  0  0  0  0  0  0
  184.0470  175.9820  136.9000 C   0  0  0  0  0  3  0  0  0  0  0  0
  185.2250  175.6600  136.2240 C   0  0  0  0  0  3  0  0  0  0  0  0
  185.1800  177.8240  138.0080 C   0  0  0  0  0  0  0  0  0  0  0  0
  186.3540  177.4980  137.3190 C   0  0  0  0  0  3  0  0  0  0  0  0
  186.3770  176.4210  136.4300 C   0  0  0  0  0  3  0  0  0  0  0  0
  184.0110  177.0640  137.7870 C   0  0  0  0  0  0  0  0  0  0  0  0
  182.7320  177.3480  138.5070 C   0  0  0  0  0  2  0  0  0  0  0  0
  182.1640  178.5280  138.0210 O   0  0  0  0  0  0  0  0  0  0  0  0
  181.2610  178.9310  139.0070 C   0  0  0  0  0  2  0  0  0  0  0  0
  180.3070  179.9720  138.4400 C   0  0  0  0  0  2  0  0  0  0  0  0
  180.5740  180.2190  136.9640 C   0  0  0  0  0  2  0  0  0  0  0  0
  180.4180  182.5150  137.8790 C   0  0  0  0  0  1  0  0  0  0  0  0
  180.9250  181.6760  136.7250 C   0  0  0  0  0  2  0  0  0  0  0  0
  190.7650  176.8420  138.2630 C   0  0  0  0  0  2  0  0  0  0  0  0
  192.2520  176.6670  138.5220 C   0  0  0  0  0  2  0  0  0  0  0  0
  193.0130  176.5340  137.2160 C   0  0  0  0  0  2  0  0  0  0  0  0
  193.5540  175.1220  137.0520 C   0  0  0  0  0  2  0  0  0  0  0  0
  194.4450  174.8000  138.1580 N   0  0  0  0  0  2  0  0  0  0  0  0
  195.6840  170.7800  137.6420 N   0  0  2  0  0  0  0  0  0  0  0  0
  198.4160  173.9560  136.9710 O   0  0  0  0  0  1  0  0  0  0  0  0
  197.3760  173.0200  136.8990 C   0  0  2  0  0  0  0  0  0  0  0  0
  195.7830  174.6080  137.6130 C   0  0  1  0  0  3  0  0  0  0  0  0
  196.0820  171.1690  134.6700 O   0  0  0  0  0  1  0  0  0  0  0  0
  196.5060  173.3140  135.6690 C   0  0  1  0  0  3  0  0  0  0  0  0
  196.3940  173.2570  138.0100 C   0  0  1  0  0  3  0  0  0  0  0  0
  197.6300  169.3010  137.7420 C   0  0  0  0  0  1  0  0  0  0  0  0
  194.8220  171.6020  136.7320 C   0  0  2  0  0  3  0  0  0  0  0  0
  196.4520  175.7090  135.6120 F   0  0  0  0  0  0  0  0  0  0  0  0
  195.4650  172.1840  135.4110 C   0  0  2  0  0  0  0  0  0  0  0  0
  195.2900  172.1600  138.0340 C   0  0  1  0  0  3  0  0  0  0  0  0
  198.0060  171.6480  137.0340 C   0  0  0  0  0  2  0  0  0  0  0  0
  195.7700  174.6020  136.0850 C   0  0  2  0  0  3  0  0  0  0  0  0
  197.0110  170.5040  137.0610 C   0  0  2  0  0  3  0  0  0  0  0  0
  194.3270  172.7300  134.5330 C   0  0  0  0  0  2  0  0  0  0  0  0
  193.0800  171.8550  134.5680 C   0  0  0  0  0  1  0  0  0  0  0  0
  2 34  1  6  0  0  0
  2  3  1  0  0  0  0
  2  6  1  0  0  0  0
  3  5  1  0  0  0  0
  4  1  1  0  0  0  0
  5  8  1  1  0  0  0
  5  1  1  0  0  0  0
  6  4  1  0  0  0  0
  8  7  2  6  0  0  0
  9 20  1  6  0  0  0
  9 10  1  0  0  0  0
  9  8  1  0  0  0  0
 10 12  1  0  0  0  0
 12 11  1  1  0  0  0
 12 13  1  0  0  0  0
 13 14  1  0  0  0  0
 14 15  1  0  0  0  0
 15 16  1  1  0  0  0
 15 17  1  0  0  0  0
 17 19  2  0  0  0  0
 17 18  1  0  0  0  0
 21 26  1  0  0  0  0
 22 25  1  0  0  0  0
 22 21  2  0  0  0  0
 23 20  1  0  0  0  0
 24 23  1  0  0  0  0
 25 24  2  0  0  0  0
 26 23  2  0  0  0  0
 26 27  1  0  0  0  0
 28 27  1  0  0  0  0
 28 29  1  0  0  0  0
 30 29  1  0  0  0  0
 31 30  1  0  0  0  0
 33 31  1  0  0  0  0
 33 32  1  0  0  0  0
 34 35  1  0  0  0  0
 36 35  1  0  0  0  0
 37 36  1  0  0  0  0
 37 38  1  0  0  0  0
 39 50  1  0  0  0  0
 41 40  1  0  0  0  0
 41 51  1  0  0  0  0
 41 45  1  0  0  0  0
 42 45  1  0  0  0  0
 42 38  1  0  0  0  0
 43 49  1  0  0  0  0
 44 52  1  0  0  0  0
 44 41  1  0  0  0  0
 45 50  1  0  0  0  0
 47 39  1  0  0  0  0
 47 50  1  0  0  0  0
 48 52  1  0  0  0  0
 49 44  1  0  0  0  0
 49 47  1  0  0  0  0
 51 53  1  0  0  0  0
 52 42  1  0  0  0  0
 53 39  1  0  0  0  0
 53 46  1  0  0  0  0
 54 55  1  0  0  0  0
 54 49  1  0  0  0  0
M  END
>  <MODEL>
7

>  <REMARK>
 VINA RESULT:      -4.9      4.061     11.929
  Name = 
  23 active torsions:
  status: ('A' for Active; 'I' for Inactive)
    1  A    between atoms: C_4  and  C_37
    2  A    between atoms: C_4  and  C_40
    3  A    between atoms: C_5  and  O_19
    4  A    between atoms: C_5  and  C_40
    5  A    between atoms: C_7  and  N_22
    6  A    between atoms: C_8  and  N_22
    7  A    between atoms: C_8  and  C_43
    8  A    between atoms: C_10  and  C_32
    9  A    between atoms: C_11  and  C_38
   10  A    between atoms: C_13  and  C_48
   11  A    between atoms: C_13  and  C_52
   12  A    between atoms: C_16  and  C_36
   13  A    between atoms: O_19  and  C_45
   14  A    between atoms: C_26  and  C_45
   15  A    between atoms: C_27  and  C_54
   16  A    between atoms: P_28  and  C_44
   17  A    between atoms: P_28  and  C_49
   18  A    between atoms: C_32  and  C_48
   19  A    between atoms: N_33  and  C_49
   20  A    between atoms: N_33  and  C_52
   21  A    between atoms: C_36  and  C_49
   22  A    between atoms: C_43  and  C_51
   23  A    between atoms: C_51  and  C_54
                            x       y       z     vdW  Elec       q    Type
                         _______ _______ _______ _____ _____    ______ ____

>  <TORSDO>
F 23

$$$$
=
 OpenBabel10272401243D

 55 60  0  0  1  0  0  0  0  0999 V2000
  191.1450  176.2700  138.4820 C   0  0  0  0  0  2  0  0  0  0  0  0
  189.6860  175.5960  136.0270 C   0  0  2  0  0  3  0  0  0  0  0  0
  189.3450  176.8410  136.8480 C   0  0  0  0  0  2  0  0  0  0  0  0
  191.5070  175.0360  137.6590 C   0  0  0  0  0  2  0  0  0  0  0  0
  189.6630  176.5870  138.3150 C   0  0  2  0  0  3  0  0  0  0  0  0
  191.1670  175.2580  136.1860 C   0  0  0  0  0  2  0  0  0  0  0  0
  188.9590  179.3490  138.6000 O   0  0  0  0  0  0  0  0  0  0  0  0
  189.2150  178.0360  139.3030 P   0  0  1  0  0  4  0  0  0  0  0  0
  188.9100  177.9230  141.0920 C   0  0  1  0  0  3  0  0  0  0  0  0
  190.1690  178.0560  141.8170 N   0  0  0  0  0  2  0  0  0  0  0  0
  189.1980  176.4040  143.1940 O   0  0  0  0  0  1  0  0  0  0  0  0
  190.3990  176.8800  142.6620 C   0  0  2  0  0  3  0  0  0  0  0  0
  191.3990  177.1660  143.7790 C   0  0  0  0  0  2  0  0  0  0  0  0
  191.4670  176.0110  144.7780 C   0  0  0  0  0  2  0  0  0  0  0  0
  191.7100  176.4590  146.2240 C   0  0  2  0  0  3  0  0  0  0  0  0
  192.3760  175.3830  147.0670 C   0  0  0  0  0  1  0  0  0  0  0  0
  190.4720  176.9840  146.8770 C   0  0  0  0  0  0  0  0  0  0  0  0
  189.4080  177.0730  146.2110 O   0  0  0  0  0  0  0  0  0  0  0  0
  190.4770  177.3500  148.2190 O   0  0  0  0  0  1  0  0  0  0  0  0
  187.9320  178.9940  141.5650 C   0  0  0  0  0  2  0  0  0  0  0  0
  184.1260  178.7080  141.2900 C   0  0  0  0  0  3  0  0  0  0  0  0
  183.9930  178.3720  139.9420 C   0  0  0  0  0  3  0  0  0  0  0  0
  186.5410  178.7820  141.0390 C   0  0  0  0  0  0  0  0  0  0  0  0
  186.3970  178.4520  139.6870 C   0  0  0  0  0  3  0  0  0  0  0  0
  185.1280  178.2480  139.1400 C   0  0  0  0  0  3  0  0  0  0  0  0
  185.3920  178.9230  141.8460 C   0  0  0  0  0  0  0  0  0  0  0  0
  185.4800  179.2530  143.3020 C   0  0  0  0  0  2  0  0  0  0  0  0
  184.2290  179.6570  143.7750 O   0  0  0  0  0  0  0  0  0  0  0  0
  183.7660  178.5860  144.5420 C   0  0  0  0  0  2  0  0  0  0  0  0
  184.8900  178.0540  145.4190 C   0  0  0  0  0  2  0  0  0  0  0  0
  184.8790  178.7150  146.7890 C   0  0  0  0  0  2  0  0  0  0  0  0
  187.1080  178.3300  147.7970 C   0  0  0  0  0  1  0  0  0  0  0  0
  186.2300  179.3380  147.0870 C   0  0  0  0  0  2  0  0  0  0  0  0
  189.3680  175.8070  134.5560 C   0  0  0  0  0  2  0  0  0  0  0  0
  187.8710  175.9650  134.3530 C   0  0  0  0  0  2  0  0  0  0  0  0
  187.4080  177.3370  134.8110 C   0  0  0  0  0  2  0  0  0  0  0  0
  185.9230  177.5210  134.5380 C   0  0  0  0  0  2  0  0  0  0  0  0
  185.2600  176.2250  134.5020 N   0  0  0  0  0  2  0  0  0  0  0  0
  182.3480  173.1630  134.8240 N   0  0  2  0  0  0  0  0  0  0  0  0
  183.4590  175.4180  138.2420 O   0  0  0  0  0  1  0  0  0  0  0  0
  183.4040  174.5350  137.1560 C   0  0  2  0  0  0  0  0  0  0  0  0
  184.7980  175.9220  135.8500 C   0  0  1  0  0  3  0  0  0  0  0  0
  184.1370  171.4980  136.6040 O   0  0  0  0  0  1  0  0  0  0  0  0
  184.7370  173.7850  137.0360 C   0  0  1  0  0  3  0  0  0  0  0  0
  183.3920  175.3080  135.8680 C   0  0  1  0  0  3  0  0  0  0  0  0
  180.3770  172.4580  136.0910 C   0  0  0  0  0  1  0  0  0  0  0  0
  183.8340  173.0120  134.6950 C   0  0  2  0  0  3  0  0  0  0  0  0
  186.3500  175.4670  137.5960 F   0  0  0  0  0  0  0  0  0  0  0  0
  184.6660  172.6370  135.9850 C   0  0  2  0  0  0  0  0  0  0  0  0
  183.2070  174.3640  134.6430 C   0  0  1  0  0  3  0  0  0  0  0  0
  182.1270  173.7320  137.3020 C   0  0  0  0  0  2  0  0  0  0  0  0
  185.6900  174.8840  136.5280 C   0  0  2  0  0  3  0  0  0  0  0  0
  181.8580  172.7730  136.1590 C   0  0  2  0  0  3  0  0  0  0  0  0
  186.0890  172.2660  135.5380 C   0  0  0  0  0  2  0  0  0  0  0  0
  186.9950  171.8870  136.7030 C   0  0  0  0  0  1  0  0  0  0  0  0
  2 34  1  6  0  0  0
  2  6  1  0  0  0  0
  2  3  1  0  0  0  0
  3  5  1  0  0  0  0
  4  1  1  0  0  0  0
  5  1  1  0  0  0  0
  5  8  1  1  0  0  0
  6  4  1  0  0  0  0
  8  7  2  6  0  0  0
  8  9  1  0  0  0  0
  9 20  1  1  0  0  0
  9 10  1  0  0  0  0
 10 12  1  0  0  0  0
 12 11  1  1  0  0  0
 12 13  1  0  0  0  0
 13 14  1  0  0  0  0
 14 15  1  0  0  0  0
 15 17  1  0  0  0  0
 15 16  1  1  0  0  0
 17 19  1  0  0  0  0
 18 17  2  0  0  0  0
 21 26  1  0  0  0  0
 22 21  2  0  0  0  0
 23 20  1  0  0  0  0
 23 26  2  0  0  0  0
 24 23  1  0  0  0  0
 25 24  2  0  0  0  0
 25 22  1  0  0  0  0
 26 27  1  0  0  0  0
 27 28  1  0  0  0  0
 28 29  1  0  0  0  0
 29 30  1  0  0  0  0
 30 31  1  0  0  0  0
 31 33  1  0  0  0  0
 33 32  1  0  0  0  0
 35 34  1  0  0  0  0
 35 36  1  0  0  0  0
 37 36  1  0  0  0  0
 38 37  1  0  0  0  0
 38 42  1  0  0  0  0
 39 53  1  0  0  0  0
 41 51  1  0  0  0  0
 41 40  1  0  0  0  0
 42 45  1  0  0  0  0
 42 52  1  0  0  0  0
 44 41  1  0  0  0  0
 45 41  1  0  0  0  0
 46 53  1  0  0  0  0
 47 39  1  0  0  0  0
 47 49  1  0  0  0  0
 49 43  1  0  0  0  0
 49 44  1  0  0  0  0
 50 47  1  0  0  0  0
 50 39  1  0  0  0  0
 50 45  1  0  0  0  0
 52 44  1  0  0  0  0
 52 48  1  0  0  0  0
 53 51  1  0  0  0  0
 54 49  1  0  0  0  0
 54 55  1  0  0  0  0
M  END
>  <MODEL>
8

>  <REMARK>
 VINA RESULT:      -4.9      3.331      9.040
  Name = 
  23 active torsions:
  status: ('A' for Active; 'I' for Inactive)
    1  A    between atoms: C_4  and  C_37
    2  A    between atoms: C_4  and  C_40
    3  A    between atoms: C_5  and  O_19
    4  A    between atoms: C_5  and  C_40
    5  A    between atoms: C_7  and  N_22
    6  A    between atoms: C_8  and  N_22
    7  A    between atoms: C_8  and  C_43
    8  A    between atoms: C_10  and  C_32
    9  A    between atoms: C_11  and  C_38
   10  A    between atoms: C_13  and  C_48
   11  A    between atoms: C_13  and  C_52
   12  A    between atoms: C_16  and  C_36
   13  A    between atoms: O_19  and  C_45
   14  A    between atoms: C_26  and  C_45
   15  A    between atoms: C_27  and  C_54
   16  A    between atoms: P_28  and  C_44
   17  A    between atoms: P_28  and  C_49
   18  A    between atoms: C_32  and  C_48
   19  A    between atoms: N_33  and  C_49
   20  A    between atoms: N_33  and  C_52
   21  A    between atoms: C_36  and  C_49
   22  A    between atoms: C_43  and  C_51
   23  A    between atoms: C_51  and  C_54
                            x       y       z     vdW  Elec       q    Type
                         _______ _______ _______ _____ _____    ______ ____

>  <TORSDO>
F 23

$$$$
=
 OpenBabel10272401243D

 55 60  0  0  1  0  0  0  0  0999 V2000
  188.7720  177.7150  141.2290 C   0  0  0  0  0  2  0  0  0  0  0  0
  191.0960  176.9800  139.5940 C   0  0  2  0  0  3  0  0  0  0  0  0
  189.9420  177.8060  139.0240 C   0  0  0  0  0  2  0  0  0  0  0  0
  189.9290  176.9070  141.8140 C   0  0  0  0  0  2  0  0  0  0  0  0
  188.6480  177.4340  139.7360 C   0  0  2  0  0  3  0  0  0  0  0  0
  191.2330  177.2440  141.0920 C   0  0  0  0  0  2  0  0  0  0  0  0
  187.4420  179.0310  137.6870 O   0  0  0  0  0  0  0  0  0  0  0  0
  187.2660  178.3690  139.0330 P   0  0  1  0  0  4  0  0  0  0  0  0
  185.6280  178.4030  139.8220 C   0  0  1  0  0  3  0  0  0  0  0  0
  185.6720  179.2410  141.0140 N   0  0  0  0  0  2  0  0  0  0  0  0
  184.3760  179.4290  142.9770 O   0  0  0  0  0  1  0  0  0  0  0  0
  185.0740  178.5410  142.1550 C   0  0  2  0  0  3  0  0  0  0  0  0
  186.1140  177.7720  142.9640 C   0  0  0  0  0  2  0  0  0  0  0  0
  186.4690  178.5030  144.2590 C   0  0  0  0  0  2  0  0  0  0  0  0
  186.9630  177.5760  145.3760 C   0  0  2  0  0  3  0  0  0  0  0  0
  186.2310  177.8010  146.6900 C   0  0  0  0  0  1  0  0  0  0  0  0
  188.4460  177.6340  145.5540 C   0  0  0  0  0  0  0  0  0  0  0  0
  189.1520  178.2310  144.7010 O   0  0  0  0  0  0  0  0  0  0  0  0
  189.0510  177.0580  146.6670 O   0  0  0  0  0  1  0  0  0  0  0  0
  184.5560  178.9240  138.8700 C   0  0  0  0  0  2  0  0  0  0  0  0
  181.7290  176.3450  138.8040 C   0  0  0  0  0  3  0  0  0  0  0  0
  180.7240  177.0530  139.4670 C   0  0  0  0  0  3  0  0  0  0  0  0
  183.2330  178.2370  139.0540 C   0  0  0  0  0  0  0  0  0  0  0  0
  182.2220  178.9350  139.7250 C   0  0  0  0  0  3  0  0  0  0  0  0
  180.9720  178.3450  139.9310 C   0  0  0  0  0  3  0  0  0  0  0  0
  182.9870  176.9240  138.6000 C   0  0  0  0  0  0  0  0  0  0  0  0
  184.0180  176.1340  137.8590 C   0  0  0  0  0  2  0  0  0  0  0  0
  183.8500  174.7710  138.1180 O   0  0  0  0  0  0  0  0  0  0  0  0
  184.1240  174.1340  136.9060 C   0  0  0  0  0  2  0  0  0  0  0  0
  185.3290  173.2190  137.0630 C   0  0  0  0  0  2  0  0  0  0  0  0
  186.6310  173.9960  136.9410 C   0  0  0  0  0  2  0  0  0  0  0  0
  187.6960  172.7050  135.1170 C   0  0  0  0  0  1  0  0  0  0  0  0
  187.0890  174.0380  135.4960 C   0  0  0  0  0  2  0  0  0  0  0  0
  192.4040  177.3160  138.8970 C   0  0  0  0  0  2  0  0  0  0  0  0
  193.3480  176.1270  138.9380 C   0  0  0  0  0  2  0  0  0  0  0  0
  193.7430  175.7050  137.5340 C   0  0  0  0  0  2  0  0  0  0  0  0
  192.9820  174.4560  137.1150 C   0  0  0  0  0  2  0  0  0  0  0  0
  193.7300  173.2670  137.4980 N   0  0  0  0  0  2  0  0  0  0  0  0
  196.0530  169.7250  137.6190 N   0  0  2  0  0  0  0  0  0  0  0  0
  197.7170  173.3130  136.0840 O   0  0  0  0  0  1  0  0  0  0  0  0
  196.9890  172.1350  136.2970 C   0  0  2  0  0  0  0  0  0  0  0  0
  195.0400  173.3390  136.8620 C   0  0  1  0  0  3  0  0  0  0  0  0
  196.1830  169.5760  134.6020 O   0  0  0  0  0  1  0  0  0  0  0  0
  196.0160  171.9150  135.1310 C   0  0  1  0  0  3  0  0  0  0  0  0
  196.0330  172.3210  137.4400 C   0  0  1  0  0  3  0  0  0  0  0  0
  198.3460  168.8890  137.7910 C   0  0  0  0  0  1  0  0  0  0  0  0
  194.9490  170.0700  136.6660 C   0  0  2  0  0  3  0  0  0  0  0  0
  195.2680  174.1360  134.6320 F   0  0  0  0  0  0  0  0  0  0  0  0
  195.3340  170.5150  135.1990 C   0  0  2  0  0  0  0  0  0  0  0  0
  195.2960  170.9940  137.7840 C   0  0  1  0  0  3  0  0  0  0  0  0
  197.9940  171.0470  136.6210 C   0  0  0  0  0  2  0  0  0  0  0  0
  194.9590  173.0100  135.3730 C   0  0  2  0  0  3  0  0  0  0  0  0
  197.3750  169.7060  136.9650 C   0  0  2  0  0  3  0  0  0  0  0  0
  194.0470  170.5330  134.3580 C   0  0  0  0  0  2  0  0  0  0  0  0
  192.9780  169.5890  134.8930 C   0  0  0  0  0  1  0  0  0  0  0  0
  1  4  1  0  0  0  0
  2 34  1  6  0  0  0
  2  6  1  0  0  0  0
  3  2  1  0  0  0  0
  3  5  1  0  0  0  0
  5  8  1  6  0  0  0
  5  1  1  0  0  0  0
  6  4  1  0  0  0  0
  8  7  2  6  0  0  0
  8  9  1  0  0  0  0
  9 20  1  6  0  0  0
  9 10  1  0  0  0  0
 10 12  1  0  0  0  0
 12 13  1  0  0  0  0
 12 11  1  1  0  0  0
 13 14  1  0  0  0  0
 14 15  1  0  0  0  0
 15 17  1  0  0  0  0
 15 16  1  1  0  0  0
 17 19  1  0  0  0  0
 18 17  2  0  0  0  0
 20 23  1  0  0  0  0
 21 22  1  0  0  0  0
 22 25  2  0  0  0  0
 23 24  2  0  0  0  0
 24 25  1  0  0  0  0
 26 21  2  0  0  0  0
 26 23  1  0  0  0  0
 27 28  1  0  0  0  0
 27 26  1  0  0  0  0
 29 30  1  0  0  0  0
 29 28  1  0  0  0  0
 31 30  1  0  0  0  0
 32 33  1  0  0  0  0
 33 31  1  0  0  0  0
 34 35  1  0  0  0  0
 36 35  1  0  0  0  0
 37 38  1  0  0  0  0
 37 36  1  0  0  0  0
 39 50  1  0  0  0  0
 40 41  1  0  0  0  0
 41 51  1  0  0  0  0
 41 45  1  0  0  0  0
 42 45  1  0  0  0  0
 42 38  1  0  0  0  0
 43 49  1  0  0  0  0
 44 49  1  0  0  0  0
 44 52  1  0  0  0  0
 44 41  1  0  0  0  0
 45 50  1  0  0  0  0
 47 39  1  0  0  0  0
 47 50  1  0  0  0  0
 48 52  1  0  0  0  0
 49 47  1  0  0  0  0
 51 53  1  0  0  0  0
 52 42  1  0  0  0  0
 53 39  1  0  0  0  0
 53 46  1  0  0  0  0
 54 55  1  0  0  0  0
 54 49  1  0  0  0  0
M  END
>  <MODEL>
9

>  <REMARK>
 VINA RESULT:      -4.6      4.047     11.513
  Name = 
  23 active torsions:
  status: ('A' for Active; 'I' for Inactive)
    1  A    between atoms: C_4  and  C_37
    2  A    between atoms: C_4  and  C_40
    3  A    between atoms: C_5  and  O_19
    4  A    between atoms: C_5  and  C_40
    5  A    between atoms: C_7  and  N_22
    6  A    between atoms: C_8  and  N_22
    7  A    between atoms: C_8  and  C_43
    8  A    between atoms: C_10  and  C_32
    9  A    between atoms: C_11  and  C_38
   10  A    between atoms: C_13  and  C_48
   11  A    between atoms: C_13  and  C_52
   12  A    between atoms: C_16  and  C_36
   13  A    between atoms: O_19  and  C_45
   14  A    between atoms: C_26  and  C_45
   15  A    between atoms: C_27  and  C_54
   16  A    between atoms: P_28  and  C_44
   17  A    between atoms: P_28  and  C_49
   18  A    between atoms: C_32  and  C_48
   19  A    between atoms: N_33  and  C_49
   20  A    between atoms: N_33  and  C_52
   21  A    between atoms: C_36  and  C_49
   22  A    between atoms: C_43  and  C_51
   23  A    between atoms: C_51  and  C_54
                            x       y       z     vdW  Elec       q    Type
                         _______ _______ _______ _____ _____    ______ ____

>  <TORSDO>
F 23

$$$$
