=
 OpenBabel10262423503D

 34 39  0  0  1  0  0  0  0  0999 V2000
  187.3040  177.6060  145.9340 C   0  0  0  0  0  0  0  0  0  0  0  0
  189.5080  177.4640  144.9280 C   0  0  0  0  0  3  0  0  0  0  0  0
  187.5850  178.1690  143.5660 C   0  0  0  0  0  0  0  0  0  0  0  0
  187.8740  179.1210  141.2250 N   0  0  1  0  0  0  0  0  0  0  0  0
  189.2010  176.8930  147.2600 C   0  0  0  0  0  3  0  0  0  0  0  0
  190.0360  177.0400  146.1500 C   0  0  0  0  0  3  0  0  0  0  0  0
  188.9680  177.1070  141.7130 C   0  0  0  0  0  0  0  0  0  0  0  0
  188.1380  177.7420  144.7970 C   0  0  0  0  0  0  0  0  0  0  0  0
  188.5440  178.6120  140.0150 C   0  0  0  0  0  2  0  0  0  0  0  0
  187.8380  177.1790  147.1530 C   0  0  0  0  0  3  0  0  0  0  0  0
  186.2110  178.4930  143.5020 C   0  0  0  0  0  0  0  0  0  0  0  0
  185.9510  177.9240  145.8520 C   0  0  0  0  0  3  0  0  0  0  0  0
  189.3440  176.0640  142.3110 O   0  0  0  0  0  0  0  0  0  0  0  0
  186.4680  178.7580  141.0320 C   0  0  0  0  0  2  0  0  0  0  0  0
  185.6310  179.1070  142.2520 C   0  0  1  0  0  3  0  0  0  0  0  0
  189.0440  177.2840  140.3210 N   0  0  0  0  0  0  0  0  0  0  0  0
  188.4720  178.3470  142.3410 C   0  0  2  0  0  3  0  0  0  0  0  0
  185.4150  178.3790  144.6510 C   0  0  0  0  0  3  0  0  0  0  0  0
  181.8640  178.7020  142.6740 C   0  0  0  0  0  0  0  0  0  0  0  0
  181.5430  177.9790  141.5200 C   0  0  0  0  0  3  0  0  0  0  0  0
  184.2000  178.7180  142.0130 C   0  0  0  0  0  0  0  0  0  0  0  0
  182.5470  177.6260  140.6150 C   0  0  0  0  0  3  0  0  0  0  0  0
  183.1890  179.0710  142.9210 C   0  0  0  0  0  3  0  0  0  0  0  0
  183.8730  177.9950  140.8610 C   0  0  0  0  0  3  0  0  0  0  0  0
  180.8910  179.0440  143.5500 F   0  0  0  0  0  0  0  0  0  0  0  0
  189.6730  176.3860  139.3640 C   0  0  0  0  0  2  0  0  0  0  0  0
  190.4030  177.1490  138.3610 N   0  0  0  0  0  2  0  0  0  0  0  0
  189.4440  179.1470  136.9090 F   0  0  0  0  0  0  0  0  0  0  0  0
  189.8930  176.7630  137.0530 C   0  0  2  0  0  3  0  0  0  0  0  0
  189.0730  177.9060  136.4200 C   0  0  1  0  0  3  0  0  0  0  0  0
  187.3330  176.6630  135.7290 C   0  0  0  0  0  2  0  0  0  0  0  0
  188.0440  175.3360  136.0540 C   0  0  0  0  0  2  0  0  0  0  0  0
  189.0460  175.4930  137.2010 C   0  0  0  0  0  2  0  0  0  0  0  0
  187.6980  177.6970  136.6130 O   0  0  0  0  0  0  0  0  0  0  0  0
  1 10  2  0  0  0  0
  2  6  1  0  0  0  0
  3  8  1  0  0  0  0
  4  9  1  6  0  0  0
  4 17  1  0  0  0  0
  6  5  2  0  0  0  0
  7 13  2  0  0  0  0
  8  2  2  0  0  0  0
  8  1  1  0  0  0  0
  9 16  1  0  0  0  0
 10  5  1  0  0  0  0
 11  3  2  0  0  0  0
 11 18  1  0  0  0  0
 12  1  1  0  0  0  0
 14  4  1  0  0  0  0
 14 15  1  0  0  0  0
 15 21  1  6  0  0  0
 15 11  1  0  0  0  0
 16  7  1  0  0  0  0
 17  7  1  6  0  0  0
 17  3  1  0  0  0  0
 18 12  2  0  0  0  0
 19 23  1  0  0  0  0
 19 25  1  0  0  0  0
 20 19  2  0  0  0  0
 21 23  2  0  0  0  0
 22 24  2  0  0  0  0
 22 20  1  0  0  0  0
 24 21  1  0  0  0  0
 26 16  1  0  0  0  0
 27 26  1  0  0  0  0
 29 33  1  0  0  0  0
 29 27  1  1  0  0  0
 30 34  1  0  0  0  0
 30 28  1  1  0  0  0
 30 29  1  0  0  0  0
 31 32  1  0  0  0  0
 31 34  1  0  0  0  0
 32 33  1  0  0  0  0
M  END
>  <MODEL>
1

>  <REMARK>
 VINA RESULT:      -9.9      0.000      0.000
  Name = 
  4 active torsions:
  status: ('A' for Active; 'I' for Inactive)
    1  A    between atoms: N_3  and  C_13
    2  A    between atoms: N_3  and  C_17
    3  A    between atoms: C_12  and  C_28
    4  A    between atoms: C_17  and  N_29
                            x       y       z     vdW  Elec       q    Type
                         _______ _______ _______ _____ _____    ______ ____

>  <TORSDO>
F 4

$$$$
=
 OpenBabel10262423503D

 34 39  0  0  1  0  0  0  0  0999 V2000
  187.3610  177.5870  145.8690 C   0  0  0  0  0  0  0  0  0  0  0  0
  189.5720  177.4290  144.8830 C   0  0  0  0  0  3  0  0  0  0  0  0
  187.6640  178.1340  143.5000 C   0  0  0  0  0  0  0  0  0  0  0  0
  187.9760  179.0710  141.1560 N   0  0  1  0  0  0  0  0  0  0  0  0
  189.2430  176.8720  147.2150 C   0  0  0  0  0  3  0  0  0  0  0  0
  190.0880  177.0090  146.1110 C   0  0  0  0  0  3  0  0  0  0  0  0
  189.0570  177.0550  141.6650 C   0  0  0  0  0  0  0  0  0  0  0  0
  188.2040  177.7120  144.7380 C   0  0  0  0  0  0  0  0  0  0  0  0
  188.6550  178.5530  139.9540 C   0  0  0  0  0  2  0  0  0  0  0  0
  187.8820  177.1640  147.0950 C   0  0  0  0  0  3  0  0  0  0  0  0
  186.2920  178.4640  143.4230 C   0  0  0  0  0  0  0  0  0  0  0  0
  186.0090  177.9100  145.7740 C   0  0  0  0  0  3  0  0  0  0  0  0
  189.4230  176.0140  142.2720 O   0  0  0  0  0  0  0  0  0  0  0  0
  186.5710  178.7130  140.9530 C   0  0  0  0  0  2  0  0  0  0  0  0
  185.7250  179.0730  142.1650 C   0  0  1  0  0  3  0  0  0  0  0  0
  189.1450  177.2240  140.2730 N   0  0  0  0  0  0  0  0  0  0  0  0
  188.5610  178.3010  142.2820 C   0  0  2  0  0  3  0  0  0  0  0  0
  185.4850  178.3600  144.5650 C   0  0  0  0  0  3  0  0  0  0  0  0
  181.9520  178.6910  142.5550 C   0  0  0  0  0  0  0  0  0  0  0  0
  181.6380  177.9590  141.4050 C   0  0  0  0  0  3  0  0  0  0  0  0
  184.2950  178.6890  141.9150 C   0  0  0  0  0  0  0  0  0  0  0  0
  182.6490  177.5930  140.5120 C   0  0  0  0  0  3  0  0  0  0  0  0
  183.2760  179.0560  142.8110 C   0  0  0  0  0  3  0  0  0  0  0  0
  183.9750  177.9570  140.7670 C   0  0  0  0  0  3  0  0  0  0  0  0
  180.9720  179.0470  143.4180 F   0  0  0  0  0  0  0  0  0  0  0  0
  189.7780  176.3180  139.3260 C   0  0  0  0  0  2  0  0  0  0  0  0
  190.8440  177.0030  138.6080 N   0  0  0  0  0  2  0  0  0  0  0  0
  193.3490  177.1660  139.4550 F   0  0  0  0  0  0  0  0  0  0  0  0
  191.7380  175.9880  138.0690 C   0  0  2  0  0  3  0  0  0  0  0  0
  193.2120  176.3440  138.3490 C   0  0  1  0  0  3  0  0  0  0  0  0
  194.0120  175.9010  136.2960 C   0  0  0  0  0  2  0  0  0  0  0  0
  192.6920  175.2570  135.8310 C   0  0  0  0  0  2  0  0  0  0  0  0
  191.4820  175.8440  136.5630 C   0  0  0  0  0  2  0  0  0  0  0  0
  193.8030  176.9410  137.2230 O   0  0  0  0  0  0  0  0  0  0  0  0
  1 10  2  0  0  0  0
  2  6  1  0  0  0  0
  3  8  1  0  0  0  0
  4  9  1  6  0  0  0
  4 17  1  0  0  0  0
  6  5  2  0  0  0  0
  7 13  2  0  0  0  0
  8  2  2  0  0  0  0
  8  1  1  0  0  0  0
  9 16  1  0  0  0  0
 10  5  1  0  0  0  0
 11  3  2  0  0  0  0
 11 18  1  0  0  0  0
 12  1  1  0  0  0  0
 14  4  1  0  0  0  0
 14 15  1  0  0  0  0
 15 21  1  6  0  0  0
 15 11  1  0  0  0  0
 16  7  1  0  0  0  0
 17  7  1  6  0  0  0
 17  3  1  0  0  0  0
 18 12  2  0  0  0  0
 19 23  1  0  0  0  0
 19 25  1  0  0  0  0
 20 19  2  0  0  0  0
 21 23  2  0  0  0  0
 22 24  2  0  0  0  0
 22 20  1  0  0  0  0
 24 21  1  0  0  0  0
 26 16  1  0  0  0  0
 27 26  1  0  0  0  0
 29 30  1  0  0  0  0
 29 27  1  6  0  0  0
 30 28  1  1  0  0  0
 31 34  1  0  0  0  0
 32 31  1  0  0  0  0
 32 33  1  0  0  0  0
 33 29  1  0  0  0  0
 34 30  1  0  0  0  0
M  END
>  <MODEL>
2

>  <REMARK>
 VINA RESULT:      -9.8      1.847      2.213
  Name = 
  4 active torsions:
  status: ('A' for Active; 'I' for Inactive)
    1  A    between atoms: N_3  and  C_13
    2  A    between atoms: N_3  and  C_17
    3  A    between atoms: C_12  and  C_28
    4  A    between atoms: C_17  and  N_29
                            x       y       z     vdW  Elec       q    Type
                         _______ _______ _______ _____ _____    ______ ____

>  <TORSDO>
F 4

$$$$
=
 OpenBabel10262423503D

 34 39  0  0  1  0  0  0  0  0999 V2000
  184.1390  178.5980  144.8930 C   0  0  0  0  0  0  0  0  0  0  0  0
  184.2460  178.4040  142.4760 C   0  0  0  0  0  3  0  0  0  0  0  0
  186.1610  177.6920  143.8460 C   0  0  0  0  0  0  0  0  0  0  0  0
  188.1180  176.4060  142.8540 N   0  0  1  0  0  0  0  0  0  0  0  0
  182.2680  179.3160  143.5320 C   0  0  0  0  0  3  0  0  0  0  0  0
  182.9610  178.9440  142.3780 C   0  0  0  0  0  3  0  0  0  0  0  0
  187.4450  178.3620  141.7550 C   0  0  0  0  0  0  0  0  0  0  0  0
  184.8580  178.2340  143.7280 C   0  0  0  0  0  0  0  0  0  0  0  0
  189.0270  176.6810  141.7270 C   0  0  0  0  0  2  0  0  0  0  0  0
  182.8540  179.1400  144.7870 C   0  0  0  0  0  3  0  0  0  0  0  0
  186.7080  177.4850  145.1320 C   0  0  0  0  0  0  0  0  0  0  0  0
  184.6950  178.3930  146.1520 C   0  0  0  0  0  3  0  0  0  0  0  0
  186.8510  179.4400  141.4860 O   0  0  0  0  0  0  0  0  0  0  0  0
  188.8610  176.8620  144.0310 C   0  0  0  0  0  2  0  0  0  0  0  0
  188.0210  176.7600  145.2940 C   0  0  1  0  0  3  0  0  0  0  0  0
  188.6810  177.9890  141.2010 N   0  0  0  0  0  0  0  0  0  0  0  0
  186.9370  177.2690  142.6070 C   0  0  2  0  0  3  0  0  0  0  0  0
  185.9620  177.8270  146.2700 C   0  0  0  0  0  3  0  0  0  0  0  0
  190.8780  177.3050  147.7580 C   0  0  0  0  0  0  0  0  0  0  0  0
  190.2720  178.1610  148.6830 C   0  0  0  0  0  3  0  0  0  0  0  0
  188.8190  177.2380  146.4730 C   0  0  0  0  0  0  0  0  0  0  0  0
  188.9430  178.5550  148.5040 C   0  0  0  0  0  3  0  0  0  0  0  0
  190.1550  176.8430  146.6550 C   0  0  0  0  0  3  0  0  0  0  0  0
  188.2180  178.0940  147.4020 C   0  0  0  0  0  3  0  0  0  0  0  0
  192.1660  176.9240  147.9310 F   0  0  0  0  0  0  0  0  0  0  0  0
  189.4100  178.6880  140.1520 C   0  0  0  0  0  2  0  0  0  0  0  0
  188.6140  178.7410  138.9340 N   0  0  0  0  0  2  0  0  0  0  0  0
  187.5370  179.1020  136.5410 F   0  0  0  0  0  0  0  0  0  0  0  0
  189.4940  178.4320  137.8160 C   0  0  2  0  0  3  0  0  0  0  0  0
  188.7030  178.3570  136.4940 C   0  0  1  0  0  3  0  0  0  0  0  0
  189.6270  176.4630  135.7130 C   0  0  0  0  0  2  0  0  0  0  0  0
  190.7040  176.4360  136.8140 C   0  0  0  0  0  2  0  0  0  0  0  0
  190.2210  177.1120  138.1000 C   0  0  0  0  0  2  0  0  0  0  0  0
  188.4150  177.0230  136.1630 O   0  0  0  0  0  0  0  0  0  0  0  0
  1 12  1  0  0  0  0
  2  8  1  0  0  0  0
  3 11  2  0  0  0  0
  4  9  1  6  0  0  0
  4 14  1  0  0  0  0
  5 10  2  0  0  0  0
  6  2  2  0  0  0  0
  6  5  1  0  0  0  0
  8  3  1  0  0  0  0
  8  1  2  0  0  0  0
 10  1  1  0  0  0  0
 11 15  1  0  0  0  0
 11 18  1  0  0  0  0
 12 18  2  0  0  0  0
 13  7  2  0  0  0  0
 14 15  1  0  0  0  0
 15 21  1  1  0  0  0
 16  9  1  0  0  0  0
 16  7  1  0  0  0  0
 17  7  1  1  0  0  0
 17  4  1  0  0  0  0
 17  3  1  0  0  0  0
 19 25  1  0  0  0  0
 19 20  1  0  0  0  0
 21 23  1  0  0  0  0
 21 24  2  0  0  0  0
 22 20  2  0  0  0  0
 23 19  2  0  0  0  0
 24 22  1  0  0  0  0
 26 16  1  0  0  0  0
 27 26  1  0  0  0  0
 29 33  1  0  0  0  0
 29 27  1  1  0  0  0
 30 28  1  1  0  0  0
 30 29  1  0  0  0  0
 31 34  1  0  0  0  0
 31 32  1  0  0  0  0
 32 33  1  0  0  0  0
 34 30  1  0  0  0  0
M  END
>  <MODEL>
3

>  <REMARK>
 VINA RESULT:      -9.6      2.496      5.496
  Name = 
  4 active torsions:
  status: ('A' for Active; 'I' for Inactive)
    1  A    between atoms: N_3  and  C_13
    2  A    between atoms: N_3  and  C_17
    3  A    between atoms: C_12  and  C_28
    4  A    between atoms: C_17  and  N_29
                            x       y       z     vdW  Elec       q    Type
                         _______ _______ _______ _____ _____    ______ ____

>  <TORSDO>
F 4

$$$$
=
 OpenBabel10262423503D

 34 39  0  0  1  0  0  0  0  0999 V2000
  183.5270  178.7110  143.1440 C   0  0  0  0  0  0  0  0  0  0  0  0
  185.6890  178.8670  144.2360 C   0  0  0  0  0  3  0  0  0  0  0  0
  185.5670  178.6530  141.7880 C   0  0  0  0  0  0  0  0  0  0  0  0
  187.6130  178.9650  140.3100 N   0  0  1  0  0  0  0  0  0  0  0  0
  183.6600  178.9000  145.5550 C   0  0  0  0  0  3  0  0  0  0  0  0
  185.0530  178.9440  145.4770 C   0  0  0  0  0  3  0  0  0  0  0  0
  187.8150  177.5120  142.1370 C   0  0  0  0  0  0  0  0  0  0  0  0
  184.9400  178.7370  143.0540 C   0  0  0  0  0  0  0  0  0  0  0  0
  188.9440  178.3330  140.2980 C   0  0  0  0  0  2  0  0  0  0  0  0
  182.8980  178.7870  144.3900 C   0  0  0  0  0  3  0  0  0  0  0  0
  184.7670  178.5850  140.6250 C   0  0  0  0  0  0  0  0  0  0  0  0
  182.7530  178.6380  141.9880 C   0  0  0  0  0  3  0  0  0  0  0  0
  187.5320  176.8070  143.1410 O   0  0  0  0  0  0  0  0  0  0  0  0
  186.8550  178.2160  139.3050 C   0  0  0  0  0  2  0  0  0  0  0  0
  185.4010  178.6610  139.2590 C   0  0  1  0  0  3  0  0  0  0  0  0
  188.9490  177.3140  141.3320 N   0  0  0  0  0  0  0  0  0  0  0  0
  187.0840  178.7080  141.6720 C   0  0  2  0  0  3  0  0  0  0  0  0
  183.3690  178.5910  140.7410 C   0  0  0  0  0  3  0  0  0  0  0  0
  182.6560  177.4040  136.9310 C   0  0  0  0  0  0  0  0  0  0  0  0
  183.3250  176.3710  136.2660 C   0  0  0  0  0  3  0  0  0  0  0  0
  184.6620  177.8690  138.2190 C   0  0  0  0  0  0  0  0  0  0  0  0
  184.6570  176.0870  136.5750 C   0  0  0  0  0  3  0  0  0  0  0  0
  183.3220  178.1530  137.9060 C   0  0  0  0  0  3  0  0  0  0  0  0
  185.3250  176.8340  137.5500 C   0  0  0  0  0  3  0  0  0  0  0  0
  181.3660  177.6790  136.6300 F   0  0  0  0  0  0  0  0  0  0  0  0
  190.0370  176.3790  141.5790 C   0  0  0  0  0  2  0  0  0  0  0  0
  190.9740  176.9390  142.5430 N   0  0  0  0  0  2  0  0  0  0  0  0
  190.0580  178.5240  144.4580 F   0  0  0  0  0  0  0  0  0  0  0  0
  190.7410  176.2810  143.8210 C   0  0  2  0  0  3  0  0  0  0  0  0
  190.5260  177.3150  144.9440 C   0  0  1  0  0  3  0  0  0  0  0  0
  191.8670  176.3620  146.4750 C   0  0  0  0  0  2  0  0  0  0  0  0
  192.0550  175.0840  145.6350 C   0  0  0  0  0  2  0  0  0  0  0  0
  191.9300  175.3640  144.1350 C   0  0  0  0  0  2  0  0  0  0  0  0
  191.7110  177.5100  145.6740 O   0  0  0  0  0  0  0  0  0  0  0  0
  1 10  2  0  0  0  0
  2  6  1  0  0  0  0
  3  8  1  0  0  0  0
  4 14  1  6  0  0  0
  4 17  1  0  0  0  0
  6  5  2  0  0  0  0
  7 13  2  0  0  0  0
  8  1  1  0  0  0  0
  8  2  2  0  0  0  0
  9  4  1  0  0  0  0
  9 16  1  0  0  0  0
 10  5  1  0  0  0  0
 11 18  1  0  0  0  0
 11  3  2  0  0  0  0
 12  1  1  0  0  0  0
 15 21  1  6  0  0  0
 15 14  1  0  0  0  0
 15 11  1  0  0  0  0
 16 26  1  0  0  0  0
 16  7  1  0  0  0  0
 17  3  1  6  0  0  0
 17  7  1  0  0  0  0
 18 12  2  0  0  0  0
 19 23  1  0  0  0  0
 20 22  1  0  0  0  0
 20 19  2  0  0  0  0
 22 24  2  0  0  0  0
 23 21  2  0  0  0  0
 24 21  1  0  0  0  0
 25 19  1  0  0  0  0
 26 27  1  0  0  0  0
 29 27  1  6  0  0  0
 29 33  1  0  0  0  0
 29 30  1  0  0  0  0
 30 28  1  6  0  0  0
 30 34  1  0  0  0  0
 32 31  1  0  0  0  0
 33 32  1  0  0  0  0
 34 31  1  0  0  0  0
M  END
>  <MODEL>
4

>  <REMARK>
 VINA RESULT:      -9.4      2.916      5.534
  Name = 
  4 active torsions:
  status: ('A' for Active; 'I' for Inactive)
    1  A    between atoms: N_3  and  C_13
    2  A    between atoms: N_3  and  C_17
    3  A    between atoms: C_12  and  C_28
    4  A    between atoms: C_17  and  N_29
                            x       y       z     vdW  Elec       q    Type
                         _______ _______ _______ _____ _____    ______ ____

>  <TORSDO>
F 4

$$$$
=
 OpenBabel10262423503D

 34 39  0  0  1  0  0  0  0  0999 V2000
  184.2390  178.6510  141.8230 C   0  0  0  0  0  0  0  0  0  0  0  0
  185.7560  178.5330  143.7140 C   0  0  0  0  0  3  0  0  0  0  0  0
  186.6390  178.3590  141.4250 C   0  0  0  0  0  0  0  0  0  0  0  0
  189.1340  178.4360  140.9390 N   0  0  1  0  0  0  0  0  0  0  0  0
  183.3780  178.7980  144.0820 C   0  0  0  0  0  3  0  0  0  0  0  0
  184.6740  178.6740  144.5870 C   0  0  0  0  0  3  0  0  0  0  0  0
  188.4040  176.9520  142.5980 C   0  0  0  0  0  0  0  0  0  0  0  0
  185.5560  178.5060  142.3240 C   0  0  0  0  0  0  0  0  0  0  0  0
  190.2750  177.6470  141.4380 C   0  0  0  0  0  2  0  0  0  0  0  0
  183.1610  178.7900  142.7020 C   0  0  0  0  0  3  0  0  0  0  0  0
  186.3920  178.4000  140.0340 C   0  0  0  0  0  0  0  0  0  0  0  0
  184.0120  178.6820  140.4490 C   0  0  0  0  0  3  0  0  0  0  0  0
  187.6570  176.2760  143.3540 O   0  0  0  0  0  0  0  0  0  0  0  0
  188.7870  177.7940  139.6690 C   0  0  0  0  0  2  0  0  0  0  0  0
  187.5400  178.4120  139.0560 C   0  0  1  0  0  3  0  0  0  0  0  0
  189.7420  176.6250  142.3210 N   0  0  0  0  0  0  0  0  0  0  0  0
  188.0640  178.2310  141.9460 C   0  0  2  0  0  3  0  0  0  0  0  0
  185.0820  178.5740  139.5650 C   0  0  0  0  0  3  0  0  0  0  0  0
  186.7450  175.7170  136.4800 C   0  0  0  0  0  0  0  0  0  0  0  0
  186.6140  176.4880  135.3210 C   0  0  0  0  0  3  0  0  0  0  0  0
  187.2200  177.7260  137.7600 C   0  0  0  0  0  0  0  0  0  0  0  0
  186.7840  177.8740  135.3790 C   0  0  0  0  0  3  0  0  0  0  0  0
  187.0480  176.3330  137.6980 C   0  0  0  0  0  3  0  0  0  0  0  0
  187.0870  178.4910  136.5960 C   0  0  0  0  0  3  0  0  0  0  0  0
  186.5790  174.3750  136.4230 F   0  0  0  0  0  0  0  0  0  0  0  0
  190.5240  175.5630  142.9380 C   0  0  0  0  0  2  0  0  0  0  0  0
  191.5200  176.1280  143.8370 N   0  0  0  0  0  2  0  0  0  0  0  0
  190.2470  178.1340  145.0090 F   0  0  0  0  0  0  0  0  0  0  0  0
  191.0870  175.8610  145.2010 C   0  0  2  0  0  3  0  0  0  0  0  0
  190.6550  177.1620  145.9080 C   0  0  1  0  0  3  0  0  0  0  0  0
  191.7350  176.8090  147.8470 C   0  0  0  0  0  2  0  0  0  0  0  0
  192.0970  175.3590  147.4770 C   0  0  0  0  0  2  0  0  0  0  0  0
  192.2250  175.1720  145.9630 C   0  0  0  0  0  2  0  0  0  0  0  0
  191.6900  177.6540  146.7210 O   0  0  0  0  0  0  0  0  0  0  0  0
  1  8  1  0  0  0  0
  1 10  2  0  0  0  0
  2  6  1  0  0  0  0
  3  8  1  0  0  0  0
  4 14  1  6  0  0  0
  4  9  1  0  0  0  0
  4 17  1  0  0  0  0
  5  6  2  0  0  0  0
  7 13  2  0  0  0  0
  8  2  2  0  0  0  0
  9 16  1  0  0  0  0
 10  5  1  0  0  0  0
 11  3  2  0  0  0  0
 12  1  1  0  0  0  0
 15 21  1  6  0  0  0
 15 14  1  0  0  0  0
 15 11  1  0  0  0  0
 16  7  1  0  0  0  0
 16 26  1  0  0  0  0
 17  3  1  6  0  0  0
 17  7  1  0  0  0  0
 18 11  1  0  0  0  0
 18 12  2  0  0  0  0
 19 23  1  0  0  0  0
 20 22  1  0  0  0  0
 20 19  2  0  0  0  0
 22 24  2  0  0  0  0
 23 21  2  0  0  0  0
 24 21  1  0  0  0  0
 25 19  1  0  0  0  0
 26 27  1  0  0  0  0
 29 27  1  6  0  0  0
 29 30  1  0  0  0  0
 29 33  1  0  0  0  0
 30 28  1  6  0  0  0
 30 34  1  0  0  0  0
 32 31  1  0  0  0  0
 33 32  1  0  0  0  0
 34 31  1  0  0  0  0
M  END
>  <MODEL>
5

>  <REMARK>
 VINA RESULT:      -9.1      2.773      6.619
  Name = 
  4 active torsions:
  status: ('A' for Active; 'I' for Inactive)
    1  A    between atoms: N_3  and  C_13
    2  A    between atoms: N_3  and  C_17
    3  A    between atoms: C_12  and  C_28
    4  A    between atoms: C_17  and  N_29
                            x       y       z     vdW  Elec       q    Type
                         _______ _______ _______ _____ _____    ______ ____

>  <TORSDO>
F 4

$$$$
=
 OpenBabel10262423503D

 34 39  0  0  1  0  0  0  0  0999 V2000
  184.3860  178.6020  144.5660 C   0  0  0  0  0  0  0  0  0  0  0  0
  184.6420  178.1970  142.1870 C   0  0  0  0  0  3  0  0  0  0  0  0
  186.4310  177.5330  143.7400 C   0  0  0  0  0  0  0  0  0  0  0  0
  188.3890  176.0920  142.9950 N   0  0  1  0  0  0  0  0  0  0  0  0
  182.6420  179.2720  143.0250 C   0  0  0  0  0  3  0  0  0  0  0  0
  183.3920  178.7760  141.9570 C   0  0  0  0  0  3  0  0  0  0  0  0
  187.8770  177.9710  141.6930 C   0  0  0  0  0  0  0  0  0  0  0  0
  185.1640  178.1120  143.4890 C   0  0  0  0  0  0  0  0  0  0  0  0
  189.3820  176.2340  141.9150 C   0  0  0  0  0  2  0  0  0  0  0  0
  183.1370  179.1820  144.3280 C   0  0  0  0  0  3  0  0  0  0  0  0
  186.8840  177.4170  145.0740 C   0  0  0  0  0  0  0  0  0  0  0  0
  184.8500  178.4850  145.8740 C   0  0  0  0  0  3  0  0  0  0  0  0
  187.3490  179.0440  141.2960 O   0  0  0  0  0  0  0  0  0  0  0  0
  189.0740  176.6190  144.1780 C   0  0  0  0  0  2  0  0  0  0  0  0
  188.1490  176.6580  145.3850 C   0  0  1  0  0  3  0  0  0  0  0  0
  189.1290  177.5050  141.2590 N   0  0  0  0  0  0  0  0  0  0  0  0
  187.2660  176.9760  142.5960 C   0  0  2  0  0  3  0  0  0  0  0  0
  186.0800  177.8830  146.1250 C   0  0  0  0  0  3  0  0  0  0  0  0
  190.9160  177.4380  147.8890 C   0  0  0  0  0  0  0  0  0  0  0  0
  190.2310  178.2530  148.7960 C   0  0  0  0  0  3  0  0  0  0  0  0
  188.8890  177.2040  146.5720 C   0  0  0  0  0  0  0  0  0  0  0  0
  188.8790  178.5430  148.5930 C   0  0  0  0  0  3  0  0  0  0  0  0
  190.2480  176.9140  146.7780 C   0  0  0  0  0  3  0  0  0  0  0  0
  188.2100  178.0190  147.4840 C   0  0  0  0  0  3  0  0  0  0  0  0
  192.2260  177.1580  148.0850 F   0  0  0  0  0  0  0  0  0  0  0  0
  189.9550  178.0820  140.2080 C   0  0  0  0  0  2  0  0  0  0  0  0
  191.3400  177.6630  140.3690 N   0  0  0  0  0  2  0  0  0  0  0  0
  193.8730  176.9080  140.1910 F   0  0  0  0  0  0  0  0  0  0  0  0
  191.5920  176.5920  139.4160 C   0  0  2  0  0  3  0  0  0  0  0  0
  193.1020  176.4400  139.1410 C   0  0  1  0  0  3  0  0  0  0  0  0
  192.9730  176.2810  136.9030 C   0  0  0  0  0  2  0  0  0  0  0  0
  191.4370  176.1640  136.9170 C   0  0  0  0  0  2  0  0  0  0  0  0
  190.8220  176.8810  138.1220 C   0  0  0  0  0  2  0  0  0  0  0  0
  193.4580  177.0910  137.9480 O   0  0  0  0  0  0  0  0  0  0  0  0
  1 12  1  0  0  0  0
  2  8  1  0  0  0  0
  3 11  2  0  0  0  0
  4  9  1  6  0  0  0
  4 14  1  0  0  0  0
  5 10  2  0  0  0  0
  6  2  2  0  0  0  0
  6  5  1  0  0  0  0
  8  3  1  0  0  0  0
  8  1  2  0  0  0  0
 10  1  1  0  0  0  0
 11 15  1  0  0  0  0
 11 18  1  0  0  0  0
 12 18  2  0  0  0  0
 13  7  2  0  0  0  0
 14 15  1  0  0  0  0
 15 21  1  1  0  0  0
 16  7  1  0  0  0  0
 16  9  1  0  0  0  0
 17  7  1  1  0  0  0
 17  4  1  0  0  0  0
 17  3  1  0  0  0  0
 19 25  1  0  0  0  0
 19 20  1  0  0  0  0
 21 23  1  0  0  0  0
 21 24  2  0  0  0  0
 22 20  2  0  0  0  0
 23 19  2  0  0  0  0
 24 22  1  0  0  0  0
 26 27  1  0  0  0  0
 26 16  1  0  0  0  0
 29 27  1  1  0  0  0
 30 29  1  0  0  0  0
 30 28  1  1  0  0  0
 31 32  1  0  0  0  0
 31 34  1  0  0  0  0
 32 33  1  0  0  0  0
 33 29  1  0  0  0  0
 34 30  1  0  0  0  0
M  END
>  <MODEL>
6

>  <REMARK>
 VINA RESULT:      -9.1      3.049      5.829
  Name = 
  4 active torsions:
  status: ('A' for Active; 'I' for Inactive)
    1  A    between atoms: N_3  and  C_13
    2  A    between atoms: N_3  and  C_17
    3  A    between atoms: C_12  and  C_28
    4  A    between atoms: C_17  and  N_29
                            x       y       z     vdW  Elec       q    Type
                         _______ _______ _______ _____ _____    ______ ____

>  <TORSDO>
F 4

$$$$
=
 OpenBabel10262423503D

 34 39  0  0  1  0  0  0  0  0999 V2000
  183.6080  178.7070  142.3810 C   0  0  0  0  0  0  0  0  0  0  0  0
  185.5070  178.8320  143.8870 C   0  0  0  0  0  3  0  0  0  0  0  0
  185.8790  178.5630  141.4700 C   0  0  0  0  0  0  0  0  0  0  0  0
  188.1900  178.7860  140.4340 N   0  0  1  0  0  0  0  0  0  0  0  0
  183.2540  178.9500  144.7640 C   0  0  0  0  0  3  0  0  0  0  0  0
  184.6350  178.9560  144.9710 C   0  0  0  0  0  3  0  0  0  0  0  0
  187.9720  177.3720  142.2900 C   0  0  0  0  0  0  0  0  0  0  0  0
  185.0100  178.6940  142.5800 C   0  0  0  0  0  0  0  0  0  0  0  0
  189.4760  178.1180  140.7050 C   0  0  0  0  0  2  0  0  0  0  0  0
  182.7410  178.8290  143.4710 C   0  0  0  0  0  3  0  0  0  0  0  0
  185.3290  178.4880  140.1700 C   0  0  0  0  0  0  0  0  0  0  0  0
  183.0830  178.6260  141.0930 C   0  0  0  0  0  3  0  0  0  0  0  0
  187.4700  176.6990  143.2280 O   0  0  0  0  0  0  0  0  0  0  0  0
  187.6290  178.0330  139.3090 C   0  0  0  0  0  2  0  0  0  0  0  0
  186.2300  178.5150  138.9600 C   0  0  1  0  0  3  0  0  0  0  0  0
  189.2400  177.1250  141.7370 N   0  0  0  0  0  0  0  0  0  0  0  0
  187.3880  178.5750  141.6640 C   0  0  2  0  0  3  0  0  0  0  0  0
  183.9380  178.5340  139.9980 C   0  0  0  0  0  3  0  0  0  0  0  0
  186.0150  176.5230  135.7170 C   0  0  0  0  0  0  0  0  0  0  0  0
  184.6500  176.2260  135.6780 C   0  0  0  0  0  3  0  0  0  0  0  0
  185.6930  177.7180  137.8060 C   0  0  0  0  0  0  0  0  0  0  0  0
  183.8070  176.6720  136.6990 C   0  0  0  0  0  3  0  0  0  0  0  0
  186.5380  177.2670  136.7780 C   0  0  0  0  0  3  0  0  0  0  0  0
  184.3280  177.4170  137.7610 C   0  0  0  0  0  3  0  0  0  0  0  0
  186.8310  176.0900  134.7280 F   0  0  0  0  0  0  0  0  0  0  0  0
  190.2260  176.1680  142.2170 C   0  0  0  0  0  2  0  0  0  0  0  0
  191.0910  176.7910  143.2090 N   0  0  0  0  0  2  0  0  0  0  0  0
  189.8990  178.4340  144.9110 F   0  0  0  0  0  0  0  0  0  0  0  0
  190.7750  176.2040  144.5040 C   0  0  2  0  0  3  0  0  0  0  0  0
  190.3890  177.2930  145.5250 C   0  0  1  0  0  3  0  0  0  0  0  0
  191.6300  176.5340  147.2380 C   0  0  0  0  0  2  0  0  0  0  0  0
  191.9760  175.2200  146.5140 C   0  0  0  0  0  2  0  0  0  0  0  0
  191.9800  175.3910  144.9930 C   0  0  0  0  0  2  0  0  0  0  0  0
  191.4830  177.6150  146.3460 O   0  0  0  0  0  0  0  0  0  0  0  0
  1  8  1  0  0  0  0
  1 10  2  0  0  0  0
  2  6  1  0  0  0  0
  3  8  1  0  0  0  0
  4 14  1  6  0  0  0
  4  9  1  0  0  0  0
  4 17  1  0  0  0  0
  5  6  2  0  0  0  0
  7 13  2  0  0  0  0
  8  2  2  0  0  0  0
  9 16  1  0  0  0  0
 10  5  1  0  0  0  0
 11  3  2  0  0  0  0
 12  1  1  0  0  0  0
 15 21  1  6  0  0  0
 15 14  1  0  0  0  0
 15 11  1  0  0  0  0
 16 26  1  0  0  0  0
 16  7  1  0  0  0  0
 17  3  1  6  0  0  0
 17  7  1  0  0  0  0
 18 11  1  0  0  0  0
 18 12  2  0  0  0  0
 19 23  1  0  0  0  0
 20 19  2  0  0  0  0
 20 22  1  0  0  0  0
 22 24  2  0  0  0  0
 23 21  2  0  0  0  0
 24 21  1  0  0  0  0
 25 19  1  0  0  0  0
 26 27  1  0  0  0  0
 29 27  1  6  0  0  0
 29 33  1  0  0  0  0
 29 30  1  0  0  0  0
 30 28  1  6  0  0  0
 30 34  1  0  0  0  0
 32 31  1  0  0  0  0
 33 32  1  0  0  0  0
 34 31  1  0  0  0  0
M  END
>  <MODEL>
7

>  <REMARK>
 VINA RESULT:      -8.7      2.767      6.233
  Name = 
  4 active torsions:
  status: ('A' for Active; 'I' for Inactive)
    1  A    between atoms: N_3  and  C_13
    2  A    between atoms: N_3  and  C_17
    3  A    between atoms: C_12  and  C_28
    4  A    between atoms: C_17  and  N_29
                            x       y       z     vdW  Elec       q    Type
                         _______ _______ _______ _____ _____    ______ ____

>  <TORSDO>
F 4

$$$$
=
 OpenBabel10262423503D

 34 39  0  0  1  0  0  0  0  0999 V2000
  185.9620  178.3260  138.8920 C   0  0  0  0  0  0  0  0  0  0  0  0
  186.4220  178.8100  141.2250 C   0  0  0  0  0  3  0  0  0  0  0  0
  188.2130  177.9410  139.7800 C   0  0  0  0  0  0  0  0  0  0  0  0
  190.6400  177.8780  140.5390 N   0  0  1  0  0  0  0  0  0  0  0  0
  184.2010  179.1610  140.3290 C   0  0  0  0  0  3  0  0  0  0  0  0
  185.0950  179.2080  141.4010 C   0  0  0  0  0  3  0  0  0  0  0  0
  189.0330  176.9770  141.9880 C   0  0  0  0  0  0  0  0  0  0  0  0
  186.8730  178.3530  139.9760 C   0  0  0  0  0  0  0  0  0  0  0  0
  191.3050  177.2900  141.7160 C   0  0  0  0  0  2  0  0  0  0  0  0
  184.6350  178.7240  139.0750 C   0  0  0  0  0  3  0  0  0  0  0  0
  188.6320  177.5460  138.4900 C   0  0  0  0  0  0  0  0  0  0  0  0
  186.3900  177.9290  137.6270 C   0  0  0  0  0  3  0  0  0  0  0  0
  187.9370  176.5640  142.4500 O   0  0  0  0  0  0  0  0  0  0  0  0
  190.8190  176.8720  139.4900 C   0  0  0  0  0  2  0  0  0  0  0  0
  190.0880  177.2620  138.2150 C   0  0  1  0  0  3  0  0  0  0  0  0
  190.2900  176.5890  142.4820 N   0  0  0  0  0  0  0  0  0  0  0  0
  189.2120  177.9890  140.9280 C   0  0  2  0  0  3  0  0  0  0  0  0
  187.7170  177.5580  137.4270 C   0  0  0  0  0  3  0  0  0  0  0  0
  190.0090  173.9350  136.3550 C   0  0  0  0  0  0  0  0  0  0  0  0
  190.7010  174.2680  135.1860 C   0  0  0  0  0  3  0  0  0  0  0  0
  190.2960  176.2050  137.1690 C   0  0  0  0  0  0  0  0  0  0  0  0
  191.1900  175.5640  135.0080 C   0  0  0  0  0  3  0  0  0  0  0  0
  189.8060  174.9000  137.3450 C   0  0  0  0  0  3  0  0  0  0  0  0
  190.9880  176.5310  135.9970 C   0  0  0  0  0  3  0  0  0  0  0  0
  189.5350  172.6790  136.5270 F   0  0  0  0  0  0  0  0  0  0  0  0
  190.5460  175.7760  143.6620 C   0  0  0  0  0  2  0  0  0  0  0  0
  191.7070  176.2820  144.3800 N   0  0  0  0  0  2  0  0  0  0  0  0
  192.7090  175.7780  146.7810 F   0  0  0  0  0  0  0  0  0  0  0  0
  191.2260  177.1580  145.4380 C   0  0  2  0  0  3  0  0  0  0  0  0
  191.5970  176.6030  146.8280 C   0  0  1  0  0  3  0  0  0  0  0  0
  189.5980  176.9140  147.8060 C   0  0  0  0  0  2  0  0  0  0  0  0
  189.0520  177.7310  146.6210 C   0  0  0  0  0  2  0  0  0  0  0  0
  189.7070  177.3250  145.2980 C   0  0  0  0  0  2  0  0  0  0  0  0
  190.5090  175.9200  147.3980 O   0  0  0  0  0  0  0  0  0  0  0  0
  1 10  2  0  0  0  0
  1  8  1  0  0  0  0
  2  6  1  0  0  0  0
  3  8  1  0  0  0  0
  4 14  1  6  0  0  0
  4 17  1  0  0  0  0
  4  9  1  0  0  0  0
  5  6  2  0  0  0  0
  7 13  2  0  0  0  0
  7 16  1  0  0  0  0
  8  2  2  0  0  0  0
  9 16  1  0  0  0  0
 10  5  1  0  0  0  0
 11  3  2  0  0  0  0
 12  1  1  0  0  0  0
 15 21  1  6  0  0  0
 15 11  1  0  0  0  0
 15 14  1  0  0  0  0
 16 26  1  0  0  0  0
 17  3  1  6  0  0  0
 17  7  1  0  0  0  0
 18 12  2  0  0  0  0
 18 11  1  0  0  0  0
 19 25  1  0  0  0  0
 19 23  1  0  0  0  0
 20 19  2  0  0  0  0
 21 23  2  0  0  0  0
 22 20  1  0  0  0  0
 22 24  2  0  0  0  0
 24 21  1  0  0  0  0
 26 27  1  0  0  0  0
 29 27  1  6  0  0  0
 29 30  1  0  0  0  0
 30 28  1  6  0  0  0
 30 34  1  0  0  0  0
 32 31  1  0  0  0  0
 33 29  1  0  0  0  0
 33 32  1  0  0  0  0
 34 31  1  0  0  0  0
M  END
>  <MODEL>
8

>  <REMARK>
 VINA RESULT:      -8.3      3.234      8.027
  Name = 
  4 active torsions:
  status: ('A' for Active; 'I' for Inactive)
    1  A    between atoms: N_3  and  C_13
    2  A    between atoms: N_3  and  C_17
    3  A    between atoms: C_12  and  C_28
    4  A    between atoms: C_17  and  N_29
                            x       y       z     vdW  Elec       q    Type
                         _______ _______ _______ _____ _____    ______ ____

>  <TORSDO>
F 4

$$$$
=
 OpenBabel10262423503D

 34 39  0  0  1  0  0  0  0  0999 V2000
  183.1410  178.5460  140.4680 C   0  0  0  0  0  0  0  0  0  0  0  0
  184.1540  178.9710  142.6320 C   0  0  0  0  0  3  0  0  0  0  0  0
  185.5830  178.5600  140.6720 C   0  0  0  0  0  0  0  0  0  0  0  0
  188.0980  178.9320  140.7410 N   0  0  1  0  0  0  0  0  0  0  0  0
  181.7440  178.9300  142.4090 C   0  0  0  0  0  3  0  0  0  0  0  0
  182.8840  179.0880  143.2010 C   0  0  0  0  0  3  0  0  0  0  0  0
  187.1500  177.6470  142.4560 C   0  0  0  0  0  0  0  0  0  0  0  0
  184.3030  178.6870  141.2640 C   0  0  0  0  0  0  0  0  0  0  0  0
  189.1610  178.4180  141.6230 C   0  0  0  0  0  2  0  0  0  0  0  0
  181.8730  178.6630  141.0440 C   0  0  0  0  0  3  0  0  0  0  0  0
  185.6790  178.3340  139.2800 C   0  0  0  0  0  0  0  0  0  0  0  0
  183.2540  178.3170  139.0990 C   0  0  0  0  0  3  0  0  0  0  0  0
  186.3190  176.9990  143.1460 O   0  0  0  0  0  0  0  0  0  0  0  0
  188.1420  178.0450  139.5760 C   0  0  0  0  0  2  0  0  0  0  0  0
  187.0230  178.3590  138.5960 C   0  0  1  0  0  3  0  0  0  0  0  0
  188.5420  177.4850  142.5490 N   0  0  0  0  0  0  0  0  0  0  0  0
  186.8430  178.7360  141.5080 C   0  0  2  0  0  3  0  0  0  0  0  0
  184.5120  178.2290  138.5100 C   0  0  0  0  0  3  0  0  0  0  0  0
  187.2860  175.1940  136.4880 C   0  0  0  0  0  0  0  0  0  0  0  0
  187.2450  175.7300  135.1970 C   0  0  0  0  0  3  0  0  0  0  0  0
  187.1050  177.4290  137.4200 C   0  0  0  0  0  0  0  0  0  0  0  0
  187.1340  177.1110  135.0160 C   0  0  0  0  0  3  0  0  0  0  0  0
  187.2160  176.0400  137.5980 C   0  0  0  0  0  3  0  0  0  0  0  0
  187.0640  177.9590  136.1260 C   0  0  0  0  0  3  0  0  0  0  0  0
  187.3930  173.8560  136.6620 F   0  0  0  0  0  0  0  0  0  0  0  0
  189.2600  176.6690  143.5170 C   0  0  0  0  0  2  0  0  0  0  0  0
  190.4790  177.3450  143.9410 N   0  0  0  0  0  2  0  0  0  0  0  0
  192.1680  176.5210  145.8080 F   0  0  0  0  0  0  0  0  0  0  0  0
  190.2410  177.8980  145.2660 C   0  0  2  0  0  3  0  0  0  0  0  0
  191.0440  177.1330  146.3370 C   0  0  1  0  0  3  0  0  0  0  0  0
  189.3890  176.9190  147.8420 C   0  0  0  0  0  2  0  0  0  0  0  0
  188.4530  177.8670  147.0700 C   0  0  0  0  0  2  0  0  0  0  0  0
  188.7370  177.8490  145.5660 C   0  0  0  0  0  2  0  0  0  0  0  0
  190.2340  176.1860  146.9860 O   0  0  0  0  0  0  0  0  0  0  0  0
  1 10  2  0  0  0  0
  1  8  1  0  0  0  0
  2  6  1  0  0  0  0
  3  8  1  0  0  0  0
  4 14  1  6  0  0  0
  4 17  1  0  0  0  0
  4  9  1  0  0  0  0
  5  6  2  0  0  0  0
  7 16  1  0  0  0  0
  7 13  2  0  0  0  0
  8  2  2  0  0  0  0
  9 16  1  0  0  0  0
 10  5  1  0  0  0  0
 11  3  2  0  0  0  0
 12  1  1  0  0  0  0
 15 21  1  6  0  0  0
 15 11  1  0  0  0  0
 15 14  1  0  0  0  0
 16 26  1  0  0  0  0
 17  3  1  6  0  0  0
 17  7  1  0  0  0  0
 18 12  2  0  0  0  0
 18 11  1  0  0  0  0
 19 25  1  0  0  0  0
 19 23  1  0  0  0  0
 20 19  2  0  0  0  0
 21 23  2  0  0  0  0
 22 20  1  0  0  0  0
 22 24  2  0  0  0  0
 24 21  1  0  0  0  0
 26 27  1  0  0  0  0
 29 27  1  6  0  0  0
 29 33  1  0  0  0  0
 29 30  1  0  0  0  0
 30 28  1  6  0  0  0
 30 34  1  0  0  0  0
 32 31  1  0  0  0  0
 33 32  1  0  0  0  0
 34 31  1  0  0  0  0
M  END
>  <MODEL>
9

>  <REMARK>
 VINA RESULT:      -8.2      2.867      7.142
  Name = 
  4 active torsions:
  status: ('A' for Active; 'I' for Inactive)
    1  A    between atoms: N_3  and  C_13
    2  A    between atoms: N_3  and  C_17
    3  A    between atoms: C_12  and  C_28
    4  A    between atoms: C_17  and  N_29
                            x       y       z     vdW  Elec       q    Type
                         _______ _______ _______ _____ _____    ______ ____

>  <TORSDO>
F 4

$$$$
