=
 OpenBabel10272400373D

 31 33  0  0  1  0  0  0  0  0999 V2000
  189.5500  177.4460  138.3280 C   0  0  0  0  0  0  0  0  0  0  0  0
  186.0500  178.4640  139.1310 O   0  0  0  0  0  0  0  0  0  0  0  0
  187.4070  178.1570  139.2520 C   0  0  1  0  0  3  0  0  0  0  0  0
  190.1780  177.5340  139.5060 C   0  0  0  0  0  3  0  0  0  0  0  0
  185.9140  178.9970  141.4480 C   0  0  0  0  0  0  0  0  0  0  0  0
  190.4500  176.9530  136.9110 Cl  0  0  0  0  0  0  0  0  0  0  0  0
  187.3130  178.6790  141.5830 N   0  0  0  0  0  0  0  0  0  0  0  0
  185.3120  178.9010  140.2430 C   0  0  0  0  0  0  0  0  0  0  0  0
  188.1160  177.7630  138.1970 C   0  0  0  0  0  3  0  0  0  0  0  0
  188.0360  178.2860  140.5780 C   0  0  0  0  0  0  0  0  0  0  0  0
  189.4850  177.9460  140.7810 C   0  0  0  0  0  3  0  0  0  0  0  0
  183.8590  179.2240  140.0690 C   0  0  1  0  0  3  0  0  0  0  0  0
  181.8180  180.0370  138.2920 S   0  0  0  0  0  0  0  0  0  0  0  0
  183.5940  179.9460  138.7400 C   0  0  0  0  0  2  0  0  0  0  0  0
  181.1910  179.7530  139.9760 C   0  0  0  0  0  2  0  0  0  0  0  0
  181.2690  178.2380  141.9490 C   0  0  0  0  0  1  0  0  0  0  0  0
  183.0220  178.0260  140.2580 N   0  0  0  0  0  0  0  0  0  0  0  0
  181.6040  178.3640  140.4770 C   0  0  2  0  0  3  0  0  0  0  0  0
  183.0960  177.2410  139.1500 O   0  0  0  0  0  0  0  0  0  0  0  0
  182.4050  176.0750  139.4890 C   0  0  0  0  0  1  0  0  0  0  0  0
  185.1710  179.4620  142.6610 C   0  0  0  0  0  2  0  0  0  0  0  0
  184.9560  178.3440  143.5670 N   0  0  0  0  0  0  0  0  0  0  0  0
  183.8260  178.8920  145.6500 C   0  0  0  0  0  1  0  0  0  0  0  0
  183.6530  178.5360  144.1850 C   0  0  0  0  0  2  0  0  0  0  0  0
  185.9460  178.4710  144.6250 C   0  0  0  0  0  2  0  0  0  0  0  0
  186.7930  177.2160  144.6730 C   0  0  0  0  0  2  0  0  0  0  0  0
  188.0640  177.4960  145.4440 C   0  0  0  0  0  2  0  0  0  0  0  0
  187.7770  177.4300  146.9310 C   0  0  0  0  0  2  0  0  0  0  0  0
  189.0480  177.5160  147.6980 C   0  0  0  0  0  0  0  0  0  0  0  0
  189.1550  178.3420  148.6420 O   0  0  0  0  0  1  0  0  0  0  0  0
  190.1130  176.6820  147.3830 O   0  0  0  0  0  0  0  0  0  0  0  0
  1  4  1  0  0  0  0
  2  3  1  0  0  0  0
  2  8  1  0  0  0  0
  3  9  1  6  0  0  0
  3 10  1  0  0  0  0
  4 11  2  0  0  0  0
  5  7  1  0  0  0  0
  5 21  1  0  0  0  0
  6  1  1  0  0  0  0
  8  5  2  0  0  0  0
  9  1  2  0  0  0  0
 10 11  1  0  0  0  0
 10  7  2  0  0  0  0
 12  8  1  6  0  0  0
 12 17  1  0  0  0  0
 13 14  1  0  0  0  0
 13 15  1  0  0  0  0
 14 12  1  0  0  0  0
 15 18  1  0  0  0  0
 17 18  1  0  0  0  0
 18 16  1  1  0  0  0
 19 20  1  0  0  0  0
 19 17  1  0  0  0  0
 21 22  1  0  0  0  0
 22 24  1  0  0  0  0
 22 25  1  0  0  0  0
 24 23  1  0  0  0  0
 25 26  1  0  0  0  0
 26 27  1  0  0  0  0
 27 28  1  0  0  0  0
 28 29  1  0  0  0  0
 29 30  1  0  0  0  0
 31 29  2  0  0  0  0
M  END
>  <MODEL>
1

>  <REMARK>
 VINA RESULT:      -7.0      0.000      0.000
  Name = 
  10 active torsions:
  status: ('A' for Active; 'I' for Inactive)
    1  A    between atoms: C_1  and  C_24
    2  A    between atoms: C_5  and  C_21
    3  A    between atoms: C_6  and  C_7
    4  A    between atoms: C_6  and  C_19
    5  A    between atoms: C_7  and  N_9
    6  A    between atoms: N_9  and  C_22
    7  A    between atoms: N_9  and  C_23
    8  A    between atoms: C_15  and  C_23
    9  A    between atoms: O_17  and  N_30
   10  A    between atoms: C_19  and  C_24
                            x       y       z     vdW  Elec       q    Type
                         _______ _______ _______ _____ _____    ______ ____

>  <TORSDO>
F 10

$$$$
=
 OpenBabel10272400373D

 31 33  0  0  1  0  0  0  0  0999 V2000
  188.4930  176.7430  136.1520 C   0  0  0  0  0  0  0  0  0  0  0  0
  189.4530  176.9130  139.7550 O   0  0  0  0  0  0  0  0  0  0  0  0
  188.7730  177.0990  138.5500 C   0  0  0  0  0  0  0  0  0  0  0  0
  187.3770  177.4790  136.0930 C   0  0  0  0  0  3  0  0  0  0  0  0
  187.8460  178.2280  140.9210 C   0  0  0  0  0  0  0  0  0  0  0  0
  189.0990  175.9850  134.6960 Cl  0  0  0  0  0  0  0  0  0  0  0  0
  187.1390  178.4270  139.6820 N   0  0  0  0  0  0  0  0  0  0  0  0
  188.9680  177.4760  140.9460 C   0  0  0  0  0  0  0  0  0  0  0  0
  189.2170  176.5500  137.4210 C   0  0  0  0  0  3  0  0  0  0  0  0
  187.5450  177.9130  138.5590 C   0  0  0  0  0  0  0  0  0  0  0  0
  186.7810  178.1720  137.2920 C   0  0  0  0  0  2  0  0  0  0  0  0
  189.7270  177.2500  142.2190 C   0  0  1  0  0  3  0  0  0  0  0  0
  190.9160  175.3640  143.9540 S   0  0  0  0  0  0  0  0  0  0  0  0
  189.7130  175.7710  142.6310 C   0  0  0  0  0  2  0  0  0  0  0  0
  191.1090  177.0710  144.5560 C   0  0  0  0  0  2  0  0  0  0  0  0
  191.6520  179.4100  143.9040 C   0  0  0  0  0  1  0  0  0  0  0  0
  191.0830  177.8200  142.1360 N   0  0  0  0  0  0  0  0  0  0  0  0
  191.7100  177.9620  143.4630 C   0  0  2  0  0  3  0  0  0  0  0  0
  191.8730  177.0040  141.3890 O   0  0  0  0  0  0  0  0  0  0  0  0
  192.7350  177.8660  140.7050 C   0  0  0  0  0  1  0  0  0  0  0  0
  187.2870  178.8440  142.1640 C   0  0  0  0  0  2  0  0  0  0  0  0
  186.1600  178.0580  142.6420 N   0  0  0  0  0  0  0  0  0  0  0  0
  183.9470  178.6100  141.7980 C   0  0  0  0  0  1  0  0  0  0  0  0
  185.0350  178.9670  142.7930 C   0  0  0  0  0  2  0  0  0  0  0  0
  186.5100  177.5970  143.9750 C   0  0  0  0  0  2  0  0  0  0  0  0
  185.7210  178.3810  145.0020 C   0  0  0  0  0  2  0  0  0  0  0  0
  186.3840  178.2480  146.3560 C   0  0  0  0  0  2  0  0  0  0  0  0
  187.7840  177.6970  146.1800 C   0  0  0  0  0  2  0  0  0  0  0  0
  188.3610  177.3390  147.5030 C   0  0  0  0  0  0  0  0  0  0  0  0
  187.7970  177.7290  148.5590 O   0  0  0  0  0  1  0  0  0  0  0  0
  189.5120  176.5670  147.5780 O   0  0  0  0  0  0  0  0  0  0  0  0
  1  9  1  0  0  0  0
  2  8  1  0  0  0  0
  3 10  1  0  0  0  0
  3  2  1  0  0  0  0
  4  1  2  0  0  0  0
  4 11  1  0  0  0  0
  5  8  2  0  0  0  0
  5 21  1  0  0  0  0
  6  1  1  0  0  0  0
  7  5  1  0  0  0  0
  9  3  2  0  0  0  0
 10  7  2  0  0  0  0
 11 10  1  0  0  0  0
 12  8  1  6  0  0  0
 12 14  1  0  0  0  0
 13 15  1  0  0  0  0
 14 13  1  0  0  0  0
 17 12  1  0  0  0  0
 17 18  1  0  0  0  0
 18 16  1  1  0  0  0
 18 15  1  0  0  0  0
 19 17  1  0  0  0  0
 20 19  1  0  0  0  0
 21 22  1  0  0  0  0
 22 24  1  0  0  0  0
 22 25  1  0  0  0  0
 23 24  1  0  0  0  0
 25 26  1  0  0  0  0
 26 27  1  0  0  0  0
 28 27  1  0  0  0  0
 28 29  1  0  0  0  0
 29 31  2  0  0  0  0
 29 30  1  0  0  0  0
M  END
>  <MODEL>
2

>  <REMARK>
 VINA RESULT:      -6.8      3.148      5.690
  Name = 
  10 active torsions:
  status: ('A' for Active; 'I' for Inactive)
    1  A    between atoms: C_1  and  C_24
    2  A    between atoms: C_5  and  C_21
    3  A    between atoms: C_6  and  C_7
    4  A    between atoms: C_6  and  C_19
    5  A    between atoms: C_7  and  N_9
    6  A    between atoms: N_9  and  C_22
    7  A    between atoms: N_9  and  C_23
    8  A    between atoms: C_15  and  C_23
    9  A    between atoms: O_17  and  N_30
   10  A    between atoms: C_19  and  C_24
                            x       y       z     vdW  Elec       q    Type
                         _______ _______ _______ _____ _____    ______ ____

>  <TORSDO>
F 10

$$$$
=
 OpenBabel10272400373D

 31 33  0  0  1  0  0  0  0  0999 V2000
  190.5120  176.3940  143.5450 C   0  0  0  0  0  0  0  0  0  0  0  0
  188.9790  177.2040  140.2410 O   0  0  0  0  0  0  0  0  0  0  0  0
  189.1880  177.0840  141.6160 C   0  0  1  0  0  3  0  0  0  0  0  0
  189.6100  176.8440  144.4260 C   0  0  0  0  0  3  0  0  0  0  0  0
  186.8910  178.2900  140.6040 C   0  0  0  0  0  0  0  0  0  0  0  0
  191.9870  175.6560  144.1300 Cl  0  0  0  0  0  0  0  0  0  0  0  0
  187.0970  178.1680  142.0240 N   0  0  0  0  0  0  0  0  0  0  0  0
  187.8230  177.8280  139.7430 C   0  0  0  0  0  0  0  0  0  0  0  0
  190.2910  176.5130  142.0930 C   0  0  0  0  0  3  0  0  0  0  0  0
  188.1580  177.6120  142.5280 C   0  0  0  0  0  0  0  0  0  0  0  0
  188.3100  177.4900  144.0170 C   0  0  0  0  0  3  0  0  0  0  0  0
  187.6390  177.9390  138.2600 C   0  0  1  0  0  3  0  0  0  0  0  0
  188.8860  178.0030  135.7250 S   0  0  0  0  0  0  0  0  0  0  0  0
  188.9680  178.2230  137.5440 C   0  0  0  0  0  2  0  0  0  0  0  0
  187.0760  178.1480  135.6060 C   0  0  0  0  0  2  0  0  0  0  0  0
  184.9030  177.2730  136.4470 C   0  0  0  0  0  1  0  0  0  0  0  0
  186.9260  176.7670  137.7240 N   0  0  0  0  0  0  0  0  0  0  0  0
  186.3930  177.0090  136.3710 C   0  0  2  0  0  3  0  0  0  0  0  0
  187.7800  175.7110  137.6510 O   0  0  0  0  0  0  0  0  0  0  0  0
  187.0340  174.6860  137.0640 C   0  0  0  0  0  1  0  0  0  0  0  0
  185.6460  178.9660  140.1230 C   0  0  0  0  0  2  0  0  0  0  0  0
  184.4770  178.3140  140.6930 N   0  0  0  0  0  0  0  0  0  0  0  0
  182.8460  176.8430  139.6490 C   0  0  0  0  0  1  0  0  0  0  0  0
  183.4790  178.2210  139.6380 C   0  0  0  0  0  2  0  0  0  0  0  0
  183.9450  179.2190  141.6970 C   0  0  0  0  0  2  0  0  0  0  0  0
  183.8670  178.5030  143.0290 C   0  0  0  0  0  2  0  0  0  0  0  0
  184.4480  179.3860  144.1120 C   0  0  0  0  0  2  0  0  0  0  0  0
  184.0440  178.8490  145.4700 C   0  0  0  0  0  2  0  0  0  0  0  0
  185.2520  178.6120  146.3040 C   0  0  0  0  0  0  0  0  0  0  0  0
  185.8940  177.5360  146.1850 O   0  0  0  0  0  0  0  0  0  0  0  0
  185.6810  179.5780  147.2050 O   0  0  0  0  0  1  0  0  0  0  0  0
  1  6  1  0  0  0  0
  1  4  1  0  0  0  0
  2  3  1  0  0  0  0
  3  9  1  1  0  0  0
  3 10  1  0  0  0  0
  5  7  1  0  0  0  0
  7 10  2  0  0  0  0
  8  2  1  0  0  0  0
  8  5  2  0  0  0  0
  9  1  2  0  0  0  0
 10 11  1  0  0  0  0
 11  4  2  0  0  0  0
 12  8  1  1  0  0  0
 13 14  1  0  0  0  0
 14 12  1  0  0  0  0
 15 13  1  0  0  0  0
 15 18  1  0  0  0  0
 17 12  1  0  0  0  0
 18 16  1  1  0  0  0
 18 17  1  0  0  0  0
 19 17  1  0  0  0  0
 20 19  1  0  0  0  0
 21  5  1  0  0  0  0
 21 22  1  0  0  0  0
 22 25  1  0  0  0  0
 24 23  1  0  0  0  0
 24 22  1  0  0  0  0
 25 26  1  0  0  0  0
 26 27  1  0  0  0  0
 27 28  1  0  0  0  0
 28 29  1  0  0  0  0
 29 31  1  0  0  0  0
 30 29  2  0  0  0  0
M  END
>  <MODEL>
3

>  <REMARK>
 VINA RESULT:      -6.7      2.987      4.810
  Name = 
  10 active torsions:
  status: ('A' for Active; 'I' for Inactive)
    1  A    between atoms: C_1  and  C_24
    2  A    between atoms: C_5  and  C_21
    3  A    between atoms: C_6  and  C_7
    4  A    between atoms: C_6  and  C_19
    5  A    between atoms: C_7  and  N_9
    6  A    between atoms: N_9  and  C_22
    7  A    between atoms: N_9  and  C_23
    8  A    between atoms: C_15  and  C_23
    9  A    between atoms: O_17  and  N_30
   10  A    between atoms: C_19  and  C_24
                            x       y       z     vdW  Elec       q    Type
                         _______ _______ _______ _____ _____    ______ ____

>  <TORSDO>
F 10

$$$$
=
 OpenBabel10272400373D

 31 33  0  0  1  0  0  0  0  0999 V2000
  189.5920  176.7890  136.5480 C   0  0  0  0  0  0  0  0  0  0  0  0
  189.4170  177.4530  140.2160 O   0  0  0  0  0  0  0  0  0  0  0  0
  189.0970  177.3950  138.8580 C   0  0  0  0  0  0  0  0  0  0  0  0
  188.4350  177.2790  136.0870 C   0  0  0  0  0  3  0  0  0  0  0  0
  187.3420  178.5120  140.7110 C   0  0  0  0  0  0  0  0  0  0  0  0
  190.7150  176.0490  135.4290 Cl  0  0  0  0  0  0  0  0  0  0  0  0
  187.0040  178.4600  139.3110 N   0  0  0  0  0  0  0  0  0  0  0  0
  188.5170  178.0050  141.1420 C   0  0  0  0  0  0  0  0  0  0  0  0
  189.9360  176.8540  137.9790 C   0  0  0  0  0  3  0  0  0  0  0  0
  187.8010  177.9450  138.4230 C   0  0  0  0  0  0  0  0  0  0  0  0
  187.4070  177.9370  136.9740 C   0  0  0  0  0  2  0  0  0  0  0  0
  188.8990  178.0440  142.5910 C   0  0  1  0  0  3  0  0  0  0  0  0
  188.8650  176.7030  145.0770 S   0  0  0  0  0  0  0  0  0  0  0  0
  188.1770  176.9540  143.3970 C   0  0  0  0  0  2  0  0  0  0  0  0
  189.6910  178.3210  145.1800 C   0  0  0  0  0  2  0  0  0  0  0  0
  191.2940  179.8620  144.0630 C   0  0  0  0  0  1  0  0  0  0  0  0
  190.3630  178.0180  142.7560 N   0  0  0  0  0  0  0  0  0  0  0  0
  190.7800  178.4380  144.1060 C   0  0  2  0  0  3  0  0  0  0  0  0
  190.8200  176.7540  142.5550 O   0  0  0  0  0  0  0  0  0  0  0  0
  192.1610  176.9090  142.1940 C   0  0  0  0  0  1  0  0  0  0  0  0
  186.3490  179.1060  141.6590 C   0  0  0  0  0  2  0  0  0  0  0  0
  185.1830  178.2420  141.7600 N   0  0  0  0  0  0  0  0  0  0  0  0
  182.9610  178.0840  140.7840 C   0  0  0  0  0  1  0  0  0  0  0  0
  184.0350  179.0150  141.3150 C   0  0  0  0  0  2  0  0  0  0  0  0
  184.9870  177.9720  143.1750 C   0  0  0  0  0  2  0  0  0  0  0  0
  184.6260  179.2590  143.8870 C   0  0  0  0  0  2  0  0  0  0  0  0
  184.3320  178.9650  145.3410 C   0  0  0  0  0  2  0  0  0  0  0  0
  185.4010  178.0450  145.8950 C   0  0  0  0  0  2  0  0  0  0  0  0
  186.0640  178.6830  147.0640 C   0  0  0  0  0  0  0  0  0  0  0  0
  186.9320  178.0460  147.7160 O   0  0  0  0  0  1  0  0  0  0  0  0
  185.7370  179.9810  147.4310 O   0  0  0  0  0  0  0  0  0  0  0  0
  1  9  1  0  0  0  0
  2  8  1  0  0  0  0
  3  2  1  0  0  0  0
  4  1  2  0  0  0  0
  4 11  1  0  0  0  0
  5  8  2  0  0  0  0
  5 21  1  0  0  0  0
  6  1  1  0  0  0  0
  7  5  1  0  0  0  0
  9  3  2  0  0  0  0
 10  3  1  0  0  0  0
 10  7  2  0  0  0  0
 11 10  1  0  0  0  0
 12  8  1  6  0  0  0
 12 17  1  0  0  0  0
 12 14  1  0  0  0  0
 13 15  1  0  0  0  0
 14 13  1  0  0  0  0
 17 18  1  0  0  0  0
 18 16  1  6  0  0  0
 18 15  1  0  0  0  0
 19 17  1  0  0  0  0
 20 19  1  0  0  0  0
 21 22  1  0  0  0  0
 22 25  1  0  0  0  0
 23 24  1  0  0  0  0
 24 22  1  0  0  0  0
 25 26  1  0  0  0  0
 26 27  1  0  0  0  0
 27 28  1  0  0  0  0
 28 29  1  0  0  0  0
 29 31  2  0  0  0  0
 29 30  1  0  0  0  0
M  END
>  <MODEL>
4

>  <REMARK>
 VINA RESULT:      -6.7      2.925      5.510
  Name = 
  10 active torsions:
  status: ('A' for Active; 'I' for Inactive)
    1  A    between atoms: C_1  and  C_24
    2  A    between atoms: C_5  and  C_21
    3  A    between atoms: C_6  and  C_7
    4  A    between atoms: C_6  and  C_19
    5  A    between atoms: C_7  and  N_9
    6  A    between atoms: N_9  and  C_22
    7  A    between atoms: N_9  and  C_23
    8  A    between atoms: C_15  and  C_23
    9  A    between atoms: O_17  and  N_30
   10  A    between atoms: C_19  and  C_24
                            x       y       z     vdW  Elec       q    Type
                         _______ _______ _______ _____ _____    ______ ____

>  <TORSDO>
F 10

$$$$
=
 OpenBabel10272400373D

 31 33  0  0  1  0  0  0  0  0999 V2000
  190.2910  176.9820  143.9490 C   0  0  0  0  0  0  0  0  0  0  0  0
  190.9400  176.6550  140.2890 O   0  0  0  0  0  0  0  0  0  0  0  0
  190.3220  176.9290  141.5100 C   0  0  1  0  0  3  0  0  0  0  0  0
  189.0550  177.4940  144.0020 C   0  0  0  0  0  3  0  0  0  0  0  0
  189.0400  177.4490  139.0940 C   0  0  0  0  0  0  0  0  0  0  0  0
  191.1520  176.6660  145.4400 Cl  0  0  0  0  0  0  0  0  0  0  0  0
  188.3930  177.7320  140.3490 N   0  0  0  0  0  0  0  0  0  0  0  0
  190.2890  176.9350  139.0770 C   0  0  0  0  0  0  0  0  0  0  0  0
  190.9430  176.6850  142.6620 C   0  0  0  0  0  3  0  0  0  0  0  0
  188.9650  177.5020  141.4930 C   0  0  0  0  0  0  0  0  0  0  0  0
  188.2350  177.7960  142.7730 C   0  0  0  0  0  3  0  0  0  0  0  0
  190.9890  176.6290  137.7880 C   0  0  1  0  0  3  0  0  0  0  0  0
  193.3450  175.6810  136.5490 S   0  0  0  0  0  0  0  0  0  0  0  0
  192.4950  176.4170  137.9980 C   0  0  0  0  0  2  0  0  0  0  0  0
  192.0650  176.1340  135.3380 C   0  0  0  0  0  2  0  0  0  0  0  0
  189.6420  175.9960  134.7880 C   0  0  0  0  0  1  0  0  0  0  0  0
  190.3370  175.5120  137.0820 N   0  0  0  0  0  0  0  0  0  0  0  0
  190.7410  175.4350  135.6660 C   0  0  2  0  0  3  0  0  0  0  0  0
  190.6780  174.3380  137.6760 O   0  0  0  0  0  0  0  0  0  0  0  0
  189.9740  173.3590  136.9700 C   0  0  0  0  0  1  0  0  0  0  0  0
  188.3070  177.7690  137.8290 C   0  0  0  0  0  2  0  0  0  0  0  0
  186.9580  177.2260  137.8890 N   0  0  0  0  0  0  0  0  0  0  0  0
  186.6450  174.9480  137.0970 C   0  0  0  0  0  1  0  0  0  0  0  0
  186.7710  176.4070  136.7010 C   0  0  0  0  0  2  0  0  0  0  0  0
  186.0500  178.3550  137.7680 C   0  0  0  0  0  2  0  0  0  0  0  0
  184.6780  177.9520  138.2660 C   0  0  0  0  0  2  0  0  0  0  0  0
  184.1930  178.9630  139.2820 C   0  0  0  0  0  2  0  0  0  0  0  0
  183.8170  178.2470  140.5640 C   0  0  0  0  0  2  0  0  0  0  0  0
  184.7020  178.6940  141.6730 C   0  0  0  0  0  0  0  0  0  0  0  0
  185.5470  179.6050  141.4730 O   0  0  0  0  0  0  0  0  0  0  0  0
  184.5890  178.1180  142.9320 O   0  0  0  0  0  1  0  0  0  0  0  0
  1  4  1  0  0  0  0
  1  6  1  0  0  0  0
  2  3  1  0  0  0  0
  3  9  1  6  0  0  0
  5  7  1  0  0  0  0
  7 10  2  0  0  0  0
  8  5  2  0  0  0  0
  8  2  1  0  0  0  0
  9  1  2  0  0  0  0
 10  3  1  0  0  0  0
 10 11  1  0  0  0  0
 11  4  2  0  0  0  0
 12 14  1  0  0  0  0
 12  8  1  1  0  0  0
 13 14  1  0  0  0  0
 15 18  1  0  0  0  0
 15 13  1  0  0  0  0
 17 19  1  0  0  0  0
 17 12  1  0  0  0  0
 18 16  1  6  0  0  0
 18 17  1  0  0  0  0
 20 19  1  0  0  0  0
 21 22  1  0  0  0  0
 21  5  1  0  0  0  0
 24 23  1  0  0  0  0
 24 22  1  0  0  0  0
 25 22  1  0  0  0  0
 25 26  1  0  0  0  0
 26 27  1  0  0  0  0
 27 28  1  0  0  0  0
 28 29  1  0  0  0  0
 29 31  1  0  0  0  0
 30 29  2  0  0  0  0
M  END
>  <MODEL>
5

>  <REMARK>
 VINA RESULT:      -6.5      4.084      7.605
  Name = 
  10 active torsions:
  status: ('A' for Active; 'I' for Inactive)
    1  A    between atoms: C_1  and  C_24
    2  A    between atoms: C_5  and  C_21
    3  A    between atoms: C_6  and  C_7
    4  A    between atoms: C_6  and  C_19
    5  A    between atoms: C_7  and  N_9
    6  A    between atoms: N_9  and  C_22
    7  A    between atoms: N_9  and  C_23
    8  A    between atoms: C_15  and  C_23
    9  A    between atoms: O_17  and  N_30
   10  A    between atoms: C_19  and  C_24
                            x       y       z     vdW  Elec       q    Type
                         _______ _______ _______ _____ _____    ______ ____

>  <TORSDO>
F 10

$$$$
=
 OpenBabel10272400373D

 31 33  0  0  1  0  0  0  0  0999 V2000
  184.1100  178.7820  143.4130 C   0  0  0  0  0  0  0  0  0  0  0  0
  186.9240  178.1190  141.0530 O   0  0  0  0  0  0  0  0  0  0  0  0
  186.1740  178.2570  142.2220 C   0  0  1  0  0  3  0  0  0  0  0  0
  184.6470  178.5350  144.6140 C   0  0  0  0  0  3  0  0  0  0  0  0
  188.8340  177.4360  142.3010 C   0  0  0  0  0  0  0  0  0  0  0  0
  182.4330  179.2700  143.3070 Cl  0  0  0  0  0  0  0  0  0  0  0  0
  188.0690  177.5790  143.5130 N   0  0  0  0  0  0  0  0  0  0  0  0
  188.2610  177.6900  141.1050 C   0  0  0  0  0  0  0  0  0  0  0  0
  184.9010  178.6430  142.1770 C   0  0  0  0  0  3  0  0  0  0  0  0
  186.8260  177.9590  143.5100 C   0  0  0  0  0  0  0  0  0  0  0  0
  186.0820  178.1130  144.8050 C   0  0  0  0  0  3  0  0  0  0  0  0
  189.0300  177.5520  139.8260 C   0  0  1  0  0  3  0  0  0  0  0  0
  190.4650  175.8260  138.1100 S   0  0  0  0  0  0  0  0  0  0  0  0
  189.8100  176.2300  139.7750 C   0  0  0  0  0  2  0  0  0  0  0  0
  190.3800  177.5250  137.4640 C   0  0  0  0  0  2  0  0  0  0  0  0
  188.9020  179.4940  137.1020 C   0  0  0  0  0  1  0  0  0  0  0  0
  188.1580  177.7610  138.6570 N   0  0  0  0  0  0  0  0  0  0  0  0
  188.9280  178.0140  137.4250 C   0  0  2  0  0  3  0  0  0  0  0  0
  187.4000  176.6510  138.4520 O   0  0  0  0  0  0  0  0  0  0  0  0
  186.4970  177.0120  137.4500 C   0  0  0  0  0  1  0  0  0  0  0  0
  190.2520  176.9730  142.4080 C   0  0  0  0  0  2  0  0  0  0  0  0
  190.8200  177.4030  143.6760 N   0  0  0  0  0  0  0  0  0  0  0  0
  191.2670  179.7390  144.1890 C   0  0  0  0  0  1  0  0  0  0  0  0
  191.7050  178.5230  143.3940 C   0  0  0  0  0  2  0  0  0  0  0  0
  191.6580  176.3130  144.1490 C   0  0  0  0  0  2  0  0  0  0  0  0
  191.6380  176.2830  145.6630 C   0  0  0  0  0  2  0  0  0  0  0  0
  190.2710  176.7030  146.1580 C   0  0  0  0  0  2  0  0  0  0  0  0
  190.4030  177.3230  147.5340 C   0  0  0  0  0  2  0  0  0  0  0  0
  189.0550  177.5860  148.1050 C   0  0  0  0  0  0  0  0  0  0  0  0
  188.9320  178.3540  149.0940 O   0  0  0  0  0  1  0  0  0  0  0  0
  187.9310  176.9960  147.5420 O   0  0  0  0  0  0  0  0  0  0  0  0
  1  4  1  0  0  0  0
  2  8  1  0  0  0  0
  2  3  1  0  0  0  0
  3  9  1  6  0  0  0
  3 10  1  0  0  0  0
  4 11  2  0  0  0  0
  5 21  1  0  0  0  0
  5  7  1  0  0  0  0
  6  1  1  0  0  0  0
  8  5  2  0  0  0  0
  9  1  2  0  0  0  0
 10  7  2  0  0  0  0
 10 11  1  0  0  0  0
 12  8  1  1  0  0  0
 13 14  1  0  0  0  0
 14 12  1  0  0  0  0
 15 13  1  0  0  0  0
 17 12  1  0  0  0  0
 18 16  1  1  0  0  0
 18 15  1  0  0  0  0
 18 17  1  0  0  0  0
 19 17  1  0  0  0  0
 20 19  1  0  0  0  0
 21 22  1  0  0  0  0
 22 25  1  0  0  0  0
 24 22  1  0  0  0  0
 24 23  1  0  0  0  0
 25 26  1  0  0  0  0
 26 27  1  0  0  0  0
 27 28  1  0  0  0  0
 28 29  1  0  0  0  0
 29 30  1  0  0  0  0
 31 29  2  0  0  0  0
M  END
>  <MODEL>
6

>  <REMARK>
 VINA RESULT:      -6.3      3.546      5.940
  Name = 
  10 active torsions:
  status: ('A' for Active; 'I' for Inactive)
    1  A    between atoms: C_1  and  C_24
    2  A    between atoms: C_5  and  C_21
    3  A    between atoms: C_6  and  C_7
    4  A    between atoms: C_6  and  C_19
    5  A    between atoms: C_7  and  N_9
    6  A    between atoms: N_9  and  C_22
    7  A    between atoms: N_9  and  C_23
    8  A    between atoms: C_15  and  C_23
    9  A    between atoms: O_17  and  N_30
   10  A    between atoms: C_19  and  C_24
                            x       y       z     vdW  Elec       q    Type
                         _______ _______ _______ _____ _____    ______ ____

>  <TORSDO>
F 10

$$$$
=
 OpenBabel10272400373D

 31 33  0  0  1  0  0  0  0  0999 V2000
  190.8250  176.4020  144.9800 C   0  0  0  0  0  0  0  0  0  0  0  0
  189.8120  176.7520  141.4050 O   0  0  0  0  0  0  0  0  0  0  0  0
  189.8410  176.8680  142.7960 C   0  0  1  0  0  3  0  0  0  0  0  0
  189.8980  177.1100  145.6370 C   0  0  0  0  0  3  0  0  0  0  0  0
  187.8660  178.1210  141.2850 C   0  0  0  0  0  0  0  0  0  0  0  0
  192.1050  175.6220  145.8810 Cl  0  0  0  0  0  0  0  0  0  0  0  0
  187.8870  178.2430  142.7200 N   0  0  0  0  0  0  0  0  0  0  0  0
  188.8190  177.4010  140.6530 C   0  0  0  0  0  0  0  0  0  0  0  0
  190.7920  176.2730  143.5120 C   0  0  0  0  0  3  0  0  0  0  0  0
  188.7960  177.6720  143.4530 C   0  0  0  0  0  0  0  0  0  0  0  0
  188.7570  177.8140  144.9470 C   0  0  0  0  0  3  0  0  0  0  0  0
  188.8240  177.2540  139.1610 C   0  0  1  0  0  3  0  0  0  0  0  0
  189.1690  178.5310  136.6650 S   0  0  0  0  0  0  0  0  0  0  0  0
  188.7920  178.6180  138.4570 C   0  0  0  0  0  2  0  0  0  0  0  0
  188.7930  176.7600  136.4860 C   0  0  0  0  0  2  0  0  0  0  0  0
  189.2840  174.4770  137.3470 C   0  0  0  0  0  1  0  0  0  0  0  0
  189.9360  176.3950  138.7170 N   0  0  0  0  0  0  0  0  0  0  0  0
  189.7530  175.9180  137.3340 C   0  0  2  0  0  3  0  0  0  0  0  0
  191.0990  177.0970  138.7640 O   0  0  0  0  0  0  0  0  0  0  0  0
  192.0730  176.2120  138.2950 C   0  0  0  0  0  1  0  0  0  0  0  0
  186.7910  178.8330  140.5270 C   0  0  0  0  0  2  0  0  0  0  0  0
  185.4840  178.4310  141.0250 N   0  0  0  0  0  0  0  0  0  0  0  0
  183.9080  177.7520  139.3030 C   0  0  0  0  0  1  0  0  0  0  0  0
  184.4940  178.9170  140.0780 C   0  0  0  0  0  2  0  0  0  0  0  0
  185.2710  179.1580  142.2660 C   0  0  0  0  0  2  0  0  0  0  0  0
  184.2280  178.4400  143.0970 C   0  0  0  0  0  2  0  0  0  0  0  0
  184.0640  179.1500  144.4230 C   0  0  0  0  0  2  0  0  0  0  0  0
  185.4040  179.2190  145.1260 C   0  0  0  0  0  2  0  0  0  0  0  0
  185.2220  179.0130  146.5880 C   0  0  0  0  0  0  0  0  0  0  0  0
  184.4150  178.1420  147.0030 O   0  0  0  0  0  0  0  0  0  0  0  0
  185.9490  179.7730  147.4960 O   0  0  0  0  0  1  0  0  0  0  0  0
  1  4  1  0  0  0  0
  1  6  1  0  0  0  0
  2  3  1  0  0  0  0
  3 10  1  0  0  0  0
  3  9  1  6  0  0  0
  5  7  1  0  0  0  0
  7 10  2  0  0  0  0
  8  5  2  0  0  0  0
  8  2  1  0  0  0  0
  9  1  2  0  0  0  0
 10 11  1  0  0  0  0
 11  4  2  0  0  0  0
 12  8  1  1  0  0  0
 13 14  1  0  0  0  0
 14 12  1  0  0  0  0
 15 13  1  0  0  0  0
 15 18  1  0  0  0  0
 17 19  1  0  0  0  0
 17 12  1  0  0  0  0
 18 16  1  1  0  0  0
 18 17  1  0  0  0  0
 20 19  1  0  0  0  0
 21 22  1  0  0  0  0
 21  5  1  0  0  0  0
 22 25  1  0  0  0  0
 23 24  1  0  0  0  0
 24 22  1  0  0  0  0
 25 26  1  0  0  0  0
 26 27  1  0  0  0  0
 27 28  1  0  0  0  0
 28 29  1  0  0  0  0
 29 30  2  0  0  0  0
 29 31  1  0  0  0  0
M  END
>  <MODEL>
7

>  <REMARK>
 VINA RESULT:      -6.1      3.310      5.904
  Name = 
  10 active torsions:
  status: ('A' for Active; 'I' for Inactive)
    1  A    between atoms: C_1  and  C_24
    2  A    between atoms: C_5  and  C_21
    3  A    between atoms: C_6  and  C_7
    4  A    between atoms: C_6  and  C_19
    5  A    between atoms: C_7  and  N_9
    6  A    between atoms: N_9  and  C_22
    7  A    between atoms: N_9  and  C_23
    8  A    between atoms: C_15  and  C_23
    9  A    between atoms: O_17  and  N_30
   10  A    between atoms: C_19  and  C_24
                            x       y       z     vdW  Elec       q    Type
                         _______ _______ _______ _____ _____    ______ ____

>  <TORSDO>
F 10

$$$$
=
 OpenBabel10272400373D

 31 33  0  0  1  0  0  0  0  0999 V2000
  188.9660  177.8670  136.8120 C   0  0  0  0  0  0  0  0  0  0  0  0
  189.4590  177.2940  140.4670 O   0  0  0  0  0  0  0  0  0  0  0  0
  188.8990  177.6630  139.2420 C   0  0  0  0  0  0  0  0  0  0  0  0
  187.7480  178.4150  136.7450 C   0  0  0  0  0  3  0  0  0  0  0  0
  187.5130  178.0200  141.6310 C   0  0  0  0  0  0  0  0  0  0  0  0
  189.8660  177.5930  135.3360 Cl  0  0  0  0  0  0  0  0  0  0  0  0
  186.9280  178.4060  140.3730 N   0  0  0  0  0  0  0  0  0  0  0  0
  188.7440  177.4660  141.6630 C   0  0  0  0  0  0  0  0  0  0  0  0
  189.5640  177.4830  138.1030 C   0  0  0  0  0  3  0  0  0  0  0  0
  187.5480  178.2510  139.2410 C   0  0  0  0  0  0  0  0  0  0  0  0
  186.9000  178.6930  137.9610 C   0  0  0  0  0  2  0  0  0  0  0  0
  189.3810  177.0540  142.9560 C   0  0  1  0  0  3  0  0  0  0  0  0
  191.5840  175.8060  144.2080 S   0  0  0  0  0  0  0  0  0  0  0  0
  190.5310  176.0620  142.7300 C   0  0  0  0  0  2  0  0  0  0  0  0
  190.3580  176.4060  145.4110 C   0  0  0  0  0  2  0  0  0  0  0  0
  188.8610  178.2990  146.0210 C   0  0  0  0  0  1  0  0  0  0  0  0
  189.7730  178.2290  143.7530 N   0  0  0  0  0  0  0  0  0  0  0  0
  190.0380  177.8840  145.1620 C   0  0  2  0  0  3  0  0  0  0  0  0
  190.9080  178.7700  143.2370 O   0  0  0  0  0  0  0  0  0  0  0  0
  191.2280  179.8240  144.0960 C   0  0  0  0  0  1  0  0  0  0  0  0
  186.7100  178.2190  142.8780 C   0  0  0  0  0  2  0  0  0  0  0  0
  185.5150  178.9930  142.5790 N   0  0  0  0  0  0  0  0  0  0  0  0
  185.3580  178.6850  144.9860 C   0  0  0  0  0  1  0  0  0  0  0  0
  185.0840  179.6160  143.8200 C   0  0  0  0  0  2  0  0  0  0  0  0
  184.4840  178.0380  142.2070 C   0  0  0  0  0  2  0  0  0  0  0  0
  183.1400  178.7370  142.1740 C   0  0  0  0  0  2  0  0  0  0  0  0
  182.3180  178.1930  141.0260 C   0  0  0  0  0  2  0  0  0  0  0  0
  182.1390  179.2740  139.9790 C   0  0  0  0  0  2  0  0  0  0  0  0
  183.3280  179.3200  139.0870 C   0  0  0  0  0  0  0  0  0  0  0  0
  184.1330  180.2850  139.1650 O   0  0  0  0  0  1  0  0  0  0  0  0
  183.5600  178.2970  138.1780 O   0  0  0  0  0  0  0  0  0  0  0  0
  1  9  1  0  0  0  0
  2  8  1  0  0  0  0
  3  2  1  0  0  0  0
  4  1  2  0  0  0  0
  4 11  1  0  0  0  0
  5  8  2  0  0  0  0
  5 21  1  0  0  0  0
  6  1  1  0  0  0  0
  7  5  1  0  0  0  0
  9  3  2  0  0  0  0
 10  3  1  0  0  0  0
 10  7  2  0  0  0  0
 11 10  1  0  0  0  0
 12  8  1  6  0  0  0
 12 17  1  0  0  0  0
 13 15  1  0  0  0  0
 14 12  1  0  0  0  0
 14 13  1  0  0  0  0
 17 18  1  0  0  0  0
 18 15  1  0  0  0  0
 18 16  1  1  0  0  0
 19 17  1  0  0  0  0
 19 20  1  0  0  0  0
 22 21  1  0  0  0  0
 22 24  1  0  0  0  0
 24 23  1  0  0  0  0
 25 22  1  0  0  0  0
 26 25  1  0  0  0  0
 27 26  1  0  0  0  0
 28 27  1  0  0  0  0
 29 30  1  0  0  0  0
 29 28  1  0  0  0  0
 31 29  2  0  0  0  0
M  END
>  <MODEL>
8

>  <REMARK>
 VINA RESULT:      -5.9      3.014      6.792
  Name = 
  10 active torsions:
  status: ('A' for Active; 'I' for Inactive)
    1  A    between atoms: C_1  and  C_24
    2  A    between atoms: C_5  and  C_21
    3  A    between atoms: C_6  and  C_7
    4  A    between atoms: C_6  and  C_19
    5  A    between atoms: C_7  and  N_9
    6  A    between atoms: N_9  and  C_22
    7  A    between atoms: N_9  and  C_23
    8  A    between atoms: C_15  and  C_23
    9  A    between atoms: O_17  and  N_30
   10  A    between atoms: C_19  and  C_24
                            x       y       z     vdW  Elec       q    Type
                         _______ _______ _______ _____ _____    ______ ____

>  <TORSDO>
F 10

$$$$
=
 OpenBabel10272400373D

 31 33  0  0  1  0  0  0  0  0999 V2000
  182.1000  178.7480  140.9770 C   0  0  0  0  0  0  0  0  0  0  0  0
  185.4050  178.4340  142.6810 O   0  0  0  0  0  0  0  0  0  0  0  0
  184.4240  178.5640  141.6960 C   0  0  0  0  0  0  0  0  0  0  0  0
  182.4250  178.8340  139.6810 C   0  0  0  0  0  3  0  0  0  0  0  0
  187.1290  178.4960  141.0390 C   0  0  0  0  0  0  0  0  0  0  0  0
  180.4150  178.8180  141.4450 Cl  0  0  0  0  0  0  0  0  0  0  0  0
  186.1230  178.6280  140.0160 N   0  0  0  0  0  0  0  0  0  0  0  0
  186.7670  178.4150  142.3370 C   0  0  0  0  0  0  0  0  0  0  0  0
  183.1330  178.6040  142.0180 C   0  0  0  0  0  3  0  0  0  0  0  0
  184.8540  178.6640  140.2900 C   0  0  0  0  0  0  0  0  0  0  0  0
  183.8470  178.7810  139.1820 C   0  0  0  0  0  2  0  0  0  0  0  0
  187.7890  178.2760  143.4250 C   0  0  1  0  0  3  0  0  0  0  0  0
  188.3780  177.2540  145.9920 S   0  0  0  0  0  0  0  0  0  0  0  0
  187.1550  177.7980  144.7390 C   0  0  0  0  0  2  0  0  0  0  0  0
  189.7920  178.1370  145.2610 C   0  0  0  0  0  2  0  0  0  0  0  0
  191.1220  178.4880  143.1880 C   0  0  0  0  0  1  0  0  0  0  0  0
  188.9210  177.4420  142.9860 N   0  0  0  0  0  0  0  0  0  0  0  0
  190.0990  177.5960  143.8600 C   0  0  2  0  0  3  0  0  0  0  0  0
  188.5560  176.1330  143.0080 O   0  0  0  0  0  0  0  0  0  0  0  0
  189.7570  175.4230  142.9290 C   0  0  0  0  0  1  0  0  0  0  0  0
  188.5670  178.4860  140.6230 C   0  0  0  0  0  2  0  0  0  0  0  0
  188.6980  177.8690  139.3120 N   0  0  0  0  0  0  0  0  0  0  0  0
  191.0220  177.3670  139.8250 C   0  0  0  0  0  1  0  0  0  0  0  0
  189.6710  176.7950  139.4380 C   0  0  0  0  0  2  0  0  0  0  0  0
  189.2870  178.8700  138.4390 C   0  0  0  0  0  2  0  0  0  0  0  0
  188.9830  178.5230  136.9970 C   0  0  0  0  0  2  0  0  0  0  0  0
  187.5320  178.8310  136.7000 C   0  0  0  0  0  2  0  0  0  0  0  0
  186.9960  177.8190  135.7060 C   0  0  0  0  0  2  0  0  0  0  0  0
  186.7480  176.5200  136.3870 C   0  0  0  0  0  0  0  0  0  0  0  0
  187.4910  175.5340  136.1450 O   0  0  0  0  0  0  0  0  0  0  0  0
  185.7060  176.3950  137.2960 O   0  0  0  0  0  1  0  0  0  0  0  0
  1  6  1  0  0  0  0
  1  9  1  0  0  0  0
  3  9  2  0  0  0  0
  3  2  1  0  0  0  0
  4  1  2  0  0  0  0
  5  8  2  0  0  0  0
  7 10  2  0  0  0  0
  7  5  1  0  0  0  0
  8  2  1  0  0  0  0
 10  3  1  0  0  0  0
 11  4  1  0  0  0  0
 11 10  1  0  0  0  0
 12  8  1  6  0  0  0
 12 14  1  0  0  0  0
 14 13  1  0  0  0  0
 15 13  1  0  0  0  0
 17 19  1  0  0  0  0
 17 12  1  0  0  0  0
 17 18  1  0  0  0  0
 18 16  1  6  0  0  0
 18 15  1  0  0  0  0
 20 19  1  0  0  0  0
 21  5  1  0  0  0  0
 22 24  1  0  0  0  0
 22 21  1  0  0  0  0
 24 23  1  0  0  0  0
 25 22  1  0  0  0  0
 26 25  1  0  0  0  0
 27 26  1  0  0  0  0
 28 29  1  0  0  0  0
 28 27  1  0  0  0  0
 29 31  1  0  0  0  0
 30 29  2  0  0  0  0
M  END
>  <MODEL>
9

>  <REMARK>
 VINA RESULT:      -5.9      3.610      7.934
  Name = 
  10 active torsions:
  status: ('A' for Active; 'I' for Inactive)
    1  A    between atoms: C_1  and  C_24
    2  A    between atoms: C_5  and  C_21
    3  A    between atoms: C_6  and  C_7
    4  A    between atoms: C_6  and  C_19
    5  A    between atoms: C_7  and  N_9
    6  A    between atoms: N_9  and  C_22
    7  A    between atoms: N_9  and  C_23
    8  A    between atoms: C_15  and  C_23
    9  A    between atoms: O_17  and  N_30
   10  A    between atoms: C_19  and  C_24
                            x       y       z     vdW  Elec       q    Type
                         _______ _______ _______ _____ _____    ______ ____

>  <TORSDO>
F 10

$$$$
