=
 OpenBabel10272401093D

 27 31  0  0  1  0  0  0  0  0999 V2000
  188.4470  177.8040  144.3590 C   0  0  2  0  0  3  0  0  0  0  0  0
  188.9060  177.8170  142.9200 C   0  0  0  0  0  0  0  0  0  0  0  0
  190.9060  176.4340  143.5270 C   0  0  0  0  0  0  0  0  0  0  0  0
  190.0770  177.5630  138.9960 N   0  0  0  0  0  0  0  0  0  0  0  0
  192.0650  176.3300  138.1290 C   0  0  0  0  0  1  0  0  0  0  0  0
  188.1180  178.4910  141.9590 C   0  0  0  0  0  3  0  0  0  0  0  0
  191.3720  176.4590  140.5220 N   0  0  0  0  0  2  0  0  0  0  0  0
  191.4030  176.6610  147.2530 C   0  0  0  0  0  3  0  0  0  0  0  0
  191.8440  175.6650  143.1800 O   0  0  0  0  0  0  0  0  0  0  0  0
  190.3030  177.3690  147.6190 N   0  0  0  0  0  0  0  0  0  0  0  0
  190.3470  177.0660  141.1430 C   0  0  0  0  0  0  0  0  0  0  0  0
  191.1650  176.7850  139.2210 C   0  0  0  0  0  0  0  0  0  0  0  0
  189.5780  177.7250  140.2300 C   0  0  0  0  0  0  0  0  0  0  0  0
  189.5350  177.4520  145.3500 C   0  0  0  0  0  0  0  0  0  0  0  0
  190.0530  177.0880  142.5130 C   0  0  0  0  0  0  0  0  0  0  0  0
  191.6100  176.3290  145.9160 C   0  0  0  0  0  3  0  0  0  0  0  0
  188.4540  178.4560  140.5950 C   0  0  0  0  0  3  0  0  0  0  0  0
  188.2860  178.4600  147.1300 F   0  0  0  0  0  0  0  0  0  0  0  0
  189.3740  177.7690  146.7090 C   0  0  0  0  0  0  0  0  0  0  0  0
  190.6760  176.7270  144.9520 C   0  0  0  0  0  0  0  0  0  0  0  0
  187.2000  176.9230  144.5460 C   0  0  0  0  0  2  0  0  0  0  0  0
  183.5240  179.1280  144.8320 C   0  0  0  0  0  3  0  0  0  0  0  0
  185.9290  177.7110  144.6440 C   0  0  0  0  0  0  0  0  0  0  0  0
  185.2060  178.0220  143.4860 C   0  0  0  0  0  3  0  0  0  0  0  0
  184.0040  178.7300  143.5800 C   0  0  0  0  0  3  0  0  0  0  0  0
  184.2450  178.8200  145.9890 C   0  0  0  0  0  3  0  0  0  0  0  0
  185.4470  178.1110  145.8950 C   0  0  0  0  0  3  0  0  0  0  0  0
  1 21  1  6  0  0  0
  1 14  1  0  0  0  0
  2  1  1  0  0  0  0
  3 20  1  0  0  0  0
  4 12  2  0  0  0  0
  4 13  1  0  0  0  0
  5 12  1  0  0  0  0
  6  2  2  0  0  0  0
  7 11  1  0  0  0  0
  8 10  1  0  0  0  0
  9  3  2  0  0  0  0
 11 15  2  0  0  0  0
 12  7  1  0  0  0  0
 13 17  2  0  0  0  0
 13 11  1  0  0  0  0
 14 19  1  0  0  0  0
 15  2  1  0  0  0  0
 15  3  1  0  0  0  0
 16  8  2  0  0  0  0
 17  6  1  0  0  0  0
 19 18  1  0  0  0  0
 19 10  2  0  0  0  0
 20 14  2  0  0  0  0
 20 16  1  0  0  0  0
 21 23  1  0  0  0  0
 22 26  1  0  0  0  0
 23 27  1  0  0  0  0
 24 25  1  0  0  0  0
 24 23  2  0  0  0  0
 25 22  2  0  0  0  0
 27 26  2  0  0  0  0
M  END
>  <MODEL>
1

>  <REMARK>
 VINA RESULT:     -10.7      0.000      0.000
  Name = 
  2 active torsions:
  status: ('A' for Active; 'I' for Inactive)
    1  A    between atoms: C_1  and  C_15
    2  A    between atoms: C_9  and  C_15
                            x       y       z     vdW  Elec       q    Type
                         _______ _______ _______ _____ _____    ______ ____

>  <TORSDO>
F 2

$$$$
=
 OpenBabel10272401093D

 27 31  0  0  1  0  0  0  0  0999 V2000
  188.1100  177.4910  143.8250 C   0  0  2  0  0  3  0  0  0  0  0  0
  188.4660  177.3890  142.3600 C   0  0  0  0  0  0  0  0  0  0  0  0
  186.4820  178.7990  141.7610 C   0  0  0  0  0  0  0  0  0  0  0  0
  189.5130  177.3990  138.3940 N   0  0  0  0  0  0  0  0  0  0  0  0
  188.3020  178.5690  136.5530 C   0  0  0  0  0  1  0  0  0  0  0  0
  189.6190  176.6600  141.9880 C   0  0  0  0  0  3  0  0  0  0  0  0
  187.6460  178.5890  138.9600 N   0  0  0  0  0  2  0  0  0  0  0  0
  184.1140  178.7960  144.6900 C   0  0  0  0  0  3  0  0  0  0  0  0
  185.8830  179.5410  140.9360 O   0  0  0  0  0  0  0  0  0  0  0  0
  184.8440  178.1160  145.6130 N   0  0  0  0  0  0  0  0  0  0  0  0
  188.1810  178.0240  140.0550 C   0  0  0  0  0  0  0  0  0  0  0  0
  188.4890  178.1850  137.9770 C   0  0  0  0  0  0  0  0  0  0  0  0
  189.2930  177.3140  139.7130 C   0  0  0  0  0  0  0  0  0  0  0  0
  186.6760  177.8980  144.0840 C   0  0  0  0  0  0  0  0  0  0  0  0
  187.7190  178.0880  141.3770 C   0  0  0  0  0  0  0  0  0  0  0  0
  184.6420  179.0460  143.4240 C   0  0  0  0  0  3  0  0  0  0  0  0
  190.0420  176.6110  140.6500 C   0  0  0  0  0  3  0  0  0  0  0  0
  186.7890  177.0050  146.3050 F   0  0  0  0  0  0  0  0  0  0  0  0
  186.0980  177.6650  145.3430 C   0  0  0  0  0  0  0  0  0  0  0  0
  185.9290  178.5940  143.1120 C   0  0  0  0  0  0  0  0  0  0  0  0
  189.1030  178.3860  144.5850 C   0  0  0  0  0  2  0  0  0  0  0  0
  191.6070  176.2640  147.3570 C   0  0  0  0  0  3  0  0  0  0  0  0
  189.9630  177.6290  145.5500 C   0  0  0  0  0  0  0  0  0  0  0  0
  191.0680  176.9060  145.0850 C   0  0  0  0  0  3  0  0  0  0  0  0
  191.8900  176.2240  145.9880 C   0  0  0  0  0  3  0  0  0  0  0  0
  190.5030  176.9840  147.8230 C   0  0  0  0  0  3  0  0  0  0  0  0
  189.6810  177.6660  146.9200 C   0  0  0  0  0  3  0  0  0  0  0  0
  1 14  1  0  0  0  0
  1 21  1  6  0  0  0
  2  1  1  0  0  0  0
  3 20  1  0  0  0  0
  4 13  1  0  0  0  0
  5 12  1  0  0  0  0
  6  2  1  0  0  0  0
  7 11  1  0  0  0  0
  8 10  1  0  0  0  0
  9  3  2  0  0  0  0
 11 15  1  0  0  0  0
 12  4  2  0  0  0  0
 12  7  1  0  0  0  0
 13 11  2  0  0  0  0
 13 17  1  0  0  0  0
 14 19  1  0  0  0  0
 15  3  1  0  0  0  0
 15  2  2  0  0  0  0
 16  8  2  0  0  0  0
 17  6  2  0  0  0  0
 19 10  2  0  0  0  0
 19 18  1  0  0  0  0
 20 16  1  0  0  0  0
 20 14  2  0  0  0  0
 21 23  1  0  0  0  0
 22 26  1  0  0  0  0
 23 27  1  0  0  0  0
 24 23  2  0  0  0  0
 24 25  1  0  0  0  0
 25 22  2  0  0  0  0
 27 26  2  0  0  0  0
M  END
>  <MODEL>
2

>  <REMARK>
 VINA RESULT:     -10.6      2.264      4.958
  Name = 
  2 active torsions:
  status: ('A' for Active; 'I' for Inactive)
    1  A    between atoms: C_1  and  C_15
    2  A    between atoms: C_9  and  C_15
                            x       y       z     vdW  Elec       q    Type
                         _______ _______ _______ _____ _____    ______ ____

>  <TORSDO>
F 2

$$$$
=
 OpenBabel10272401093D

 27 31  0  0  1  0  0  0  0  0999 V2000
  187.9850  178.2000  142.5940 C   0  0  2  0  0  3  0  0  0  0  0  0
  187.2720  178.3290  141.2690 C   0  0  0  0  0  0  0  0  0  0  0  0
  189.2390  177.3170  140.0900 C   0  0  0  0  0  0  0  0  0  0  0  0
  185.3030  178.3820  137.6700 N   0  0  0  0  0  0  0  0  0  0  0  0
  186.1910  177.5490  135.4920 C   0  0  0  0  0  1  0  0  0  0  0  0
  185.9670  178.8720  141.2480 C   0  0  0  0  0  3  0  0  0  0  0  0
  187.4090  177.4950  137.6690 N   0  0  0  0  0  2  0  0  0  0  0  0
  192.2220  177.5430  142.3790 C   0  0  0  0  0  3  0  0  0  0  0  0
  189.7230  176.7380  139.0800 O   0  0  0  0  0  0  0  0  0  0  0  0
  191.6450  178.0320  143.5080 N   0  0  0  0  0  0  0  0  0  0  0  0
  187.0790  177.8930  138.9090 C   0  0  0  0  0  0  0  0  0  0  0  0
  186.3010  177.8090  136.9520 C   0  0  0  0  0  0  0  0  0  0  0  0
  185.8230  178.4230  138.9050 C   0  0  0  0  0  0  0  0  0  0  0  0
  189.4840  178.0280  142.4730 C   0  0  0  0  0  0  0  0  0  0  0  0
  187.8530  177.8290  140.0750 C   0  0  0  0  0  0  0  0  0  0  0  0
  191.4450  177.2850  141.2510 C   0  0  0  0  0  3  0  0  0  0  0  0
  185.2270  178.9300  140.0540 C   0  0  0  0  0  3  0  0  0  0  0  0
  189.7830  178.7520  144.7380 F   0  0  0  0  0  0  0  0  0  0  0  0
  190.3100  178.2790  143.5820 C   0  0  0  0  0  0  0  0  0  0  0  0
  190.0670  177.5300  141.2910 C   0  0  0  0  0  0  0  0  0  0  0  0
  187.3550  177.1040  143.4700 C   0  0  0  0  0  2  0  0  0  0  0  0
  185.4820  178.6950  146.9940 C   0  0  0  0  0  3  0  0  0  0  0  0
  186.6920  177.6400  144.7020 C   0  0  0  0  0  0  0  0  0  0  0  0
  187.3410  177.5560  145.9400 C   0  0  0  0  0  3  0  0  0  0  0  0
  186.7360  178.0840  147.0850 C   0  0  0  0  0  3  0  0  0  0  0  0
  184.8320  178.7780  145.7590 C   0  0  0  0  0  3  0  0  0  0  0  0
  185.4360  178.2520  144.6130 C   0  0  0  0  0  3  0  0  0  0  0  0
  1 21  1  6  0  0  0
  2  1  1  0  0  0  0
  3 20  1  0  0  0  0
  4 13  1  0  0  0  0
  5 12  1  0  0  0  0
  6  2  1  0  0  0  0
  7 11  1  0  0  0  0
  8 10  1  0  0  0  0
  9  3  2  0  0  0  0
 10 19  2  0  0  0  0
 11 15  1  0  0  0  0
 12  7  1  0  0  0  0
 12  4  2  0  0  0  0
 13 11  2  0  0  0  0
 13 17  1  0  0  0  0
 14  1  1  0  0  0  0
 14 19  1  0  0  0  0
 15  3  1  0  0  0  0
 15  2  2  0  0  0  0
 16 20  1  0  0  0  0
 16  8  2  0  0  0  0
 17  6  2  0  0  0  0
 19 18  1  0  0  0  0
 20 14  2  0  0  0  0
 21 23  1  0  0  0  0
 22 25  1  0  0  0  0
 23 24  1  0  0  0  0
 24 25  2  0  0  0  0
 26 22  2  0  0  0  0
 27 23  2  0  0  0  0
 27 26  1  0  0  0  0
M  END
>  <MODEL>
3

>  <REMARK>
 VINA RESULT:      -9.5      2.577      3.765
  Name = 
  2 active torsions:
  status: ('A' for Active; 'I' for Inactive)
    1  A    between atoms: C_1  and  C_15
    2  A    between atoms: C_9  and  C_15
                            x       y       z     vdW  Elec       q    Type
                         _______ _______ _______ _____ _____    ______ ____

>  <TORSDO>
F 2

$$$$
=
 OpenBabel10272401093D

 27 31  0  0  1  0  0  0  0  0999 V2000
  187.8650  177.6790  144.0930 C   0  0  2  0  0  3  0  0  0  0  0  0
  186.4500  177.8860  143.6060 C   0  0  0  0  0  0  0  0  0  0  0  0
  185.7450  178.6060  145.9010 C   0  0  0  0  0  0  0  0  0  0  0  0
  182.6540  178.7410  142.3070 N   0  0  0  0  0  0  0  0  0  0  0  0
  180.7920  179.6530  143.6950 C   0  0  0  0  0  1  0  0  0  0  0  0
  186.1560  177.6410  142.2450 C   0  0  0  0  0  3  0  0  0  0  0  0
  183.0960  179.1510  144.5120 N   0  0  0  0  0  2  0  0  0  0  0  0
  188.3570  177.4420  148.3510 C   0  0  0  0  0  3  0  0  0  0  0  0
  184.9230  179.1990  146.6510 O   0  0  0  0  0  0  0  0  0  0  0  0
  189.2970  176.9390  147.5080 N   0  0  0  0  0  0  0  0  0  0  0  0
  184.1930  178.6680  143.9050 C   0  0  0  0  0  0  0  0  0  0  0  0
  182.1890  179.1800  143.5030 C   0  0  0  0  0  0  0  0  0  0  0  0
  183.9250  178.4240  142.5910 C   0  0  0  0  0  0  0  0  0  0  0  0
  187.9860  177.5430  145.5960 C   0  0  0  0  0  0  0  0  0  0  0  0
  185.4510  178.4080  144.4660 C   0  0  0  0  0  0  0  0  0  0  0  0
  187.1910  178.0090  147.8410 C   0  0  0  0  0  3  0  0  0  0  0  0
  184.8790  177.9040  141.7230 C   0  0  0  0  0  3  0  0  0  0  0  0
  190.1170  176.4730  145.3610 F   0  0  0  0  0  0  0  0  0  0  0  0
  189.1410  176.9750  146.1580 C   0  0  0  0  0  0  0  0  0  0  0  0
  186.9960  178.0610  146.4560 C   0  0  0  0  0  0  0  0  0  0  0  0
  188.8150  178.7550  143.5410 C   0  0  0  0  0  2  0  0  0  0  0  0
  191.4770  177.2130  140.5430 C   0  0  0  0  0  3  0  0  0  0  0  0
  189.7480  178.2370  142.4890 C   0  0  0  0  0  0  0  0  0  0  0  0
  191.0950  178.0120  142.7960 C   0  0  0  0  0  3  0  0  0  0  0  0
  191.9590  177.5000  141.8230 C   0  0  0  0  0  3  0  0  0  0  0  0
  190.1330  177.4380  140.2340 C   0  0  0  0  0  3  0  0  0  0  0  0
  189.2680  177.9500  141.2070 C   0  0  0  0  0  3  0  0  0  0  0  0
  1 21  1  1  0  0  0
  1 14  1  0  0  0  0
  2  1  1  0  0  0  0
  2 15  1  0  0  0  0
  3 20  1  0  0  0  0
  3  9  2  0  0  0  0
  4 13  1  0  0  0  0
  4 12  2  0  0  0  0
  6  2  2  0  0  0  0
 10  8  2  0  0  0  0
 11 15  2  0  0  0  0
 11  7  1  0  0  0  0
 12  5  1  0  0  0  0
 12  7  1  0  0  0  0
 13 11  1  0  0  0  0
 14 19  2  0  0  0  0
 14 20  1  0  0  0  0
 15  3  1  0  0  0  0
 16  8  1  0  0  0  0
 17  6  1  0  0  0  0
 17 13  2  0  0  0  0
 18 19  1  0  0  0  0
 19 10  1  0  0  0  0
 20 16  2  0  0  0  0
 22 25  1  0  0  0  0
 23 24  1  0  0  0  0
 23 21  1  0  0  0  0
 25 24  2  0  0  0  0
 26 22  2  0  0  0  0
 26 27  1  0  0  0  0
 27 23  2  0  0  0  0
M  END
>  <MODEL>
4

>  <REMARK>
 VINA RESULT:      -9.2      3.133      6.301
  Name = 
  2 active torsions:
  status: ('A' for Active; 'I' for Inactive)
    1  A    between atoms: C_1  and  C_15
    2  A    between atoms: C_9  and  C_15
                            x       y       z     vdW  Elec       q    Type
                         _______ _______ _______ _____ _____    ______ ____

>  <TORSDO>
F 2

$$$$
=
 OpenBabel10272401093D

 27 31  0  0  1  0  0  0  0  0999 V2000
  187.4220  178.0180  142.5590 C   0  0  2  0  0  3  0  0  0  0  0  0
  186.0550  178.3760  143.0920 C   0  0  0  0  0  0  0  0  0  0  0  0
  185.0980  178.2410  140.7790 C   0  0  0  0  0  0  0  0  0  0  0  0
  182.2600  179.0640  144.4880 N   0  0  0  0  0  0  0  0  0  0  0  0
  180.1780  179.1530  143.1140 C   0  0  0  0  0  1  0  0  0  0  0  0
  185.9000  178.5880  144.4810 C   0  0  0  0  0  3  0  0  0  0  0  0
  182.4740  178.7220  142.2380 N   0  0  0  0  0  2  0  0  0  0  0  0
  187.9430  178.4380  138.3190 C   0  0  0  0  0  3  0  0  0  0  0  0
  184.0980  178.1220  140.0200 O   0  0  0  0  0  0  0  0  0  0  0  0
  189.0120  178.4180  139.1570 N   0  0  0  0  0  0  0  0  0  0  0  0
  183.6760  178.6410  142.8320 C   0  0  0  0  0  0  0  0  0  0  0  0
  181.6450  178.9780  143.2810 C   0  0  0  0  0  0  0  0  0  0  0  0
  183.5440  178.8470  144.1730 C   0  0  0  0  0  0  0  0  0  0  0  0
  187.5800  178.2350  141.0690 C   0  0  0  0  0  0  0  0  0  0  0  0
  184.9230  178.4050  142.2370 C   0  0  0  0  0  0  0  0  0  0  0  0
  186.6490  178.3640  138.8320 C   0  0  0  0  0  3  0  0  0  0  0  0
  184.6330  178.8340  145.0370 C   0  0  0  0  0  3  0  0  0  0  0  0
  189.9650  178.2890  141.2950 F   0  0  0  0  0  0  0  0  0  0  0  0
  188.8630  178.3210  140.5050 C   0  0  0  0  0  0  0  0  0  0  0  0
  186.4590  178.2640  140.2150 C   0  0  0  0  0  0  0  0  0  0  0  0
  187.8360  176.5960  142.9730 C   0  0  0  0  0  2  0  0  0  0  0  0
  191.5590  176.5200  145.1140 C   0  0  0  0  0  3  0  0  0  0  0  0
  189.1280  176.5520  143.7300 C   0  0  0  0  0  0  0  0  0  0  0  0
  190.2270  175.8650  143.2010 C   0  0  0  0  0  3  0  0  0  0  0  0
  191.4420  175.8490  143.8930 C   0  0  0  0  0  3  0  0  0  0  0  0
  190.4620  177.2040  145.6450 C   0  0  0  0  0  3  0  0  0  0  0  0
  189.2470  177.2210  144.9530 C   0  0  0  0  0  3  0  0  0  0  0  0
  1 21  1  6  0  0  0
  1  2  1  0  0  0  0
  2  6  1  0  0  0  0
  3 15  1  0  0  0  0
  5 12  1  0  0  0  0
  6 17  2  0  0  0  0
  7 11  1  0  0  0  0
  7 12  1  0  0  0  0
  8 16  2  0  0  0  0
  8 10  1  0  0  0  0
  9  3  2  0  0  0  0
 10 19  2  0  0  0  0
 11 13  2  0  0  0  0
 12  4  2  0  0  0  0
 13  4  1  0  0  0  0
 13 17  1  0  0  0  0
 14  1  1  0  0  0  0
 15 11  1  0  0  0  0
 15  2  2  0  0  0  0
 16 20  1  0  0  0  0
 19 14  1  0  0  0  0
 19 18  1  0  0  0  0
 20  3  1  0  0  0  0
 20 14  2  0  0  0  0
 21 23  1  0  0  0  0
 22 26  1  0  0  0  0
 23 27  1  0  0  0  0
 24 23  2  0  0  0  0
 24 25  1  0  0  0  0
 25 22  2  0  0  0  0
 27 26  2  0  0  0  0
M  END
>  <MODEL>
5

>  <REMARK>
 VINA RESULT:      -9.1      3.451      7.213
  Name = 
  2 active torsions:
  status: ('A' for Active; 'I' for Inactive)
    1  A    between atoms: C_1  and  C_15
    2  A    between atoms: C_9  and  C_15
                            x       y       z     vdW  Elec       q    Type
                         _______ _______ _______ _____ _____    ______ ____

>  <TORSDO>
F 2

$$$$
=
 OpenBabel10272401093D

 27 31  0  0  1  0  0  0  0  0999 V2000
  187.1550  178.2660  143.2240 C   0  0  2  0  0  3  0  0  0  0  0  0
  185.6910  178.6110  143.3680 C   0  0  0  0  0  0  0  0  0  0  0  0
  185.3470  178.2540  140.9110 C   0  0  0  0  0  0  0  0  0  0  0  0
  181.6550  179.2590  143.7140 N   0  0  0  0  0  0  0  0  0  0  0  0
  179.9830  179.1550  141.8640 C   0  0  0  0  0  1  0  0  0  0  0  0
  185.1890  178.9270  144.6510 C   0  0  0  0  0  3  0  0  0  0  0  0
  182.4330  178.7470  141.6260 N   0  0  0  0  0  2  0  0  0  0  0  0
  188.7130  178.3650  139.2250 C   0  0  0  0  0  3  0  0  0  0  0  0
  184.5710  178.0340  139.9410 O   0  0  0  0  0  0  0  0  0  0  0  0
  189.5380  178.4540  140.3010 N   0  0  0  0  0  0  0  0  0  0  0  0
  183.4490  178.7600  142.5040 C   0  0  0  0  0  0  0  0  0  0  0  0
  181.3640  179.0520  142.4050 C   0  0  0  0  0  0  0  0  0  0  0  0
  182.9820  179.0680  143.7470 C   0  0  0  0  0  0  0  0  0  0  0  0
  187.6760  178.3690  141.8070 C   0  0  0  0  0  0  0  0  0  0  0  0
  184.8090  178.5270  142.2600 C   0  0  0  0  0  0  0  0  0  0  0  0
  187.3330  178.2800  139.4060 C   0  0  0  0  0  3  0  0  0  0  0  0
  183.8200  179.1670  144.8520 C   0  0  0  0  0  3  0  0  0  0  0  0
  189.9270  178.5350  142.6120 F   0  0  0  0  0  0  0  0  0  0  0  0
  189.0580  178.4590  141.5730 C   0  0  0  0  0  0  0  0  0  0  0  0
  186.8050  178.2850  140.7020 C   0  0  0  0  0  0  0  0  0  0  0  0
  187.4770  176.8980  143.8500 C   0  0  0  0  0  2  0  0  0  0  0  0
  189.8190  177.2470  147.4350 C   0  0  0  0  0  3  0  0  0  0  0  0
  188.2910  176.9990  145.1040 C   0  0  0  0  0  0  0  0  0  0  0  0
  189.6800  176.8330  145.0530 C   0  0  0  0  0  3  0  0  0  0  0  0
  190.4430  176.9570  146.2180 C   0  0  0  0  0  3  0  0  0  0  0  0
  188.4320  177.4110  147.4880 C   0  0  0  0  0  3  0  0  0  0  0  0
  187.6680  177.2880  146.3230 C   0  0  0  0  0  3  0  0  0  0  0  0
  1  2  1  0  0  0  0
  1 21  1  6  0  0  0
  2  6  1  0  0  0  0
  3 15  1  0  0  0  0
  4 13  1  0  0  0  0
  5 12  1  0  0  0  0
  6 17  2  0  0  0  0
  7 12  1  0  0  0  0
  7 11  1  0  0  0  0
  8 16  2  0  0  0  0
  8 10  1  0  0  0  0
  9  3  2  0  0  0  0
 10 19  2  0  0  0  0
 11 13  2  0  0  0  0
 12  4  2  0  0  0  0
 13 17  1  0  0  0  0
 14  1  1  0  0  0  0
 15 11  1  0  0  0  0
 15  2  2  0  0  0  0
 16 20  1  0  0  0  0
 19 14  1  0  0  0  0
 19 18  1  0  0  0  0
 20  3  1  0  0  0  0
 20 14  2  0  0  0  0
 21 23  1  0  0  0  0
 22 26  1  0  0  0  0
 23 27  1  0  0  0  0
 24 23  2  0  0  0  0
 24 25  1  0  0  0  0
 25 22  2  0  0  0  0
 27 26  2  0  0  0  0
M  END
>  <MODEL>
6

>  <REMARK>
 VINA RESULT:      -9.1      3.433      6.772
  Name = 
  2 active torsions:
  status: ('A' for Active; 'I' for Inactive)
    1  A    between atoms: C_1  and  C_15
    2  A    between atoms: C_9  and  C_15
                            x       y       z     vdW  Elec       q    Type
                         _______ _______ _______ _____ _____    ______ ____

>  <TORSDO>
F 2

$$$$
=
 OpenBabel10272401093D

 27 31  0  0  1  0  0  0  0  0999 V2000
  187.0240  177.7080  142.9320 C   0  0  2  0  0  3  0  0  0  0  0  0
  185.5530  177.9250  142.6680 C   0  0  0  0  0  0  0  0  0  0  0  0
  185.2090  178.6140  145.0540 C   0  0  0  0  0  0  0  0  0  0  0  0
  181.6070  178.8100  141.9750 N   0  0  0  0  0  0  0  0  0  0  0  0
  179.9830  179.7060  143.6440 C   0  0  0  0  0  1  0  0  0  0  0  0
  185.0540  177.7020  141.3650 C   0  0  0  0  0  3  0  0  0  0  0  0
  182.3820  179.1860  144.0920 N   0  0  0  0  0  2  0  0  0  0  0  0
  188.1580  177.4060  147.0600 C   0  0  0  0  0  3  0  0  0  0  0  0
  184.5140  179.1980  145.9290 O   0  0  0  0  0  0  0  0  0  0  0  0
  188.9560  176.9130  146.0770 N   0  0  0  0  0  0  0  0  0  0  0  0
  183.3710  178.7090  143.3190 C   0  0  0  0  0  0  0  0  0  0  0  0
  181.3320  179.2330  143.2340 C   0  0  0  0  0  0  0  0  0  0  0  0
  182.9050  178.4850  142.0580 C   0  0  0  0  0  0  0  0  0  0  0  0
  187.3720  177.5490  144.3960 C   0  0  0  0  0  0  0  0  0  0  0  0
  184.6980  178.4370  143.6780 C   0  0  0  0  0  0  0  0  0  0  0  0
  186.9310  177.9840  146.7420 C   0  0  0  0  0  3  0  0  0  0  0  0
  183.7130  177.9760  141.0470 C   0  0  0  0  0  3  0  0  0  0  0  0
  189.4370  176.4760  143.8240 F   0  0  0  0  0  0  0  0  0  0  0  0
  188.5960  176.9690  144.7670 C   0  0  0  0  0  0  0  0  0  0  0  0
  186.5280  178.0570  145.4040 C   0  0  0  0  0  0  0  0  0  0  0  0
  187.8840  178.7890  142.2570 C   0  0  0  0  0  2  0  0  0  0  0  0
  190.0900  177.2700  138.8980 C   0  0  0  0  0  3  0  0  0  0  0  0
  188.6630  178.2780  141.0830 C   0  0  0  0  0  0  0  0  0  0  0  0
  189.8950  177.6430  141.2820 C   0  0  0  0  0  3  0  0  0  0  0  0
  190.6080  177.1390  140.1900 C   0  0  0  0  0  3  0  0  0  0  0  0
  188.8610  177.9050  138.6970 C   0  0  0  0  0  3  0  0  0  0  0  0
  188.1480  178.4090  139.7890 C   0  0  0  0  0  3  0  0  0  0  0  0
  1 21  1  1  0  0  0
  1 14  1  0  0  0  0
  2  1  1  0  0  0  0
  2 15  1  0  0  0  0
  3 20  1  0  0  0  0
  3  9  2  0  0  0  0
  4 13  1  0  0  0  0
  4 12  2  0  0  0  0
  6  2  2  0  0  0  0
 10  8  2  0  0  0  0
 11 15  2  0  0  0  0
 11  7  1  0  0  0  0
 12  5  1  0  0  0  0
 12  7  1  0  0  0  0
 13 11  1  0  0  0  0
 14 19  2  0  0  0  0
 14 20  1  0  0  0  0
 15  3  1  0  0  0  0
 16  8  1  0  0  0  0
 17  6  1  0  0  0  0
 17 13  2  0  0  0  0
 18 19  1  0  0  0  0
 19 10  1  0  0  0  0
 20 16  2  0  0  0  0
 22 25  1  0  0  0  0
 23 24  1  0  0  0  0
 23 21  1  0  0  0  0
 25 24  2  0  0  0  0
 26 22  2  0  0  0  0
 26 27  1  0  0  0  0
 27 23  2  0  0  0  0
M  END
>  <MODEL>
7

>  <REMARK>
 VINA RESULT:      -9.1      3.398      6.642
  Name = 
  2 active torsions:
  status: ('A' for Active; 'I' for Inactive)
    1  A    between atoms: C_1  and  C_15
    2  A    between atoms: C_9  and  C_15
                            x       y       z     vdW  Elec       q    Type
                         _______ _______ _______ _____ _____    ______ ____

>  <TORSDO>
F 2

$$$$
=
 OpenBabel10272401093D

 27 31  0  0  1  0  0  0  0  0999 V2000
  188.0230  177.5140  141.6280 C   0  0  2  0  0  3  0  0  0  0  0  0
  188.3920  177.2450  143.0680 C   0  0  0  0  0  0  0  0  0  0  0  0
  190.8260  177.4350  142.4980 C   0  0  0  0  0  0  0  0  0  0  0  0
  189.4750  176.8040  147.0000 N   0  0  0  0  0  0  0  0  0  0  0  0
  191.8020  176.8450  147.9010 C   0  0  0  0  0  1  0  0  0  0  0  0
  187.3580  177.0470  144.0100 C   0  0  0  0  0  3  0  0  0  0  0  0
  191.1720  177.1260  145.5030 N   0  0  0  0  0  2  0  0  0  0  0  0
  191.1920  177.0510  138.7690 C   0  0  0  0  0  3  0  0  0  0  0  0
  192.0190  177.6170  142.8640 O   0  0  0  0  0  0  0  0  0  0  0  0
  189.8890  177.0050  138.3850 N   0  0  0  0  0  0  0  0  0  0  0  0
  189.9900  177.1320  144.8650 C   0  0  0  0  0  0  0  0  0  0  0  0
  190.8110  176.9260  146.7950 C   0  0  0  0  0  0  0  0  0  0  0  0
  188.9810  176.9380  145.7610 C   0  0  0  0  0  0  0  0  0  0  0  0
  189.1530  177.2830  140.6480 C   0  0  0  0  0  0  0  0  0  0  0  0
  189.7450  177.2860  143.4940 C   0  0  0  0  0  0  0  0  0  0  0  0
  191.5190  177.2100  140.1140 C   0  0  0  0  0  3  0  0  0  0  0  0
  187.6460  176.8830  145.3760 C   0  0  0  0  0  3  0  0  0  0  0  0
  187.5910  177.0780  138.8430 F   0  0  0  0  0  0  0  0  0  0  0  0
  188.8730  177.1150  139.2820 C   0  0  0  0  0  0  0  0  0  0  0  0
  190.4990  177.3240  141.0650 C   0  0  0  0  0  0  0  0  0  0  0  0
  187.3970  178.9080  141.4560 C   0  0  0  0  0  2  0  0  0  0  0  0
  183.1200  178.7500  141.0800 C   0  0  0  0  0  3  0  0  0  0  0  0
  185.9050  178.8740  141.3250 C   0  0  0  0  0  0  0  0  0  0  0  0
  185.3120  178.8690  140.0570 C   0  0  0  0  0  3  0  0  0  0  0  0
  183.9200  178.8070  139.9350 C   0  0  0  0  0  3  0  0  0  0  0  0
  183.7100  178.7570  142.3470 C   0  0  0  0  0  3  0  0  0  0  0  0
  185.1020  178.8180  142.4710 C   0  0  0  0  0  3  0  0  0  0  0  0
  1 21  1  1  0  0  0
  1  2  1  0  0  0  0
  2 15  2  0  0  0  0
  2  6  1  0  0  0  0
  3  9  2  0  0  0  0
  3 15  1  0  0  0  0
  6 17  2  0  0  0  0
  7 12  1  0  0  0  0
  8 16  1  0  0  0  0
 10  8  2  0  0  0  0
 10 19  1  0  0  0  0
 11  7  1  0  0  0  0
 11 13  2  0  0  0  0
 12  4  2  0  0  0  0
 12  5  1  0  0  0  0
 13  4  1  0  0  0  0
 14 20  1  0  0  0  0
 14  1  1  0  0  0  0
 15 11  1  0  0  0  0
 16 20  2  0  0  0  0
 17 13  1  0  0  0  0
 18 19  1  0  0  0  0
 19 14  2  0  0  0  0
 20  3  1  0  0  0  0
 22 26  1  0  0  0  0
 23 21  1  0  0  0  0
 23 27  1  0  0  0  0
 24 23  2  0  0  0  0
 25 24  1  0  0  0  0
 25 22  2  0  0  0  0
 26 27  2  0  0  0  0
M  END
>  <MODEL>
8

>  <REMARK>
 VINA RESULT:      -8.9      2.226      5.396
  Name = 
  2 active torsions:
  status: ('A' for Active; 'I' for Inactive)
    1  A    between atoms: C_1  and  C_15
    2  A    between atoms: C_9  and  C_15
                            x       y       z     vdW  Elec       q    Type
                         _______ _______ _______ _____ _____    ______ ____

>  <TORSDO>
F 2

$$$$
=
 OpenBabel10272401093D

 27 31  0  0  1  0  0  0  0  0999 V2000
  189.1590  177.8900  141.7400 C   0  0  2  0  0  3  0  0  0  0  0  0
  189.3320  177.9350  143.2400 C   0  0  0  0  0  0  0  0  0  0  0  0
  186.8460  177.8300  143.5480 C   0  0  0  0  0  0  0  0  0  0  0  0
  189.7190  177.7710  147.3210 N   0  0  0  0  0  0  0  0  0  0  0  0
  187.8560  177.5890  148.9710 C   0  0  0  0  0  1  0  0  0  0  0  0
  190.6400  177.9900  143.7740 C   0  0  0  0  0  3  0  0  0  0  0  0
  187.5910  177.6770  146.4920 N   0  0  0  0  0  2  0  0  0  0  0  0
  185.2190  178.7750  140.2860 C   0  0  0  0  0  3  0  0  0  0  0  0
  185.8500  177.5920  144.2830 O   0  0  0  0  0  0  0  0  0  0  0  0
  186.3040  178.8820  139.4760 N   0  0  0  0  0  0  0  0  0  0  0  0
  188.4730  177.7710  145.4840 C   0  0  0  0  0  0  0  0  0  0  0  0
  188.3920  177.6780  147.5870 C   0  0  0  0  0  0  0  0  0  0  0  0
  189.7400  177.8280  145.9820 C   0  0  0  0  0  0  0  0  0  0  0  0
  187.7710  178.2640  141.2680 C   0  0  0  0  0  0  0  0  0  0  0  0
  188.2140  177.8270  144.1070 C   0  0  0  0  0  0  0  0  0  0  0  0
  185.3750  178.4140  141.6230 C   0  0  0  0  0  3  0  0  0  0  0  0
  190.8570  177.9430  145.1610 C   0  0  0  0  0  3  0  0  0  0  0  0
  188.6110  178.7450  139.0760 F   0  0  0  0  0  0  0  0  0  0  0  0
  187.5630  178.6390  139.9300 C   0  0  0  0  0  0  0  0  0  0  0  0
  186.6560  178.1580  142.1240 C   0  0  0  0  0  0  0  0  0  0  0  0
  189.6120  176.5390  141.1600 C   0  0  0  0  0  2  0  0  0  0  0  0
  192.9480  176.8290  138.4690 C   0  0  0  0  0  3  0  0  0  0  0  0
  190.7680  176.6590  140.2150 C   0  0  0  0  0  0  0  0  0  0  0  0
  191.9670  177.2420  140.6440 C   0  0  0  0  0  3  0  0  0  0  0  0
  193.0560  177.3270  139.7710 C   0  0  0  0  0  3  0  0  0  0  0  0
  191.7520  176.2480  138.0390 C   0  0  0  0  0  3  0  0  0  0  0  0
  190.6620  176.1630  138.9110 C   0  0  0  0  0  3  0  0  0  0  0  0
  1 21  1  1  0  0  0
  1  2  1  0  0  0  0
  2  6  2  0  0  0  0
  2 15  1  0  0  0  0
  3 15  1  0  0  0  0
  3  9  2  0  0  0  0
  4 12  2  0  0  0  0
  6 17  1  0  0  0  0
  7 12  1  0  0  0  0
  8 16  1  0  0  0  0
 10 19  1  0  0  0  0
 10  8  2  0  0  0  0
 11 13  1  0  0  0  0
 11  7  1  0  0  0  0
 12  5  1  0  0  0  0
 13  4  1  0  0  0  0
 14  1  1  0  0  0  0
 14 20  1  0  0  0  0
 15 11  2  0  0  0  0
 16 20  2  0  0  0  0
 17 13  2  0  0  0  0
 18 19  1  0  0  0  0
 19 14  2  0  0  0  0
 20  3  1  0  0  0  0
 22 25  1  0  0  0  0
 23 24  1  0  0  0  0
 23 21  1  0  0  0  0
 25 24  2  0  0  0  0
 26 22  2  0  0  0  0
 26 27  1  0  0  0  0
 27 23  2  0  0  0  0
M  END
>  <MODEL>
9

>  <REMARK>
 VINA RESULT:      -8.9      2.893      7.345
  Name = 
  2 active torsions:
  status: ('A' for Active; 'I' for Inactive)
    1  A    between atoms: C_1  and  C_15
    2  A    between atoms: C_9  and  C_15
                            x       y       z     vdW  Elec       q    Type
                         _______ _______ _______ _____ _____    ______ ____

>  <TORSDO>
F 2

$$$$
