=
 OpenBabel10272401593D

 28 32  0  0  1  0  0  0  0  0999 V2000
  183.6950  178.7880  142.0830 C   0  0  1  0  0  3  0  0  0  0  0  0
  188.8180  178.5020  140.5090 C   0  0  0  0  0  3  0  0  0  0  0  0
  187.0330  178.7830  145.7960 C   0  0  0  0  0  1  0  0  0  0  0  0
  189.5060  176.7420  142.0350 C   0  0  0  0  0  0  0  0  0  0  0  0
  187.5350  178.2330  142.6590 C   0  0  1  0  0  3  0  0  0  0  0  0
  190.7000  177.0900  139.9520 C   0  0  0  0  0  0  0  0  0  0  0  0
  188.6140  177.7880  141.6980 C   0  0  0  0  0  0  0  0  0  0  0  0
  188.6030  176.7080  144.3760 C   0  0  0  0  0  2  0  0  0  0  0  0
  190.5280  176.3890  141.1480 C   0  0  0  0  0  3  0  0  0  0  0  0
  185.1440  178.5500  144.1950 C   0  0  2  0  0  3  0  0  0  0  0  0
  186.2170  178.5690  141.9350 C   0  0  0  0  0  2  0  0  0  0  0  0
  189.3410  175.9330  143.2900 C   0  0  0  0  0  2  0  0  0  0  0  0
  182.7530  179.1520  144.4040 C   0  0  0  0  0  2  0  0  0  0  0  0
  186.3290  177.8180  144.8510 C   0  0  1  0  0  3  0  0  0  0  0  0
  183.8760  178.3280  145.0050 C   0  0  0  0  0  2  0  0  0  0  0  0
  191.7200  176.7350  139.0810 O   0  0  0  0  0  1  0  0  0  0  0  0
  189.8490  178.1510  139.6360 C   0  0  0  0  0  3  0  0  0  0  0  0
  187.2930  177.2340  143.8000 C   0  0  1  0  0  3  0  0  0  0  0  0
  182.4690  178.6580  142.9950 C   0  0  0  0  0  2  0  0  0  0  0  0
  184.9570  178.1570  142.7130 C   0  0  2  0  0  3  0  0  0  0  0  0
  183.3170  178.1970  140.7110 C   0  0  1  0  0  3  0  0  0  0  0  0
  181.8620  178.2590  140.3460 C   0  0  0  0  0  3  0  0  0  0  0  0
  182.1920  180.2240  138.8930 C   0  0  0  0  0  0  0  0  0  0  0  0
  184.4190  178.6550  139.3230 S   0  0  0  0  0  0  0  0  0  0  0  0
  179.9850  179.1610  139.2710 O   0  0  0  0  0  1  0  0  0  0  0  0
  181.3530  179.1760  139.5170 C   0  0  0  0  0  0  0  0  0  0  0  0
  181.5500  181.4610  138.3690 C   0  0  0  0  0  1  0  0  0  0  0  0
  183.5210  180.1440  138.8620 C   0  0  0  0  0  3  0  0  0  0  0  0
  1 20  1  0  0  0  0
  1 19  1  1  0  0  0
  2  7  1  0  0  0  0
  4 12  1  0  0  0  0
  5 11  1  6  0  0  0
  5 18  1  0  0  0  0
  6  9  2  0  0  0  0
  7  4  2  0  0  0  0
  7  5  1  0  0  0  0
  9  4  1  0  0  0  0
 10 14  1  0  0  0  0
 10 15  1  1  0  0  0
 12  8  1  0  0  0  0
 13 15  1  0  0  0  0
 14  3  1  1  0  0  0
 16  6  1  0  0  0  0
 17  6  1  0  0  0  0
 17  2  2  0  0  0  0
 18  8  1  1  0  0  0
 18 14  1  0  0  0  0
 19 13  1  0  0  0  0
 20 11  1  6  0  0  0
 20 10  1  0  0  0  0
 21 22  1  6  0  0  0
 21  1  1  0  0  0  0
 23 26  1  0  0  0  0
 24 21  1  0  0  0  0
 25 26  1  0  0  0  0
 26 22  2  0  0  0  0
 27 23  1  0  0  0  0
 28 23  2  0  0  0  0
 28 24  1  0  0  0  0
M  END
>  <MODEL>
1

>  <REMARK>
 VINA RESULT:      -9.4      0.000      0.000
  Name = 
  1 active torsions:
  status: ('A' for Active; 'I' for Inactive)
    1  A    between atoms: C_1  and  C_2
                            x       y       z     vdW  Elec       q    Type
                         _______ _______ _______ _____ _____    ______ ____

>  <TORSDO>
F 1

$$$$
=
 OpenBabel10272401593D

 28 32  0  0  1  0  0  0  0  0999 V2000
  190.4150  177.1030  143.1820 C   0  0  1  0  0  3  0  0  0  0  0  0
  185.0820  177.7030  143.0760 C   0  0  0  0  0  3  0  0  0  0  0  0
  188.1140  176.1840  147.5170 C   0  0  0  0  0  1  0  0  0  0  0  0
  184.8880  179.0400  145.0950 C   0  0  0  0  0  0  0  0  0  0  0  0
  186.8740  177.4630  144.8300 C   0  0  1  0  0  3  0  0  0  0  0  0
  183.1950  179.1870  143.3640 C   0  0  0  0  0  0  0  0  0  0  0  0
  185.6120  178.1140  144.3080 C   0  0  0  0  0  0  0  0  0  0  0  0
  186.3470  178.5220  147.0700 C   0  0  0  0  0  2  0  0  0  0  0  0
  183.6950  179.5830  144.6060 C   0  0  0  0  0  3  0  0  0  0  0  0
  189.5530  176.8140  145.5880 C   0  0  2  0  0  3  0  0  0  0  0  0
  187.9500  177.3250  143.7360 C   0  0  0  0  0  2  0  0  0  0  0  0
  185.4020  179.5260  146.4210 C   0  0  0  0  0  2  0  0  0  0  0  0
  191.8860  176.2040  145.0340 C   0  0  0  0  0  2  0  0  0  0  0  0
  188.6080  177.3540  146.6770 C   0  0  1  0  0  3  0  0  0  0  0  0
  190.9930  176.8490  146.0780 C   0  0  0  0  0  2  0  0  0  0  0  0
  182.0090  179.7290  142.8890 O   0  0  0  0  0  1  0  0  0  0  0  0
  183.8850  178.2420  142.6020 C   0  0  0  0  0  3  0  0  0  0  0  0
  187.4430  178.1630  146.0730 C   0  0  1  0  0  3  0  0  0  0  0  0
  191.8340  177.0250  143.7560 C   0  0  0  0  0  2  0  0  0  0  0  0
  189.3840  177.5520  144.2420 C   0  0  2  0  0  3  0  0  0  0  0  0
  190.4670  178.0090  141.9370 C   0  0  1  0  0  3  0  0  0  0  0  0
  191.7330  177.9470  141.1320 C   0  0  0  0  0  3  0  0  0  0  0  0
  190.7210  176.4640  139.4400 C   0  0  0  0  0  0  0  0  0  0  0  0
  188.9620  178.0120  140.8960 S   0  0  0  0  0  0  0  0  0  0  0  0
  193.0740  177.2370  139.3450 O   0  0  0  0  0  1  0  0  0  0  0  0
  191.8460  177.2500  139.9960 C   0  0  0  0  0  0  0  0  0  0  0  0
  191.0000  175.3690  138.4710 C   0  0  0  0  0  1  0  0  0  0  0  0
  189.4640  176.6400  139.8460 C   0  0  0  0  0  3  0  0  0  0  0  0
  1 19  1  1  0  0  0
  1 20  1  0  0  0  0
  2  7  1  0  0  0  0
  4 12  1  0  0  0  0
  5 11  1  6  0  0  0
  5 18  1  0  0  0  0
  6  9  2  0  0  0  0
  7  5  1  0  0  0  0
  7  4  2  0  0  0  0
  9  4  1  0  0  0  0
 10 15  1  1  0  0  0
 10 14  1  0  0  0  0
 12  8  1  0  0  0  0
 13 15  1  0  0  0  0
 14  3  1  6  0  0  0
 16  6  1  0  0  0  0
 17  2  2  0  0  0  0
 17  6  1  0  0  0  0
 18 14  1  0  0  0  0
 18  8  1  1  0  0  0
 19 13  1  0  0  0  0
 20 11  1  6  0  0  0
 20 10  1  0  0  0  0
 21 22  1  6  0  0  0
 21  1  1  0  0  0  0
 23 28  2  0  0  0  0
 23 26  1  0  0  0  0
 24 21  1  0  0  0  0
 25 26  1  0  0  0  0
 26 22  2  0  0  0  0
 27 23  1  0  0  0  0
 28 24  1  0  0  0  0
M  END
>  <MODEL>
2

>  <REMARK>
 VINA RESULT:      -9.3      2.508      7.388
  Name = 
  1 active torsions:
  status: ('A' for Active; 'I' for Inactive)
    1  A    between atoms: C_1  and  C_2
                            x       y       z     vdW  Elec       q    Type
                         _______ _______ _______ _____ _____    ______ ____

>  <TORSDO>
F 1

$$$$
=
 OpenBabel10272401593D

 28 32  0  0  1  0  0  0  0  0999 V2000
  183.2440  178.4530  141.2610 C   0  0  1  0  0  3  0  0  0  0  0  0
  188.6070  178.4640  141.0610 C   0  0  0  0  0  3  0  0  0  0  0  0
  185.5010  179.5570  145.5760 C   0  0  0  0  0  1  0  0  0  0  0  0
  188.9870  177.1260  143.0520 C   0  0  0  0  0  0  0  0  0  0  0  0
  186.8310  178.4700  142.8470 C   0  0  1  0  0  3  0  0  0  0  0  0
  190.6550  177.2000  141.2930 C   0  0  0  0  0  0  0  0  0  0  0  0
  188.1480  177.9760  142.2930 C   0  0  0  0  0  0  0  0  0  0  0  0
  187.5130  177.4420  145.0590 C   0  0  0  0  0  2  0  0  0  0  0  0
  190.2250  176.7290  142.5350 C   0  0  0  0  0  3  0  0  0  0  0  0
  184.1090  178.7990  143.6590 C   0  0  2  0  0  3  0  0  0  0  0  0
  185.7270  178.5040  141.7730 C   0  0  0  0  0  2  0  0  0  0  0  0
  188.5540  176.5630  144.3770 C   0  0  0  0  0  2  0  0  0  0  0  0
  181.7120  179.1480  143.1520 C   0  0  0  0  0  2  0  0  0  0  0  0
  185.1280  178.3520  144.7220 C   0  0  1  0  0  3  0  0  0  0  0  0
  182.6920  178.5930  144.1700 C   0  0  0  0  0  2  0  0  0  0  0  0
  191.8860  176.8040  140.7900 O   0  0  0  0  0  1  0  0  0  0  0  0
  189.8490  178.0720  140.5590 C   0  0  0  0  0  3  0  0  0  0  0  0
  186.3670  177.6900  144.0860 C   0  0  1  0  0  3  0  0  0  0  0  0
  181.8350  178.3600  141.8590 C   0  0  0  0  0  2  0  0  0  0  0  0
  184.3370  178.1070  142.2970 C   0  0  2  0  0  3  0  0  0  0  0  0
  183.2720  177.5670  140.0010 C   0  0  1  0  0  3  0  0  0  0  0  0
  182.0370  176.7540  139.7400 C   0  0  0  0  0  3  0  0  0  0  0  0
  181.2110  178.3420  138.0430 C   0  0  0  0  0  0  0  0  0  0  0  0
  183.9330  178.3620  138.4900 S   0  0  0  0  0  0  0  0  0  0  0  0
  179.9840  176.2940  138.7070 O   0  0  0  0  0  1  0  0  0  0  0  0
  181.1040  177.1040  138.8480 C   0  0  0  0  0  0  0  0  0  0  0  0
  179.9870  178.9220  137.4260 C   0  0  0  0  0  1  0  0  0  0  0  0
  182.3550  179.0140  137.9230 C   0  0  0  0  0  3  0  0  0  0  0  0
  1 19  1  1  0  0  0
  1 20  1  0  0  0  0
  2  7  1  0  0  0  0
  4 12  1  0  0  0  0
  5 11  1  6  0  0  0
  5 18  1  0  0  0  0
  6  9  2  0  0  0  0
  7  5  1  0  0  0  0
  7  4  2  0  0  0  0
  9  4  1  0  0  0  0
 10 15  1  1  0  0  0
 10 14  1  0  0  0  0
 12  8  1  0  0  0  0
 13 15  1  0  0  0  0
 14  3  1  6  0  0  0
 16  6  1  0  0  0  0
 17  2  2  0  0  0  0
 17  6  1  0  0  0  0
 18 14  1  0  0  0  0
 18  8  1  1  0  0  0
 19 13  1  0  0  0  0
 20 11  1  6  0  0  0
 20 10  1  0  0  0  0
 21 22  1  6  0  0  0
 21  1  1  0  0  0  0
 23 26  1  0  0  0  0
 24 21  1  0  0  0  0
 25 26  1  0  0  0  0
 26 22  2  0  0  0  0
 27 23  1  0  0  0  0
 28 23  2  0  0  0  0
 28 24  1  0  0  0  0
M  END
>  <MODEL>
3

>  <REMARK>
 VINA RESULT:      -9.1      1.313      1.551
  Name = 
  1 active torsions:
  status: ('A' for Active; 'I' for Inactive)
    1  A    between atoms: C_1  and  C_2
                            x       y       z     vdW  Elec       q    Type
                         _______ _______ _______ _____ _____    ______ ____

>  <TORSDO>
F 1

$$$$
=
 OpenBabel10272401593D

 28 32  0  0  1  0  0  0  0  0999 V2000
  187.1470  178.2100  139.2740 C   0  0  1  0  0  3  0  0  0  0  0  0
  190.2090  178.3810  143.6790 C   0  0  0  0  0  3  0  0  0  0  0  0
  184.8290  179.8610  143.3780 C   0  0  0  0  0  1  0  0  0  0  0  0
  188.6440  177.2850  145.1790 C   0  0  0  0  0  0  0  0  0  0  0  0
  187.7540  178.5250  143.1370 C   0  0  1  0  0  3  0  0  0  0  0  0
  191.0250  177.2200  145.6370 C   0  0  0  0  0  0  0  0  0  0  0  0
  188.8920  178.0170  143.9940 C   0  0  0  0  0  0  0  0  0  0  0  0
  186.1900  177.7720  144.9810 C   0  0  0  0  0  2  0  0  0  0  0  0
  189.7160  176.8760  145.9790 C   0  0  0  0  0  3  0  0  0  0  0  0
  185.6290  178.8490  141.2510 C   0  0  2  0  0  3  0  0  0  0  0  0
  188.0620  178.4020  141.6320 C   0  0  0  0  0  2  0  0  0  0  0  0
  187.2580  176.8580  145.5710 C   0  0  0  0  0  2  0  0  0  0  0  0
  184.7870  179.0580  138.9340 C   0  0  0  0  0  2  0  0  0  0  0  0
  185.2540  178.5570  142.7150 C   0  0  1  0  0  3  0  0  0  0  0  0
  184.4200  178.6520  140.3490 C   0  0  0  0  0  2  0  0  0  0  0  0
  192.0820  176.8130  146.4390 O   0  0  0  0  0  1  0  0  0  0  0  0
  191.2710  177.9790  144.4910 C   0  0  0  0  0  3  0  0  0  0  0  0
  186.4060  177.8720  143.4760 C   0  0  1  0  0  3  0  0  0  0  0  0
  185.8790  178.1360  138.4160 C   0  0  0  0  0  2  0  0  0  0  0  0
  186.8420  178.0180  140.7770 C   0  0  2  0  0  3  0  0  0  0  0  0
  188.1530  177.1920  138.7050 C   0  0  1  0  0  3  0  0  0  0  0  0
  187.5910  176.1760  137.7520 C   0  0  0  0  0  3  0  0  0  0  0  0
  188.4180  177.4010  135.7770 C   0  0  0  0  0  0  0  0  0  0  0  0
  189.7500  177.8870  138.1430 S   0  0  0  0  0  0  0  0  0  0  0  0
  187.1320  175.2870  135.6330 O   0  0  0  0  0  1  0  0  0  0  0  0
  187.7160  176.2680  136.4240 C   0  0  0  0  0  0  0  0  0  0  0  0
  188.1470  177.7090  134.3460 C   0  0  0  0  0  1  0  0  0  0  0  0
  189.2210  178.2180  136.4560 C   0  0  0  0  0  3  0  0  0  0  0  0
  1 19  1  6  0  0  0
  1 20  1  0  0  0  0
  2  7  2  0  0  0  0
  2 17  1  0  0  0  0
  4 12  1  0  0  0  0
  4  9  2  0  0  0  0
  5 11  1  6  0  0  0
  5 18  1  0  0  0  0
  5  7  1  0  0  0  0
  6  9  1  0  0  0  0
  6 16  1  0  0  0  0
  7  4  1  0  0  0  0
  8 12  1  0  0  0  0
 10 15  1  6  0  0  0
 10 14  1  0  0  0  0
 13 15  1  0  0  0  0
 14  3  1  1  0  0  0
 14 18  1  0  0  0  0
 17  6  2  0  0  0  0
 18  8  1  1  0  0  0
 19 13  1  0  0  0  0
 20 10  1  0  0  0  0
 20 11  1  1  0  0  0
 21 22  1  6  0  0  0
 21  1  1  0  0  0  0
 23 26  1  0  0  0  0
 23 28  2  0  0  0  0
 24 21  1  0  0  0  0
 25 26  1  0  0  0  0
 26 22  2  0  0  0  0
 27 23  1  0  0  0  0
 28 24  1  0  0  0  0
M  END
>  <MODEL>
4

>  <REMARK>
 VINA RESULT:      -9.0      3.119      5.155
  Name = 
  1 active torsions:
  status: ('A' for Active; 'I' for Inactive)
    1  A    between atoms: C_1  and  C_2
                            x       y       z     vdW  Elec       q    Type
                         _______ _______ _______ _____ _____    ______ ____

>  <TORSDO>
F 1

$$$$
=
 OpenBabel10272401593D

 28 32  0  0  1  0  0  0  0  0999 V2000
  189.9700  177.1890  138.7590 C   0  0  1  0  0  3  0  0  0  0  0  0
  191.1140  177.9740  143.9440 C   0  0  0  0  0  3  0  0  0  0  0  0
  186.4140  179.5390  141.3600 C   0  0  0  0  0  1  0  0  0  0  0  0
  189.0040  177.1760  144.8440 C   0  0  0  0  0  0  0  0  0  0  0  0
  189.0770  178.0990  142.4690 C   0  0  1  0  0  3  0  0  0  0  0  0
  191.0120  177.1170  146.2030 C   0  0  0  0  0  0  0  0  0  0  0  0
  189.7500  177.7020  143.7630 C   0  0  0  0  0  0  0  0  0  0  0  0
  186.8660  177.6940  143.6360 C   0  0  0  0  0  2  0  0  0  0  0  0
  189.6460  176.8700  146.0480 C   0  0  0  0  0  3  0  0  0  0  0  0
  187.8740  178.1780  139.8760 C   0  0  2  0  0  3  0  0  0  0  0  0
  189.9250  177.7280  141.2370 C   0  0  0  0  0  2  0  0  0  0  0  0
  187.5410  176.8570  144.7150 C   0  0  0  0  0  2  0  0  0  0  0  0
  188.0050  178.0380  137.4090 C   0  0  0  0  0  2  0  0  0  0  0  0
  186.9420  178.1340  141.1000 C   0  0  1  0  0  3  0  0  0  0  0  0
  187.0900  177.8740  138.6080 C   0  0  0  0  0  2  0  0  0  0  0  0
  191.6400  176.8140  147.4030 O   0  0  0  0  0  1  0  0  0  0  0  0
  191.7440  177.6760  145.1540 C   0  0  0  0  0  3  0  0  0  0  0  0
  187.6500  177.5470  142.3370 C   0  0  1  0  0  3  0  0  0  0  0  0
  189.1260  177.0150  137.4910 C   0  0  0  0  0  2  0  0  0  0  0  0
  189.0970  177.2480  140.0330 C   0  0  2  0  0  3  0  0  0  0  0  0
  191.0230  176.0640  138.7730 C   0  0  1  0  0  3  0  0  0  0  0  0
  190.7610  174.9070  137.8530 C   0  0  0  0  0  3  0  0  0  0  0  0
  192.3500  175.7430  136.1620 C   0  0  0  0  0  0  0  0  0  0  0  0
  192.7680  176.6140  138.7460 S   0  0  0  0  0  0  0  0  0  0  0  0
  191.0290  173.6650  135.8830 O   0  0  0  0  0  1  0  0  0  0  0  0
  191.3670  174.7590  136.6700 C   0  0  0  0  0  0  0  0  0  0  0  0
  192.6460  175.7980  134.7040 C   0  0  0  0  0  1  0  0  0  0  0  0
  192.9190  176.6520  136.9540 C   0  0  0  0  0  3  0  0  0  0  0  0
  1 19  1  6  0  0  0
  1 21  1  0  0  0  0
  1 20  1  0  0  0  0
  2 17  1  0  0  0  0
  4  9  2  0  0  0  0
  5 11  1  6  0  0  0
  5  7  1  0  0  0  0
  6 16  1  0  0  0  0
  7  2  2  0  0  0  0
  7  4  1  0  0  0  0
  8 12  1  0  0  0  0
  9  6  1  0  0  0  0
 10 15  1  6  0  0  0
 10 20  1  0  0  0  0
 10 14  1  0  0  0  0
 12  4  1  0  0  0  0
 13 19  1  0  0  0  0
 13 15  1  0  0  0  0
 14  3  1  1  0  0  0
 14 18  1  0  0  0  0
 17  6  2  0  0  0  0
 18  5  1  0  0  0  0
 18  8  1  1  0  0  0
 20 11  1  1  0  0  0
 21 22  1  6  0  0  0
 23 26  1  0  0  0  0
 23 28  2  0  0  0  0
 24 21  1  0  0  0  0
 25 26  1  0  0  0  0
 26 22  2  0  0  0  0
 27 23  1  0  0  0  0
 28 24  1  0  0  0  0
M  END
>  <MODEL>
5

>  <REMARK>
 VINA RESULT:      -8.3      4.175      7.341
  Name = 
  1 active torsions:
  status: ('A' for Active; 'I' for Inactive)
    1  A    between atoms: C_1  and  C_2
                            x       y       z     vdW  Elec       q    Type
                         _______ _______ _______ _____ _____    ______ ____

>  <TORSDO>
F 1

$$$$
=
 OpenBabel10272401593D

 28 32  0  0  1  0  0  0  0  0999 V2000
  186.1080  178.2840  139.8010 C   0  0  1  0  0  3  0  0  0  0  0  0
  187.3140  176.9130  144.8480 C   0  0  0  0  0  3  0  0  0  0  0  0
  190.7410  176.5380  140.4510 C   0  0  0  0  0  1  0  0  0  0  0  0
  189.4500  178.0630  144.9720 C   0  0  0  0  0  0  0  0  0  0  0  0
  188.5660  177.3160  142.7000 C   0  0  1  0  0  3  0  0  0  0  0  0
  188.1870  177.6100  146.9930 C   0  0  0  0  0  0  0  0  0  0  0  0
  188.4240  177.4730  144.1980 C   0  0  0  0  0  0  0  0  0  0  0  0
  190.9650  178.0840  142.9710 C   0  0  0  0  0  2  0  0  0  0  0  0
  189.3130  178.1440  146.3610 C   0  0  0  0  0  3  0  0  0  0  0  0
  188.6060  177.6720  139.8630 C   0  0  2  0  0  3  0  0  0  0  0  0
  187.2430  177.5910  141.9600 C   0  0  0  0  0  2  0  0  0  0  0  0
  190.6620  178.6850  144.3380 C   0  0  0  0  0  2  0  0  0  0  0  0
  187.4620  177.9560  137.6880 C   0  0  0  0  0  2  0  0  0  0  0  0
  189.9350  177.8190  140.6260 C   0  0  1  0  0  3  0  0  0  0  0  0
  188.7470  178.2190  138.4510 C   0  0  0  0  0  2  0  0  0  0  0  0
  188.0620  177.6910  148.3720 O   0  0  0  0  0  1  0  0  0  0  0  0
  187.1910  176.9880  146.2370 C   0  0  0  0  0  3  0  0  0  0  0  0
  189.7080  178.1590  142.1120 C   0  0  1  0  0  3  0  0  0  0  0  0
  186.3240  178.7180  138.3460 C   0  0  0  0  0  2  0  0  0  0  0  0
  187.4210  178.3160  140.6160 C   0  0  2  0  0  3  0  0  0  0  0  0
  184.9870  179.1630  140.3860 C   0  0  1  0  0  3  0  0  0  0  0  0
  184.1070  179.8580  139.3870 C   0  0  0  0  0  3  0  0  0  0  0  0
  182.3050  178.1940  139.6450 C   0  0  0  0  0  0  0  0  0  0  0  0
  184.0460  178.4270  141.7720 S   0  0  0  0  0  0  0  0  0  0  0  0
  182.1690  180.1220  138.0950 O   0  0  0  0  0  1  0  0  0  0  0  0
  182.8870  179.4200  139.0550 C   0  0  0  0  0  0  0  0  0  0  0  0
  181.1900  177.5000  138.9430 C   0  0  0  0  0  1  0  0  0  0  0  0
  182.8030  177.6290  140.7450 C   0  0  0  0  0  3  0  0  0  0  0  0
  1 19  1  6  0  0  0
  1 21  1  0  0  0  0
  1 20  1  0  0  0  0
  2 17  1  0  0  0  0
  4  9  2  0  0  0  0
  5 11  1  6  0  0  0
  5  7  1  0  0  0  0
  6 16  1  0  0  0  0
  7  2  2  0  0  0  0
  7  4  1  0  0  0  0
  8 12  1  0  0  0  0
  9  6  1  0  0  0  0
 10 15  1  6  0  0  0
 10 20  1  0  0  0  0
 10 14  1  0  0  0  0
 12  4  1  0  0  0  0
 13 19  1  0  0  0  0
 13 15  1  0  0  0  0
 14  3  1  1  0  0  0
 14 18  1  0  0  0  0
 17  6  2  0  0  0  0
 18  5  1  0  0  0  0
 18  8  1  1  0  0  0
 20 11  1  1  0  0  0
 21 22  1  6  0  0  0
 21 24  1  0  0  0  0
 23 28  2  0  0  0  0
 25 26  1  0  0  0  0
 26 22  2  0  0  0  0
 26 23  1  0  0  0  0
 27 23  1  0  0  0  0
 28 24  1  0  0  0  0
M  END
>  <MODEL>
6

>  <REMARK>
 VINA RESULT:      -8.2      2.660      4.917
  Name = 
  1 active torsions:
  status: ('A' for Active; 'I' for Inactive)
    1  A    between atoms: C_1  and  C_2
                            x       y       z     vdW  Elec       q    Type
                         _______ _______ _______ _____ _____    ______ ____

>  <TORSDO>
F 1

$$$$
=
 OpenBabel10272401593D

 28 32  0  0  1  0  0  0  0  0999 V2000
  187.5390  178.1120  142.9040 C   0  0  1  0  0  3  0  0  0  0  0  0
  183.6220  179.3610  139.4540 C   0  0  0  0  0  3  0  0  0  0  0  0
  189.0610  178.9870  138.2290 C   0  0  0  0  0  1  0  0  0  0  0  0
  184.2840  177.8400  137.6800 C   0  0  0  0  0  0  0  0  0  0  0  0
  186.0430  178.6800  139.3230 C   0  0  1  0  0  3  0  0  0  0  0  0
  181.9780  178.5690  137.8670 C   0  0  0  0  0  0  0  0  0  0  0  0
  184.6150  178.5910  138.8330 C   0  0  0  0  0  0  0  0  0  0  0  0
  186.7210  177.4900  137.1920 C   0  0  0  0  0  2  0  0  0  0  0  0
  182.9630  177.8210  137.2200 C   0  0  0  0  0  3  0  0  0  0  0  0
  188.5860  178.2530  140.5580 C   0  0  2  0  0  3  0  0  0  0  0  0
  186.1320  178.6370  140.8600 C   0  0  0  0  0  2  0  0  0  0  0  0
  185.2990  176.9890  136.9700 C   0  0  0  0  0  2  0  0  0  0  0  0
  190.0450  178.1310  142.5530 C   0  0  0  0  0  2  0  0  0  0  0  0
  188.4370  177.8820  139.0720 C   0  0  1  0  0  3  0  0  0  0  0  0
  189.8640  177.6540  141.1240 C   0  0  0  0  0  2  0  0  0  0  0  0
  180.6710  178.5470  137.4010 O   0  0  0  0  0  1  0  0  0  0  0  0
  182.3090  179.3450  138.9800 C   0  0  0  0  0  3  0  0  0  0  0  0
  186.9650  177.6270  138.6900 C   0  0  1  0  0  3  0  0  0  0  0  0
  188.8990  177.6100  143.4030 C   0  0  0  0  0  2  0  0  0  0  0  0
  187.3470  177.8580  141.3910 C   0  0  2  0  0  3  0  0  0  0  0  0
  186.4540  177.4700  143.7890 C   0  0  1  0  0  3  0  0  0  0  0  0
  186.9070  176.9790  145.1340 C   0  0  0  0  0  3  0  0  0  0  0  0
  186.0180  178.9690  146.2870 C   0  0  0  0  0  0  0  0  0  0  0  0
  184.8590  178.3640  143.8590 S   0  0  0  0  0  0  0  0  0  0  0  0
  187.1930  177.1260  147.4550 O   0  0  0  0  0  1  0  0  0  0  0  0
  186.7050  177.6580  146.2680 C   0  0  0  0  0  0  0  0  0  0  0  0
  186.2130  179.8810  147.4480 C   0  0  0  0  0  1  0  0  0  0  0  0
  185.2970  179.4080  145.2570 C   0  0  0  0  0  3  0  0  0  0  0  0
  1 19  1  1  0  0  0
  1 21  1  0  0  0  0
  4  7  1  0  0  0  0
  5 11  1  1  0  0  0
  6 17  2  0  0  0  0
  7  5  1  0  0  0  0
  7  2  2  0  0  0  0
  9  4  2  0  0  0  0
  9  6  1  0  0  0  0
 10 15  1  1  0  0  0
 10 20  1  0  0  0  0
 12  8  1  0  0  0  0
 12  4  1  0  0  0  0
 13 19  1  0  0  0  0
 14  3  1  6  0  0  0
 14 10  1  0  0  0  0
 15 13  1  0  0  0  0
 16  6  1  0  0  0  0
 17  2  1  0  0  0  0
 18  8  1  6  0  0  0
 18 14  1  0  0  0  0
 18  5  1  0  0  0  0
 20 11  1  6  0  0  0
 20  1  1  0  0  0  0
 21 24  1  0  0  0  0
 21 22  1  1  0  0  0
 22 26  2  0  0  0  0
 23 27  1  0  0  0  0
 24 28  1  0  0  0  0
 26 23  1  0  0  0  0
 26 25  1  0  0  0  0
 28 23  2  0  0  0  0
M  END
>  <MODEL>
7

>  <REMARK>
 VINA RESULT:      -7.5      2.764      7.100
  Name = 
  1 active torsions:
  status: ('A' for Active; 'I' for Inactive)
    1  A    between atoms: C_1  and  C_2
                            x       y       z     vdW  Elec       q    Type
                         _______ _______ _______ _____ _____    ______ ____

>  <TORSDO>
F 1

$$$$
=
 OpenBabel10272401593D

 28 32  0  0  1  0  0  0  0  0999 V2000
  189.7280  177.2390  140.0150 C   0  0  1  0  0  3  0  0  0  0  0  0
  184.7870  179.0850  139.0220 C   0  0  0  0  0  3  0  0  0  0  0  0
  188.6180  177.7610  135.1750 C   0  0  0  0  0  1  0  0  0  0  0  0
  184.1840  177.4430  137.3360 C   0  0  0  0  0  0  0  0  0  0  0  0
  186.6440  177.9960  137.7130 C   0  0  1  0  0  3  0  0  0  0  0  0
  182.4600  178.5600  138.6260 C   0  0  0  0  0  0  0  0  0  0  0  0
  185.1790  178.1450  138.0570 C   0  0  0  0  0  0  0  0  0  0  0  0
  185.9080  176.6710  135.6840 C   0  0  0  0  0  2  0  0  0  0  0  0
  182.8340  177.6430  137.6410 C   0  0  0  0  0  3  0  0  0  0  0  0
  189.3670  177.1600  137.4700 C   0  0  2  0  0  3  0  0  0  0  0  0
  187.5340  177.9640  138.9710 C   0  0  0  0  0  2  0  0  0  0  0  0
  184.5350  176.4180  136.2940 C   0  0  0  0  0  2  0  0  0  0  0  0
  191.6340  176.8230  138.4030 C   0  0  0  0  0  2  0  0  0  0  0  0
  188.3970  176.7940  136.3310 C   0  0  1  0  0  3  0  0  0  0  0  0
  190.6540  176.3590  137.3400 C   0  0  0  0  0  2  0  0  0  0  0  0
  181.1180  178.7550  138.9190 O   0  0  0  0  0  1  0  0  0  0  0  0
  183.4360  179.2860  139.3110 C   0  0  0  0  0  3  0  0  0  0  0  0
  186.9310  176.7900  136.8070 C   0  0  1  0  0  3  0  0  0  0  0  0
  191.0610  176.5200  139.7770 C   0  0  0  0  0  2  0  0  0  0  0  0
  188.7250  176.9970  138.8650 C   0  0  2  0  0  3  0  0  0  0  0  0
  189.2090  176.8080  141.4000 C   0  0  1  0  0  3  0  0  0  0  0  0
  190.1730  176.0350  142.2530 C   0  0  0  0  0  3  0  0  0  0  0  0
  190.7510  178.0190  143.5990 C   0  0  0  0  0  0  0  0  0  0  0  0
  188.2990  178.0900  142.3380 S   0  0  0  0  0  0  0  0  0  0  0  0
  191.7580  175.7830  143.9610 O   0  0  0  0  0  1  0  0  0  0  0  0
  190.8690  176.5840  143.2540 C   0  0  0  0  0  0  0  0  0  0  0  0
  191.8370  178.6770  144.3770 C   0  0  0  0  0  1  0  0  0  0  0  0
  189.7460  178.7740  143.1600 C   0  0  0  0  0  3  0  0  0  0  0  0
  1 19  1  6  0  0  0
  1 21  1  0  0  0  0
  2 17  1  0  0  0  0
  4  9  2  0  0  0  0
  4  7  1  0  0  0  0
  5  7  1  0  0  0  0
  5 11  1  1  0  0  0
  6 16  1  0  0  0  0
  6 17  2  0  0  0  0
  7  2  2  0  0  0  0
  8 12  1  0  0  0  0
  9  6  1  0  0  0  0
 10 15  1  1  0  0  0
 10 20  1  0  0  0  0
 12  4  1  0  0  0  0
 13 19  1  0  0  0  0
 14  3  1  6  0  0  0
 14 18  1  0  0  0  0
 14 10  1  0  0  0  0
 15 13  1  0  0  0  0
 18  8  1  6  0  0  0
 18  5  1  0  0  0  0
 20 11  1  1  0  0  0
 20  1  1  0  0  0  0
 21 22  1  1  0  0  0
 21 24  1  0  0  0  0
 22 26  2  0  0  0  0
 23 27  1  0  0  0  0
 24 28  1  0  0  0  0
 26 23  1  0  0  0  0
 26 25  1  0  0  0  0
 28 23  2  0  0  0  0
M  END
>  <MODEL>
8

>  <REMARK>
 VINA RESULT:      -7.5      3.063      8.496
  Name = 
  1 active torsions:
  status: ('A' for Active; 'I' for Inactive)
    1  A    between atoms: C_1  and  C_2
                            x       y       z     vdW  Elec       q    Type
                         _______ _______ _______ _____ _____    ______ ____

>  <TORSDO>
F 1

$$$$
=
 OpenBabel10272401593D

 28 32  0  0  1  0  0  0  0  0999 V2000
  188.6870  177.9240  142.9120 C   0  0  1  0  0  3  0  0  0  0  0  0
  187.5740  177.7040  137.6670 C   0  0  0  0  0  3  0  0  0  0  0  0
  192.6840  177.8860  139.9190 C   0  0  0  0  0  1  0  0  0  0  0  0
  189.1280  175.9250  137.1010 C   0  0  0  0  0  0  0  0  0  0  0  0
  189.5960  177.3900  139.1340 C   0  0  1  0  0  3  0  0  0  0  0  0
  187.1670  176.3160  135.7290 C   0  0  0  0  0  0  0  0  0  0  0  0
  188.7300  176.9690  137.9690 C   0  0  0  0  0  0  0  0  0  0  0  0
  191.3790  175.8460  138.2100 C   0  0  0  0  0  2  0  0  0  0  0  0
  188.3320  175.5950  136.0000 C   0  0  0  0  0  3  0  0  0  0  0  0
  190.9170  177.6630  141.6560 C   0  0  2  0  0  3  0  0  0  0  0  0
  188.7620  177.7270  140.3850 C   0  0  0  0  0  2  0  0  0  0  0  0
  190.3520  175.0950  137.3710 C   0  0  0  0  0  2  0  0  0  0  0  0
  190.9190  178.2430  144.0610 C   0  0  0  0  0  2  0  0  0  0  0  0
  191.6650  176.9310  140.5270 C   0  0  1  0  0  3  0  0  0  0  0  0
  191.6070  177.4180  142.9890 C   0  0  0  0  0  2  0  0  0  0  0  0
  186.3850  175.9830  134.6320 O   0  0  0  0  0  1  0  0  0  0  0  0
  186.7920  177.3750  136.5580 C   0  0  0  0  0  3  0  0  0  0  0  0
  190.6960  176.3710  139.4670 C   0  0  1  0  0  3  0  0  0  0  0  0
  189.4840  177.7690  144.2130 C   0  0  0  0  0  2  0  0  0  0  0  0
  189.4180  177.2920  141.7060 C   0  0  2  0  0  3  0  0  0  0  0  0
  187.2780  177.3520  143.1600 C   0  0  1  0  0  3  0  0  0  0  0  0
  187.0490  176.7300  144.5070 C   0  0  0  0  0  3  0  0  0  0  0  0
  185.8840  178.7290  145.3600 C   0  0  0  0  0  0  0  0  0  0  0  0
  185.8880  178.4120  142.6200 S   0  0  0  0  0  0  0  0  0  0  0  0
  186.2800  176.6960  146.7210 O   0  0  0  0  0  1  0  0  0  0  0  0
  186.4120  177.3530  145.5040 C   0  0  0  0  0  0  0  0  0  0  0  0
  185.6070  179.5380  146.5790 C   0  0  0  0  0  1  0  0  0  0  0  0
  185.7310  179.3100  144.1710 C   0  0  0  0  0  3  0  0  0  0  0  0
  1 21  1  0  0  0  0
  1 19  1  1  0  0  0
  2  7  1  0  0  0  0
  4 12  1  0  0  0  0
  4  7  2  0  0  0  0
  5 18  1  0  0  0  0
  5 11  1  1  0  0  0
  6  9  2  0  0  0  0
  6 17  1  0  0  0  0
  7  5  1  0  0  0  0
  9  4  1  0  0  0  0
 10 20  1  0  0  0  0
 10 15  1  1  0  0  0
 12  8  1  0  0  0  0
 13 19  1  0  0  0  0
 14  3  1  6  0  0  0
 14 10  1  0  0  0  0
 15 13  1  0  0  0  0
 16  6  1  0  0  0  0
 17  2  2  0  0  0  0
 18  8  1  6  0  0  0
 18 14  1  0  0  0  0
 20 11  1  6  0  0  0
 20  1  1  0  0  0  0
 21 22  1  1  0  0  0
 22 26  2  0  0  0  0
 23 26  1  0  0  0  0
 23 27  1  0  0  0  0
 24 21  1  0  0  0  0
 24 28  1  0  0  0  0
 26 25  1  0  0  0  0
 28 23  2  0  0  0  0
M  END
>  <MODEL>
9

>  <REMARK>
 VINA RESULT:      -7.3      3.732      6.372
  Name = 
  1 active torsions:
  status: ('A' for Active; 'I' for Inactive)
    1  A    between atoms: C_1  and  C_2
                            x       y       z     vdW  Elec       q    Type
                         _______ _______ _______ _____ _____    ______ ____

>  <TORSDO>
F 1

$$$$
