=
 OpenBabel10272413103D

 32 37  0  0  1  0  0  0  0  0999 V2000
  185.2140  178.0880  142.8570 N   0  0  0  0  0  0  0  0  0  0  0  0
  185.3500  178.4310  140.4620 C   0  0  0  0  0  0  0  0  0  0  0  0
  184.5880  178.4000  141.5890 C   0  0  0  0  0  0  0  0  0  0  0  0
  184.7390  178.6010  139.0960 C   0  0  1  0  0  3  0  0  0  0  0  0
  189.7870  178.1450  138.3990 C   0  0  0  0  0  3  0  0  0  0  0  0
  186.8140  178.2020  140.5530 C   0  0  0  0  0  0  0  0  0  0  0  0
  187.8390  178.6150  137.0510 C   0  0  0  0  0  3  0  0  0  0  0  0
  187.0170  178.5260  138.1800 C   0  0  0  0  0  0  0  0  0  0  0  0
  182.7240  177.1940  139.5190 C   0  0  0  0  0  0  0  0  0  0  0  0
  183.0880  178.6990  141.6490 C   0  0  2  0  0  3  0  0  0  0  0  0
  185.7370  178.7030  138.0310 N   0  0  0  0  0  0  0  0  0  0  0  0
  182.1420  178.0690  140.6190 C   0  0  1  0  0  3  0  0  0  0  0  0
  182.5190  179.5440  140.5180 C   0  0  0  0  0  2  0  0  0  0  0  0
  187.4070  177.9710  141.8820 C   0  0  0  0  0  3  0  0  0  0  0  0
  182.0210  176.0810  139.1920 F   0  0  0  0  0  0  0  0  0  0  0  0
  186.6460  177.9330  142.9750 C   0  0  0  0  0  0  0  0  0  0  0  0
  187.5860  178.2540  139.4490 C   0  0  0  0  0  0  0  0  0  0  0  0
  183.8440  177.4400  138.8220 C   0  0  0  0  0  3  0  0  0  0  0  0
  189.2160  178.4240  137.1580 C   0  0  0  0  0  3  0  0  0  0  0  0
  188.9780  178.0630  139.5350 C   0  0  0  0  0  3  0  0  0  0  0  0
  189.5460  177.3230  145.3100 C   0  0  0  0  0  0  0  0  0  0  0  0
  188.3880  178.0850  148.7240 C   0  0  0  0  0  1  0  0  0  0  0  0
  190.9250  176.7590  145.1830 C   0  0  0  0  0  1  0  0  0  0  0  0
  186.9510  178.0270  146.7860 C   0  0  0  0  0  3  0  0  0  0  0  0
  187.2810  177.7290  144.3030 C   0  0  0  0  0  0  0  0  0  0  0  0
  189.3200  178.1240  146.4330 O   0  0  0  0  0  0  0  0  0  0  0  0
  186.5610  178.0750  145.3770 C   0  0  0  0  0  3  0  0  0  0  0  0
  188.6160  177.0720  144.3650 C   0  0  0  0  0  0  0  0  0  0  0  0
  188.9570  176.1330  143.2430 C   0  0  0  0  0  1  0  0  0  0  0  0
  188.1930  178.0550  147.2510 C   0  0  0  0  0  0  0  0  0  0  0  0
  184.4390  177.9680  143.9690 O   0  0  0  0  0  0  0  0  0  0  0  0
  183.9920  179.2630  144.2600 C   0  0  0  0  0  1  0  0  0  0  0  0
  1 16  1  0  0  0  0
  1 31  1  0  0  0  0
  2  6  1  0  0  0  0
  2  3  2  0  0  0  0
  3 10  1  0  0  0  0
  3  1  1  0  0  0  0
  4 18  1  6  0  0  0
  4  2  1  0  0  0  0
  5 20  2  0  0  0  0
  6 14  1  0  0  0  0
  7 19  2  0  0  0  0
  7  8  1  0  0  0  0
  8 17  1  0  0  0  0
  9 12  1  0  0  0  0
 10 13  1  6  0  0  0
 11  8  2  0  0  0  0
 11  4  1  0  0  0  0
 12 13  1  6  0  0  0
 12 10  1  0  0  0  0
 14 16  2  0  0  0  0
 15  9  1  0  0  0  0
 16 25  1  0  0  0  0
 17 20  1  0  0  0  0
 17  6  2  0  0  0  0
 18  9  2  0  0  0  0
 19  5  1  0  0  0  0
 21 26  1  0  0  0  0
 23 21  1  0  0  0  0
 24 30  2  0  0  0  0
 25 28  1  0  0  0  0
 25 27  2  0  0  0  0
 26 30  1  0  0  0  0
 27 24  1  0  0  0  0
 28 21  2  0  0  0  0
 29 28  1  0  0  0  0
 30 22  1  0  0  0  0
 31 32  1  0  0  0  0
M  END
>  <MODEL>
1

>  <REMARK>
 VINA RESULT:     -10.1      0.000      0.000
  Name = 
  2 active torsions:
  status: ('A' for Active; 'I' for Inactive)
    1  A    between atoms: N_1  and  O_4
    2  A    between atoms: C_16  and  C_27
                            x       y       z     vdW  Elec       q    Type
                         _______ _______ _______ _____ _____    ______ ____

>  <TORSDO>
F 2

$$$$
=
 OpenBabel10272413103D

 32 37  0  0  1  0  0  0  0  0999 V2000
  187.1410  178.1520  143.5580 N   0  0  0  0  0  0  0  0  0  0  0  0
  189.1280  177.5480  142.3110 C   0  0  0  0  0  0  0  0  0  0  0  0
  188.5210  177.7140  143.5170 C   0  0  0  0  0  0  0  0  0  0  0  0
  190.5980  177.2400  142.1980 C   0  0  0  0  0  0  0  0  0  0  0  0
  188.7930  177.5340  137.4210 C   0  0  0  0  0  3  0  0  0  0  0  0
  188.3580  177.7610  141.0590 C   0  0  0  0  0  0  0  0  0  0  0  0
  190.8710  176.9530  138.5060 C   0  0  0  0  0  3  0  0  0  0  0  0
  190.2950  177.1770  139.7620 C   0  0  0  0  0  0  0  0  0  0  0  0
  191.3320  178.7170  144.0690 C   0  0  0  0  0  0  0  0  0  0  0  0
  189.1710  177.4480  144.8770 C   0  0  2  0  0  3  0  0  0  0  0  0
  191.0310  177.0060  140.8200 N   0  0  0  0  0  0  0  0  0  0  0  0
  190.5810  177.9770  145.1650 C   0  0  1  0  0  3  0  0  0  0  0  0
  190.3570  176.4940  144.8870 C   0  0  0  0  0  2  0  0  0  0  0  0
  186.9350  178.1260  141.1640 C   0  0  0  0  0  3  0  0  0  0  0  0
  192.0550  179.7990  144.4510 F   0  0  0  0  0  0  0  0  0  0  0  0
  186.3560  178.2950  142.3530 C   0  0  0  0  0  0  0  0  0  0  0  0
  188.9390  177.5770  139.8560 C   0  0  0  0  0  0  0  0  0  0  0  0
  191.3730  178.3780  142.7710 C   0  0  0  0  0  3  0  0  0  0  0  0
  190.1260  177.1320  137.3400 C   0  0  0  0  0  3  0  0  0  0  0  0
  188.2050  177.7530  138.6680 C   0  0  0  0  0  2  0  0  0  0  0  0
  182.8350  178.5030  141.0160 C   0  0  0  0  0  0  0  0  0  0  0  0
  180.6100  179.1720  143.8750 C   0  0  0  0  0  1  0  0  0  0  0  0
  182.2000  178.5000  139.6620 C   0  0  0  0  0  1  0  0  0  0  0  0
  183.0200  179.1730  144.0030 C   0  0  0  0  0  3  0  0  0  0  0  0
  184.9120  178.6320  142.4240 C   0  0  0  0  0  0  0  0  0  0  0  0
  181.9920  178.1770  142.0810 O   0  0  0  0  0  0  0  0  0  0  0  0
  184.4040  178.8700  143.6390 C   0  0  0  0  0  3  0  0  0  0  0  0
  184.1480  178.7820  141.1530 C   0  0  0  0  0  0  0  0  0  0  0  0
  184.9330  179.1930  139.9400 C   0  0  0  0  0  1  0  0  0  0  0  0
  181.9420  178.8530  143.2990 C   0  0  0  0  0  0  0  0  0  0  0  0
  186.5610  178.4050  144.7630 O   0  0  0  0  0  0  0  0  0  0  0  0
  186.4400  177.1610  145.3940 C   0  0  0  0  0  1  0  0  0  0  0  0
  1 31  1  0  0  0  0
  2  3  2  0  0  0  0
  3  1  1  0  0  0  0
  3 10  1  0  0  0  0
  4  2  1  0  0  0  0
  4 18  1  0  0  0  0
  5 20  1  0  0  0  0
  6 14  1  0  0  0  0
  6  2  1  0  0  0  0
  7  8  2  0  0  0  0
  8 17  1  0  0  0  0
  8 11  1  0  0  0  0
  9 15  1  0  0  0  0
  9 12  1  0  0  0  0
 10 13  1  6  0  0  0
 10 12  1  0  0  0  0
 11  4  2  0  0  0  0
 12 13  1  6  0  0  0
 14 16  2  0  0  0  0
 16 25  1  0  0  0  0
 16  1  1  0  0  0  0
 17  6  2  0  0  0  0
 18  9  2  0  0  0  0
 19  5  2  0  0  0  0
 19  7  1  0  0  0  0
 20 17  1  0  0  0  0
 21 28  2  0  0  0  0
 21 26  1  0  0  0  0
 23 21  1  0  0  0  0
 25 27  2  0  0  0  0
 26 30  1  0  0  0  0
 27 24  1  0  0  0  0
 28 25  1  0  0  0  0
 29 28  1  0  0  0  0
 30 22  1  0  0  0  0
 30 24  2  0  0  0  0
 31 32  1  0  0  0  0
M  END
>  <MODEL>
2

>  <REMARK>
 VINA RESULT:      -9.5      2.850      6.198
  Name = 
  2 active torsions:
  status: ('A' for Active; 'I' for Inactive)
    1  A    between atoms: N_1  and  O_4
    2  A    between atoms: C_16  and  C_27
                            x       y       z     vdW  Elec       q    Type
                         _______ _______ _______ _____ _____    ______ ____

>  <TORSDO>
F 2

$$$$
=
 OpenBabel10272413103D

 32 37  0  0  1  0  0  0  0  0999 V2000
  186.1300  178.6470  138.7370 N   0  0  0  0  0  0  0  0  0  0  0  0
  187.9450  178.1120  140.2500 C   0  0  0  0  0  0  0  0  0  0  0  0
  187.5330  178.3780  138.9820 C   0  0  0  0  0  0  0  0  0  0  0  0
  189.3560  177.6790  140.5520 C   0  0  1  0  0  3  0  0  0  0  0  0
  186.8660  177.7660  145.0190 C   0  0  0  0  0  3  0  0  0  0  0  0
  186.9700  178.1540  141.3700 C   0  0  0  0  0  0  0  0  0  0  0  0
  189.1270  177.4150  144.2490 C   0  0  0  0  0  3  0  0  0  0  0  0
  188.7240  177.6200  142.9240 C   0  0  0  0  0  0  0  0  0  0  0  0
  189.6370  176.2370  138.5370 C   0  0  0  0  0  0  0  0  0  0  0  0
  188.4430  178.4490  137.7530 C   0  0  2  0  0  3  0  0  0  0  0  0
  189.6180  177.5360  141.9840 N   0  0  0  0  0  0  0  0  0  0  0  0
  189.4890  177.3540  137.5140 C   0  0  1  0  0  3  0  0  0  0  0  0
  189.9160  178.7300  138.0160 C   0  0  0  0  0  2  0  0  0  0  0  0
  185.5730  178.5130  141.0710 C   0  0  0  0  0  3  0  0  0  0  0  0
  189.8460  174.9890  138.0480 F   0  0  0  0  0  0  0  0  0  0  0  0
  185.1820  178.7620  139.8210 C   0  0  0  0  0  0  0  0  0  0  0  0
  187.3690  177.9160  142.6360 C   0  0  0  0  0  0  0  0  0  0  0  0
  189.6160  176.3780  139.8710 C   0  0  0  0  0  3  0  0  0  0  0  0
  188.2040  177.4850  145.2920 C   0  0  0  0  0  3  0  0  0  0  0  0
  186.4530  177.9810  143.7030 C   0  0  0  0  0  3  0  0  0  0  0  0
  181.4460  178.5810  140.3150 C   0  0  0  0  0  0  0  0  0  0  0  0
  179.9830  181.5760  138.7430 C   0  0  0  0  0  1  0  0  0  0  0  0
  180.4830  177.5730  140.8560 C   0  0  0  0  0  1  0  0  0  0  0  0
  182.3070  180.9500  138.5670 C   0  0  0  0  0  3  0  0  0  0  0  0
  183.7730  179.1520  139.5590 C   0  0  0  0  0  0  0  0  0  0  0  0
  180.9800  179.8970  140.2630 O   0  0  0  0  0  0  0  0  0  0  0  0
  183.5750  180.3070  138.9110 C   0  0  0  0  0  3  0  0  0  0  0  0
  182.6850  178.2060  139.9350 C   0  0  0  0  0  0  0  0  0  0  0  0
  183.0430  176.7470  139.9660 C   0  0  0  0  0  1  0  0  0  0  0  0
  181.1470  180.7640  139.1840 C   0  0  0  0  0  0  0  0  0  0  0  0
  185.7020  178.8240  137.4570 O   0  0  0  0  0  0  0  0  0  0  0  0
  185.3740  177.5460  136.9880 C   0  0  0  0  0  1  0  0  0  0  0  0
  1  3  1  0  0  0  0
  1 16  1  0  0  0  0
  2  4  1  0  0  0  0
  2  6  1  0  0  0  0
  3  2  2  0  0  0  0
  4 18  1  6  0  0  0
  4 11  1  0  0  0  0
  5 19  1  0  0  0  0
  6 17  2  0  0  0  0
  7 19  2  0  0  0  0
  8  7  1  0  0  0  0
  9 18  2  0  0  0  0
 10 13  1  1  0  0  0
 10  3  1  0  0  0  0
 11  8  2  0  0  0  0
 12 10  1  0  0  0  0
 12 13  1  1  0  0  0
 12  9  1  0  0  0  0
 14  6  1  0  0  0  0
 15  9  1  0  0  0  0
 16 14  2  0  0  0  0
 17  8  1  0  0  0  0
 17 20  1  0  0  0  0
 20  5  2  0  0  0  0
 21 23  1  0  0  0  0
 22 30  1  0  0  0  0
 24 27  1  0  0  0  0
 24 30  2  0  0  0  0
 25 16  1  0  0  0  0
 25 28  1  0  0  0  0
 26 21  1  0  0  0  0
 27 25  2  0  0  0  0
 28 29  1  0  0  0  0
 28 21  2  0  0  0  0
 30 26  1  0  0  0  0
 31  1  1  0  0  0  0
 32 31  1  0  0  0  0
M  END
>  <MODEL>
3

>  <REMARK>
 VINA RESULT:      -9.3      2.858      7.288
  Name = 
  2 active torsions:
  status: ('A' for Active; 'I' for Inactive)
    1  A    between atoms: N_1  and  O_4
    2  A    between atoms: C_16  and  C_27
                            x       y       z     vdW  Elec       q    Type
                         _______ _______ _______ _____ _____    ______ ____

>  <TORSDO>
F 2

$$$$
=
 OpenBabel10272413103D

 32 37  0  0  1  0  0  0  0  0999 V2000
  185.9800  177.9120  145.4290 N   0  0  0  0  0  0  0  0  0  0  0  0
  188.3160  177.3170  145.1840 C   0  0  0  0  0  0  0  0  0  0  0  0
  187.2250  177.4240  145.9890 C   0  0  0  0  0  0  0  0  0  0  0  0
  189.6730  176.9600  145.7320 C   0  0  0  0  0  0  0  0  0  0  0  0
  190.2610  177.6490  140.6970 C   0  0  0  0  0  3  0  0  0  0  0  0
  188.2070  177.6450  143.7400 C   0  0  0  0  0  0  0  0  0  0  0  0
  191.6080  176.9130  142.5620 C   0  0  0  0  0  3  0  0  0  0  0  0
  190.5210  177.0740  143.4300 C   0  0  0  0  0  0  0  0  0  0  0  0
  189.4720  178.2760  147.8400 C   0  0  0  0  0  0  0  0  0  0  0  0
  187.1770  177.0410  147.4700 C   0  0  2  0  0  3  0  0  0  0  0  0
  190.6890  176.8030  144.6900 N   0  0  0  0  0  0  0  0  0  0  0  0
  188.3000  177.4930  148.4110 C   0  0  1  0  0  3  0  0  0  0  0  0
  188.2230  176.0420  147.9460 C   0  0  0  0  0  2  0  0  0  0  0  0
  186.8950  178.0580  143.2120 C   0  0  0  0  0  3  0  0  0  0  0  0
  189.9440  179.3010  148.5940 F   0  0  0  0  0  0  0  0  0  0  0  0
  185.8360  178.1680  144.0140 C   0  0  0  0  0  0  0  0  0  0  0  0
  189.2740  177.5200  142.9250 C   0  0  0  0  0  0  0  0  0  0  0  0
  190.1030  178.0250  146.6830 C   0  0  0  0  0  3  0  0  0  0  0  0
  191.4810  177.2010  141.2030 C   0  0  0  0  0  3  0  0  0  0  0  0
  189.1670  177.8050  141.5510 C   0  0  0  0  0  2  0  0  0  0  0  0
  183.2930  178.5290  141.2520 C   0  0  0  0  0  0  0  0  0  0  0  0
  180.0400  179.2240  142.8370 C   0  0  0  0  0  1  0  0  0  0  0  0
  183.3310  178.5760  139.7580 C   0  0  0  0  0  1  0  0  0  0  0  0
  182.1370  179.1350  144.0280 C   0  0  0  0  0  3  0  0  0  0  0  0
  184.5220  178.5560  143.4430 C   0  0  0  0  0  0  0  0  0  0  0  0
  182.0540  178.2140  141.8170 O   0  0  0  0  0  0  0  0  0  0  0  0
  183.5300  178.7880  144.3110 C   0  0  0  0  0  3  0  0  0  0  0  0
  184.4110  178.7580  141.9710 C   0  0  0  0  0  0  0  0  0  0  0  0
  185.6660  179.1630  141.2510 C   0  0  0  0  0  1  0  0  0  0  0  0
  181.4810  178.8680  142.9060 C   0  0  0  0  0  0  0  0  0  0  0  0
  184.9130  178.1050  146.2510 O   0  0  0  0  0  0  0  0  0  0  0  0
  185.2730  179.1630  147.0950 C   0  0  0  0  0  1  0  0  0  0  0  0
  1  3  1  0  0  0  0
  1 31  1  0  0  0  0
  2  4  1  0  0  0  0
  2  3  2  0  0  0  0
  3 10  1  0  0  0  0
  4 18  1  0  0  0  0
  5 19  2  0  0  0  0
  5 20  1  0  0  0  0
  6  2  1  0  0  0  0
  7  8  2  0  0  0  0
  8 11  1  0  0  0  0
  9 12  1  0  0  0  0
  9 15  1  0  0  0  0
 10 13  1  6  0  0  0
 10 12  1  0  0  0  0
 11  4  2  0  0  0  0
 12 13  1  6  0  0  0
 14  6  1  0  0  0  0
 14 16  2  0  0  0  0
 16  1  1  0  0  0  0
 17  8  1  0  0  0  0
 17  6  2  0  0  0  0
 18  9  2  0  0  0  0
 19  7  1  0  0  0  0
 20 17  1  0  0  0  0
 21 26  1  0  0  0  0
 21 28  2  0  0  0  0
 22 30  1  0  0  0  0
 23 21  1  0  0  0  0
 24 27  1  0  0  0  0
 25 16  1  0  0  0  0
 25 27  2  0  0  0  0
 26 30  1  0  0  0  0
 28 25  1  0  0  0  0
 29 28  1  0  0  0  0
 30 24  2  0  0  0  0
 31 32  1  0  0  0  0
M  END
>  <MODEL>
4

>  <REMARK>
 VINA RESULT:      -9.2      3.261      6.857
  Name = 
  2 active torsions:
  status: ('A' for Active; 'I' for Inactive)
    1  A    between atoms: N_1  and  O_4
    2  A    between atoms: C_16  and  C_27
                            x       y       z     vdW  Elec       q    Type
                         _______ _______ _______ _____ _____    ______ ____

>  <TORSDO>
F 2

$$$$
=
 OpenBabel10272413103D

 32 37  0  0  1  0  0  0  0  0999 V2000
  189.4230  177.5260  143.4530 N   0  0  0  0  0  0  0  0  0  0  0  0
  187.5540  178.1060  144.8810 C   0  0  0  0  0  0  0  0  0  0  0  0
  188.8860  177.8600  144.7560 C   0  0  0  0  0  0  0  0  0  0  0  0
  186.9080  178.3120  146.2260 C   0  0  0  0  0  0  0  0  0  0  0  0
  183.1780  178.6570  142.7430 C   0  0  0  0  0  3  0  0  0  0  0  0
  186.6810  178.0830  143.6800 C   0  0  0  0  0  0  0  0  0  0  0  0
  183.4220  178.9640  145.1260 C   0  0  0  0  0  3  0  0  0  0  0  0
  184.7850  178.6530  145.0420 C   0  0  0  0  0  0  0  0  0  0  0  0
  188.2510  176.5970  147.4410 C   0  0  0  0  0  0  0  0  0  0  0  0
  189.9090  177.9330  145.8930 C   0  0  2  0  0  3  0  0  0  0  0  0
  185.4890  178.6560  146.1350 N   0  0  0  0  0  0  0  0  0  0  0  0
  189.5990  177.2720  147.2410 C   0  0  1  0  0  3  0  0  0  0  0  0
  189.5290  178.7890  147.0930 C   0  0  0  0  0  2  0  0  0  0  0  0
  187.2980  177.8170  142.3690 C   0  0  0  0  0  3  0  0  0  0  0  0
  188.2520  175.4290  148.1310 F   0  0  0  0  0  0  0  0  0  0  0  0
  188.6030  177.5680  142.2630 C   0  0  0  0  0  0  0  0  0  0  0  0
  185.3630  178.3490  143.7850 C   0  0  0  0  0  0  0  0  0  0  0  0
  187.0620  177.0650  147.0300 C   0  0  0  0  0  3  0  0  0  0  0  0
  182.6220  178.9640  143.9840 C   0  0  0  0  0  3  0  0  0  0  0  0
  184.5380  178.3530  142.6450 C   0  0  0  0  0  2  0  0  0  0  0  0
  189.2620  178.3790  138.6390 C   0  0  0  0  0  0  0  0  0  0  0  0
  192.0930  176.2920  137.5410 C   0  0  0  0  0  1  0  0  0  0  0  0
  188.5960  179.2080  137.5870 C   0  0  0  0  0  1  0  0  0  0  0  0
  191.0030  176.0810  139.6840 C   0  0  0  0  0  3  0  0  0  0  0  0
  189.1980  177.3350  140.9230 C   0  0  0  0  0  0  0  0  0  0  0  0
  190.6040  178.0680  138.4060 O   0  0  0  0  0  0  0  0  0  0  0  0
  190.2100  176.4620  140.8530 C   0  0  0  0  0  3  0  0  0  0  0  0
  188.5820  177.9990  139.7400 C   0  0  0  0  0  0  0  0  0  0  0  0
  187.1200  178.3310  139.8400 C   0  0  0  0  0  1  0  0  0  0  0  0
  191.1790  176.8130  138.5910 C   0  0  0  0  0  0  0  0  0  0  0  0
  190.7380  177.1920  143.3420 O   0  0  0  0  0  0  0  0  0  0  0  0
  191.4420  178.4000  143.4170 C   0  0  0  0  0  1  0  0  0  0  0  0
  1  3  1  0  0  0  0
  2  4  1  0  0  0  0
  3  2  2  0  0  0  0
  3 10  1  0  0  0  0
  4 18  1  0  0  0  0
  5 19  2  0  0  0  0
  6 17  2  0  0  0  0
  6  2  1  0  0  0  0
  8  7  2  0  0  0  0
  8 11  1  0  0  0  0
  9 15  1  0  0  0  0
 10 13  1  1  0  0  0
 10 12  1  0  0  0  0
 11  4  2  0  0  0  0
 12 13  1  1  0  0  0
 12  9  1  0  0  0  0
 14  6  1  0  0  0  0
 16 14  2  0  0  0  0
 16  1  1  0  0  0  0
 17  8  1  0  0  0  0
 18  9  2  0  0  0  0
 19  7  1  0  0  0  0
 20  5  1  0  0  0  0
 20 17  1  0  0  0  0
 21 28  2  0  0  0  0
 22 30  1  0  0  0  0
 23 21  1  0  0  0  0
 24 27  1  0  0  0  0
 25 16  1  0  0  0  0
 26 30  1  0  0  0  0
 26 21  1  0  0  0  0
 27 25  2  0  0  0  0
 28 29  1  0  0  0  0
 28 25  1  0  0  0  0
 30 24  2  0  0  0  0
 31 32  1  0  0  0  0
 31  1  1  0  0  0  0
M  END
>  <MODEL>
5

>  <REMARK>
 VINA RESULT:      -9.2      3.071      7.437
  Name = 
  2 active torsions:
  status: ('A' for Active; 'I' for Inactive)
    1  A    between atoms: N_1  and  O_4
    2  A    between atoms: C_16  and  C_27
                            x       y       z     vdW  Elec       q    Type
                         _______ _______ _______ _____ _____    ______ ____

>  <TORSDO>
F 2

$$$$
=
 OpenBabel10272413103D

 32 37  0  0  1  0  0  0  0  0999 V2000
  186.9640  178.2120  143.3550 N   0  0  0  0  0  0  0  0  0  0  0  0
  187.7620  177.5750  145.5530 C   0  0  0  0  0  0  0  0  0  0  0  0
  186.7420  178.0270  144.7750 C   0  0  0  0  0  0  0  0  0  0  0  0
  187.6450  177.5020  147.0520 C   0  0  0  0  0  0  0  0  0  0  0  0
  192.3500  175.8780  145.8710 C   0  0  0  0  0  3  0  0  0  0  0  0
  189.0660  177.2260  144.9330 C   0  0  0  0  0  0  0  0  0  0  0  0
  190.9710  176.0530  147.8460 C   0  0  0  0  0  3  0  0  0  0  0  0
  189.9210  176.5810  147.0850 C   0  0  0  0  0  0  0  0  0  0  0  0
  186.3570  179.6190  147.3300 C   0  0  0  0  0  0  0  0  0  0  0  0
  185.3280  178.3440  145.2690 C   0  0  2  0  0  3  0  0  0  0  0  0
  188.8160  176.9000  147.6900 N   0  0  0  0  0  0  0  0  0  0  0  0
  185.1330  179.1700  146.5460 C   0  0  1  0  0  3  0  0  0  0  0  0
  184.8920  177.6630  146.5590 C   0  0  0  0  0  2  0  0  0  0  0  0
  189.2070  177.3570  143.4720 C   0  0  0  0  0  3  0  0  0  0  0  0
  186.3220  180.8730  147.8460 F   0  0  0  0  0  0  0  0  0  0  0  0
  188.2010  177.8110  142.7250 C   0  0  0  0  0  0  0  0  0  0  0  0
  190.0790  176.7530  145.6870 C   0  0  0  0  0  0  0  0  0  0  0  0
  187.4470  178.8800  147.5870 C   0  0  0  0  0  3  0  0  0  0  0  0
  192.1800  175.7040  147.2440 C   0  0  0  0  0  3  0  0  0  0  0  0
  191.3080  176.3960  145.1000 C   0  0  0  0  0  2  0  0  0  0  0  0
  189.8240  176.9910  139.4200 C   0  0  0  0  0  0  0  0  0  0  0  0
  187.5370  178.1200  136.7610 C   0  0  0  0  0  1  0  0  0  0  0  0
  191.1520  176.4620  138.9790 C   0  0  0  0  0  1  0  0  0  0  0  0
  187.2150  178.5730  139.1100 C   0  0  0  0  0  3  0  0  0  0  0  0
  188.3660  177.9020  141.2520 C   0  0  0  0  0  0  0  0  0  0  0  0
  188.7860  176.8710  138.4930 O   0  0  0  0  0  0  0  0  0  0  0  0
  187.3420  178.4130  140.5580 C   0  0  0  0  0  3  0  0  0  0  0  0
  189.6760  177.5190  140.6530 C   0  0  0  0  0  0  0  0  0  0  0  0
  190.8860  177.6630  141.5310 C   0  0  0  0  0  1  0  0  0  0  0  0
  187.8640  177.8710  138.1890 C   0  0  0  0  0  0  0  0  0  0  0  0
  185.9730  178.7500  142.5930 O   0  0  0  0  0  0  0  0  0  0  0  0
  184.9280  177.8180  142.6200 C   0  0  0  0  0  1  0  0  0  0  0  0
  1  3  1  0  0  0  0
  2  4  1  0  0  0  0
  3 10  1  0  0  0  0
  3  2  2  0  0  0  0
  4 18  1  0  0  0  0
  4 11  2  0  0  0  0
  5 19  2  0  0  0  0
  6  2  1  0  0  0  0
  6 17  2  0  0  0  0
  8 11  1  0  0  0  0
  8  7  2  0  0  0  0
  9 18  2  0  0  0  0
  9 15  1  0  0  0  0
 10 12  1  0  0  0  0
 10 13  1  1  0  0  0
 12 13  1  1  0  0  0
 12  9  1  0  0  0  0
 14  6  1  0  0  0  0
 16  1  1  0  0  0  0
 16 14  2  0  0  0  0
 17  8  1  0  0  0  0
 19  7  1  0  0  0  0
 20 17  1  0  0  0  0
 20  5  1  0  0  0  0
 21 28  2  0  0  0  0
 22 30  1  0  0  0  0
 23 21  1  0  0  0  0
 24 27  1  0  0  0  0
 25 16  1  0  0  0  0
 26 21  1  0  0  0  0
 27 25  2  0  0  0  0
 28 25  1  0  0  0  0
 28 29  1  0  0  0  0
 30 26  1  0  0  0  0
 30 24  2  0  0  0  0
 31 32  1  0  0  0  0
 31  1  1  0  0  0  0
M  END
>  <MODEL>
6

>  <REMARK>
 VINA RESULT:      -9.0      2.946      7.181
  Name = 
  2 active torsions:
  status: ('A' for Active; 'I' for Inactive)
    1  A    between atoms: N_1  and  O_4
    2  A    between atoms: C_16  and  C_27
                            x       y       z     vdW  Elec       q    Type
                         _______ _______ _______ _____ _____    ______ ____

>  <TORSDO>
F 2

$$$$
=
 OpenBabel10272413103D

 32 37  0  0  1  0  0  0  0  0999 V2000
  189.1140  178.0140  141.5960 N   0  0  0  0  0  0  0  0  0  0  0  0
  188.9330  178.1580  144.0080 C   0  0  0  0  0  0  0  0  0  0  0  0
  189.7260  178.1360  142.9030 C   0  0  0  0  0  0  0  0  0  0  0  0
  189.5090  178.1340  145.3990 C   0  0  0  0  0  0  0  0  0  0  0  0
  184.4210  178.2160  145.9220 C   0  0  0  0  0  3  0  0  0  0  0  0
  187.4560  178.1120  143.8590 C   0  0  0  0  0  0  0  0  0  0  0  0
  186.3600  178.3320  147.3570 C   0  0  0  0  0  3  0  0  0  0  0  0
  187.2070  178.2480  146.2460 C   0  0  0  0  0  0  0  0  0  0  0  0
  191.3630  176.5430  144.9010 C   0  0  0  0  0  0  0  0  0  0  0  0
  191.2520  178.2610  142.9090 C   0  0  2  0  0  3  0  0  0  0  0  0
  188.4910  178.2580  146.4430 N   0  0  0  0  0  0  0  0  0  0  0  0
  192.0810  177.4360  143.9010 C   0  0  1  0  0  3  0  0  0  0  0  0
  191.8730  178.9310  144.1270 C   0  0  0  0  0  2  0  0  0  0  0  0
  186.8890  178.0700  142.5000 C   0  0  0  0  0  3  0  0  0  0  0  0
  191.9210  175.3300  145.1420 F   0  0  0  0  0  0  0  0  0  0  0  0
  187.6790  178.0390  141.4280 C   0  0  0  0  0  0  0  0  0  0  0  0
  186.6560  178.1570  144.9440 C   0  0  0  0  0  0  0  0  0  0  0  0
  190.2550  176.8560  145.5890 C   0  0  0  0  0  3  0  0  0  0  0  0
  184.9740  178.3150  147.1980 C   0  0  0  0  0  3  0  0  0  0  0  0
  185.2550  178.1390  144.8050 C   0  0  0  0  0  2  0  0  0  0  0  0
  185.1890  179.0950  138.7980 C   0  0  0  0  0  0  0  0  0  0  0  0
  186.5000  177.9930  135.5360 C   0  0  0  0  0  1  0  0  0  0  0  0
  183.8240  179.7060  138.7980 C   0  0  0  0  0  1  0  0  0  0  0  0
  187.4870  177.4120  137.6600 C   0  0  0  0  0  3  0  0  0  0  0  0
  187.0740  178.0290  140.0710 C   0  0  0  0  0  0  0  0  0  0  0  0
  185.9060  179.2120  137.6050 O   0  0  0  0  0  0  0  0  0  0  0  0
  187.8110  177.5060  139.0840 C   0  0  0  0  0  3  0  0  0  0  0  0
  185.6700  178.5000  139.9100 C   0  0  0  0  0  0  0  0  0  0  0  0
  184.7740  178.3700  141.1080 C   0  0  0  0  0  1  0  0  0  0  0  0
  186.6330  178.1870  137.0030 C   0  0  0  0  0  0  0  0  0  0  0  0
  189.9110  177.9010  140.4980 O   0  0  0  0  0  0  0  0  0  0  0  0
  190.4540  176.6120  140.5550 C   0  0  0  0  0  1  0  0  0  0  0  0
  1  3  1  0  0  0  0
  2  4  1  0  0  0  0
  3 10  1  0  0  0  0
  3  2  2  0  0  0  0
  4 18  1  0  0  0  0
  4 11  2  0  0  0  0
  5 19  2  0  0  0  0
  6  2  1  0  0  0  0
  6 17  2  0  0  0  0
  8 11  1  0  0  0  0
  8  7  2  0  0  0  0
  9 15  1  0  0  0  0
  9 18  2  0  0  0  0
 10 12  1  0  0  0  0
 10 13  1  1  0  0  0
 12 13  1  1  0  0  0
 12  9  1  0  0  0  0
 14  6  1  0  0  0  0
 16  1  1  0  0  0  0
 16 14  2  0  0  0  0
 17  8  1  0  0  0  0
 19  7  1  0  0  0  0
 20 17  1  0  0  0  0
 20  5  1  0  0  0  0
 21 23  1  0  0  0  0
 21 28  2  0  0  0  0
 22 30  1  0  0  0  0
 24 27  1  0  0  0  0
 25 16  1  0  0  0  0
 26 21  1  0  0  0  0
 27 25  2  0  0  0  0
 28 25  1  0  0  0  0
 28 29  1  0  0  0  0
 30 26  1  0  0  0  0
 30 24  2  0  0  0  0
 31 32  1  0  0  0  0
 31  1  1  0  0  0  0
M  END
>  <MODEL>
7

>  <REMARK>
 VINA RESULT:      -8.9      3.148      8.155
  Name = 
  2 active torsions:
  status: ('A' for Active; 'I' for Inactive)
    1  A    between atoms: N_1  and  O_4
    2  A    between atoms: C_16  and  C_27
                            x       y       z     vdW  Elec       q    Type
                         _______ _______ _______ _____ _____    ______ ____

>  <TORSDO>
F 2

$$$$
=
 OpenBabel10272413103D

 32 37  0  0  1  0  0  0  0  0999 V2000
  186.2730  178.4440  139.8960 N   0  0  0  0  0  0  0  0  0  0  0  0
  188.6630  178.0880  140.0800 C   0  0  0  0  0  0  0  0  0  0  0  0
  187.5950  178.4190  139.3050 C   0  0  0  0  0  0  0  0  0  0  0  0
  190.0390  177.8990  139.4970 C   0  0  1  0  0  3  0  0  0  0  0  0
  190.4340  176.9780  144.5130 C   0  0  0  0  0  3  0  0  0  0  0  0
  188.4690  177.8100  141.5260 C   0  0  0  0  0  0  0  0  0  0  0  0
  191.9150  177.1580  142.6140 C   0  0  0  0  0  3  0  0  0  0  0  0
  190.8310  177.4390  141.7750 C   0  0  0  0  0  0  0  0  0  0  0  0
  189.2950  176.7870  137.3930 C   0  0  0  0  0  0  0  0  0  0  0  0
  187.6640  178.8090  137.8260 C   0  0  2  0  0  3  0  0  0  0  0  0
  191.0600  177.6390  140.5110 N   0  0  0  0  0  0  0  0  0  0  0  0
  188.5020  177.9690  136.8540 C   0  0  1  0  0  3  0  0  0  0  0  0
  189.0030  179.3320  137.3240 C   0  0  0  0  0  2  0  0  0  0  0  0
  187.1130  177.9300  142.0880 C   0  0  0  0  0  3  0  0  0  0  0  0
  189.3160  175.6690  136.6250 F   0  0  0  0  0  0  0  0  0  0  0  0
  186.0750  178.2460  141.3140 C   0  0  0  0  0  0  0  0  0  0  0  0
  189.5210  177.5040  142.3120 C   0  0  0  0  0  0  0  0  0  0  0  0
  190.0010  176.7620  138.5330 C   0  0  0  0  0  3  0  0  0  0  0  0
  191.7200  176.9260  143.9760 C   0  0  0  0  0  3  0  0  0  0  0  0
  189.3450  177.2660  143.6880 C   0  0  0  0  0  3  0  0  0  0  0  0
  183.6530  179.0640  144.0880 C   0  0  0  0  0  0  0  0  0  0  0  0
  180.3050  179.3490  142.5770 C   0  0  0  0  0  1  0  0  0  0  0  0
  183.7240  179.1650  145.5780 C   0  0  0  0  0  1  0  0  0  0  0  0
  182.2680  178.5950  141.3920 C   0  0  0  0  0  3  0  0  0  0  0  0
  184.7260  178.3900  141.9190 C   0  0  0  0  0  0  0  0  0  0  0  0
  182.5750  179.7180  143.4870 O   0  0  0  0  0  0  0  0  0  0  0  0
  183.6860  178.4170  141.0780 C   0  0  0  0  0  3  0  0  0  0  0  0
  184.6040  178.3940  143.4040 C   0  0  0  0  0  0  0  0  0  0  0  0
  185.6720  177.6660  144.1700 C   0  0  0  0  0  1  0  0  0  0  0  0
  181.7780  179.1860  142.4740 C   0  0  0  0  0  0  0  0  0  0  0  0
  185.1950  178.6870  139.1020 O   0  0  0  0  0  0  0  0  0  0  0  0
  185.1600  177.6340  138.1790 C   0  0  0  0  0  1  0  0  0  0  0  0
  1 16  1  0  0  0  0
  2  6  1  0  0  0  0
  3  1  1  0  0  0  0
  3  2  2  0  0  0  0
  4 18  1  6  0  0  0
  4  2  1  0  0  0  0
  4 11  1  0  0  0  0
  6 14  1  0  0  0  0
  6 17  2  0  0  0  0
  7 19  2  0  0  0  0
  8 17  1  0  0  0  0
  8  7  1  0  0  0  0
  9 18  2  0  0  0  0
 10 13  1  1  0  0  0
 10  3  1  0  0  0  0
 11  8  2  0  0  0  0
 12 13  1  1  0  0  0
 12  9  1  0  0  0  0
 12 10  1  0  0  0  0
 15  9  1  0  0  0  0
 16 25  1  0  0  0  0
 16 14  2  0  0  0  0
 17 20  1  0  0  0  0
 19  5  1  0  0  0  0
 20  5  2  0  0  0  0
 21 23  1  0  0  0  0
 24 30  2  0  0  0  0
 25 28  1  0  0  0  0
 26 21  1  0  0  0  0
 27 24  1  0  0  0  0
 27 25  2  0  0  0  0
 28 21  2  0  0  0  0
 28 29  1  0  0  0  0
 30 22  1  0  0  0  0
 30 26  1  0  0  0  0
 31  1  1  0  0  0  0
 32 31  1  0  0  0  0
M  END
>  <MODEL>
8

>  <REMARK>
 VINA RESULT:      -8.7      2.579      5.895
  Name = 
  2 active torsions:
  status: ('A' for Active; 'I' for Inactive)
    1  A    between atoms: N_1  and  O_4
    2  A    between atoms: C_16  and  C_27
                            x       y       z     vdW  Elec       q    Type
                         _______ _______ _______ _____ _____    ______ ____

>  <TORSDO>
F 2

$$$$
=
 OpenBabel10272413103D

 32 37  0  0  1  0  0  0  0  0999 V2000
  188.2580  177.4710  139.9880 N   0  0  0  0  0  0  0  0  0  0  0  0
  189.2600  177.0690  137.8180 C   0  0  0  0  0  0  0  0  0  0  0  0
  188.1990  177.5190  138.5410 C   0  0  0  0  0  0  0  0  0  0  0  0
  189.2060  176.9520  136.3180 C   0  0  1  0  0  3  0  0  0  0  0  0
  193.8370  175.3170  137.7480 C   0  0  0  0  0  3  0  0  0  0  0  0
  190.4800  176.5890  138.5160 C   0  0  0  0  0  0  0  0  0  0  0  0
  192.6620  175.7520  135.6830 C   0  0  0  0  0  3  0  0  0  0  0  0
  191.5290  176.1620  136.3960 C   0  0  0  0  0  0  0  0  0  0  0  0
  186.8440  176.1610  136.1900 C   0  0  0  0  0  0  0  0  0  0  0  0
  186.9180  178.1150  137.9520 C   0  0  2  0  0  3  0  0  0  0  0  0
  190.4790  176.5390  135.7290 N   0  0  0  0  0  0  0  0  0  0  0  0
  186.2190  177.4150  136.7800 C   0  0  1  0  0  3  0  0  0  0  0  0
  187.0220  178.6910  136.5460 C   0  0  0  0  0  2  0  0  0  0  0  0
  190.5130  176.6410  139.9880 C   0  0  0  0  0  3  0  0  0  0  0  0
  185.9930  175.1640  135.8400 F   0  0  0  0  0  0  0  0  0  0  0  0
  189.4610  177.0750  140.6830 C   0  0  0  0  0  0  0  0  0  0  0  0
  191.5490  176.1620  137.8130 C   0  0  0  0  0  0  0  0  0  0  0  0
  188.1500  175.9650  135.9500 C   0  0  0  0  0  3  0  0  0  0  0  0
  193.8100  175.3300  136.3540 C   0  0  0  0  0  3  0  0  0  0  0  0
  192.7160  175.7310  138.4710 C   0  0  0  0  0  3  0  0  0  0  0  0
  190.7580  178.3960  143.9700 C   0  0  0  0  0  0  0  0  0  0  0  0
  188.4530  177.2450  146.6030 C   0  0  0  0  0  1  0  0  0  0  0  0
  191.9820  179.1240  144.4250 C   0  0  0  0  0  1  0  0  0  0  0  0
  188.3390  176.5380  144.2980 C   0  0  0  0  0  3  0  0  0  0  0  0
  189.5400  177.1440  142.1640 C   0  0  0  0  0  0  0  0  0  0  0  0
  189.6540  178.4720  144.8230 O   0  0  0  0  0  0  0  0  0  0  0  0
  188.5400  176.5770  142.8500 C   0  0  0  0  0  3  0  0  0  0  0  0
  190.7530  177.7400  142.7900 C   0  0  0  0  0  0  0  0  0  0  0  0
  192.0260  177.6660  141.9960 C   0  0  0  0  0  1  0  0  0  0  0  0
  188.8390  177.3980  145.1770 C   0  0  0  0  0  0  0  0  0  0  0  0
  187.1630  177.8370  140.7090 O   0  0  0  0  0  0  0  0  0  0  0  0
  187.3910  179.1630  141.0960 C   0  0  0  0  0  1  0  0  0  0  0  0
  1 16  1  0  0  0  0
  1 31  1  0  0  0  0
  2  6  1  0  0  0  0
  2  3  2  0  0  0  0
  3  1  1  0  0  0  0
  4 18  1  1  0  0  0
  4  2  1  0  0  0  0
  5 20  2  0  0  0  0
  6 14  1  0  0  0  0
  7 19  2  0  0  0  0
  7  8  1  0  0  0  0
  8 17  1  0  0  0  0
  9 12  1  0  0  0  0
 10 13  1  6  0  0  0
 10  3  1  0  0  0  0
 11  4  1  0  0  0  0
 11  8  2  0  0  0  0
 12 13  1  6  0  0  0
 12 10  1  0  0  0  0
 14 16  2  0  0  0  0
 15  9  1  0  0  0  0
 16 25  1  0  0  0  0
 17 20  1  0  0  0  0
 17  6  2  0  0  0  0
 18  9  2  0  0  0  0
 19  5  1  0  0  0  0
 21 23  1  0  0  0  0
 21 26  1  0  0  0  0
 24 30  2  0  0  0  0
 25 28  1  0  0  0  0
 25 27  2  0  0  0  0
 26 30  1  0  0  0  0
 27 24  1  0  0  0  0
 28 21  2  0  0  0  0
 29 28  1  0  0  0  0
 30 22  1  0  0  0  0
 31 32  1  0  0  0  0
M  END
>  <MODEL>
9

>  <REMARK>
 VINA RESULT:      -8.7      2.925      4.474
  Name = 
  2 active torsions:
  status: ('A' for Active; 'I' for Inactive)
    1  A    between atoms: N_1  and  O_4
    2  A    between atoms: C_16  and  C_27
                            x       y       z     vdW  Elec       q    Type
                         _______ _______ _______ _____ _____    ______ ____

>  <TORSDO>
F 2

$$$$
