=
 OpenBabel10272413533D

 30 32  0  0  0  0  0  0  0  0999 V2000
  186.4180  177.8130  142.5700 C   0  0  0  0  0  3  0  0  0  0  0  0
  184.0900  178.4090  142.2110 C   0  0  0  0  0  0  0  0  0  0  0  0
  186.0040  178.4470  146.7170 C   0  0  0  0  0  3  0  0  0  0  0  0
  187.5170  177.6230  143.4130 C   0  0  0  0  0  0  0  0  0  0  0  0
  187.0920  178.2330  147.5660 C   0  0  0  0  0  3  0  0  0  0  0  0
  182.8570  178.8210  142.7220 C   0  0  0  0  0  3  0  0  0  0  0  0
  184.2200  178.1930  140.8440 O   0  0  0  0  0  1  0  0  0  0  0  0
  186.1260  178.2460  145.3300 C   0  0  0  0  0  0  0  0  0  0  0  0
  182.7000  179.0450  144.0910 C   0  0  0  0  0  3  0  0  0  0  0  0
  185.1810  178.2190  143.0760 C   0  0  0  0  0  0  0  0  0  0  0  0
  187.3750  177.8290  144.8000 C   0  0  0  0  0  0  0  0  0  0  0  0
  188.3150  177.8130  147.0420 C   0  0  0  0  0  3  0  0  0  0  0  0
  188.4550  177.6110  145.6690 C   0  0  0  0  0  3  0  0  0  0  0  0
  183.7790  178.8570  144.9580 C   0  0  0  0  0  3  0  0  0  0  0  0
  185.0290  178.4440  144.4660 C   0  0  0  0  0  0  0  0  0  0  0  0
  190.3250  177.4020  141.0870 O   0  0  0  0  0  0  0  0  0  0  0  0
  189.1900  177.7080  141.5420 C   0  0  0  0  0  0  0  0  0  0  0  0
  188.7770  177.2320  142.8390 N   0  0  0  0  0  0  0  0  0  0  0  0
  188.2790  178.5360  140.6960 C   0  0  0  0  0  2  0  0  0  0  0  0
  188.6820  178.4210  139.2380 C   0  0  0  0  0  2  0  0  0  0  0  0
  187.6290  176.8380  137.8050 O   0  0  0  0  0  0  0  0  0  0  0  0
  187.5330  177.9210  138.4390 C   0  0  0  0  0  0  0  0  0  0  0  0
  186.3620  178.6650  138.3660 O   0  0  0  0  0  1  0  0  0  0  0  0
  189.5800  176.2320  143.5330 C   0  0  0  0  0  2  0  0  0  0  0  0
  191.0030  176.7370  143.7190 C   0  0  0  0  0  2  0  0  0  0  0  0
  191.6660  176.0180  144.8780 C   0  0  0  0  0  2  0  0  0  0  0  0
  191.7850  176.9170  146.0150 N   0  0  0  0  0  2  0  0  0  0  0  0
  191.9530  175.0310  147.6140 N   0  0  0  0  0  1  0  0  0  0  0  0
  191.9240  176.4310  147.3500 C   0  0  0  0  0  0  0  0  0  0  0  0
  192.0240  177.2470  148.3020 O   0  0  0  0  0  0  0  0  0  0  0  0
  1 10  2  0  0  0  0
  1  4  1  0  0  0  0
  2  6  2  0  0  0  0
  2 10  1  0  0  0  0
  3  5  2  0  0  0  0
  4 11  2  0  0  0  0
  6  9  1  0  0  0  0
  7  2  1  0  0  0  0
  8  3  1  0  0  0  0
  9 14  2  0  0  0  0
 10 15  1  0  0  0  0
 11  8  1  0  0  0  0
 11 13  1  0  0  0  0
 12  5  1  0  0  0  0
 13 12  2  0  0  0  0
 15 14  1  0  0  0  0
 15  8  2  0  0  0  0
 16 17  2  0  0  0  0
 17 18  1  0  0  0  0
 18  4  1  0  0  0  0
 18 24  1  0  0  0  0
 19 17  1  0  0  0  0
 20 19  1  0  0  0  0
 21 22  2  0  0  0  0
 22 20  1  0  0  0  0
 23 22  1  0  0  0  0
 24 25  1  0  0  0  0
 25 26  1  0  0  0  0
 26 27  1  0  0  0  0
 27 29  1  0  0  0  0
 29 28  1  0  0  0  0
 29 30  2  0  0  0  0
M  END
>  <MODEL>
1

>  <REMARK>
 VINA RESULT:      -9.7      0.000      0.000
  Name = 
  8 active torsions:
  status: ('A' for Active; 'I' for Inactive)
    1  A    between atoms: C_4  and  N_13
    2  A    between atoms: N_7  and  C_16
    3  A    between atoms: C_8  and  C_12
    4  A    between atoms: C_9  and  C_12
    5  A    between atoms: C_9  and  C_17
    6  A    between atoms: N_13  and  C_27
    7  A    between atoms: C_16  and  C_30
    8  A    between atoms: C_27  and  C_30
                            x       y       z     vdW  Elec       q    Type
                         _______ _______ _______ _____ _____    ______ ____

>  <TORSDO>
F 8

$$$$
=
 OpenBabel10272413533D

 30 32  0  0  0  0  0  0  0  0999 V2000
  189.0160  177.6210  143.5160 C   0  0  0  0  0  3  0  0  0  0  0  0
  190.9760  176.8640  144.7360 C   0  0  0  0  0  0  0  0  0  0  0  0
  186.8170  177.9030  147.1010 C   0  0  0  0  0  3  0  0  0  0  0  0
  187.6820  178.0370  143.4790 C   0  0  0  0  0  0  0  0  0  0  0  0
  185.4930  178.3440  147.0730 C   0  0  0  0  0  3  0  0  0  0  0  0
  191.5890  176.5240  145.9450 C   0  0  0  0  0  3  0  0  0  0  0  0
  191.7080  176.7770  143.5570 O   0  0  0  0  0  1  0  0  0  0  0  0
  187.5640  177.7970  145.9140 C   0  0  0  0  0  0  0  0  0  0  0  0
  190.8770  176.6020  147.1430 C   0  0  0  0  0  3  0  0  0  0  0  0
  189.6360  177.2850  144.7230 C   0  0  0  0  0  0  0  0  0  0  0  0
  186.9520  178.1380  144.6800 C   0  0  0  0  0  0  0  0  0  0  0  0
  184.8970  178.6880  145.8600 C   0  0  0  0  0  3  0  0  0  0  0  0
  185.6220  178.5880  144.6710 C   0  0  0  0  0  3  0  0  0  0  0  0
  189.5450  177.0210  147.1380 C   0  0  0  0  0  3  0  0  0  0  0  0
  188.9070  177.3670  145.9340 C   0  0  0  0  0  0  0  0  0  0  0  0
  187.2360  178.3770  139.8700 O   0  0  0  0  0  0  0  0  0  0  0  0
  187.8040  178.1610  140.9740 C   0  0  0  0  0  0  0  0  0  0  0  0
  187.0820  178.3440  142.2090 N   0  0  0  0  0  0  0  0  0  0  0  0
  189.2410  177.7530  140.9720 C   0  0  0  0  0  2  0  0  0  0  0  0
  189.7920  177.8070  139.5600 C   0  0  0  0  0  2  0  0  0  0  0  0
  192.0740  177.1790  139.8070 O   0  0  0  0  0  1  0  0  0  0  0  0
  190.9210  176.8500  139.4260 C   0  0  0  0  0  0  0  0  0  0  0  0
  190.7100  175.6040  138.8490 O   0  0  0  0  0  0  0  0  0  0  0  0
  185.7660  178.9740  142.1920 C   0  0  0  0  0  2  0  0  0  0  0  0
  184.6950  177.9450  141.8660 C   0  0  0  0  0  2  0  0  0  0  0  0
  183.4010  178.6390  141.4870 C   0  0  0  0  0  2  0  0  0  0  0  0
  183.0040  178.2460  140.1440 N   0  0  0  0  0  2  0  0  0  0  0  0
  184.2560  180.1230  139.1180 N   0  0  0  0  0  1  0  0  0  0  0  0
  183.4240  178.9740  138.9900 C   0  0  0  0  0  0  0  0  0  0  0  0
  183.0560  178.5950  137.8480 O   0  0  0  0  0  0  0  0  0  0  0  0
  1 10  1  0  0  0  0
  2  6  1  0  0  0  0
  4  1  2  0  0  0  0
  4 11  1  0  0  0  0
  5  3  1  0  0  0  0
  6  9  2  0  0  0  0
  7  2  1  0  0  0  0
  8 15  1  0  0  0  0
  8  3  2  0  0  0  0
 10  2  2  0  0  0  0
 10 15  1  0  0  0  0
 11  8  1  0  0  0  0
 12  5  2  0  0  0  0
 13 11  2  0  0  0  0
 13 12  1  0  0  0  0
 14  9  1  0  0  0  0
 15 14  2  0  0  0  0
 16 17  2  0  0  0  0
 17 18  1  0  0  0  0
 18  4  1  0  0  0  0
 19 17  1  0  0  0  0
 20 19  1  0  0  0  0
 22 20  1  0  0  0  0
 22 21  1  0  0  0  0
 23 22  2  0  0  0  0
 24 18  1  0  0  0  0
 25 24  1  0  0  0  0
 26 25  1  0  0  0  0
 27 26  1  0  0  0  0
 29 28  1  0  0  0  0
 29 27  1  0  0  0  0
 30 29  2  0  0  0  0
M  END
>  <MODEL>
2

>  <REMARK>
 VINA RESULT:      -9.0      2.513      6.511
  Name = 
  8 active torsions:
  status: ('A' for Active; 'I' for Inactive)
    1  A    between atoms: C_4  and  N_13
    2  A    between atoms: N_7  and  C_16
    3  A    between atoms: C_8  and  C_12
    4  A    between atoms: C_9  and  C_12
    5  A    between atoms: C_9  and  C_17
    6  A    between atoms: N_13  and  C_27
    7  A    between atoms: C_16  and  C_30
    8  A    between atoms: C_27  and  C_30
                            x       y       z     vdW  Elec       q    Type
                         _______ _______ _______ _____ _____    ______ ____

>  <TORSDO>
F 8

$$$$
=
 OpenBabel10272413533D

 30 32  0  0  0  0  0  0  0  0999 V2000
  188.1860  177.8440  144.1750 C   0  0  0  0  0  3  0  0  0  0  0  0
  187.8410  177.9770  146.5760 C   0  0  0  0  0  0  0  0  0  0  0  0
  184.0990  178.6090  143.4830 C   0  0  0  0  0  3  0  0  0  0  0  0
  187.7030  177.8930  142.8630 C   0  0  0  0  0  0  0  0  0  0  0  0
  183.6170  178.6860  142.1750 C   0  0  0  0  0  3  0  0  0  0  0  0
  186.9850  178.1630  147.6640 C   0  0  0  0  0  3  0  0  0  0  0  0
  189.1900  177.7330  146.8080 O   0  0  0  0  0  1  0  0  0  0  0  0
  185.4580  178.3490  143.7330 C   0  0  0  0  0  0  0  0  0  0  0  0
  185.6260  178.4090  147.4580 C   0  0  0  0  0  3  0  0  0  0  0  0
  187.3360  178.0350  145.2660 C   0  0  0  0  0  0  0  0  0  0  0  0
  186.3380  178.1560  142.6350 C   0  0  0  0  0  0  0  0  0  0  0  0
  184.4850  178.5060  141.0990 C   0  0  0  0  0  3  0  0  0  0  0  0
  185.8370  178.2450  141.3270 C   0  0  0  0  0  3  0  0  0  0  0  0
  185.1160  178.4710  146.1590 C   0  0  0  0  0  3  0  0  0  0  0  0
  185.9580  178.2850  145.0500 C   0  0  0  0  0  0  0  0  0  0  0  0
  190.3460  176.3860  140.8420 O   0  0  0  0  0  0  0  0  0  0  0  0
  189.6000  176.6110  141.8330 C   0  0  0  0  0  0  0  0  0  0  0  0
  188.6140  177.6610  141.7750 N   0  0  0  0  0  0  0  0  0  0  0  0
  189.7880  175.7950  143.0700 C   0  0  0  0  0  2  0  0  0  0  0  0
  191.2660  175.6830  143.3960 C   0  0  0  0  0  2  0  0  0  0  0  0
  191.8190  176.1650  145.6600 O   0  0  0  0  0  1  0  0  0  0  0  0
  191.6060  176.6130  144.5040 C   0  0  0  0  0  0  0  0  0  0  0  0
  191.6580  177.9810  144.2700 O   0  0  0  0  0  0  0  0  0  0  0  0
  188.6170  178.5960  140.6550 C   0  0  0  0  0  2  0  0  0  0  0  0
  188.3630  177.8550  139.3520 C   0  0  0  0  0  2  0  0  0  0  0  0
  188.9900  178.6050  138.1920 C   0  0  0  0  0  2  0  0  0  0  0  0
  187.9850  178.8800  137.1780 N   0  0  0  0  0  2  0  0  0  0  0  0
  188.6710  176.9210  135.8250 N   0  0  0  0  0  1  0  0  0  0  0  0
  187.8320  178.0560  136.0230 C   0  0  0  0  0  0  0  0  0  0  0  0
  186.9470  178.3330  135.1740 O   0  0  0  0  0  0  0  0  0  0  0  0
  1 10  1  0  0  0  0
  2  7  1  0  0  0  0
  2  6  1  0  0  0  0
  3  8  1  0  0  0  0
  4  1  2  0  0  0  0
  5  3  2  0  0  0  0
  8 15  1  0  0  0  0
  9  6  2  0  0  0  0
 10  2  2  0  0  0  0
 11  4  1  0  0  0  0
 11  8  2  0  0  0  0
 12 13  2  0  0  0  0
 12  5  1  0  0  0  0
 13 11  1  0  0  0  0
 14  9  1  0  0  0  0
 15 10  1  0  0  0  0
 15 14  2  0  0  0  0
 16 17  2  0  0  0  0
 17 19  1  0  0  0  0
 18 17  1  0  0  0  0
 18  4  1  0  0  0  0
 19 20  1  0  0  0  0
 20 22  1  0  0  0  0
 22 21  1  0  0  0  0
 23 22  2  0  0  0  0
 24 18  1  0  0  0  0
 25 24  1  0  0  0  0
 26 25  1  0  0  0  0
 27 26  1  0  0  0  0
 28 29  1  0  0  0  0
 29 27  1  0  0  0  0
 30 29  2  0  0  0  0
M  END
>  <MODEL>
3

>  <REMARK>
 VINA RESULT:      -9.0      2.420      6.490
  Name = 
  8 active torsions:
  status: ('A' for Active; 'I' for Inactive)
    1  A    between atoms: C_4  and  N_13
    2  A    between atoms: N_7  and  C_16
    3  A    between atoms: C_8  and  C_12
    4  A    between atoms: C_9  and  C_12
    5  A    between atoms: C_9  and  C_17
    6  A    between atoms: N_13  and  C_27
    7  A    between atoms: C_16  and  C_30
    8  A    between atoms: C_27  and  C_30
                            x       y       z     vdW  Elec       q    Type
                         _______ _______ _______ _____ _____    ______ ____

>  <TORSDO>
F 8

$$$$
=
 OpenBabel10272413533D

 30 32  0  0  0  0  0  0  0  0999 V2000
  188.6160  177.7580  143.3570 C   0  0  0  0  0  3  0  0  0  0  0  0
  190.5080  177.0290  144.6950 C   0  0  0  0  0  0  0  0  0  0  0  0
  186.1990  178.0110  146.8000 C   0  0  0  0  0  3  0  0  0  0  0  0
  187.2810  178.1570  143.2380 C   0  0  0  0  0  0  0  0  0  0  0  0
  184.8730  178.4340  146.6910 C   0  0  0  0  0  3  0  0  0  0  0  0
  191.0510  176.6980  145.9390 C   0  0  0  0  0  3  0  0  0  0  0  0
  191.3110  176.9520  143.5620 O   0  0  0  0  0  1  0  0  0  0  0  0
  187.0180  177.9160  145.6610 C   0  0  0  0  0  0  0  0  0  0  0  0
  190.2650  176.7660  147.0910 C   0  0  0  0  0  3  0  0  0  0  0  0
  189.1660  177.4320  144.5990 C   0  0  0  0  0  0  0  0  0  0  0  0
  186.4770  178.2480  144.3920 C   0  0  0  0  0  0  0  0  0  0  0  0
  184.3480  178.7700  145.4430 C   0  0  0  0  0  3  0  0  0  0  0  0
  185.1450  178.6790  144.3010 C   0  0  0  0  0  3  0  0  0  0  0  0
  188.9310  177.1670  147.0040 C   0  0  0  0  0  3  0  0  0  0  0  0
  188.3630  177.5040  145.7640 C   0  0  0  0  0  0  0  0  0  0  0  0
  187.0590  178.5090  139.6090 O   0  0  0  0  0  0  0  0  0  0  0  0
  187.5610  178.3020  140.7460 C   0  0  0  0  0  0  0  0  0  0  0  0
  186.7560  178.4550  141.9330 N   0  0  0  0  0  0  0  0  0  0  0  0
  189.0060  177.9350  140.8350 C   0  0  0  0  0  2  0  0  0  0  0  0
  189.5930  177.8020  139.4430 C   0  0  0  0  0  2  0  0  0  0  0  0
  191.8520  177.3270  140.0210 O   0  0  0  0  0  1  0  0  0  0  0  0
  190.7890  176.9220  139.4850 C   0  0  0  0  0  0  0  0  0  0  0  0
  190.7430  175.6610  138.9010 O   0  0  0  0  0  0  0  0  0  0  0  0
  185.4260  179.0470  141.8340 C   0  0  0  0  0  2  0  0  0  0  0  0
  184.4430  178.0390  141.2580 C   0  0  0  0  0  2  0  0  0  0  0  0
  183.1210  178.7150  140.9480 C   0  0  0  0  0  2  0  0  0  0  0  0
  182.2840  178.7340  142.1360 N   0  0  0  0  0  2  0  0  0  0  0  0
  180.3620  179.6780  140.8890 N   0  0  0  0  0  1  0  0  0  0  0  0
  180.9370  179.2050  142.1030 C   0  0  0  0  0  0  0  0  0  0  0  0
  180.2510  179.2020  143.1580 O   0  0  0  0  0  0  0  0  0  0  0  0
  1 10  1  0  0  0  0
  2  6  1  0  0  0  0
  4  1  2  0  0  0  0
  4 11  1  0  0  0  0
  5  3  1  0  0  0  0
  6  9  2  0  0  0  0
  7  2  1  0  0  0  0
  8 15  1  0  0  0  0
  8  3  2  0  0  0  0
 10  2  2  0  0  0  0
 10 15  1  0  0  0  0
 11  8  1  0  0  0  0
 12  5  2  0  0  0  0
 13 11  2  0  0  0  0
 13 12  1  0  0  0  0
 14  9  1  0  0  0  0
 15 14  2  0  0  0  0
 16 17  2  0  0  0  0
 17 19  1  0  0  0  0
 17 18  1  0  0  0  0
 18  4  1  0  0  0  0
 20 22  1  0  0  0  0
 20 19  1  0  0  0  0
 22 21  1  0  0  0  0
 23 22  2  0  0  0  0
 24 18  1  0  0  0  0
 25 24  1  0  0  0  0
 26 25  1  0  0  0  0
 26 27  1  0  0  0  0
 28 29  1  0  0  0  0
 29 27  1  0  0  0  0
 29 30  2  0  0  0  0
M  END
>  <MODEL>
4

>  <REMARK>
 VINA RESULT:      -8.8      2.637      6.519
  Name = 
  8 active torsions:
  status: ('A' for Active; 'I' for Inactive)
    1  A    between atoms: C_4  and  N_13
    2  A    between atoms: N_7  and  C_16
    3  A    between atoms: C_8  and  C_12
    4  A    between atoms: C_9  and  C_12
    5  A    between atoms: C_9  and  C_17
    6  A    between atoms: N_13  and  C_27
    7  A    between atoms: C_16  and  C_30
    8  A    between atoms: C_27  and  C_30
                            x       y       z     vdW  Elec       q    Type
                         _______ _______ _______ _____ _____    ______ ____

>  <TORSDO>
F 8

$$$$
=
 OpenBabel10272413533D

 30 32  0  0  0  0  0  0  0  0999 V2000
  186.8190  177.9890  143.0840 C   0  0  0  0  0  3  0  0  0  0  0  0
  184.9810  178.4680  144.5990 C   0  0  0  0  0  0  0  0  0  0  0  0
  189.4090  177.3140  146.3400 C   0  0  0  0  0  3  0  0  0  0  0  0
  188.1540  177.6480  142.8470 C   0  0  0  0  0  0  0  0  0  0  0  0
  190.7360  176.9470  146.1100 C   0  0  0  0  0  3  0  0  0  0  0  0
  184.4950  178.6040  145.9020 C   0  0  0  0  0  3  0  0  0  0  0  0
  184.1210  178.6830  143.5280 O   0  0  0  0  0  1  0  0  0  0  0  0
  188.5320  177.5480  145.2660 C   0  0  0  0  0  0  0  0  0  0  0  0
  185.3380  178.3930  146.9940 C   0  0  0  0  0  3  0  0  0  0  0  0
  186.3250  178.1200  144.3840 C   0  0  0  0  0  0  0  0  0  0  0  0
  189.0160  177.4160  143.9380 C   0  0  0  0  0  0  0  0  0  0  0  0
  191.2060  176.8070  144.8040 C   0  0  0  0  0  3  0  0  0  0  0  0
  190.3510  177.0380  143.7250 C   0  0  0  0  0  3  0  0  0  0  0  0
  186.6740  178.0450  146.7890 C   0  0  0  0  0  3  0  0  0  0  0  0
  187.1860  177.9040  145.4880 C   0  0  0  0  0  0  0  0  0  0  0  0
  188.3470  178.1090  139.2290 O   0  0  0  0  0  0  0  0  0  0  0  0
  187.8870  178.1510  140.4020 C   0  0  0  0  0  0  0  0  0  0  0  0
  188.6200  177.5530  141.4900 N   0  0  0  0  0  0  0  0  0  0  0  0
  186.5580  178.7950  140.6270 C   0  0  0  0  0  2  0  0  0  0  0  0
  185.6020  178.4110  139.5130 C   0  0  0  0  0  2  0  0  0  0  0  0
  184.1710  180.2910  139.2320 O   0  0  0  0  0  0  0  0  0  0  0  0
  184.3130  179.1280  139.6900 C   0  0  0  0  0  0  0  0  0  0  0  0
  183.2740  178.5270  140.3900 O   0  0  0  0  0  1  0  0  0  0  0  0
  189.7860  176.7230  141.2080 C   0  0  0  0  0  2  0  0  0  0  0  0
  190.9430  177.5870  140.7310 C   0  0  0  0  0  2  0  0  0  0  0  0
  191.5940  176.9630  139.5110 C   0  0  0  0  0  2  0  0  0  0  0  0
  190.7810  175.8590  139.0270 N   0  0  0  0  0  2  0  0  0  0  0  0
  192.5600  175.0970  137.4780 N   0  0  0  0  0  1  0  0  0  0  0  0
  191.2560  174.9500  138.0340 C   0  0  0  0  0  0  0  0  0  0  0  0
  190.5170  174.0090  137.6470 O   0  0  0  0  0  0  0  0  0  0  0  0
  1 10  1  0  0  0  0
  2  6  1  0  0  0  0
  4  1  2  0  0  0  0
  4 11  1  0  0  0  0
  5  3  1  0  0  0  0
  6  9  2  0  0  0  0
  7  2  1  0  0  0  0
  8 15  1  0  0  0  0
  8  3  2  0  0  0  0
 10  2  2  0  0  0  0
 10 15  1  0  0  0  0
 11  8  1  0  0  0  0
 12  5  2  0  0  0  0
 13 11  2  0  0  0  0
 13 12  1  0  0  0  0
 14  9  1  0  0  0  0
 15 14  2  0  0  0  0
 16 17  2  0  0  0  0
 17 19  1  0  0  0  0
 17 18  1  0  0  0  0
 18  4  1  0  0  0  0
 20 22  1  0  0  0  0
 20 19  1  0  0  0  0
 21 22  2  0  0  0  0
 22 23  1  0  0  0  0
 24 18  1  0  0  0  0
 25 24  1  0  0  0  0
 26 25  1  0  0  0  0
 27 26  1  0  0  0  0
 28 29  1  0  0  0  0
 29 27  1  0  0  0  0
 30 29  2  0  0  0  0
M  END
>  <MODEL>
5

>  <REMARK>
 VINA RESULT:      -8.7      2.814      4.548
  Name = 
  8 active torsions:
  status: ('A' for Active; 'I' for Inactive)
    1  A    between atoms: C_4  and  N_13
    2  A    between atoms: N_7  and  C_16
    3  A    between atoms: C_8  and  C_12
    4  A    between atoms: C_9  and  C_12
    5  A    between atoms: C_9  and  C_17
    6  A    between atoms: N_13  and  C_27
    7  A    between atoms: C_16  and  C_30
    8  A    between atoms: C_27  and  C_30
                            x       y       z     vdW  Elec       q    Type
                         _______ _______ _______ _____ _____    ______ ____

>  <TORSDO>
F 8

$$$$
=
 OpenBabel10272413533D

 30 32  0  0  0  0  0  0  0  0999 V2000
  187.1470  178.1140  144.9090 C   0  0  0  0  0  3  0  0  0  0  0  0
  186.8560  178.4470  147.2980 C   0  0  0  0  0  0  0  0  0  0  0  0
  191.0060  176.5390  145.5360 C   0  0  0  0  0  3  0  0  0  0  0  0
  187.9130  177.7010  143.8140 C   0  0  0  0  0  0  0  0  0  0  0  0
  191.7640  176.1000  144.4500 C   0  0  0  0  0  3  0  0  0  0  0  0
  187.3570  178.3590  148.5990 C   0  0  0  0  0  3  0  0  0  0  0  0
  185.5790  178.9600  147.0950 O   0  0  0  0  0  1  0  0  0  0  0  0
  189.7190  177.0720  145.3450 C   0  0  0  0  0  0  0  0  0  0  0  0
  188.6360  177.8490  148.8280 C   0  0  0  0  0  3  0  0  0  0  0  0
  187.6410  178.0230  146.2120 C   0  0  0  0  0  0  0  0  0  0  0  0
  189.2000  177.1680  144.0270 C   0  0  0  0  0  0  0  0  0  0  0  0
  191.2480  176.1870  143.1570 C   0  0  0  0  0  3  0  0  0  0  0  0
  189.9730  176.7150  142.9470 C   0  0  0  0  0  3  0  0  0  0  0  0
  189.4220  177.4230  147.7550 C   0  0  0  0  0  3  0  0  0  0  0  0
  188.9390  177.5030  146.4380 C   0  0  0  0  0  0  0  0  0  0  0  0
  185.5700  178.4300  141.1090 O   0  0  0  0  0  0  0  0  0  0  0  0
  186.0040  178.2530  142.2780 C   0  0  0  0  0  0  0  0  0  0  0  0
  187.3700  177.8430  142.4900 N   0  0  0  0  0  0  0  0  0  0  0  0
  185.0670  178.4390  143.4270 C   0  0  0  0  0  2  0  0  0  0  0  0
  183.6660  178.7130  142.9110 C   0  0  0  0  0  2  0  0  0  0  0  0
  183.2000  179.1640  145.2010 O   0  0  0  0  0  1  0  0  0  0  0  0
  182.7410  178.9140  144.0570 C   0  0  0  0  0  0  0  0  0  0  0  0
  181.3700  178.7920  143.8710 O   0  0  0  0  0  0  0  0  0  0  0  0
  188.1880  177.4340  141.3530 C   0  0  0  0  0  2  0  0  0  0  0  0
  188.5700  178.6460  140.5180 C   0  0  0  0  0  2  0  0  0  0  0  0
  189.2110  178.2040  139.2160 C   0  0  0  0  0  2  0  0  0  0  0  0
  189.7990  176.8840  139.3770 N   0  0  0  0  0  2  0  0  0  0  0  0
  190.4110  176.7540  136.9790 N   0  0  0  0  0  1  0  0  0  0  0  0
  190.3840  176.1790  138.2820 C   0  0  0  0  0  0  0  0  0  0  0  0
  190.8820  175.0390  138.4710 O   0  0  0  0  0  0  0  0  0  0  0  0
  1 10  1  0  0  0  0
  2  6  1  0  0  0  0
  4 11  1  0  0  0  0
  4  1  2  0  0  0  0
  5  3  2  0  0  0  0
  6  9  2  0  0  0  0
  7  2  1  0  0  0  0
  8  3  1  0  0  0  0
  8 15  1  0  0  0  0
 10 15  1  0  0  0  0
 10  2  2  0  0  0  0
 11  8  2  0  0  0  0
 12  5  1  0  0  0  0
 13 12  2  0  0  0  0
 13 11  1  0  0  0  0
 14  9  1  0  0  0  0
 15 14  2  0  0  0  0
 16 17  2  0  0  0  0
 17 18  1  0  0  0  0
 17 19  1  0  0  0  0
 18  4  1  0  0  0  0
 20 19  1  0  0  0  0
 20 22  1  0  0  0  0
 22 21  1  0  0  0  0
 23 22  2  0  0  0  0
 24 18  1  0  0  0  0
 25 24  1  0  0  0  0
 26 27  1  0  0  0  0
 26 25  1  0  0  0  0
 28 29  1  0  0  0  0
 29 30  2  0  0  0  0
 29 27  1  0  0  0  0
M  END
>  <MODEL>
6

>  <REMARK>
 VINA RESULT:      -8.6      2.543      6.066
  Name = 
  8 active torsions:
  status: ('A' for Active; 'I' for Inactive)
    1  A    between atoms: C_4  and  N_13
    2  A    between atoms: N_7  and  C_16
    3  A    between atoms: C_8  and  C_12
    4  A    between atoms: C_9  and  C_12
    5  A    between atoms: C_9  and  C_17
    6  A    between atoms: N_13  and  C_27
    7  A    between atoms: C_16  and  C_30
    8  A    between atoms: C_27  and  C_30
                            x       y       z     vdW  Elec       q    Type
                         _______ _______ _______ _____ _____    ______ ____

>  <TORSDO>
F 8

$$$$
=
 OpenBabel10272413533D

 30 32  0  0  0  0  0  0  0  0999 V2000
  187.9270  177.8430  144.4040 C   0  0  0  0  0  3  0  0  0  0  0  0
  186.3780  178.0580  146.2630 C   0  0  0  0  0  0  0  0  0  0  0  0
  184.8660  178.7840  141.6640 C   0  0  0  0  0  3  0  0  0  0  0  0
  188.2100  177.8790  143.0350 C   0  0  0  0  0  0  0  0  0  0  0  0
  185.1490  178.8480  140.2980 C   0  0  0  0  0  3  0  0  0  0  0  0
  185.0890  178.3150  146.7370 C   0  0  0  0  0  3  0  0  0  0  0  0
  187.3870  177.7560  147.1710 O   0  0  0  0  0  1  0  0  0  0  0  0
  185.8730  178.4660  142.5920 C   0  0  0  0  0  0  0  0  0  0  0  0
  184.0590  178.6200  145.8460 C   0  0  0  0  0  3  0  0  0  0  0  0
  186.6410  178.1050  144.8840 C   0  0  0  0  0  0  0  0  0  0  0  0
  187.1860  178.2010  142.1220 C   0  0  0  0  0  0  0  0  0  0  0  0
  186.4420  178.5970  139.8410 C   0  0  0  0  0  3  0  0  0  0  0  0
  187.4550  178.2780  140.7470 C   0  0  0  0  0  3  0  0  0  0  0  0
  184.3120  178.6700  144.4740 C   0  0  0  0  0  3  0  0  0  0  0  0
  185.6010  178.4140  143.9750 C   0  0  0  0  0  0  0  0  0  0  0  0
  191.7190  176.8680  143.1010 O   0  0  0  0  0  0  0  0  0  0  0  0
  190.5760  177.1910  143.5210 C   0  0  0  0  0  0  0  0  0  0  0  0
  189.5430  177.5740  142.5900 N   0  0  0  0  0  0  0  0  0  0  0  0
  190.3310  177.2030  144.9940 C   0  0  0  0  0  2  0  0  0  0  0  0
  191.5900  176.7850  145.7310 C   0  0  0  0  0  2  0  0  0  0  0  0
  190.1270  176.3520  147.5570 O   0  0  0  0  0  0  0  0  0  0  0  0
  191.2950  176.6260  147.1780 C   0  0  0  0  0  0  0  0  0  0  0  0
  192.3020  176.8130  148.1170 O   0  0  0  0  0  1  0  0  0  0  0  0
  189.8770  177.7880  141.1860 C   0  0  0  0  0  2  0  0  0  0  0  0
  190.3660  176.4920  140.5590 C   0  0  0  0  0  2  0  0  0  0  0  0
  190.4130  176.6260  139.0490 C   0  0  0  0  0  2  0  0  0  0  0  0
  190.8160  175.3640  138.4510 N   0  0  0  0  0  2  0  0  0  0  0  0
  192.9660  176.3100  137.6610 N   0  0  0  0  0  1  0  0  0  0  0  0
  192.0640  175.2130  137.7740 C   0  0  0  0  0  0  0  0  0  0  0  0
  192.3700  174.1000  137.2740 O   0  0  0  0  0  0  0  0  0  0  0  0
  1 10  1  0  0  0  0
  2  6  1  0  0  0  0
  2  7  1  0  0  0  0
  3  8  1  0  0  0  0
  4  1  2  0  0  0  0
  5  3  2  0  0  0  0
  8 15  1  0  0  0  0
  9  6  2  0  0  0  0
 10  2  2  0  0  0  0
 11  8  2  0  0  0  0
 11  4  1  0  0  0  0
 12  5  1  0  0  0  0
 12 13  2  0  0  0  0
 13 11  1  0  0  0  0
 14  9  1  0  0  0  0
 15 14  2  0  0  0  0
 15 10  1  0  0  0  0
 16 17  2  0  0  0  0
 17 19  1  0  0  0  0
 18  4  1  0  0  0  0
 18 17  1  0  0  0  0
 19 20  1  0  0  0  0
 20 22  1  0  0  0  0
 22 21  2  0  0  0  0
 22 23  1  0  0  0  0
 24 18  1  0  0  0  0
 25 24  1  0  0  0  0
 26 25  1  0  0  0  0
 27 26  1  0  0  0  0
 28 29  1  0  0  0  0
 29 27  1  0  0  0  0
 30 29  2  0  0  0  0
M  END
>  <MODEL>
7

>  <REMARK>
 VINA RESULT:      -8.2      2.782      6.196
  Name = 
  8 active torsions:
  status: ('A' for Active; 'I' for Inactive)
    1  A    between atoms: C_4  and  N_13
    2  A    between atoms: N_7  and  C_16
    3  A    between atoms: C_8  and  C_12
    4  A    between atoms: C_9  and  C_12
    5  A    between atoms: C_9  and  C_17
    6  A    between atoms: N_13  and  C_27
    7  A    between atoms: C_16  and  C_30
    8  A    between atoms: C_27  and  C_30
                            x       y       z     vdW  Elec       q    Type
                         _______ _______ _______ _____ _____    ______ ____

>  <TORSDO>
F 8

$$$$
=
 OpenBabel10272413533D

 30 32  0  0  0  0  0  0  0  0999 V2000
  185.7890  178.0750  141.6900 C   0  0  0  0  0  3  0  0  0  0  0  0
  183.7380  178.3830  140.4240 C   0  0  0  0  0  0  0  0  0  0  0  0
  183.7410  178.7950  145.3030 C   0  0  0  0  0  3  0  0  0  0  0  0
  186.4880  178.0430  142.9000 C   0  0  0  0  0  0  0  0  0  0  0  0
  184.4290  178.7370  146.5160 C   0  0  0  0  0  3  0  0  0  0  0  0
  182.3700  178.6660  140.3930 C   0  0  0  0  0  3  0  0  0  0  0  0
  184.4080  178.1380  139.2310 O   0  0  0  0  0  1  0  0  0  0  0  0
  184.4090  178.5630  144.0870 C   0  0  0  0  0  0  0  0  0  0  0  0
  181.6750  178.9160  141.5760 C   0  0  0  0  0  3  0  0  0  0  0  0
  184.4200  178.3510  141.6520 C   0  0  0  0  0  0  0  0  0  0  0  0
  185.8000  178.2760  144.1070 C   0  0  0  0  0  0  0  0  0  0  0  0
  185.7930  178.4450  146.5330 C   0  0  0  0  0  3  0  0  0  0  0  0
  186.4730  178.2150  145.3370 C   0  0  0  0  0  3  0  0  0  0  0  0
  182.3450  178.8840  142.8010 C   0  0  0  0  0  3  0  0  0  0  0  0
  183.7200  178.6030  142.8570 C   0  0  0  0  0  0  0  0  0  0  0  0
  189.9500  177.8860  141.7460 O   0  0  0  0  0  0  0  0  0  0  0  0
  188.7030  178.0640  141.7170 C   0  0  0  0  0  0  0  0  0  0  0  0
  187.9020  177.7820  142.8820 N   0  0  0  0  0  0  0  0  0  0  0  0
  188.0770  178.5340  140.4450 C   0  0  0  0  0  2  0  0  0  0  0  0
  188.3900  177.5610  139.3240 C   0  0  0  0  0  2  0  0  0  0  0  0
  190.3060  177.6260  137.9130 O   0  0  0  0  0  1  0  0  0  0  0  0
  189.2740  178.2160  138.3240 C   0  0  0  0  0  0  0  0  0  0  0  0
  188.9780  179.4950  137.8690 O   0  0  0  0  0  0  0  0  0  0  0  0
  188.5010  177.0970  144.0230 C   0  0  0  0  0  2  0  0  0  0  0  0
  189.5090  178.0040  144.7100 C   0  0  0  0  0  2  0  0  0  0  0  0
  190.2370  177.2440  145.8040 C   0  0  0  0  0  2  0  0  0  0  0  0
  189.2740  176.6230  146.6990 N   0  0  0  0  0  2  0  0  0  0  0  0
  189.3660  178.5280  148.2810 N   0  0  0  0  0  1  0  0  0  0  0  0
  188.8510  177.2530  147.9080 C   0  0  0  0  0  0  0  0  0  0  0  0
  188.0150  176.6760  148.6510 O   0  0  0  0  0  0  0  0  0  0  0  0
  1  4  1  0  0  0  0
  2 10  1  0  0  0  0
  3  5  2  0  0  0  0
  4 11  2  0  0  0  0
  5 12  1  0  0  0  0
  6  2  2  0  0  0  0
  6  9  1  0  0  0  0
  7  2  1  0  0  0  0
  8 11  1  0  0  0  0
  8  3  1  0  0  0  0
  9 14  2  0  0  0  0
 10  1  2  0  0  0  0
 10 15  1  0  0  0  0
 11 13  1  0  0  0  0
 13 12  2  0  0  0  0
 14 15  1  0  0  0  0
 15  8  2  0  0  0  0
 17 16  2  0  0  0  0
 17 18  1  0  0  0  0
 18  4  1  0  0  0  0
 18 24  1  0  0  0  0
 19 17  1  0  0  0  0
 20 19  1  0  0  0  0
 21 22  1  0  0  0  0
 22 20  1  0  0  0  0
 23 22  2  0  0  0  0
 24 25  1  0  0  0  0
 25 26  1  0  0  0  0
 26 27  1  0  0  0  0
 27 29  1  0  0  0  0
 29 28  1  0  0  0  0
 29 30  2  0  0  0  0
M  END
>  <MODEL>
8

>  <REMARK>
 VINA RESULT:      -8.1      1.700      2.286
  Name = 
  8 active torsions:
  status: ('A' for Active; 'I' for Inactive)
    1  A    between atoms: C_4  and  N_13
    2  A    between atoms: N_7  and  C_16
    3  A    between atoms: C_8  and  C_12
    4  A    between atoms: C_9  and  C_12
    5  A    between atoms: C_9  and  C_17
    6  A    between atoms: N_13  and  C_27
    7  A    between atoms: C_16  and  C_30
    8  A    between atoms: C_27  and  C_30
                            x       y       z     vdW  Elec       q    Type
                         _______ _______ _______ _____ _____    ______ ____

>  <TORSDO>
F 8

$$$$
=
 OpenBabel10272413533D

 30 32  0  0  0  0  0  0  0  0999 V2000
  184.5840  178.5330  141.0050 C   0  0  0  0  0  3  0  0  0  0  0  0
  186.3830  178.2740  142.6170 C   0  0  0  0  0  0  0  0  0  0  0  0
  181.7500  178.7840  144.1150 C   0  0  0  0  0  3  0  0  0  0  0  0
  183.2300  178.6950  140.6970 C   0  0  0  0  0  0  0  0  0  0  0  0
  180.4010  178.9740  143.8140 C   0  0  0  0  0  3  0  0  0  0  0  0
  186.8110  178.1780  143.9440 C   0  0  0  0  0  3  0  0  0  0  0  0
  187.3220  178.1990  141.5940 O   0  0  0  0  0  1  0  0  0  0  0  0
  182.7090  178.6920  143.0900 C   0  0  0  0  0  0  0  0  0  0  0  0
  185.8880  178.2500  144.9880 C   0  0  0  0  0  3  0  0  0  0  0  0
  185.0180  178.4420  142.3300 C   0  0  0  0  0  0  0  0  0  0  0  0
  182.2860  178.7860  141.7390 C   0  0  0  0  0  0  0  0  0  0  0  0
  179.9890  179.0760  142.4850 C   0  0  0  0  0  3  0  0  0  0  0  0
  180.9260  178.9850  141.4540 C   0  0  0  0  0  3  0  0  0  0  0  0
  184.5300  178.4190  144.7120 C   0  0  0  0  0  3  0  0  0  0  0  0
  184.0770  178.5170  143.3850 C   0  0  0  0  0  0  0  0  0  0  0  0
  182.0840  177.6440  137.3920 O   0  0  0  0  0  0  0  0  0  0  0  0
  182.4900  177.5610  138.5820 C   0  0  0  0  0  0  0  0  0  0  0  0
  182.8310  178.7540  139.3160 N   0  0  0  0  0  0  0  0  0  0  0  0
  182.6450  176.2070  139.1930 C   0  0  0  0  0  2  0  0  0  0  0  0
  181.2810  175.6210  139.5060 C   0  0  0  0  0  2  0  0  0  0  0  0
  181.4420  174.6650  137.3330 O   0  0  0  0  0  0  0  0  0  0  0  0
  180.9210  174.6120  138.4760 C   0  0  0  0  0  0  0  0  0  0  0  0
  179.9820  173.6300  138.7670 O   0  0  0  0  0  1  0  0  0  0  0  0
  182.9040  180.0350  138.6220 C   0  0  0  0  0  2  0  0  0  0  0  0
  181.5050  180.5640  138.3460 C   0  0  0  0  0  2  0  0  0  0  0  0
  181.4820  182.0750  138.4740 C   0  0  0  0  0  2  0  0  0  0  0  0
  181.0420  182.6710  137.2230 N   0  0  0  0  0  2  0  0  0  0  0  0
  182.2370  184.7900  137.6970 N   0  0  0  0  0  1  0  0  0  0  0  0
  181.4120  183.9980  136.8470 C   0  0  0  0  0  0  0  0  0  0  0  0
  181.0070  184.4700  135.7540 O   0  0  0  0  0  0  0  0  0  0  0  0
  1 10  1  0  0  0  0
  2  6  1  0  0  0  0
  4  1  2  0  0  0  0
  4 11  1  0  0  0  0
  5  3  1  0  0  0  0
  6  9  2  0  0  0  0
  7  2  1  0  0  0  0
  8 15  1  0  0  0  0
  8  3  2  0  0  0  0
 10  2  2  0  0  0  0
 10 15  1  0  0  0  0
 11  8  1  0  0  0  0
 12  5  2  0  0  0  0
 13 11  2  0  0  0  0
 13 12  1  0  0  0  0
 14  9  1  0  0  0  0
 15 14  2  0  0  0  0
 16 17  2  0  0  0  0
 17 19  1  0  0  0  0
 17 18  1  0  0  0  0
 18  4  1  0  0  0  0
 19 20  1  0  0  0  0
 21 22  2  0  0  0  0
 22 23  1  0  0  0  0
 22 20  1  0  0  0  0
 24 18  1  0  0  0  0
 25 26  1  0  0  0  0
 25 24  1  0  0  0  0
 27 26  1  0  0  0  0
 29 27  1  0  0  0  0
 29 28  1  0  0  0  0
 30 29  2  0  0  0  0
M  END
>  <MODEL>
9

>  <REMARK>
 VINA RESULT:      -8.1      4.925      8.869
  Name = 
  8 active torsions:
  status: ('A' for Active; 'I' for Inactive)
    1  A    between atoms: C_4  and  N_13
    2  A    between atoms: N_7  and  C_16
    3  A    between atoms: C_8  and  C_12
    4  A    between atoms: C_9  and  C_12
    5  A    between atoms: C_9  and  C_17
    6  A    between atoms: N_13  and  C_27
    7  A    between atoms: C_16  and  C_30
    8  A    between atoms: C_27  and  C_30
                            x       y       z     vdW  Elec       q    Type
                         _______ _______ _______ _____ _____    ______ ____

>  <TORSDO>
F 8

$$$$
