=
 OpenBabel10272401023D

 27 30  0  0  1  0  0  0  0  0999 V2000
  188.7730  176.8920  137.9370 O   0  0  0  0  0  0  0  0  0  0  0  0
  190.1600  177.0990  138.0130 C   0  0  0  0  0  2  0  0  0  0  0  0
  188.1920  177.8270  138.8080 C   0  0  0  0  0  2  0  0  0  0  0  0
  190.6820  176.5780  139.3490 C   0  0  0  0  0  2  0  0  0  0  0  0
  189.9730  177.3030  140.5020 C   0  0  1  0  0  3  0  0  0  0  0  0
  188.4560  177.4390  140.2640 C   0  0  1  0  0  3  0  0  0  0  0  0
  187.8570  178.5220  141.1530 C   0  0  0  0  0  2  0  0  0  0  0  0
  187.2770  177.9890  143.3330 C   0  0  0  0  0  2  0  0  0  0  0  0
  183.3540  179.2320  142.6310 O   0  0  0  0  0  0  0  0  0  0  0  0
  183.1150  177.5730  140.7170 C   0  0  0  0  0  2  0  0  0  0  0  0
  186.2110  177.5510  144.3440 C   0  0  0  0  0  2  0  0  0  0  0  0
  185.1170  179.2090  140.4690 C   0  0  0  0  0  2  0  0  0  0  0  0
  184.2630  178.0980  139.8450 C   0  0  0  0  0  2  0  0  0  0  0  0
  185.6310  178.9380  141.8980 C   0  0  1  0  0  3  0  0  0  0  0  0
  182.4870  178.6040  141.6910 C   0  0  0  0  0  2  0  0  0  0  0  0
  184.5070  178.4540  142.8140 C   0  0  1  0  0  3  0  0  0  0  0  0
  186.7610  177.9930  141.9570 N   0  0  0  0  0  0  0  0  0  0  0  0
  184.9880  178.4600  144.2510 C   0  0  0  0  0  2  0  0  0  0  0  0
  190.3000  176.6190  141.8300 C   0  0  0  0  0  2  0  0  0  0  0  0
  191.4950  177.2600  142.5270 C   0  0  0  0  0  2  0  0  0  0  0  0
  191.0200  178.3440  143.4760 C   0  0  0  0  0  2  0  0  0  0  0  0
  190.8940  176.6910  147.4480 C   0  0  0  0  0  2  0  0  0  0  0  0
  191.1520  177.9070  144.9270 C   0  0  0  0  0  3  0  0  0  0  0  0
  191.7240  176.4920  145.0220 C   0  0  0  0  0  2  0  0  0  0  0  0
  191.9190  176.0730  146.4860 C   0  0  0  0  0  2  0  0  0  0  0  0
  189.5780  176.9870  146.7380 C   0  0  0  0  0  2  0  0  0  0  0  0
  189.7780  178.0000  145.6050 C   0  0  0  0  0  2  0  0  0  0  0  0
  1  2  1  0  0  0  0
  1  3  1  0  0  0  0
  2  4  1  0  0  0  0
  3  6  1  0  0  0  0
  4  5  1  0  0  0  0
  5 19  1  1  0  0  0
  6  5  1  0  0  0  0
  6  7  1  1  0  0  0
  7 17  1  0  0  0  0
  8 11  1  0  0  0  0
  9 16  1  0  0  0  0
 10 15  1  0  0  0  0
 13 12  1  0  0  0  0
 13 10  1  0  0  0  0
 14 12  1  6  0  0  0
 14 17  1  0  0  0  0
 14 16  1  0  0  0  0
 15  9  1  0  0  0  0
 16 18  1  1  0  0  0
 17  8  1  0  0  0  0
 18 11  1  0  0  0  0
 19 20  1  0  0  0  0
 20 21  1  0  0  0  0
 21 23  1  0  0  0  0
 23 24  1  0  0  0  0
 23 27  1  0  0  0  0
 24 25  1  0  0  0  0
 25 22  1  0  0  0  0
 26 22  1  0  0  0  0
 27 26  1  0  0  0  0
M  END
>  <MODEL>
1

>  <REMARK>
 VINA RESULT:      -8.1      0.000      0.000
  Name = 
  6 active torsions:
  status: ('A' for Active; 'I' for Inactive)
    1  A    between atoms: C_1  and  C_15
    2  A    between atoms: C_1  and  C_18
    3  A    between atoms: C_3  and  N_19
    4  A    between atoms: C_3  and  C_26
    5  A    between atoms: C_9  and  C_15
    6  A    between atoms: C_18  and  C_24
                            x       y       z     vdW  Elec       q    Type
                         _______ _______ _______ _____ _____    ______ ____

>  <TORSDO>
F 6

$$$$
=
 OpenBabel10272401023D

 27 30  0  0  1  0  0  0  0  0999 V2000
  189.0840  177.0250  138.7480 O   0  0  0  0  0  0  0  0  0  0  0  0
  190.3510  177.2580  139.3070 C   0  0  0  0  0  2  0  0  0  0  0  0
  188.2310  177.9970  139.2960 C   0  0  0  0  0  2  0  0  0  0  0  0
  190.3520  176.8200  140.7680 C   0  0  0  0  0  2  0  0  0  0  0  0
  189.2790  177.5960  141.5450 C   0  0  1  0  0  3  0  0  0  0  0  0
  187.9500  177.6940  140.7680 C   0  0  1  0  0  3  0  0  0  0  0  0
  187.0760  178.8150  141.3180 C   0  0  0  0  0  2  0  0  0  0  0  0
  185.8660  178.6230  143.2860 C   0  0  0  0  0  2  0  0  0  0  0  0
  182.2940  179.1030  141.1780 O   0  0  0  0  0  0  0  0  0  0  0  0
  182.8290  177.0950  139.7110 C   0  0  0  0  0  2  0  0  0  0  0  0
  184.5690  178.2290  144.0030 C   0  0  0  0  0  2  0  0  0  0  0  0
  184.6590  178.9370  139.7080 C   0  0  0  0  0  2  0  0  0  0  0  0
  184.1500  177.6130  139.1270 C   0  0  0  0  0  2  0  0  0  0  0  0
  184.7030  179.0230  141.2470 C   0  0  1  0  0  3  0  0  0  0  0  0
  181.8350  178.1850  140.1910 C   0  0  0  0  0  2  0  0  0  0  0  0
  183.3860  178.5580  141.8700 C   0  0  1  0  0  3  0  0  0  0  0  0
  185.8260  178.2880  141.8560 N   0  0  0  0  0  0  0  0  0  0  0  0
  183.3720  178.9090  143.3440 C   0  0  0  0  0  2  0  0  0  0  0  0
  189.1000  176.9910  142.9380 C   0  0  0  0  0  2  0  0  0  0  0  0
  189.7110  177.8680  144.0260 C   0  0  0  0  0  2  0  0  0  0  0  0
  190.1990  177.0020  145.1730 C   0  0  0  0  0  2  0  0  0  0  0  0
  187.7290  177.7480  148.6170 C   0  0  0  0  0  2  0  0  0  0  0  0
  189.2400  177.0510  146.3510 C   0  0  0  0  0  3  0  0  0  0  0  0
  188.1020  178.0390  146.0900 C   0  0  0  0  0  2  0  0  0  0  0  0
  187.0960  178.0420  147.2500 C   0  0  0  0  0  2  0  0  0  0  0  0
  189.1890  178.1870  148.6570 C   0  0  0  0  0  2  0  0  0  0  0  0
  190.0220  177.4250  147.6190 C   0  0  0  0  0  2  0  0  0  0  0  0
  1  3  1  0  0  0  0
  1  2  1  0  0  0  0
  2  4  1  0  0  0  0
  3  6  1  0  0  0  0
  4  5  1  0  0  0  0
  5 19  1  1  0  0  0
  6  7  1  1  0  0  0
  6  5  1  0  0  0  0
  7 17  1  0  0  0  0
  8 11  1  0  0  0  0
  9 16  1  0  0  0  0
 10 15  1  0  0  0  0
 13 12  1  0  0  0  0
 13 10  1  0  0  0  0
 14 12  1  6  0  0  0
 14 17  1  0  0  0  0
 14 16  1  0  0  0  0
 15  9  1  0  0  0  0
 16 18  1  1  0  0  0
 17  8  1  0  0  0  0
 18 11  1  0  0  0  0
 19 20  1  0  0  0  0
 20 21  1  0  0  0  0
 21 23  1  0  0  0  0
 22 26  1  0  0  0  0
 23 27  1  0  0  0  0
 24 23  1  0  0  0  0
 24 25  1  0  0  0  0
 25 22  1  0  0  0  0
 27 26  1  0  0  0  0
M  END
>  <MODEL>
2

>  <REMARK>
 VINA RESULT:      -7.9      1.376      2.087
  Name = 
  6 active torsions:
  status: ('A' for Active; 'I' for Inactive)
    1  A    between atoms: C_1  and  C_15
    2  A    between atoms: C_1  and  C_18
    3  A    between atoms: C_3  and  N_19
    4  A    between atoms: C_3  and  C_26
    5  A    between atoms: C_9  and  C_15
    6  A    between atoms: C_18  and  C_24
                            x       y       z     vdW  Elec       q    Type
                         _______ _______ _______ _____ _____    ______ ____

>  <TORSDO>
F 6

$$$$
=
 OpenBabel10272401023D

 27 30  0  0  1  0  0  0  0  0999 V2000
  185.7770  179.7980  141.8740 O   0  0  0  0  0  0  0  0  0  0  0  0
  184.7630  179.1130  142.5620 C   0  0  0  0  0  2  0  0  0  0  0  0
  186.5680  178.8130  141.2620 C   0  0  0  0  0  2  0  0  0  0  0  0
  185.3520  178.4390  143.7980 C   0  0  0  0  0  2  0  0  0  0  0  0
  186.4620  177.4650  143.3810 C   0  0  1  0  0  3  0  0  0  0  0  0
  187.3950  178.0640  142.3090 C   0  0  1  0  0  3  0  0  0  0  0  0
  188.1780  176.9710  141.5920 C   0  0  0  0  0  2  0  0  0  0  0  0
  190.4840  177.2000  141.5680 C   0  0  0  0  0  2  0  0  0  0  0  0
  190.5130  176.8390  137.4090 O   0  0  0  0  0  0  0  0  0  0  0  0
  188.9470  178.8300  137.1720 C   0  0  0  0  0  2  0  0  0  0  0  0
  191.7580  177.6360  140.8340 C   0  0  0  0  0  2  0  0  0  0  0  0
  188.0360  176.9280  138.6890 C   0  0  0  0  0  2  0  0  0  0  0  0
  187.7770  178.2690  137.9920 C   0  0  0  0  0  2  0  0  0  0  0  0
  189.3370  176.8400  139.5130 C   0  0  1  0  0  3  0  0  0  0  0  0
  189.8860  177.7720  136.5350 C   0  0  0  0  0  2  0  0  0  0  0  0
  190.5380  177.3480  138.7160 C   0  0  1  0  0  3  0  0  0  0  0  0
  189.2710  177.5370  140.8100 N   0  0  0  0  0  0  0  0  0  0  0  0
  191.8170  176.9960  139.4500 C   0  0  0  0  0  2  0  0  0  0  0  0
  187.2230  176.9780  144.6140 C   0  0  0  0  0  2  0  0  0  0  0  0
  186.7750  177.6940  145.8840 C   0  0  0  0  0  2  0  0  0  0  0  0
  187.9840  178.0510  146.7290 C   0  0  0  0  0  2  0  0  0  0  0  0
  191.7890  176.3770  145.6170 C   0  0  0  0  0  2  0  0  0  0  0  0
  189.2100  177.2590  146.3050 C   0  0  0  0  0  3  0  0  0  0  0  0
  190.1530  177.0350  147.4880 C   0  0  0  0  0  2  0  0  0  0  0  0
  191.3610  176.1810  147.0790 C   0  0  0  0  0  2  0  0  0  0  0  0
  191.4320  177.7730  145.1190 C   0  0  0  0  0  2  0  0  0  0  0  0
  189.9160  178.0030  145.1630 C   0  0  0  0  0  2  0  0  0  0  0  0
  1  2  1  0  0  0  0
  2  4  1  0  0  0  0
  3  1  1  0  0  0  0
  3  6  1  0  0  0  0
  5  4  1  0  0  0  0
  5 19  1  1  0  0  0
  6  7  1  6  0  0  0
  6  5  1  0  0  0  0
  9 16  1  0  0  0  0
 10 13  1  0  0  0  0
 11  8  1  0  0  0  0
 13 12  1  0  0  0  0
 14 12  1  6  0  0  0
 14 17  1  0  0  0  0
 15 10  1  0  0  0  0
 15  9  1  0  0  0  0
 16 18  1  1  0  0  0
 16 14  1  0  0  0  0
 17  8  1  0  0  0  0
 17  7  1  0  0  0  0
 18 11  1  0  0  0  0
 19 20  1  0  0  0  0
 20 21  1  0  0  0  0
 22 25  1  0  0  0  0
 23 21  1  0  0  0  0
 23 24  1  0  0  0  0
 25 24  1  0  0  0  0
 26 27  1  0  0  0  0
 26 22  1  0  0  0  0
 27 23  1  0  0  0  0
M  END
>  <MODEL>
3

>  <REMARK>
 VINA RESULT:      -7.8      1.525      5.224
  Name = 
  6 active torsions:
  status: ('A' for Active; 'I' for Inactive)
    1  A    between atoms: C_1  and  C_15
    2  A    between atoms: C_1  and  C_18
    3  A    between atoms: C_3  and  N_19
    4  A    between atoms: C_3  and  C_26
    5  A    between atoms: C_9  and  C_15
    6  A    between atoms: C_18  and  C_24
                            x       y       z     vdW  Elec       q    Type
                         _______ _______ _______ _____ _____    ______ ____

>  <TORSDO>
F 6

$$$$
=
 OpenBabel10272401023D

 27 30  0  0  1  0  0  0  0  0999 V2000
  184.0710  179.5100  145.5980 O   0  0  0  0  0  0  0  0  0  0  0  0
  184.9220  178.5870  146.2280 C   0  0  0  0  0  2  0  0  0  0  0  0
  183.5420  178.8500  144.4770 C   0  0  0  0  0  2  0  0  0  0  0  0
  186.1900  178.4140  145.3980 C   0  0  0  0  0  2  0  0  0  0  0  0
  185.8280  177.9250  143.9890 C   0  0  1  0  0  3  0  0  0  0  0  0
  184.6170  178.6760  143.4010 C   0  0  1  0  0  3  0  0  0  0  0  0
  184.0000  177.9010  142.2450 C   0  0  0  0  0  2  0  0  0  0  0  0
  184.8450  178.6120  140.2070 C   0  0  0  0  0  2  0  0  0  0  0  0
  180.9840  178.8140  138.6340 O   0  0  0  0  0  0  0  0  0  0  0  0
  180.2710  180.4440  140.4520 C   0  0  0  0  0  2  0  0  0  0  0  0
  184.6580  179.3980  138.9040 C   0  0  0  0  0  2  0  0  0  0  0  0
  181.2530  178.2120  141.3440 C   0  0  0  0  0  2  0  0  0  0  0  0
  180.5710  179.5470  141.6610 C   0  0  0  0  0  2  0  0  0  0  0  0
  182.4970  178.2920  140.4350 C   0  0  1  0  0  3  0  0  0  0  0  0
  179.9820  179.7020  139.1220 C   0  0  0  0  0  2  0  0  0  0  0  0
  182.2280  179.1410  139.1940 C   0  0  1  0  0  3  0  0  0  0  0  0
  183.7070  178.7830  141.1200 N   0  0  0  0  0  0  0  0  0  0  0  0
  183.3680  178.9730  138.2090 C   0  0  0  0  0  2  0  0  0  0  0  0
  187.0550  177.9900  143.0800 C   0  0  0  0  0  2  0  0  0  0  0  0
  188.1800  177.0840  143.5700 C   0  0  0  0  0  2  0  0  0  0  0  0
  189.4850  177.8580  143.6150 C   0  0  0  0  0  2  0  0  0  0  0  0
  191.1510  176.7450  147.4230 C   0  0  0  0  0  2  0  0  0  0  0  0
  190.2010  177.6610  144.9420 C   0  0  0  0  0  3  0  0  0  0  0  0
  191.1840  176.4930  144.8650 C   0  0  0  0  0  2  0  0  0  0  0  0
  191.9550  176.3320  146.1820 C   0  0  0  0  0  2  0  0  0  0  0  0
  189.6550  176.5600  147.1990 C   0  0  0  0  0  2  0  0  0  0  0  0
  189.1570  177.4400  146.0460 C   0  0  0  0  0  2  0  0  0  0  0  0
  1  2  1  0  0  0  0
  3  1  1  0  0  0  0
  4  2  1  0  0  0  0
  5 19  1  6  0  0  0
  5  4  1  0  0  0  0
  6  7  1  6  0  0  0
  6  5  1  0  0  0  0
  6  3  1  0  0  0  0
  8 17  1  0  0  0  0
  9 15  1  0  0  0  0
  9 16  1  0  0  0  0
 10 13  1  0  0  0  0
 11  8  1  0  0  0  0
 12 13  1  0  0  0  0
 14 17  1  0  0  0  0
 14 12  1  1  0  0  0
 15 10  1  0  0  0  0
 16 18  1  6  0  0  0
 16 14  1  0  0  0  0
 17  7  1  0  0  0  0
 18 11  1  0  0  0  0
 19 20  1  0  0  0  0
 20 21  1  0  0  0  0
 21 23  1  0  0  0  0
 23 27  1  0  0  0  0
 24 23  1  0  0  0  0
 24 25  1  0  0  0  0
 25 22  1  0  0  0  0
 26 22  1  0  0  0  0
 27 26  1  0  0  0  0
M  END
>  <MODEL>
4

>  <REMARK>
 VINA RESULT:      -7.6      2.740      4.808
  Name = 
  6 active torsions:
  status: ('A' for Active; 'I' for Inactive)
    1  A    between atoms: C_1  and  C_15
    2  A    between atoms: C_1  and  C_18
    3  A    between atoms: C_3  and  N_19
    4  A    between atoms: C_3  and  C_26
    5  A    between atoms: C_9  and  C_15
    6  A    between atoms: C_18  and  C_24
                            x       y       z     vdW  Elec       q    Type
                         _______ _______ _______ _____ _____    ______ ____

>  <TORSDO>
F 6

$$$$
=
 OpenBabel10272401023D

 27 30  0  0  1  0  0  0  0  0999 V2000
  192.0770  177.0840  142.3540 O   0  0  0  0  0  0  0  0  0  0  0  0
  191.4580  177.9630  143.2580 C   0  0  0  0  0  2  0  0  0  0  0  0
  191.7200  177.5280  141.0710 C   0  0  0  0  0  2  0  0  0  0  0  0
  189.9580  177.6890  143.2890 C   0  0  0  0  0  2  0  0  0  0  0  0
  189.3660  177.8700  141.8840 C   0  0  1  0  0  3  0  0  0  0  0  0
  190.2460  177.2290  140.7920 C   0  0  1  0  0  3  0  0  0  0  0  0
  189.9070  177.7910  139.4170 C   0  0  0  0  0  2  0  0  0  0  0  0
  187.9890  177.2270  138.2450 C   0  0  0  0  0  2  0  0  0  0  0  0
  190.2970  175.5340  135.2070 O   0  0  0  0  0  0  0  0  0  0  0  0
  191.3980  173.9420  136.8580 C   0  0  0  0  0  2  0  0  0  0  0  0
  187.2740  176.3020  137.2530 C   0  0  0  0  0  2  0  0  0  0  0  0
  191.6190  176.4530  137.4850 C   0  0  0  0  0  2  0  0  0  0  0  0
  192.0010  175.0000  137.7930 C   0  0  0  0  0  2  0  0  0  0  0  0
  190.1130  176.7250  137.2940 C   0  0  1  0  0  3  0  0  0  0  0  0
  191.1430  174.4040  135.3990 C   0  0  0  0  0  2  0  0  0  0  0  0
  189.4810  175.7190  136.3320 C   0  0  1  0  0  3  0  0  0  0  0  0
  189.3460  176.7580  138.5530 N   0  0  0  0  0  0  0  0  0  0  0  0
  188.0840  176.1790  135.9650 C   0  0  0  0  0  2  0  0  0  0  0  0
  187.9260  177.3570  141.8520 C   0  0  0  0  0  2  0  0  0  0  0  0
  186.9110  178.4950  141.8830 C   0  0  0  0  0  2  0  0  0  0  0  0
  185.7290  178.1090  142.7530 C   0  0  0  0  0  2  0  0  0  0  0  0
  185.9230  178.7210  147.0080 C   0  0  0  0  0  2  0  0  0  0  0  0
  185.9670  178.4800  144.2080 C   0  0  0  0  0  3  0  0  0  0  0  0
  186.6290  177.3290  144.9660 C   0  0  0  0  0  2  0  0  0  0  0  0
  186.9300  177.7230  146.4180 C   0  0  0  0  0  2  0  0  0  0  0  0
  184.5540  178.5790  146.3530 C   0  0  0  0  0  2  0  0  0  0  0  0
  184.6290  178.8740  144.8500 C   0  0  0  0  0  2  0  0  0  0  0  0
  1  2  1  0  0  0  0
  2  4  1  0  0  0  0
  3  1  1  0  0  0  0
  5 19  1  1  0  0  0
  5  4  1  0  0  0  0
  6  7  1  6  0  0  0
  6  3  1  0  0  0  0
  6  5  1  0  0  0  0
  8 17  1  0  0  0  0
  9 15  1  0  0  0  0
  9 16  1  0  0  0  0
 10 13  1  0  0  0  0
 11  8  1  0  0  0  0
 12 13  1  0  0  0  0
 14 12  1  1  0  0  0
 14 17  1  0  0  0  0
 15 10  1  0  0  0  0
 16 18  1  6  0  0  0
 16 14  1  0  0  0  0
 17  7  1  0  0  0  0
 18 11  1  0  0  0  0
 19 20  1  0  0  0  0
 20 21  1  0  0  0  0
 21 23  1  0  0  0  0
 23 27  1  0  0  0  0
 23 24  1  0  0  0  0
 24 25  1  0  0  0  0
 25 22  1  0  0  0  0
 26 22  1  0  0  0  0
 27 26  1  0  0  0  0
M  END
>  <MODEL>
5

>  <REMARK>
 VINA RESULT:      -7.6      2.872      6.428
  Name = 
  6 active torsions:
  status: ('A' for Active; 'I' for Inactive)
    1  A    between atoms: C_1  and  C_15
    2  A    between atoms: C_1  and  C_18
    3  A    between atoms: C_3  and  N_19
    4  A    between atoms: C_3  and  C_26
    5  A    between atoms: C_9  and  C_15
    6  A    between atoms: C_18  and  C_24
                            x       y       z     vdW  Elec       q    Type
                         _______ _______ _______ _____ _____    ______ ____

>  <TORSDO>
F 6

$$$$
=
 OpenBabel10272401023D

 27 30  0  0  1  0  0  0  0  0999 V2000
  191.8540  176.9120  141.6420 O   0  0  0  0  0  0  0  0  0  0  0  0
  191.6150  177.7100  142.7730 C   0  0  0  0  0  2  0  0  0  0  0  0
  191.2250  177.5610  140.5670 C   0  0  0  0  0  2  0  0  0  0  0  0
  190.1550  177.5710  143.1950 C   0  0  0  0  0  2  0  0  0  0  0  0
  189.2370  177.9980  142.0410 C   0  0  1  0  0  3  0  0  0  0  0  0
  189.7050  177.4380  140.6830 C   0  0  1  0  0  3  0  0  0  0  0  0
  189.0830  178.2140  139.5280 C   0  0  0  0  0  2  0  0  0  0  0  0
  186.9780  178.0420  138.5740 C   0  0  0  0  0  2  0  0  0  0  0  0
  188.6140  176.2010  135.2040 O   0  0  0  0  0  0  0  0  0  0  0  0
  189.6120  174.3490  136.6350 C   0  0  0  0  0  2  0  0  0  0  0  0
  186.0110  177.3100  137.6360 C   0  0  0  0  0  2  0  0  0  0  0  0
  190.3180  176.7460  137.3440 C   0  0  0  0  0  2  0  0  0  0  0  0
  190.4840  175.2340  137.5360 C   0  0  0  0  0  2  0  0  0  0  0  0
  188.8670  177.2690  137.3500 C   0  0  1  0  0  3  0  0  0  0  0  0
  189.2750  174.9400  135.2410 C   0  0  0  0  0  2  0  0  0  0  0  0
  187.9720  176.4420  136.4280 C   0  0  1  0  0  3  0  0  0  0  0  0
  188.2640  177.3420  138.6930 N   0  0  0  0  0  0  0  0  0  0  0  0
  186.6390  177.1430  136.2550 C   0  0  0  0  0  2  0  0  0  0  0  0
  187.7880  177.6270  142.3610 C   0  0  0  0  0  2  0  0  0  0  0  0
  187.6780  176.7790  143.6230 C   0  0  0  0  0  2  0  0  0  0  0  0
  186.8730  177.5200  144.6750 C   0  0  0  0  0  2  0  0  0  0  0  0
  189.0480  178.2240  148.3210 C   0  0  0  0  0  2  0  0  0  0  0  0
  187.7470  177.9430  145.8450 C   0  0  0  0  0  3  0  0  0  0  0  0
  188.8240  176.8960  146.1310 C   0  0  0  0  0  2  0  0  0  0  0  0
  189.7470  177.3490  147.2700 C   0  0  0  0  0  2  0  0  0  0  0  0
  187.5610  177.9010  148.4090 C   0  0  0  0  0  2  0  0  0  0  0  0
  186.8570  178.1770  147.0750 C   0  0  0  0  0  2  0  0  0  0  0  0
  1  2  1  0  0  0  0
  2  4  1  0  0  0  0
  3  6  1  0  0  0  0
  3  1  1  0  0  0  0
  5 19  1  1  0  0  0
  5  4  1  0  0  0  0
  6  7  1  6  0  0  0
  6  5  1  0  0  0  0
  8 17  1  0  0  0  0
  9 15  1  0  0  0  0
  9 16  1  0  0  0  0
 10 13  1  0  0  0  0
 11  8  1  0  0  0  0
 12 13  1  0  0  0  0
 14 12  1  1  0  0  0
 14 17  1  0  0  0  0
 15 10  1  0  0  0  0
 16 18  1  6  0  0  0
 16 14  1  0  0  0  0
 17  7  1  0  0  0  0
 18 11  1  0  0  0  0
 19 20  1  0  0  0  0
 20 21  1  0  0  0  0
 21 23  1  0  0  0  0
 22 26  1  0  0  0  0
 23 24  1  0  0  0  0
 23 27  1  0  0  0  0
 24 25  1  0  0  0  0
 25 22  1  0  0  0  0
 27 26  1  0  0  0  0
M  END
>  <MODEL>
6

>  <REMARK>
 VINA RESULT:      -7.4      2.868      5.379
  Name = 
  6 active torsions:
  status: ('A' for Active; 'I' for Inactive)
    1  A    between atoms: C_1  and  C_15
    2  A    between atoms: C_1  and  C_18
    3  A    between atoms: C_3  and  N_19
    4  A    between atoms: C_3  and  C_26
    5  A    between atoms: C_9  and  C_15
    6  A    between atoms: C_18  and  C_24
                            x       y       z     vdW  Elec       q    Type
                         _______ _______ _______ _____ _____    ______ ____

>  <TORSDO>
F 6

$$$$
=
 OpenBabel10272401023D

 27 30  0  0  1  0  0  0  0  0999 V2000
  191.5940  176.3600  144.5870 O   0  0  0  0  0  0  0  0  0  0  0  0
  191.0650  176.9510  145.7450 C   0  0  0  0  0  2  0  0  0  0  0  0
  191.3490  177.2640  143.5410 C   0  0  0  0  0  2  0  0  0  0  0  0
  189.5410  176.8930  145.6960 C   0  0  0  0  0  2  0  0  0  0  0  0
  189.0320  177.6260  144.4470 C   0  0  1  0  0  3  0  0  0  0  0  0
  189.8600  177.2860  143.1910 C   0  0  1  0  0  3  0  0  0  0  0  0
  189.6510  178.3280  142.0990 C   0  0  0  0  0  2  0  0  0  0  0  0
  187.6980  178.4200  140.8540 C   0  0  0  0  0  2  0  0  0  0  0  0
  189.8590  177.7400  137.3470 O   0  0  0  0  0  0  0  0  0  0  0  0
  190.7780  175.5560  138.2740 C   0  0  0  0  0  2  0  0  0  0  0  0
  186.9050  177.9960  139.6120 C   0  0  0  0  0  2  0  0  0  0  0  0
  191.2410  177.6300  139.7680 C   0  0  0  0  0  2  0  0  0  0  0  0
  191.4720  176.1360  139.5140 C   0  0  0  0  0  2  0  0  0  0  0  0
  189.7710  178.0980  139.7300 C   0  0  1  0  0  3  0  0  0  0  0  0
  190.5850  176.5420  137.0920 C   0  0  0  0  0  2  0  0  0  0  0  0
  189.0530  177.5790  138.4840 C   0  0  1  0  0  3  0  0  0  0  0  0
  188.9990  177.7420  140.9330 N   0  0  0  0  0  0  0  0  0  0  0  0
  187.7130  178.2740  138.3480 C   0  0  0  0  0  2  0  0  0  0  0  0
  187.5390  177.3600  144.2550 C   0  0  0  0  0  2  0  0  0  0  0  0
  186.7440  177.6020  145.5330 C   0  0  0  0  0  2  0  0  0  0  0  0
  185.7890  178.7650  145.3360 C   0  0  0  0  0  2  0  0  0  0  0  0
  182.6550  178.5180  142.3980 C   0  0  0  0  0  2  0  0  0  0  0  0
  184.7530  178.4560  144.2670 C   0  0  0  0  0  3  0  0  0  0  0  0
  185.0660  179.2010  142.9690 C   0  0  0  0  0  2  0  0  0  0  0  0
  184.0590  178.8410  141.8680 C   0  0  0  0  0  2  0  0  0  0  0  0
  182.3740  179.2500  143.7050 C   0  0  0  0  0  2  0  0  0  0  0  0
  183.3610  178.8230  144.7990 C   0  0  0  0  0  2  0  0  0  0  0  0
  1  2  1  0  0  0  0
  3  1  1  0  0  0  0
  4  2  1  0  0  0  0
  5 19  1  6  0  0  0
  5  4  1  0  0  0  0
  6  7  1  6  0  0  0
  6  3  1  0  0  0  0
  6  5  1  0  0  0  0
  8 17  1  0  0  0  0
  9 16  1  0  0  0  0
 10 13  1  0  0  0  0
 11  8  1  0  0  0  0
 13 12  1  0  0  0  0
 14 12  1  1  0  0  0
 14 17  1  0  0  0  0
 15  9  1  0  0  0  0
 15 10  1  0  0  0  0
 16 18  1  6  0  0  0
 16 14  1  0  0  0  0
 17  7  1  0  0  0  0
 18 11  1  0  0  0  0
 19 20  1  0  0  0  0
 21 20  1  0  0  0  0
 22 26  1  0  0  0  0
 23 27  1  0  0  0  0
 23 21  1  0  0  0  0
 24 23  1  0  0  0  0
 25 22  1  0  0  0  0
 25 24  1  0  0  0  0
 26 27  1  0  0  0  0
M  END
>  <MODEL>
7

>  <REMARK>
 VINA RESULT:      -7.3      2.106      6.551
  Name = 
  6 active torsions:
  status: ('A' for Active; 'I' for Inactive)
    1  A    between atoms: C_1  and  C_15
    2  A    between atoms: C_1  and  C_18
    3  A    between atoms: C_3  and  N_19
    4  A    between atoms: C_3  and  C_26
    5  A    between atoms: C_9  and  C_15
    6  A    between atoms: C_18  and  C_24
                            x       y       z     vdW  Elec       q    Type
                         _______ _______ _______ _____ _____    ______ ____

>  <TORSDO>
F 6

$$$$
=
 OpenBabel10272401023D

 27 30  0  0  1  0  0  0  0  0999 V2000
  184.5270  178.1470  146.0360 O   0  0  0  0  0  0  0  0  0  0  0  0
  183.7620  179.0380  145.2650 C   0  0  0  0  0  2  0  0  0  0  0  0
  185.8700  178.4500  145.7650 C   0  0  0  0  0  2  0  0  0  0  0  0
  183.8350  178.6320  143.7960 C   0  0  0  0  0  2  0  0  0  0  0  0
  185.2960  178.6410  143.3250 C   0  0  1  0  0  3  0  0  0  0  0  0
  186.2470  177.9960  144.3540 C   0  0  1  0  0  3  0  0  0  0  0  0
  187.6910  178.4090  144.0990 C   0  0  0  0  0  2  0  0  0  0  0  0
  188.9930  176.9450  142.8610 C   0  0  0  0  0  2  0  0  0  0  0  0
  191.8690  176.8860  145.8860 O   0  0  0  0  0  0  0  0  0  0  0  0
  190.1490  176.0770  147.5770 C   0  0  0  0  0  2  0  0  0  0  0  0
  190.0340  175.8200  142.8180 C   0  0  0  0  0  2  0  0  0  0  0  0
  189.5030  178.2830  146.3680 C   0  0  0  0  0  2  0  0  0  0  0  0
  189.1730  177.2550  147.4570 C   0  0  0  0  0  2  0  0  0  0  0  0
  189.7970  177.7070  144.9680 C   0  0  1  0  0  3  0  0  0  0  0  0
  191.6210  176.3850  147.1960 C   0  0  0  0  0  2  0  0  0  0  0  0
  190.8010  176.5570  145.0370 C   0  0  1  0  0  3  0  0  0  0  0  0
  188.5940  177.2710  144.2360 N   0  0  0  0  0  0  0  0  0  0  0  0
  191.2630  176.2040  143.6370 C   0  0  0  0  0  2  0  0  0  0  0  0
  185.4050  177.9990  141.9420 C   0  0  0  0  0  2  0  0  0  0  0  0
  186.0270  178.9430  140.9190 C   0  0  0  0  0  2  0  0  0  0  0  0
  185.8440  178.3830  139.5210 C   0  0  0  0  0  2  0  0  0  0  0  0
  189.6840  177.7760  137.6750 C   0  0  0  0  0  2  0  0  0  0  0  0
  187.1710  177.9420  138.9220 C   0  0  0  0  0  3  0  0  0  0  0  0
  188.3450  178.4380  139.7670 C   0  0  0  0  0  2  0  0  0  0  0  0
  189.6820  177.9400  139.2020 C   0  0  0  0  0  2  0  0  0  0  0  0
  188.7000  178.7350  137.0150 C   0  0  0  0  0  2  0  0  0  0  0  0
  187.2650  178.4590  137.4790 C   0  0  0  0  0  2  0  0  0  0  0  0
  2  1  1  0  0  0  0
  3  1  1  0  0  0  0
  4  2  1  0  0  0  0
  5 19  1  6  0  0  0
  5  4  1  0  0  0  0
  5  6  1  0  0  0  0
  6  7  1  6  0  0  0
  6  3  1  0  0  0  0
  7 17  1  0  0  0  0
  8 17  1  0  0  0  0
  9 15  1  0  0  0  0
 11  8  1  0  0  0  0
 11 18  1  0  0  0  0
 12 13  1  0  0  0  0
 13 10  1  0  0  0  0
 14 16  1  0  0  0  0
 14 12  1  1  0  0  0
 15 10  1  0  0  0  0
 16 18  1  6  0  0  0
 16  9  1  0  0  0  0
 17 14  1  0  0  0  0
 20 19  1  0  0  0  0
 21 20  1  0  0  0  0
 22 25  1  0  0  0  0
 23 21  1  0  0  0  0
 23 24  1  0  0  0  0
 25 24  1  0  0  0  0
 26 27  1  0  0  0  0
 26 22  1  0  0  0  0
 27 23  1  0  0  0  0
M  END
>  <MODEL>
8

>  <REMARK>
 VINA RESULT:      -7.3      2.284      7.446
  Name = 
  6 active torsions:
  status: ('A' for Active; 'I' for Inactive)
    1  A    between atoms: C_1  and  C_15
    2  A    between atoms: C_1  and  C_18
    3  A    between atoms: C_3  and  N_19
    4  A    between atoms: C_3  and  C_26
    5  A    between atoms: C_9  and  C_15
    6  A    between atoms: C_18  and  C_24
                            x       y       z     vdW  Elec       q    Type
                         _______ _______ _______ _____ _____    ______ ____

>  <TORSDO>
F 6

$$$$
=
 OpenBabel10272401023D

 27 30  0  0  1  0  0  0  0  0999 V2000
  184.5730  178.2660  146.1790 O   0  0  0  0  0  0  0  0  0  0  0  0
  183.7650  179.1590  145.4580 C   0  0  0  0  0  2  0  0  0  0  0  0
  185.8950  178.5380  145.7930 C   0  0  0  0  0  2  0  0  0  0  0  0
  183.7090  178.7300  143.9950 C   0  0  0  0  0  2  0  0  0  0  0  0
  185.1270  178.7030  143.4060 C   0  0  1  0  0  3  0  0  0  0  0  0
  186.1470  178.0550  144.3640 C   0  0  1  0  0  3  0  0  0  0  0  0
  187.5720  178.4360  143.9850 C   0  0  0  0  0  2  0  0  0  0  0  0
  188.8280  176.9200  142.7610 C   0  0  0  0  0  2  0  0  0  0  0  0
  191.8030  176.9630  145.6890 O   0  0  0  0  0  0  0  0  0  0  0  0
  190.1380  176.2260  147.4660 C   0  0  0  0  0  2  0  0  0  0  0  0
  189.8630  175.7900  142.7260 C   0  0  0  0  0  2  0  0  0  0  0  0
  189.4590  178.3880  146.1960 C   0  0  0  0  0  2  0  0  0  0  0  0
  189.1620  177.4040  147.3340 C   0  0  0  0  0  2  0  0  0  0  0  0
  189.7040  177.7580  144.8100 C   0  0  1  0  0  3  0  0  0  0  0  0
  191.5970  176.5130  147.0250 C   0  0  0  0  0  2  0  0  0  0  0  0
  190.7070  176.6070  144.8890 C   0  0  1  0  0  3  0  0  0  0  0  0
  188.4750  177.3000  144.1350 N   0  0  0  0  0  0  0  0  0  0  0  0
  191.1200  176.1990  143.4890 C   0  0  0  0  0  2  0  0  0  0  0  0
  185.1100  178.0380  142.0300 C   0  0  0  0  0  2  0  0  0  0  0  0
  185.2610  179.0520  140.9010 C   0  0  0  0  0  2  0  0  0  0  0  0
  183.9570  179.1700  140.1330 C   0  0  0  0  0  2  0  0  0  0  0  0
  181.2350  175.8410  139.9670 C   0  0  0  0  0  2  0  0  0  0  0  0
  183.1450  177.8880  140.2220 C   0  0  0  0  0  3  0  0  0  0  0  0
  183.2040  177.1100  138.9070 C   0  0  0  0  0  2  0  0  0  0  0  0
  182.4380  175.7840  139.0140 C   0  0  0  0  0  2  0  0  0  0  0  0
  180.6610  177.2500  140.0490 C   0  0  0  0  0  2  0  0  0  0  0  0
  181.6980  178.2370  140.5980 C   0  0  0  0  0  2  0  0  0  0  0  0
  2  1  1  0  0  0  0
  3  1  1  0  0  0  0
  4  2  1  0  0  0  0
  5 19  1  6  0  0  0
  5  4  1  0  0  0  0
  5  6  1  0  0  0  0
  6  7  1  6  0  0  0
  6  3  1  0  0  0  0
  7 17  1  0  0  0  0
  8 17  1  0  0  0  0
  9 15  1  0  0  0  0
 11  8  1  0  0  0  0
 11 18  1  0  0  0  0
 12 13  1  0  0  0  0
 13 10  1  0  0  0  0
 14 16  1  0  0  0  0
 14 12  1  1  0  0  0
 15 10  1  0  0  0  0
 16 18  1  6  0  0  0
 16  9  1  0  0  0  0
 17 14  1  0  0  0  0
 20 19  1  0  0  0  0
 21 23  1  0  0  0  0
 21 20  1  0  0  0  0
 22 26  1  0  0  0  0
 23 27  1  0  0  0  0
 24 25  1  0  0  0  0
 24 23  1  0  0  0  0
 25 22  1  0  0  0  0
 26 27  1  0  0  0  0
M  END
>  <MODEL>
9

>  <REMARK>
 VINA RESULT:      -7.3      2.608      8.171
  Name = 
  6 active torsions:
  status: ('A' for Active; 'I' for Inactive)
    1  A    between atoms: C_1  and  C_15
    2  A    between atoms: C_1  and  C_18
    3  A    between atoms: C_3  and  N_19
    4  A    between atoms: C_3  and  C_26
    5  A    between atoms: C_9  and  C_15
    6  A    between atoms: C_18  and  C_24
                            x       y       z     vdW  Elec       q    Type
                         _______ _______ _______ _____ _____    ______ ____

>  <TORSDO>
F 6

$$$$
