=
 OpenBabel10272413523D

 30 31  0  0  1  0  0  0  0  0999 V2000
  190.2620  176.8810  144.4330 C   0  0  0  0  0  0  0  0  0  0  0  0
  190.1560  177.3610  145.7150 C   0  0  2  0  0  3  0  0  0  0  0  0
  191.2120  176.8500  146.4360 C   0  0  0  0  0  3  0  0  0  0  0  0
  191.3530  176.1030  144.3120 N   0  0  0  0  0  0  0  0  0  0  0  0
  191.9310  176.0830  145.5320 C   0  0  0  0  0  3  0  0  0  0  0  0
  188.8170  175.9000  142.6810 C   0  0  0  0  0  1  0  0  0  0  0  0
  189.3220  177.1860  143.3120 C   0  0  2  0  0  3  0  0  0  0  0  0
  190.0140  178.0500  142.2700 C   0  0  0  0  0  2  0  0  0  0  0  0
  189.6750  177.5800  140.8580 C   0  0  2  0  0  3  0  0  0  0  0  0
  191.9970  177.7450  140.4480 O   0  0  0  0  0  0  0  0  0  0  0  0
  188.6210  176.0970  138.5040 O   0  0  0  0  0  0  0  0  0  0  0  0
  190.9170  176.3680  138.9290 N   0  0  0  0  0  2  0  0  0  0  0  0
  190.9070  177.2420  140.0700 C   0  0  0  0  0  0  0  0  0  0  0  0
  190.0690  174.8050  137.1480 C   0  0  0  0  0  1  0  0  0  0  0  0
  189.8080  175.7850  138.2350 C   0  0  0  0  0  0  0  0  0  0  0  0
  189.1810  179.1510  138.9760 O   0  0  0  0  0  0  0  0  0  0  0  0
  188.7310  178.4760  140.1020 C   0  0  0  0  0  0  0  0  0  0  0  0
  187.5270  178.5970  140.4550 O   0  0  0  0  0  1  0  0  0  0  0  0
  189.0670  178.2250  146.2590 C   0  0  0  0  0  2  0  0  0  0  0  0
  187.9110  177.4140  146.6050 N   0  0  0  0  0  0  0  0  0  0  0  0
  188.2030  176.7780  147.8790 C   0  0  0  0  0  1  0  0  0  0  0  0
  186.8100  178.3330  146.8460 C   0  0  0  0  0  2  0  0  0  0  0  0
  184.4770  178.4830  142.9160 C   0  0  0  0  0  0  0  0  0  0  0  0
  183.8790  179.5350  143.7880 C   0  0  0  0  0  2  0  0  0  0  0  0
  183.7170  178.1530  141.3340 S   0  0  0  0  0  1  0  0  0  0  0  0
  185.8730  178.3250  145.6870 C   0  0  0  0  0  0  0  0  0  0  0  0
  183.5310  179.0010  145.1360 C   0  0  0  0  0  3  0  0  0  0  0  0
  185.6240  177.8750  143.2160 C   0  0  0  0  0  3  0  0  0  0  0  0
  184.4360  178.5020  145.9780 C   0  0  0  0  0  3  0  0  0  0  0  0
  186.3720  178.0140  144.4820 C   0  0  0  0  0  3  0  0  0  0  0  0
  1  2  1  0  0  0  0
  2 19  1  1  0  0  0
  2  3  1  0  0  0  0
  4  1  2  0  0  0  0
  4  5  1  0  0  0  0
  5  3  2  0  0  0  0
  7  6  1  6  0  0  0
  7  1  1  0  0  0  0
  8  7  1  0  0  0  0
  9  8  1  1  0  0  0
 12 13  1  0  0  0  0
 13 10  2  0  0  0  0
 13  9  1  0  0  0  0
 14 15  1  0  0  0  0
 15 11  2  0  0  0  0
 15 12  1  0  0  0  0
 16 17  2  0  0  0  0
 17 18  1  0  0  0  0
 17  9  1  0  0  0  0
 19 20  1  0  0  0  0
 20 22  1  0  0  0  0
 20 21  1  0  0  0  0
 23 28  2  0  0  0  0
 23 24  1  0  0  0  0
 24 27  1  0  0  0  0
 25 23  1  0  0  0  0
 26 29  1  0  0  0  0
 26 22  1  0  0  0  0
 27 29  2  0  0  0  0
 28 30  1  0  0  0  0
 30 26  2  0  0  0  0
M  END
>  <MODEL>
1

>  <REMARK>
 VINA RESULT:      -8.0      0.000      0.000
  Name = 
  9 active torsions:
  status: ('A' for Active; 'I' for Inactive)
    1  A    between atoms: C_3  and  N_11
    2  A    between atoms: C_3  and  C_19
    3  A    between atoms: C_4  and  C_8
    4  A    between atoms: C_7  and  C_30
    5  A    between atoms: C_8  and  C_12
    6  A    between atoms: C_8  and  C_13
    7  A    between atoms: C_10  and  C_25
    8  A    between atoms: N_11  and  C_25
    9  A    between atoms: C_13  and  C_30
                            x       y       z     vdW  Elec       q    Type
                         _______ _______ _______ _____ _____    ______ ____

>  <TORSDO>
F 9

$$$$
=
 OpenBabel10272413523D

 30 31  0  0  1  0  0  0  0  0999 V2000
  188.1060  177.5070  145.8210 C   0  0  0  0  0  0  0  0  0  0  0  0
  187.2750  178.2990  146.5750 C   0  0  0  0  0  0  0  0  0  0  0  0
  187.6090  178.1090  147.8970 C   0  0  0  0  0  3  0  0  0  0  0  0
  188.9630  176.8390  146.6140 N   0  0  0  0  0  2  0  0  0  0  0  0
  188.6600  177.2040  147.8780 C   0  0  0  0  0  3  0  0  0  0  0  0
  186.9470  176.5150  143.8740 C   0  0  0  0  0  1  0  0  0  0  0  0
  188.0900  177.4050  144.3300 C   0  0  2  0  0  3  0  0  0  0  0  0
  189.4180  176.8590  143.8300 C   0  0  0  0  0  2  0  0  0  0  0  0
  190.2530  177.9620  143.1840 C   0  0  2  0  0  3  0  0  0  0  0  0
  192.1290  177.1070  142.0290 O   0  0  0  0  0  0  0  0  0  0  0  0
  188.3000  178.6020  141.0330 O   0  0  0  0  0  0  0  0  0  0  0  0
  190.2970  177.4240  140.6460 N   0  0  0  0  0  2  0  0  0  0  0  0
  190.9340  177.4870  141.9340 C   0  0  0  0  0  0  0  0  0  0  0  0
  188.5080  177.6220  138.8870 C   0  0  0  0  0  1  0  0  0  0  0  0
  189.0080  177.9140  140.2570 C   0  0  0  0  0  0  0  0  0  0  0  0
  191.8970  177.9500  145.0680 O   0  0  0  0  0  1  0  0  0  0  0  0
  191.1900  178.6760  144.1190 C   0  0  0  0  0  0  0  0  0  0  0  0
  191.3690  179.9210  144.0340 O   0  0  0  0  0  0  0  0  0  0  0  0
  186.1650  179.1630  146.0720 C   0  0  0  0  0  2  0  0  0  0  0  0
  184.9840  178.3580  145.8090 N   0  0  0  0  0  0  0  0  0  0  0  0
  184.5680  177.7840  147.0780 C   0  0  0  0  0  1  0  0  0  0  0  0
  183.9310  179.2760  145.4070 C   0  0  0  0  0  2  0  0  0  0  0  0
  182.5680  178.4480  141.1210 C   0  0  0  0  0  0  0  0  0  0  0  0
  183.9400  177.8730  141.2340 C   0  0  0  0  0  2  0  0  0  0  0  0
  181.7660  178.4380  139.5250 S   0  0  0  0  0  1  0  0  0  0  0  0
  183.6570  179.1350  143.9490 C   0  0  0  0  0  0  0  0  0  0  0  0
  184.9050  178.8570  141.8020 C   0  0  0  0  0  3  0  0  0  0  0  0
  181.8750  178.8520  142.1850 C   0  0  0  0  0  3  0  0  0  0  0  0
  184.7820  179.3770  143.0240 C   0  0  0  0  0  3  0  0  0  0  0  0
  182.3860  178.9450  143.5670 C   0  0  0  0  0  3  0  0  0  0  0  0
  1  2  2  0  0  0  0
  1  4  1  0  0  0  0
  2  3  1  0  0  0  0
  4  5  1  0  0  0  0
  5  3  2  0  0  0  0
  7  6  1  1  0  0  0
  7  1  1  0  0  0  0
  8  7  1  0  0  0  0
  9  8  1  1  0  0  0
  9 17  1  0  0  0  0
 12 13  1  0  0  0  0
 13 10  2  0  0  0  0
 13  9  1  0  0  0  0
 14 15  1  0  0  0  0
 15 12  1  0  0  0  0
 15 11  2  0  0  0  0
 17 16  1  0  0  0  0
 18 17  2  0  0  0  0
 19  2  1  0  0  0  0
 20 19  1  0  0  0  0
 20 21  1  0  0  0  0
 22 20  1  0  0  0  0
 23 24  1  0  0  0  0
 23 28  2  0  0  0  0
 24 27  1  0  0  0  0
 25 23  1  0  0  0  0
 26 22  1  0  0  0  0
 27 29  2  0  0  0  0
 28 30  1  0  0  0  0
 29 26  1  0  0  0  0
 30 26  2  0  0  0  0
M  END
>  <MODEL>
2

>  <REMARK>
 VINA RESULT:      -7.8      1.925      3.455
  Name = 
  9 active torsions:
  status: ('A' for Active; 'I' for Inactive)
    1  A    between atoms: C_3  and  N_11
    2  A    between atoms: C_3  and  C_19
    3  A    between atoms: C_4  and  C_8
    4  A    between atoms: C_7  and  C_30
    5  A    between atoms: C_8  and  C_12
    6  A    between atoms: C_8  and  C_13
    7  A    between atoms: C_10  and  C_25
    8  A    between atoms: N_11  and  C_25
    9  A    between atoms: C_13  and  C_30
                            x       y       z     vdW  Elec       q    Type
                         _______ _______ _______ _____ _____    ______ ____

>  <TORSDO>
F 9

$$$$
=
 OpenBabel10272413523D

 30 31  0  0  1  0  0  0  0  0999 V2000
  190.7200  177.1190  140.1780 C   0  0  0  0  0  0  0  0  0  0  0  0
  190.4680  177.3950  141.4990 C   0  0  2  0  0  3  0  0  0  0  0  0
  189.1680  177.8420  141.5880 C   0  0  0  0  0  3  0  0  0  0  0  0
  189.6260  177.3560  139.4330 N   0  0  0  0  0  0  0  0  0  0  0  0
  188.6810  177.7970  140.2910 C   0  0  0  0  0  3  0  0  0  0  0  0
  193.1350  177.5860  139.9250 C   0  0  0  0  0  1  0  0  0  0  0  0
  192.0130  176.6070  139.6310 C   0  0  2  0  0  3  0  0  0  0  0  0
  191.8910  176.3760  138.1330 C   0  0  0  0  0  2  0  0  0  0  0  0
  192.7220  175.1730  137.6960 C   0  0  2  0  0  3  0  0  0  0  0  0
  193.5740  176.2940  135.7970 O   0  0  0  0  0  0  0  0  0  0  0  0
  195.0290  173.5880  138.7050 O   0  0  0  0  0  0  0  0  0  0  0  0
  195.2210  175.1960  137.0010 N   0  0  0  0  0  2  0  0  0  0  0  0
  193.8500  175.5720  136.7900 C   0  0  0  0  0  0  0  0  0  0  0  0
  197.2420  174.1500  138.0770 C   0  0  0  0  0  1  0  0  0  0  0  0
  195.7660  174.2880  137.9660 C   0  0  0  0  0  0  0  0  0  0  0  0
  190.5960  173.8680  137.5240 O   0  0  0  0  0  1  0  0  0  0  0  0
  191.9260  174.0160  137.1560 C   0  0  0  0  0  0  0  0  0  0  0  0
  192.4380  173.1960  136.3460 O   0  0  0  0  0  0  0  0  0  0  0  0
  191.4340  177.2970  142.6340 C   0  0  0  0  0  2  0  0  0  0  0  0
  190.8480  176.5380  143.7260 N   0  0  0  0  0  0  0  0  0  0  0  0
  191.7070  175.3880  143.9550 C   0  0  0  0  0  1  0  0  0  0  0  0
  190.9450  177.3690  144.9150 C   0  0  0  0  0  2  0  0  0  0  0  0
  186.7590  178.1160  146.5950 C   0  0  0  0  0  0  0  0  0  0  0  0
  187.7030  178.3640  147.7230 C   0  0  0  0  0  2  0  0  0  0  0  0
  185.0040  178.1750  146.9230 S   0  0  0  0  0  1  0  0  0  0  0  0
  189.6240  177.4420  145.5990 C   0  0  0  0  0  0  0  0  0  0  0  0
  188.6620  177.2350  147.8970 C   0  0  0  0  0  3  0  0  0  0  0  0
  187.1720  177.9790  145.3360 C   0  0  0  0  0  3  0  0  0  0  0  0
  189.5320  176.8660  146.9560 C   0  0  0  0  0  3  0  0  0  0  0  0
  188.5770  177.8900  144.8900 C   0  0  0  0  0  3  0  0  0  0  0  0
  1  2  1  0  0  0  0
  2  3  1  0  0  0  0
  2 19  1  6  0  0  0
  4  1  2  0  0  0  0
  4  5  1  0  0  0  0
  5  3  2  0  0  0  0
  7  6  1  6  0  0  0
  7  1  1  0  0  0  0
  8  7  1  0  0  0  0
  9  8  1  6  0  0  0
 10 13  2  0  0  0  0
 12 15  1  0  0  0  0
 13 12  1  0  0  0  0
 13  9  1  0  0  0  0
 15 14  1  0  0  0  0
 15 11  2  0  0  0  0
 17 16  1  0  0  0  0
 17  9  1  0  0  0  0
 18 17  2  0  0  0  0
 19 20  1  0  0  0  0
 20 21  1  0  0  0  0
 20 22  1  0  0  0  0
 22 26  1  0  0  0  0
 23 25  1  0  0  0  0
 23 24  1  0  0  0  0
 24 27  1  0  0  0  0
 26 29  1  0  0  0  0
 28 23  2  0  0  0  0
 29 27  2  0  0  0  0
 30 28  1  0  0  0  0
 30 26  2  0  0  0  0
M  END
>  <MODEL>
3

>  <REMARK>
 VINA RESULT:      -7.6      3.136      5.321
  Name = 
  9 active torsions:
  status: ('A' for Active; 'I' for Inactive)
    1  A    between atoms: C_3  and  N_11
    2  A    between atoms: C_3  and  C_19
    3  A    between atoms: C_4  and  C_8
    4  A    between atoms: C_7  and  C_30
    5  A    between atoms: C_8  and  C_12
    6  A    between atoms: C_8  and  C_13
    7  A    between atoms: C_10  and  C_25
    8  A    between atoms: N_11  and  C_25
    9  A    between atoms: C_13  and  C_30
                            x       y       z     vdW  Elec       q    Type
                         _______ _______ _______ _____ _____    ______ ____

>  <TORSDO>
F 9

$$$$
=
 OpenBabel10272413523D

 30 31  0  0  1  0  0  0  0  0999 V2000
  187.6810  177.5970  145.3040 C   0  0  0  0  0  0  0  0  0  0  0  0
  186.8570  178.4510  145.9950 C   0  0  0  0  0  0  0  0  0  0  0  0
  187.0650  178.2300  147.3380 C   0  0  0  0  0  3  0  0  0  0  0  0
  188.4140  176.8600  146.1570 N   0  0  0  0  0  2  0  0  0  0  0  0
  188.0390  177.2450  147.3950 C   0  0  0  0  0  3  0  0  0  0  0  0
  188.0530  176.0690  143.3950 C   0  0  0  0  0  1  0  0  0  0  0  0
  187.7790  177.5020  143.8150 C   0  0  2  0  0  3  0  0  0  0  0  0
  188.8760  178.4220  143.3040 C   0  0  0  0  0  2  0  0  0  0  0  0
  190.2350  177.7290  143.3500 C   0  0  2  0  0  3  0  0  0  0  0  0
  191.3850  179.5980  144.2270 O   0  0  0  0  0  0  0  0  0  0  0  0
  191.2940  175.4240  144.9040 O   0  0  0  0  0  0  0  0  0  0  0  0
  191.7680  177.6630  145.4420 N   0  0  0  0  0  2  0  0  0  0  0  0
  191.1550  178.3670  144.3490 C   0  0  0  0  0  0  0  0  0  0  0  0
  192.3710  175.7680  146.9850 C   0  0  0  0  0  1  0  0  0  0  0  0
  191.7680  176.2570  145.7160 C   0  0  0  0  0  0  0  0  0  0  0  0
  190.1220  177.6160  140.8540 O   0  0  0  0  0  0  0  0  0  0  0  0
  190.8870  177.5250  142.0090 C   0  0  0  0  0  0  0  0  0  0  0  0
  192.1250  177.3070  141.9140 O   0  0  0  0  0  1  0  0  0  0  0  0
  185.8640  179.4020  145.4120 C   0  0  0  0  0  2  0  0  0  0  0  0
  184.7790  178.6690  144.7810 N   0  0  0  0  0  0  0  0  0  0  0  0
  183.8170  178.3490  145.8230 C   0  0  0  0  0  1  0  0  0  0  0  0
  184.1150  179.5950  143.8790 C   0  0  0  0  0  2  0  0  0  0  0  0
  185.0470  178.6450  139.5040 C   0  0  0  0  0  0  0  0  0  0  0  0
  183.6340  179.1210  139.5280 C   0  0  0  0  0  2  0  0  0  0  0  0
  185.7180  178.0420  137.9630 S   0  0  0  0  0  1  0  0  0  0  0  0
  184.2590  179.1320  142.4700 C   0  0  0  0  0  0  0  0  0  0  0  0
  182.8270  178.4020  140.5560 C   0  0  0  0  0  3  0  0  0  0  0  0
  185.8600  178.7720  140.5520 C   0  0  0  0  0  3  0  0  0  0  0  0
  183.1000  178.4510  141.8600 C   0  0  0  0  0  3  0  0  0  0  0  0
  185.4690  179.2310  141.9000 C   0  0  0  0  0  3  0  0  0  0  0  0
  1  2  2  0  0  0  0
  1  4  1  0  0  0  0
  2  3  1  0  0  0  0
  3  5  2  0  0  0  0
  4  5  1  0  0  0  0
  7  6  1  1  0  0  0
  7  1  1  0  0  0  0
  8  7  1  0  0  0  0
  9  8  1  6  0  0  0
  9 13  1  0  0  0  0
 10 13  2  0  0  0  0
 11 15  2  0  0  0  0
 12 15  1  0  0  0  0
 13 12  1  0  0  0  0
 15 14  1  0  0  0  0
 16 17  2  0  0  0  0
 17  9  1  0  0  0  0
 18 17  1  0  0  0  0
 19  2  1  0  0  0  0
 20 19  1  0  0  0  0
 20 21  1  0  0  0  0
 22 20  1  0  0  0  0
 23 24  1  0  0  0  0
 23 28  2  0  0  0  0
 24 27  1  0  0  0  0
 25 23  1  0  0  0  0
 26 22  1  0  0  0  0
 27 29  2  0  0  0  0
 28 30  1  0  0  0  0
 29 26  1  0  0  0  0
 30 26  2  0  0  0  0
M  END
>  <MODEL>
4

>  <REMARK>
 VINA RESULT:      -7.6      2.456      4.502
  Name = 
  9 active torsions:
  status: ('A' for Active; 'I' for Inactive)
    1  A    between atoms: C_3  and  N_11
    2  A    between atoms: C_3  and  C_19
    3  A    between atoms: C_4  and  C_8
    4  A    between atoms: C_7  and  C_30
    5  A    between atoms: C_8  and  C_12
    6  A    between atoms: C_8  and  C_13
    7  A    between atoms: C_10  and  C_25
    8  A    between atoms: N_11  and  C_25
    9  A    between atoms: C_13  and  C_30
                            x       y       z     vdW  Elec       q    Type
                         _______ _______ _______ _____ _____    ______ ____

>  <TORSDO>
F 9

$$$$
=
 OpenBabel10272413523D

 30 31  0  0  1  0  0  0  0  0999 V2000
  191.1000  177.4780  145.2060 C   0  0  0  0  0  0  0  0  0  0  0  0
  190.1420  177.4720  146.1890 C   0  0  2  0  0  3  0  0  0  0  0  0
  190.4710  176.4770  147.0820 C   0  0  0  0  0  3  0  0  0  0  0  0
  192.0310  176.5390  145.4530 N   0  0  0  0  0  0  0  0  0  0  0  0
  191.6480  175.9290  146.5940 C   0  0  0  0  0  3  0  0  0  0  0  0
  191.5250  179.8020  144.4760 C   0  0  0  0  0  1  0  0  0  0  0  0
  191.1340  178.4040  144.0330 C   0  0  2  0  0  3  0  0  0  0  0  0
  189.7770  178.4270  143.3470 C   0  0  0  0  0  2  0  0  0  0  0  0
  189.7000  177.3620  142.2550 C   0  0  2  0  0  3  0  0  0  0  0  0
  187.8030  178.4390  141.3440 O   0  0  0  0  0  0  0  0  0  0  0  0
  191.0150  176.0880  139.9110 O   0  0  0  0  0  0  0  0  0  0  0  0
  189.2200  177.5940  139.7160 N   0  0  0  0  0  2  0  0  0  0  0  0
  188.8660  177.8140  141.0920 C   0  0  0  0  0  0  0  0  0  0  0  0
  190.5380  176.8300  137.7130 C   0  0  0  0  0  1  0  0  0  0  0  0
  190.2920  176.8100  139.1790 C   0  0  0  0  0  0  0  0  0  0  0  0
  190.3070  175.0130  142.8610 O   0  0  0  0  0  0  0  0  0  0  0  0
  189.3260  175.9870  142.7370 C   0  0  0  0  0  0  0  0  0  0  0  0
  188.1390  175.7130  143.0650 O   0  0  0  0  0  1  0  0  0  0  0  0
  188.9250  178.3360  146.2580 C   0  0  0  0  0  2  0  0  0  0  0  0
  187.7870  177.5600  146.7240 N   0  0  0  0  0  0  0  0  0  0  0  0
  188.1220  177.0660  148.0490 C   0  0  0  0  0  1  0  0  0  0  0  0
  186.6860  178.4930  146.8980 C   0  0  0  0  0  2  0  0  0  0  0  0
  184.4060  178.4680  142.9340 C   0  0  0  0  0  0  0  0  0  0  0  0
  183.7620  179.5220  143.7710 C   0  0  0  0  0  2  0  0  0  0  0  0
  183.6790  178.0730  141.3510 S   0  0  0  0  0  1  0  0  0  0  0  0
  185.7660  178.4250  145.7270 C   0  0  0  0  0  0  0  0  0  0  0  0
  183.4120  179.0120  145.1280 C   0  0  0  0  0  3  0  0  0  0  0  0
  185.5660  177.9040  143.2660 C   0  0  0  0  0  3  0  0  0  0  0  0
  184.3210  178.5640  145.9950 C   0  0  0  0  0  3  0  0  0  0  0  0
  186.2920  178.1000  144.5370 C   0  0  0  0  0  3  0  0  0  0  0  0
  1  4  2  0  0  0  0
  1  2  1  0  0  0  0
  2 19  1  6  0  0  0
  2  3  1  0  0  0  0
  4  5  1  0  0  0  0
  5  3  2  0  0  0  0
  7  6  1  1  0  0  0
  7  1  1  0  0  0  0
  8  7  1  0  0  0  0
  9 17  1  0  0  0  0
  9  8  1  1  0  0  0
 12 13  1  0  0  0  0
 13 10  2  0  0  0  0
 13  9  1  0  0  0  0
 14 15  1  0  0  0  0
 15 12  1  0  0  0  0
 15 11  2  0  0  0  0
 17 16  2  0  0  0  0
 17 18  1  0  0  0  0
 19 20  1  0  0  0  0
 20 22  1  0  0  0  0
 20 21  1  0  0  0  0
 23 28  2  0  0  0  0
 23 24  1  0  0  0  0
 24 27  1  0  0  0  0
 25 23  1  0  0  0  0
 26 29  1  0  0  0  0
 26 22  1  0  0  0  0
 27 29  2  0  0  0  0
 28 30  1  0  0  0  0
 30 26  2  0  0  0  0
M  END
>  <MODEL>
5

>  <REMARK>
 VINA RESULT:      -7.5      1.486      2.216
  Name = 
  9 active torsions:
  status: ('A' for Active; 'I' for Inactive)
    1  A    between atoms: C_3  and  N_11
    2  A    between atoms: C_3  and  C_19
    3  A    between atoms: C_4  and  C_8
    4  A    between atoms: C_7  and  C_30
    5  A    between atoms: C_8  and  C_12
    6  A    between atoms: C_8  and  C_13
    7  A    between atoms: C_10  and  C_25
    8  A    between atoms: N_11  and  C_25
    9  A    between atoms: C_13  and  C_30
                            x       y       z     vdW  Elec       q    Type
                         _______ _______ _______ _____ _____    ______ ____

>  <TORSDO>
F 9

$$$$
=
 OpenBabel10272413523D

 30 31  0  0  1  0  0  0  0  0999 V2000
  191.2400  176.6530  139.2140 C   0  0  0  0  0  0  0  0  0  0  0  0
  190.5560  177.0840  140.3240 C   0  0  2  0  0  3  0  0  0  0  0  0
  191.4770  177.6220  141.1950 C   0  0  0  0  0  3  0  0  0  0  0  0
  192.5530  176.9140  139.3420 N   0  0  0  0  0  0  0  0  0  0  0  0
  192.6980  177.5030  140.5470 C   0  0  0  0  0  3  0  0  0  0  0  0
  191.5640  174.9550  137.4460 C   0  0  0  0  0  1  0  0  0  0  0  0
  190.6260  176.0040  138.0160 C   0  0  2  0  0  3  0  0  0  0  0  0
  190.3010  177.0520  136.9630 C   0  0  0  0  0  2  0  0  0  0  0  0
  188.7920  177.2400  136.8270 C   0  0  2  0  0  3  0  0  0  0  0  0
  188.6890  177.6450  134.5010 O   0  0  0  0  0  0  0  0  0  0  0  0
  186.8040  175.0750  137.2820 O   0  0  0  0  0  0  0  0  0  0  0  0
  187.4630  175.7860  135.1400 N   0  0  0  0  0  2  0  0  0  0  0  0
  188.3100  176.9060  135.4460 C   0  0  0  0  0  0  0  0  0  0  0  0
  186.0700  173.7180  135.4850 C   0  0  0  0  0  1  0  0  0  0  0  0
  186.8010  174.8870  136.0400 C   0  0  0  0  0  0  0  0  0  0  0  0
  186.9050  178.8050  137.3230 O   0  0  0  0  0  0  0  0  0  0  0  0
  188.2730  178.5640  137.3180 C   0  0  0  0  0  0  0  0  0  0  0  0
  189.0570  179.4470  137.7590 O   0  0  0  0  0  1  0  0  0  0  0  0
  189.0920  176.9430  140.5840 C   0  0  0  0  0  2  0  0  0  0  0  0
  188.7140  177.7210  141.7520 N   0  0  0  0  0  0  0  0  0  0  0  0
  187.8560  178.7990  141.2880 C   0  0  0  0  0  1  0  0  0  0  0  0
  187.8840  176.8610  142.5790 C   0  0  0  0  0  2  0  0  0  0  0  0
  188.5290  177.7360  147.0210 C   0  0  0  0  0  0  0  0  0  0  0  0
  187.1070  177.3030  146.8900 C   0  0  0  0  0  2  0  0  0  0  0  0
  189.1050  178.3030  148.6130 S   0  0  0  0  0  1  0  0  0  0  0  0
  187.9410  177.3050  144.0010 C   0  0  0  0  0  0  0  0  0  0  0  0
  186.3980  178.0570  145.8170 C   0  0  0  0  0  3  0  0  0  0  0  0
  189.4100  177.5970  146.0320 C   0  0  0  0  0  3  0  0  0  0  0  0
  186.7610  178.0140  144.5350 C   0  0  0  0  0  3  0  0  0  0  0  0
  189.1040  177.1640  144.6540 C   0  0  0  0  0  3  0  0  0  0  0  0
  1  4  2  0  0  0  0
  1  2  1  0  0  0  0
  2 19  1  1  0  0  0
  2  3  1  0  0  0  0
  4  5  1  0  0  0  0
  5  3  2  0  0  0  0
  7  6  1  6  0  0  0
  7  1  1  0  0  0  0
  8  7  1  0  0  0  0
  9  8  1  6  0  0  0
  9 17  1  0  0  0  0
 10 13  2  0  0  0  0
 12 13  1  0  0  0  0
 12 15  1  0  0  0  0
 13  9  1  0  0  0  0
 14 15  1  0  0  0  0
 15 11  2  0  0  0  0
 17 16  2  0  0  0  0
 17 18  1  0  0  0  0
 19 20  1  0  0  0  0
 20 22  1  0  0  0  0
 21 20  1  0  0  0  0
 22 26  1  0  0  0  0
 23 25  1  0  0  0  0
 24 23  1  0  0  0  0
 26 29  1  0  0  0  0
 26 30  2  0  0  0  0
 27 24  1  0  0  0  0
 28 23  2  0  0  0  0
 29 27  2  0  0  0  0
 30 28  1  0  0  0  0
M  END
>  <MODEL>
6

>  <REMARK>
 VINA RESULT:      -7.4      2.835      4.985
  Name = 
  9 active torsions:
  status: ('A' for Active; 'I' for Inactive)
    1  A    between atoms: C_3  and  N_11
    2  A    between atoms: C_3  and  C_19
    3  A    between atoms: C_4  and  C_8
    4  A    between atoms: C_7  and  C_30
    5  A    between atoms: C_8  and  C_12
    6  A    between atoms: C_8  and  C_13
    7  A    between atoms: C_10  and  C_25
    8  A    between atoms: N_11  and  C_25
    9  A    between atoms: C_13  and  C_30
                            x       y       z     vdW  Elec       q    Type
                         _______ _______ _______ _____ _____    ______ ____

>  <TORSDO>
F 9

$$$$
=
 OpenBabel10272413523D

 30 31  0  0  1  0  0  0  0  0999 V2000
  186.7500  177.7950  143.8480 C   0  0  0  0  0  0  0  0  0  0  0  0
  185.7810  178.7480  143.6530 C   0  0  0  0  0  0  0  0  0  0  0  0
  185.1390  178.9380  144.8560 C   0  0  0  0  0  3  0  0  0  0  0  0
  186.7570  177.3890  145.1300 N   0  0  0  0  0  2  0  0  0  0  0  0
  185.7750  178.0840  145.7440 C   0  0  0  0  0  3  0  0  0  0  0  0
  188.2620  175.9420  143.2180 C   0  0  0  0  0  1  0  0  0  0  0  0
  187.6870  177.2840  142.8010 C   0  0  2  0  0  3  0  0  0  0  0  0
  188.8040  178.2890  142.5660 C   0  0  0  0  0  2  0  0  0  0  0  0
  190.1630  177.6840  142.9090 C   0  0  2  0  0  3  0  0  0  0  0  0
  190.8530  179.6730  143.9840 O   0  0  0  0  0  0  0  0  0  0  0  0
  191.4230  175.5140  144.5070 O   0  0  0  0  0  0  0  0  0  0  0  0
  191.4260  177.7680  145.1730 N   0  0  0  0  0  2  0  0  0  0  0  0
  190.8320  178.4150  144.0360 C   0  0  0  0  0  0  0  0  0  0  0  0
  192.1690  175.9230  146.7170 C   0  0  0  0  0  1  0  0  0  0  0  0
  191.6430  176.3700  145.4000 C   0  0  0  0  0  0  0  0  0  0  0  0
  190.5410  177.3890  140.4550 O   0  0  0  0  0  0  0  0  0  0  0  0
  191.0770  177.4720  141.7330 C   0  0  0  0  0  0  0  0  0  0  0  0
  192.3270  177.4030  141.8840 O   0  0  0  0  0  1  0  0  0  0  0  0
  185.4330  179.4190  142.3640 C   0  0  0  0  0  2  0  0  0  0  0  0
  184.8650  178.4540  141.4370 N   0  0  0  0  0  0  0  0  0  0  0  0
  183.5050  178.1900  141.8750 C   0  0  0  0  0  1  0  0  0  0  0  0
  184.7610  179.1210  140.1490 C   0  0  0  0  0  2  0  0  0  0  0  0
  187.6460  177.2550  137.1310 C   0  0  0  0  0  0  0  0  0  0  0  0
  186.5010  177.7810  136.3320 C   0  0  0  0  0  2  0  0  0  0  0  0
  188.9150  176.3220  136.2900 S   0  0  0  0  0  1  0  0  0  0  0  0
  185.5360  178.3720  139.1190 C   0  0  0  0  0  0  0  0  0  0  0  0
  185.1910  177.3210  136.8780 C   0  0  0  0  0  3  0  0  0  0  0  0
  187.8200  177.5620  138.4160 C   0  0  0  0  0  3  0  0  0  0  0  0
  184.7650  177.6260  138.1040 C   0  0  0  0  0  3  0  0  0  0  0  0
  186.8670  178.3040  139.2660 C   0  0  0  0  0  3  0  0  0  0  0  0
  1  4  1  0  0  0  0
  2  1  2  0  0  0  0
  2  3  1  0  0  0  0
  3  5  2  0  0  0  0
  4  5  1  0  0  0  0
  7  6  1  1  0  0  0
  7  1  1  0  0  0  0
  8  7  1  0  0  0  0
  9  8  1  6  0  0  0
  9 13  1  0  0  0  0
 10 13  2  0  0  0  0
 11 15  2  0  0  0  0
 12 15  1  0  0  0  0
 13 12  1  0  0  0  0
 15 14  1  0  0  0  0
 16 17  2  0  0  0  0
 17 18  1  0  0  0  0
 17  9  1  0  0  0  0
 19  2  1  0  0  0  0
 20 21  1  0  0  0  0
 20 19  1  0  0  0  0
 22 20  1  0  0  0  0
 23 28  2  0  0  0  0
 24 27  1  0  0  0  0
 24 23  1  0  0  0  0
 25 23  1  0  0  0  0
 26 30  2  0  0  0  0
 26 22  1  0  0  0  0
 27 29  2  0  0  0  0
 28 30  1  0  0  0  0
 29 26  1  0  0  0  0
M  END
>  <MODEL>
7

>  <REMARK>
 VINA RESULT:      -7.4      2.958      5.919
  Name = 
  9 active torsions:
  status: ('A' for Active; 'I' for Inactive)
    1  A    between atoms: C_3  and  N_11
    2  A    between atoms: C_3  and  C_19
    3  A    between atoms: C_4  and  C_8
    4  A    between atoms: C_7  and  C_30
    5  A    between atoms: C_8  and  C_12
    6  A    between atoms: C_8  and  C_13
    7  A    between atoms: C_10  and  C_25
    8  A    between atoms: N_11  and  C_25
    9  A    between atoms: C_13  and  C_30
                            x       y       z     vdW  Elec       q    Type
                         _______ _______ _______ _____ _____    ______ ____

>  <TORSDO>
F 9

$$$$
=
 OpenBabel10272413523D

 30 31  0  0  1  0  0  0  0  0999 V2000
  186.3950  178.4070  141.3750 C   0  0  0  0  0  0  0  0  0  0  0  0
  185.2740  178.3200  142.1630 C   0  0  2  0  0  3  0  0  0  0  0  0
  184.2100  178.7880  141.4240 C   0  0  0  0  0  3  0  0  0  0  0  0
  186.0770  178.8930  140.1610 N   0  0  0  0  0  0  0  0  0  0  0  0
  184.7480  179.1260  140.1910 C   0  0  0  0  0  3  0  0  0  0  0  0
  188.6710  179.2230  141.8900 C   0  0  0  0  0  1  0  0  0  0  0  0
  187.7750  178.0030  141.7820 C   0  0  2  0  0  3  0  0  0  0  0  0
  188.3460  177.0140  140.7790 C   0  0  0  0  0  2  0  0  0  0  0  0
  189.8290  177.2810  140.5320 C   0  0  2  0  0  3  0  0  0  0  0  0
  191.0060  175.6750  139.2590 O   0  0  0  0  0  0  0  0  0  0  0  0
  188.9810  179.3180  138.5370 O   0  0  0  0  0  0  0  0  0  0  0  0
  189.9460  177.2600  137.9410 N   0  0  0  0  0  2  0  0  0  0  0  0
  190.2900  176.7090  139.2240 C   0  0  0  0  0  0  0  0  0  0  0  0
  188.9090  178.7870  136.2310 C   0  0  0  0  0  1  0  0  0  0  0  0
  189.2650  178.4840  137.6420 C   0  0  0  0  0  0  0  0  0  0  0  0
  190.4370  175.8150  142.4650 O   0  0  0  0  0  1  0  0  0  0  0  0
  190.7370  176.9170  141.6760 C   0  0  0  0  0  0  0  0  0  0  0  0
  191.7850  177.5780  141.9100 O   0  0  0  0  0  0  0  0  0  0  0  0
  185.2140  177.8660  143.5850 C   0  0  0  0  0  2  0  0  0  0  0  0
  185.5700  178.9590  144.4750 N   0  0  0  0  0  0  0  0  0  0  0  0
  184.4770  179.9170  144.4310 C   0  0  0  0  0  1  0  0  0  0  0  0
  185.5870  178.4150  145.8230 C   0  0  0  0  0  2  0  0  0  0  0  0
  189.8480  176.9130  146.5260 C   0  0  0  0  0  0  0  0  0  0  0  0
  189.0850  176.5740  147.7620 C   0  0  0  0  0  2  0  0  0  0  0  0
  191.6070  176.6000  146.4960 S   0  0  0  0  0  1  0  0  0  0  0  0
  186.9820  178.0720  146.2190 C   0  0  0  0  0  0  0  0  0  0  0  0
  188.3420  177.7530  148.2910 C   0  0  0  0  0  3  0  0  0  0  0  0
  189.2500  177.3200  145.4070 C   0  0  0  0  0  3  0  0  0  0  0  0
  187.3860  178.3800  147.6050 C   0  0  0  0  0  3  0  0  0  0  0  0
  187.8170  177.6450  145.2600 C   0  0  0  0  0  3  0  0  0  0  0  0
  1  7  1  0  0  0  0
  1  2  1  0  0  0  0
  2 19  1  1  0  0  0
  3  2  1  0  0  0  0
  4  5  1  0  0  0  0
  4  1  2  0  0  0  0
  5  3  2  0  0  0  0
  7  6  1  6  0  0  0
  8  7  1  0  0  0  0
  9  8  1  1  0  0  0
  9 17  1  0  0  0  0
 12 13  1  0  0  0  0
 13 10  2  0  0  0  0
 13  9  1  0  0  0  0
 14 15  1  0  0  0  0
 15 12  1  0  0  0  0
 15 11  2  0  0  0  0
 17 18  2  0  0  0  0
 17 16  1  0  0  0  0
 19 20  1  0  0  0  0
 20 22  1  0  0  0  0
 21 20  1  0  0  0  0
 22 26  1  0  0  0  0
 23 24  1  0  0  0  0
 24 27  1  0  0  0  0
 25 23  1  0  0  0  0
 26 29  1  0  0  0  0
 28 23  2  0  0  0  0
 29 27  2  0  0  0  0
 30 28  1  0  0  0  0
 30 26  2  0  0  0  0
M  END
>  <MODEL>
8

>  <REMARK>
 VINA RESULT:      -7.4      2.680      4.962
  Name = 
  9 active torsions:
  status: ('A' for Active; 'I' for Inactive)
    1  A    between atoms: C_3  and  N_11
    2  A    between atoms: C_3  and  C_19
    3  A    between atoms: C_4  and  C_8
    4  A    between atoms: C_7  and  C_30
    5  A    between atoms: C_8  and  C_12
    6  A    between atoms: C_8  and  C_13
    7  A    between atoms: C_10  and  C_25
    8  A    between atoms: N_11  and  C_25
    9  A    between atoms: C_13  and  C_30
                            x       y       z     vdW  Elec       q    Type
                         _______ _______ _______ _____ _____    ______ ____

>  <TORSDO>
F 9

$$$$
=
 OpenBabel10272413523D

 30 31  0  0  1  0  0  0  0  0999 V2000
  184.4670  178.7590  144.3890 C   0  0  0  0  0  0  0  0  0  0  0  0
  185.7410  178.2720  144.5480 C   0  0  0  0  0  0  0  0  0  0  0  0
  185.9440  178.0750  145.8960 C   0  0  0  0  0  3  0  0  0  0  0  0
  183.8510  178.8580  145.5810 N   0  0  0  0  0  2  0  0  0  0  0  0
  184.7510  178.4430  146.4980 C   0  0  0  0  0  3  0  0  0  0  0  0
  182.3230  179.2120  143.2430 C   0  0  0  0  0  1  0  0  0  0  0  0
  183.8300  179.1110  143.0840 C   0  0  2  0  0  3  0  0  0  0  0  0
  184.1830  178.0710  142.0330 C   0  0  0  0  0  2  0  0  0  0  0  0
  184.0960  178.6640  140.6280 C   0  0  2  0  0  3  0  0  0  0  0  0
  182.9070  176.7620  139.8840 O   0  0  0  0  0  0  0  0  0  0  0  0
  183.0400  180.8870  138.9570 O   0  0  0  0  0  0  0  0  0  0  0  0
  182.0950  178.7340  138.9780 N   0  0  0  0  0  2  0  0  0  0  0  0
  183.0170  178.0130  139.8130 C   0  0  0  0  0  0  0  0  0  0  0  0
  180.9600  180.6740  137.8450 C   0  0  0  0  0  1  0  0  0  0  0  0
  182.0950  180.1250  138.6330 C   0  0  0  0  0  0  0  0  0  0  0  0
  185.4110  178.9040  138.5150 O   0  0  0  0  0  0  0  0  0  0  0  0
  185.4060  178.7470  139.8940 C   0  0  0  0  0  0  0  0  0  0  0  0
  186.5030  178.7110  140.5160 O   0  0  0  0  0  1  0  0  0  0  0  0
  186.7560  178.0540  143.4740 C   0  0  0  0  0  2  0  0  0  0  0  0
  187.8050  177.1670  143.9490 N   0  0  0  0  0  0  0  0  0  0  0  0
  188.0390  176.1850  142.9040 C   0  0  0  0  0  1  0  0  0  0  0  0
  189.0170  177.9640  144.0450 C   0  0  0  0  0  2  0  0  0  0  0  0
  191.6590  176.1970  147.3320 C   0  0  0  0  0  0  0  0  0  0  0  0
  190.2600  176.1160  147.8430 C   0  0  0  0  0  2  0  0  0  0  0  0
  192.9930  175.7230  148.4210 S   0  0  0  0  0  1  0  0  0  0  0  0
  189.8050  177.5570  145.2420 C   0  0  0  0  0  0  0  0  0  0  0  0
  189.5530  177.4240  147.7250 C   0  0  0  0  0  3  0  0  0  0  0  0
  191.9390  176.4870  146.0620 C   0  0  0  0  0  3  0  0  0  0  0  0
  189.3290  178.0280  146.5580 C   0  0  0  0  0  3  0  0  0  0  0  0
  190.9660  176.9170  145.0380 C   0  0  0  0  0  3  0  0  0  0  0  0
  1  2  2  0  0  0  0
  1  4  1  0  0  0  0
  2  3  1  0  0  0  0
  3  5  2  0  0  0  0
  4  5  1  0  0  0  0
  7  6  1  1  0  0  0
  7  1  1  0  0  0  0
  8  7  1  0  0  0  0
  9  8  1  1  0  0  0
 12 13  1  0  0  0  0
 13 10  2  0  0  0  0
 13  9  1  0  0  0  0
 14 15  1  0  0  0  0
 15 11  2  0  0  0  0
 15 12  1  0  0  0  0
 16 17  2  0  0  0  0
 17 18  1  0  0  0  0
 17  9  1  0  0  0  0
 19 20  1  0  0  0  0
 19  2  1  0  0  0  0
 20 22  1  0  0  0  0
 21 20  1  0  0  0  0
 22 26  1  0  0  0  0
 23 24  1  0  0  0  0
 23 25  1  0  0  0  0
 26 29  1  0  0  0  0
 27 24  1  0  0  0  0
 28 23  2  0  0  0  0
 29 27  2  0  0  0  0
 30 26  2  0  0  0  0
 30 28  1  0  0  0  0
M  END
>  <MODEL>
9

>  <REMARK>
 VINA RESULT:      -7.4      3.788      6.777
  Name = 
  9 active torsions:
  status: ('A' for Active; 'I' for Inactive)
    1  A    between atoms: C_3  and  N_11
    2  A    between atoms: C_3  and  C_19
    3  A    between atoms: C_4  and  C_8
    4  A    between atoms: C_7  and  C_30
    5  A    between atoms: C_8  and  C_12
    6  A    between atoms: C_8  and  C_13
    7  A    between atoms: C_10  and  C_25
    8  A    between atoms: N_11  and  C_25
    9  A    between atoms: C_13  and  C_30
                            x       y       z     vdW  Elec       q    Type
                         _______ _______ _______ _____ _____    ______ ____

>  <TORSDO>
F 9

$$$$
