=
 OpenBabel10272401553D

 28 31  0  0  1  0  0  0  0  0999 V2000
  186.1770  178.2120  142.4000 C   0  0  0  0  0  2  0  0  0  0  0  0
  187.8520  177.8220  147.9570 C   0  0  0  0  0  1  0  0  0  0  0  0
  184.2600  178.5580  144.9080 C   0  0  2  0  0  3  0  0  0  0  0  0
  185.6940  178.2070  144.9100 C   0  0  0  0  0  0  0  0  0  0  0  0
  183.8170  179.1530  142.4810 C   0  0  2  0  0  3  0  0  0  0  0  0
  186.5640  177.9740  143.8330 C   0  0  0  0  0  0  0  0  0  0  0  0
  184.9950  178.5370  147.0720 C   0  0  0  0  0  2  0  0  0  0  0  0
  183.9930  179.6790  143.9130 C   0  0  0  0  0  2  0  0  0  0  0  0
  187.8940  177.6480  144.1310 C   0  0  0  0  0  3  0  0  0  0  0  0
  183.9340  178.9630  146.2270 O   0  0  0  0  0  0  0  0  0  0  0  0
  187.4320  177.8130  146.5240 C   0  0  0  0  0  0  0  0  0  0  0  0
  182.1120  178.7280  142.2060 Cl  0  0  0  0  0  0  0  0  0  0  0  0
  184.6990  177.9500  142.1260 C   0  0  0  0  0  2  0  0  0  0  0  0
  186.1140  178.1460  146.1910 C   0  0  0  0  0  0  0  0  0  0  0  0
  188.3410  177.5360  145.4670 C   0  0  0  0  0  0  0  0  0  0  0  0
  190.6780  176.8210  144.6870 C   0  0  2  0  0  3  0  0  0  0  0  0
  189.7150  177.1870  145.7180 N   0  0  0  0  0  0  0  0  0  0  0  0
  191.4540  176.3090  146.8770 C   0  0  0  0  0  3  0  0  0  0  0  0
  190.2340  176.8020  146.9810 C   0  0  0  0  0  3  0  0  0  0  0  0
  191.9050  176.3200  145.4530 C   0  0  0  0  0  2  0  0  0  0  0  0
  190.9870  177.9950  143.7470 C   0  0  2  0  0  3  0  0  0  0  0  0
  190.9070  179.2130  144.4230 O   0  0  0  0  0  1  0  0  0  0  0  0
  190.1980  178.0170  142.4290 C   0  0  0  0  0  2  0  0  0  0  0  0
  190.1130  176.7910  140.2320 C   0  0  0  0  0  0  0  0  0  0  0  0
  192.3090  177.2690  141.3230 C   0  0  0  0  0  1  0  0  0  0  0  0
  190.8550  177.2700  141.3630 N   0  0  0  0  0  0  0  0  0  0  0  0
  188.7610  177.0830  140.1010 O   0  0  0  0  0  1  0  0  0  0  0  0
  190.6850  176.1120  139.3370 O   0  0  0  0  0  0  0  0  0  0  0  0
  1  6  1  0  0  0  0
  3  8  1  6  0  0  0
  3  4  1  0  0  0  0
  3 10  1  0  0  0  0
  4 14  1  0  0  0  0
  5 12  1  1  0  0  0
  5  8  1  0  0  0  0
  6  9  1  0  0  0  0
  6  4  2  0  0  0  0
  9 15  2  0  0  0  0
 10  7  1  0  0  0  0
 11  2  1  0  0  0  0
 13  1  1  0  0  0  0
 13  5  1  0  0  0  0
 14 11  2  0  0  0  0
 14  7  1  0  0  0  0
 15 17  1  0  0  0  0
 15 11  1  0  0  0  0
 16 21  1  1  0  0  0
 16 20  1  0  0  0  0
 16 17  1  0  0  0  0
 17 19  1  0  0  0  0
 18 19  2  0  0  0  0
 20 18  1  0  0  0  0
 21 22  1  1  0  0  0
 23 21  1  0  0  0  0
 24 26  1  0  0  0  0
 25 26  1  0  0  0  0
 26 23  1  0  0  0  0
 27 24  1  0  0  0  0
 28 24  2  0  0  0  0
M  END
>  <MODEL>
1

>  <REMARK>
 VINA RESULT:     -10.1      0.000      0.000
  Name = 
  4 active torsions:
  status: ('A' for Active; 'I' for Inactive)
    1  A    between atoms: C_1  and  C_2
    2  A    between atoms: C_2  and  C_3
    3  A    between atoms: C_3  and  N_11
    4  A    between atoms: N_16  and  C_27
                            x       y       z     vdW  Elec       q    Type
                         _______ _______ _______ _____ _____    ______ ____

>  <TORSDO>
F 4

$$$$
=
 OpenBabel10272401553D

 28 31  0  0  1  0  0  0  0  0999 V2000
  185.6440  178.2910  142.1850 C   0  0  0  0  0  2  0  0  0  0  0  0
  188.3390  177.6130  147.2950 C   0  0  0  0  0  1  0  0  0  0  0  0
  184.2550  178.5750  145.0270 C   0  0  2  0  0  3  0  0  0  0  0  0
  185.6510  178.1870  144.7390 C   0  0  0  0  0  0  0  0  0  0  0  0
  183.3760  179.2890  142.7560 C   0  0  2  0  0  3  0  0  0  0  0  0
  186.2900  177.9800  143.5070 C   0  0  0  0  0  0  0  0  0  0  0  0
  185.3910  178.4390  147.0060 C   0  0  0  0  0  2  0  0  0  0  0  0
  183.8410  179.7460  144.1460 C   0  0  0  0  0  2  0  0  0  0  0  0
  187.6410  177.6070  143.5300 C   0  0  0  0  0  3  0  0  0  0  0  0
  184.2030  178.9290  146.3990 O   0  0  0  0  0  0  0  0  0  0  0  0
  187.6520  177.6780  145.9710 C   0  0  0  0  0  0  0  0  0  0  0  0
  181.6360  178.9200  142.7990 Cl  0  0  0  0  0  0  0  0  0  0  0  0
  184.1330  178.0800  142.1920 C   0  0  0  0  0  2  0  0  0  0  0  0
  186.3070  178.0590  145.9120 C   0  0  0  0  0  0  0  0  0  0  0  0
  188.3320  177.4240  144.7490 C   0  0  0  0  0  0  0  0  0  0  0  0
  190.3320  176.2580  143.6450 C   0  0  2  0  0  3  0  0  0  0  0  0
  189.7160  177.0290  144.7160 N   0  0  0  0  0  0  0  0  0  0  0  0
  191.7090  176.3840  145.5800 C   0  0  0  0  0  3  0  0  0  0  0  0
  190.5780  177.0100  145.8420 C   0  0  0  0  0  3  0  0  0  0  0  0
  191.7240  175.8980  144.1680 C   0  0  0  0  0  2  0  0  0  0  0  0
  190.3620  177.0360  142.3210 C   0  0  2  0  0  3  0  0  0  0  0  0
  190.4210  178.4110  142.5490 O   0  0  0  0  0  1  0  0  0  0  0  0
  189.2690  176.6680  141.3080 C   0  0  0  0  0  2  0  0  0  0  0  0
  190.2050  176.8750  138.9790 C   0  0  0  0  0  0  0  0  0  0  0  0
  188.4700  178.4810  139.7870 C   0  0  0  0  0  1  0  0  0  0  0  0
  189.3960  177.3900  140.0470 N   0  0  0  0  0  0  0  0  0  0  0  0
  190.8370  175.6430  139.1050 O   0  0  0  0  0  1  0  0  0  0  0  0
  190.3390  177.5290  137.9110 O   0  0  0  0  0  0  0  0  0  0  0  0
  1 13  1  0  0  0  0
  1  6  1  0  0  0  0
  3  8  1  6  0  0  0
  3 10  1  0  0  0  0
  4  3  1  0  0  0  0
  4 14  1  0  0  0  0
  5 12  1  1  0  0  0
  5  8  1  0  0  0  0
  6  9  1  0  0  0  0
  6  4  2  0  0  0  0
  9 15  2  0  0  0  0
 10  7  1  0  0  0  0
 11  2  1  0  0  0  0
 13  5  1  0  0  0  0
 14 11  2  0  0  0  0
 14  7  1  0  0  0  0
 15 11  1  0  0  0  0
 16 21  1  6  0  0  0
 16 20  1  0  0  0  0
 16 17  1  0  0  0  0
 17 15  1  0  0  0  0
 17 19  1  0  0  0  0
 18 19  2  0  0  0  0
 20 18  1  0  0  0  0
 21 22  1  1  0  0  0
 23 21  1  0  0  0  0
 24 27  1  0  0  0  0
 24 26  1  0  0  0  0
 25 26  1  0  0  0  0
 26 23  1  0  0  0  0
 28 24  2  0  0  0  0
M  END
>  <MODEL>
2

>  <REMARK>
 VINA RESULT:      -9.7      1.145      1.454
  Name = 
  4 active torsions:
  status: ('A' for Active; 'I' for Inactive)
    1  A    between atoms: C_1  and  C_2
    2  A    between atoms: C_2  and  C_3
    3  A    between atoms: C_3  and  N_11
    4  A    between atoms: N_16  and  C_27
                            x       y       z     vdW  Elec       q    Type
                         _______ _______ _______ _____ _____    ______ ____

>  <TORSDO>
F 4

$$$$
=
 OpenBabel10272401553D

 28 31  0  0  1  0  0  0  0  0999 V2000
  189.7870  176.7340  144.4620 C   0  0  0  0  0  2  0  0  0  0  0  0
  184.4250  178.8900  145.1140 C   0  0  0  0  0  1  0  0  0  0  0  0
  188.5770  177.8080  147.1950 C   0  0  2  0  0  3  0  0  0  0  0  0
  187.9440  177.8180  145.8610 C   0  0  0  0  0  0  0  0  0  0  0  0
  190.6720  176.4230  146.8260 C   0  0  2  0  0  3  0  0  0  0  0  0
  188.4600  177.4230  144.6180 C   0  0  0  0  0  0  0  0  0  0  0  0
  186.4150  178.5130  147.4270 C   0  0  0  0  0  2  0  0  0  0  0  0
  189.2660  176.4720  147.4410 C   0  0  0  0  0  2  0  0  0  0  0  0
  187.6270  177.5480  143.4980 C   0  0  0  0  0  3  0  0  0  0  0  0
  187.5450  178.0280  148.1420 O   0  0  0  0  0  0  0  0  0  0  0  0
  185.8290  178.4300  144.8950 C   0  0  0  0  0  0  0  0  0  0  0  0
  191.8560  177.0600  147.9900 Cl  0  0  0  0  0  0  0  0  0  0  0  0
  190.8180  177.1760  145.4980 C   0  0  0  0  0  2  0  0  0  0  0  0
  186.6830  178.2830  145.9940 C   0  0  0  0  0  0  0  0  0  0  0  0
  186.3200  178.0740  143.6100 C   0  0  0  0  0  0  0  0  0  0  0  0
  185.8640  178.9820  141.2550 C   0  0  2  0  0  3  0  0  0  0  0  0
  185.5090  178.1920  142.4260 N   0  0  0  0  0  0  0  0  0  0  0  0
  183.5860  178.2990  141.2320 C   0  0  0  0  0  3  0  0  0  0  0  0
  184.1290  177.8720  142.3570 C   0  0  0  0  0  3  0  0  0  0  0  0
  184.6070  178.9800  140.3820 C   0  0  0  0  0  2  0  0  0  0  0  0
  187.1020  178.4220  140.5380 C   0  0  2  0  0  3  0  0  0  0  0  0
  188.1860  179.2920  140.6570 O   0  0  0  0  0  1  0  0  0  0  0  0
  186.8830  177.9720  139.0860 C   0  0  0  0  0  2  0  0  0  0  0  0
  188.5410  178.4990  137.2660 C   0  0  0  0  0  0  0  0  0  0  0  0
  189.0810  176.7900  139.0070 C   0  0  0  0  0  1  0  0  0  0  0  0
  188.1300  177.6970  138.3830 N   0  0  0  0  0  0  0  0  0  0  0  0
  187.7840  179.5950  136.8690 O   0  0  0  0  0  1  0  0  0  0  0  0
  189.6010  178.2250  136.6420 O   0  0  0  0  0  0  0  0  0  0  0  0
  1  6  1  0  0  0  0
  1 13  1  0  0  0  0
  3  8  1  1  0  0  0
  3 10  1  0  0  0  0
  4 14  1  0  0  0  0
  4  3  1  0  0  0  0
  5  8  1  0  0  0  0
  5 12  1  1  0  0  0
  6  4  2  0  0  0  0
  7 10  1  0  0  0  0
  9 15  2  0  0  0  0
  9  6  1  0  0  0  0
 11  2  1  0  0  0  0
 11 14  2  0  0  0  0
 13  5  1  0  0  0  0
 14  7  1  0  0  0  0
 15 11  1  0  0  0  0
 16 21  1  6  0  0  0
 16 17  1  0  0  0  0
 17 15  1  0  0  0  0
 18 19  2  0  0  0  0
 19 17  1  0  0  0  0
 20 18  1  0  0  0  0
 20 16  1  0  0  0  0
 21 22  1  6  0  0  0
 23 21  1  0  0  0  0
 24 26  1  0  0  0  0
 26 25  1  0  0  0  0
 26 23  1  0  0  0  0
 27 24  1  0  0  0  0
 28 24  2  0  0  0  0
M  END
>  <MODEL>
3

>  <REMARK>
 VINA RESULT:      -9.5      3.166      5.585
  Name = 
  4 active torsions:
  status: ('A' for Active; 'I' for Inactive)
    1  A    between atoms: C_1  and  C_2
    2  A    between atoms: C_2  and  C_3
    3  A    between atoms: C_3  and  N_11
    4  A    between atoms: N_16  and  C_27
                            x       y       z     vdW  Elec       q    Type
                         _______ _______ _______ _____ _____    ______ ____

>  <TORSDO>
F 4

$$$$
=
 OpenBabel10272401553D

 28 31  0  0  1  0  0  0  0  0999 V2000
  185.1440  179.1760  142.8350 C   0  0  0  0  0  2  0  0  0  0  0  0
  190.0470  176.7390  140.8740 C   0  0  0  0  0  1  0  0  0  0  0  0
  187.1180  177.4030  144.5780 C   0  0  2  0  0  3  0  0  0  0  0  0
  187.2140  177.7090  143.1370 C   0  0  0  0  0  0  0  0  0  0  0  0
  185.2310  178.9080  145.3620 C   0  0  2  0  0  3  0  0  0  0  0  0
  186.3350  178.4250  142.3100 C   0  0  0  0  0  0  0  0  0  0  0  0
  189.1050  176.5870  143.7970 C   0  0  0  0  0  2  0  0  0  0  0  0
  186.7460  178.6550  145.3600 C   0  0  0  0  0  2  0  0  0  0  0  0
  186.6780  178.5590  140.9580 C   0  0  0  0  0  3  0  0  0  0  0  0
  188.3880  176.9140  144.9800 O   0  0  0  0  0  0  0  0  0  0  0  0
  188.7320  177.2890  141.3210 C   0  0  0  0  0  0  0  0  0  0  0  0
  184.4820  178.0380  146.7210 Cl  0  0  0  0  0  0  0  0  0  0  0  0
  184.5150  178.5230  144.0620 C   0  0  0  0  0  2  0  0  0  0  0  0
  188.3650  177.1830  142.6670 C   0  0  0  0  0  0  0  0  0  0  0  0
  187.8570  177.9760  140.4380 C   0  0  0  0  0  0  0  0  0  0  0  0
  187.9760  177.0980  138.0310 C   0  0  2  0  0  3  0  0  0  0  0  0
  188.1560  178.1340  139.0390 N   0  0  0  0  0  0  0  0  0  0  0  0
  189.2800  178.9210  137.2350 C   0  0  0  0  0  3  0  0  0  0  0  0
  188.9830  179.1530  138.5000 C   0  0  0  0  0  3  0  0  0  0  0  0
  188.6400  177.6540  136.7690 C   0  0  0  0  0  2  0  0  0  0  0  0
  186.4950  176.7420  137.8310 C   0  0  2  0  0  3  0  0  0  0  0  0
  186.3450  175.7360  136.8770 O   0  0  0  0  0  1  0  0  0  0  0  0
  185.5560  177.9290  137.5670 C   0  0  0  0  0  2  0  0  0  0  0  0
  183.8480  179.0650  139.0280 C   0  0  0  0  0  0  0  0  0  0  0  0
  183.4990  176.7060  138.2810 C   0  0  0  0  0  1  0  0  0  0  0  0
  184.3450  177.8860  138.3780 N   0  0  0  0  0  0  0  0  0  0  0  0
  184.4820  180.2890  138.8470 O   0  0  0  0  0  0  0  0  0  0  0  0
  182.8230  179.0040  139.7590 O   0  0  0  0  0  1  0  0  0  0  0  0
  1 13  1  0  0  0  0
  2 11  1  0  0  0  0
  3 10  1  0  0  0  0
  3  8  1  1  0  0  0
  4  3  1  0  0  0  0
  5 12  1  1  0  0  0
  6  1  1  0  0  0  0
  6  4  2  0  0  0  0
  7 10  1  0  0  0  0
  8  5  1  0  0  0  0
  9  6  1  0  0  0  0
 11 14  2  0  0  0  0
 13  5  1  0  0  0  0
 14  4  1  0  0  0  0
 14  7  1  0  0  0  0
 15  9  2  0  0  0  0
 15 11  1  0  0  0  0
 16 21  1  6  0  0  0
 16 17  1  0  0  0  0
 17 15  1  0  0  0  0
 18 19  2  0  0  0  0
 19 17  1  0  0  0  0
 20 18  1  0  0  0  0
 20 16  1  0  0  0  0
 21 22  1  6  0  0  0
 23 21  1  0  0  0  0
 23 26  1  0  0  0  0
 24 28  1  0  0  0  0
 25 26  1  0  0  0  0
 26 24  1  0  0  0  0
 27 24  2  0  0  0  0
M  END
>  <MODEL>
4

>  <REMARK>
 VINA RESULT:      -9.4      3.453      6.320
  Name = 
  4 active torsions:
  status: ('A' for Active; 'I' for Inactive)
    1  A    between atoms: C_1  and  C_2
    2  A    between atoms: C_2  and  C_3
    3  A    between atoms: C_3  and  N_11
    4  A    between atoms: N_16  and  C_27
                            x       y       z     vdW  Elec       q    Type
                         _______ _______ _______ _____ _____    ______ ____

>  <TORSDO>
F 4

$$$$
=
 OpenBabel10272401553D

 28 31  0  0  1  0  0  0  0  0999 V2000
  185.8360  179.0050  141.5680 C   0  0  0  0  0  2  0  0  0  0  0  0
  190.7160  176.4120  143.3810 C   0  0  0  0  0  1  0  0  0  0  0  0
  186.2640  177.7440  144.4510 C   0  0  2  0  0  3  0  0  0  0  0  0
  187.2030  177.7300  143.3110 C   0  0  0  0  0  0  0  0  0  0  0  0
  184.4220  179.3010  143.6610 C   0  0  2  0  0  3  0  0  0  0  0  0
  187.0350  178.2090  142.0030 C   0  0  0  0  0  0  0  0  0  0  0  0
  188.2500  176.8630  145.1610 C   0  0  0  0  0  2  0  0  0  0  0  0
  185.6280  179.1200  144.5940 C   0  0  0  0  0  2  0  0  0  0  0  0
  188.1070  178.0580  141.1130 C   0  0  0  0  0  3  0  0  0  0  0  0
  187.0160  177.4100  145.6070 O   0  0  0  0  0  0  0  0  0  0  0  0
  189.4440  176.9880  142.8550 C   0  0  0  0  0  0  0  0  0  0  0  0
  182.9490  178.7180  144.4690 Cl  0  0  0  0  0  0  0  0  0  0  0  0
  184.5560  178.6090  142.2990 C   0  0  0  0  0  2  0  0  0  0  0  0
  188.3580  177.1640  143.7200 C   0  0  0  0  0  0  0  0  0  0  0  0
  189.3080  177.4270  141.5100 C   0  0  0  0  0  0  0  0  0  0  0  0
  190.3700  176.3480  139.4400 C   0  0  2  0  0  3  0  0  0  0  0  0
  190.3740  177.2880  140.5520 N   0  0  0  0  0  0  0  0  0  0  0  0
  192.5200  177.2910  139.8230 C   0  0  0  0  0  3  0  0  0  0  0  0
  191.6980  177.7610  140.7420 C   0  0  0  0  0  3  0  0  0  0  0  0
  191.7870  176.4110  138.8650 C   0  0  0  0  0  2  0  0  0  0  0  0
  189.2810  176.6820  138.4090 C   0  0  2  0  0  3  0  0  0  0  0  0
  188.8640  175.5360  137.7310 O   0  0  0  0  0  1  0  0  0  0  0  0
  189.6080  177.8320  137.4460 C   0  0  0  0  0  2  0  0  0  0  0  0
  187.4930  178.3630  136.1880 C   0  0  0  0  0  0  0  0  0  0  0  0
  189.4760  177.4360  134.9840 C   0  0  0  0  0  1  0  0  0  0  0  0
  188.8100  177.7950  136.2260 N   0  0  0  0  0  0  0  0  0  0  0  0
  186.9740  179.0150  137.3000 O   0  0  0  0  0  1  0  0  0  0  0  0
  186.7980  178.2880  135.1390 O   0  0  0  0  0  0  0  0  0  0  0  0
  1  6  1  0  0  0  0
  1 13  1  0  0  0  0
  3  8  1  1  0  0  0
  3 10  1  0  0  0  0
  4 14  1  0  0  0  0
  4  3  1  0  0  0  0
  5 12  1  1  0  0  0
  5  8  1  0  0  0  0
  6  4  2  0  0  0  0
  7 10  1  0  0  0  0
  9 15  2  0  0  0  0
  9  6  1  0  0  0  0
 11  2  1  0  0  0  0
 11 14  2  0  0  0  0
 13  5  1  0  0  0  0
 14  7  1  0  0  0  0
 15 11  1  0  0  0  0
 16 21  1  6  0  0  0
 16 17  1  0  0  0  0
 17 19  1  0  0  0  0
 17 15  1  0  0  0  0
 18 19  2  0  0  0  0
 20 16  1  0  0  0  0
 20 18  1  0  0  0  0
 21 22  1  6  0  0  0
 23 21  1  0  0  0  0
 24 26  1  0  0  0  0
 24 27  1  0  0  0  0
 25 26  1  0  0  0  0
 26 23  1  0  0  0  0
 28 24  2  0  0  0  0
M  END
>  <MODEL>
5

>  <REMARK>
 VINA RESULT:      -9.3      2.636      4.680
  Name = 
  4 active torsions:
  status: ('A' for Active; 'I' for Inactive)
    1  A    between atoms: C_1  and  C_2
    2  A    between atoms: C_2  and  C_3
    3  A    between atoms: C_3  and  N_11
    4  A    between atoms: N_16  and  C_27
                            x       y       z     vdW  Elec       q    Type
                         _______ _______ _______ _____ _____    ______ ____

>  <TORSDO>
F 4

$$$$
=
 OpenBabel10272401553D

 28 31  0  0  1  0  0  0  0  0999 V2000
  187.2140  177.7410  143.2830 C   0  0  0  0  0  2  0  0  0  0  0  0
  192.0150  177.2880  140.0310 C   0  0  0  0  0  1  0  0  0  0  0  0
  190.1000  177.0140  144.3900 C   0  0  2  0  0  3  0  0  0  0  0  0
  189.7000  177.2290  142.9850 C   0  0  0  0  0  0  0  0  0  0  0  0
  188.0350  177.7110  145.6900 C   0  0  2  0  0  3  0  0  0  0  0  0
  188.4320  177.4810  142.4410 C   0  0  0  0  0  0  0  0  0  0  0  0
  191.9810  176.9890  143.0910 C   0  0  0  0  0  2  0  0  0  0  0  0
  189.4710  178.0730  145.2850 C   0  0  0  0  0  2  0  0  0  0  0  0
  188.3410  177.6420  141.0510 C   0  0  0  0  0  3  0  0  0  0  0  0
  191.5160  177.0920  144.4310 O   0  0  0  0  0  0  0  0  0  0  0  0
  190.7500  177.3080  140.8240 C   0  0  0  0  0  0  0  0  0  0  0  0
  188.0620  176.7170  147.1650 Cl  0  0  0  0  0  0  0  0  0  0  0  0
  187.2280  176.9830  144.6080 C   0  0  0  0  0  2  0  0  0  0  0  0
  190.8060  177.1640  142.2140 C   0  0  0  0  0  0  0  0  0  0  0  0
  189.4810  177.5320  140.2230 C   0  0  0  0  0  0  0  0  0  0  0  0
  190.0340  176.9060  137.7980 C   0  0  2  0  0  3  0  0  0  0  0  0
  189.3300  177.6940  138.8010 N   0  0  0  0  0  0  0  0  0  0  0  0
  188.9800  178.8250  136.8680 C   0  0  0  0  0  3  0  0  0  0  0  0
  188.7770  178.8390  138.1720 C   0  0  0  0  0  3  0  0  0  0  0  0
  189.7260  177.5950  136.4660 C   0  0  0  0  0  2  0  0  0  0  0  0
  189.6150  175.4290  137.8290 C   0  0  2  0  0  3  0  0  0  0  0  0
  190.7090  174.6030  138.0860 O   0  0  0  0  0  1  0  0  0  0  0  0
  188.8000  174.9440  136.6220 C   0  0  0  0  0  2  0  0  0  0  0  0
  186.9530  173.3620  137.2760 C   0  0  0  0  0  0  0  0  0  0  0  0
  186.5390  175.8250  137.2140 C   0  0  0  0  0  1  0  0  0  0  0  0
  187.4020  174.6850  136.9470 N   0  0  0  0  0  0  0  0  0  0  0  0
  187.8570  172.3090  137.3480 O   0  0  0  0  0  0  0  0  0  0  0  0
  185.7350  173.1460  137.5160 O   0  0  0  0  0  1  0  0  0  0  0  0
  1 13  1  0  0  0  0
  2 11  1  0  0  0  0
  3 10  1  0  0  0  0
  3  8  1  1  0  0  0
  4  3  1  0  0  0  0
  5 12  1  1  0  0  0
  6  4  1  0  0  0  0
  6  1  1  0  0  0  0
  7 10  1  0  0  0  0
  8  5  1  0  0  0  0
  9  6  2  0  0  0  0
 11 14  1  0  0  0  0
 13  5  1  0  0  0  0
 14  4  2  0  0  0  0
 14  7  1  0  0  0  0
 15 11  2  0  0  0  0
 15  9  1  0  0  0  0
 16 21  1  6  0  0  0
 16 17  1  0  0  0  0
 17 15  1  0  0  0  0
 18 19  2  0  0  0  0
 19 17  1  0  0  0  0
 20 18  1  0  0  0  0
 20 16  1  0  0  0  0
 21 22  1  6  0  0  0
 23 26  1  0  0  0  0
 23 21  1  0  0  0  0
 24 27  2  0  0  0  0
 24 28  1  0  0  0  0
 26 25  1  0  0  0  0
 26 24  1  0  0  0  0
M  END
>  <MODEL>
6

>  <REMARK>
 VINA RESULT:      -9.1      3.408      6.704
  Name = 
  4 active torsions:
  status: ('A' for Active; 'I' for Inactive)
    1  A    between atoms: C_1  and  C_2
    2  A    between atoms: C_2  and  C_3
    3  A    between atoms: C_3  and  N_11
    4  A    between atoms: N_16  and  C_27
                            x       y       z     vdW  Elec       q    Type
                         _______ _______ _______ _____ _____    ______ ____

>  <TORSDO>
F 4

$$$$
=
 OpenBabel10272401553D

 28 31  0  0  1  0  0  0  0  0999 V2000
  184.8620  178.7880  139.5630 C   0  0  0  0  0  2  0  0  0  0  0  0
  182.7230  178.7900  144.9710 C   0  0  0  0  0  1  0  0  0  0  0  0
  181.7740  178.8610  140.2990 C   0  0  2  0  0  3  0  0  0  0  0  0
  182.9210  178.7520  141.2240 C   0  0  0  0  0  0  0  0  0  0  0  0
  182.8810  179.3270  138.0630 C   0  0  2  0  0  3  0  0  0  0  0  0
  184.2910  178.6460  140.9460 C   0  0  0  0  0  0  0  0  0  0  0  0
  180.9900  179.0040  142.4410 C   0  0  0  0  0  2  0  0  0  0  0  0
  182.0600  179.9030  139.2260 C   0  0  0  0  0  2  0  0  0  0  0  0
  185.1700  178.5500  142.0350 C   0  0  0  0  0  3  0  0  0  0  0  0
  180.6500  179.2320  141.0800 O   0  0  0  0  0  0  0  0  0  0  0  0
  183.2970  178.6830  143.5970 C   0  0  0  0  0  0  0  0  0  0  0  0
  181.7880  178.6200  136.8510 Cl  0  0  0  0  0  0  0  0  0  0  0  0
  183.9240  178.2800  138.4720 C   0  0  0  0  0  2  0  0  0  0  0  0
  182.4500  178.7870  142.4880 C   0  0  0  0  0  0  0  0  0  0  0  0
  184.6920  178.5400  143.3650 C   0  0  0  0  0  0  0  0  0  0  0  0
  186.5120  177.2850  144.6660 C   0  0  2  0  0  3  0  0  0  0  0  0
  185.6350  178.4280  144.4460 N   0  0  0  0  0  0  0  0  0  0  0  0
  186.4310  178.7420  146.5450 C   0  0  0  0  0  3  0  0  0  0  0  0
  185.6070  179.2120  145.6280 C   0  0  0  0  0  3  0  0  0  0  0  0
  187.1410  177.5290  146.0400 C   0  0  0  0  0  2  0  0  0  0  0  0
  187.5470  177.1300  143.5430 C   0  0  2  0  0  3  0  0  0  0  0  0
  187.8760  175.7890  143.3450 O   0  0  0  0  0  1  0  0  0  0  0  0
  188.7950  178.0160  143.6620 C   0  0  0  0  0  2  0  0  0  0  0  0
  190.9870  177.5330  142.5210 C   0  0  0  0  0  0  0  0  0  0  0  0
  188.9760  178.1520  141.1750 C   0  0  0  0  0  1  0  0  0  0  0  0
  189.6280  177.9880  142.4650 N   0  0  0  0  0  0  0  0  0  0  0  0
  191.5210  177.0520  143.7110 O   0  0  0  0  0  1  0  0  0  0  0  0
  191.7080  177.5520  141.4870 O   0  0  0  0  0  0  0  0  0  0  0  0
  1  6  1  0  0  0  0
  3  8  1  6  0  0  0
  3 10  1  0  0  0  0
  3  4  1  0  0  0  0
  4 14  1  0  0  0  0
  5 12  1  6  0  0  0
  5 13  1  0  0  0  0
  5  8  1  0  0  0  0
  6  4  2  0  0  0  0
  6  9  1  0  0  0  0
  7 14  1  0  0  0  0
  9 15  2  0  0  0  0
 10  7  1  0  0  0  0
 11  2  1  0  0  0  0
 13  1  1  0  0  0  0
 14 11  2  0  0  0  0
 15 11  1  0  0  0  0
 15 17  1  0  0  0  0
 16 21  1  6  0  0  0
 16 20  1  0  0  0  0
 17 16  1  0  0  0  0
 17 19  1  0  0  0  0
 19 18  2  0  0  0  0
 20 18  1  0  0  0  0
 21 22  1  1  0  0  0
 21 23  1  0  0  0  0
 24 27  1  0  0  0  0
 25 26  1  0  0  0  0
 26 24  1  0  0  0  0
 26 23  1  0  0  0  0
 28 24  2  0  0  0  0
M  END
>  <MODEL>
7

>  <REMARK>
 VINA RESULT:      -8.8      2.746      4.509
  Name = 
  4 active torsions:
  status: ('A' for Active; 'I' for Inactive)
    1  A    between atoms: C_1  and  C_2
    2  A    between atoms: C_2  and  C_3
    3  A    between atoms: C_3  and  N_11
    4  A    between atoms: N_16  and  C_27
                            x       y       z     vdW  Elec       q    Type
                         _______ _______ _______ _____ _____    ______ ____

>  <TORSDO>
F 4

$$$$
=
 OpenBabel10272401553D

 28 31  0  0  1  0  0  0  0  0999 V2000
  187.3240  177.5500  142.3270 C   0  0  0  0  0  2  0  0  0  0  0  0
  181.9980  179.0170  144.1470 C   0  0  0  0  0  1  0  0  0  0  0  0
  186.5770  178.3590  145.3050 C   0  0  2  0  0  3  0  0  0  0  0  0
  185.6910  178.3470  144.1230 C   0  0  0  0  0  0  0  0  0  0  0  0
  188.6940  177.2530  144.4480 C   0  0  2  0  0  3  0  0  0  0  0  0
  185.9880  178.0670  142.7810 C   0  0  0  0  0  0  0  0  0  0  0  0
  184.4420  178.7890  145.9990 C   0  0  0  0  0  2  0  0  0  0  0  0
  187.4430  177.1070  145.3270 C   0  0  0  0  0  2  0  0  0  0  0  0
  184.9370  178.1360  141.8550 C   0  0  0  0  0  3  0  0  0  0  0  0
  185.7380  178.4150  146.4470 O   0  0  0  0  0  0  0  0  0  0  0  0
  183.3710  178.7380  143.6300 C   0  0  0  0  0  0  0  0  0  0  0  0
  190.0110  177.9800  145.3970 Cl  0  0  0  0  0  0  0  0  0  0  0  0
  188.4860  178.0700  143.1670 C   0  0  0  0  0  2  0  0  0  0  0  0
  184.4400  178.6500  144.5280 C   0  0  0  0  0  0  0  0  0  0  0  0
  183.6300  178.4960  142.2540 C   0  0  0  0  0  0  0  0  0  0  0  0
  182.5910  179.4700  140.1200 C   0  0  2  0  0  3  0  0  0  0  0  0
  182.5900  178.5630  141.2600 N   0  0  0  0  0  0  0  0  0  0  0  0
  180.4700  178.4500  140.4660 C   0  0  0  0  0  3  0  0  0  0  0  0
  181.2810  178.0420  141.4240 C   0  0  0  0  0  3  0  0  0  0  0  0
  181.1970  179.3320  139.5040 C   0  0  0  0  0  2  0  0  0  0  0  0
  183.7250  179.1510  139.1340 C   0  0  2  0  0  3  0  0  0  0  0  0
  184.4820  180.2890  138.8550 O   0  0  0  0  0  1  0  0  0  0  0  0
  183.3050  178.4130  137.8540 C   0  0  0  0  0  2  0  0  0  0  0  0
  185.0200  176.6770  137.2330 C   0  0  0  0  0  0  0  0  0  0  0  0
  183.0560  176.0580  138.6470 C   0  0  0  0  0  1  0  0  0  0  0  0
  183.7600  177.0280  137.8230 N   0  0  0  0  0  0  0  0  0  0  0  0
  185.8620  177.6630  136.7330 O   0  0  0  0  0  0  0  0  0  0  0  0
  185.3820  175.4710  137.1770 O   0  0  0  0  0  1  0  0  0  0  0  0
  1  6  1  0  0  0  0
  1 13  1  0  0  0  0
  3  8  1  1  0  0  0
  3 10  1  0  0  0  0
  4 14  1  0  0  0  0
  4  3  1  0  0  0  0
  5  8  1  0  0  0  0
  5 12  1  1  0  0  0
  6  4  2  0  0  0  0
  7 10  1  0  0  0  0
  9 15  2  0  0  0  0
  9  6  1  0  0  0  0
 11  2  1  0  0  0  0
 11 14  2  0  0  0  0
 13  5  1  0  0  0  0
 14  7  1  0  0  0  0
 15 11  1  0  0  0  0
 16 21  1  6  0  0  0
 16 17  1  0  0  0  0
 17 19  1  0  0  0  0
 17 15  1  0  0  0  0
 18 19  2  0  0  0  0
 20 16  1  0  0  0  0
 20 18  1  0  0  0  0
 21 22  1  6  0  0  0
 23 21  1  0  0  0  0
 24 26  1  0  0  0  0
 26 23  1  0  0  0  0
 26 25  1  0  0  0  0
 27 24  2  0  0  0  0
 28 24  1  0  0  0  0
M  END
>  <MODEL>
8

>  <REMARK>
 VINA RESULT:      -8.8      3.875      6.946
  Name = 
  4 active torsions:
  status: ('A' for Active; 'I' for Inactive)
    1  A    between atoms: C_1  and  C_2
    2  A    between atoms: C_2  and  C_3
    3  A    between atoms: C_3  and  N_11
    4  A    between atoms: N_16  and  C_27
                            x       y       z     vdW  Elec       q    Type
                         _______ _______ _______ _____ _____    ______ ____

>  <TORSDO>
F 4

$$$$
=
 OpenBabel10272401553D

 28 31  0  0  1  0  0  0  0  0999 V2000
  189.1170  178.4150  139.3250 C   0  0  0  0  0  2  0  0  0  0  0  0
  183.5550  178.4560  141.0260 C   0  0  0  0  0  1  0  0  0  0  0  0
  186.6300  177.8590  137.4300 C   0  0  2  0  0  3  0  0  0  0  0  0
  186.6190  178.1020  138.8870 C   0  0  0  0  0  0  0  0  0  0  0  0
  189.0350  178.3450  136.7850 C   0  0  2  0  0  3  0  0  0  0  0  0
  187.6890  178.2820  139.7760 C   0  0  0  0  0  0  0  0  0  0  0  0
  184.4570  178.0280  138.1180 C   0  0  0  0  0  2  0  0  0  0  0  0
  187.5790  178.8300  136.7410 C   0  0  0  0  0  2  0  0  0  0  0  0
  187.3830  178.4930  141.1280 C   0  0  0  0  0  3  0  0  0  0  0  0
  185.2990  178.0400  136.9730 O   0  0  0  0  0  0  0  0  0  0  0  0
  184.9940  178.3490  140.6420 C   0  0  0  0  0  0  0  0  0  0  0  0
  189.3580  177.2960  135.3850 Cl  0  0  0  0  0  0  0  0  0  0  0  0
  189.4280  177.6050  138.0690 C   0  0  0  0  0  2  0  0  0  0  0  0
  185.3340  178.1510  139.2990 C   0  0  0  0  0  0  0  0  0  0  0  0
  186.0460  178.5030  141.5850 C   0  0  0  0  0  0  0  0  0  0  0  0
  186.0410  177.7300  144.0310 C   0  0  2  0  0  3  0  0  0  0  0  0
  185.7880  178.7130  142.9850 N   0  0  0  0  0  0  0  0  0  0  0  0
  184.6960  179.5380  144.7920 C   0  0  0  0  0  3  0  0  0  0  0  0
  184.9410  179.7240  143.5080 C   0  0  0  0  0  3  0  0  0  0  0  0
  185.3990  178.3180  145.2890 C   0  0  0  0  0  2  0  0  0  0  0  0
  187.5400  177.4380  144.1930 C   0  0  2  0  0  3  0  0  0  0  0  0
  187.8560  176.1640  143.7220 O   0  0  0  0  0  1  0  0  0  0  0  0
  188.1190  177.6930  145.5920 C   0  0  0  0  0  2  0  0  0  0  0  0
  190.3560  177.0530  146.5540 C   0  0  0  0  0  0  0  0  0  0  0  0
  190.2260  178.3850  144.4450 C   0  0  0  0  0  1  0  0  0  0  0  0
  189.5750  177.7820  145.5970 N   0  0  0  0  0  0  0  0  0  0  0  0
  189.7420  176.1970  147.4610 O   0  0  0  0  0  1  0  0  0  0  0  0
  191.6110  177.1700  146.5720 O   0  0  0  0  0  0  0  0  0  0  0  0
  1  6  1  0  0  0  0
  3  8  1  6  0  0  0
  3  4  1  0  0  0  0
  4 14  2  0  0  0  0
  4  6  1  0  0  0  0
  5 12  1  6  0  0  0
  5 13  1  0  0  0  0
  6  9  2  0  0  0  0
  7 14  1  0  0  0  0
  8  5  1  0  0  0  0
  9 15  1  0  0  0  0
 10  3  1  0  0  0  0
 10  7  1  0  0  0  0
 11  2  1  0  0  0  0
 11 15  2  0  0  0  0
 13  1  1  0  0  0  0
 14 11  1  0  0  0  0
 15 17  1  0  0  0  0
 16 21  1  1  0  0  0
 16 20  1  0  0  0  0
 17 19  1  0  0  0  0
 17 16  1  0  0  0  0
 18 20  1  0  0  0  0
 19 18  2  0  0  0  0
 21 22  1  1  0  0  0
 21 23  1  0  0  0  0
 23 26  1  0  0  0  0
 24 28  2  0  0  0  0
 24 27  1  0  0  0  0
 25 26  1  0  0  0  0
 26 24  1  0  0  0  0
M  END
>  <MODEL>
9

>  <REMARK>
 VINA RESULT:      -8.6      3.390      6.523
  Name = 
  4 active torsions:
  status: ('A' for Active; 'I' for Inactive)
    1  A    between atoms: C_1  and  C_2
    2  A    between atoms: C_2  and  C_3
    3  A    between atoms: C_3  and  N_11
    4  A    between atoms: N_16  and  C_27
                            x       y       z     vdW  Elec       q    Type
                         _______ _______ _______ _____ _____    ______ ____

>  <TORSDO>
F 4

$$$$
