=
 OpenBabel10272413413D

 30 35  0  0  1  0  0  0  0  0999 V2000
  189.1410  177.3100  144.8190 C   0  0  0  0  0  0  0  0  0  0  0  0
  190.3710  177.0360  147.0220 C   0  0  1  0  0  3  0  0  0  0  0  0
  185.7680  178.4540  146.6250 C   0  0  0  0  0  2  0  0  0  0  0  0
  188.0880  177.0360  143.8970 C   0  0  0  0  0  0  0  0  0  0  0  0
  190.4090  177.6520  144.2950 C   0  0  0  0  0  3  0  0  0  0  0  0
  190.0680  177.5010  140.3340 S   0  0  0  0  0  0  0  0  0  0  0  0
  189.5990  177.3950  142.0470 C   0  0  0  0  0  0  0  0  0  0  0  0
  191.8480  177.9970  142.3070 N   0  0  0  0  0  2  0  0  0  0  0  0
  185.0680  178.6280  145.2820 C   0  0  1  0  0  3  0  0  0  0  0  0
  190.6050  177.7100  142.9170 C   0  0  0  0  0  0  0  0  0  0  0  0
  188.3330  177.0690  142.5100 C   0  0  0  0  0  3  0  0  0  0  0  0
  190.1920  177.5940  148.3580 N   0  0  0  0  0  2  0  0  0  0  0  0
  192.7360  176.8230  140.3680 C   0  0  0  0  0  1  0  0  0  0  0  0
  190.9660  175.7110  147.1130 N   0  0  0  0  0  1  0  0  0  0  0  0
  187.2040  178.9710  146.6110 C   0  0  0  0  0  2  0  0  0  0  0  0
  188.9490  178.3530  148.3490 C   0  0  2  0  0  3  0  0  0  0  0  0
  191.7900  177.9060  140.8490 C   0  0  1  0  0  3  0  0  0  0  0  0
  189.0180  176.9920  146.3130 C   0  0  1  0  0  3  0  0  0  0  0  0
  186.6670  176.8750  144.3270 C   0  0  0  0  0  2  0  0  0  0  0  0
  184.6570  179.9540  145.1370 O   0  0  0  0  0  1  0  0  0  0  0  0
  185.9420  178.2040  144.0960 C   0  0  1  0  0  3  0  0  0  0  0  0
  187.7820  177.4010  148.5600 C   0  0  0  0  0  2  0  0  0  0  0  0
  188.1310  177.8970  147.1630 C   0  0  2  0  0  0  0  0  0  0  0  0
  185.0510  179.3010  140.7160 C   0  0  2  0  0  3  0  0  0  0  0  0
  185.2140  178.2250  142.7490 C   0  0  1  0  0  3  0  0  0  0  0  0
  183.7060  177.9570  142.8930 C   0  0  0  0  0  2  0  0  0  0  0  0
  183.5650  178.9340  140.5830 C   0  0  0  0  0  2  0  0  0  0  0  0
  182.8910  178.8390  141.9490 C   0  0  0  0  0  2  0  0  0  0  0  0
  185.9300  178.3510  139.9080 C   0  0  0  0  0  1  0  0  0  0  0  0
  185.4920  179.4290  142.0590 O   0  0  0  0  0  0  0  0  0  0  0  0
  2 14  1  1  0  0  0
  2 12  1  0  0  0  0
  4 19  1  0  0  0  0
  4  1  2  0  0  0  0
  5  1  1  0  0  0  0
  6 17  1  0  0  0  0
  6  7  1  0  0  0  0
  7 11  2  0  0  0  0
  7 10  1  0  0  0  0
  8 10  1  0  0  0  0
  9 20  1  6  0  0  0
  9  3  1  0  0  0  0
 10  5  2  0  0  0  0
 11  4  1  0  0  0  0
 15  3  1  0  0  0  0
 16 12  1  0  0  0  0
 16 22  1  1  0  0  0
 17 13  1  1  0  0  0
 17  8  1  0  0  0  0
 18  1  1  6  0  0  0
 18  2  1  0  0  0  0
 18 23  1  0  0  0  0
 21 19  1  1  0  0  0
 21  9  1  0  0  0  0
 23 15  1  6  0  0  0
 23 16  1  0  0  0  0
 23 22  1  0  0  0  0
 24 29  1  1  0  0  0
 24 30  1  0  0  0  0
 25 26  1  1  0  0  0
 25 21  1  0  0  0  0
 27 24  1  0  0  0  0
 27 28  1  0  0  0  0
 28 26  1  0  0  0  0
 30 25  1  0  0  0  0
M  END
>  <MODEL>
1

>  <REMARK>
 VINA RESULT:      -9.0      0.000      0.000
  Name = 
  1 active torsions:
  status: ('A' for Active; 'I' for Inactive)
    1  A    between atoms: C_10  and  C_25
                            x       y       z     vdW  Elec       q    Type
                         _______ _______ _______ _____ _____    ______ ____

>  <TORSDO>
F 1

$$$$
=
 OpenBabel10272413413D

 30 35  0  0  1  0  0  0  0  0999 V2000
  185.8520  178.3710  142.7310 C   0  0  0  0  0  0  0  0  0  0  0  0
  185.3260  178.3780  145.2140 C   0  0  1  0  0  3  0  0  0  0  0  0
  189.5860  177.0890  143.3300 C   0  0  0  0  0  2  0  0  0  0  0  0
  186.5930  178.7640  141.5770 C   0  0  0  0  0  0  0  0  0  0  0  0
  184.4800  178.0690  142.5660 C   0  0  0  0  0  3  0  0  0  0  0  0
  183.6490  178.6650  138.7220 S   0  0  0  0  0  0  0  0  0  0  0  0
  184.6010  178.5880  140.2230 C   0  0  0  0  0  0  0  0  0  0  0  0
  182.5160  177.9230  141.0620 N   0  0  0  0  0  2  0  0  0  0  0  0
  189.8590  177.0770  141.8310 C   0  0  1  0  0  3  0  0  0  0  0  0
  183.8890  178.1610  141.3090 C   0  0  0  0  0  0  0  0  0  0  0  0
  185.9520  178.8810  140.3280 C   0  0  0  0  0  3  0  0  0  0  0  0
  185.8790  177.6780  146.3680 N   0  0  0  0  0  2  0  0  0  0  0  0
  181.1190  179.2920  139.6120 C   0  0  0  0  0  1  0  0  0  0  0  0
  184.8060  179.6750  145.6210 N   0  0  0  0  0  1  0  0  0  0  0  0
  188.2000  176.5530  143.6810 C   0  0  0  0  0  2  0  0  0  0  0  0
  187.0520  176.9450  145.9110 C   0  0  2  0  0  3  0  0  0  0  0  0
  182.1460  178.1770  139.6710 C   0  0  1  0  0  3  0  0  0  0  0  0
  186.4120  178.5230  144.1490 C   0  0  1  0  0  3  0  0  0  0  0  0
  188.0800  178.8990  141.5870 C   0  0  0  0  0  2  0  0  0  0  0  0
  190.1870  175.7820  141.4250 O   0  0  0  0  0  1  0  0  0  0  0  0
  188.6830  177.6160  141.0080 C   0  0  1  0  0  3  0  0  0  0  0  0
  188.2460  177.8870  145.8750 C   0  0  0  0  0  2  0  0  0  0  0  0
  187.4950  177.5440  144.5950 C   0  0  2  0  0  0  0  0  0  0  0  0
  188.3030  177.1590  137.3930 C   0  0  2  0  0  3  0  0  0  0  0  0
  188.9840  177.7570  139.5130 C   0  0  1  0  0  3  0  0  0  0  0  0
  190.4900  177.6840  139.2080 C   0  0  0  0  0  2  0  0  0  0  0  0
  189.7390  177.2460  136.8520 C   0  0  0  0  0  2  0  0  0  0  0  0
  190.7620  176.8950  137.9290 C   0  0  0  0  0  2  0  0  0  0  0  0
  187.5110  178.4210  137.0650 C   0  0  0  0  0  1  0  0  0  0  0  0
  188.2290  176.8190  138.7690 O   0  0  0  0  0  0  0  0  0  0  0  0
  2 14  1  1  0  0  0
  2 12  1  0  0  0  0
  3 15  1  0  0  0  0
  4 19  1  0  0  0  0
  4  1  2  0  0  0  0
  5  1  1  0  0  0  0
  6 17  1  0  0  0  0
  6  7  1  0  0  0  0
  7 11  2  0  0  0  0
  7 10  1  0  0  0  0
  8 10  1  0  0  0  0
  9 20  1  6  0  0  0
  9  3  1  0  0  0  0
 10  5  2  0  0  0  0
 11  4  1  0  0  0  0
 16 22  1  1  0  0  0
 16 12  1  0  0  0  0
 17 13  1  1  0  0  0
 17  8  1  0  0  0  0
 18  1  1  6  0  0  0
 18 23  1  0  0  0  0
 18  2  1  0  0  0  0
 21 19  1  1  0  0  0
 21  9  1  0  0  0  0
 23 15  1  6  0  0  0
 23 22  1  0  0  0  0
 23 16  1  0  0  0  0
 24 29  1  1  0  0  0
 24 30  1  0  0  0  0
 25 26  1  1  0  0  0
 25 21  1  0  0  0  0
 27 24  1  0  0  0  0
 27 28  1  0  0  0  0
 28 26  1  0  0  0  0
 30 25  1  0  0  0  0
M  END
>  <MODEL>
2

>  <REMARK>
 VINA RESULT:      -9.0      3.443      6.142
  Name = 
  1 active torsions:
  status: ('A' for Active; 'I' for Inactive)
    1  A    between atoms: C_10  and  C_25
                            x       y       z     vdW  Elec       q    Type
                         _______ _______ _______ _____ _____    ______ ____

>  <TORSDO>
F 1

$$$$
=
 OpenBabel10272413413D

 30 35  0  0  1  0  0  0  0  0999 V2000
  189.3280  177.0080  143.5600 C   0  0  0  0  0  0  0  0  0  0  0  0
  191.4930  176.4170  144.7450 C   0  0  1  0  0  3  0  0  0  0  0  0
  187.4430  177.8030  146.9880 C   0  0  0  0  0  2  0  0  0  0  0  0
  187.9350  176.8620  143.2860 C   0  0  0  0  0  0  0  0  0  0  0  0
  190.1670  177.4480  142.5090 C   0  0  0  0  0  3  0  0  0  0  0  0
  187.8330  177.9060  139.3200 S   0  0  0  0  0  0  0  0  0  0  0  0
  188.3030  177.5280  140.9930 C   0  0  0  0  0  0  0  0  0  0  0  0
  190.4020  178.1200  140.1350 N   0  0  0  0  0  2  0  0  0  0  0  0
  186.1660  178.1720  146.2410 C   0  0  1  0  0  3  0  0  0  0  0  0
  189.6320  177.7210  141.2530 C   0  0  0  0  0  0  0  0  0  0  0  0
  187.4360  177.1140  141.9930 C   0  0  0  0  0  3  0  0  0  0  0  0
  192.0610  176.7580  146.0440 N   0  0  0  0  0  2  0  0  0  0  0  0
  190.0900  177.2740  137.8740 C   0  0  0  0  0  1  0  0  0  0  0  0
  191.9600  175.1040  144.3270 N   0  0  0  0  0  1  0  0  0  0  0  0
  188.7000  178.3400  146.3080 C   0  0  0  0  0  2  0  0  0  0  0  0
  191.0430  177.4890  146.7860 C   0  0  2  0  0  3  0  0  0  0  0  0
  189.5990  178.2540  138.9220 C   0  0  1  0  0  3  0  0  0  0  0  0
  189.9680  176.4600  144.8400 C   0  0  1  0  0  3  0  0  0  0  0  0
  186.9290  176.6140  144.3610 C   0  0  0  0  0  2  0  0  0  0  0  0
  185.8280  179.4970  146.5180 O   0  0  0  0  0  1  0  0  0  0  0  0
  186.2780  177.9510  144.7280 C   0  0  1  0  0  3  0  0  0  0  0  0
  190.0890  176.4970  147.4330 C   0  0  0  0  0  2  0  0  0  0  0  0
  189.7040  177.2090  146.1430 C   0  0  2  0  0  0  0  0  0  0  0  0
  183.9890  179.2150  142.1630 C   0  0  2  0  0  3  0  0  0  0  0  0
  184.9660  178.1680  143.9700 C   0  0  1  0  0  3  0  0  0  0  0  0
  183.7670  178.3600  144.9150 C   0  0  0  0  0  2  0  0  0  0  0  0
  182.6330  179.3030  142.8810 C   0  0  0  0  0  2  0  0  0  0  0  0
  182.8120  179.4310  144.3920 C   0  0  0  0  0  2  0  0  0  0  0  0
  184.0260  178.0370  141.1940 C   0  0  0  0  0  1  0  0  0  0  0  0
  185.1040  179.2260  143.0400 O   0  0  0  0  0  0  0  0  0  0  0  0
  2 14  1  1  0  0  0
  2 18  1  0  0  0  0
  2 12  1  0  0  0  0
  4  1  1  0  0  0  0
  4 19  1  0  0  0  0
  5  1  2  0  0  0  0
  6  7  1  0  0  0  0
  7 10  2  0  0  0  0
  7 11  1  0  0  0  0
  8 10  1  0  0  0  0
  9 20  1  6  0  0  0
  9  3  1  0  0  0  0
 10  5  1  0  0  0  0
 11  4  2  0  0  0  0
 12 16  1  0  0  0  0
 15  3  1  0  0  0  0
 16 22  1  1  0  0  0
 17 13  1  6  0  0  0
 17  6  1  0  0  0  0
 17  8  1  0  0  0  0
 18  1  1  6  0  0  0
 18 23  1  0  0  0  0
 21 19  1  1  0  0  0
 21  9  1  0  0  0  0
 23 15  1  1  0  0  0
 23 16  1  0  0  0  0
 23 22  1  0  0  0  0
 24 29  1  1  0  0  0
 24 27  1  0  0  0  0
 24 30  1  0  0  0  0
 25 21  1  0  0  0  0
 25 26  1  1  0  0  0
 27 28  1  0  0  0  0
 28 26  1  0  0  0  0
 30 25  1  0  0  0  0
M  END
>  <MODEL>
3

>  <REMARK>
 VINA RESULT:      -8.9      1.632      2.135
  Name = 
  1 active torsions:
  status: ('A' for Active; 'I' for Inactive)
    1  A    between atoms: C_10  and  C_25
                            x       y       z     vdW  Elec       q    Type
                         _______ _______ _______ _____ _____    ______ ____

>  <TORSDO>
F 1

$$$$
=
 OpenBabel10272413413D

 30 35  0  0  1  0  0  0  0  0999 V2000
  187.3660  177.8850  141.3760 C   0  0  0  0  0  0  0  0  0  0  0  0
  187.1100  178.2890  138.8840 C   0  0  1  0  0  3  0  0  0  0  0  0
  191.3010  177.2880  141.0700 C   0  0  0  0  0  2  0  0  0  0  0  0
  187.7370  177.1150  142.5180 C   0  0  0  0  0  0  0  0  0  0  0  0
  186.2840  178.7890  141.5090 C   0  0  0  0  0  3  0  0  0  0  0  0
  184.9490  178.4070  145.2370 S   0  0  0  0  0  0  0  0  0  0  0  0
  185.9500  178.1230  143.7940 C   0  0  0  0  0  0  0  0  0  0  0  0
  184.4960  179.7460  142.9320 N   0  0  0  0  0  2  0  0  0  0  0  0
  191.4200  177.0730  142.5750 C   0  0  1  0  0  3  0  0  0  0  0  0
  185.6140  178.9050  142.7230 C   0  0  0  0  0  0  0  0  0  0  0  0
  187.0120  177.2340  143.7200 C   0  0  0  0  0  3  0  0  0  0  0  0
  188.0200  178.7180  137.8290 N   0  0  0  0  0  2  0  0  0  0  0  0
  182.5050  179.1090  144.1790 C   0  0  0  0  0  1  0  0  0  0  0  0
  186.0810  177.4200  138.3300 N   0  0  0  0  0  1  0  0  0  0  0  0
  190.3610  178.4360  140.7120 C   0  0  0  0  0  2  0  0  0  0  0  0
  189.3570  178.7790  138.4070 C   0  0  2  0  0  3  0  0  0  0  0  0
  183.9340  179.6070  144.2740 C   0  0  1  0  0  3  0  0  0  0  0  0
  187.9080  177.5790  139.9760 C   0  0  1  0  0  3  0  0  0  0  0  0
  188.9840  176.2950  142.5610 C   0  0  0  0  0  2  0  0  0  0  0  0
  192.2790  178.0300  143.1180 O   0  0  0  0  0  1  0  0  0  0  0  0
  190.0640  177.1010  143.2890 C   0  0  1  0  0  3  0  0  0  0  0  0
  189.9650  177.3850  138.4030 C   0  0  0  0  0  2  0  0  0  0  0  0
  189.3550  177.9580  139.6760 C   0  0  2  0  0  0  0  0  0  0  0  0
  189.8790  177.5400  146.9210 C   0  0  2  0  0  3  0  0  0  0  0  0
  190.1370  176.7380  144.7740 C   0  0  1  0  0  3  0  0  0  0  0  0
  191.3390  175.8340  145.1000 C   0  0  0  0  0  2  0  0  0  0  0  0
  190.9140  176.5450  147.4710 C   0  0  0  0  0  2  0  0  0  0  0  0
  191.9820  176.2210  146.4300 C   0  0  0  0  0  2  0  0  0  0  0  0
  188.4560  177.0450  147.1580 C   0  0  0  0  0  1  0  0  0  0  0  0
  190.1020  177.9090  145.5690 O   0  0  0  0  0  0  0  0  0  0  0  0
  1  5  2  0  0  0  0
  1  4  1  0  0  0  0
  2 14  1  6  0  0  0
  2 18  1  0  0  0  0
  3  9  1  0  0  0  0
  4 19  1  0  0  0  0
  4 11  2  0  0  0  0
  5 10  1  0  0  0  0
  7  6  1  0  0  0  0
  8 17  1  0  0  0  0
  9 20  1  1  0  0  0
  9 21  1  0  0  0  0
 10  8  1  0  0  0  0
 10  7  2  0  0  0  0
 11  7  1  0  0  0  0
 12 16  1  0  0  0  0
 12  2  1  0  0  0  0
 15  3  1  0  0  0  0
 16 22  1  6  0  0  0
 16 23  1  0  0  0  0
 17 13  1  6  0  0  0
 17  6  1  0  0  0  0
 18  1  1  1  0  0  0
 21 19  1  6  0  0  0
 21 25  1  0  0  0  0
 23 22  1  6  0  0  0
 23 18  1  0  0  0  0
 23 15  1  0  0  0  0
 24 29  1  6  0  0  0
 24 27  1  0  0  0  0
 25 26  1  6  0  0  0
 25 30  1  0  0  0  0
 26 28  1  0  0  0  0
 28 27  1  0  0  0  0
 30 24  1  0  0  0  0
M  END
>  <MODEL>
4

>  <REMARK>
 VINA RESULT:      -8.4      3.453      7.600
  Name = 
  1 active torsions:
  status: ('A' for Active; 'I' for Inactive)
    1  A    between atoms: C_10  and  C_25
                            x       y       z     vdW  Elec       q    Type
                         _______ _______ _______ _____ _____    ______ ____

>  <TORSDO>
F 1

$$$$
=
 OpenBabel10272413413D

 30 35  0  0  1  0  0  0  0  0999 V2000
  188.1690  177.4040  141.1800 C   0  0  0  0  0  0  0  0  0  0  0  0
  188.7570  177.3050  138.7130 C   0  0  1  0  0  3  0  0  0  0  0  0
  191.9830  177.0340  142.3000 C   0  0  0  0  0  2  0  0  0  0  0  0
  188.1400  176.8950  142.5120 C   0  0  0  0  0  0  0  0  0  0  0  0
  187.1040  178.2390  140.7660 C   0  0  0  0  0  3  0  0  0  0  0  0
  184.6040  178.4860  143.8520 S   0  0  0  0  0  0  0  0  0  0  0  0
  186.0290  178.0010  142.9030 C   0  0  0  0  0  0  0  0  0  0  0  0
  184.9420  179.3250  141.3040 N   0  0  0  0  0  2  0  0  0  0  0  0
  191.5950  177.1190  143.7720 C   0  0  1  0  0  3  0  0  0  0  0  0
  186.0670  178.5390  141.6460 C   0  0  0  0  0  0  0  0  0  0  0  0
  187.0560  177.1910  143.3620 C   0  0  0  0  0  3  0  0  0  0  0  0
  189.9660  177.5860  137.9480 N   0  0  0  0  0  2  0  0  0  0  0  0
  182.6500  178.8010  141.9370 C   0  0  0  0  0  1  0  0  0  0  0  0
  187.9730  176.2770  138.0440 N   0  0  0  0  0  1  0  0  0  0  0  0
  191.2140  178.0250  141.4300 C   0  0  0  0  0  2  0  0  0  0  0  0
  191.0340  177.8490  138.9040 C   0  0  2  0  0  3  0  0  0  0  0  0
  183.9660  179.4070  142.3880 C   0  0  1  0  0  3  0  0  0  0  0  0
  189.1470  176.8740  140.1260 C   0  0  1  0  0  3  0  0  0  0  0  0
  189.3040  176.1870  143.1240 C   0  0  0  0  0  2  0  0  0  0  0  0
  192.2220  178.2200  144.3580 O   0  0  0  0  0  1  0  0  0  0  0  0
  190.0790  177.1890  143.9840 C   0  0  1  0  0  3  0  0  0  0  0  0
  191.6110  176.5260  139.3830 C   0  0  0  0  0  2  0  0  0  0  0  0
  190.6110  177.2880  140.2430 C   0  0  2  0  0  0  0  0  0  0  0  0
  188.5840  178.2550  147.1540 C   0  0  2  0  0  3  0  0  0  0  0  0
  189.6540  177.1230  145.4530 C   0  0  1  0  0  3  0  0  0  0  0  0
  190.7380  176.5030  146.3510 C   0  0  0  0  0  2  0  0  0  0  0  0
  189.4410  177.5600  148.2240 C   0  0  0  0  0  2  0  0  0  0  0  0
  190.8320  177.2270  147.6920 C   0  0  0  0  0  2  0  0  0  0  0  0
  187.2180  177.5880  147.0210 C   0  0  0  0  0  1  0  0  0  0  0  0
  189.2360  178.3990  145.9020 O   0  0  0  0  0  0  0  0  0  0  0  0
  1  4  1  0  0  0  0
  2 14  1  6  0  0  0
  2 18  1  0  0  0  0
  3  9  1  0  0  0  0
  4 19  1  0  0  0  0
  4 11  2  0  0  0  0
  5  1  2  0  0  0  0
  5 10  1  0  0  0  0
  7 11  1  0  0  0  0
  7  6  1  0  0  0  0
  8 10  1  0  0  0  0
  8 17  1  0  0  0  0
  9 21  1  0  0  0  0
  9 20  1  6  0  0  0
 10  7  2  0  0  0  0
 12  2  1  0  0  0  0
 12 16  1  0  0  0  0
 15  3  1  0  0  0  0
 16 22  1  6  0  0  0
 16 23  1  0  0  0  0
 17 13  1  6  0  0  0
 17  6  1  0  0  0  0
 18 23  1  0  0  0  0
 18  1  1  1  0  0  0
 21 19  1  6  0  0  0
 21 25  1  0  0  0  0
 23 22  1  1  0  0  0
 23 15  1  0  0  0  0
 24 29  1  6  0  0  0
 24 27  1  0  0  0  0
 25 30  1  0  0  0  0
 25 26  1  1  0  0  0
 26 28  1  0  0  0  0
 28 27  1  0  0  0  0
 30 24  1  0  0  0  0
M  END
>  <MODEL>
5

>  <REMARK>
 VINA RESULT:      -8.2      3.286      7.224
  Name = 
  1 active torsions:
  status: ('A' for Active; 'I' for Inactive)
    1  A    between atoms: C_10  and  C_25
                            x       y       z     vdW  Elec       q    Type
                         _______ _______ _______ _____ _____    ______ ____

>  <TORSDO>
F 1

$$$$
=
 OpenBabel10272413413D

 30 35  0  0  1  0  0  0  0  0999 V2000
  188.4820  178.1790  141.9740 C   0  0  0  0  0  0  0  0  0  0  0  0
  190.3650  178.1080  143.6740 C   0  0  1  0  0  3  0  0  0  0  0  0
  190.7700  176.6360  139.0900 C   0  0  0  0  0  2  0  0  0  0  0  0
  187.8820  178.5750  140.7420 C   0  0  0  0  0  0  0  0  0  0  0  0
  187.6340  177.9720  143.0880 C   0  0  0  0  0  3  0  0  0  0  0  0
  183.9400  178.7920  141.8580 S   0  0  0  0  0  0  0  0  0  0  0  0
  185.7060  178.5880  141.7910 C   0  0  0  0  0  0  0  0  0  0  0  0
  185.3440  178.0200  144.0350 N   0  0  0  0  0  2  0  0  0  0  0  0
  189.6100  176.6730  138.1020 C   0  0  1  0  0  3  0  0  0  0  0  0
  186.2590  178.1590  142.9660 C   0  0  0  0  0  0  0  0  0  0  0  0
  186.4920  178.7880  140.6660 C   0  0  0  0  0  3  0  0  0  0  0  0
  191.5880  177.3240  143.7980 N   0  0  0  0  0  2  0  0  0  0  0  0
  183.4920  179.5380  144.4710 C   0  0  0  0  0  1  0  0  0  0  0  0
  190.5490  179.4160  144.2860 N   0  0  0  0  0  1  0  0  0  0  0  0
  190.3450  176.1740  140.4810 C   0  0  0  0  0  2  0  0  0  0  0  0
  191.7260  176.5380  142.5790 C   0  0  2  0  0  3  0  0  0  0  0  0
  183.9760  178.3590  143.6490 C   0  0  1  0  0  3  0  0  0  0  0  0
  189.9970  178.2310  142.1970 C   0  0  1  0  0  3  0  0  0  0  0  0
  188.6420  178.6140  139.4570 C   0  0  0  0  0  2  0  0  0  0  0  0
  189.3320  175.3800  137.6570 O   0  0  0  0  0  1  0  0  0  0  0  0
  188.3510  177.3230  138.6870 C   0  0  1  0  0  3  0  0  0  0  0  0
  192.3570  177.4030  141.4980 C   0  0  0  0  0  2  0  0  0  0  0  0
  190.8530  177.1660  141.5170 C   0  0  2  0  0  0  0  0  0  0  0  0
  185.3430  176.5420  136.7480 C   0  0  2  0  0  3  0  0  0  0  0  0
  187.2200  177.5110  137.6730 C   0  0  1  0  0  3  0  0  0  0  0  0
  187.7050  178.1640  136.3670 C   0  0  0  0  0  2  0  0  0  0  0  0
  185.5500  177.2880  135.4200 C   0  0  0  0  0  2  0  0  0  0  0  0
  187.0300  177.5390  135.1480 C   0  0  0  0  0  2  0  0  0  0  0  0
  184.3000  177.2380  137.6170 C   0  0  0  0  0  1  0  0  0  0  0  0
  186.5460  176.2850  137.4540 O   0  0  0  0  0  0  0  0  0  0  0  0
  1  5  1  0  0  0  0
  2 12  1  0  0  0  0
  2 14  1  6  0  0  0
  3 15  1  0  0  0  0
  4  1  2  0  0  0  0
  6 17  1  0  0  0  0
  7  6  1  0  0  0  0
  7 10  1  0  0  0  0
  9 20  1  1  0  0  0
  9 21  1  0  0  0  0
  9  3  1  0  0  0  0
 10  5  2  0  0  0  0
 10  8  1  0  0  0  0
 11  4  1  0  0  0  0
 11  7  2  0  0  0  0
 16 22  1  6  0  0  0
 16 12  1  0  0  0  0
 17  8  1  0  0  0  0
 17 13  1  1  0  0  0
 18  1  1  1  0  0  0
 18  2  1  0  0  0  0
 19  4  1  0  0  0  0
 21 19  1  6  0  0  0
 22 23  1  0  0  0  0
 23 15  1  6  0  0  0
 23 18  1  0  0  0  0
 23 16  1  0  0  0  0
 24 30  1  0  0  0  0
 24 29  1  1  0  0  0
 25 26  1  6  0  0  0
 25 21  1  0  0  0  0
 27 24  1  0  0  0  0
 28 27  1  0  0  0  0
 28 26  1  0  0  0  0
 30 25  1  0  0  0  0
M  END
>  <MODEL>
6

>  <REMARK>
 VINA RESULT:      -7.7      3.371      6.343
  Name = 
  1 active torsions:
  status: ('A' for Active; 'I' for Inactive)
    1  A    between atoms: C_10  and  C_25
                            x       y       z     vdW  Elec       q    Type
                         _______ _______ _______ _____ _____    ______ ____

>  <TORSDO>
F 1

$$$$
=
 OpenBabel10272413413D

 30 35  0  0  1  0  0  0  0  0999 V2000
  186.4050  178.5230  140.3310 C   0  0  0  0  0  0  0  0  0  0  0  0
  184.0430  179.1750  139.6680 C   0  0  1  0  0  3  0  0  0  0  0  0
  185.4580  178.2810  144.2020 C   0  0  0  0  0  2  0  0  0  0  0  0
  187.6280  178.6910  141.0460 C   0  0  0  0  0  0  0  0  0  0  0  0
  186.4620  177.9090  139.0570 C   0  0  0  0  0  3  0  0  0  0  0  0
  190.2980  177.1270  138.3530 S   0  0  0  0  0  0  0  0  0  0  0  0
  188.8520  177.7070  139.2110 C   0  0  0  0  0  0  0  0  0  0  0  0
  187.8380  176.9130  137.2530 N   0  0  0  0  0  2  0  0  0  0  0  0
  186.8820  177.8710  144.5600 C   0  0  1  0  0  3  0  0  0  0  0  0
  187.6830  177.4920  138.5340 C   0  0  0  0  0  0  0  0  0  0  0  0
  188.8490  178.2890  140.4690 C   0  0  0  0  0  3  0  0  0  0  0  0
  182.7330  178.9870  140.2790 N   0  0  0  0  0  2  0  0  0  0  0  0
  189.6330  177.4590  135.7010 C   0  0  0  0  0  1  0  0  0  0  0  0
  184.0540  180.3970  138.8790 N   0  0  0  0  0  1  0  0  0  0  0  0
  184.9520  177.6040  142.9310 C   0  0  0  0  0  2  0  0  0  0  0  0
  182.9470  178.4080  141.5990 C   0  0  2  0  0  3  0  0  0  0  0  0
  189.2370  176.6510  136.9230 C   0  0  1  0  0  3  0  0  0  0  0  0
  185.1060  179.2100  140.7650 C   0  0  1  0  0  3  0  0  0  0  0  0
  187.6670  179.1260  142.4740 C   0  0  0  0  0  2  0  0  0  0  0  0
  186.8690  176.6110  145.1600 O   0  0  0  0  0  1  0  0  0  0  0  0
  187.8250  177.8810  143.3520 C   0  0  1  0  0  3  0  0  0  0  0  0
  183.2780  179.5190  142.5830 C   0  0  0  0  0  2  0  0  0  0  0  0
  184.3850  178.6570  141.9910 C   0  0  2  0  0  0  0  0  0  0  0  0
  191.0590  176.1610  143.4480 C   0  0  2  0  0  3  0  0  0  0  0  0
  189.2920  177.6200  143.7070 C   0  0  1  0  0  3  0  0  0  0  0  0
  189.6160  177.9850  145.1660 C   0  0  0  0  0  2  0  0  0  0  0  0
  191.6570  176.5650  144.8050 C   0  0  0  0  0  2  0  0  0  0  0  0
  190.5680  176.9690  145.7950 C   0  0  0  0  0  2  0  0  0  0  0  0
  191.7570  176.8830  142.2990 C   0  0  0  0  0  1  0  0  0  0  0  0
  189.6470  176.2890  143.3830 O   0  0  0  0  0  0  0  0  0  0  0  0
  1  4  1  0  0  0  0
  2 14  1  1  0  0  0
  2 12  1  0  0  0  0
  2 18  1  0  0  0  0
  3  9  1  0  0  0  0
  4 19  1  0  0  0  0
  5  1  2  0  0  0  0
  6  7  1  0  0  0  0
  7 11  1  0  0  0  0
  8 10  1  0  0  0  0
  9 20  1  6  0  0  0
 10  5  1  0  0  0  0
 10  7  2  0  0  0  0
 11  4  2  0  0  0  0
 12 16  1  0  0  0  0
 15  3  1  0  0  0  0
 16 23  1  0  0  0  0
 16 22  1  1  0  0  0
 17 13  1  6  0  0  0
 17  8  1  0  0  0  0
 17  6  1  0  0  0  0
 18  1  1  6  0  0  0
 18 23  1  0  0  0  0
 21 19  1  1  0  0  0
 21 25  1  0  0  0  0
 21  9  1  0  0  0  0
 23 22  1  1  0  0  0
 23 15  1  0  0  0  0
 24 29  1  6  0  0  0
 24 27  1  0  0  0  0
 25 26  1  1  0  0  0
 26 28  1  0  0  0  0
 27 28  1  0  0  0  0
 30 24  1  0  0  0  0
 30 25  1  0  0  0  0
M  END
>  <MODEL>
7

>  <REMARK>
 VINA RESULT:      -7.7      3.589      6.404
  Name = 
  1 active torsions:
  status: ('A' for Active; 'I' for Inactive)
    1  A    between atoms: C_10  and  C_25
                            x       y       z     vdW  Elec       q    Type
                         _______ _______ _______ _____ _____    ______ ____

>  <TORSDO>
F 1

$$$$
=
 OpenBabel10272413413D

 30 35  0  0  1  0  0  0  0  0999 V2000
  187.2970  178.2500  144.2470 C   0  0  0  0  0  0  0  0  0  0  0  0
  186.5270  178.3540  146.6630 C   0  0  1  0  0  3  0  0  0  0  0  0
  190.9190  176.9110  145.2570 C   0  0  0  0  0  2  0  0  0  0  0  0
  188.1580  178.5870  143.1600 C   0  0  0  0  0  0  0  0  0  0  0  0
  185.9400  177.9720  143.9550 C   0  0  0  0  0  3  0  0  0  0  0  0
  185.5100  178.4530  140.0300 S   0  0  0  0  0  0  0  0  0  0  0  0
  186.3060  178.4080  141.6200 C   0  0  0  0  0  0  0  0  0  0  0  0
  184.1320  177.8170  142.2670 N   0  0  0  0  0  2  0  0  0  0  0  0
  191.3400  176.8410  143.7930 C   0  0  1  0  0  3  0  0  0  0  0  0
  185.4790  178.0340  142.6430 C   0  0  0  0  0  0  0  0  0  0  0  0
  187.6460  178.6750  141.8510 C   0  0  0  0  0  3  0  0  0  0  0  0
  186.9450  177.6830  147.8880 N   0  0  0  0  0  2  0  0  0  0  0  0
  182.9200  179.1630  140.6420 C   0  0  0  0  0  1  0  0  0  0  0  0
  186.0010  179.6750  146.9740 N   0  0  0  0  0  1  0  0  0  0  0  0
  189.4930  176.4170  145.4840 C   0  0  0  0  0  2  0  0  0  0  0  0
  188.1400  176.9090  147.5740 C   0  0  2  0  0  3  0  0  0  0  0  0
  183.9080  178.0300  140.8390 C   0  0  1  0  0  3  0  0  0  0  0  0
  187.7170  178.4390  145.7080 C   0  0  1  0  0  3  0  0  0  0  0  0
  189.6390  178.6910  143.3150 C   0  0  0  0  0  2  0  0  0  0  0  0
  191.6740  175.5260  143.4640 O   0  0  0  0  0  1  0  0  0  0  0  0
  190.2650  177.3760  142.8400 C   0  0  1  0  0  3  0  0  0  0  0  0
  189.3540  177.8240  147.6280 C   0  0  0  0  0  2  0  0  0  0  0  0
  188.7250  177.4530  146.2910 C   0  0  2  0  0  0  0  0  0  0  0  0
  190.4660  176.5410  139.2790 C   0  0  2  0  0  3  0  0  0  0  0  0
  190.7160  177.4590  141.3790 C   0  0  1  0  0  3  0  0  0  0  0  0
  192.2260  177.7200  141.2450 C   0  0  0  0  0  2  0  0  0  0  0  0
  191.9020  176.9210  138.8860 C   0  0  0  0  0  2  0  0  0  0  0  0
  192.8310  176.9140  140.0970 C   0  0  0  0  0  2  0  0  0  0  0  0
  189.4580  177.5480  138.7310 C   0  0  0  0  0  1  0  0  0  0  0  0
  190.2940  176.3110  140.6680 O   0  0  0  0  0  0  0  0  0  0  0  0
  2 14  1  1  0  0  0
  2 12  1  0  0  0  0
  3 15  1  0  0  0  0
  4 19  1  0  0  0  0
  4  1  2  0  0  0  0
  5  1  1  0  0  0  0
  6 17  1  0  0  0  0
  6  7  1  0  0  0  0
  7 11  2  0  0  0  0
  7 10  1  0  0  0  0
  8 10  1  0  0  0  0
  9 20  1  6  0  0  0
  9  3  1  0  0  0  0
 10  5  2  0  0  0  0
 11  4  1  0  0  0  0
 16 22  1  1  0  0  0
 16 12  1  0  0  0  0
 17 13  1  1  0  0  0
 17  8  1  0  0  0  0
 18  1  1  6  0  0  0
 18 23  1  0  0  0  0
 18  2  1  0  0  0  0
 21 19  1  1  0  0  0
 21  9  1  0  0  0  0
 23 15  1  6  0  0  0
 23 16  1  0  0  0  0
 23 22  1  0  0  0  0
 24 29  1  1  0  0  0
 24 30  1  0  0  0  0
 25 26  1  1  0  0  0
 25 21  1  0  0  0  0
 27 24  1  0  0  0  0
 27 28  1  0  0  0  0
 28 26  1  0  0  0  0
 30 25  1  0  0  0  0
M  END
>  <MODEL>
8

>  <REMARK>
 VINA RESULT:      -7.7      2.892      5.681
  Name = 
  1 active torsions:
  status: ('A' for Active; 'I' for Inactive)
    1  A    between atoms: C_10  and  C_25
                            x       y       z     vdW  Elec       q    Type
                         _______ _______ _______ _____ _____    ______ ____

>  <TORSDO>
F 1

$$$$
=
 OpenBabel10272413413D

 30 35  0  0  1  0  0  0  0  0999 V2000
  188.0420  178.0500  143.1460 C   0  0  0  0  0  0  0  0  0  0  0  0
  189.3100  177.5950  145.2970 C   0  0  1  0  0  3  0  0  0  0  0  0
  191.0290  176.6940  140.8710 C   0  0  0  0  0  2  0  0  0  0  0  0
  187.8660  178.6530  141.8650 C   0  0  0  0  0  0  0  0  0  0  0  0
  186.8850  177.7780  143.9150 C   0  0  0  0  0  3  0  0  0  0  0  0
  183.7860  179.0750  141.7840 S   0  0  0  0  0  0  0  0  0  0  0  0
  185.4770  178.7240  142.2120 C   0  0  0  0  0  0  0  0  0  0  0  0
  184.4210  177.9070  144.1380 N   0  0  0  0  0  2  0  0  0  0  0  0
  190.2300  176.9610  139.6010 C   0  0  1  0  0  3  0  0  0  0  0  0
  185.6240  178.1010  143.4200 C   0  0  0  0  0  0  0  0  0  0  0  0
  186.5770  178.9970  141.4140 C   0  0  0  0  0  3  0  0  0  0  0  0
  190.3990  176.6950  145.6580 N   0  0  0  0  0  2  0  0  0  0  0  0
  182.5950  179.5150  144.2270 C   0  0  0  0  0  1  0  0  0  0  0  0
  189.3580  178.7910  146.1230 N   0  0  0  0  0  1  0  0  0  0  0  0
  190.1780  176.0970  141.9890 C   0  0  0  0  0  2  0  0  0  0  0  0
  190.8670  176.0640  144.4310 C   0  0  2  0  0  3  0  0  0  0  0  0
  183.2530  178.4130  143.4190 C   0  0  1  0  0  3  0  0  0  0  0  0
  189.4170  177.9390  143.8120 C   0  0  1  0  0  3  0  0  0  0  0  0
  188.9830  178.7890  140.8840 C   0  0  0  0  0  2  0  0  0  0  0  0
  190.0420  175.7650  138.9060 O   0  0  0  0  0  1  0  0  0  0  0  0
  188.8830  177.6390  139.8780 C   0  0  1  0  0  3  0  0  0  0  0  0
  191.8370  177.0000  143.7280 C   0  0  0  0  0  2  0  0  0  0  0  0
  190.3900  176.8980  143.2650 C   0  0  2  0  0  0  0  0  0  0  0  0
  186.4940  177.4330  137.1080 C   0  0  2  0  0  3  0  0  0  0  0  0
  188.1260  178.0560  138.6140 C   0  0  1  0  0  3  0  0  0  0  0  0
  189.0440  178.7140  137.5700 C   0  0  0  0  0  2  0  0  0  0  0  0
  187.1660  178.2260  135.9760 C   0  0  0  0  0  2  0  0  0  0  0  0
  188.6810  178.2740  136.1530 C   0  0  0  0  0  2  0  0  0  0  0  0
  185.3370  178.2170  137.7200 C   0  0  0  0  0  1  0  0  0  0  0  0
  187.4010  176.9580  138.0910 O   0  0  0  0  0  0  0  0  0  0  0  0
  1  5  1  0  0  0  0
  2 12  1  0  0  0  0
  2 14  1  1  0  0  0
  3 15  1  0  0  0  0
  4  1  2  0  0  0  0
  6  7  1  0  0  0  0
  6 17  1  0  0  0  0
  7 10  1  0  0  0  0
  9 20  1  1  0  0  0
  9 21  1  0  0  0  0
  9  3  1  0  0  0  0
 10  5  2  0  0  0  0
 10  8  1  0  0  0  0
 11  4  1  0  0  0  0
 11  7  2  0  0  0  0
 16 22  1  1  0  0  0
 16 12  1  0  0  0  0
 17  8  1  0  0  0  0
 17 13  1  1  0  0  0
 18  1  1  6  0  0  0
 18  2  1  0  0  0  0
 19  4  1  0  0  0  0
 21 19  1  1  0  0  0
 23 15  1  6  0  0  0
 23 22  1  0  0  0  0
 23 18  1  0  0  0  0
 23 16  1  0  0  0  0
 24 29  1  1  0  0  0
 24 30  1  0  0  0  0
 25 26  1  6  0  0  0
 25 21  1  0  0  0  0
 27 28  1  0  0  0  0
 27 24  1  0  0  0  0
 28 26  1  0  0  0  0
 30 25  1  0  0  0  0
M  END
>  <MODEL>
9

>  <REMARK>
 VINA RESULT:      -7.2      3.118      5.868
  Name = 
  1 active torsions:
  status: ('A' for Active; 'I' for Inactive)
    1  A    between atoms: C_10  and  C_25
                            x       y       z     vdW  Elec       q    Type
                         _______ _______ _______ _____ _____    ______ ____

>  <TORSDO>
F 1

$$$$
