=
 OpenBabel10272413493D

 30 34  0  0  1  0  0  0  0  0999 V2000
  186.2620  178.2400  144.6760 C   0  0  0  0  0  0  0  0  0  0  0  0
  186.6090  178.3080  147.2030 C   0  0  0  0  0  0  0  0  0  0  0  0
  190.2920  177.0450  144.2530 O   0  0  0  0  0  0  0  0  0  0  0  0
  186.7870  178.0080  143.3830 C   0  0  0  0  0  0  0  0  0  0  0  0
  184.8890  178.8440  144.8270 C   0  0  0  0  0  2  0  0  0  0  0  0
  183.7890  178.7930  141.2730 O   0  0  0  0  0  1  0  0  0  0  0  0
  188.2830  178.6140  141.0370 C   0  0  2  0  0  3  0  0  0  0  0  0
  184.6470  179.0080  142.3550 C   0  0  1  0  0  3  0  0  0  0  0  0
  189.9630  176.6920  141.6400 C   0  0  2  0  0  3  0  0  0  0  0  0
  190.8040  175.9040  143.5630 C   0  0  0  0  0  2  0  0  0  0  0  0
  183.9790  178.5470  143.6460 C   0  0  2  0  0  3  0  0  0  0  0  0
  185.9540  178.2430  142.1260 C   0  0  1  0  0  3  0  0  0  0  0  0
  187.5880  178.4040  148.2900 C   0  0  0  0  0  3  0  0  0  0  0  0
  188.9540  178.7480  139.6750 C   0  0  0  0  0  1  0  0  0  0  0  0
  185.3910  178.4740  147.4740 O   0  0  0  0  0  0  0  0  0  0  0  0
  188.9310  177.3690  144.3620 C   0  0  0  0  0  0  0  0  0  0  0  0
  188.8470  178.0180  148.1090 C   0  0  0  0  0  3  0  0  0  0  0  0
  187.0790  178.0380  145.8140 C   0  0  0  0  0  0  0  0  0  0  0  0
  188.0970  177.5090  143.2250 C   0  0  0  0  0  0  0  0  0  0  0  0
  190.0250  175.5560  142.4550 O   0  0  0  0  0  0  0  0  0  0  0  0
  188.5640  177.3040  141.7920 C   0  0  1  0  0  3  0  0  0  0  0  0
  186.2310  178.4170  139.7540 O   0  0  0  0  0  1  0  0  0  0  0  0
  189.3140  177.3760  146.8340 C   0  0  0  0  0  2  0  0  0  0  0  0
  188.4200  177.6330  145.6420 C   0  0  0  0  0  0  0  0  0  0  0  0
  186.7590  178.8750  140.9640 C   0  0  2  0  0  3  0  0  0  0  0  0
  190.1870  176.3020  140.3170 O   0  0  0  0  0  0  0  0  0  0  0  0
  191.4530  176.8010  140.0040 C   0  0  0  0  0  1  0  0  0  0  0  0
  182.5930  179.1720  143.8510 C   0  0  0  0  0  2  0  0  0  0  0  0
  180.1290  178.8250  144.0930 C   0  0  0  0  0  1  0  0  0  0  0  0
  181.4490  178.1700  143.7330 C   0  0  0  0  0  2  0  0  0  0  0  0
  1  5  1  0  0  0  0
  1 18  1  0  0  0  0
  2 15  2  0  0  0  0
  2 13  1  0  0  0  0
  3 16  1  0  0  0  0
  4  1  2  0  0  0  0
  7 14  1  6  0  0  0
  7 21  1  0  0  0  0
  8  6  1  6  0  0  0
  8 11  1  0  0  0  0
  9 26  1  6  0  0  0
  9 21  1  0  0  0  0
  9 20  1  0  0  0  0
 10  3  1  0  0  0  0
 11 28  1  1  0  0  0
 11  5  1  0  0  0  0
 12  8  1  0  0  0  0
 12  4  1  1  0  0  0
 16 24  1  0  0  0  0
 17 13  2  0  0  0  0
 18  2  1  0  0  0  0
 19  4  1  0  0  0  0
 19 16  2  0  0  0  0
 20 10  1  0  0  0  0
 21 19  1  1  0  0  0
 23 17  1  0  0  0  0
 24 18  2  0  0  0  0
 24 23  1  0  0  0  0
 25 22  1  6  0  0  0
 25  7  1  0  0  0  0
 25 12  1  0  0  0  0
 27 26  1  0  0  0  0
 30 28  1  0  0  0  0
 30 29  1  0  0  0  0
M  END
>  <MODEL>
1

>  <REMARK>
 VINA RESULT:     -11.3      0.000      0.000
  Name = 
  3 active torsions:
  status: ('A' for Active; 'I' for Inactive)
    1  A    between atoms: C_9  and  C_12
    2  A    between atoms: C_9  and  C_21
    3  A    between atoms: C_10  and  O_15
                            x       y       z     vdW  Elec       q    Type
                         _______ _______ _______ _____ _____    ______ ____

>  <TORSDO>
F 3

$$$$
=
 OpenBabel10272413493D

 30 34  0  0  1  0  0  0  0  0999 V2000
  186.7820  178.1330  142.6450 C   0  0  0  0  0  0  0  0  0  0  0  0
  184.3410  178.5050  143.2900 C   0  0  0  0  0  0  0  0  0  0  0  0
  187.7490  178.0340  146.7570 O   0  0  0  0  0  0  0  0  0  0  0  0
  188.1270  177.9420  143.0400 C   0  0  0  0  0  0  0  0  0  0  0  0
  186.4550  178.3560  141.1920 C   0  0  0  0  0  2  0  0  0  0  0  0
  189.7980  177.7120  139.6910 O   0  0  0  0  0  1  0  0  0  0  0  0
  190.6950  178.7280  143.9870 C   0  0  2  0  0  3  0  0  0  0  0  0
  188.8680  178.2410  140.5910 C   0  0  1  0  0  3  0  0  0  0  0  0
  190.2650  177.3860  146.1990 C   0  0  2  0  0  3  0  0  0  0  0  0
  188.4560  177.0180  147.4710 C   0  0  0  0  0  2  0  0  0  0  0  0
  187.4710  177.7270  140.2530 C   0  0  2  0  0  3  0  0  0  0  0  0
  189.2550  177.8380  142.0170 C   0  0  1  0  0  3  0  0  0  0  0  0
  183.4180  178.9510  144.3380 C   0  0  0  0  0  3  0  0  0  0  0  0
  192.1470  178.9220  144.4090 C   0  0  0  0  0  1  0  0  0  0  0  0
  183.8990  178.3600  142.1200 O   0  0  0  0  0  0  0  0  0  0  0  0
  187.4520  177.9880  145.3860 C   0  0  0  0  0  0  0  0  0  0  0  0
  183.7680  178.9040  145.6190 C   0  0  0  0  0  3  0  0  0  0  0  0
  185.7720  178.2540  143.6290 C   0  0  0  0  0  0  0  0  0  0  0  0
  188.4570  177.8020  144.4040 C   0  0  0  0  0  0  0  0  0  0  0  0
  189.4190  176.3810  146.6800 O   0  0  0  0  0  0  0  0  0  0  0  0
  189.9330  177.6100  144.7180 C   0  0  1  0  0  3  0  0  0  0  0  0
  191.6470  177.8790  141.9210 O   0  0  0  0  0  1  0  0  0  0  0  0
  185.0680  178.3060  146.0740 C   0  0  0  0  0  2  0  0  0  0  0  0
  186.1240  178.2120  144.9950 C   0  0  0  0  0  0  0  0  0  0  0  0
  190.5510  178.5630  142.4550 C   0  0  2  0  0  3  0  0  0  0  0  0
  191.5880  176.9610  146.3470 O   0  0  0  0  0  0  0  0  0  0  0  0
  191.5650  176.0830  147.4320 C   0  0  0  0  0  1  0  0  0  0  0  0
  187.0910  177.9720  138.7870 C   0  0  0  0  0  2  0  0  0  0  0  0
  184.9630  177.3770  137.6160 C   0  0  0  0  0  1  0  0  0  0  0  0
  185.6220  178.3340  138.5910 C   0  0  0  0  0  2  0  0  0  0  0  0
  1  4  2  0  0  0  0
  1 18  1  0  0  0  0
  2 18  1  0  0  0  0
  2 13  1  0  0  0  0
  3 10  1  0  0  0  0
  4 19  1  0  0  0  0
  5  1  1  0  0  0  0
  7 14  1  6  0  0  0
  7 21  1  0  0  0  0
  8  6  1  6  0  0  0
  8 12  1  0  0  0  0
  9 26  1  6  0  0  0
  9 20  1  0  0  0  0
 11 28  1  6  0  0  0
 11  8  1  0  0  0  0
 11  5  1  0  0  0  0
 12 25  1  0  0  0  0
 12  4  1  1  0  0  0
 13 17  2  0  0  0  0
 15  2  2  0  0  0  0
 16  3  1  0  0  0  0
 17 23  1  0  0  0  0
 18 24  2  0  0  0  0
 19 16  2  0  0  0  0
 20 10  1  0  0  0  0
 21 19  1  1  0  0  0
 21  9  1  0  0  0  0
 24 16  1  0  0  0  0
 24 23  1  0  0  0  0
 25 22  1  1  0  0  0
 25  7  1  0  0  0  0
 26 27  1  0  0  0  0
 29 30  1  0  0  0  0
 30 28  1  0  0  0  0
M  END
>  <MODEL>
2

>  <REMARK>
 VINA RESULT:     -10.0      1.850      4.870
  Name = 
  3 active torsions:
  status: ('A' for Active; 'I' for Inactive)
    1  A    between atoms: C_9  and  C_12
    2  A    between atoms: C_9  and  C_21
    3  A    between atoms: C_10  and  O_15
                            x       y       z     vdW  Elec       q    Type
                         _______ _______ _______ _____ _____    ______ ____

>  <TORSDO>
F 3

$$$$
=
 OpenBabel10272413493D

 30 34  0  0  1  0  0  0  0  0999 V2000
  188.4760  177.6060  143.3540 C   0  0  0  0  0  0  0  0  0  0  0  0
  190.3600  177.3660  141.6490 C   0  0  0  0  0  0  0  0  0  0  0  0
  185.8770  178.6400  140.1880 O   0  0  0  0  0  0  0  0  0  0  0  0
  187.1220  177.9050  143.6340 C   0  0  0  0  0  0  0  0  0  0  0  0
  189.4500  177.4200  144.4880 C   0  0  0  0  0  2  0  0  0  0  0  0
  187.0870  177.4960  147.3610 O   0  0  0  0  0  1  0  0  0  0  0  0
  184.8640  179.5880  144.0490 C   0  0  2  0  0  3  0  0  0  0  0  0
  187.6630  177.9000  146.1530 C   0  0  1  0  0  3  0  0  0  0  0  0
  183.7950  178.6620  141.8400 C   0  0  2  0  0  3  0  0  0  0  0  0
  184.6220  178.0460  139.8490 C   0  0  0  0  0  2  0  0  0  0  0  0
  188.7840  176.9400  145.7680 C   0  0  2  0  0  3  0  0  0  0  0  0
  186.5870  177.9300  145.0630 C   0  0  1  0  0  3  0  0  0  0  0  0
  190.8370  177.7250  140.3100 C   0  0  0  0  0  3  0  0  0  0  0  0
  183.5460  180.2840  144.3730 C   0  0  0  0  0  1  0  0  0  0  0  0
  191.1760  176.8600  142.4630 O   0  0  0  0  0  0  0  0  0  0  0  0
  186.6940  178.2290  141.2520 C   0  0  0  0  0  0  0  0  0  0  0  0
  189.9800  178.0460  139.3450 C   0  0  0  0  0  3  0  0  0  0  0  0
  188.9370  177.6230  142.0150 C   0  0  0  0  0  0  0  0  0  0  0  0
  186.2140  178.1510  142.5840 C   0  0  0  0  0  0  0  0  0  0  0  0
  183.9340  177.5730  140.9720 O   0  0  0  0  0  0  0  0  0  0  0  0
  184.7850  178.4700  142.9970 C   0  0  1  0  0  3  0  0  0  0  0  0
  184.6560  178.6540  146.2810 O   0  0  0  0  0  1  0  0  0  0  0  0
  188.4920  177.9640  139.5330 C   0  0  0  0  0  2  0  0  0  0  0  0
  188.0440  177.9670  140.9780 C   0  0  0  0  0  0  0  0  0  0  0  0
  185.5810  179.0780  145.3220 C   0  0  2  0  0  3  0  0  0  0  0  0
  182.4820  178.6850  142.3170 O   0  0  0  0  0  0  0  0  0  0  0  0
  181.6880  178.8210  141.1780 C   0  0  0  0  0  1  0  0  0  0  0  0
  189.8160  176.7560  146.8880 C   0  0  0  0  0  2  0  0  0  0  0  0
  192.1070  175.8760  147.3630 C   0  0  0  0  0  1  0  0  0  0  0  0
  191.2520  176.6570  146.3840 C   0  0  0  0  0  2  0  0  0  0  0  0
  1  4  1  0  0  0  0
  1  5  1  0  0  0  0
  2 18  1  0  0  0  0
  2 15  2  0  0  0  0
  3 16  1  0  0  0  0
  5 11  1  0  0  0  0
  7 14  1  1  0  0  0
  7 25  1  0  0  0  0
  8  6  1  1  0  0  0
  9 26  1  1  0  0  0
  9 21  1  0  0  0  0
 10  3  1  0  0  0  0
 10 20  1  0  0  0  0
 11  8  1  0  0  0  0
 11 28  1  1  0  0  0
 12  4  1  6  0  0  0
 12 25  1  0  0  0  0
 12  8  1  0  0  0  0
 13  2  1  0  0  0  0
 16 19  1  0  0  0  0
 17 23  1  0  0  0  0
 17 13  2  0  0  0  0
 18  1  2  0  0  0  0
 19  4  2  0  0  0  0
 20  9  1  0  0  0  0
 21 19  1  6  0  0  0
 21  7  1  0  0  0  0
 23 24  1  0  0  0  0
 24 16  2  0  0  0  0
 24 18  1  0  0  0  0
 25 22  1  1  0  0  0
 27 26  1  0  0  0  0
 30 28  1  0  0  0  0
 30 29  1  0  0  0  0
M  END
>  <MODEL>
3

>  <REMARK>
 VINA RESULT:      -9.9      1.451      6.737
  Name = 
  3 active torsions:
  status: ('A' for Active; 'I' for Inactive)
    1  A    between atoms: C_9  and  C_12
    2  A    between atoms: C_9  and  C_21
    3  A    between atoms: C_10  and  O_15
                            x       y       z     vdW  Elec       q    Type
                         _______ _______ _______ _____ _____    ______ ____

>  <TORSDO>
F 3

$$$$
=
 OpenBabel10272413493D

 30 34  0  0  1  0  0  0  0  0999 V2000
  186.6980  178.4740  142.8270 C   0  0  0  0  0  0  0  0  0  0  0  0
  186.6910  178.4130  140.2760 C   0  0  0  0  0  0  0  0  0  0  0  0
  190.6900  177.0940  142.7500 O   0  0  0  0  0  0  0  0  0  0  0  0
  187.3850  178.2620  144.0450 C   0  0  0  0  0  0  0  0  0  0  0  0
  185.2240  178.7850  142.8450 C   0  0  0  0  0  2  0  0  0  0  0  0
  184.7140  179.1870  146.5080 O   0  0  0  0  0  1  0  0  0  0  0  0
  188.4730  176.7260  146.1830 C   0  0  2  0  0  3  0  0  0  0  0  0
  185.1760  178.6000  145.3270 C   0  0  1  0  0  3  0  0  0  0  0  0
  190.8870  177.3700  145.3860 C   0  0  2  0  0  3  0  0  0  0  0  0
  191.8350  177.6750  143.3770 C   0  0  0  0  0  2  0  0  0  0  0  0
  184.7770  179.4600  144.1320 C   0  0  2  0  0  3  0  0  0  0  0  0
  186.6990  178.4530  145.3950 C   0  0  1  0  0  3  0  0  0  0  0  0
  187.3190  177.8550  139.0750 C   0  0  0  0  0  3  0  0  0  0  0  0
  189.0710  176.1260  147.4500 C   0  0  0  0  0  1  0  0  0  0  0  0
  185.5840  179.0000  140.1580 O   0  0  0  0  0  0  0  0  0  0  0  0
  189.3920  177.6220  142.8100 C   0  0  0  0  0  0  0  0  0  0  0  0
  188.5790  177.4310  139.0990 C   0  0  0  0  0  3  0  0  0  0  0  0
  187.3640  178.2560  141.5970 C   0  0  0  0  0  0  0  0  0  0  0  0
  188.7480  177.9010  144.0420 C   0  0  0  0  0  0  0  0  0  0  0  0
  191.5160  178.3220  144.5760 O   0  0  0  0  0  0  0  0  0  0  0  0
  189.3860  177.6890  145.4060 C   0  0  1  0  0  3  0  0  0  0  0  0
  187.0550  177.9700  147.7140 O   0  0  0  0  0  1  0  0  0  0  0  0
  189.4540  177.5860  140.3100 C   0  0  0  0  0  2  0  0  0  0  0  0
  188.7000  177.8000  141.6030 C   0  0  0  0  0  0  0  0  0  0  0  0
  187.0960  177.3860  146.4440 C   0  0  2  0  0  3  0  0  0  0  0  0
  191.4250  177.4560  146.6730 O   0  0  0  0  0  0  0  0  0  0  0  0
  192.1350  176.2680  146.8470 C   0  0  0  0  0  1  0  0  0  0  0  0
  183.2740  179.7640  144.0980 C   0  0  0  0  0  2  0  0  0  0  0  0
  181.0220  178.7890  143.6210 C   0  0  0  0  0  1  0  0  0  0  0  0
  182.4800  178.8180  143.2040 C   0  0  0  0  0  2  0  0  0  0  0  0
  1  5  1  0  0  0  0
  1  4  1  0  0  0  0
  2 18  1  0  0  0  0
  3 16  1  0  0  0  0
  3 10  1  0  0  0  0
  5 11  1  0  0  0  0
  7 25  1  0  0  0  0
  7 14  1  1  0  0  0
  8 12  1  0  0  0  0
  8  6  1  1  0  0  0
  9 21  1  0  0  0  0
  9 26  1  1  0  0  0
 10 20  1  0  0  0  0
 11 28  1  6  0  0  0
 11  8  1  0  0  0  0
 12  4  1  6  0  0  0
 12 25  1  0  0  0  0
 13 17  2  0  0  0  0
 13  2  1  0  0  0  0
 15  2  2  0  0  0  0
 16 19  1  0  0  0  0
 17 23  1  0  0  0  0
 18 24  1  0  0  0  0
 18  1  2  0  0  0  0
 19  4  2  0  0  0  0
 20  9  1  0  0  0  0
 21 19  1  6  0  0  0
 21  7  1  0  0  0  0
 23 24  1  0  0  0  0
 24 16  2  0  0  0  0
 25 22  1  1  0  0  0
 26 27  1  0  0  0  0
 30 29  1  0  0  0  0
 30 28  1  0  0  0  0
M  END
>  <MODEL>
4

>  <REMARK>
 VINA RESULT:      -9.4      1.414      4.992
  Name = 
  3 active torsions:
  status: ('A' for Active; 'I' for Inactive)
    1  A    between atoms: C_9  and  C_12
    2  A    between atoms: C_9  and  C_21
    3  A    between atoms: C_10  and  O_15
                            x       y       z     vdW  Elec       q    Type
                         _______ _______ _______ _____ _____    ______ ____

>  <TORSDO>
F 3

$$$$
=
 OpenBabel10272413493D

 30 34  0  0  1  0  0  0  0  0999 V2000
  187.6230  178.1090  141.8540 C   0  0  0  0  0  0  0  0  0  0  0  0
  189.3700  177.5620  143.6320 C   0  0  0  0  0  0  0  0  0  0  0  0
  184.6780  178.0870  144.8830 O   0  0  0  0  0  0  0  0  0  0  0  0
  186.2740  178.3650  141.5150 C   0  0  0  0  0  0  0  0  0  0  0  0
  188.6460  177.9310  140.7630 C   0  0  0  0  0  2  0  0  0  0  0  0
  186.5770  178.8440  137.8090 O   0  0  0  0  0  1  0  0  0  0  0  0
  183.5630  177.6960  140.9530 C   0  0  2  0  0  3  0  0  0  0  0  0
  186.8940  178.2200  139.0190 C   0  0  1  0  0  3  0  0  0  0  0  0
  182.8300  178.9100  143.1590 C   0  0  2  0  0  3  0  0  0  0  0  0
  183.7340  179.1110  145.2010 C   0  0  0  0  0  2  0  0  0  0  0  0
  188.2790  178.6620  139.4810 C   0  0  2  0  0  3  0  0  0  0  0  0
  185.8390  178.5820  140.0680 C   0  0  1  0  0  3  0  0  0  0  0  0
  189.6060  177.0140  144.9710 C   0  0  0  0  0  3  0  0  0  0  0  0
  182.0960  177.5720  140.5560 C   0  0  0  0  0  1  0  0  0  0  0  0
  190.3560  177.7310  142.8680 O   0  0  0  0  0  0  0  0  0  0  0  0
  185.6400  178.1750  143.8650 C   0  0  0  0  0  0  0  0  0  0  0  0
  188.6470  177.0270  145.8910 C   0  0  0  0  0  3  0  0  0  0  0  0
  187.9770  177.8840  143.2060 C   0  0  0  0  0  0  0  0  0  0  0  0
  185.2920  178.4640  142.5220 C   0  0  0  0  0  0  0  0  0  0  0  0
  183.3360  179.8390  144.0750 O   0  0  0  0  0  0  0  0  0  0  0  0
  183.8720  178.7320  142.0470 C   0  0  1  0  0  3  0  0  0  0  0  0
  183.8390  178.6910  138.7550 O   0  0  0  0  0  1  0  0  0  0  0  0
  187.3160  177.6820  145.6550 C   0  0  0  0  0  2  0  0  0  0  0  0
  186.9720  177.8870  144.1970 C   0  0  0  0  0  0  0  0  0  0  0  0
  184.4820  177.9190  139.7270 C   0  0  2  0  0  3  0  0  0  0  0  0
  181.6340  179.4080  142.6360 O   0  0  0  0  0  0  0  0  0  0  0  0
  180.6410  178.9340  143.4940 C   0  0  0  0  0  1  0  0  0  0  0  0
  189.3540  178.4590  138.4060 C   0  0  0  0  0  2  0  0  0  0  0  0
  189.9660  176.1280  137.7390 C   0  0  0  0  0  1  0  0  0  0  0  0
  190.2760  177.2760  138.6810 C   0  0  0  0  0  2  0  0  0  0  0  0
  1 18  1  0  0  0  0
  2 13  1  0  0  0  0
  3 10  1  0  0  0  0
  4  1  2  0  0  0  0
  4 19  1  0  0  0  0
  5  1  1  0  0  0  0
  7 14  1  6  0  0  0
  7 21  1  0  0  0  0
  8  6  1  6  0  0  0
  8 11  1  0  0  0  0
  8 12  1  0  0  0  0
  9 26  1  6  0  0  0
  9 20  1  0  0  0  0
 11 28  1  6  0  0  0
 11  5  1  0  0  0  0
 12  4  1  1  0  0  0
 13 17  2  0  0  0  0
 15  2  2  0  0  0  0
 16 24  1  0  0  0  0
 16  3  1  0  0  0  0
 18  2  1  0  0  0  0
 18 24  2  0  0  0  0
 19 16  2  0  0  0  0
 20 10  1  0  0  0  0
 21 19  1  1  0  0  0
 21  9  1  0  0  0  0
 23 17  1  0  0  0  0
 24 23  1  0  0  0  0
 25 22  1  6  0  0  0
 25 12  1  0  0  0  0
 25  7  1  0  0  0  0
 26 27  1  0  0  0  0
 28 30  1  0  0  0  0
 29 30  1  0  0  0  0
M  END
>  <MODEL>
5

>  <REMARK>
 VINA RESULT:      -9.1      1.733      6.131
  Name = 
  3 active torsions:
  status: ('A' for Active; 'I' for Inactive)
    1  A    between atoms: C_9  and  C_12
    2  A    between atoms: C_9  and  C_21
    3  A    between atoms: C_10  and  O_15
                            x       y       z     vdW  Elec       q    Type
                         _______ _______ _______ _____ _____    ______ ____

>  <TORSDO>
F 3

$$$$
=
 OpenBabel10272413493D

 30 34  0  0  1  0  0  0  0  0999 V2000
  187.6870  178.1360  142.4320 C   0  0  0  0  0  0  0  0  0  0  0  0
  185.2950  178.5260  143.2300 C   0  0  0  0  0  0  0  0  0  0  0  0
  186.2720  178.2420  138.4530 O   0  0  0  0  0  0  0  0  0  0  0  0
  188.5980  177.9600  141.3640 C   0  0  0  0  0  0  0  0  0  0  0  0
  188.1470  177.9150  143.8500 C   0  0  0  0  0  2  0  0  0  0  0  0
  191.7930  177.4660  143.2630 O   0  0  0  0  0  1  0  0  0  0  0  0
  189.9140  176.5380  139.2760 C   0  0  2  0  0  3  0  0  0  0  0  0
  190.4230  177.2900  143.0560 C   0  0  1  0  0  3  0  0  0  0  0  0
  188.7550  178.0990  137.5150 C   0  0  2  0  0  3  0  0  0  0  0  0
  186.7340  179.0590  137.3760 C   0  0  0  0  0  2  0  0  0  0  0  0
  189.6360  178.1580  144.0350 C   0  0  2  0  0  3  0  0  0  0  0  0
  190.0750  177.6640  141.6120 C   0  0  1  0  0  3  0  0  0  0  0  0
  183.8730  178.4380  142.8860 C   0  0  0  0  0  3  0  0  0  0  0  0
  190.7880  175.9660  138.1660 C   0  0  0  0  0  1  0  0  0  0  0  0
  185.6130  178.7100  144.4340 O   0  0  0  0  0  0  0  0  0  0  0  0
  186.7870  178.2740  139.7580 C   0  0  0  0  0  0  0  0  0  0  0  0
  183.4750  178.4730  141.6190 C   0  0  0  0  0  3  0  0  0  0  0  0
  186.3210  178.3790  142.1570 C   0  0  0  0  0  0  0  0  0  0  0  0
  188.1660  178.0940  140.0290 C   0  0  0  0  0  0  0  0  0  0  0  0
  188.1020  179.3360  137.4630 O   0  0  0  0  0  0  0  0  0  0  0  0
  189.2250  177.8770  138.9590 C   0  0  1  0  0  3  0  0  0  0  0  0
  192.0190  176.9310  140.4210 O   0  0  0  0  0  1  0  0  0  0  0  0
  184.4310  178.7030  140.4830 C   0  0  0  0  0  2  0  0  0  0  0  0
  185.8780  178.4140  140.8170 C   0  0  0  0  0  0  0  0  0  0  0  0
  190.6690  176.6300  140.6240 C   0  0  2  0  0  3  0  0  0  0  0  0
  189.8460  178.1360  136.6440 O   0  0  0  0  0  0  0  0  0  0  0  0
  189.3530  177.6610  135.4280 C   0  0  0  0  0  1  0  0  0  0  0  0
  190.0530  177.9310  145.4930 C   0  0  0  0  0  2  0  0  0  0  0  0
  188.9810  177.8610  147.7500 C   0  0  0  0  0  1  0  0  0  0  0  0
  188.9640  177.2890  146.3450 C   0  0  0  0  0  2  0  0  0  0  0  0
  1  5  1  0  0  0  0
  2 15  2  0  0  0  0
  3 16  1  0  0  0  0
  4  1  2  0  0  0  0
  5 11  1  0  0  0  0
  7 14  1  6  0  0  0
  7 25  1  0  0  0  0
  8  6  1  6  0  0  0
  8 11  1  0  0  0  0
  9 26  1  6  0  0  0
  9 21  1  0  0  0  0
 10 20  1  0  0  0  0
 10  3  1  0  0  0  0
 11 28  1  1  0  0  0
 12  4  1  1  0  0  0
 12  8  1  0  0  0  0
 13  2  1  0  0  0  0
 16 19  2  0  0  0  0
 16 24  1  0  0  0  0
 17 13  2  0  0  0  0
 18  1  1  0  0  0  0
 18  2  1  0  0  0  0
 19  4  1  0  0  0  0
 20  9  1  0  0  0  0
 21  7  1  0  0  0  0
 21 19  1  1  0  0  0
 23 24  1  0  0  0  0
 23 17  1  0  0  0  0
 24 18  2  0  0  0  0
 25 22  1  6  0  0  0
 25 12  1  0  0  0  0
 27 26  1  0  0  0  0
 28 30  1  0  0  0  0
 30 29  1  0  0  0  0
M  END
>  <MODEL>
6

>  <REMARK>
 VINA RESULT:      -8.8      1.928      5.773
  Name = 
  3 active torsions:
  status: ('A' for Active; 'I' for Inactive)
    1  A    between atoms: C_9  and  C_12
    2  A    between atoms: C_9  and  C_21
    3  A    between atoms: C_10  and  O_15
                            x       y       z     vdW  Elec       q    Type
                         _______ _______ _______ _____ _____    ______ ____

>  <TORSDO>
F 3

$$$$
=
 OpenBabel10272413493D

 30 34  0  0  1  0  0  0  0  0999 V2000
  187.5390  178.1670  140.4390 C   0  0  0  0  0  0  0  0  0  0  0  0
  188.8930  177.7170  138.3230 C   0  0  0  0  0  0  0  0  0  0  0  0
  190.9400  177.1240  142.7180 O   0  0  0  0  0  0  0  0  0  0  0  0
  187.4680  178.2000  141.8520 C   0  0  0  0  0  0  0  0  0  0  0  0
  186.2860  178.3540  139.6240 C   0  0  0  0  0  2  0  0  0  0  0  0
  183.9050  179.2670  142.3330 O   0  0  0  0  0  1  0  0  0  0  0  0
  187.2290  177.1030  144.4690 C   0  0  2  0  0  3  0  0  0  0  0  0
  184.9190  178.5470  141.6960 C   0  0  1  0  0  3  0  0  0  0  0  0
  189.7040  177.8140  144.9670 C   0  0  2  0  0  3  0  0  0  0  0  0
  191.5800  177.8860  143.7420 C   0  0  0  0  0  2  0  0  0  0  0  0
  185.2290  179.1790  140.3420 C   0  0  2  0  0  3  0  0  0  0  0  0
  186.1690  178.5370  142.5800 C   0  0  1  0  0  3  0  0  0  0  0  0
  190.0580  177.0360  137.7510 C   0  0  0  0  0  3  0  0  0  0  0  0
  187.0520  176.7540  145.9430 C   0  0  0  0  0  1  0  0  0  0  0  0
  188.0250  178.1860  137.5410 O   0  0  0  0  0  0  0  0  0  0  0  0
  189.8160  177.5470  141.9920 C   0  0  0  0  0  0  0  0  0  0  0  0
  191.1050  176.7260  138.5090 C   0  0  0  0  0  3  0  0  0  0  0  0
  188.7550  177.8190  139.8050 C   0  0  0  0  0  0  0  0  0  0  0  0
  188.6180  177.9560  142.6300 C   0  0  0  0  0  0  0  0  0  0  0  0
  190.6790  178.6800  144.4610 O   0  0  0  0  0  0  0  0  0  0  0  0
  188.4280  178.0080  144.1380 C   0  0  1  0  0  3  0  0  0  0  0  0
  185.2290  178.4440  144.7810 O   0  0  0  0  0  1  0  0  0  0  0  0
  191.2020  177.1350  139.9510 C   0  0  0  0  0  2  0  0  0  0  0  0
  189.8770  177.4810  140.5920 C   0  0  0  0  0  0  0  0  0  0  0  0
  185.9340  177.6790  143.8470 C   0  0  2  0  0  3  0  0  0  0  0  0
  189.4740  178.1390  146.3060 O   0  0  0  0  0  0  0  0  0  0  0  0
  190.2180  177.2120  147.0360 C   0  0  0  0  0  1  0  0  0  0  0  0
  183.9800  179.3500  139.4690 C   0  0  0  0  0  2  0  0  0  0  0  0
  182.8230  177.1850  138.9910 C   0  0  0  0  0  1  0  0  0  0  0  0
  183.7860  178.2270  138.4550 C   0  0  0  0  0  2  0  0  0  0  0  0
  1  4  1  0  0  0  0
  2 18  1  0  0  0  0
  3 10  1  0  0  0  0
  4 19  2  0  0  0  0
  5 11  1  0  0  0  0
  5  1  1  0  0  0  0
  7 14  1  1  0  0  0
  8  6  1  1  0  0  0
  8 12  1  0  0  0  0
  9 26  1  1  0  0  0
 10 20  1  0  0  0  0
 11 28  1  6  0  0  0
 11  8  1  0  0  0  0
 12  4  1  6  0  0  0
 12 25  1  0  0  0  0
 13  2  1  0  0  0  0
 13 17  2  0  0  0  0
 15  2  2  0  0  0  0
 16 19  1  0  0  0  0
 16  3  1  0  0  0  0
 17 23  1  0  0  0  0
 18  1  2  0  0  0  0
 18 24  1  0  0  0  0
 20  9  1  0  0  0  0
 21 19  1  6  0  0  0
 21  7  1  0  0  0  0
 21  9  1  0  0  0  0
 23 24  1  0  0  0  0
 24 16  2  0  0  0  0
 25  7  1  0  0  0  0
 25 22  1  1  0  0  0
 26 27  1  0  0  0  0
 30 29  1  0  0  0  0
 30 28  1  0  0  0  0
M  END
>  <MODEL>
7

>  <REMARK>
 VINA RESULT:      -8.7      2.078      5.538
  Name = 
  3 active torsions:
  status: ('A' for Active; 'I' for Inactive)
    1  A    between atoms: C_9  and  C_12
    2  A    between atoms: C_9  and  C_21
    3  A    between atoms: C_10  and  O_15
                            x       y       z     vdW  Elec       q    Type
                         _______ _______ _______ _____ _____    ______ ____

>  <TORSDO>
F 3

$$$$
=
 OpenBabel10272413493D

 30 34  0  0  1  0  0  0  0  0999 V2000
  188.0200  178.0140  144.1470 C   0  0  0  0  0  0  0  0  0  0  0  0
  186.3410  178.1900  146.0610 C   0  0  0  0  0  0  0  0  0  0  0  0
  184.8040  178.3370  141.4270 O   0  0  0  0  0  0  0  0  0  0  0  0
  188.2780  177.9790  142.7570 C   0  0  0  0  0  0  0  0  0  0  0  0
  189.1310  177.7140  145.1210 C   0  0  0  0  0  2  0  0  0  0  0  0
  192.0020  177.5440  142.7620 O   0  0  0  0  0  1  0  0  0  0  0  0
  188.3970  176.8090  140.1630 C   0  0  2  0  0  3  0  0  0  0  0  0
  190.7140  177.2980  143.2460 C   0  0  1  0  0  3  0  0  0  0  0  0
  186.4870  178.4250  139.3720 C   0  0  2  0  0  3  0  0  0  0  0  0
  184.6520  179.2620  140.3500 C   0  0  0  0  0  2  0  0  0  0  0  0
  190.5080  178.0370  144.5650 C   0  0  2  0  0  3  0  0  0  0  0  0
  189.6860  177.7590  142.2090 C   0  0  1  0  0  3  0  0  0  0  0  0
  184.9390  178.0380  146.4610 C   0  0  0  0  0  3  0  0  0  0  0  0
  188.6080  176.3800  138.7160 C   0  0  0  0  0  1  0  0  0  0  0  0
  187.2150  178.3000  146.9600 O   0  0  0  0  0  0  0  0  0  0  0  0
  185.9010  178.3010  142.3010 C   0  0  0  0  0  0  0  0  0  0  0  0
  183.9600  178.1460  145.5690 C   0  0  0  0  0  3  0  0  0  0  0  0
  186.6950  178.1910  144.6120 C   0  0  0  0  0  0  0  0  0  0  0  0
  187.2340  178.1880  141.8320 C   0  0  0  0  0  0  0  0  0  0  0  0
  185.8760  179.6170  139.7730 O   0  0  0  0  0  0  0  0  0  0  0  0
  187.6200  178.1220  140.3630 C   0  0  1  0  0  3  0  0  0  0  0  0
  190.7860  177.2450  140.1450 O   0  0  0  0  0  1  0  0  0  0  0  0
  184.2170  178.5220  144.1370 C   0  0  0  0  0  2  0  0  0  0  0  0
  185.6410  178.3010  143.6790 C   0  0  0  0  0  0  0  0  0  0  0  0
  189.7230  176.8440  140.9600 C   0  0  2  0  0  3  0  0  0  0  0  0
  186.9960  178.5970  138.0830 O   0  0  0  0  0  0  0  0  0  0  0  0
  186.0350  178.0390  137.2390 C   0  0  0  0  0  1  0  0  0  0  0  0
  191.6020  177.7250  145.5940 C   0  0  0  0  0  2  0  0  0  0  0  0
  192.0830  175.7890  147.1030 C   0  0  0  0  0  1  0  0  0  0  0  0
  191.1070  176.9050  146.7810 C   0  0  0  0  0  2  0  0  0  0  0  0
  1 18  1  0  0  0  0
  1  5  1  0  0  0  0
  2 13  1  0  0  0  0
  2 15  2  0  0  0  0
  3 16  1  0  0  0  0
  4  1  2  0  0  0  0
  7 14  1  6  0  0  0
  7 21  1  0  0  0  0
  7 25  1  0  0  0  0
  8  6  1  6  0  0  0
  8 11  1  0  0  0  0
  9 26  1  6  0  0  0
  9 20  1  0  0  0  0
  9 21  1  0  0  0  0
 10  3  1  0  0  0  0
 11  5  1  0  0  0  0
 11 28  1  1  0  0  0
 12  4  1  1  0  0  0
 12  8  1  0  0  0  0
 16 24  1  0  0  0  0
 17 13  2  0  0  0  0
 18  2  1  0  0  0  0
 19 16  2  0  0  0  0
 19  4  1  0  0  0  0
 20 10  1  0  0  0  0
 21 19  1  1  0  0  0
 23 17  1  0  0  0  0
 24 23  1  0  0  0  0
 24 18  2  0  0  0  0
 25 22  1  6  0  0  0
 25 12  1  0  0  0  0
 27 26  1  0  0  0  0
 28 30  1  0  0  0  0
 30 29  1  0  0  0  0
M  END
>  <MODEL>
8

>  <REMARK>
 VINA RESULT:      -8.3      1.723      5.559
  Name = 
  3 active torsions:
  status: ('A' for Active; 'I' for Inactive)
    1  A    between atoms: C_9  and  C_12
    2  A    between atoms: C_9  and  C_21
    3  A    between atoms: C_10  and  O_15
                            x       y       z     vdW  Elec       q    Type
                         _______ _______ _______ _____ _____    ______ ____

>  <TORSDO>
F 3

$$$$
