=
 OpenBabel10272400373D

 31 34  0  0  1  0  0  0  0  0999 V2000
  188.3530  177.2540  144.2650 C   0  0  0  0  0  0  0  0  0  0  0  0
  187.2670  177.7020  145.0740 C   0  0  0  0  0  0  0  0  0  0  0  0
  186.2270  178.0710  147.2660 C   0  0  0  0  0  3  0  0  0  0  0  0
  189.6580  176.9870  144.7020 C   0  0  0  0  0  0  0  0  0  0  0  0
  191.5690  176.6590  146.0470 C   0  0  2  0  0  3  0  0  0  0  0  0
  187.2610  177.6160  146.4420 C   0  0  0  0  0  3  0  0  0  0  0  0
  189.2920  177.0140  141.9610 C   0  0  0  0  0  0  0  0  0  0  0  0
  185.9410  178.2870  143.1560 C   0  0  0  0  0  3  0  0  0  0  0  0
  185.1270  178.6420  146.7070 C   0  0  0  0  0  3  0  0  0  0  0  0
  190.4430  176.4670  142.5240 C   0  0  0  0  0  3  0  0  0  0  0  0
  188.2050  177.3000  142.8940 C   0  0  0  0  0  0  0  0  0  0  0  0
  190.1920  176.9310  145.9760 O   0  0  0  0  0  0  0  0  0  0  0  0
  183.8760  179.3960  144.8870 O   0  0  0  0  0  1  0  0  0  0  0  0
  190.6030  176.5050  143.8960 C   0  0  0  0  0  0  0  0  0  0  0  0
  191.7060  176.3400  144.6440 O   0  0  0  0  0  0  0  0  0  0  0  0
  186.9650  177.7760  142.3850 C   0  0  0  0  0  3  0  0  0  0  0  0
  186.0430  178.2170  144.5260 C   0  0  0  0  0  0  0  0  0  0  0  0
  185.0200  178.7610  145.3300 C   0  0  0  0  0  0  0  0  0  0  0  0
  192.0240  175.5930  147.0710 C   0  0  0  0  0  3  0  0  0  0  0  0
  192.7390  175.9340  148.1710 C   0  0  0  0  0  2  0  0  0  0  0  0
  189.0080  176.8770  140.5670 O   0  0  0  0  0  0  0  0  0  0  0  0
  191.0770  176.8630  139.0610 C   0  0  0  0  0  1  0  0  0  0  0  0
  189.6990  177.3800  139.3780 C   0  0  1  0  0  3  0  0  0  0  0  0
  188.9960  179.4540  138.4340 O   0  0  0  0  0  1  0  0  0  0  0  0
  189.0100  178.0680  138.1630 C   0  0  2  0  0  3  0  0  0  0  0  0
  187.1620  176.3300  137.3260 C   0  0  0  0  0  1  0  0  0  0  0  0
  187.5460  177.5930  138.0550 C   0  0  2  0  0  3  0  0  0  0  0  0
  186.5570  178.6410  138.0110 O   0  0  0  0  0  0  0  0  0  0  0  0
  185.2570  178.5850  138.5910 C   0  0  0  0  0  0  0  0  0  0  0  0
  184.3090  177.8570  138.1350 O   0  0  0  0  0  0  0  0  0  0  0  0
  185.0320  179.4210  139.7360 N   0  0  0  0  0  1  0  0  0  0  0  0
  1  4  1  0  0  0  0
  1  2  2  0  0  0  0
  2  6  1  0  0  0  0
  4 12  1  0  0  0  0
  5 19  1  1  0  0  0
  6  3  2  0  0  0  0
  7 10  2  0  0  0  0
  7 11  1  0  0  0  0
  8 17  2  0  0  0  0
  9  3  1  0  0  0  0
 10 14  1  0  0  0  0
 11  1  1  0  0  0  0
 12  5  1  0  0  0  0
 13 18  1  0  0  0  0
 14 15  1  0  0  0  0
 14  4  2  0  0  0  0
 15  5  1  0  0  0  0
 16 11  2  0  0  0  0
 16  8  1  0  0  0  0
 17  2  1  0  0  0  0
 17 18  1  0  0  0  0
 18  9  2  0  0  0  0
 19 20  2  0  0  0  0
 21  7  1  0  0  0  0
 23 22  1  6  0  0  0
 23 21  1  0  0  0  0
 25 24  1  1  0  0  0
 25 23  1  0  0  0  0
 27 26  1  6  0  0  0
 27 25  1  0  0  0  0
 28 27  1  0  0  0  0
 28 29  1  0  0  0  0
 29 31  1  0  0  0  0
 30 29  2  0  0  0  0
M  END
>  <MODEL>
1

>  <REMARK>
 VINA RESULT:     -10.2      0.000      0.000
  Name = 
  7 active torsions:
  status: ('A' for Active; 'I' for Inactive)
    1  A    between atoms: C_1  and  O_24
    2  A    between atoms: C_2  and  C_13
    3  A    between atoms: C_9  and  C_22
    4  A    between atoms: C_9  and  O_23
    5  A    between atoms: C_15  and  O_23
    6  A    between atoms: C_19  and  C_22
    7  A    between atoms: C_19  and  O_24
                            x       y       z     vdW  Elec       q    Type
                         _______ _______ _______ _____ _____    ______ ____

>  <TORSDO>
F 7

$$$$
=
 OpenBabel10272400373D

 31 34  0  0  1  0  0  0  0  0999 V2000
  188.5120  177.8540  143.7450 C   0  0  0  0  0  0  0  0  0  0  0  0
  189.0950  177.5480  145.0110 C   0  0  0  0  0  0  0  0  0  0  0  0
  188.9440  177.3190  147.4490 C   0  0  0  0  0  3  0  0  0  0  0  0
  187.1410  177.9550  143.4660 C   0  0  0  0  0  0  0  0  0  0  0  0
  184.7920  178.0430  143.6740 C   0  0  2  0  0  3  0  0  0  0  0  0
  188.4120  177.6390  146.1970 C   0  0  0  0  0  3  0  0  0  0  0  0
  188.8190  177.9680  141.2670 C   0  0  0  0  0  0  0  0  0  0  0  0
  191.2510  177.1310  144.0350 C   0  0  0  0  0  3  0  0  0  0  0  0
  190.2310  176.8910  147.5420 C   0  0  0  0  0  3  0  0  0  0  0  0
  187.4880  178.3660  141.1550 C   0  0  0  0  0  3  0  0  0  0  0  0
  189.3240  177.8240  142.6300 C   0  0  0  0  0  0  0  0  0  0  0  0
  186.0440  177.9460  144.3060 O   0  0  0  0  0  0  0  0  0  0  0  0
  192.2930  176.2970  146.6250 O   0  0  0  0  0  1  0  0  0  0  0  0
  186.6750  178.3120  142.2700 C   0  0  0  0  0  0  0  0  0  0  0  0
  185.3360  178.3380  142.3670 O   0  0  0  0  0  0  0  0  0  0  0  0
  190.6960  177.5070  142.8290 C   0  0  0  0  0  3  0  0  0  0  0  0
  190.4770  177.1910  145.1690 C   0  0  0  0  0  0  0  0  0  0  0  0
  191.0190  176.7830  146.4060 C   0  0  0  0  0  0  0  0  0  0  0  0
  183.7770  179.0450  144.2710 C   0  0  0  0  0  3  0  0  0  0  0  0
  182.4740  179.0360  143.8950 C   0  0  0  0  0  2  0  0  0  0  0  0
  189.7400  178.1360  140.1870 O   0  0  0  0  0  0  0  0  0  0  0  0
  190.2250  176.1690  138.6250 C   0  0  0  0  0  1  0  0  0  0  0  0
  189.7610  177.5860  138.8300 C   0  0  1  0  0  3  0  0  0  0  0  0
  188.9040  179.5490  137.7810 O   0  0  0  0  0  1  0  0  0  0  0  0
  188.9540  178.1460  137.6220 C   0  0  2  0  0  3  0  0  0  0  0  0
  187.1090  176.3110  137.0200 C   0  0  0  0  0  1  0  0  0  0  0  0
  187.5070  177.6140  137.6680 C   0  0  2  0  0  3  0  0  0  0  0  0
  186.4770  178.6210  137.6810 O   0  0  0  0  0  0  0  0  0  0  0  0
  185.2310  178.5330  138.3670 C   0  0  0  0  0  0  0  0  0  0  0  0
  184.4510  177.5210  138.2890 O   0  0  0  0  0  0  0  0  0  0  0  0
  184.8590  179.6670  139.1640 N   0  0  0  0  0  1  0  0  0  0  0  0
  1  2  2  0  0  0  0
  2 17  1  0  0  0  0
  2  6  1  0  0  0  0
  3  9  1  0  0  0  0
  4  1  1  0  0  0  0
  4 12  1  0  0  0  0
  5 19  1  1  0  0  0
  5 12  1  0  0  0  0
  6  3  2  0  0  0  0
  7 11  1  0  0  0  0
  8 17  2  0  0  0  0
 10  7  2  0  0  0  0
 10 14  1  0  0  0  0
 11 16  2  0  0  0  0
 11  1  1  0  0  0  0
 14 15  1  0  0  0  0
 14  4  2  0  0  0  0
 15  5  1  0  0  0  0
 16  8  1  0  0  0  0
 17 18  1  0  0  0  0
 18 13  1  0  0  0  0
 18  9  2  0  0  0  0
 20 19  2  0  0  0  0
 21  7  1  0  0  0  0
 23 22  1  1  0  0  0
 23 21  1  0  0  0  0
 25 27  1  0  0  0  0
 25 24  1  1  0  0  0
 25 23  1  0  0  0  0
 27 26  1  6  0  0  0
 27 28  1  0  0  0  0
 28 29  1  0  0  0  0
 29 31  1  0  0  0  0
 30 29  2  0  0  0  0
M  END
>  <MODEL>
2

>  <REMARK>
 VINA RESULT:      -9.7      1.425      4.515
  Name = 
  7 active torsions:
  status: ('A' for Active; 'I' for Inactive)
    1  A    between atoms: C_1  and  O_24
    2  A    between atoms: C_2  and  C_13
    3  A    between atoms: C_9  and  C_22
    4  A    between atoms: C_9  and  O_23
    5  A    between atoms: C_15  and  O_23
    6  A    between atoms: C_19  and  C_22
    7  A    between atoms: C_19  and  O_24
                            x       y       z     vdW  Elec       q    Type
                         _______ _______ _______ _____ _____    ______ ____

>  <TORSDO>
F 7

$$$$
=
 OpenBabel10272400373D

 31 34  0  0  1  0  0  0  0  0999 V2000
  188.9300  177.7680  143.4200 C   0  0  0  0  0  0  0  0  0  0  0  0
  189.3580  177.5130  144.7570 C   0  0  0  0  0  0  0  0  0  0  0  0
  188.9330  177.4300  147.1720 C   0  0  0  0  0  3  0  0  0  0  0  0
  187.6030  177.9060  142.9860 C   0  0  0  0  0  0  0  0  0  0  0  0
  185.2520  178.0960  142.9270 C   0  0  2  0  0  3  0  0  0  0  0  0
  188.5550  177.6970  145.8530 C   0  0  0  0  0  3  0  0  0  0  0  0
  189.5090  177.7280  140.9890 C   0  0  0  0  0  0  0  0  0  0  0  0
  191.5860  176.9570  144.0500 C   0  0  0  0  0  3  0  0  0  0  0  0
  190.1820  176.9580  147.4300 C   0  0  0  0  0  3  0  0  0  0  0  0
  188.2170  178.1700  140.7090 C   0  0  0  0  0  3  0  0  0  0  0  0
  189.8560  177.6430  142.4050 C   0  0  0  0  0  0  0  0  0  0  0  0
  186.4220  177.9880  143.6990 O   0  0  0  0  0  0  0  0  0  0  0  0
  192.3020  176.2320  146.7800 O   0  0  0  0  0  1  0  0  0  0  0  0
  187.2860  178.2120  141.7280 C   0  0  0  0  0  0  0  0  0  0  0  0
  185.9470  178.2950  141.6750 O   0  0  0  0  0  0  0  0  0  0  0  0
  191.1830  177.2850  142.7720 C   0  0  0  0  0  3  0  0  0  0  0  0
  190.6970  177.1120  145.0870 C   0  0  0  0  0  0  0  0  0  0  0  0
  191.0820  176.7540  146.3950 C   0  0  0  0  0  0  0  0  0  0  0  0
  184.2240  179.1700  143.3540 C   0  0  0  0  0  3  0  0  0  0  0  0
  183.6870  179.1750  144.5990 C   0  0  0  0  0  2  0  0  0  0  0  0
  190.5480  177.7980  140.0100 O   0  0  0  0  0  0  0  0  0  0  0  0
  192.4110  176.5840  138.7440 C   0  0  0  0  0  1  0  0  0  0  0  0
  190.9480  176.8750  138.9460 C   0  0  1  0  0  3  0  0  0  0  0  0
  190.8010  174.6720  138.0460 O   0  0  0  0  0  1  0  0  0  0  0  0
  190.0170  175.8240  138.2730 C   0  0  2  0  0  3  0  0  0  0  0  0
  189.6600  175.5300  135.6420 C   0  0  0  0  0  1  0  0  0  0  0  0
  189.5410  176.3490  136.9030 C   0  0  2  0  0  3  0  0  0  0  0  0
  189.6580  177.7730  136.7110 O   0  0  0  0  0  0  0  0  0  0  0  0
  188.6570  178.7410  137.0130 C   0  0  0  0  0  0  0  0  0  0  0  0
  188.9010  179.8500  137.6020 O   0  0  0  0  0  0  0  0  0  0  0  0
  187.3130  178.4080  136.6360 N   0  0  0  0  0  1  0  0  0  0  0  0
  1  2  2  0  0  0  0
  2 17  1  0  0  0  0
  2  6  1  0  0  0  0
  3  9  1  0  0  0  0
  4  1  1  0  0  0  0
  4 12  1  0  0  0  0
  5 19  1  1  0  0  0
  5 12  1  0  0  0  0
  6  3  2  0  0  0  0
  7 11  1  0  0  0  0
  8 17  2  0  0  0  0
 10  7  2  0  0  0  0
 10 14  1  0  0  0  0
 11 16  2  0  0  0  0
 11  1  1  0  0  0  0
 14  4  2  0  0  0  0
 15 14  1  0  0  0  0
 15  5  1  0  0  0  0
 16  8  1  0  0  0  0
 17 18  1  0  0  0  0
 18 13  1  0  0  0  0
 18  9  2  0  0  0  0
 19 20  2  0  0  0  0
 21  7  1  0  0  0  0
 23 22  1  1  0  0  0
 23 21  1  0  0  0  0
 25 24  1  6  0  0  0
 25 23  1  0  0  0  0
 27 26  1  6  0  0  0
 27 25  1  0  0  0  0
 28 27  1  0  0  0  0
 28 29  1  0  0  0  0
 29 30  2  0  0  0  0
 31 29  1  0  0  0  0
M  END
>  <MODEL>
3

>  <REMARK>
 VINA RESULT:      -9.5      2.056      4.831
  Name = 
  7 active torsions:
  status: ('A' for Active; 'I' for Inactive)
    1  A    between atoms: C_1  and  O_24
    2  A    between atoms: C_2  and  C_13
    3  A    between atoms: C_9  and  C_22
    4  A    between atoms: C_9  and  O_23
    5  A    between atoms: C_15  and  O_23
    6  A    between atoms: C_19  and  C_22
    7  A    between atoms: C_19  and  O_24
                            x       y       z     vdW  Elec       q    Type
                         _______ _______ _______ _____ _____    ______ ____

>  <TORSDO>
F 7

$$$$
=
 OpenBabel10272400373D

 31 34  0  0  1  0  0  0  0  0999 V2000
  188.2910  177.2800  144.2730 C   0  0  0  0  0  0  0  0  0  0  0  0
  187.1410  177.7430  144.9800 C   0  0  0  0  0  0  0  0  0  0  0  0
  185.9240  178.1570  147.0700 C   0  0  0  0  0  3  0  0  0  0  0  0
  189.5570  177.0280  144.8220 C   0  0  0  0  0  0  0  0  0  0  0  0
  191.3510  176.7370  146.3270 C   0  0  2  0  0  3  0  0  0  0  0  0
  187.0230  177.6870  146.3450 C   0  0  0  0  0  3  0  0  0  0  0  0
  189.4170  176.9920  142.0600 C   0  0  0  0  0  0  0  0  0  0  0  0
  185.9770  178.2800  142.9470 C   0  0  0  0  0  3  0  0  0  0  0  0
  184.8730  178.7110  146.4100 C   0  0  0  0  0  3  0  0  0  0  0  0
  190.5190  176.4630  142.7290 C   0  0  0  0  0  3  0  0  0  0  0  0
  188.2570  177.2950  142.8940 C   0  0  0  0  0  0  0  0  0  0  0  0
  189.9840  177.0030  146.1370 O   0  0  0  0  0  0  0  0  0  0  0  0
  183.7740  179.4190  144.4770 O   0  0  0  0  0  1  0  0  0  0  0  0
  190.5650  176.5310  144.1070 C   0  0  0  0  0  0  0  0  0  0  0  0
  191.6030  176.3870  144.9470 O   0  0  0  0  0  0  0  0  0  0  0  0
  187.0610  177.7550  142.2750 C   0  0  0  0  0  3  0  0  0  0  0  0
  185.9660  178.2410  144.3210 C   0  0  0  0  0  0  0  0  0  0  0  0
  184.8800  178.7990  145.0260 C   0  0  0  0  0  0  0  0  0  0  0  0
  191.7220  175.6960  147.4090 C   0  0  0  0  0  3  0  0  0  0  0  0
  192.8430  175.8300  148.1600 C   0  0  0  0  0  2  0  0  0  0  0  0
  189.2490  176.8230  140.6510 O   0  0  0  0  0  0  0  0  0  0  0  0
  191.3060  176.8120  139.1290 C   0  0  0  0  0  1  0  0  0  0  0  0
  189.9690  177.3900  139.5090 C   0  0  1  0  0  3  0  0  0  0  0  0
  188.1030  178.7360  138.8810 O   0  0  0  0  0  1  0  0  0  0  0  0
  189.3240  178.2390  138.3740 C   0  0  2  0  0  3  0  0  0  0  0  0
  188.9990  177.8590  135.7500 C   0  0  0  0  0  1  0  0  0  0  0  0
  189.0020  177.3370  137.1660 C   0  0  2  0  0  3  0  0  0  0  0  0
  188.0620  176.2740  137.4200 O   0  0  0  0  0  0  0  0  0  0  0  0
  188.1860  174.9260  136.9770 C   0  0  0  0  0  0  0  0  0  0  0  0
  187.2060  174.2340  136.5330 O   0  0  0  0  0  0  0  0  0  0  0  0
  189.4950  174.3420  137.0670 N   0  0  0  0  0  1  0  0  0  0  0  0
  1  4  1  0  0  0  0
  1  2  2  0  0  0  0
  2  6  1  0  0  0  0
  4 12  1  0  0  0  0
  5 19  1  1  0  0  0
  6  3  2  0  0  0  0
  7 10  2  0  0  0  0
  7 11  1  0  0  0  0
  8 17  2  0  0  0  0
  9  3  1  0  0  0  0
 10 14  1  0  0  0  0
 11  1  1  0  0  0  0
 12  5  1  0  0  0  0
 13 18  1  0  0  0  0
 14  4  2  0  0  0  0
 14 15  1  0  0  0  0
 15  5  1  0  0  0  0
 16 11  2  0  0  0  0
 16  8  1  0  0  0  0
 17  2  1  0  0  0  0
 17 18  1  0  0  0  0
 18  9  2  0  0  0  0
 19 20  2  0  0  0  0
 21  7  1  0  0  0  0
 23 22  1  6  0  0  0
 23 21  1  0  0  0  0
 25 24  1  1  0  0  0
 25 23  1  0  0  0  0
 27 26  1  6  0  0  0
 27 28  1  0  0  0  0
 27 25  1  0  0  0  0
 29 31  1  0  0  0  0
 29 28  1  0  0  0  0
 30 29  2  0  0  0  0
M  END
>  <MODEL>
4

>  <REMARK>
 VINA RESULT:      -9.5      1.778      2.002
  Name = 
  7 active torsions:
  status: ('A' for Active; 'I' for Inactive)
    1  A    between atoms: C_1  and  O_24
    2  A    between atoms: C_2  and  C_13
    3  A    between atoms: C_9  and  C_22
    4  A    between atoms: C_9  and  O_23
    5  A    between atoms: C_15  and  O_23
    6  A    between atoms: C_19  and  C_22
    7  A    between atoms: C_19  and  O_24
                            x       y       z     vdW  Elec       q    Type
                         _______ _______ _______ _____ _____    ______ ____

>  <TORSDO>
F 7

$$$$
=
 OpenBabel10272400373D

 31 34  0  0  1  0  0  0  0  0999 V2000
  187.7340  177.7820  143.5820 C   0  0  0  0  0  0  0  0  0  0  0  0
  186.7520  177.9920  144.5970 C   0  0  0  0  0  0  0  0  0  0  0  0
  186.0330  177.9180  146.9410 C   0  0  0  0  0  3  0  0  0  0  0  0
  189.1080  177.5860  143.7850 C   0  0  0  0  0  0  0  0  0  0  0  0
  191.2210  177.2530  144.7820 C   0  0  2  0  0  3  0  0  0  0  0  0
  186.9620  177.6990  145.9190 C   0  0  0  0  0  3  0  0  0  0  0  0
  188.3270  177.9900  141.1630 C   0  0  0  0  0  0  0  0  0  0  0  0
  185.1090  178.7220  143.0020 C   0  0  0  0  0  3  0  0  0  0  0  0
  184.8190  178.4530  146.6410 C   0  0  0  0  0  3  0  0  0  0  0  0
  189.5900  177.4830  141.4650 C   0  0  0  0  0  3  0  0  0  0  0  0
  187.3760  178.0200  142.2710 C   0  0  0  0  0  0  0  0  0  0  0  0
  189.8320  177.3930  144.9470 O   0  0  0  0  0  0  0  0  0  0  0  0
  183.2510  179.3420  145.1590 O   0  0  0  0  0  1  0  0  0  0  0  0
  189.9530  177.3290  142.7880 C   0  0  0  0  0  0  0  0  0  0  0  0
  191.1670  177.1660  143.3400 O   0  0  0  0  0  0  0  0  0  0  0  0
  186.0400  178.4390  142.0240 C   0  0  0  0  0  3  0  0  0  0  0  0
  185.4230  178.4570  144.3140 C   0  0  0  0  0  0  0  0  0  0  0  0
  184.4960  178.7670  145.3300 C   0  0  0  0  0  0  0  0  0  0  0  0
  191.9080  176.0970  145.5440 C   0  0  0  0  0  3  0  0  0  0  0  0
  191.8870  176.0360  146.8980 C   0  0  0  0  0  2  0  0  0  0  0  0
  187.8460  178.0370  139.8180 O   0  0  0  0  0  0  0  0  0  0  0  0
  187.3930  176.6540  137.7130 C   0  0  0  0  0  1  0  0  0  0  0  0
  188.3460  177.4300  138.5830 C   0  0  1  0  0  3  0  0  0  0  0  0
  189.2940  178.0690  136.4900 O   0  0  0  0  0  1  0  0  0  0  0  0
  189.6480  177.8500  137.8400 C   0  0  2  0  0  3  0  0  0  0  0  0
  190.3060  175.2880  137.4640 C   0  0  0  0  0  1  0  0  0  0  0  0
  190.6680  176.6930  137.8780 C   0  0  2  0  0  3  0  0  0  0  0  0
  191.6640  176.7790  138.9170 O   0  0  0  0  0  0  0  0  0  0  0  0
  193.0740  176.8040  138.7200 C   0  0  0  0  0  0  0  0  0  0  0  0
  193.6420  176.4690  137.6230 O   0  0  0  0  0  0  0  0  0  0  0  0
  193.8680  177.2150  139.8430 N   0  0  0  0  0  1  0  0  0  0  0  0
  1  4  1  0  0  0  0
  1  2  2  0  0  0  0
  2  6  1  0  0  0  0
  4 12  1  0  0  0  0
  5 12  1  0  0  0  0
  5 19  1  1  0  0  0
  6  3  2  0  0  0  0
  7 10  2  0  0  0  0
  7 11  1  0  0  0  0
  8 17  2  0  0  0  0
  9  3  1  0  0  0  0
 10 14  1  0  0  0  0
 11  1  1  0  0  0  0
 13 18  1  0  0  0  0
 14 15  1  0  0  0  0
 14  4  2  0  0  0  0
 15  5  1  0  0  0  0
 16 11  2  0  0  0  0
 16  8  1  0  0  0  0
 17  2  1  0  0  0  0
 17 18  1  0  0  0  0
 18  9  2  0  0  0  0
 19 20  2  0  0  0  0
 21  7  1  0  0  0  0
 23 22  1  6  0  0  0
 23 21  1  0  0  0  0
 25 24  1  6  0  0  0
 25 27  1  0  0  0  0
 25 23  1  0  0  0  0
 27 26  1  1  0  0  0
 27 28  1  0  0  0  0
 29 28  1  0  0  0  0
 29 31  1  0  0  0  0
 30 29  2  0  0  0  0
M  END
>  <MODEL>
5

>  <REMARK>
 VINA RESULT:      -9.2      2.292      3.330
  Name = 
  7 active torsions:
  status: ('A' for Active; 'I' for Inactive)
    1  A    between atoms: C_1  and  O_24
    2  A    between atoms: C_2  and  C_13
    3  A    between atoms: C_9  and  C_22
    4  A    between atoms: C_9  and  O_23
    5  A    between atoms: C_15  and  O_23
    6  A    between atoms: C_19  and  C_22
    7  A    between atoms: C_19  and  O_24
                            x       y       z     vdW  Elec       q    Type
                         _______ _______ _______ _____ _____    ______ ____

>  <TORSDO>
F 7

$$$$
=
 OpenBabel10272400373D

 31 34  0  0  1  0  0  0  0  0999 V2000
  188.5960  177.6880  143.6770 C   0  0  0  0  0  0  0  0  0  0  0  0
  189.1940  177.3620  144.9310 C   0  0  0  0  0  0  0  0  0  0  0  0
  189.0970  177.1710  147.3750 C   0  0  0  0  0  3  0  0  0  0  0  0
  187.2270  177.8690  143.4330 C   0  0  0  0  0  0  0  0  0  0  0  0
  184.8940  178.1010  143.7020 C   0  0  2  0  0  3  0  0  0  0  0  0
  188.5510  177.5080  146.1330 C   0  0  0  0  0  3  0  0  0  0  0  0
  188.8410  177.7530  141.1900 C   0  0  0  0  0  0  0  0  0  0  0  0
  191.2940  176.8030  143.9040 C   0  0  0  0  0  3  0  0  0  0  0  0
  190.3580  176.6660  147.4400 C   0  0  0  0  0  3  0  0  0  0  0  0
  187.5340  178.2300  141.1090 C   0  0  0  0  0  3  0  0  0  0  0  0
  189.3740  177.5950  142.5410 C   0  0  0  0  0  0  0  0  0  0  0  0
  186.1540  177.9360  144.3030 O   0  0  0  0  0  0  0  0  0  0  0  0
  192.3540  175.9370  146.4760 O   0  0  0  0  0  1  0  0  0  0  0  0
  186.7500  178.2390  142.2460 C   0  0  0  0  0  0  0  0  0  0  0  0
  185.4180  178.3480  142.3780 O   0  0  0  0  0  0  0  0  0  0  0  0
  190.7300  177.1980  142.7080 C   0  0  0  0  0  3  0  0  0  0  0  0
  190.5560  176.9230  145.0570 C   0  0  0  0  0  0  0  0  0  0  0  0
  191.1060  176.4970  146.2840 C   0  0  0  0  0  0  0  0  0  0  0  0
  183.9580  179.1700  144.3130 C   0  0  0  0  0  3  0  0  0  0  0  0
  182.6100  179.0470  144.2450 C   0  0  0  0  0  2  0  0  0  0  0  0
  189.7410  177.8530  140.0840 O   0  0  0  0  0  0  0  0  0  0  0  0
  189.3000  178.6530  137.6950 C   0  0  0  0  0  1  0  0  0  0  0  0
  189.5760  177.5360  138.6640 C   0  0  1  0  0  3  0  0  0  0  0  0
  190.5930  175.4030  138.9910 O   0  0  0  0  0  1  0  0  0  0  0  0
  190.0790  176.2350  137.9710 C   0  0  2  0  0  3  0  0  0  0  0  0
  191.2000  176.1940  135.5470 C   0  0  0  0  0  1  0  0  0  0  0  0
  191.2350  176.5700  137.0070 C   0  0  2  0  0  3  0  0  0  0  0  0
  192.5510  176.5770  137.5970 O   0  0  0  0  0  0  0  0  0  0  0  0
  193.6520  175.7700  137.1910 C   0  0  0  0  0  0  0  0  0  0  0  0
  194.6740  176.2280  136.5720 O   0  0  0  0  0  0  0  0  0  0  0  0
  193.5640  174.3700  137.4930 N   0  0  0  0  0  1  0  0  0  0  0  0
  1  2  2  0  0  0  0
  2 17  1  0  0  0  0
  2  6  1  0  0  0  0
  3  9  1  0  0  0  0
  4  1  1  0  0  0  0
  4 12  1  0  0  0  0
  5 12  1  0  0  0  0
  5 19  1  1  0  0  0
  6  3  2  0  0  0  0
  7 11  1  0  0  0  0
  8 17  2  0  0  0  0
 10  7  2  0  0  0  0
 10 14  1  0  0  0  0
 11 16  2  0  0  0  0
 11  1  1  0  0  0  0
 14 15  1  0  0  0  0
 14  4  2  0  0  0  0
 15  5  1  0  0  0  0
 16  8  1  0  0  0  0
 17 18  1  0  0  0  0
 18 13  1  0  0  0  0
 18  9  2  0  0  0  0
 20 19  2  0  0  0  0
 21  7  1  0  0  0  0
 23 22  1  6  0  0  0
 23 21  1  0  0  0  0
 25 23  1  0  0  0  0
 25 24  1  1  0  0  0
 27 26  1  6  0  0  0
 27 28  1  0  0  0  0
 27 25  1  0  0  0  0
 29 31  1  0  0  0  0
 29 28  1  0  0  0  0
 30 29  2  0  0  0  0
M  END
>  <MODEL>
6

>  <REMARK>
 VINA RESULT:      -9.0      2.913      5.766
  Name = 
  7 active torsions:
  status: ('A' for Active; 'I' for Inactive)
    1  A    between atoms: C_1  and  O_24
    2  A    between atoms: C_2  and  C_13
    3  A    between atoms: C_9  and  C_22
    4  A    between atoms: C_9  and  O_23
    5  A    between atoms: C_15  and  O_23
    6  A    between atoms: C_19  and  C_22
    7  A    between atoms: C_19  and  O_24
                            x       y       z     vdW  Elec       q    Type
                         _______ _______ _______ _____ _____    ______ ____

>  <TORSDO>
F 7

$$$$
=
 OpenBabel10272400373D

 31 34  0  0  1  0  0  0  0  0999 V2000
  187.6400  177.9640  143.1000 C   0  0  0  0  0  0  0  0  0  0  0  0
  186.6400  178.1130  144.1070 C   0  0  0  0  0  0  0  0  0  0  0  0
  185.8810  177.9030  146.4310 C   0  0  0  0  0  3  0  0  0  0  0  0
  189.0100  177.7570  143.3150 C   0  0  0  0  0  0  0  0  0  0  0  0
  191.1070  177.3700  144.3270 C   0  0  2  0  0  3  0  0  0  0  0  0
  186.8270  177.7440  145.4150 C   0  0  0  0  0  3  0  0  0  0  0  0
  188.2740  178.3120  140.7070 C   0  0  0  0  0  0  0  0  0  0  0  0
  185.0230  178.9330  142.5300 C   0  0  0  0  0  3  0  0  0  0  0  0
  184.6720  178.4530  146.1420 C   0  0  0  0  0  3  0  0  0  0  0  0
  189.5330  177.7900  141.0010 C   0  0  0  0  0  3  0  0  0  0  0  0
  187.3040  178.2770  141.7990 C   0  0  0  0  0  0  0  0  0  0  0  0
  189.7150  177.4980  144.4760 O   0  0  0  0  0  0  0  0  0  0  0  0
  183.1270  179.4250  144.6870 O   0  0  0  0  0  1  0  0  0  0  0  0
  189.8740  177.5600  142.3200 C   0  0  0  0  0  0  0  0  0  0  0  0
  191.0770  177.3660  142.8810 O   0  0  0  0  0  0  0  0  0  0  0  0
  185.9710  178.7080  141.5530 C   0  0  0  0  0  3  0  0  0  0  0  0
  185.3150  178.5930  143.8290 C   0  0  0  0  0  0  0  0  0  0  0  0
  184.3700  178.8420  144.8450 C   0  0  0  0  0  0  0  0  0  0  0  0
  191.7830  176.1720  145.0330 C   0  0  0  0  0  3  0  0  0  0  0  0
  191.8850  176.1160  146.3840 C   0  0  0  0  0  2  0  0  0  0  0  0
  187.8160  178.4360  139.3590 O   0  0  0  0  0  0  0  0  0  0  0  0
  188.9110  179.0990  137.1440 C   0  0  0  0  0  1  0  0  0  0  0  0
  188.4160  178.0340  138.0860 C   0  0  1  0  0  3  0  0  0  0  0  0
  190.2840  176.8240  137.2290 O   0  0  0  0  0  1  0  0  0  0  0  0
  188.9960  176.6230  137.7730 C   0  0  2  0  0  3  0  0  0  0  0  0
  186.6250  175.9330  136.7530 C   0  0  0  0  0  1  0  0  0  0  0  0
  188.1320  175.9310  136.6980 C   0  0  2  0  0  3  0  0  0  0  0  0
  188.7130  174.7540  136.1000 O   0  0  0  0  0  0  0  0  0  0  0  0
  189.1000  173.5710  136.7920 C   0  0  0  0  0  0  0  0  0  0  0  0
  190.1790  173.4690  137.4720 O   0  0  0  0  0  0  0  0  0  0  0  0
  188.2130  172.4470  136.6810 N   0  0  0  0  0  1  0  0  0  0  0  0
  1  4  1  0  0  0  0
  1  2  2  0  0  0  0
  2  6  1  0  0  0  0
  4 12  1  0  0  0  0
  5 12  1  0  0  0  0
  5 19  1  1  0  0  0
  6  3  2  0  0  0  0
  7 10  2  0  0  0  0
  7 11  1  0  0  0  0
  8 17  2  0  0  0  0
  9  3  1  0  0  0  0
 10 14  1  0  0  0  0
 11  1  1  0  0  0  0
 13 18  1  0  0  0  0
 14 15  1  0  0  0  0
 14  4  2  0  0  0  0
 15  5  1  0  0  0  0
 16 11  2  0  0  0  0
 16  8  1  0  0  0  0
 17  2  1  0  0  0  0
 17 18  1  0  0  0  0
 18  9  2  0  0  0  0
 19 20  2  0  0  0  0
 21  7  1  0  0  0  0
 23 22  1  1  0  0  0
 23 21  1  0  0  0  0
 25 24  1  6  0  0  0
 25 23  1  0  0  0  0
 27 26  1  1  0  0  0
 27 25  1  0  0  0  0
 28 27  1  0  0  0  0
 28 29  1  0  0  0  0
 29 30  2  0  0  0  0
 31 29  1  0  0  0  0
M  END
>  <MODEL>
7

>  <REMARK>
 VINA RESULT:      -8.8      2.371      3.011
  Name = 
  7 active torsions:
  status: ('A' for Active; 'I' for Inactive)
    1  A    between atoms: C_1  and  O_24
    2  A    between atoms: C_2  and  C_13
    3  A    between atoms: C_9  and  C_22
    4  A    between atoms: C_9  and  O_23
    5  A    between atoms: C_15  and  O_23
    6  A    between atoms: C_19  and  C_22
    7  A    between atoms: C_19  and  O_24
                            x       y       z     vdW  Elec       q    Type
                         _______ _______ _______ _____ _____    ______ ____

>  <TORSDO>
F 7

$$$$
=
 OpenBabel10272400373D

 31 34  0  0  1  0  0  0  0  0999 V2000
  187.7200  177.8110  143.5900 C   0  0  0  0  0  0  0  0  0  0  0  0
  186.7660  177.9990  144.6340 C   0  0  0  0  0  0  0  0  0  0  0  0
  186.1200  177.9090  146.9990 C   0  0  0  0  0  3  0  0  0  0  0  0
  189.1040  177.6440  143.7500 C   0  0  0  0  0  0  0  0  0  0  0  0
  191.2530  177.3570  144.6810 C   0  0  2  0  0  3  0  0  0  0  0  0
  187.0220  177.7100  145.9490 C   0  0  0  0  0  3  0  0  0  0  0  0
  188.2350  178.0320  141.1530 C   0  0  0  0  0  0  0  0  0  0  0  0
  185.0590  178.6940  143.0910 C   0  0  0  0  0  3  0  0  0  0  0  0
  184.8870  178.4170  146.7370 C   0  0  0  0  0  3  0  0  0  0  0  0
  189.5170  177.5530  141.4160 C   0  0  0  0  0  3  0  0  0  0  0  0
  187.3180  178.0410  142.2900 C   0  0  0  0  0  0  0  0  0  0  0  0
  189.8670  177.4670  144.8890 O   0  0  0  0  0  0  0  0  0  0  0  0
  183.2550  179.2730  145.3050 O   0  0  0  0  0  1  0  0  0  0  0  0
  189.9240  177.4060  142.7270 C   0  0  0  0  0  0  0  0  0  0  0  0
  191.1560  177.2690  143.2410 O   0  0  0  0  0  0  0  0  0  0  0  0
  185.9650  178.4320  142.0840 C   0  0  0  0  0  3  0  0  0  0  0  0
  185.4190  178.4350  144.3920 C   0  0  0  0  0  0  0  0  0  0  0  0
  184.5160  178.7250  145.4360 C   0  0  0  0  0  0  0  0  0  0  0  0
  191.9880  176.2150  145.4210 C   0  0  0  0  0  3  0  0  0  0  0  0
  191.7590  175.9650  146.7340 C   0  0  0  0  0  2  0  0  0  0  0  0
  187.7120  178.0690  139.8240 O   0  0  0  0  0  0  0  0  0  0  0  0
  189.0650  179.0290  137.8760 C   0  0  0  0  0  1  0  0  0  0  0  0
  188.3490  177.8720  138.5210 C   0  0  1  0  0  3  0  0  0  0  0  0
  189.6960  176.7520  136.9020 O   0  0  0  0  0  1  0  0  0  0  0  0
  188.7460  176.4930  137.9150 C   0  0  2  0  0  3  0  0  0  0  0  0
  187.6220  174.5980  136.4050 C   0  0  0  0  0  1  0  0  0  0  0  0
  187.5150  175.8410  137.2520 C   0  0  2  0  0  3  0  0  0  0  0  0
  186.4680  176.7510  136.8600 O   0  0  0  0  0  0  0  0  0  0  0  0
  186.2400  177.2430  135.5430 C   0  0  0  0  0  0  0  0  0  0  0  0
  187.0470  178.0240  134.9300 O   0  0  0  0  0  0  0  0  0  0  0  0
  185.0180  176.8320  134.9100 N   0  0  0  0  0  1  0  0  0  0  0  0
  1  4  1  0  0  0  0
  1  2  2  0  0  0  0
  2  6  1  0  0  0  0
  4 12  1  0  0  0  0
  5 12  1  0  0  0  0
  5 19  1  1  0  0  0
  6  3  2  0  0  0  0
  7 10  2  0  0  0  0
  7 11  1  0  0  0  0
  8 17  2  0  0  0  0
  9  3  1  0  0  0  0
 10 14  1  0  0  0  0
 11  1  1  0  0  0  0
 13 18  1  0  0  0  0
 14 15  1  0  0  0  0
 14  4  2  0  0  0  0
 15  5  1  0  0  0  0
 16 11  2  0  0  0  0
 16  8  1  0  0  0  0
 17  2  1  0  0  0  0
 17 18  1  0  0  0  0
 18  9  2  0  0  0  0
 19 20  2  0  0  0  0
 21  7  1  0  0  0  0
 23 22  1  1  0  0  0
 23 21  1  0  0  0  0
 25 24  1  6  0  0  0
 25 23  1  0  0  0  0
 27 26  1  6  0  0  0
 27 25  1  0  0  0  0
 28 27  1  0  0  0  0
 29 28  1  0  0  0  0
 30 29  2  0  0  0  0
 31 29  1  0  0  0  0
M  END
>  <MODEL>
8

>  <REMARK>
 VINA RESULT:      -8.8      1.730      2.073
  Name = 
  7 active torsions:
  status: ('A' for Active; 'I' for Inactive)
    1  A    between atoms: C_1  and  O_24
    2  A    between atoms: C_2  and  C_13
    3  A    between atoms: C_9  and  C_22
    4  A    between atoms: C_9  and  O_23
    5  A    between atoms: C_15  and  O_23
    6  A    between atoms: C_19  and  C_22
    7  A    between atoms: C_19  and  O_24
                            x       y       z     vdW  Elec       q    Type
                         _______ _______ _______ _____ _____    ______ ____

>  <TORSDO>
F 7

$$$$
=
 OpenBabel10272400373D

 31 34  0  0  1  0  0  0  0  0999 V2000
  186.5180  178.0780  143.9810 C   0  0  0  0  0  0  0  0  0  0  0  0
  187.4590  177.7400  145.0000 C   0  0  0  0  0  0  0  0  0  0  0  0
  189.6660  176.9350  145.7070 C   0  0  0  0  0  3  0  0  0  0  0  0
  186.8050  178.2890  142.6240 C   0  0  0  0  0  0  0  0  0  0  0  0
  187.9060  178.4360  140.5430 C   0  0  2  0  0  3  0  0  0  0  0  0
  188.7110  177.2490  144.7360 C   0  0  0  0  0  3  0  0  0  0  0  0
  184.2530  178.9820  143.4350 C   0  0  0  0  0  0  0  0  0  0  0  0
  185.8950  178.2390  146.7560 C   0  0  0  0  0  3  0  0  0  0  0  0
  189.3670  177.1090  147.0220 C   0  0  0  0  0  3  0  0  0  0  0  0
  184.5640  178.8500  142.0830 C   0  0  0  0  0  3  0  0  0  0  0  0
  185.2530  178.4680  144.3670 C   0  0  0  0  0  0  0  0  0  0  0  0
  187.9670  178.0880  141.9030 O   0  0  0  0  0  0  0  0  0  0  0  0
  187.9520  177.7530  148.7620 O   0  0  0  0  0  1  0  0  0  0  0  0
  185.8590  178.5360  141.7190 C   0  0  0  0  0  0  0  0  0  0  0  0
  186.4770  178.6510  140.5330 O   0  0  0  0  0  0  0  0  0  0  0  0
  184.9700  178.4850  145.7620 C   0  0  0  0  0  3  0  0  0  0  0  0
  187.1520  177.8090  146.4010 C   0  0  0  0  0  0  0  0  0  0  0  0
  188.1190  177.5800  147.4020 C   0  0  0  0  0  0  0  0  0  0  0  0
  188.4850  177.4210  139.5300 C   0  0  0  0  0  3  0  0  0  0  0  0
  189.8020  177.4220  139.2070 C   0  0  0  0  0  2  0  0  0  0  0  0
  182.9050  179.1650  143.8740 O   0  0  0  0  0  0  0  0  0  0  0  0
  180.4750  178.3770  144.0170 C   0  0  0  0  0  1  0  0  0  0  0  0
  181.6230  178.9220  143.2100 C   0  0  1  0  0  3  0  0  0  0  0  0
  179.9830  180.2740  142.1280 O   0  0  0  0  0  1  0  0  0  0  0  0
  181.1740  179.5620  141.8640 C   0  0  2  0  0  3  0  0  0  0  0  0
  179.9820  177.2680  141.1940 C   0  0  0  0  0  1  0  0  0  0  0  0
  180.8450  178.4540  140.8420 C   0  0  2  0  0  3  0  0  0  0  0  0
  181.8710  178.1880  139.8660 O   0  0  0  0  0  0  0  0  0  0  0  0
  182.0560  176.9620  139.1640 C   0  0  0  0  0  0  0  0  0  0  0  0
  182.7270  175.9760  139.6270 O   0  0  0  0  0  0  0  0  0  0  0  0
  181.4590  176.8750  137.8610 N   0  0  0  0  0  1  0  0  0  0  0  0
  1 11  1  0  0  0  0
  1  2  2  0  0  0  0
  2 17  1  0  0  0  0
  3  9  1  0  0  0  0
  4  1  1  0  0  0  0
  5 19  1  6  0  0  0
  5 12  1  0  0  0  0
  6  2  1  0  0  0  0
  6  3  2  0  0  0  0
  7 21  1  0  0  0  0
  7 11  1  0  0  0  0
  9 18  2  0  0  0  0
 10  7  2  0  0  0  0
 11 16  2  0  0  0  0
 12  4  1  0  0  0  0
 14 10  1  0  0  0  0
 14  4  2  0  0  0  0
 15  5  1  0  0  0  0
 15 14  1  0  0  0  0
 16  8  1  0  0  0  0
 17  8  2  0  0  0  0
 17 18  1  0  0  0  0
 18 13  1  0  0  0  0
 20 19  2  0  0  0  0
 23 21  1  0  0  0  0
 23 22  1  1  0  0  0
 25 24  1  1  0  0  0
 25 23  1  0  0  0  0
 27 26  1  1  0  0  0
 27 25  1  0  0  0  0
 28 27  1  0  0  0  0
 29 30  2  0  0  0  0
 29 28  1  0  0  0  0
 31 29  1  0  0  0  0
M  END
>  <MODEL>
9

>  <REMARK>
 VINA RESULT:      -8.7      2.863      6.170
  Name = 
  7 active torsions:
  status: ('A' for Active; 'I' for Inactive)
    1  A    between atoms: C_1  and  O_24
    2  A    between atoms: C_2  and  C_13
    3  A    between atoms: C_9  and  C_22
    4  A    between atoms: C_9  and  O_23
    5  A    between atoms: C_15  and  O_23
    6  A    between atoms: C_19  and  C_22
    7  A    between atoms: C_19  and  O_24
                            x       y       z     vdW  Elec       q    Type
                         _______ _______ _______ _____ _____    ______ ____

>  <TORSDO>
F 7

$$$$
