=
 OpenBabel10272401053D

 27 31  0  0  0  0  0  0  0  0999 V2000
  187.1640  178.1710  141.5700 N   0  0  0  0  0  0  0  0  0  0  0  0
  187.7010  177.7410  143.9570 C   0  0  0  0  0  0  0  0  0  0  0  0
  189.6870  177.0840  142.5200 N   0  0  0  0  0  0  0  0  0  0  0  0
  189.9890  176.8950  147.3090 C   0  0  0  0  0  3  0  0  0  0  0  0
  192.0720  176.1790  148.3650 F   0  0  0  0  0  0  0  0  0  0  0  0
  187.2390  177.8630  145.2380 N   0  0  0  0  0  0  0  0  0  0  0  0
  191.2520  176.5310  144.7500 C   0  0  0  0  0  2  0  0  0  0  0  0
  190.1960  177.2030  138.9840 C   0  0  0  0  0  0  0  0  0  0  0  0
  191.9710  176.2650  146.0450 C   0  0  0  0  0  3  0  0  0  0  0  0
  191.2640  176.8400  138.0170 C   0  0  0  0  0  1  0  0  0  0  0  0
  189.8220  177.0110  144.9220 C   0  0  0  0  0  0  0  0  0  0  0  0
  186.8400  178.0700  142.9610 C   0  0  0  0  0  0  0  0  0  0  0  0
  191.3830  176.4330  147.2280 C   0  0  0  0  0  0  0  0  0  0  0  0
  189.2780  177.1590  146.2110 C   0  0  0  0  0  0  0  0  0  0  0  0
  188.1800  177.8770  140.8260 C   0  0  0  0  0  0  0  0  0  0  0  0
  189.0410  177.3020  143.7790 C   0  0  0  0  0  0  0  0  0  0  0  0
  190.3740  176.9650  140.3450 C   0  0  0  0  0  3  0  0  0  0  0  0
  187.9720  177.5910  146.3420 C   0  0  0  0  0  3  0  0  0  0  0  0
  189.0190  177.7920  138.5370 C   0  0  0  0  0  3  0  0  0  0  0  0
  188.0230  178.1210  139.4540 C   0  0  0  0  0  3  0  0  0  0  0  0
  189.3860  177.3010  141.2820 C   0  0  0  0  0  0  0  0  0  0  0  0
  182.7600  179.0080  143.8040 C   0  0  0  0  0  3  0  0  0  0  0  0
  185.4320  178.4370  143.2710 C   0  0  0  0  0  0  0  0  0  0  0  0
  185.0350  178.8040  144.5650 C   0  0  0  0  0  3  0  0  0  0  0  0
  183.6980  179.0970  144.8350 C   0  0  0  0  0  3  0  0  0  0  0  0
  183.1520  178.6340  142.5570 N   0  0  0  0  0  0  0  0  0  0  0  0
  184.4510  178.3450  142.2740 C   0  0  0  0  0  3  0  0  0  0  0  0
  1 12  1  0  0  0  0
  2  6  1  0  0  0  0
  3 16  1  0  0  0  0
  6 18  2  0  0  0  0
  7 11  1  0  0  0  0
  7  9  1  0  0  0  0
  8 17  2  0  0  0  0
  9 13  2  0  0  0  0
 10  8  1  0  0  0  0
 11 14  1  0  0  0  0
 12 23  1  0  0  0  0
 12  2  2  0  0  0  0
 13  4  1  0  0  0  0
 13  5  1  0  0  0  0
 14 18  1  0  0  0  0
 14  4  2  0  0  0  0
 15 21  1  0  0  0  0
 15  1  2  0  0  0  0
 16  2  1  0  0  0  0
 16 11  2  0  0  0  0
 17 21  1  0  0  0  0
 19  8  1  0  0  0  0
 19 20  2  0  0  0  0
 20 15  1  0  0  0  0
 21  3  2  0  0  0  0
 22 25  1  0  0  0  0
 23 24  1  0  0  0  0
 24 25  2  0  0  0  0
 26 22  2  0  0  0  0
 27 26  1  0  0  0  0
 27 23  2  0  0  0  0
M  END
>  <MODEL>
1

>  <REMARK>
 VINA RESULT:     -11.4      0.000      0.000
  Name = 
  1 active torsions:
  status: ('A' for Active; 'I' for Inactive)
    1  A    between atoms: C_9  and  C_15
                            x       y       z     vdW  Elec       q    Type
                         _______ _______ _______ _____ _____    ______ ____

>  <TORSDO>
F 1

$$$$
=
 OpenBabel10272401053D

 27 31  0  0  0  0  0  0  0  0999 V2000
  187.4690  177.9450  145.1390 N   0  0  0  0  0  0  0  0  0  0  0  0
  189.0030  177.5880  143.2180 C   0  0  0  0  0  0  0  0  0  0  0  0
  186.6670  178.0650  142.3480 N   0  0  0  0  0  0  0  0  0  0  0  0
  190.3420  177.5830  139.2950 C   0  0  0  0  0  3  0  0  0  0  0  0
  189.9620  177.8160  136.8940 F   0  0  0  0  0  0  0  0  0  0  0  0
  190.3040  177.3590  142.8640 N   0  0  0  0  0  0  0  0  0  0  0  0
  187.5410  178.0920  139.7100 C   0  0  0  0  0  3  0  0  0  0  0  0
  183.5970  178.7430  144.0500 C   0  0  0  0  0  0  0  0  0  0  0  0
  188.1580  178.0660  138.3370 C   0  0  0  0  0  3  0  0  0  0  0  0
  182.1800  179.0100  143.6900 C   0  0  0  0  0  1  0  0  0  0  0  0
  188.5260  177.8350  140.8360 C   0  0  0  0  0  0  0  0  0  0  0  0
  188.7180  177.5730  144.5450 C   0  0  0  0  0  0  0  0  0  0  0  0
  189.4550  177.8290  138.1490 C   0  0  0  0  0  0  0  0  0  0  0  0
  189.8810  177.5910  140.5480 C   0  0  0  0  0  0  0  0  0  0  0  0
  186.2810  178.2270  144.7130 C   0  0  0  0  0  0  0  0  0  0  0  0
  188.0700  177.8390  142.1760 C   0  0  0  0  0  0  0  0  0  0  0  0
  184.5360  178.4860  143.0520 C   0  0  0  0  0  2  0  0  0  0  0  0
  190.7570  177.3530  141.5890 C   0  0  0  0  0  3  0  0  0  0  0  0
  183.9960  178.7590  145.3810 C   0  0  0  0  0  3  0  0  0  0  0  0
  185.3270  178.5010  145.7030 C   0  0  0  0  0  3  0  0  0  0  0  0
  185.8800  178.2350  143.3600 C   0  0  0  0  0  0  0  0  0  0  0  0
  191.6350  176.4800  147.4660 C   0  0  0  0  0  3  0  0  0  0  0  0
  189.7650  177.2140  145.5380 C   0  0  0  0  0  0  0  0  0  0  0  0
  190.9320  176.5320  145.1640 C   0  0  0  0  0  3  0  0  0  0  0  0
  191.8740  176.1670  146.1260 C   0  0  0  0  0  3  0  0  0  0  0  0
  190.4920  177.1260  147.8210 N   0  0  0  0  0  0  0  0  0  0  0  0
  189.5620  177.4890  146.8980 C   0  0  0  0  0  3  0  0  0  0  0  0
  2 12  1  0  0  0  0
  3 21  2  0  0  0  0
  4 14  1  0  0  0  0
  5 13  1  0  0  0  0
  6  2  1  0  0  0  0
  7 11  1  0  0  0  0
  8 19  2  0  0  0  0
  9  7  2  0  0  0  0
 10  8  1  0  0  0  0
 11 16  1  0  0  0  0
 12  1  2  0  0  0  0
 12 23  1  0  0  0  0
 13  9  1  0  0  0  0
 13  4  2  0  0  0  0
 14 11  2  0  0  0  0
 14 18  1  0  0  0  0
 15  1  1  0  0  0  0
 15 20  2  0  0  0  0
 16  3  1  0  0  0  0
 16  2  2  0  0  0  0
 17 21  1  0  0  0  0
 17  8  1  0  0  0  0
 18  6  2  0  0  0  0
 19 20  1  0  0  0  0
 21 15  1  0  0  0  0
 22 26  1  0  0  0  0
 23 27  1  0  0  0  0
 24 23  2  0  0  0  0
 24 25  1  0  0  0  0
 25 22  2  0  0  0  0
 27 26  2  0  0  0  0
M  END
>  <MODEL>
2

>  <REMARK>
 VINA RESULT:     -11.3      2.530      6.958
  Name = 
  1 active torsions:
  status: ('A' for Active; 'I' for Inactive)
    1  A    between atoms: C_9  and  C_15
                            x       y       z     vdW  Elec       q    Type
                         _______ _______ _______ _____ _____    ______ ____

>  <TORSDO>
F 1

$$$$
=
 OpenBabel10272401053D

 27 31  0  0  1  0  0  0  0  0999 V2000
  187.1370  177.8790  141.4940 N   0  0  0  0  0  0  0  0  0  0  0  0
  189.2660  177.3740  142.6700 C   0  0  0  0  0  0  0  0  0  0  0  0
  187.4600  177.8750  144.3830 N   0  0  0  0  0  0  0  0  0  0  0  0
  191.8260  176.4630  145.8010 C   0  0  0  0  0  3  0  0  0  0  0  0
  192.3040  176.2100  148.1830 F   0  0  0  0  0  0  0  0  0  0  0  0
  190.5660  176.9890  142.4950 N   0  0  0  0  0  0  0  0  0  0  0  0
  189.1480  177.2480  146.5010 C   0  0  0  0  0  3  0  0  0  0  0  0
  184.0110  178.7350  144.0080 C   0  0  0  0  0  0  0  0  0  0  0  0
  190.1760  176.8860  147.5390 C   0  0  0  0  0  3  0  0  0  0  0  0
  182.8640  179.0740  144.8880 C   0  0  0  0  0  1  0  0  0  0  0  0
  189.6510  177.1520  145.0710 C   0  0  0  0  0  0  0  0  0  0  0  0
  188.5450  177.6240  141.5480 C   0  0  0  0  0  0  0  0  0  0  0  0
  191.4150  176.5250  147.2110 C   0  0  0  0  0  0  0  0  0  0  0  0
  190.9780  176.7630  144.8140 C   0  0  0  0  0  0  0  0  0  0  0  0
  186.1960  178.1000  142.3540 C   0  0  2  0  0  3  0  0  0  0  0  0
  188.7770  177.4600  144.0020 C   0  0  0  0  0  0  0  0  0  0  0  0
  185.2640  178.4760  144.5590 C   0  0  0  0  0  3  0  0  0  0  0  0
  191.4140  176.6890  143.5060 C   0  0  0  0  0  3  0  0  0  0  0  0
  183.8380  178.6630  142.6300 C   0  0  0  0  0  3  0  0  0  0  0  0
  184.9250  178.3510  141.8160 C   0  0  0  0  0  3  0  0  0  0  0  0
  186.3650  178.1490  143.7540 C   0  0  0  0  0  0  0  0  0  0  0  0
  190.3690  177.3770  137.6950 C   0  0  0  0  0  3  0  0  0  0  0  0
  189.1920  177.5810  140.2100 C   0  0  0  0  0  0  0  0  0  0  0  0
  188.8290  178.4700  139.1870 C   0  0  0  0  0  3  0  0  0  0  0  0
  189.4210  178.3750  137.9280 C   0  0  0  0  0  3  0  0  0  0  0  0
  190.7010  176.5080  138.6870 N   0  0  0  0  0  0  0  0  0  0  0  0
  190.1350  176.5850  139.9210 C   0  0  0  0  0  3  0  0  0  0  0  0
  1 12  2  0  0  0  0
  1 15  1  0  0  0  0
  2 16  1  0  0  0  0
  4 13  2  0  0  0  0
  6  2  2  0  0  0  0
  6 18  1  0  0  0  0
  7  9  2  0  0  0  0
  8 17  2  0  0  0  0
  8 10  1  0  0  0  0
 11  7  1  0  0  0  0
 12  2  1  0  0  0  0
 13  9  1  0  0  0  0
 13  5  1  0  0  0  0
 14 11  1  0  0  0  0
 14  4  1  0  0  0  0
 15 20  1  6  0  0  0
 15 21  1  0  0  0  0
 16  3  1  0  0  0  0
 16 11  2  0  0  0  0
 18 14  2  0  0  0  0
 19  8  1  0  0  0  0
 20 19  2  0  0  0  0
 21  3  2  0  0  0  0
 21 17  1  0  0  0  0
 22 25  2  0  0  0  0
 22 26  1  0  0  0  0
 23 12  1  0  0  0  0
 24 23  2  0  0  0  0
 25 24  1  0  0  0  0
 26 27  2  0  0  0  0
 27 23  1  0  0  0  0
M  END
>  <MODEL>
3

>  <REMARK>
 VINA RESULT:     -11.3      1.112      5.320
  Name = 
  1 active torsions:
  status: ('A' for Active; 'I' for Inactive)
    1  A    between atoms: C_9  and  C_15
                            x       y       z     vdW  Elec       q    Type
                         _______ _______ _______ _____ _____    ______ ____

>  <TORSDO>
F 1

$$$$
=
 OpenBabel10272401053D

 27 31  0  0  0  0  0  0  0  0999 V2000
  189.8710  177.2090  142.8440 N   0  0  0  0  0  0  0  0  0  0  0  0
  187.8050  177.7050  144.1320 C   0  0  0  0  0  0  0  0  0  0  0  0
  187.3860  178.1530  141.6690 N   0  0  0  0  0  0  0  0  0  0  0  0
  183.8070  178.5330  144.8490 C   0  0  0  0  0  3  0  0  0  0  0  0
  181.5680  179.1430  144.0870 F   0  0  0  0  0  0  0  0  0  0  0  0
  187.2390  177.6740  145.3760 N   0  0  0  0  0  0  0  0  0  0  0  0
  184.6960  178.6900  142.1170 C   0  0  0  0  0  2  0  0  0  0  0  0
  189.5060  177.8400  138.8080 C   0  0  0  0  0  0  0  0  0  0  0  0
  183.2690  178.9610  142.5140 C   0  0  0  0  0  3  0  0  0  0  0  0
  189.4160  178.0820  137.3450 C   0  0  0  0  0  1  0  0  0  0  0  0
  185.6030  178.3230  143.2770 C   0  0  0  0  0  0  0  0  0  0  0  0
  189.1240  177.3950  144.0520 C   0  0  0  0  0  0  0  0  0  0  0  0
  182.8620  178.8890  143.7800 C   0  0  0  0  0  0  0  0  0  0  0  0
  185.0900  178.2720  144.5860 C   0  0  0  0  0  0  0  0  0  0  0  0
  189.6630  177.3960  141.5810 C   0  0  0  0  0  0  0  0  0  0  0  0
  186.9670  178.0380  143.0330 C   0  0  0  0  0  0  0  0  0  0  0  0
  188.4200  178.1250  139.6330 C   0  0  0  0  0  3  0  0  0  0  0  0
  185.9360  177.9420  145.6260 C   0  0  0  0  0  3  0  0  0  0  0  0
  190.6700  177.3180  139.3610 C   0  0  0  0  0  3  0  0  0  0  0  0
  190.7430  177.1020  140.7350 C   0  0  0  0  0  3  0  0  0  0  0  0
  188.4740  177.9030  141.0160 C   0  0  0  0  0  0  0  0  0  0  0  0
  191.4940  176.7540  147.5460 C   0  0  0  0  0  3  0  0  0  0  0  0
  189.9170  177.1450  145.2850 C   0  0  0  0  0  0  0  0  0  0  0  0
  189.3970  177.4080  146.5610 C   0  0  0  0  0  3  0  0  0  0  0  0
  190.1820  177.2070  147.6960 C   0  0  0  0  0  3  0  0  0  0  0  0
  191.9950  176.5190  146.3040 N   0  0  0  0  0  0  0  0  0  0  0  0
  191.2450  176.7090  145.1850 C   0  0  0  0  0  3  0  0  0  0  0  0
  1 12  1  0  0  0  0
  2  6  1  0  0  0  0
  3 16  1  0  0  0  0
  6 18  2  0  0  0  0
  7  9  1  0  0  0  0
  7 11  1  0  0  0  0
  8 19  1  0  0  0  0
  8 17  2  0  0  0  0
  9 13  2  0  0  0  0
 10  8  1  0  0  0  0
 11 14  1  0  0  0  0
 12  2  2  0  0  0  0
 12 23  1  0  0  0  0
 13  5  1  0  0  0  0
 13  4  1  0  0  0  0
 14  4  2  0  0  0  0
 14 18  1  0  0  0  0
 15  1  2  0  0  0  0
 16 11  2  0  0  0  0
 16  2  1  0  0  0  0
 17 21  1  0  0  0  0
 19 20  2  0  0  0  0
 20 15  1  0  0  0  0
 21 15  1  0  0  0  0
 21  3  2  0  0  0  0
 22 25  1  0  0  0  0
 23 24  1  0  0  0  0
 24 25  2  0  0  0  0
 26 22  2  0  0  0  0
 27 23  2  0  0  0  0
 27 26  1  0  0  0  0
M  END
>  <MODEL>
4

>  <REMARK>
 VINA RESULT:     -11.2      2.490      5.731
  Name = 
  1 active torsions:
  status: ('A' for Active; 'I' for Inactive)
    1  A    between atoms: C_9  and  C_15
                            x       y       z     vdW  Elec       q    Type
                         _______ _______ _______ _____ _____    ______ ____

>  <TORSDO>
F 1

$$$$
=
 OpenBabel10272401053D

 27 31  0  0  1  0  0  0  0  0999 V2000
  189.8500  177.6300  142.0200 N   0  0  0  0  0  0  0  0  0  0  0  0
  187.4550  178.0890  141.5460 C   0  0  0  0  0  0  0  0  0  0  0  0
  187.7630  177.7330  144.0400 N   0  0  0  0  0  0  0  0  0  0  0  0
  183.4800  179.0110  142.2820 C   0  0  0  0  0  3  0  0  0  0  0  0
  181.5950  179.3370  143.8000 F   0  0  0  0  0  0  0  0  0  0  0  0
  186.5590  178.4110  140.5640 N   0  0  0  0  0  0  0  0  0  0  0  0
  185.1090  178.3700  144.5660 C   0  0  0  0  0  3  0  0  0  0  0  0
  190.6700  177.0080  145.9890 C   0  0  0  0  0  0  0  0  0  0  0  0
  183.6520  178.7280  144.6930 C   0  0  0  0  0  3  0  0  0  0  0  0
  190.9990  176.7530  147.4160 C   0  0  0  0  0  1  0  0  0  0  0  0
  185.6290  178.3890  143.1400 C   0  0  0  0  0  0  0  0  0  0  0  0
  188.7270  177.8270  141.1530 C   0  0  0  0  0  0  0  0  0  0  0  0
  182.9020  179.0230  143.6330 C   0  0  0  0  0  0  0  0  0  0  0  0
  184.7650  178.7100  142.0770 C   0  0  0  0  0  0  0  0  0  0  0  0
  190.0310  177.4840  143.2920 C   0  0  2  0  0  3  0  0  0  0  0  0
  186.9860  178.0760  142.8880 C   0  0  0  0  0  0  0  0  0  0  0  0
  189.3510  177.2350  145.6040 C   0  0  0  0  0  3  0  0  0  0  0  0
  185.2600  178.7140  140.7870 C   0  0  0  0  0  3  0  0  0  0  0  0
  191.6790  177.0330  145.0330 C   0  0  0  0  0  3  0  0  0  0  0  0
  191.3560  177.2670  143.6980 C   0  0  0  0  0  3  0  0  0  0  0  0
  189.0110  177.4820  144.2670 C   0  0  0  0  0  0  0  0  0  0  0  0
  189.6530  177.6200  136.9890 C   0  0  0  0  0  3  0  0  0  0  0  0
  189.0780  177.7890  139.7080 C   0  0  0  0  0  0  0  0  0  0  0  0
  188.9320  178.9160  138.8850 C   0  0  0  0  0  3  0  0  0  0  0  0
  189.2250  178.8370  137.5240 C   0  0  0  0  0  3  0  0  0  0  0  0
  189.7740  176.5280  137.7920 N   0  0  0  0  0  0  0  0  0  0  0  0
  189.4930  176.5860  139.1210 C   0  0  0  0  0  3  0  0  0  0  0  0
  1 15  1  0  0  0  0
  2 16  1  0  0  0  0
  3 21  2  0  0  0  0
  4 13  2  0  0  0  0
  6 18  1  0  0  0  0
  6  2  2  0  0  0  0
  7  9  2  0  0  0  0
  8 10  1  0  0  0  0
 11  7  1  0  0  0  0
 12  2  1  0  0  0  0
 12  1  2  0  0  0  0
 13  5  1  0  0  0  0
 13  9  1  0  0  0  0
 14  4  1  0  0  0  0
 14 11  1  0  0  0  0
 15 20  1  6  0  0  0
 15 21  1  0  0  0  0
 16 11  2  0  0  0  0
 16  3  1  0  0  0  0
 17  8  2  0  0  0  0
 18 14  2  0  0  0  0
 19  8  1  0  0  0  0
 20 19  2  0  0  0  0
 21 17  1  0  0  0  0
 22 25  2  0  0  0  0
 22 26  1  0  0  0  0
 23 12  1  0  0  0  0
 24 23  2  0  0  0  0
 25 24  1  0  0  0  0
 26 27  2  0  0  0  0
 27 23  1  0  0  0  0
M  END
>  <MODEL>
5

>  <REMARK>
 VINA RESULT:     -11.0      2.642      6.689
  Name = 
  1 active torsions:
  status: ('A' for Active; 'I' for Inactive)
    1  A    between atoms: C_9  and  C_15
                            x       y       z     vdW  Elec       q    Type
                         _______ _______ _______ _____ _____    ______ ____

>  <TORSDO>
F 1

$$$$
=
 OpenBabel10272401053D

 27 31  0  0  0  0  0  0  0  0999 V2000
  187.1840  178.0070  144.7430 N   0  0  0  0  0  0  0  0  0  0  0  0
  188.7160  177.6510  142.8200 C   0  0  0  0  0  0  0  0  0  0  0  0
  186.3900  178.1780  141.9530 N   0  0  0  0  0  0  0  0  0  0  0  0
  190.0630  177.6770  138.8990 C   0  0  0  0  0  3  0  0  0  0  0  0
  189.6900  177.9490  136.5010 F   0  0  0  0  0  0  0  0  0  0  0  0
  190.0140  177.4070  142.4650 N   0  0  0  0  0  0  0  0  0  0  0  0
  187.2690  178.2250  139.3170 C   0  0  0  0  0  3  0  0  0  0  0  0
  183.3280  178.8820  143.6580 C   0  0  0  0  0  0  0  0  0  0  0  0
  187.8880  178.2080  137.9450 C   0  0  0  0  0  3  0  0  0  0  0  0
  181.9160  179.1760  143.3000 C   0  0  0  0  0  1  0  0  0  0  0  0
  188.2470  177.9380  140.4410 C   0  0  0  0  0  0  0  0  0  0  0  0
  188.4280  177.6240  144.1460 C   0  0  0  0  0  0  0  0  0  0  0  0
  189.1810  177.9530  137.7560 C   0  0  0  0  0  0  0  0  0  0  0  0
  189.5990  177.6760  140.1520 C   0  0  0  0  0  0  0  0  0  0  0  0
  186.0020  178.3140  144.3190 C   0  0  0  0  0  0  0  0  0  0  0  0
  187.7890  177.9310  141.7800 C   0  0  0  0  0  0  0  0  0  0  0  0
  184.2640  178.6230  142.6590 C   0  0  0  0  0  2  0  0  0  0  0  0
  190.4690  177.4110  141.1910 C   0  0  0  0  0  3  0  0  0  0  0  0
  183.7250  178.8740  144.9910 C   0  0  0  0  0  3  0  0  0  0  0  0
  185.0500  178.5900  145.3110 C   0  0  0  0  0  3  0  0  0  0  0  0
  185.6040  178.3460  142.9660 C   0  0  0  0  0  0  0  0  0  0  0  0
  191.4990  176.5800  146.9250 C   0  0  0  0  0  3  0  0  0  0  0  0
  189.4680  177.2350  145.1370 C   0  0  0  0  0  0  0  0  0  0  0  0
  189.2990  177.4660  146.5100 C   0  0  0  0  0  3  0  0  0  0  0  0
  190.3120  177.1340  147.4100 C   0  0  0  0  0  3  0  0  0  0  0  0
  191.6600  176.3770  145.5900 N   0  0  0  0  0  0  0  0  0  0  0  0
  190.6840  176.6940  144.6970 C   0  0  0  0  0  3  0  0  0  0  0  0
  2 12  1  0  0  0  0
  3 21  2  0  0  0  0
  4 14  1  0  0  0  0
  5 13  1  0  0  0  0
  6  2  1  0  0  0  0
  7 11  1  0  0  0  0
  8 19  2  0  0  0  0
  9  7  2  0  0  0  0
 10  8  1  0  0  0  0
 11 16  1  0  0  0  0
 12  1  2  0  0  0  0
 12 23  1  0  0  0  0
 13  9  1  0  0  0  0
 13  4  2  0  0  0  0
 14 11  2  0  0  0  0
 14 18  1  0  0  0  0
 15  1  1  0  0  0  0
 15 20  2  0  0  0  0
 16  3  1  0  0  0  0
 16  2  2  0  0  0  0
 17 21  1  0  0  0  0
 17  8  1  0  0  0  0
 18  6  2  0  0  0  0
 19 20  1  0  0  0  0
 21 15  1  0  0  0  0
 22 25  1  0  0  0  0
 23 24  1  0  0  0  0
 24 25  2  0  0  0  0
 26 22  2  0  0  0  0
 27 23  2  0  0  0  0
 27 26  1  0  0  0  0
M  END
>  <MODEL>
6

>  <REMARK>
 VINA RESULT:     -10.8      2.565      6.962
  Name = 
  1 active torsions:
  status: ('A' for Active; 'I' for Inactive)
    1  A    between atoms: C_9  and  C_15
                            x       y       z     vdW  Elec       q    Type
                         _______ _______ _______ _____ _____    ______ ____

>  <TORSDO>
F 1

$$$$
=
 OpenBabel10272401053D

 27 31  0  0  0  0  0  0  0  0999 V2000
  186.8660  178.3710  140.0980 N   0  0  0  0  0  0  0  0  0  0  0  0
  186.2180  178.2620  142.4940 C   0  0  0  0  0  0  0  0  0  0  0  0
  188.6330  177.5210  142.2430 N   0  0  0  0  0  0  0  0  0  0  0  0
  186.6610  177.9370  146.6030 C   0  0  0  0  0  3  0  0  0  0  0  0
  187.9960  177.4480  148.5890 F   0  0  0  0  0  0  0  0  0  0  0  0
  185.2140  178.5210  143.3850 N   0  0  0  0  0  0  0  0  0  0  0  0
  188.9660  177.3170  144.9960 C   0  0  0  0  0  2  0  0  0  0  0  0
  190.7360  177.2260  139.3680 C   0  0  0  0  0  0  0  0  0  0  0  0
  188.9920  177.2440  146.4990 C   0  0  0  0  0  3  0  0  0  0  0  0
  192.1250  176.7940  139.0650 C   0  0  0  0  0  1  0  0  0  0  0  0
  187.6290  177.7500  144.4200 C   0  0  0  0  0  0  0  0  0  0  0  0
  185.9280  178.4280  141.1780 C   0  0  0  0  0  0  0  0  0  0  0  0
  187.9220  177.5300  147.2390 C   0  0  0  0  0  0  0  0  0  0  0  0
  186.5500  178.0320  145.2760 C   0  0  0  0  0  0  0  0  0  0  0  0
  188.1060  178.0320  139.9570 C   0  0  0  0  0  0  0  0  0  0  0  0
  187.4790  177.8640  143.0170 C   0  0  0  0  0  0  0  0  0  0  0  0
  190.2530  177.1660  140.6740 C   0  0  0  0  0  3  0  0  0  0  0  0
  185.3420  178.4190  144.7280 C   0  0  0  0  0  3  0  0  0  0  0  0
  189.9150  177.7040  138.3530 C   0  0  0  0  0  3  0  0  0  0  0  0
  188.6120  178.0990  138.6510 C   0  0  0  0  0  3  0  0  0  0  0  0
  188.9490  177.5700  140.9910 C   0  0  0  0  0  0  0  0  0  0  0  0
  181.9840  179.3510  139.8250 C   0  0  0  0  0  3  0  0  0  0  0  0
  184.5460  178.7680  140.7470 C   0  0  0  0  0  0  0  0  0  0  0  0
  183.4220  178.3200  141.4580 C   0  0  0  0  0  3  0  0  0  0  0  0
  182.1370  178.6150  141.0020 C   0  0  0  0  0  3  0  0  0  0  0  0
  183.0800  179.7650  139.1340 N   0  0  0  0  0  0  0  0  0  0  0  0
  184.3410  179.4870  139.5620 C   0  0  0  0  0  3  0  0  0  0  0  0
  1 12  1  0  0  0  0
  2 16  1  0  0  0  0
  2  6  1  0  0  0  0
  3 16  1  0  0  0  0
  4 13  1  0  0  0  0
  6 18  2  0  0  0  0
  7  9  1  0  0  0  0
  8 17  2  0  0  0  0
  9 13  2  0  0  0  0
 10  8  1  0  0  0  0
 11  7  1  0  0  0  0
 11 14  1  0  0  0  0
 12  2  2  0  0  0  0
 13  5  1  0  0  0  0
 14  4  2  0  0  0  0
 15  1  2  0  0  0  0
 15 21  1  0  0  0  0
 16 11  2  0  0  0  0
 17 21  1  0  0  0  0
 18 14  1  0  0  0  0
 19 20  2  0  0  0  0
 19  8  1  0  0  0  0
 20 15  1  0  0  0  0
 21  3  2  0  0  0  0
 22 25  1  0  0  0  0
 23 12  1  0  0  0  0
 23 24  1  0  0  0  0
 25 24  2  0  0  0  0
 26 27  1  0  0  0  0
 26 22  2  0  0  0  0
 27 23  2  0  0  0  0
M  END
>  <MODEL>
7

>  <REMARK>
 VINA RESULT:     -10.6      1.814      2.649
  Name = 
  1 active torsions:
  status: ('A' for Active; 'I' for Inactive)
    1  A    between atoms: C_9  and  C_15
                            x       y       z     vdW  Elec       q    Type
                         _______ _______ _______ _____ _____    ______ ____

>  <TORSDO>
F 1

$$$$
=
 OpenBabel10272401053D

 27 31  0  0  1  0  0  0  0  0999 V2000
  188.6490  177.9680  143.4090 N   0  0  0  0  0  0  0  0  0  0  0  0
  186.4800  178.2540  142.2340 C   0  0  0  0  0  0  0  0  0  0  0  0
  186.0710  178.1510  144.7370 N   0  0  0  0  0  0  0  0  0  0  0  0
  182.4400  179.0320  141.7190 C   0  0  0  0  0  3  0  0  0  0  0  0
  180.1930  179.3990  142.6010 F   0  0  0  0  0  0  0  0  0  0  0  0
  185.8950  178.4350  141.0120 N   0  0  0  0  0  0  0  0  0  0  0  0
  183.3630  178.6940  144.4230 C   0  0  0  0  0  3  0  0  0  0  0  0
  188.3160  177.7650  147.4910 C   0  0  0  0  0  0  0  0  0  0  0  0
  181.9220  178.9850  144.0970 C   0  0  0  0  0  3  0  0  0  0  0  0
  188.2290  177.6630  148.9710 C   0  0  0  0  0  1  0  0  0  0  0  0
  184.2680  178.6060  143.2080 C   0  0  0  0  0  0  0  0  0  0  0  0
  187.8170  178.0230  142.2450 C   0  0  0  0  0  0  0  0  0  0  0  0
  181.4990  179.1390  142.8430 C   0  0  0  0  0  0  0  0  0  0  0  0
  183.7360  178.7800  141.9170 C   0  0  0  0  0  0  0  0  0  0  0  0
  188.4630  177.9510  144.6890 C   0  0  2  0  0  3  0  0  0  0  0  0
  185.6470  178.3430  143.3830 C   0  0  0  0  0  0  0  0  0  0  0  0
  187.1570  177.8850  146.7280 C   0  0  0  0  0  3  0  0  0  0  0  0
  184.5790  178.6890  140.8260 C   0  0  0  0  0  3  0  0  0  0  0  0
  189.5550  177.7530  146.8610 C   0  0  0  0  0  3  0  0  0  0  0  0
  189.6210  177.8430  145.4720 C   0  0  0  0  0  3  0  0  0  0  0  0
  187.2070  177.9880  145.3310 C   0  0  0  0  0  0  0  0  0  0  0  0
  190.0030  177.7050  138.5910 C   0  0  0  0  0  3  0  0  0  0  0  0
  188.5670  177.8690  140.9700 C   0  0  0  0  0  0  0  0  0  0  0  0
  189.5850  176.9140  140.8260 C   0  0  0  0  0  3  0  0  0  0  0  0
  190.3030  176.8250  139.6330 C   0  0  0  0  0  3  0  0  0  0  0  0
  189.0270  178.6390  138.7470 N   0  0  0  0  0  0  0  0  0  0  0  0
  188.3160  178.7410  139.9020 C   0  0  0  0  0  3  0  0  0  0  0  0
  1 15  1  0  0  0  0
  2 12  1  0  0  0  0
  2 16  1  0  0  0  0
  3 21  2  0  0  0  0
  4 14  1  0  0  0  0
  4 13  2  0  0  0  0
  5 13  1  0  0  0  0
  6  2  2  0  0  0  0
  8 10  1  0  0  0  0
  9  7  2  0  0  0  0
 11 16  2  0  0  0  0
 11  7  1  0  0  0  0
 12  1  2  0  0  0  0
 13  9  1  0  0  0  0
 14 11  1  0  0  0  0
 15 21  1  0  0  0  0
 15 20  1  6  0  0  0
 16  3  1  0  0  0  0
 17  8  2  0  0  0  0
 18  6  1  0  0  0  0
 18 14  2  0  0  0  0
 19  8  1  0  0  0  0
 20 19  2  0  0  0  0
 21 17  1  0  0  0  0
 22 26  2  0  0  0  0
 22 25  1  0  0  0  0
 23 12  1  0  0  0  0
 24 23  1  0  0  0  0
 25 24  2  0  0  0  0
 26 27  1  0  0  0  0
 27 23  2  0  0  0  0
M  END
>  <MODEL>
8

>  <REMARK>
 VINA RESULT:     -10.6      2.961      7.353
  Name = 
  1 active torsions:
  status: ('A' for Active; 'I' for Inactive)
    1  A    between atoms: C_9  and  C_15
                            x       y       z     vdW  Elec       q    Type
                         _______ _______ _______ _____ _____    ______ ____

>  <TORSDO>
F 1

$$$$
=
 OpenBabel10272401053D

 27 31  0  0  1  0  0  0  0  0999 V2000
  187.1890  177.6870  145.0320 N   0  0  0  0  0  0  0  0  0  0  0  0
  187.4040  177.9270  142.5690 C   0  0  0  0  0  0  0  0  0  0  0  0
  189.6750  177.3780  143.5590 N   0  0  0  0  0  0  0  0  0  0  0  0
  189.1120  177.6830  138.7990 C   0  0  0  0  0  3  0  0  0  0  0  0
  191.0200  177.2890  137.3260 F   0  0  0  0  0  0  0  0  0  0  0  0
  186.7110  178.1410  141.4090 N   0  0  0  0  0  0  0  0  0  0  0  0
  190.8420  177.1840  141.0440 C   0  0  0  0  0  3  0  0  0  0  0  0
  190.7120  176.7930  146.9300 C   0  0  0  0  0  0  0  0  0  0  0  0
  191.3330  177.1230  139.6220 C   0  0  0  0  0  3  0  0  0  0  0  0
  191.9760  176.4940  147.6520 C   0  0  0  0  0  1  0  0  0  0  0  0
  189.3680  177.5210  141.1760 C   0  0  0  0  0  0  0  0  0  0  0  0
  186.7040  178.0270  143.7270 C   0  0  0  0  0  0  0  0  0  0  0  0
  190.5300  177.3550  138.5860 C   0  0  0  0  0  0  0  0  0  0  0  0
  188.5910  177.7540  140.0260 C   0  0  0  0  0  0  0  0  0  0  0  0
  188.3300  177.3690  145.5490 C   0  0  2  0  0  3  0  0  0  0  0  0
  188.7830  177.6020  142.4620 C   0  0  0  0  0  0  0  0  0  0  0  0
  190.7240  176.9900  145.5500 C   0  0  0  0  0  3  0  0  0  0  0  0
  187.2530  178.0650  140.1720 C   0  0  0  0  0  3  0  0  0  0  0  0
  189.5100  176.8670  147.6240 C   0  0  0  0  0  3  0  0  0  0  0  0
  188.3340  177.1550  146.9350 C   0  0  0  0  0  3  0  0  0  0  0  0
  189.5470  177.2700  144.8410 C   0  0  0  0  0  0  0  0  0  0  0  0
  182.5860  179.1510  143.6360 C   0  0  0  0  0  3  0  0  0  0  0  0
  185.2810  178.4570  143.7160 C   0  0  0  0  0  0  0  0  0  0  0  0
  184.6100  178.8150  144.8950 C   0  0  0  0  0  3  0  0  0  0  0  0
  183.2610  179.1700  144.8580 C   0  0  0  0  0  3  0  0  0  0  0  0
  183.2400  178.7840  142.5010 N   0  0  0  0  0  0  0  0  0  0  0  0
  184.5550  178.4360  142.5170 C   0  0  0  0  0  3  0  0  0  0  0  0
  1 15  1  0  0  0  0
  2 12  1  0  0  0  0
  3 21  2  0  0  0  0
  4 14  1  0  0  0  0
  5 13  1  0  0  0  0
  6  2  2  0  0  0  0
  7 11  1  0  0  0  0
  8 19  1  0  0  0  0
  8 10  1  0  0  0  0
  9  7  2  0  0  0  0
 11 16  2  0  0  0  0
 12  1  2  0  0  0  0
 13  4  2  0  0  0  0
 13  9  1  0  0  0  0
 14 18  2  0  0  0  0
 14 11  1  0  0  0  0
 15 20  1  1  0  0  0
 16  2  1  0  0  0  0
 16  3  1  0  0  0  0
 17  8  2  0  0  0  0
 18  6  1  0  0  0  0
 20 19  2  0  0  0  0
 21 15  1  0  0  0  0
 21 17  1  0  0  0  0
 22 25  1  0  0  0  0
 23 12  1  0  0  0  0
 23 24  1  0  0  0  0
 25 24  2  0  0  0  0
 26 27  1  0  0  0  0
 26 22  2  0  0  0  0
 27 23  2  0  0  0  0
M  END
>  <MODEL>
9

>  <REMARK>
 VINA RESULT:     -10.4      2.277      5.502
  Name = 
  1 active torsions:
  status: ('A' for Active; 'I' for Inactive)
    1  A    between atoms: C_9  and  C_15
                            x       y       z     vdW  Elec       q    Type
                         _______ _______ _______ _____ _____    ______ ____

>  <TORSDO>
F 1

$$$$
