=
 OpenBabel10272400033D

 34 40  0  0  1  0  0  0  0  0999 V2000
  188.9160  177.1810  146.4500 C   0  0  0  0  0  0  0  0  0  0  0  0
  190.7670  177.0030  144.8360 C   0  0  0  0  0  0  0  0  0  0  0  0
  188.5100  177.4610  144.0800 C   0  0  0  0  0  0  0  0  0  0  0  0
  188.3400  177.7230  141.7250 C   0  0  0  0  0  0  0  0  0  0  0  0
  191.1760  176.7280  147.2110 C   0  0  0  0  0  3  0  0  0  0  0  0
  191.6510  176.7600  145.8900 C   0  0  0  0  0  3  0  0  0  0  0  0
  190.2960  177.2950  142.5540 C   0  0  0  0  0  0  0  0  0  0  0  0
  189.3940  177.2120  145.1320 C   0  0  2  0  0  3  0  0  0  0  0  0
  189.2110  177.6980  140.6330 C   0  0  0  0  0  3  0  0  0  0  0  0
  189.8160  176.9370  147.4910 C   0  0  0  0  0  3  0  0  0  0  0  0
  187.1410  177.6890  144.2890 C   0  0  0  0  0  0  0  0  0  0  0  0
  187.5500  177.4010  146.6900 C   0  0  0  0  0  3  0  0  0  0  0  0
  191.2080  177.0480  143.5360 N   0  0  0  0  0  0  0  0  0  0  0  0
  186.8610  177.9820  141.7770 C   0  0  0  0  0  3  0  0  0  0  0  0
  186.3270  177.9370  143.2220 C   0  0  0  0  0  0  0  0  0  0  0  0
  190.4720  177.4100  141.1890 C   0  0  0  0  0  0  0  0  0  0  0  0
  189.0160  177.4900  142.8410 N   0  0  0  0  0  0  0  0  0  0  0  0
  186.6700  177.6530  145.6190 C   0  0  0  0  0  3  0  0  0  0  0  0
  182.7030  178.6850  142.2700 C   0  0  0  0  0  0  0  0  0  0  0  0
  182.3430  179.4780  143.3660 O   0  0  0  0  0  0  0  0  0  0  0  0
  184.8600  178.1820  143.4350 C   0  0  2  0  0  3  0  0  0  0  0  0
  183.1450  179.5710  144.5440 C   0  0  0  0  0  2  0  0  0  0  0  0
  184.1120  178.1960  142.1040 C   0  0  0  0  0  2  0  0  0  0  0  0
  184.6270  179.4750  144.2080 C   0  0  0  0  0  2  0  0  0  0  0  0
  181.8600  178.4590  141.3640 O   0  0  0  0  0  0  0  0  0  0  0  0
  191.7580  177.3180  140.4440 C   0  0  0  0  0  2  0  0  0  0  0  0
  191.4920  177.3520  138.9480 C   0  0  0  0  0  2  0  0  0  0  0  0
  189.9660  175.3470  137.2120 C   0  0  0  0  0  1  0  0  0  0  0  0
  191.9440  176.0560  138.2870 C   0  0  1  0  0  3  0  0  0  0  0  0
  191.2830  175.9180  136.9780 N   0  0  0  0  0  0  0  0  0  0  0  0
  193.4270  175.4450  135.8530 C   0  0  0  0  0  2  0  0  0  0  0  0
  193.8750  176.4590  136.8130 N   0  0  0  0  0  2  0  0  0  0  0  0
  193.4790  176.0530  138.1580 C   0  0  0  0  0  2  0  0  0  0  0  0
  192.0030  174.9540  136.1470 C   0  0  0  0  0  2  0  0  0  0  0  0
  1 12  1  0  0  0  0
  1 10  2  0  0  0  0
  2  8  1  0  0  0  0
  2  6  1  0  0  0  0
  3 11  2  0  0  0  0
  4 14  1  0  0  0  0
  4 17  1  0  0  0  0
  5 10  1  0  0  0  0
  6  5  2  0  0  0  0
  7 17  1  0  0  0  0
  7 13  1  0  0  0  0
  8  3  1  1  0  0  0
  8  1  1  0  0  0  0
  9 16  1  0  0  0  0
  9  4  2  0  0  0  0
 11 18  1  0  0  0  0
 13  2  2  0  0  0  0
 14 15  2  0  0  0  0
 15 11  1  0  0  0  0
 16  7  2  0  0  0  0
 17  3  1  0  0  0  0
 18 12  2  0  0  0  0
 19 20  1  0  0  0  0
 20 22  1  0  0  0  0
 21 15  1  6  0  0  0
 21 24  1  0  0  0  0
 23 19  1  0  0  0  0
 23 21  1  0  0  0  0
 24 22  1  0  0  0  0
 25 19  2  0  0  0  0
 26 16  1  0  0  0  0
 27 26  1  0  0  0  0
 29 27  1  6  0  0  0
 30 28  1  0  0  0  0
 30 29  1  0  0  0  0
 31 34  1  0  0  0  0
 31 32  1  0  0  0  0
 32 33  1  0  0  0  0
 33 29  1  0  0  0  0
 34 30  1  0  0  0  0
M  END
>  <MODEL>
1

>  <REMARK>
 VINA RESULT:     -11.0      0.000      0.000
  Name = 
  4 active torsions:
  status: ('A' for Active; 'I' for Inactive)
    1  A    between atoms: C_3  and  C_13
    2  A    between atoms: C_3  and  C_17
    3  A    between atoms: C_12  and  C_28
    4  A    between atoms: C_17  and  C_29
                            x       y       z     vdW  Elec       q    Type
                         _______ _______ _______ _____ _____    ______ ____

>  <TORSDO>
F 4

$$$$
=
 OpenBabel10272400033D

 34 40  0  0  1  0  0  0  0  0999 V2000
  188.9500  177.1610  146.1540 C   0  0  0  0  0  0  0  0  0  0  0  0
  190.7290  176.9890  144.4600 C   0  0  0  0  0  0  0  0  0  0  0  0
  188.4460  177.4770  143.8080 C   0  0  0  0  0  0  0  0  0  0  0  0
  188.1780  177.7730  141.4660 C   0  0  0  0  0  0  0  0  0  0  0  0
  191.2370  176.6780  146.8110 C   0  0  0  0  0  3  0  0  0  0  0  0
  191.6550  176.7250  145.4720 C   0  0  0  0  0  3  0  0  0  0  0  0
  190.1640  177.3180  142.2040 C   0  0  0  0  0  0  0  0  0  0  0  0
  189.3720  177.2060  144.8180 C   0  0  2  0  0  3  0  0  0  0  0  0
  189.0010  177.7560  140.3370 C   0  0  0  0  0  3  0  0  0  0  0  0
  189.8910  176.8950  147.1520 C   0  0  0  0  0  3  0  0  0  0  0  0
  187.0890  177.7130  144.0780 C   0  0  0  0  0  0  0  0  0  0  0  0
  187.5980  177.3890  146.4550 C   0  0  0  0  0  3  0  0  0  0  0  0
  191.1140  177.0490  143.1430 N   0  0  0  0  0  0  0  0  0  0  0  0
  186.7050  178.0430  141.5850 C   0  0  0  0  0  3  0  0  0  0  0  0
  186.2330  177.9830  143.0510 C   0  0  0  0  0  0  0  0  0  0  0  0
  190.2820  177.4490  140.8350 C   0  0  0  0  0  0  0  0  0  0  0  0
  188.8990  177.5190  142.5490 N   0  0  0  0  0  0  0  0  0  0  0  0
  186.6750  177.6630  145.4260 C   0  0  0  0  0  3  0  0  0  0  0  0
  182.5610  178.6820  142.2580 C   0  0  0  0  0  0  0  0  0  0  0  0
  182.2570  179.5280  143.3330 O   0  0  0  0  0  0  0  0  0  0  0  0
  184.7790  178.2370  143.3290 C   0  0  2  0  0  3  0  0  0  0  0  0
  183.1210  179.6760  144.4610 C   0  0  0  0  0  2  0  0  0  0  0  0
  183.9600  178.1870  142.0410 C   0  0  0  0  0  2  0  0  0  0  0  0
  184.5830  179.5650  144.0510 C   0  0  0  0  0  2  0  0  0  0  0  0
  181.6720  178.4130  141.4110 O   0  0  0  0  0  0  0  0  0  0  0  0
  191.5340  177.3570  140.0340 C   0  0  0  0  0  2  0  0  0  0  0  0
  191.4460  176.1850  139.0720 C   0  0  0  0  0  2  0  0  0  0  0  0
  193.7510  175.8670  137.0830 C   0  0  0  0  0  1  0  0  0  0  0  0
  191.5940  176.6550  137.6290 C   0  0  1  0  0  3  0  0  0  0  0  0
  192.3320  175.6410  136.8570 N   0  0  0  0  0  0  0  0  0  0  0  0
  190.6300  175.6440  135.0710 C   0  0  0  0  0  2  0  0  0  0  0  0
  189.7560  175.7870  136.2390 N   0  0  0  0  0  2  0  0  0  0  0  0
  190.2000  176.9290  137.0330 C   0  0  0  0  0  2  0  0  0  0  0  0
  192.1110  175.8360  135.4250 C   0  0  0  0  0  2  0  0  0  0  0  0
  1 12  1  0  0  0  0
  1 10  2  0  0  0  0
  2  8  1  0  0  0  0
  2  6  1  0  0  0  0
  3 11  2  0  0  0  0
  4 14  1  0  0  0  0
  4 17  1  0  0  0  0
  5 10  1  0  0  0  0
  6  5  2  0  0  0  0
  7 17  1  0  0  0  0
  7 13  1  0  0  0  0
  8  3  1  1  0  0  0
  8  1  1  0  0  0  0
  9 16  1  0  0  0  0
  9  4  2  0  0  0  0
 11 18  1  0  0  0  0
 13  2  2  0  0  0  0
 14 15  2  0  0  0  0
 15 11  1  0  0  0  0
 16  7  2  0  0  0  0
 17  3  1  0  0  0  0
 18 12  2  0  0  0  0
 19 20  1  0  0  0  0
 20 22  1  0  0  0  0
 21 15  1  6  0  0  0
 21 24  1  0  0  0  0
 23 19  1  0  0  0  0
 23 21  1  0  0  0  0
 24 22  1  0  0  0  0
 25 19  2  0  0  0  0
 26 16  1  0  0  0  0
 27 26  1  0  0  0  0
 29 27  1  1  0  0  0
 30 28  1  0  0  0  0
 30 29  1  0  0  0  0
 31 34  1  0  0  0  0
 31 32  1  0  0  0  0
 32 33  1  0  0  0  0
 33 29  1  0  0  0  0
 34 30  1  0  0  0  0
M  END
>  <MODEL>
2

>  <REMARK>
 VINA RESULT:     -10.7      0.705      1.336
  Name = 
  4 active torsions:
  status: ('A' for Active; 'I' for Inactive)
    1  A    between atoms: C_3  and  C_13
    2  A    between atoms: C_3  and  C_17
    3  A    between atoms: C_12  and  C_28
    4  A    between atoms: C_17  and  C_29
                            x       y       z     vdW  Elec       q    Type
                         _______ _______ _______ _____ _____    ______ ____

>  <TORSDO>
F 4

$$$$
=
 OpenBabel10272400033D

 34 40  0  0  1  0  0  0  0  0999 V2000
  185.2010  178.2750  143.3350 C   0  0  0  0  0  0  0  0  0  0  0  0
  185.7370  178.6370  140.9590 C   0  0  0  0  0  0  0  0  0  0  0  0
  187.4600  177.9570  142.5240 C   0  0  0  0  0  0  0  0  0  0  0  0
  189.5930  177.6800  141.5140 C   0  0  0  0  0  0  0  0  0  0  0  0
  183.4730  178.9500  141.7710 C   0  0  0  0  0  3  0  0  0  0  0  0
  184.4010  178.9660  140.7170 C   0  0  0  0  0  3  0  0  0  0  0  0
  187.9490  178.3000  140.2450 C   0  0  0  0  0  0  0  0  0  0  0  0
  186.1260  178.2920  142.2810 C   0  0  0  0  0  0  0  0  0  0  0  0
  190.1340  177.7930  140.2320 C   0  0  0  0  0  3  0  0  0  0  0  0
  183.8690  178.6070  143.0740 C   0  0  0  0  0  3  0  0  0  0  0  0
  187.9220  177.5950  143.7980 C   0  0  0  0  0  0  0  0  0  0  0  0
  185.6350  177.9210  144.6230 C   0  0  0  0  0  3  0  0  0  0  0  0
  186.6630  178.6360  139.9450 N   0  0  0  0  0  0  0  0  0  0  0  0
  190.2430  177.2760  142.8070 C   0  0  0  0  0  2  0  0  0  0  0  0
  189.2350  177.2670  143.9720 C   0  0  0  0  0  0  0  0  0  0  0  0
  189.0560  178.2040  139.4250 C   0  0  0  0  0  0  0  0  0  0  0  0
  188.3010  177.9790  141.4830 N   0  0  0  0  0  0  0  0  0  0  0  0
  186.9840  177.5830  144.8520 C   0  0  0  0  0  3  0  0  0  0  0  0
  189.9590  177.6440  147.7050 C   0  0  0  0  0  0  0  0  0  0  0  0
  191.1940  176.9860  147.7610 O   0  0  0  0  0  0  0  0  0  0  0  0
  189.7400  176.8780  145.3330 C   0  0  2  0  0  3  0  0  0  0  0  0
  191.6880  176.1880  146.6850 C   0  0  0  0  0  2  0  0  0  0  0  0
  189.2660  177.8680  146.3940 C   0  0  0  0  0  2  0  0  0  0  0  0
  191.2590  176.7550  145.3390 C   0  0  0  0  0  2  0  0  0  0  0  0
  189.4710  178.1370  148.7540 O   0  0  0  0  0  0  0  0  0  0  0  0
  189.0960  178.4240  137.9520 C   0  0  0  0  0  2  0  0  0  0  0  0
  189.1360  177.0860  137.2330 C   0  0  0  0  0  2  0  0  0  0  0  0
  188.7140  175.0250  135.0100 C   0  0  0  0  0  1  0  0  0  0  0  0
  188.1970  177.0890  136.0310 C   0  0  1  0  0  3  0  0  0  0  0  0
  187.7050  175.7210  135.7920 N   0  0  0  0  0  0  0  0  0  0  0  0
  185.3650  176.4950  135.6860 C   0  0  0  0  0  2  0  0  0  0  0  0
  185.8600  177.3660  136.7550 N   0  0  0  0  0  2  0  0  0  0  0  0
  187.0440  178.0780  136.2830 C   0  0  0  0  0  2  0  0  0  0  0  0
  186.5010  175.7550  134.9650 C   0  0  0  0  0  2  0  0  0  0  0  0
  1 12  1  0  0  0  0
  2  8  1  0  0  0  0
  3 11  1  0  0  0  0
  4 14  1  0  0  0  0
  5 10  1  0  0  0  0
  6  2  1  0  0  0  0
  6  5  2  0  0  0  0
  7 17  1  0  0  0  0
  8  3  2  0  0  0  0
  8  1  1  0  0  0  0
  9  4  2  0  0  0  0
 10  1  2  0  0  0  0
 11 15  2  0  0  0  0
 11 18  1  0  0  0  0
 12 18  2  0  0  0  0
 13  7  1  0  0  0  0
 13  2  2  0  0  0  0
 14 15  1  0  0  0  0
 16  9  1  0  0  0  0
 16  7  2  0  0  0  0
 17  4  1  0  0  0  0
 17  3  1  0  0  0  0
 19 20  1  0  0  0  0
 19 25  2  0  0  0  0
 21 15  1  6  0  0  0
 21 24  1  0  0  0  0
 21 23  1  0  0  0  0
 22 20  1  0  0  0  0
 23 19  1  0  0  0  0
 24 22  1  0  0  0  0
 26 16  1  0  0  0  0
 27 26  1  0  0  0  0
 28 30  1  0  0  0  0
 29 33  1  0  0  0  0
 29 27  1  1  0  0  0
 30 29  1  0  0  0  0
 31 32  1  0  0  0  0
 33 32  1  0  0  0  0
 34 31  1  0  0  0  0
 34 30  1  0  0  0  0
M  END
>  <MODEL>
3

>  <REMARK>
 VINA RESULT:     -10.5      3.254      5.967
  Name = 
  4 active torsions:
  status: ('A' for Active; 'I' for Inactive)
    1  A    between atoms: C_3  and  C_13
    2  A    between atoms: C_3  and  C_17
    3  A    between atoms: C_12  and  C_28
    4  A    between atoms: C_17  and  C_29
                            x       y       z     vdW  Elec       q    Type
                         _______ _______ _______ _____ _____    ______ ____

>  <TORSDO>
F 4

$$$$
=
 OpenBabel10272400033D

 34 40  0  0  1  0  0  0  0  0999 V2000
  185.1020  178.4150  143.4390 C   0  0  0  0  0  0  0  0  0  0  0  0
  185.6040  178.6870  141.0440 C   0  0  0  0  0  0  0  0  0  0  0  0
  187.3310  177.9920  142.5970 C   0  0  0  0  0  0  0  0  0  0  0  0
  189.4330  177.6080  141.5590 C   0  0  0  0  0  0  0  0  0  0  0  0
  183.3680  179.1060  141.8860 C   0  0  0  0  0  3  0  0  0  0  0  0
  184.2770  179.0560  140.8160 C   0  0  0  0  0  3  0  0  0  0  0  0
  187.7890  178.2480  140.3010 C   0  0  0  0  0  0  0  0  0  0  0  0
  186.0060  178.3670  142.3690 C   0  0  0  0  0  0  0  0  0  0  0  0
  189.9540  177.6620  140.2630 C   0  0  0  0  0  3  0  0  0  0  0  0
  183.7780  178.7870  143.1910 C   0  0  0  0  0  3  0  0  0  0  0  0
  187.8040  177.6510  143.8730 C   0  0  0  0  0  0  0  0  0  0  0  0
  185.5470  178.0840  144.7290 C   0  0  0  0  0  3  0  0  0  0  0  0
  186.5100  178.6220  140.0140 N   0  0  0  0  0  0  0  0  0  0  0  0
  190.0940  177.2190  142.8510 C   0  0  0  0  0  2  0  0  0  0  0  0
  189.1080  177.2810  144.0340 C   0  0  0  0  0  0  0  0  0  0  0  0
  188.8760  178.0880  139.4640 C   0  0  0  0  0  0  0  0  0  0  0  0
  188.1530  177.9520  141.5420 N   0  0  0  0  0  0  0  0  0  0  0  0
  186.8870  177.7050  144.9440 C   0  0  0  0  0  3  0  0  0  0  0  0
  189.7510  177.6630  147.7810 C   0  0  0  0  0  0  0  0  0  0  0  0
  191.0330  177.1050  147.8460 O   0  0  0  0  0  0  0  0  0  0  0  0
  189.6250  176.9150  145.3960 C   0  0  2  0  0  3  0  0  0  0  0  0
  191.6040  176.3630  146.7670 C   0  0  0  0  0  2  0  0  0  0  0  0
  189.0590  177.8490  146.4630 C   0  0  0  0  0  2  0  0  0  0  0  0
  191.1490  176.9130  145.4220 C   0  0  0  0  0  2  0  0  0  0  0  0
  189.2110  178.1010  148.8290 O   0  0  0  0  0  0  0  0  0  0  0  0
  188.8960  178.2620  137.9850 C   0  0  0  0  0  2  0  0  0  0  0  0
  187.9360  177.2790  137.3370 C   0  0  0  0  0  2  0  0  0  0  0  0
  189.3950  177.6070  134.6670 C   0  0  0  0  0  1  0  0  0  0  0  0
  188.6910  176.2690  136.4800 C   0  0  1  0  0  3  0  0  0  0  0  0
  189.8580  176.9260  135.8650 N   0  0  0  0  0  0  0  0  0  0  0  0
  191.3670  175.1200  136.6070 C   0  0  0  0  0  2  0  0  0  0  0  0
  190.4900  175.1990  137.7780 N   0  0  0  0  0  2  0  0  0  0  0  0
  189.1010  175.0640  137.3470 C   0  0  0  0  0  2  0  0  0  0  0  0
  190.8240  175.9240  135.4170 C   0  0  0  0  0  2  0  0  0  0  0  0
  1 12  1  0  0  0  0
  2  8  1  0  0  0  0
  3 11  1  0  0  0  0
  4 14  1  0  0  0  0
  5 10  1  0  0  0  0
  6  2  1  0  0  0  0
  6  5  2  0  0  0  0
  7 17  1  0  0  0  0
  8  3  2  0  0  0  0
  8  1  1  0  0  0  0
  9  4  2  0  0  0  0
 10  1  2  0  0  0  0
 11 15  2  0  0  0  0
 11 18  1  0  0  0  0
 12 18  2  0  0  0  0
 13  7  1  0  0  0  0
 13  2  2  0  0  0  0
 14 15  1  0  0  0  0
 16  9  1  0  0  0  0
 16  7  2  0  0  0  0
 17  4  1  0  0  0  0
 17  3  1  0  0  0  0
 19 20  1  0  0  0  0
 19 25  2  0  0  0  0
 21 15  1  6  0  0  0
 21 24  1  0  0  0  0
 21 23  1  0  0  0  0
 22 20  1  0  0  0  0
 23 19  1  0  0  0  0
 24 22  1  0  0  0  0
 26 16  1  0  0  0  0
 27 26  1  0  0  0  0
 28 30  1  0  0  0  0
 29 27  1  1  0  0  0
 29 33  1  0  0  0  0
 30 29  1  0  0  0  0
 31 32  1  0  0  0  0
 33 32  1  0  0  0  0
 34 30  1  0  0  0  0
 34 31  1  0  0  0  0
M  END
>  <MODEL>
4

>  <REMARK>
 VINA RESULT:     -10.3      2.798      5.495
  Name = 
  4 active torsions:
  status: ('A' for Active; 'I' for Inactive)
    1  A    between atoms: C_3  and  C_13
    2  A    between atoms: C_3  and  C_17
    3  A    between atoms: C_12  and  C_28
    4  A    between atoms: C_17  and  C_29
                            x       y       z     vdW  Elec       q    Type
                         _______ _______ _______ _____ _____    ______ ____

>  <TORSDO>
F 4

$$$$
=
 OpenBabel10272400033D

 34 40  0  0  1  0  0  0  0  0999 V2000
  190.2670  177.0590  146.0060 C   0  0  0  0  0  0  0  0  0  0  0  0
  187.9440  177.7940  146.3580 C   0  0  0  0  0  0  0  0  0  0  0  0
  188.7900  177.4040  144.1200 C   0  0  0  0  0  0  0  0  0  0  0  0
  187.1720  177.7780  142.4210 C   0  0  0  0  0  0  0  0  0  0  0  0
  189.4210  177.4430  148.2490 C   0  0  0  0  0  3  0  0  0  0  0  0
  188.1640  177.8020  147.7370 C   0  0  0  0  0  3  0  0  0  0  0  0
  186.5680  178.0980  144.4780 C   0  0  0  0  0  0  0  0  0  0  0  0
  189.0110  177.4180  145.4990 C   0  0  2  0  0  3  0  0  0  0  0  0
  185.8290  178.1580  142.3610 C   0  0  0  0  0  3  0  0  0  0  0  0
  190.4680  177.0730  147.3890 C   0  0  0  0  0  3  0  0  0  0  0  0
  189.7880  177.0350  143.2050 C   0  0  0  0  0  0  0  0  0  0  0  0
  191.2870  176.6890  145.1150 C   0  0  0  0  0  3  0  0  0  0  0  0
  186.7210  178.1320  145.8320 N   0  0  0  0  0  0  0  0  0  0  0  0
  188.1250  177.4140  141.3180 C   0  0  0  0  0  3  0  0  0  0  0  0
  189.5110  177.0290  141.8690 C   0  0  0  0  0  0  0  0  0  0  0  0
  185.4580  178.3700  143.7030 C   0  0  0  0  0  0  0  0  0  0  0  0
  187.5720  177.7460  143.6850 N   0  0  0  0  0  0  0  0  0  0  0  0
  191.0500  176.6770  143.7260 C   0  0  0  0  0  3  0  0  0  0  0  0
  192.7540  177.3320  139.8710 C   0  0  0  0  0  0  0  0  0  0  0  0
  192.3220  176.7810  138.6580 O   0  0  0  0  0  0  0  0  0  0  0  0
  190.5730  176.6360  140.8810 C   0  0  2  0  0  3  0  0  0  0  0  0
  191.0910  176.0670  138.5340 C   0  0  0  0  0  2  0  0  0  0  0  0
  191.7950  177.5430  141.0050 C   0  0  0  0  0  2  0  0  0  0  0  0
  190.0270  176.6440  139.4580 C   0  0  0  0  0  2  0  0  0  0  0  0
  193.9380  177.7430  139.9790 O   0  0  0  0  0  0  0  0  0  0  0  0
  184.1020  178.7480  144.1880 C   0  0  0  0  0  2  0  0  0  0  0  0
  183.3440  179.4730  143.0890 C   0  0  0  0  0  2  0  0  0  0  0  0
  180.5380  178.7080  144.0420 C   0  0  0  0  0  1  0  0  0  0  0  0
  182.2910  178.5630  142.4670 C   0  0  1  0  0  3  0  0  0  0  0  0
  180.9520  179.1270  142.7120 N   0  0  0  0  0  0  0  0  0  0  0  0
  180.3350  178.9090  140.3340 C   0  0  0  0  0  2  0  0  0  0  0  0
  181.7390  179.3050  140.1850 N   0  0  0  0  0  2  0  0  0  0  0  0
  182.5770  178.3980  140.9630 C   0  0  0  0  0  2  0  0  0  0  0  0
  179.9820  178.5490  141.7830 C   0  0  0  0  0  2  0  0  0  0  0  0
  1 10  2  0  0  0  0
  2  6  1  0  0  0  0
  4 17  1  0  0  0  0
  6  5  2  0  0  0  0
  7 13  1  0  0  0  0
  8  3  1  1  0  0  0
  8  1  1  0  0  0  0
  8  2  1  0  0  0  0
  9  4  2  0  0  0  0
  9 16  1  0  0  0  0
 10  5  1  0  0  0  0
 11 18  1  0  0  0  0
 11  3  2  0  0  0  0
 12  1  1  0  0  0  0
 13  2  2  0  0  0  0
 14 15  2  0  0  0  0
 14  4  1  0  0  0  0
 15 11  1  0  0  0  0
 16 26  1  0  0  0  0
 16  7  2  0  0  0  0
 17  3  1  0  0  0  0
 17  7  1  0  0  0  0
 18 12  2  0  0  0  0
 19 25  2  0  0  0  0
 19 23  1  0  0  0  0
 20 19  1  0  0  0  0
 21 23  1  0  0  0  0
 21 15  1  1  0  0  0
 22 20  1  0  0  0  0
 22 24  1  0  0  0  0
 24 21  1  0  0  0  0
 27 26  1  0  0  0  0
 29 30  1  0  0  0  0
 29 27  1  6  0  0  0
 30 28  1  0  0  0  0
 31 34  1  0  0  0  0
 32 31  1  0  0  0  0
 32 33  1  0  0  0  0
 33 29  1  0  0  0  0
 34 30  1  0  0  0  0
M  END
>  <MODEL>
5

>  <REMARK>
 VINA RESULT:     -10.1      3.702      7.903
  Name = 
  4 active torsions:
  status: ('A' for Active; 'I' for Inactive)
    1  A    between atoms: C_3  and  C_13
    2  A    between atoms: C_3  and  C_17
    3  A    between atoms: C_12  and  C_28
    4  A    between atoms: C_17  and  C_29
                            x       y       z     vdW  Elec       q    Type
                         _______ _______ _______ _____ _____    ______ ____

>  <TORSDO>
F 4

$$$$
=
 OpenBabel10272400033D

 34 40  0  0  1  0  0  0  0  0999 V2000
  190.2290  177.0580  140.4460 C   0  0  0  0  0  0  0  0  0  0  0  0
  188.2890  177.9340  139.2070 C   0  0  0  0  0  0  0  0  0  0  0  0
  188.2020  177.6760  141.6160 C   0  0  0  0  0  0  0  0  0  0  0  0
  186.1340  178.3620  142.5630 C   0  0  0  0  0  0  0  0  0  0  0  0
  190.3220  177.3200  138.0340 C   0  0  0  0  0  3  0  0  0  0  0  0
  189.0070  177.8130  138.0150 C   0  0  0  0  0  3  0  0  0  0  0  0
  186.3610  178.5200  140.4140 C   0  0  0  0  0  0  0  0  0  0  0  0
  188.9160  177.5500  140.4230 C   0  0  0  0  0  0  0  0  0  0  0  0
  184.9310  178.8990  142.0990 C   0  0  0  0  0  3  0  0  0  0  0  0
  190.9310  176.9440  139.2430 C   0  0  0  0  0  3  0  0  0  0  0  0
  188.7530  177.3290  142.8590 C   0  0  0  0  0  0  0  0  0  0  0  0
  190.8050  176.6980  141.6740 C   0  0  0  0  0  3  0  0  0  0  0  0
  187.0050  178.4210  139.2170 N   0  0  0  0  0  0  0  0  0  0  0  0
  186.5730  178.0360  143.9630 C   0  0  0  0  0  2  0  0  0  0  0  0
  188.0110  177.4840  143.9940 C   0  0  0  0  0  0  0  0  0  0  0  0
  185.0940  178.9850  140.7040 C   0  0  0  0  0  0  0  0  0  0  0  0
  186.9560  178.1590  141.5430 N   0  0  0  0  0  0  0  0  0  0  0  0
  190.0740  176.8330  142.8710 C   0  0  0  0  0  3  0  0  0  0  0  0
  188.3880  177.4880  147.7960 C   0  0  0  0  0  0  0  0  0  0  0  0
  189.7830  177.4040  147.8830 O   0  0  0  0  0  0  0  0  0  0  0  0
  188.5910  177.1150  145.3300 C   0  0  2  0  0  3  0  0  0  0  0  0
  190.6040  177.0790  146.7600 C   0  0  0  0  0  2  0  0  0  0  0  0
  187.7070  177.6230  146.4670 C   0  0  0  0  0  2  0  0  0  0  0  0
  190.0160  177.6360  145.4710 C   0  0  0  0  0  2  0  0  0  0  0  0
  187.7040  177.5480  148.8500 O   0  0  0  0  0  0  0  0  0  0  0  0
  184.1050  179.5410  139.7380 C   0  0  0  0  0  2  0  0  0  0  0  0
  183.2570  178.4180  139.1650 C   0  0  0  0  0  2  0  0  0  0  0  0
  181.1120  178.3830  141.3470 C   0  0  0  0  0  1  0  0  0  0  0  0
  181.7860  178.8160  139.1270 C   0  0  1  0  0  3  0  0  0  0  0  0
  181.4170  179.4480  140.4050 N   0  0  0  0  0  0  0  0  0  0  0  0
  180.3840  181.3680  139.2510 C   0  0  0  0  0  2  0  0  0  0  0  0
  181.5330  181.1450  138.3690 N   0  0  0  0  0  2  0  0  0  0  0  0
  181.5370  179.7530  137.9300 C   0  0  0  0  0  2  0  0  0  0  0  0
  180.1850  180.2200  140.2510 C   0  0  0  0  0  2  0  0  0  0  0  0
  1 12  1  0  0  0  0
  2 13  2  0  0  0  0
  2  8  1  0  0  0  0
  3 11  1  0  0  0  0
  4 14  1  0  0  0  0
  5 10  1  0  0  0  0
  6  5  2  0  0  0  0
  6  2  1  0  0  0  0
  7 16  2  0  0  0  0
  7 17  1  0  0  0  0
  8  1  1  0  0  0  0
  8  3  2  0  0  0  0
  9  4  2  0  0  0  0
 10  1  2  0  0  0  0
 11 18  1  0  0  0  0
 11 15  2  0  0  0  0
 12 18  2  0  0  0  0
 13  7  1  0  0  0  0
 14 15  1  0  0  0  0
 16  9  1  0  0  0  0
 17  3  1  0  0  0  0
 17  4  1  0  0  0  0
 19 20  1  0  0  0  0
 19 25  2  0  0  0  0
 21 15  1  6  0  0  0
 21 24  1  0  0  0  0
 21 23  1  0  0  0  0
 22 20  1  0  0  0  0
 23 19  1  0  0  0  0
 24 22  1  0  0  0  0
 26 16  1  0  0  0  0
 27 26  1  0  0  0  0
 29 27  1  1  0  0  0
 29 30  1  0  0  0  0
 30 28  1  0  0  0  0
 31 34  1  0  0  0  0
 32 31  1  0  0  0  0
 33 32  1  0  0  0  0
 33 29  1  0  0  0  0
 34 30  1  0  0  0  0
M  END
>  <MODEL>
6

>  <REMARK>
 VINA RESULT:      -9.9      3.596      7.890
  Name = 
  4 active torsions:
  status: ('A' for Active; 'I' for Inactive)
    1  A    between atoms: C_3  and  C_13
    2  A    between atoms: C_3  and  C_17
    3  A    between atoms: C_12  and  C_28
    4  A    between atoms: C_17  and  C_29
                            x       y       z     vdW  Elec       q    Type
                         _______ _______ _______ _____ _____    ______ ____

>  <TORSDO>
F 4

$$$$
=
 OpenBabel10272400033D

 34 40  0  0  1  0  0  0  0  0999 V2000
  186.5610  177.9780  144.8970 C   0  0  0  0  0  0  0  0  0  0  0  0
  188.8160  177.4500  144.0610 C   0  0  0  0  0  0  0  0  0  0  0  0
  187.0350  178.0350  142.5240 C   0  0  0  0  0  0  0  0  0  0  0  0
  187.7220  178.0540  140.2490 C   0  0  0  0  0  0  0  0  0  0  0  0
  188.3430  177.3980  146.4400 C   0  0  0  0  0  3  0  0  0  0  0  0
  189.2440  177.2410  145.3740 C   0  0  0  0  0  3  0  0  0  0  0  0
  189.2010  177.5350  141.7460 C   0  0  0  0  0  0  0  0  0  0  0  0
  187.4630  177.8200  143.8360 C   0  0  2  0  0  3  0  0  0  0  0  0
  188.9050  177.8270  139.5420 C   0  0  0  0  0  3  0  0  0  0  0  0
  187.0070  177.7650  146.2030 C   0  0  0  0  0  3  0  0  0  0  0  0
  185.7190  178.4130  142.2170 C   0  0  0  0  0  0  0  0  0  0  0  0
  185.2350  178.3510  144.6210 C   0  0  0  0  0  3  0  0  0  0  0  0
  189.6790  177.3110  143.0020 N   0  0  0  0  0  0  0  0  0  0  0  0
  186.3610  178.4560  139.7560 C   0  0  0  0  0  3  0  0  0  0  0  0
  185.3610  178.6200  140.9160 C   0  0  0  0  0  0  0  0  0  0  0  0
  189.8500  177.4830  140.5270 C   0  0  0  0  0  0  0  0  0  0  0  0
  187.9360  177.8810  141.5460 N   0  0  0  0  0  0  0  0  0  0  0  0
  184.8180  178.5670  143.2920 C   0  0  0  0  0  3  0  0  0  0  0  0
  181.6520  178.1540  140.1270 C   0  0  0  0  0  0  0  0  0  0  0  0
  181.4940  179.1760  139.1830 O   0  0  0  0  0  0  0  0  0  0  0  0
  183.9550  179.0240  140.5770 C   0  0  2  0  0  3  0  0  0  0  0  0
  182.4770  180.1910  138.9790 C   0  0  0  0  0  2  0  0  0  0  0  0
  183.0020  177.8370  140.6990 C   0  0  0  0  0  2  0  0  0  0  0  0
  183.8820  179.6440  139.1860 C   0  0  0  0  0  2  0  0  0  0  0  0
  180.6690  177.4300  140.4270 O   0  0  0  0  0  0  0  0  0  0  0  0
  191.2910  177.1890  140.2960 C   0  0  0  0  0  2  0  0  0  0  0  0
  191.6080  177.2980  138.8140 C   0  0  0  0  0  2  0  0  0  0  0  0
  190.0840  175.1530  137.2490 C   0  0  0  0  0  1  0  0  0  0  0  0
  192.0630  175.9540  138.2570 C   0  0  1  0  0  3  0  0  0  0  0  0
  191.3980  175.7090  136.9660 N   0  0  0  0  0  0  0  0  0  0  0  0
  193.5400  175.1560  135.8740 C   0  0  0  0  0  2  0  0  0  0  0  0
  193.9870  176.2450  136.7480 N   0  0  0  0  0  2  0  0  0  0  0  0
  193.5980  175.9470  138.1230 C   0  0  0  0  0  2  0  0  0  0  0  0
  192.1190  174.6840  136.2120 C   0  0  0  0  0  2  0  0  0  0  0  0
  1 10  2  0  0  0  0
  2  6  1  0  0  0  0
  4 17  1  0  0  0  0
  6  5  2  0  0  0  0
  7 13  1  0  0  0  0
  8  3  1  1  0  0  0
  8  2  1  0  0  0  0
  8  1  1  0  0  0  0
  9  4  2  0  0  0  0
  9 16  1  0  0  0  0
 10  5  1  0  0  0  0
 11  3  2  0  0  0  0
 11 18  1  0  0  0  0
 12  1  1  0  0  0  0
 13  2  2  0  0  0  0
 14  4  1  0  0  0  0
 14 15  2  0  0  0  0
 15 11  1  0  0  0  0
 16  7  2  0  0  0  0
 17  7  1  0  0  0  0
 17  3  1  0  0  0  0
 18 12  2  0  0  0  0
 19 25  2  0  0  0  0
 19 23  1  0  0  0  0
 20 19  1  0  0  0  0
 21 23  1  0  0  0  0
 21 15  1  6  0  0  0
 22 20  1  0  0  0  0
 22 24  1  0  0  0  0
 24 21  1  0  0  0  0
 26 16  1  0  0  0  0
 27 26  1  0  0  0  0
 29 27  1  6  0  0  0
 30 28  1  0  0  0  0
 30 29  1  0  0  0  0
 31 34  1  0  0  0  0
 31 32  1  0  0  0  0
 32 33  1  0  0  0  0
 33 29  1  0  0  0  0
 34 30  1  0  0  0  0
M  END
>  <MODEL>
7

>  <REMARK>
 VINA RESULT:      -9.6      1.412      2.421
  Name = 
  4 active torsions:
  status: ('A' for Active; 'I' for Inactive)
    1  A    between atoms: C_3  and  C_13
    2  A    between atoms: C_3  and  C_17
    3  A    between atoms: C_12  and  C_28
    4  A    between atoms: C_17  and  C_29
                            x       y       z     vdW  Elec       q    Type
                         _______ _______ _______ _____ _____    ______ ____

>  <TORSDO>
F 4

$$$$
=
 OpenBabel10272400033D

 34 40  0  0  1  0  0  0  0  0999 V2000
  190.0920  177.2390  140.4980 C   0  0  0  0  0  0  0  0  0  0  0  0
  188.0800  178.0340  139.3220 C   0  0  0  0  0  0  0  0  0  0  0  0
  188.0710  177.7450  141.7290 C   0  0  0  0  0  0  0  0  0  0  0  0
  185.9980  178.3200  142.7380 C   0  0  0  0  0  0  0  0  0  0  0  0
  190.1080  177.5330  138.0880 C   0  0  0  0  0  3  0  0  0  0  0  0
  188.7710  177.9610  138.1090 C   0  0  0  0  0  3  0  0  0  0  0  0
  186.1600  178.5130  140.5850 C   0  0  0  0  0  0  0  0  0  0  0  0
  188.7580  177.6670  140.5150 C   0  0  0  0  0  0  0  0  0  0  0  0
  184.7580  178.8030  142.3130 C   0  0  0  0  0  3  0  0  0  0  0  0
  190.7670  177.1730  139.2760 C   0  0  0  0  0  3  0  0  0  0  0  0
  188.6700  177.4110  142.9520 C   0  0  0  0  0  0  0  0  0  0  0  0
  190.7180  176.8940  141.7060 C   0  0  0  0  0  3  0  0  0  0  0  0
  186.7750  178.4580  139.3710 N   0  0  0  0  0  0  0  0  0  0  0  0
  186.4890  178.0000  144.1210 C   0  0  0  0  0  2  0  0  0  0  0  0
  187.9520  177.5170  144.1080 C   0  0  0  0  0  0  0  0  0  0  0  0
  184.8790  178.9120  140.9140 C   0  0  0  0  0  0  0  0  0  0  0  0
  186.8010  178.1680  141.6940 N   0  0  0  0  0  0  0  0  0  0  0  0
  190.0140  176.9800  142.9230 C   0  0  0  0  0  3  0  0  0  0  0  0
  188.4940  177.5770  147.8900 C   0  0  0  0  0  0  0  0  0  0  0  0
  189.8900  177.4760  147.9170 O   0  0  0  0  0  0  0  0  0  0  0  0
  188.5850  177.1620  145.4230 C   0  0  2  0  0  3  0  0  0  0  0  0
  190.6580  177.1220  146.7660 C   0  0  0  0  0  2  0  0  0  0  0  0
  187.7570  177.7000  146.5890 C   0  0  0  0  0  2  0  0  0  0  0  0
  190.0220  177.6660  145.4940 C   0  0  0  0  0  2  0  0  0  0  0  0
  187.8570  177.6630  148.9710 O   0  0  0  0  0  0  0  0  0  0  0  0
  183.8390  179.4300  139.9820 C   0  0  0  0  0  2  0  0  0  0  0  0
  182.4990  178.7880  140.2970 C   0  0  0  0  0  2  0  0  0  0  0  0
  181.1640  179.7600  137.7200 C   0  0  0  0  0  1  0  0  0  0  0  0
  181.9710  178.0170  139.0930 C   0  0  1  0  0  3  0  0  0  0  0  0
  182.2350  178.7870  137.8650 N   0  0  0  0  0  0  0  0  0  0  0  0
  183.2340  176.8250  136.7520 C   0  0  0  0  0  2  0  0  0  0  0  0
  183.7440  176.6190  138.1110 N   0  0  0  0  0  2  0  0  0  0  0  0
  182.6250  176.6240  139.0480 C   0  0  0  0  0  2  0  0  0  0  0  0
  182.1550  177.9150  136.6940 C   0  0  0  0  0  2  0  0  0  0  0  0
  1  8  1  0  0  0  0
  1 12  1  0  0  0  0
  2 13  2  0  0  0  0
  2  8  1  0  0  0  0
  3 11  1  0  0  0  0
  4 14  1  0  0  0  0
  5  6  2  0  0  0  0
  5 10  1  0  0  0  0
  6  2  1  0  0  0  0
  7 16  2  0  0  0  0
  7 17  1  0  0  0  0
  8  3  2  0  0  0  0
  9  4  2  0  0  0  0
 10  1  2  0  0  0  0
 11 15  2  0  0  0  0
 12 18  2  0  0  0  0
 13  7  1  0  0  0  0
 15 14  1  0  0  0  0
 16  9  1  0  0  0  0
 17  3  1  0  0  0  0
 17  4  1  0  0  0  0
 18 11  1  0  0  0  0
 19 20  1  0  0  0  0
 19 25  2  0  0  0  0
 21 15  1  6  0  0  0
 21 24  1  0  0  0  0
 21 23  1  0  0  0  0
 22 20  1  0  0  0  0
 23 19  1  0  0  0  0
 24 22  1  0  0  0  0
 26 27  1  0  0  0  0
 26 16  1  0  0  0  0
 28 30  1  0  0  0  0
 29 27  1  1  0  0  0
 30 29  1  0  0  0  0
 31 32  1  0  0  0  0
 32 33  1  0  0  0  0
 33 29  1  0  0  0  0
 34 31  1  0  0  0  0
 34 30  1  0  0  0  0
M  END
>  <MODEL>
8

>  <REMARK>
 VINA RESULT:      -9.6      3.618      7.283
  Name = 
  4 active torsions:
  status: ('A' for Active; 'I' for Inactive)
    1  A    between atoms: C_3  and  C_13
    2  A    between atoms: C_3  and  C_17
    3  A    between atoms: C_12  and  C_28
    4  A    between atoms: C_17  and  C_29
                            x       y       z     vdW  Elec       q    Type
                         _______ _______ _______ _____ _____    ______ ____

>  <TORSDO>
F 4

$$$$
=
 OpenBabel10272400033D

 34 40  0  0  1  0  0  0  0  0999 V2000
  189.1250  177.2430  145.6270 C   0  0  0  0  0  0  0  0  0  0  0  0
  190.9090  176.7880  143.9930 C   0  0  0  0  0  0  0  0  0  0  0  0
  188.7380  177.5800  143.2610 C   0  0  0  0  0  0  0  0  0  0  0  0
  188.5820  177.8630  140.9070 C   0  0  0  0  0  0  0  0  0  0  0  0
  191.3000  176.4550  146.3630 C   0  0  0  0  0  3  0  0  0  0  0  0
  191.7590  176.4160  145.0370 C   0  0  0  0  0  3  0  0  0  0  0  0
  190.4610  177.1470  141.7150 C   0  0  0  0  0  0  0  0  0  0  0  0
  189.5870  177.2010  144.3040 C   0  0  2  0  0  3  0  0  0  0  0  0
  189.4260  177.7070  139.8060 C   0  0  0  0  0  3  0  0  0  0  0  0
  189.9890  176.8670  146.6580 C   0  0  0  0  0  3  0  0  0  0  0  0
  187.4210  178.0100  143.4850 C   0  0  0  0  0  0  0  0  0  0  0  0
  187.8100  177.6650  145.8820 C   0  0  0  0  0  3  0  0  0  0  0  0
  191.3370  176.7660  142.6870 N   0  0  0  0  0  0  0  0  0  0  0  0
  187.1590  178.3410  140.9760 C   0  0  0  0  0  3  0  0  0  0  0  0
  186.6420  178.3780  142.4270 C   0  0  0  0  0  0  0  0  0  0  0  0
  190.6360  177.2330  140.3480 C   0  0  0  0  0  0  0  0  0  0  0  0
  189.2280  177.5320  142.0170 N   0  0  0  0  0  0  0  0  0  0  0  0
  186.9660  178.0460  144.8200 C   0  0  0  0  0  3  0  0  0  0  0  0
  183.3790  178.9310  144.3370 C   0  0  0  0  0  0  0  0  0  0  0  0
  182.4710  178.7480  143.2870 O   0  0  0  0  0  0  0  0  0  0  0  0
  185.2310  178.8400  142.6560 C   0  0  2  0  0  3  0  0  0  0  0  0
  182.8770  178.7110  141.9180 C   0  0  0  0  0  2  0  0  0  0  0  0
  184.8490  178.7160  144.1290 C   0  0  0  0  0  2  0  0  0  0  0  0
  184.2530  178.0760  141.7710 C   0  0  0  0  0  2  0  0  0  0  0  0
  182.9490  179.1850  145.4910 O   0  0  0  0  0  0  0  0  0  0  0  0
  191.8850  176.9480  139.5890 C   0  0  0  0  0  2  0  0  0  0  0  0
  191.5400  176.4770  138.1860 C   0  0  0  0  0  2  0  0  0  0  0  0
  190.4130  173.8980  136.9850 C   0  0  0  0  0  1  0  0  0  0  0  0
  192.2070  175.1400  137.8840 C   0  0  1  0  0  3  0  0  0  0  0  0
  191.6470  174.5840  136.6400 N   0  0  0  0  0  0  0  0  0  0  0  0
  193.8970  174.1760  135.7140 C   0  0  0  0  0  2  0  0  0  0  0  0
  194.1430  175.4510  136.3940 N   0  0  0  0  0  2  0  0  0  0  0  0
  193.7320  175.3360  137.7900 C   0  0  0  0  0  2  0  0  0  0  0  0
  192.5420  173.5640  136.0950 C   0  0  0  0  0  2  0  0  0  0  0  0
  1 12  1  0  0  0  0
  1 10  2  0  0  0  0
  2  8  1  0  0  0  0
  2  6  1  0  0  0  0
  3 11  2  0  0  0  0
  4 14  1  0  0  0  0
  4 17  1  0  0  0  0
  5 10  1  0  0  0  0
  6  5  2  0  0  0  0
  7 17  1  0  0  0  0
  7 13  1  0  0  0  0
  8  3  1  1  0  0  0
  8  1  1  0  0  0  0
  9 16  1  0  0  0  0
  9  4  2  0  0  0  0
 11 18  1  0  0  0  0
 13  2  2  0  0  0  0
 14 15  2  0  0  0  0
 15 11  1  0  0  0  0
 16  7  2  0  0  0  0
 17  3  1  0  0  0  0
 18 12  2  0  0  0  0
 19 25  2  0  0  0  0
 20 19  1  0  0  0  0
 21 15  1  1  0  0  0
 21 23  1  0  0  0  0
 22 20  1  0  0  0  0
 23 19  1  0  0  0  0
 24 22  1  0  0  0  0
 24 21  1  0  0  0  0
 26 16  1  0  0  0  0
 27 26  1  0  0  0  0
 29 27  1  6  0  0  0
 30 28  1  0  0  0  0
 30 29  1  0  0  0  0
 31 34  1  0  0  0  0
 31 32  1  0  0  0  0
 32 33  1  0  0  0  0
 33 29  1  0  0  0  0
 34 30  1  0  0  0  0
M  END
>  <MODEL>
9

>  <REMARK>
 VINA RESULT:      -9.5      0.981      1.474
  Name = 
  4 active torsions:
  status: ('A' for Active; 'I' for Inactive)
    1  A    between atoms: C_3  and  C_13
    2  A    between atoms: C_3  and  C_17
    3  A    between atoms: C_12  and  C_28
    4  A    between atoms: C_17  and  C_29
                            x       y       z     vdW  Elec       q    Type
                         _______ _______ _______ _____ _____    ______ ____

>  <TORSDO>
F 4

$$$$
