=
 OpenBabel10272401113D

 27 29  0  0  0  0  0  0  0  0999 V2000
  189.0500  178.2410  140.3990 N   0  0  0  0  0  2  0  0  0  0  0  0
  187.8640  177.3000  142.1990 N   0  0  0  0  0  0  0  0  0  0  0  0
  189.0270  177.6480  141.7060 C   0  0  0  0  0  0  0  0  0  0  0  0
  191.5100  177.6200  141.4550 C   0  0  0  0  0  1  0  0  0  0  0  0
  191.6710  176.8600  145.0430 C   0  0  0  0  0  2  0  0  0  0  0  0
  190.3520  177.4600  142.4370 C   0  0  0  0  0  0  0  0  0  0  0  0
  190.4330  176.0370  143.0290 C   0  0  0  0  0  2  0  0  0  0  0  0
  191.6640  175.8370  143.9160 C   0  0  0  0  0  2  0  0  0  0  0  0
  191.6790  178.2670  144.4600 C   0  0  0  0  0  2  0  0  0  0  0  0
  190.4420  178.4790  143.5860 C   0  0  0  0  0  2  0  0  0  0  0  0
  187.5920  175.3950  143.5510 O   0  0  0  0  0  0  0  0  0  0  0  0
  187.5020  176.6470  143.4290 C   0  0  0  0  0  0  0  0  0  0  0  0
  185.8490  178.9860  146.6280 C   0  0  0  0  0  3  0  0  0  0  0  0
  187.6630  178.3130  148.1950 C   0  0  0  0  0  1  0  0  0  0  0  0
  187.5760  177.4820  145.8230 C   0  0  0  0  0  0  0  0  0  0  0  0
  188.7030  176.7670  146.0740 F   0  0  0  0  0  0  0  0  0  0  0  0
  186.9550  177.4400  144.5540 C   0  0  0  0  0  0  0  0  0  0  0  0
  187.0200  178.2580  146.8530 C   0  0  0  0  0  0  0  0  0  0  0  0
  185.7770  178.1780  144.3520 C   0  0  0  0  0  3  0  0  0  0  0  0
  185.2280  178.9450  145.3800 C   0  0  0  0  0  3  0  0  0  0  0  0
  187.8670  178.3990  139.5610 C   0  0  0  0  0  2  0  0  0  0  0  0
  187.5370  178.0150  135.8060 C   0  0  0  0  0  3  0  0  0  0  0  0
  188.7790  177.4690  135.4730 C   0  0  0  0  0  3  0  0  0  0  0  0
  187.2420  178.3220  137.1380 C   0  0  0  0  0  3  0  0  0  0  0  0
  189.7280  177.2290  136.4730 C   0  0  0  0  0  3  0  0  0  0  0  0
  189.4340  177.5360  137.8040 C   0  0  0  0  0  3  0  0  0  0  0  0
  188.1900  178.0840  138.1390 C   0  0  0  0  0  0  0  0  0  0  0  0
  1  3  1  0  0  0  0
  2 12  1  0  0  0  0
  3  2  2  0  0  0  0
  3  6  1  0  0  0  0
  4  6  1  0  0  0  0
  6  7  1  0  0  0  0
  6 10  1  0  0  0  0
  7  8  1  0  0  0  0
  8  5  1  0  0  0  0
  9  5  1  0  0  0  0
 10  9  1  0  0  0  0
 12 11  2  0  0  0  0
 12 17  1  0  0  0  0
 13 18  1  0  0  0  0
 15 16  1  0  0  0  0
 15 18  2  0  0  0  0
 17 15  1  0  0  0  0
 18 14  1  0  0  0  0
 19 17  2  0  0  0  0
 19 20  1  0  0  0  0
 20 13  2  0  0  0  0
 21  1  1  0  0  0  0
 22 24  1  0  0  0  0
 23 22  2  0  0  0  0
 23 25  1  0  0  0  0
 24 27  2  0  0  0  0
 25 26  2  0  0  0  0
 26 27  1  0  0  0  0
 27 21  1  0  0  0  0
M  END
>  <MODEL>
1

>  <REMARK>
 VINA RESULT:      -8.9      0.000      0.000
  Name = 
  5 active torsions:
  status: ('A' for Active; 'I' for Inactive)
    1  A    between atoms: N_1  and  C_18
    2  A    between atoms: N_2  and  C_19
    3  A    between atoms: C_9  and  C_15
    4  A    between atoms: C_14  and  C_19
    5  A    between atoms: C_18  and  C_26
                            x       y       z     vdW  Elec       q    Type
                         _______ _______ _______ _____ _____    ______ ____

>  <TORSDO>
F 5

$$$$
=
 OpenBabel10272401113D

 27 29  0  0  0  0  0  0  0  0999 V2000
  189.6620  178.2080  140.3650 N   0  0  0  0  0  2  0  0  0  0  0  0
  188.2030  177.3390  141.9930 N   0  0  0  0  0  0  0  0  0  0  0  0
  189.4360  177.6280  141.6590 C   0  0  0  0  0  0  0  0  0  0  0  0
  191.9300  177.6030  141.7690 C   0  0  0  0  0  1  0  0  0  0  0  0
  191.5710  176.6010  145.2820 C   0  0  0  0  0  2  0  0  0  0  0  0
  190.6430  177.3830  142.5600 C   0  0  0  0  0  0  0  0  0  0  0  0
  190.6430  175.9230  143.0590 C   0  0  0  0  0  2  0  0  0  0  0  0
  191.7330  175.6560  144.0990 C   0  0  0  0  0  2  0  0  0  0  0  0
  191.6580  178.0440  144.8040 C   0  0  0  0  0  2  0  0  0  0  0  0
  190.5600  178.3210  143.7760 C   0  0  0  0  0  2  0  0  0  0  0  0
  187.8110  175.4820  143.3820 O   0  0  0  0  0  0  0  0  0  0  0  0
  187.6500  176.7130  143.1650 C   0  0  0  0  0  0  0  0  0  0  0  0
  185.3230  178.9870  145.9670 C   0  0  0  0  0  3  0  0  0  0  0  0
  183.4990  179.3530  144.3130 C   0  0  0  0  0  1  0  0  0  0  0  0
  185.5700  178.0440  143.7440 C   0  0  0  0  0  0  0  0  0  0  0  0
  185.0710  177.8750  142.4920 F   0  0  0  0  0  0  0  0  0  0  0  0
  186.8250  177.5060  144.1060 C   0  0  0  0  0  0  0  0  0  0  0  0
  184.8240  178.7800  144.6790 C   0  0  0  0  0  0  0  0  0  0  0  0
  187.3080  177.7290  145.4060 C   0  0  0  0  0  3  0  0  0  0  0  0
  186.5640  178.4640  146.3300 C   0  0  0  0  0  3  0  0  0  0  0  0
  188.6090  178.4150  139.3770 C   0  0  0  0  0  2  0  0  0  0  0  0
  188.7280  177.7680  135.6460 C   0  0  0  0  0  3  0  0  0  0  0  0
  189.8040  176.8810  135.5530 C   0  0  0  0  0  3  0  0  0  0  0  0
  188.3420  178.2710  136.8910 C   0  0  0  0  0  3  0  0  0  0  0  0
  190.4950  176.4970  136.7060 C   0  0  0  0  0  3  0  0  0  0  0  0
  190.1100  176.9990  137.9530 C   0  0  0  0  0  3  0  0  0  0  0  0
  189.0320  177.8880  138.0470 C   0  0  0  0  0  0  0  0  0  0  0  0
  1  3  1  0  0  0  0
  2 12  1  0  0  0  0
  3  2  2  0  0  0  0
  3  6  1  0  0  0  0
  4  6  1  0  0  0  0
  6  7  1  0  0  0  0
  6 10  1  0  0  0  0
  7  8  1  0  0  0  0
  8  5  1  0  0  0  0
  9  5  1  0  0  0  0
 10  9  1  0  0  0  0
 12 11  2  0  0  0  0
 12 17  1  0  0  0  0
 13 20  1  0  0  0  0
 14 18  1  0  0  0  0
 15 17  2  0  0  0  0
 15 18  1  0  0  0  0
 16 15  1  0  0  0  0
 17 19  1  0  0  0  0
 18 13  2  0  0  0  0
 19 20  2  0  0  0  0
 21  1  1  0  0  0  0
 22 24  1  0  0  0  0
 23 22  2  0  0  0  0
 23 25  1  0  0  0  0
 24 27  2  0  0  0  0
 25 26  2  0  0  0  0
 26 27  1  0  0  0  0
 27 21  1  0  0  0  0
M  END
>  <MODEL>
2

>  <REMARK>
 VINA RESULT:      -8.8      1.245      1.885
  Name = 
  5 active torsions:
  status: ('A' for Active; 'I' for Inactive)
    1  A    between atoms: N_1  and  C_18
    2  A    between atoms: N_2  and  C_19
    3  A    between atoms: C_9  and  C_15
    4  A    between atoms: C_14  and  C_19
    5  A    between atoms: C_18  and  C_26
                            x       y       z     vdW  Elec       q    Type
                         _______ _______ _______ _____ _____    ______ ____

>  <TORSDO>
F 5

$$$$
=
 OpenBabel10272401113D

 27 29  0  0  0  0  0  0  0  0999 V2000
  187.5630  177.7110  143.7140 N   0  0  0  0  0  2  0  0  0  0  0  0
  189.2200  177.5080  142.0560 N   0  0  0  0  0  0  0  0  0  0  0  0
  188.9440  177.6110  143.3330 C   0  0  0  0  0  0  0  0  0  0  0  0
  190.9110  178.8430  144.2510 C   0  0  0  0  0  1  0  0  0  0  0  0
  191.0830  176.2480  146.8410 C   0  0  0  0  0  2  0  0  0  0  0  0
  189.9990  177.6330  144.4340 C   0  0  0  0  0  0  0  0  0  0  0  0
  190.8780  176.3670  144.3500 C   0  0  0  0  0  2  0  0  0  0  0  0
  191.8490  176.2450  145.5260 C   0  0  0  0  0  2  0  0  0  0  0  0
  190.2810  177.5370  146.9670 C   0  0  0  0  0  2  0  0  0  0  0  0
  189.2970  177.6560  145.8030 C   0  0  0  0  0  2  0  0  0  0  0  0
  191.5680  177.6060  141.9520 O   0  0  0  0  0  0  0  0  0  0  0  0
  190.4720  177.4470  141.3490 C   0  0  0  0  0  0  0  0  0  0  0  0
  190.5810  176.8300  137.1010 C   0  0  0  0  0  3  0  0  0  0  0  0
  188.8720  178.5930  136.6970 C   0  0  0  0  0  1  0  0  0  0  0  0
  189.6680  178.0160  139.0120 C   0  0  0  0  0  0  0  0  0  0  0  0
  188.8110  178.9510  139.4970 F   0  0  0  0  0  0  0  0  0  0  0  0
  190.4830  177.2560  139.8800 C   0  0  0  0  0  0  0  0  0  0  0  0
  189.7240  177.8000  137.6250 C   0  0  0  0  0  0  0  0  0  0  0  0
  191.3360  176.2830  139.3310 C   0  0  0  0  0  3  0  0  0  0  0  0
  191.3850  176.0720  137.9530 C   0  0  0  0  0  3  0  0  0  0  0  0
  186.4640  177.7870  142.7580 C   0  0  0  0  0  2  0  0  0  0  0  0
  184.0270  178.8380  145.4610 C   0  0  0  0  0  3  0  0  0  0  0  0
  182.8720  179.0830  144.7130 C   0  0  0  0  0  3  0  0  0  0  0  0
  185.1980  178.4200  144.8230 C   0  0  0  0  0  3  0  0  0  0  0  0
  182.8880  178.9100  143.3250 C   0  0  0  0  0  3  0  0  0  0  0  0
  184.0590  178.4930  142.6860 C   0  0  0  0  0  3  0  0  0  0  0  0
  185.2170  178.2480  143.4340 C   0  0  0  0  0  0  0  0  0  0  0  0
  2  3  2  0  0  0  0
  3  1  1  0  0  0  0
  3  6  1  0  0  0  0
  4  6  1  0  0  0  0
  5  9  1  0  0  0  0
  6 10  1  0  0  0  0
  7  6  1  0  0  0  0
  7  8  1  0  0  0  0
  8  5  1  0  0  0  0
 10  9  1  0  0  0  0
 12 11  2  0  0  0  0
 12  2  1  0  0  0  0
 13 18  2  0  0  0  0
 13 20  1  0  0  0  0
 14 18  1  0  0  0  0
 15 16  1  0  0  0  0
 15 17  2  0  0  0  0
 17 12  1  0  0  0  0
 18 15  1  0  0  0  0
 19 17  1  0  0  0  0
 20 19  2  0  0  0  0
 21 27  1  0  0  0  0
 21  1  1  0  0  0  0
 23 22  2  0  0  0  0
 24 22  1  0  0  0  0
 25 23  1  0  0  0  0
 26 25  2  0  0  0  0
 26 27  1  0  0  0  0
 27 24  2  0  0  0  0
M  END
>  <MODEL>
3

>  <REMARK>
 VINA RESULT:      -7.7      2.326      6.733
  Name = 
  5 active torsions:
  status: ('A' for Active; 'I' for Inactive)
    1  A    between atoms: N_1  and  C_18
    2  A    between atoms: N_2  and  C_19
    3  A    between atoms: C_9  and  C_15
    4  A    between atoms: C_14  and  C_19
    5  A    between atoms: C_18  and  C_26
                            x       y       z     vdW  Elec       q    Type
                         _______ _______ _______ _____ _____    ______ ____

>  <TORSDO>
F 5

$$$$
=
 OpenBabel10272401113D

 27 29  0  0  0  0  0  0  0  0999 V2000
  187.0710  178.1240  142.5950 N   0  0  0  0  0  2  0  0  0  0  0  0
  188.4440  177.7390  140.7240 N   0  0  0  0  0  0  0  0  0  0  0  0
  188.3230  177.7080  142.0280 C   0  0  0  0  0  0  0  0  0  0  0  0
  189.9570  175.8940  142.5460 C   0  0  0  0  0  1  0  0  0  0  0  0
  191.0240  177.9360  145.4040 C   0  0  0  0  0  2  0  0  0  0  0  0
  189.4310  177.2610  142.9760 C   0  0  0  0  0  0  0  0  0  0  0  0
  188.8770  177.1200  144.4100 C   0  0  0  0  0  2  0  0  0  0  0  0
  189.9720  176.8360  145.4400 C   0  0  0  0  0  2  0  0  0  0  0  0
  191.6350  178.0190  144.0120 C   0  0  0  0  0  2  0  0  0  0  0  0
  190.5480  178.3200  142.9800 C   0  0  0  0  0  2  0  0  0  0  0  0
  190.6810  177.9850  140.0420 O   0  0  0  0  0  0  0  0  0  0  0  0
  189.5550  177.4470  139.8580 C   0  0  0  0  0  0  0  0  0  0  0  0
  188.9200  174.8740  136.4800 C   0  0  0  0  0  3  0  0  0  0  0  0
  191.2370  173.9740  136.5980 C   0  0  0  0  0  1  0  0  0  0  0  0
  190.3970  175.7070  138.2160 C   0  0  0  0  0  0  0  0  0  0  0  0
  191.6230  175.6990  138.8000 F   0  0  0  0  0  0  0  0  0  0  0  0
  189.3700  176.5510  138.6930 C   0  0  0  0  0  0  0  0  0  0  0  0
  190.1640  174.8700  137.1120 C   0  0  0  0  0  0  0  0  0  0  0  0
  188.1260  176.5400  138.0390 C   0  0  0  0  0  3  0  0  0  0  0  0
  187.9020  175.7090  136.9420 C   0  0  0  0  0  3  0  0  0  0  0  0
  185.9630  178.6540  141.8090 C   0  0  0  0  0  2  0  0  0  0  0  0
  182.3080  178.8160  142.7920 C   0  0  0  0  0  3  0  0  0  0  0  0
  182.3990  178.8930  144.1840 C   0  0  0  0  0  3  0  0  0  0  0  0
  183.4700  178.7330  142.0190 C   0  0  0  0  0  3  0  0  0  0  0  0
  183.6520  178.8870  144.8040 C   0  0  0  0  0  3  0  0  0  0  0  0
  184.8150  178.8040  144.0320 C   0  0  0  0  0  3  0  0  0  0  0  0
  184.7250  178.7270  142.6370 C   0  0  0  0  0  0  0  0  0  0  0  0
  2  3  2  0  0  0  0
  3  1  1  0  0  0  0
  3  6  1  0  0  0  0
  4  6  1  0  0  0  0
  5  8  1  0  0  0  0
  6 10  1  0  0  0  0
  6  7  1  0  0  0  0
  7  8  1  0  0  0  0
  9  5  1  0  0  0  0
 10  9  1  0  0  0  0
 12 11  2  0  0  0  0
 12  2  1  0  0  0  0
 13 20  2  0  0  0  0
 13 18  1  0  0  0  0
 14 18  1  0  0  0  0
 15 17  1  0  0  0  0
 15 16  1  0  0  0  0
 17 12  1  0  0  0  0
 18 15  2  0  0  0  0
 19 17  2  0  0  0  0
 20 19  1  0  0  0  0
 21  1  1  0  0  0  0
 21 27  1  0  0  0  0
 22 23  1  0  0  0  0
 23 25  2  0  0  0  0
 24 27  1  0  0  0  0
 24 22  2  0  0  0  0
 26 25  1  0  0  0  0
 27 26  2  0  0  0  0
M  END
>  <MODEL>
4

>  <REMARK>
 VINA RESULT:      -7.4      2.708      6.796
  Name = 
  5 active torsions:
  status: ('A' for Active; 'I' for Inactive)
    1  A    between atoms: N_1  and  C_18
    2  A    between atoms: N_2  and  C_19
    3  A    between atoms: C_9  and  C_15
    4  A    between atoms: C_14  and  C_19
    5  A    between atoms: C_18  and  C_26
                            x       y       z     vdW  Elec       q    Type
                         _______ _______ _______ _____ _____    ______ ____

>  <TORSDO>
F 5

$$$$
=
 OpenBabel10272401113D

 27 29  0  0  0  0  0  0  0  0999 V2000
  187.1310  178.0430  142.6420 N   0  0  0  0  0  2  0  0  0  0  0  0
  188.5830  177.7020  140.8230 N   0  0  0  0  0  0  0  0  0  0  0  0
  188.4100  177.6510  142.1210 C   0  0  0  0  0  0  0  0  0  0  0  0
  190.0450  175.8490  142.6800 C   0  0  0  0  0  1  0  0  0  0  0  0
  190.9700  177.8650  145.6050 C   0  0  0  0  0  2  0  0  0  0  0  0
  189.4850  177.2040  143.1060 C   0  0  0  0  0  0  0  0  0  0  0  0
  188.8750  177.0370  144.5140 C   0  0  0  0  0  2  0  0  0  0  0  0
  189.9320  176.7520  145.5840 C   0  0  0  0  0  2  0  0  0  0  0  0
  191.6360  177.9750  144.2400 C   0  0  0  0  0  2  0  0  0  0  0  0
  190.5860  178.2760  143.1690 C   0  0  0  0  0  2  0  0  0  0  0  0
  190.8440  177.9810  140.2390 O   0  0  0  0  0  0  0  0  0  0  0  0
  189.7320  177.4360  139.9990 C   0  0  0  0  0  0  0  0  0  0  0  0
  189.4570  174.8710  136.5670 C   0  0  0  0  0  3  0  0  0  0  0  0
  187.1630  175.6700  136.0240 C   0  0  0  0  0  1  0  0  0  0  0  0
  188.4440  176.5430  138.0050 C   0  0  0  0  0  0  0  0  0  0  0  0
  187.3730  177.3240  138.3030 F   0  0  0  0  0  0  0  0  0  0  0  0
  189.6040  176.5600  138.8110 C   0  0  0  0  0  0  0  0  0  0  0  0
  188.3780  175.6990  136.8840 C   0  0  0  0  0  0  0  0  0  0  0  0
  190.6750  175.7160  138.4740 C   0  0  0  0  0  3  0  0  0  0  0  0
  190.6030  174.8780  137.3610 C   0  0  0  0  0  3  0  0  0  0  0  0
  186.0490  178.5690  141.8180 C   0  0  0  0  0  2  0  0  0  0  0  0
  183.6990  178.9200  144.7700 C   0  0  0  0  0  3  0  0  0  0  0  0
  182.4540  178.9030  144.1360 C   0  0  0  0  0  3  0  0  0  0  0  0
  184.8700  178.8160  144.0140 C   0  0  0  0  0  3  0  0  0  0  0  0
  182.3790  178.7810  142.7450 C   0  0  0  0  0  3  0  0  0  0  0  0
  183.5500  178.6770  141.9880 C   0  0  0  0  0  3  0  0  0  0  0  0
  184.7980  178.6950  142.6210 C   0  0  0  0  0  0  0  0  0  0  0  0
  2  3  2  0  0  0  0
  3  1  1  0  0  0  0
  3  6  1  0  0  0  0
  4  6  1  0  0  0  0
  6 10  1  0  0  0  0
  6  7  1  0  0  0  0
  7  8  1  0  0  0  0
  8  5  1  0  0  0  0
  9  5  1  0  0  0  0
 10  9  1  0  0  0  0
 12 11  2  0  0  0  0
 12  2  1  0  0  0  0
 13 18  2  0  0  0  0
 13 20  1  0  0  0  0
 14 18  1  0  0  0  0
 15 16  1  0  0  0  0
 15 17  2  0  0  0  0
 17 12  1  0  0  0  0
 18 15  1  0  0  0  0
 19 17  1  0  0  0  0
 20 19  2  0  0  0  0
 21 27  1  0  0  0  0
 21  1  1  0  0  0  0
 23 22  1  0  0  0  0
 24 22  2  0  0  0  0
 25 23  2  0  0  0  0
 26 27  2  0  0  0  0
 26 25  1  0  0  0  0
 27 24  1  0  0  0  0
M  END
>  <MODEL>
5

>  <REMARK>
 VINA RESULT:      -7.4      2.642      6.859
  Name = 
  5 active torsions:
  status: ('A' for Active; 'I' for Inactive)
    1  A    between atoms: N_1  and  C_18
    2  A    between atoms: N_2  and  C_19
    3  A    between atoms: C_9  and  C_15
    4  A    between atoms: C_14  and  C_19
    5  A    between atoms: C_18  and  C_26
                            x       y       z     vdW  Elec       q    Type
                         _______ _______ _______ _____ _____    ______ ____

>  <TORSDO>
F 5

$$$$
=
 OpenBabel10272401113D

 27 29  0  0  0  0  0  0  0  0999 V2000
  188.0790  178.0310  141.1280 N   0  0  0  0  0  2  0  0  0  0  0  0
  189.9540  178.2430  142.5340 N   0  0  0  0  0  0  0  0  0  0  0  0
  188.6770  177.9660  142.4320 C   0  0  0  0  0  0  0  0  0  0  0  0
  187.7390  176.0640  143.7490 C   0  0  0  0  0  1  0  0  0  0  0  0
  186.0410  178.5830  145.8100 C   0  0  0  0  0  2  0  0  0  0  0  0
  187.7910  177.5840  143.6130 C   0  0  0  0  0  0  0  0  0  0  0  0
  186.3500  178.0830  143.3780 C   0  0  0  0  0  2  0  0  0  0  0  0
  185.4490  177.8790  144.5970 C   0  0  0  0  0  2  0  0  0  0  0  0
  187.4310  178.0310  146.0990 C   0  0  0  0  0  2  0  0  0  0  0  0
  188.3400  178.2460  144.8890 C   0  0  0  0  0  2  0  0  0  0  0  0
  191.2420  179.4350  144.0990 O   0  0  0  0  0  0  0  0  0  0  0  0
  190.8280  178.3220  143.6730 C   0  0  0  0  0  0  0  0  0  0  0  0
  192.2020  174.6770  145.4810 C   0  0  0  0  0  3  0  0  0  0  0  0
  192.2000  175.6840  147.7570 C   0  0  0  0  0  1  0  0  0  0  0  0
  191.5220  176.9950  145.7210 C   0  0  0  0  0  0  0  0  0  0  0  0
  191.3220  178.0690  146.5280 F   0  0  0  0  0  0  0  0  0  0  0  0
  191.3060  177.0810  144.3270 C   0  0  0  0  0  0  0  0  0  0  0  0
  191.9670  175.7910  146.2900 C   0  0  0  0  0  0  0  0  0  0  0  0
  191.5510  175.9490  143.5320 C   0  0  0  0  0  3  0  0  0  0  0  0
  191.9950  174.7570  144.1030 C   0  0  0  0  0  3  0  0  0  0  0  0
  188.7920  178.4650  139.9320 C   0  0  0  0  0  2  0  0  0  0  0  0
  188.3880  176.6080  136.6550 C   0  0  0  0  0  3  0  0  0  0  0  0
  187.0230  176.7770  136.4070 C   0  0  0  0  0  3  0  0  0  0  0  0
  188.9630  177.1540  137.8060 C   0  0  0  0  0  3  0  0  0  0  0  0
  186.2320  177.4930  137.3110 C   0  0  0  0  0  3  0  0  0  0  0  0
  186.8060  178.0390  138.4630 C   0  0  0  0  0  3  0  0  0  0  0  0
  188.1730  177.8700  138.7120 C   0  0  0  0  0  0  0  0  0  0  0  0
  1  3  1  0  0  0  0
  2 12  1  0  0  0  0
  3  2  2  0  0  0  0
  3  6  1  0  0  0  0
  5  9  1  0  0  0  0
  6  4  1  0  0  0  0
  6 10  1  0  0  0  0
  7  6  1  0  0  0  0
  7  8  1  0  0  0  0
  8  5  1  0  0  0  0
 10  9  1  0  0  0  0
 12 11  2  0  0  0  0
 12 17  1  0  0  0  0
 13 18  1  0  0  0  0
 15 18  2  0  0  0  0
 15 16  1  0  0  0  0
 17 15  1  0  0  0  0
 18 14  1  0  0  0  0
 19 20  1  0  0  0  0
 19 17  2  0  0  0  0
 20 13  2  0  0  0  0
 21  1  1  0  0  0  0
 22 24  1  0  0  0  0
 23 22  2  0  0  0  0
 23 25  1  0  0  0  0
 24 27  2  0  0  0  0
 25 26  2  0  0  0  0
 26 27  1  0  0  0  0
 27 21  1  0  0  0  0
M  END
>  <MODEL>
6

>  <REMARK>
 VINA RESULT:      -7.1      1.735      4.341
  Name = 
  5 active torsions:
  status: ('A' for Active; 'I' for Inactive)
    1  A    between atoms: N_1  and  C_18
    2  A    between atoms: N_2  and  C_19
    3  A    between atoms: C_9  and  C_15
    4  A    between atoms: C_14  and  C_19
    5  A    between atoms: C_18  and  C_26
                            x       y       z     vdW  Elec       q    Type
                         _______ _______ _______ _____ _____    ______ ____

>  <TORSDO>
F 5

$$$$
=
 OpenBabel10272401113D

 27 29  0  0  0  0  0  0  0  0999 V2000
  187.6020  178.3600  141.1430 N   0  0  0  0  0  2  0  0  0  0  0  0
  188.9970  178.7990  142.9860 N   0  0  0  0  0  0  0  0  0  0  0  0
  188.8450  178.1820  141.8400 C   0  0  0  0  0  0  0  0  0  0  0  0
  190.1190  176.0480  142.0710 C   0  0  0  0  0  1  0  0  0  0  0  0
  191.8170  176.9490  138.9440 C   0  0  0  0  0  2  0  0  0  0  0  0
  189.9060  177.2880  141.2060 C   0  0  0  0  0  0  0  0  0  0  0  0
  191.2510  178.0390  141.1240 C   0  0  0  0  0  2  0  0  0  0  0  0
  192.3150  177.2600  140.3480 C   0  0  0  0  0  2  0  0  0  0  0  0
  190.5340  176.1320  139.0210 C   0  0  0  0  0  2  0  0  0  0  0  0
  189.4620  176.9130  139.7820 C   0  0  0  0  0  2  0  0  0  0  0  0
  191.1490  179.4040  143.7160 O   0  0  0  0  0  0  0  0  0  0  0  0
  190.0710  178.7900  143.9430 C   0  0  0  0  0  0  0  0  0  0  0  0
  189.6140  176.5390  147.5710 C   0  0  0  0  0  3  0  0  0  0  0  0
  191.9570  175.7050  147.4710 C   0  0  0  0  0  1  0  0  0  0  0  0
  191.0130  177.2370  145.7140 C   0  0  0  0  0  0  0  0  0  0  0  0
  192.2100  177.1780  145.0750 F   0  0  0  0  0  0  0  0  0  0  0  0
  189.9450  177.9990  145.1890 C   0  0  0  0  0  0  0  0  0  0  0  0
  190.8410  176.5130  146.9050 C   0  0  0  0  0  0  0  0  0  0  0  0
  188.7180  178.0080  145.8750 C   0  0  0  0  0  3  0  0  0  0  0  0
  188.5530  177.2840  147.0560 C   0  0  0  0  0  3  0  0  0  0  0  0
  186.4760  179.1180  141.6770 C   0  0  0  0  0  2  0  0  0  0  0  0
  182.8940  178.1260  140.9480 C   0  0  0  0  0  3  0  0  0  0  0  0
  182.8840  178.1300  139.5500 C   0  0  0  0  0  3  0  0  0  0  0  0
  184.0630  178.4520  141.6400 C   0  0  0  0  0  3  0  0  0  0  0  0
  184.0450  178.4620  138.8440 C   0  0  0  0  0  3  0  0  0  0  0  0
  185.2150  178.7880  139.5360 C   0  0  0  0  0  3  0  0  0  0  0  0
  185.2260  178.7850  140.9360 C   0  0  0  0  0  0  0  0  0  0  0  0
  1 21  1  0  0  0  0
  1  3  1  0  0  0  0
  2 12  1  0  0  0  0
  3  2  2  0  0  0  0
  5  9  1  0  0  0  0
  5  8  1  0  0  0  0
  6  3  1  0  0  0  0
  6  4  1  0  0  0  0
  7  6  1  0  0  0  0
  8  7  1  0  0  0  0
  9 10  1  0  0  0  0
 10  6  1  0  0  0  0
 11 12  2  0  0  0  0
 12 17  1  0  0  0  0
 15 18  1  0  0  0  0
 16 15  1  0  0  0  0
 17 15  2  0  0  0  0
 17 19  1  0  0  0  0
 18 14  1  0  0  0  0
 18 13  2  0  0  0  0
 19 20  2  0  0  0  0
 20 13  1  0  0  0  0
 22 24  1  0  0  0  0
 23 22  2  0  0  0  0
 25 26  2  0  0  0  0
 25 23  1  0  0  0  0
 26 27  1  0  0  0  0
 27 24  2  0  0  0  0
 27 21  1  0  0  0  0
M  END
>  <MODEL>
7

>  <REMARK>
 VINA RESULT:      -7.0      2.640      4.351
  Name = 
  5 active torsions:
  status: ('A' for Active; 'I' for Inactive)
    1  A    between atoms: N_1  and  C_18
    2  A    between atoms: N_2  and  C_19
    3  A    between atoms: C_9  and  C_15
    4  A    between atoms: C_14  and  C_19
    5  A    between atoms: C_18  and  C_26
                            x       y       z     vdW  Elec       q    Type
                         _______ _______ _______ _____ _____    ______ ____

>  <TORSDO>
F 5

$$$$
=
 OpenBabel10272401113D

 27 29  0  0  0  0  0  0  0  0999 V2000
  184.6730  178.1170  142.7820 N   0  0  0  0  0  2  0  0  0  0  0  0
  185.0060  178.8200  140.5620 N   0  0  0  0  0  0  0  0  0  0  0  0
  184.1510  178.4750  141.4920 C   0  0  0  0  0  0  0  0  0  0  0  0
  182.2440  177.0890  140.6720 C   0  0  0  0  0  1  0  0  0  0  0  0
  180.0670  179.9090  141.5580 C   0  0  0  0  0  2  0  0  0  0  0  0
  182.6410  178.4290  141.2870 C   0  0  0  0  0  0  0  0  0  0  0  0
  182.2050  179.5410  140.3100 C   0  0  0  0  0  2  0  0  0  0  0  0
  180.6840  179.6570  140.1890 C   0  0  0  0  0  2  0  0  0  0  0  0
  180.4240  178.7680  142.5010 C   0  0  0  0  0  2  0  0  0  0  0  0
  181.9420  178.6580  142.6390 C   0  0  0  0  0  2  0  0  0  0  0  0
  184.4820  180.3420  138.8470 O   0  0  0  0  0  0  0  0  0  0  0  0
  184.8250  179.1750  139.1790 C   0  0  0  0  0  0  0  0  0  0  0  0
  185.1780  176.1790  136.1230 C   0  0  0  0  0  3  0  0  0  0  0  0
  187.6620  176.1700  136.2740 C   0  0  0  0  0  1  0  0  0  0  0  0
  186.2460  177.6680  137.7150 C   0  0  0  0  0  0  0  0  0  0  0  0
  187.3890  178.1570  138.2620 F   0  0  0  0  0  0  0  0  0  0  0  0
  184.9810  178.1450  138.1250 C   0  0  0  0  0  0  0  0  0  0  0  0
  186.3360  176.6840  136.7170 C   0  0  0  0  0  0  0  0  0  0  0  0
  183.8290  177.6250  137.5120 C   0  0  0  0  0  3  0  0  0  0  0  0
  183.9260  176.6500  136.5190 C   0  0  0  0  0  3  0  0  0  0  0  0
  186.0970  178.0370  143.0840 C   0  0  0  0  0  2  0  0  0  0  0  0
  185.5780  178.7860  146.7610 C   0  0  0  0  0  3  0  0  0  0  0  0
  186.7480  178.2650  147.3180 C   0  0  0  0  0  3  0  0  0  0  0  0
  185.3640  178.7080  145.3820 C   0  0  0  0  0  3  0  0  0  0  0  0
  187.7070  177.6630  146.4960 C   0  0  0  0  0  3  0  0  0  0  0  0
  187.4940  177.5840  145.1160 C   0  0  0  0  0  3  0  0  0  0  0  0
  186.3210  178.1060  144.5570 C   0  0  0  0  0  0  0  0  0  0  0  0
  1 21  1  0  0  0  0
  2  3  2  0  0  0  0
  3  1  1  0  0  0  0
  4  6  1  0  0  0  0
  5  9  1  0  0  0  0
  6  3  1  0  0  0  0
  6 10  1  0  0  0  0
  7  6  1  0  0  0  0
  8  7  1  0  0  0  0
  8  5  1  0  0  0  0
  9 10  1  0  0  0  0
 11 12  2  0  0  0  0
 12  2  1  0  0  0  0
 13 20  2  0  0  0  0
 13 18  1  0  0  0  0
 14 18  1  0  0  0  0
 15 17  1  0  0  0  0
 15 16  1  0  0  0  0
 17 12  1  0  0  0  0
 18 15  2  0  0  0  0
 19 17  2  0  0  0  0
 20 19  1  0  0  0  0
 21 27  1  0  0  0  0
 22 23  1  0  0  0  0
 24 22  2  0  0  0  0
 25 23  2  0  0  0  0
 26 25  1  0  0  0  0
 27 26  2  0  0  0  0
 27 24  1  0  0  0  0
M  END
>  <MODEL>
8

>  <REMARK>
 VINA RESULT:      -7.0      4.013      8.911
  Name = 
  5 active torsions:
  status: ('A' for Active; 'I' for Inactive)
    1  A    between atoms: N_1  and  C_18
    2  A    between atoms: N_2  and  C_19
    3  A    between atoms: C_9  and  C_15
    4  A    between atoms: C_14  and  C_19
    5  A    between atoms: C_18  and  C_26
                            x       y       z     vdW  Elec       q    Type
                         _______ _______ _______ _____ _____    ______ ____

>  <TORSDO>
F 5

$$$$
=
 OpenBabel10272401113D

 27 29  0  0  0  0  0  0  0  0999 V2000
  187.1410  177.8460  142.3780 N   0  0  0  0  0  2  0  0  0  0  0  0
  187.7660  178.2100  140.1400 N   0  0  0  0  0  0  0  0  0  0  0  0
  188.1170  177.7830  141.3280 C   0  0  0  0  0  0  0  0  0  0  0  0
  190.1260  176.6240  140.4050 C   0  0  0  0  0  1  0  0  0  0  0  0
  191.5300  176.7770  143.7940 C   0  0  0  0  0  2  0  0  0  0  0  0
  189.4980  177.2260  141.6590 C   0  0  0  0  0  0  0  0  0  0  0  0
  189.3780  176.1020  142.7100 C   0  0  0  0  0  2  0  0  0  0  0  0
  190.7390  175.6150  143.2100 C   0  0  0  0  0  2  0  0  0  0  0  0
  191.7260  177.8510  142.7330 C   0  0  0  0  0  2  0  0  0  0  0  0
  190.3680  178.3540  142.2410 C   0  0  0  0  0  2  0  0  0  0  0  0
  189.3310  179.2690  138.7400 O   0  0  0  0  0  0  0  0  0  0  0  0
  188.5030  178.3340  138.9100 C   0  0  0  0  0  0  0  0  0  0  0  0
  187.6700  175.5890  135.7150 C   0  0  0  0  0  3  0  0  0  0  0  0
  190.0710  175.4380  135.0800 C   0  0  0  0  0  1  0  0  0  0  0  0
  189.2860  176.8820  136.9830 C   0  0  0  0  0  0  0  0  0  0  0  0
  190.5750  177.2640  137.1730 F   0  0  0  0  0  0  0  0  0  0  0  0
  188.2490  177.3890  137.7980 C   0  0  0  0  0  0  0  0  0  0  0  0
  188.9890  175.9820  135.9470 C   0  0  0  0  0  0  0  0  0  0  0  0
  186.9280  176.9820  137.5440 C   0  0  0  0  0  3  0  0  0  0  0  0
  186.6400  176.0900  136.5120 C   0  0  0  0  0  3  0  0  0  0  0  0
  185.8150  178.4330  142.2160 C   0  0  0  0  0  2  0  0  0  0  0  0
  183.1190  178.9430  144.8280 C   0  0  0  0  0  3  0  0  0  0  0  0
  183.8470  178.7890  146.0110 C   0  0  0  0  0  3  0  0  0  0  0  0
  183.7600  178.8220  143.5920 C   0  0  0  0  0  3  0  0  0  0  0  0
  185.2170  178.5140  145.9580 C   0  0  0  0  0  3  0  0  0  0  0  0
  185.8590  178.3930  144.7220 C   0  0  0  0  0  3  0  0  0  0  0  0
  185.1310  178.5460  143.5370 C   0  0  0  0  0  0  0  0  0  0  0  0
  2  3  2  0  0  0  0
  3  6  1  0  0  0  0
  3  1  1  0  0  0  0
  4  6  1  0  0  0  0
  6 10  1  0  0  0  0
  6  7  1  0  0  0  0
  7  8  1  0  0  0  0
  8  5  1  0  0  0  0
  9  5  1  0  0  0  0
 10  9  1  0  0  0  0
 11 12  2  0  0  0  0
 12  2  1  0  0  0  0
 13 18  2  0  0  0  0
 13 20  1  0  0  0  0
 14 18  1  0  0  0  0
 15 16  1  0  0  0  0
 15 17  2  0  0  0  0
 17 12  1  0  0  0  0
 18 15  1  0  0  0  0
 19 17  1  0  0  0  0
 20 19  2  0  0  0  0
 21  1  1  0  0  0  0
 21 27  1  0  0  0  0
 22 23  1  0  0  0  0
 24 22  2  0  0  0  0
 25 23  2  0  0  0  0
 26 25  1  0  0  0  0
 27 24  1  0  0  0  0
 27 26  2  0  0  0  0
M  END
>  <MODEL>
9

>  <REMARK>
 VINA RESULT:      -6.9      2.564      7.221
  Name = 
  5 active torsions:
  status: ('A' for Active; 'I' for Inactive)
    1  A    between atoms: N_1  and  C_18
    2  A    between atoms: N_2  and  C_19
    3  A    between atoms: C_9  and  C_15
    4  A    between atoms: C_14  and  C_19
    5  A    between atoms: C_18  and  C_26
                            x       y       z     vdW  Elec       q    Type
                         _______ _______ _______ _____ _____    ______ ____

>  <TORSDO>
F 5

$$$$
