=
 OpenBabel10272402063D

 32 35  0  0  1  0  0  0  0  0999 V2000
  182.3240  173.5560  135.5850 C   0  0  1  0  0  3  0  0  0  0  0  0
  183.2700  174.4070  136.4700 C   0  0  2  0  0  3  0  0  0  0  0  0
  182.3150  172.0420  135.8590 C   0  0  2  0  0  3  0  0  0  0  0  0
  187.5680  172.6520  136.9770 C   0  0  0  0  0  2  0  0  0  0  0  0
  183.9270  173.6940  137.6580 C   0  0  0  0  0  2  0  0  0  0  0  0
  186.1280  171.3340  135.4280 C   0  0  0  0  0  2  0  0  0  0  0  0
  184.9150  172.1840  135.7980 C   0  0  1  0  0  3  0  0  0  0  0  0
  181.7700  171.6140  137.1860 C   0  0  0  0  0  3  0  0  0  0  0  0
  180.9190  174.1050  135.3430 C   0  0  2  0  0  3  0  0  0  0  0  0
  183.6530  171.3360  135.5970 C   0  0  0  0  0  2  0  0  0  0  0  0
  180.0470  174.2040  136.5540 C   0  0  0  0  0  3  0  0  0  0  0  0
  180.2700  173.3740  134.3460 O   0  0  0  0  0  1  0  0  0  0  0  0
  180.7810  172.1700  137.8890 C   0  0  0  0  0  3  0  0  0  0  0  0
  185.0700  172.7660  137.2270 C   0  0  1  0  0  3  0  0  0  0  0  0
  179.9840  173.3760  137.5990 C   0  0  0  0  0  3  0  0  0  0  0  0
  187.4110  172.1460  135.5490 C   0  0  0  0  0  2  0  0  0  0  0  0
  186.3840  173.5380  137.3460 C   0  0  0  0  0  2  0  0  0  0  0  0
  182.4240  176.4860  137.6310 C   0  0  0  0  0  1  0  0  0  0  0  0
  183.2330  175.9600  136.4470 C   0  0  1  0  0  0  0  0  0  0  0  0
  186.9280  176.8470  135.7450 C   0  0  0  0  0  3  0  0  0  0  0  0
  186.2920  177.8020  137.8650 C   0  0  0  0  0  3  0  0  0  0  0  0
  184.6560  176.5170  136.5820 C   0  0  0  0  0  0  0  0  0  0  0  0
  187.2610  177.5980  136.8800 C   0  0  0  0  0  0  0  0  0  0  0  0
  185.0120  177.2690  137.7180 C   0  0  0  0  0  3  0  0  0  0  0  0
  185.6490  176.3080  135.5870 C   0  0  0  0  0  0  0  0  0  0  0  0
  185.3890  175.5190  134.3470 C   0  0  0  0  0  1  0  0  0  0  0  0
  188.7820  179.5480  137.3330 N   0  0  0  0  0  1  0  0  0  0  0  0
  189.6590  177.4150  136.9120 N   0  0  0  0  0  2  0  0  0  0  0  0
  188.6140  178.1650  137.0380 C   0  0  0  0  0  0  0  0  0  0  0  0
  182.5580  176.4530  135.1460 C   0  0  0  0  0  2  0  0  0  0  0  0
  182.1440  177.9230  135.1500 C   0  0  0  0  0  2  0  0  0  0  0  0
  180.8290  178.1040  134.4210 C   0  0  0  0  0  1  0  0  0  0  0  0
  1  3  1  0  0  0  0
  1  2  1  0  0  0  0
  2  5  1  0  0  0  0
  3  8  1  0  0  0  0
  4 17  1  0  0  0  0
  6 16  1  0  0  0  0
  6  7  1  0  0  0  0
  7 14  1  0  0  0  0
  8 13  2  0  0  0  0
  9  1  1  0  0  0  0
  9 11  1  0  0  0  0
 10  7  1  0  0  0  0
 10  3  1  0  0  0  0
 11 15  2  0  0  0  0
 12  9  1  0  0  0  0
 14 17  1  0  0  0  0
 14  5  1  0  0  0  0
 15 13  1  0  0  0  0
 16  4  1  0  0  0  0
 19  2  1  0  0  0  0
 19 22  1  0  0  0  0
 19 18  1  0  0  0  0
 20 23  1  0  0  0  0
 22 24  2  0  0  0  0
 23 29  1  0  0  0  0
 23 21  2  0  0  0  0
 24 21  1  0  0  0  0
 25 20  2  0  0  0  0
 25 22  1  0  0  0  0
 26 25  1  0  0  0  0
 28 29  2  0  0  0  0
 29 27  1  0  0  0  0
 30 31  1  0  0  0  0
 30 19  1  0  0  0  0
 32 31  1  0  0  0  0
M  END
>  <MODEL>
1

>  <REMARK>
 VINA RESULT:      -4.8      0.000      0.000
  Name = 
  5 active torsions:
  status: ('A' for Active; 'I' for Inactive)
    1  A    between atoms: C_1  and  C_4
    2  A    between atoms: C_1  and  C_27
    3  A    between atoms: C_5  and  C_27
    4  A    between atoms: C_16  and  C_27
    5  A    between atoms: C_19  and  C_26
                            x       y       z     vdW  Elec       q    Type
                         _______ _______ _______ _____ _____    ______ ____

>  <TORSDO>
F 5

$$$$
=
 OpenBabel10272402063D

 32 35  0  0  1  0  0  0  0  0999 V2000
  186.8300  173.9630  137.0140 C   0  0  1  0  0  3  0  0  0  0  0  0
  186.7060  175.3390  136.3110 C   0  0  2  0  0  3  0  0  0  0  0  0
  185.5880  173.0560  136.9570 C   0  0  2  0  0  3  0  0  0  0  0  0
  182.7540  177.6510  137.2310 C   0  0  0  0  0  2  0  0  0  0  0  0
  185.4540  175.5630  135.4530 C   0  0  0  0  0  2  0  0  0  0  0  0
  182.9800  175.5160  138.4970 C   0  0  0  0  0  2  0  0  0  0  0  0
  184.2290  175.1500  137.7000 C   0  0  1  0  0  3  0  0  0  0  0  0
  185.2050  172.5440  135.6040 C   0  0  0  0  0  3  0  0  0  0  0  0
  188.1230  173.1810  136.7890 C   0  0  2  0  0  3  0  0  0  0  0  0
  184.3490  173.6220  137.6660 C   0  0  0  0  0  2  0  0  0  0  0  0
  188.3670  172.7270  135.3850 C   0  0  0  0  0  3  0  0  0  0  0  0
  188.2000  172.0960  137.6640 O   0  0  0  0  0  1  0  0  0  0  0  0
  186.0090  172.2130  134.5900 C   0  0  0  0  0  3  0  0  0  0  0  0
  184.2010  175.8180  136.3010 C   0  0  1  0  0  3  0  0  0  0  0  0
  187.4760  172.3030  134.4870 C   0  0  0  0  0  3  0  0  0  0  0  0
  182.8420  177.0280  138.6180 C   0  0  0  0  0  2  0  0  0  0  0  0
  184.0150  177.3300  136.4380 C   0  0  0  0  0  2  0  0  0  0  0  0
  187.4870  177.6310  135.5880 C   0  0  0  0  0  1  0  0  0  0  0  0
  187.9350  176.2670  136.1100 C   0  0  1  0  0  0  0  0  0  0  0  0
  188.7370  177.4790  139.6900 C   0  0  0  0  0  3  0  0  0  0  0  0
  190.5460  176.0830  138.9230 C   0  0  0  0  0  3  0  0  0  0  0  0
  188.6380  176.5000  137.4540 C   0  0  0  0  0  0  0  0  0  0  0  0
  189.9770  176.8710  139.9260 C   0  0  0  0  0  0  0  0  0  0  0  0
  189.8870  175.9020  137.7070 C   0  0  0  0  0  3  0  0  0  0  0  0
  188.0680  177.3060  138.4770 C   0  0  0  0  0  0  0  0  0  0  0  0
  186.7540  177.9970  138.3160 C   0  0  0  0  0  1  0  0  0  0  0  0
  190.0260  176.7310  142.4360 N   0  0  0  0  0  1  0  0  0  0  0  0
  191.8830  177.5200  141.2420 N   0  0  0  0  0  2  0  0  0  0  0  0
  190.6760  177.0590  141.2110 C   0  0  0  0  0  0  0  0  0  0  0  0
  188.9000  175.6480  135.0730 C   0  0  0  0  0  2  0  0  0  0  0  0
  189.8080  176.6470  134.3580 C   0  0  0  0  0  2  0  0  0  0  0  0
  191.2380  176.1480  134.3460 C   0  0  0  0  0  1  0  0  0  0  0  0
  2  1  1  0  0  0  0
  3  1  1  0  0  0  0
  3 10  1  0  0  0  0
  4 16  1  0  0  0  0
  5 14  1  0  0  0  0
  5  2  1  0  0  0  0
  6 16  1  0  0  0  0
  7  6  1  0  0  0  0
  8  3  1  0  0  0  0
  9  1  1  0  0  0  0
  9 12  1  0  0  0  0
 10  7  1  0  0  0  0
 11  9  1  0  0  0  0
 13  8  2  0  0  0  0
 14 17  1  0  0  0  0
 14  7  1  0  0  0  0
 15 13  1  0  0  0  0
 15 11  2  0  0  0  0
 17  4  1  0  0  0  0
 18 19  1  0  0  0  0
 19  2  1  0  0  0  0
 19 22  1  0  0  0  0
 20 23  1  0  0  0  0
 21 23  2  0  0  0  0
 22 24  2  0  0  0  0
 22 25  1  0  0  0  0
 23 29  1  0  0  0  0
 24 21  1  0  0  0  0
 25 20  2  0  0  0  0
 26 25  1  0  0  0  0
 29 28  2  0  0  0  0
 29 27  1  0  0  0  0
 30 19  1  0  0  0  0
 31 30  1  0  0  0  0
 32 31  1  0  0  0  0
M  END
>  <MODEL>
2

>  <REMARK>
 VINA RESULT:      -4.5      2.853      5.771
  Name = 
  5 active torsions:
  status: ('A' for Active; 'I' for Inactive)
    1  A    between atoms: C_1  and  C_4
    2  A    between atoms: C_1  and  C_27
    3  A    between atoms: C_5  and  C_27
    4  A    between atoms: C_16  and  C_27
    5  A    between atoms: C_19  and  C_26
                            x       y       z     vdW  Elec       q    Type
                         _______ _______ _______ _____ _____    ______ ____

>  <TORSDO>
F 5

$$$$
=
 OpenBabel10272402063D

 32 35  0  0  1  0  0  0  0  0999 V2000
  181.8650  178.4470  138.2640 C   0  0  1  0  0  3  0  0  0  0  0  0
  183.1430  177.7800  138.8330 C   0  0  2  0  0  3  0  0  0  0  0  0
  180.6160  177.5530  138.1680 C   0  0  2  0  0  3  0  0  0  0  0  0
  184.0910  173.5600  137.0720 C   0  0  0  0  0  2  0  0  0  0  0  0
  182.9770  176.3810  139.4400 C   0  0  0  0  0  2  0  0  0  0  0  0
  182.1150  174.6590  136.0230 C   0  0  0  0  0  2  0  0  0  0  0  0
  182.1700  175.7860  137.0510 C   0  0  1  0  0  3  0  0  0  0  0  0
  180.0300  177.0960  139.4680 C   0  0  0  0  0  3  0  0  0  0  0  0
  181.5300  179.8490  138.7670 C   0  0  2  0  0  3  0  0  0  0  0  0
  180.7560  176.3570  137.2160 C   0  0  0  0  0  2  0  0  0  0  0  0
  181.1950  179.9510  140.2210 C   0  0  0  0  0  3  0  0  0  0  0  0
  180.5110  180.4170  138.0000 O   0  0  0  0  0  1  0  0  0  0  0  0
  179.9820  177.7560  140.6270 C   0  0  0  0  0  3  0  0  0  0  0  0
  182.8160  175.2930  138.3710 C   0  0  1  0  0  3  0  0  0  0  0  0
  180.5270  179.0790  140.9790 C   0  0  0  0  0  3  0  0  0  0  0  0
  183.5070  174.0930  135.7700 C   0  0  0  0  0  2  0  0  0  0  0  0
  184.1910  174.6850  138.0940 C   0  0  0  0  0  2  0  0  0  0  0  0
  184.2040  180.0730  138.8030 C   0  0  0  0  0  1  0  0  0  0  0  0
  184.4120  178.6070  139.1770 C   0  0  1  0  0  0  0  0  0  0  0  0
  186.1830  178.4640  142.6090 C   0  0  0  0  0  3  0  0  0  0  0  0
  183.8000  178.5320  142.9700 C   0  0  0  0  0  3  0  0  0  0  0  0
  184.6760  178.5540  140.6880 C   0  0  0  0  0  0  0  0  0  0  0  0
  185.0950  178.4830  143.4910 C   0  0  0  0  0  0  0  0  0  0  0  0
  183.5950  178.5660  141.5910 C   0  0  0  0  0  3  0  0  0  0  0  0
  185.9900  178.4970  141.2250 C   0  0  0  0  0  0  0  0  0  0  0  0
  187.2090  178.4680  140.3650 C   0  0  0  0  0  1  0  0  0  0  0  0
  184.2700  178.8560  145.8380 N   0  0  0  0  0  1  0  0  0  0  0  0
  186.4370  178.0520  145.4410 N   0  0  0  0  0  2  0  0  0  0  0  0
  185.3090  178.4490  144.9510 C   0  0  0  0  0  0  0  0  0  0  0  0
  185.6230  178.0740  138.3770 C   0  0  0  0  0  2  0  0  0  0  0  0
  185.3330  177.7330  136.9180 C   0  0  0  0  0  2  0  0  0  0  0  0
  186.6220  177.4320  136.1790 C   0  0  0  0  0  1  0  0  0  0  0  0
  1  9  1  0  0  0  0
  1  2  1  0  0  0  0
  2 19  1  0  0  0  0
  2  5  1  0  0  0  0
  3  1  1  0  0  0  0
  3  8  1  0  0  0  0
  4 17  1  0  0  0  0
  6  7  1  0  0  0  0
  7 10  1  0  0  0  0
  7 14  1  0  0  0  0
  8 13  2  0  0  0  0
  9 11  1  0  0  0  0
 10  3  1  0  0  0  0
 11 15  2  0  0  0  0
 12  9  1  0  0  0  0
 13 15  1  0  0  0  0
 14  5  1  0  0  0  0
 16  6  1  0  0  0  0
 16  4  1  0  0  0  0
 17 14  1  0  0  0  0
 18 19  1  0  0  0  0
 19 22  1  0  0  0  0
 20 23  1  0  0  0  0
 21 23  2  0  0  0  0
 22 25  1  0  0  0  0
 22 24  2  0  0  0  0
 23 29  1  0  0  0  0
 24 21  1  0  0  0  0
 25 20  2  0  0  0  0
 26 25  1  0  0  0  0
 29 28  2  0  0  0  0
 29 27  1  0  0  0  0
 30 19  1  0  0  0  0
 31 30  1  0  0  0  0
 32 31  1  0  0  0  0
M  END
>  <MODEL>
3

>  <REMARK>
 VINA RESULT:      -4.4      4.111      5.933
  Name = 
  5 active torsions:
  status: ('A' for Active; 'I' for Inactive)
    1  A    between atoms: C_1  and  C_4
    2  A    between atoms: C_1  and  C_27
    3  A    between atoms: C_5  and  C_27
    4  A    between atoms: C_16  and  C_27
    5  A    between atoms: C_19  and  C_26
                            x       y       z     vdW  Elec       q    Type
                         _______ _______ _______ _____ _____    ______ ____

>  <TORSDO>
F 5

$$$$
=
 OpenBabel10272402063D

 32 35  0  0  1  0  0  0  0  0999 V2000
  187.0900  175.6730  136.9100 C   0  0  1  0  0  3  0  0  0  0  0  0
  185.9470  175.0920  136.0370 C   0  0  2  0  0  3  0  0  0  0  0  0
  188.5150  175.5220  136.3520 C   0  0  2  0  0  3  0  0  0  0  0  0
  186.7670  170.8170  134.3460 C   0  0  0  0  0  2  0  0  0  0  0  0
  186.3270  174.6290  134.6250 C   0  0  0  0  0  2  0  0  0  0  0  0
  188.5600  171.6510  135.8630 C   0  0  0  0  0  2  0  0  0  0  0  0
  187.9030  173.0280  135.9170 C   0  0  1  0  0  3  0  0  0  0  0  0
  188.8210  176.2890  135.1030 C   0  0  0  0  0  3  0  0  0  0  0  0
  186.8580  177.0490  137.5310 C   0  0  2  0  0  3  0  0  0  0  0  0
  188.9920  174.0710  136.1970 C   0  0  0  0  0  2  0  0  0  0  0  0
  186.7310  178.1820  136.5620 C   0  0  0  0  0  3  0  0  0  0  0  0
  187.8460  177.3350  138.4740 O   0  0  0  0  0  1  0  0  0  0  0  0
  188.3540  177.4850  134.7350 C   0  0  0  0  0  3  0  0  0  0  0  0
  187.0820  173.2940  134.6290 C   0  0  1  0  0  3  0  0  0  0  0  0
  187.3800  178.3610  135.4100 C   0  0  0  0  0  3  0  0  0  0  0  0
  187.5140  170.5640  135.6490 C   0  0  0  0  0  2  0  0  0  0  0  0
  186.0700  172.1710  134.4020 C   0  0  0  0  0  2  0  0  0  0  0  0
  183.8800  176.4160  135.4380 C   0  0  0  0  0  1  0  0  0  0  0  0
  184.4520  175.3500  136.3710 C   0  0  1  0  0  0  0  0  0  0  0  0
  183.0950  171.7460  136.6840 C   0  0  0  0  0  3  0  0  0  0  0  0
  181.8550  172.8930  134.9640 C   0  0  0  0  0  3  0  0  0  0  0  0
  183.6390  174.0680  136.1520 C   0  0  0  0  0  0  0  0  0  0  0  0
  182.0840  171.7380  135.7150 C   0  0  0  0  0  0  0  0  0  0  0  0
  182.6220  174.0380  135.1790 C   0  0  0  0  0  3  0  0  0  0  0  0
  183.8700  172.8870  136.9080 C   0  0  0  0  0  0  0  0  0  0  0  0
  184.9280  172.7990  137.9580 C   0  0  0  0  0  1  0  0  0  0  0  0
  181.8870  169.3160  135.0640 N   0  0  0  0  0  2  0  0  0  0  0  0
  179.9900  170.5540  135.6680 N   0  0  0  0  0  1  0  0  0  0  0  0
  181.2700  170.5290  135.4870 C   0  0  0  0  0  0  0  0  0  0  0  0
  184.3160  175.8600  137.8250 C   0  0  0  0  0  2  0  0  0  0  0  0
  183.0280  176.6230  138.1240 C   0  0  0  0  0  2  0  0  0  0  0  0
  182.4220  176.1470  139.4290 C   0  0  0  0  0  1  0  0  0  0  0  0
  1  9  1  0  0  0  0
  2 19  1  0  0  0  0
  2  1  1  0  0  0  0
  3  1  1  0  0  0  0
  4 17  1  0  0  0  0
  4 16  1  0  0  0  0
  5 14  1  0  0  0  0
  5  2  1  0  0  0  0
  6  7  1  0  0  0  0
  7 10  1  0  0  0  0
  8  3  1  0  0  0  0
  9 12  1  0  0  0  0
 10  3  1  0  0  0  0
 11  9  1  0  0  0  0
 13  8  2  0  0  0  0
 13 15  1  0  0  0  0
 14  7  1  0  0  0  0
 15 11  2  0  0  0  0
 16  6  1  0  0  0  0
 17 14  1  0  0  0  0
 18 19  1  0  0  0  0
 19 30  1  0  0  0  0
 20 25  1  0  0  0  0
 21 24  2  0  0  0  0
 21 23  1  0  0  0  0
 22 19  1  0  0  0  0
 22 25  2  0  0  0  0
 23 20  2  0  0  0  0
 24 22  1  0  0  0  0
 25 26  1  0  0  0  0
 27 29  2  0  0  0  0
 29 28  1  0  0  0  0
 29 23  1  0  0  0  0
 30 31  1  0  0  0  0
 31 32  1  0  0  0  0
M  END
>  <MODEL>
4

>  <REMARK>
 VINA RESULT:      -4.2      3.787      6.485
  Name = 
  5 active torsions:
  status: ('A' for Active; 'I' for Inactive)
    1  A    between atoms: C_1  and  C_4
    2  A    between atoms: C_1  and  C_27
    3  A    between atoms: C_5  and  C_27
    4  A    between atoms: C_16  and  C_27
    5  A    between atoms: C_19  and  C_26
                            x       y       z     vdW  Elec       q    Type
                         _______ _______ _______ _____ _____    ______ ____

>  <TORSDO>
F 5

$$$$
=
 OpenBabel10272402063D

 32 35  0  0  1  0  0  0  0  0999 V2000
  186.2770  175.0910  137.3230 C   0  0  1  0  0  3  0  0  0  0  0  0
  186.3340  176.6310  137.1490 C   0  0  2  0  0  3  0  0  0  0  0  0
  184.9260  174.4230  137.0170 C   0  0  2  0  0  3  0  0  0  0  0  0
  182.7300  178.9390  139.0160 C   0  0  0  0  0  2  0  0  0  0  0  0
  185.1200  177.2950  136.4880 C   0  0  0  0  0  2  0  0  0  0  0  0
  182.6740  176.4850  139.4460 C   0  0  0  0  0  2  0  0  0  0  0  0
  183.8610  176.2720  138.5090 C   0  0  1  0  0  3  0  0  0  0  0  0
  184.4720  174.4700  135.5910 C   0  0  0  0  0  3  0  0  0  0  0  0
  187.4540  174.2860  136.7740 C   0  0  2  0  0  3  0  0  0  0  0  0
  183.7760  174.8510  137.9390 C   0  0  0  0  0  2  0  0  0  0  0  0
  187.6300  174.3280  135.2900 C   0  0  0  0  0  3  0  0  0  0  0  0
  187.3900  172.9620  137.2110 O   0  0  0  0  0  1  0  0  0  0  0  0
  185.2200  174.4220  134.4860 C   0  0  0  0  0  3  0  0  0  0  0  0
  183.9160  177.3880  137.4340 C   0  0  1  0  0  3  0  0  0  0  0  0
  186.6860  174.3610  134.3460 C   0  0  0  0  0  3  0  0  0  0  0  0
  182.7400  177.8630  140.0930 C   0  0  0  0  0  2  0  0  0  0  0  0
  183.9330  178.7650  138.0980 C   0  0  0  0  0  2  0  0  0  0  0  0
  187.4890  178.8320  136.6930 C   0  0  0  0  0  1  0  0  0  0  0  0
  187.6750  177.4110  137.2220 C   0  0  1  0  0  0  0  0  0  0  0  0
  189.7210  177.0630  140.4820 C   0  0  0  0  0  3  0  0  0  0  0  0
  187.7560  178.3810  140.9390 C   0  0  0  0  0  3  0  0  0  0  0  0
  188.1350  177.5240  138.6810 C   0  0  0  0  0  0  0  0  0  0  0  0
  188.9400  177.7910  141.3870 C   0  0  0  0  0  0  0  0  0  0  0  0
  187.3600  178.2480  139.6090 C   0  0  0  0  0  3  0  0  0  0  0  0
  189.3350  176.9220  139.1460 C   0  0  0  0  0  0  0  0  0  0  0  0
  190.2300  176.1230  138.2570 C   0  0  0  0  0  1  0  0  0  0  0  0
  188.4240  177.7050  143.8480 N   0  0  0  0  0  1  0  0  0  0  0  0
  190.5700  178.2720  143.0910 N   0  0  0  0  0  2  0  0  0  0  0  0
  189.3570  177.9360  142.7950 C   0  0  0  0  0  0  0  0  0  0  0  0
  188.7430  176.7100  136.3510 C   0  0  0  0  0  2  0  0  0  0  0  0
  189.2010  177.5020  135.1280 C   0  0  0  0  0  2  0  0  0  0  0  0
  190.2380  176.7180  134.3490 C   0  0  0  0  0  1  0  0  0  0  0  0
  2 19  1  0  0  0  0
  2  1  1  0  0  0  0
  3  1  1  0  0  0  0
  3 10  1  0  0  0  0
  4 16  1  0  0  0  0
  5  2  1  0  0  0  0
  5 14  1  0  0  0  0
  6 16  1  0  0  0  0
  7  6  1  0  0  0  0
  8  3  1  0  0  0  0
  9 12  1  0  0  0  0
  9  1  1  0  0  0  0
 10  7  1  0  0  0  0
 11  9  1  0  0  0  0
 13  8  2  0  0  0  0
 14 17  1  0  0  0  0
 14  7  1  0  0  0  0
 15 13  1  0  0  0  0
 15 11  2  0  0  0  0
 17  4  1  0  0  0  0
 18 19  1  0  0  0  0
 19 22  1  0  0  0  0
 20 23  1  0  0  0  0
 21 23  2  0  0  0  0
 22 25  1  0  0  0  0
 22 24  2  0  0  0  0
 23 29  1  0  0  0  0
 24 21  1  0  0  0  0
 25 20  2  0  0  0  0
 26 25  1  0  0  0  0
 29 28  2  0  0  0  0
 29 27  1  0  0  0  0
 30 19  1  0  0  0  0
 31 30  1  0  0  0  0
 32 31  1  0  0  0  0
M  END
>  <MODEL>
5

>  <REMARK>
 VINA RESULT:      -4.2      3.192      5.991
  Name = 
  5 active torsions:
  status: ('A' for Active; 'I' for Inactive)
    1  A    between atoms: C_1  and  C_4
    2  A    between atoms: C_1  and  C_27
    3  A    between atoms: C_5  and  C_27
    4  A    between atoms: C_16  and  C_27
    5  A    between atoms: C_19  and  C_26
                            x       y       z     vdW  Elec       q    Type
                         _______ _______ _______ _____ _____    ______ ____

>  <TORSDO>
F 5

$$$$
=
 OpenBabel10272402063D

 32 35  0  0  1  0  0  0  0  0999 V2000
  195.6790  173.2190  137.6790 C   0  0  1  0  0  3  0  0  0  0  0  0
  195.1960  173.3710  136.2140 C   0  0  2  0  0  3  0  0  0  0  0  0
  196.4690  171.9410  138.0060 C   0  0  2  0  0  3  0  0  0  0  0  0
  193.2340  169.5410  134.4010 C   0  0  0  0  0  2  0  0  0  0  0  0
  195.7360  172.3520  135.2020 C   0  0  0  0  0  2  0  0  0  0  0  0
  193.8600  169.3010  136.8020 C   0  0  0  0  0  2  0  0  0  0  0  0
  194.5710  170.6520  136.7730 C   0  0  1  0  0  3  0  0  0  0  0  0
  197.8080  171.8050  137.3490 C   0  0  0  0  0  3  0  0  0  0  0  0
  196.2860  174.4550  138.3420 C   0  0  2  0  0  3  0  0  0  0  0  0
  195.6760  170.6370  137.8360 C   0  0  0  0  0  2  0  0  0  0  0  0
  197.5660  174.9460  137.7440 C   0  0  0  0  0  3  0  0  0  0  0  0
  196.4470  174.2490  139.7130 O   0  0  0  0  0  1  0  0  0  0  0  0
  198.6820  172.7700  137.0520 C   0  0  0  0  0  3  0  0  0  0  0  0
  195.0690  170.9780  135.3410 C   0  0  1  0  0  3  0  0  0  0  0  0
  198.5680  174.2280  137.2300 C   0  0  0  0  0  3  0  0  0  0  0  0
  192.7070  169.2790  135.8060 C   0  0  0  0  0  2  0  0  0  0  0  0
  193.9100  170.9050  134.3470 C   0  0  0  0  0  2  0  0  0  0  0  0
  193.8870  174.4610  134.3470 C   0  0  0  0  0  1  0  0  0  0  0  0
  194.5700  174.6940  135.6930 C   0  0  1  0  0  0  0  0  0  0  0  0
  191.3550  174.9320  137.8220 C   0  0  0  0  0  3  0  0  0  0  0  0
  192.7290  176.8590  138.2780 C   0  0  0  0  0  3  0  0  0  0  0  0
  193.4960  175.1840  136.6720 C   0  0  0  0  0  0  0  0  0  0  0  0
  191.5590  176.1330  138.5130 C   0  0  0  0  0  0  0  0  0  0  0  0
  193.6800  176.3920  137.3720 C   0  0  0  0  0  3  0  0  0  0  0  0
  192.3000  174.4540  136.9110 C   0  0  0  0  0  0  0  0  0  0  0  0
  191.9920  173.1680  136.2190 C   0  0  0  0  0  1  0  0  0  0  0  0
  190.5500  176.1500  140.8170 N   0  0  0  0  0  1  0  0  0  0  0  0
  189.6730  177.5010  139.1130 N   0  0  0  0  0  2  0  0  0  0  0  0
  190.5560  176.6280  139.4750 C   0  0  0  0  0  0  0  0  0  0  0  0
  195.6750  175.7580  135.4940 C   0  0  0  0  0  2  0  0  0  0  0  0
  195.4300  176.7360  134.3470 C   0  0  0  0  0  2  0  0  0  0  0  0
  195.8830  178.1290  134.7350 C   0  0  0  0  0  1  0  0  0  0  0  0
  1  3  1  0  0  0  0
  1  9  1  0  0  0  0
  2  1  1  0  0  0  0
  4 16  1  0  0  0  0
  5 14  1  0  0  0  0
  5  2  1  0  0  0  0
  7  6  1  0  0  0  0
  7 10  1  0  0  0  0
  8  3  1  0  0  0  0
  9 12  1  0  0  0  0
 10  3  1  0  0  0  0
 11  9  1  0  0  0  0
 13 15  1  0  0  0  0
 13  8  2  0  0  0  0
 14  7  1  0  0  0  0
 15 11  2  0  0  0  0
 16  6  1  0  0  0  0
 17  4  1  0  0  0  0
 17 14  1  0  0  0  0
 18 19  1  0  0  0  0
 19  2  1  0  0  0  0
 19 22  1  0  0  0  0
 20 23  1  0  0  0  0
 21 23  2  0  0  0  0
 22 25  1  0  0  0  0
 22 24  2  0  0  0  0
 23 29  1  0  0  0  0
 24 21  1  0  0  0  0
 25 20  2  0  0  0  0
 26 25  1  0  0  0  0
 28 29  2  0  0  0  0
 29 27  1  0  0  0  0
 30 19  1  0  0  0  0
 31 32  1  0  0  0  0
 31 30  1  0  0  0  0
M  END
>  <MODEL>
6

>  <REMARK>
 VINA RESULT:      -4.2      8.193     11.559
  Name = 
  5 active torsions:
  status: ('A' for Active; 'I' for Inactive)
    1  A    between atoms: C_1  and  C_4
    2  A    between atoms: C_1  and  C_27
    3  A    between atoms: C_5  and  C_27
    4  A    between atoms: C_16  and  C_27
    5  A    between atoms: C_19  and  C_26
                            x       y       z     vdW  Elec       q    Type
                         _______ _______ _______ _____ _____    ______ ____

>  <TORSDO>
F 5

$$$$
=
 OpenBabel10272402063D

 32 35  0  0  1  0  0  0  0  0999 V2000
  186.1110  176.1510  135.6080 C   0  0  1  0  0  3  0  0  0  0  0  0
  187.3650  176.2310  136.5160 C   0  0  2  0  0  3  0  0  0  0  0  0
  185.4280  174.7760  135.5110 C   0  0  2  0  0  3  0  0  0  0  0  0
  190.4210  172.7490  135.9300 C   0  0  0  0  0  2  0  0  0  0  0  0
  187.6640  175.0040  137.3860 C   0  0  0  0  0  2  0  0  0  0  0  0
  188.4960  172.6640  134.3500 C   0  0  0  0  0  2  0  0  0  0  0  0
  187.8090  173.8070  135.0920 C   0  0  1  0  0  3  0  0  0  0  0  0
  184.7870  174.2670  136.7650 C   0  0  0  0  0  3  0  0  0  0  0  0
  185.0980  177.2890  135.7200 C   0  0  2  0  0  3  0  0  0  0  0  0
  186.2950  173.6720  134.8880 C   0  0  0  0  0  2  0  0  0  0  0  0
  184.4010  177.4060  137.0380 C   0  0  0  0  0  3  0  0  0  0  0  0
  184.1610  177.2170  134.6880 O   0  0  0  0  0  1  0  0  0  0  0  0
  184.1770  174.9680  137.7220 C   0  0  0  0  0  3  0  0  0  0  0  0
  188.2520  173.8400  136.5770 C   0  0  1  0  0  3  0  0  0  0  0  0
  184.0020  176.4260  137.8520 C   0  0  0  0  0  3  0  0  0  0  0  0
  190.0110  172.7820  134.4640 C   0  0  0  0  0  2  0  0  0  0  0  0
  189.7760  173.9110  136.6750 C   0  0  0  0  0  2  0  0  0  0  0  0
  187.1130  178.7450  136.4810 C   0  0  0  0  0  1  0  0  0  0  0  0
  188.0320  177.5880  136.8700 C   0  0  1  0  0  0  0  0  0  0  0  0
  189.6670  177.4220  140.3670 C   0  0  0  0  0  3  0  0  0  0  0  0
  187.4140  178.2450  140.6050 C   0  0  0  0  0  3  0  0  0  0  0  0
  188.2630  177.6770  138.3830 C   0  0  0  0  0  0  0  0  0  0  0  0
  188.6330  177.8890  141.1870 C   0  0  0  0  0  0  0  0  0  0  0  0
  187.2330  178.1390  139.2260 C   0  0  0  0  0  3  0  0  0  0  0  0
  189.4980  177.3110  138.9840 C   0  0  0  0  0  0  0  0  0  0  0  0
  190.6550  176.7990  138.1930 C   0  0  0  0  0  1  0  0  0  0  0  0
  187.7690  177.6480  143.5370 N   0  0  0  0  0  1  0  0  0  0  0  0
  189.9420  178.4280  143.1320 N   0  0  0  0  0  2  0  0  0  0  0  0
  188.8220  178.0040  142.6460 C   0  0  0  0  0  0  0  0  0  0  0  0
  189.3580  177.7440  136.0900 C   0  0  0  0  0  2  0  0  0  0  0  0
  189.3390  177.1910  134.6670 C   0  0  0  0  0  2  0  0  0  0  0  0
  190.6500  176.5000  134.3510 C   0  0  0  0  0  1  0  0  0  0  0  0
  1  9  1  0  0  0  0
  1  2  1  0  0  0  0
  2 19  1  0  0  0  0
  2  5  1  0  0  0  0
  3  1  1  0  0  0  0
  3  8  1  0  0  0  0
  4 17  1  0  0  0  0
  6 16  1  0  0  0  0
  6  7  1  0  0  0  0
  7 14  1  0  0  0  0
  8 13  2  0  0  0  0
  9 11  1  0  0  0  0
 10  7  1  0  0  0  0
 10  3  1  0  0  0  0
 11 15  2  0  0  0  0
 12  9  1  0  0  0  0
 13 15  1  0  0  0  0
 14 17  1  0  0  0  0
 14  5  1  0  0  0  0
 16  4  1  0  0  0  0
 18 19  1  0  0  0  0
 19 22  1  0  0  0  0
 20 23  1  0  0  0  0
 21 23  2  0  0  0  0
 22 25  1  0  0  0  0
 22 24  2  0  0  0  0
 23 29  1  0  0  0  0
 24 21  1  0  0  0  0
 25 20  2  0  0  0  0
 26 25  1  0  0  0  0
 29 28  2  0  0  0  0
 29 27  1  0  0  0  0
 30 19  1  0  0  0  0
 31 30  1  0  0  0  0
 32 31  1  0  0  0  0
M  END
>  <MODEL>
7

>  <REMARK>
 VINA RESULT:      -4.2      3.092      5.068
  Name = 
  5 active torsions:
  status: ('A' for Active; 'I' for Inactive)
    1  A    between atoms: C_1  and  C_4
    2  A    between atoms: C_1  and  C_27
    3  A    between atoms: C_5  and  C_27
    4  A    between atoms: C_16  and  C_27
    5  A    between atoms: C_19  and  C_26
                            x       y       z     vdW  Elec       q    Type
                         _______ _______ _______ _____ _____    ______ ____

>  <TORSDO>
F 5

$$$$
=
 OpenBabel10272402063D

 32 35  0  0  1  0  0  0  0  0999 V2000
  187.1730  176.4960  135.3040 C   0  0  1  0  0  3  0  0  0  0  0  0
  188.1890  175.6880  136.1510 C   0  0  2  0  0  3  0  0  0  0  0  0
  185.7060  176.0390  135.3840 C   0  0  2  0  0  3  0  0  0  0  0  0
  187.7360  171.0510  135.8370 C   0  0  0  0  0  2  0  0  0  0  0  0
  187.6060  174.6690  137.1380 C   0  0  0  0  0  2  0  0  0  0  0  0
  186.1840  172.3080  134.3470 C   0  0  0  0  0  2  0  0  0  0  0  0
  186.6080  173.6290  134.9840 C   0  0  1  0  0  3  0  0  0  0  0  0
  185.0300  176.2130  136.7080 C   0  0  0  0  0  3  0  0  0  0  0  0
  187.3030  178.0180  135.3290 C   0  0  2  0  0  3  0  0  0  0  0  0
  185.4470  174.6220  134.8530 C   0  0  0  0  0  2  0  0  0  0  0  0
  187.0440  178.6670  136.6520 C   0  0  0  0  0  3  0  0  0  0  0  0
  186.4980  178.5960  134.3470 O   0  0  0  0  0  1  0  0  0  0  0  0
  185.2130  177.1850  137.6050 C   0  0  0  0  0  3  0  0  0  0  0  0
  187.0920  173.4030  136.4400 C   0  0  1  0  0  3  0  0  0  0  0  0
  186.1510  178.3210  137.5820 C   0  0  0  0  0  3  0  0  0  0  0  0
  187.3240  171.2990  134.3910 C   0  0  0  0  0  2  0  0  0  0  0  0
  188.2030  172.3530  136.4740 C   0  0  0  0  0  2  0  0  0  0  0  0
  189.9180  177.4110  135.4980 C   0  0  0  0  0  1  0  0  0  0  0  0
  189.6590  176.1570  136.3300 C   0  0  1  0  0  0  0  0  0  0  0  0
  191.4130  176.9560  139.6790 C   0  0  0  0  0  3  0  0  0  0  0  0
  189.0300  177.1370  139.9910 C   0  0  0  0  0  3  0  0  0  0  0  0
  189.9150  176.5210  137.7980 C   0  0  0  0  0  0  0  0  0  0  0  0
  190.3220  177.2250  140.5150 C   0  0  0  0  0  0  0  0  0  0  0  0
  188.8310  176.7900  138.6550 C   0  0  0  0  0  3  0  0  0  0  0  0
  191.2270  176.6070  138.3390 C   0  0  0  0  0  0  0  0  0  0  0  0
  192.4500  176.3330  137.5280 C   0  0  0  0  0  1  0  0  0  0  0  0
  189.4900  178.2390  142.6610 N   0  0  0  0  0  1  0  0  0  0  0  0
  191.6510  177.3390  142.5170 N   0  0  0  0  0  2  0  0  0  0  0  0
  190.5290  177.5950  141.9280 C   0  0  0  0  0  0  0  0  0  0  0  0
  190.6280  175.0520  135.8490 C   0  0  0  0  0  2  0  0  0  0  0  0
  190.2810  174.4320  134.4970 C   0  0  0  0  0  2  0  0  0  0  0  0
  190.9500  173.0810  134.3470 C   0  0  0  0  0  1  0  0  0  0  0  0
  1  9  1  0  0  0  0
  1  3  1  0  0  0  0
  1  2  1  0  0  0  0
  2 19  1  0  0  0  0
  2  5  1  0  0  0  0
  3  8  1  0  0  0  0
  4 17  1  0  0  0  0
  6 16  1  0  0  0  0
  6  7  1  0  0  0  0
  7 14  1  0  0  0  0
  8 13  2  0  0  0  0
  9 11  1  0  0  0  0
 10  7  1  0  0  0  0
 10  3  1  0  0  0  0
 11 15  2  0  0  0  0
 12  9  1  0  0  0  0
 14 17  1  0  0  0  0
 14  5  1  0  0  0  0
 15 13  1  0  0  0  0
 16  4  1  0  0  0  0
 18 19  1  0  0  0  0
 19 22  1  0  0  0  0
 20 23  1  0  0  0  0
 21 23  2  0  0  0  0
 22 25  1  0  0  0  0
 22 24  2  0  0  0  0
 23 29  1  0  0  0  0
 24 21  1  0  0  0  0
 25 20  2  0  0  0  0
 26 25  1  0  0  0  0
 29 28  2  0  0  0  0
 29 27  1  0  0  0  0
 30 19  1  0  0  0  0
 31 30  1  0  0  0  0
 32 31  1  0  0  0  0
M  END
>  <MODEL>
8

>  <REMARK>
 VINA RESULT:      -4.1      3.586      6.010
  Name = 
  5 active torsions:
  status: ('A' for Active; 'I' for Inactive)
    1  A    between atoms: C_1  and  C_4
    2  A    between atoms: C_1  and  C_27
    3  A    between atoms: C_5  and  C_27
    4  A    between atoms: C_16  and  C_27
    5  A    between atoms: C_19  and  C_26
                            x       y       z     vdW  Elec       q    Type
                         _______ _______ _______ _____ _____    ______ ____

>  <TORSDO>
F 5

$$$$
=
 OpenBabel10272402063D

 32 35  0  0  1  0  0  0  0  0999 V2000
  183.4640  177.3410  139.2450 C   0  0  1  0  0  3  0  0  0  0  0  0
  184.4810  177.1520  138.0910 C   0  0  2  0  0  3  0  0  0  0  0  0
  183.5360  178.6780  140.0030 C   0  0  2  0  0  3  0  0  0  0  0  0
  188.8620  178.3880  139.1320 C   0  0  0  0  0  2  0  0  0  0  0  0
  185.2970  178.3860  137.6840 C   0  0  0  0  0  2  0  0  0  0  0  0
  187.2910  178.5650  141.0580 C   0  0  0  0  0  2  0  0  0  0  0  0
  186.1040  178.2690  140.1440 C   0  0  1  0  0  3  0  0  0  0  0  0
  183.1670  179.9010  139.2230 C   0  0  0  0  0  3  0  0  0  0  0  0
  182.0230  176.9080  138.9780 C   0  0  2  0  0  3  0  0  0  0  0  0
  184.8550  178.9190  140.7510 C   0  0  0  0  0  2  0  0  0  0  0  0
  181.2990  177.6860  137.9260 C   0  0  0  0  0  3  0  0  0  0  0  0
  181.2840  176.9040  140.1630 O   0  0  0  0  0  1  0  0  0  0  0  0
  182.2510  180.0190  138.2580 C   0  0  0  0  0  3  0  0  0  0  0  0
  186.4100  178.7100  138.6890 C   0  0  1  0  0  3  0  0  0  0  0  0
  181.3880  178.9890  137.6520 C   0  0  0  0  0  3  0  0  0  0  0  0
  188.5530  177.8890  140.5370 C   0  0  0  0  0  2  0  0  0  0  0  0
  187.7040  178.0610  138.1980 C   0  0  0  0  0  2  0  0  0  0  0  0
  183.5370  176.3170  135.9000 C   0  0  0  0  0  1  0  0  0  0  0  0
  184.3920  175.9500  137.1120 C   0  0  1  0  0  0  0  0  0  0  0  0
  187.5790  175.7590  134.9350 C   0  0  0  0  0  3  0  0  0  0  0  0
  187.9090  174.4150  136.9090 C   0  0  0  0  0  3  0  0  0  0  0  0
  185.7910  175.5950  136.5930 C   0  0  0  0  0  0  0  0  0  0  0  0
  188.3970  174.9190  135.7020 C   0  0  0  0  0  0  0  0  0  0  0  0
  186.6270  174.7470  137.3460 C   0  0  0  0  0  3  0  0  0  0  0  0
  186.2930  176.0980  135.3620 C   0  0  0  0  0  0  0  0  0  0  0  0
  185.4940  176.9950  134.4750 C   0  0  0  0  0  1  0  0  0  0  0  0
  190.3750  173.3650  135.6910 N   0  0  0  0  0  1  0  0  0  0  0  0
  190.3970  175.3440  134.4330 N   0  0  0  0  0  2  0  0  0  0  0  0
  189.7550  174.5680  135.2440 C   0  0  0  0  0  0  0  0  0  0  0  0
  183.7320  174.7420  137.8180 C   0  0  0  0  0  2  0  0  0  0  0  0
  183.0510  173.7420  136.8860 C   0  0  0  0  0  2  0  0  0  0  0  0
  183.7330  172.3920  136.9700 C   0  0  0  0  0  1  0  0  0  0  0  0
  1  3  1  0  0  0  0
  2  1  1  0  0  0  0
  3 10  1  0  0  0  0
  4 16  1  0  0  0  0
  5  2  1  0  0  0  0
  5 14  1  0  0  0  0
  7 10  1  0  0  0  0
  7  6  1  0  0  0  0
  8  3  1  0  0  0  0
  9  1  1  0  0  0  0
  9 12  1  0  0  0  0
 11  9  1  0  0  0  0
 13  8  2  0  0  0  0
 14  7  1  0  0  0  0
 15 11  2  0  0  0  0
 15 13  1  0  0  0  0
 16  6  1  0  0  0  0
 17 14  1  0  0  0  0
 17  4  1  0  0  0  0
 18 19  1  0  0  0  0
 19 30  1  0  0  0  0
 19  2  1  0  0  0  0
 20 25  2  0  0  0  0
 20 23  1  0  0  0  0
 21 24  1  0  0  0  0
 22 19  1  0  0  0  0
 22 24  2  0  0  0  0
 23 21  2  0  0  0  0
 25 22  1  0  0  0  0
 26 25  1  0  0  0  0
 28 29  2  0  0  0  0
 29 27  1  0  0  0  0
 29 23  1  0  0  0  0
 31 32  1  0  0  0  0
 31 30  1  0  0  0  0
M  END
>  <MODEL>
9

>  <REMARK>
 VINA RESULT:      -3.9      2.577      5.513
  Name = 
  5 active torsions:
  status: ('A' for Active; 'I' for Inactive)
    1  A    between atoms: C_1  and  C_4
    2  A    between atoms: C_1  and  C_27
    3  A    between atoms: C_5  and  C_27
    4  A    between atoms: C_16  and  C_27
    5  A    between atoms: C_19  and  C_26
                            x       y       z     vdW  Elec       q    Type
                         _______ _______ _______ _____ _____    ______ ____

>  <TORSDO>
F 5

$$$$
