=
 OpenBabel10272413203D

 32 34  0  0  1  0  0  0  0  0999 V2000
  186.0260  178.7520  140.8230 C   0  0  0  0  0  2  0  0  0  0  0  0
  185.6540  178.7670  139.4700 O   0  0  0  0  0  0  0  0  0  0  0  0
  186.7630  178.3810  138.6850 C   0  0  2  0  0  3  0  0  0  0  0  0
  186.5140  177.1740  137.7800 C   0  0  0  0  0  1  0  0  0  0  0  0
  188.1110  178.4090  139.4250 C   0  0  2  0  0  3  0  0  0  0  0  0
  188.9860  179.3080  138.8120 O   0  0  0  0  0  1  0  0  0  0  0  0
  188.7740  177.0400  139.6160 C   0  0  0  0  0  2  0  0  0  0  0  0
  190.1850  177.1660  139.9670 N   0  0  0  0  0  0  0  0  0  0  0  0
  190.8430  176.0460  139.4300 N   0  0  0  0  0  0  0  0  0  0  0  0
  190.4000  175.9020  138.1240 O   0  0  0  0  0  0  0  0  0  0  0  0
  191.6060  176.5020  138.2900 C   0  0  2  0  0  3  0  0  0  0  0  0
  192.6190  175.5860  138.0140 O   0  0  0  0  0  1  0  0  0  0  0  0
  190.2640  177.0410  141.4160 C   0  0  0  0  0  2  0  0  0  0  0  0
  191.6660  177.3860  141.8830 C   0  0  0  0  0  2  0  0  0  0  0  0
  191.1520  178.9540  143.7490 C   0  0  0  0  0  1  0  0  0  0  0  0
  191.6900  177.5820  143.3880 C   0  0  0  0  0  2  0  0  0  0  0  0
  184.7870  178.7600  141.7070 C   0  0  2  0  0  3  0  0  0  0  0  0
  185.1210  178.2680  143.1190 C   0  0  2  0  0  3  0  0  0  0  0  0
  184.6370  179.2380  144.2180 C   0  0  0  0  0  2  0  0  0  0  0  0
  188.4280  176.9470  146.3130 C   0  0  1  0  0  3  0  0  0  0  0  0
  186.6190  177.9550  143.2460 C   0  0  0  0  0  2  0  0  0  0  0  0
  187.1500  177.9070  147.2140 S   0  0  0  0  0  0  0  0  0  0  0  0
  186.5380  178.5200  145.6390 C   0  0  2  0  0  3  0  0  0  0  0  0
  185.0330  178.7440  145.6140 C   0  0  0  0  0  2  0  0  0  0  0  0
  188.2810  177.1140  144.8670 N   0  0  0  0  0  2  0  0  0  0  0  0
  189.8070  177.4050  146.7390 C   0  0  0  0  0  1  0  0  0  0  0  0
  186.8870  177.4470  144.6530 C   0  0  2  0  0  3  0  0  0  0  0  0
  183.6640  177.9460  141.0690 C   0  0  0  0  0  2  0  0  0  0  0  0
  182.4040  178.7390  140.9930 C   0  0  0  0  0  0  0  0  0  0  0  0
  181.9950  179.1790  139.8480 N   0  0  0  0  0  2  0  0  0  0  0  0
  180.3530  179.6400  142.1590 C   0  0  0  0  0  1  0  0  0  0  0  0
  181.6150  178.9210  142.1700 N   0  0  0  0  0  2  0  0  0  0  0  0
  2  1  1  0  0  0  0
  3  4  1  1  0  0  0
  3  5  1  0  0  0  0
  3  2  1  0  0  0  0
  5  6  1  6  0  0  0
  5  7  1  0  0  0  0
  7  8  1  0  0  0  0
  8 13  1  0  0  0  0
  9  8  1  0  0  0  0
 10 11  1  0  0  0  0
 10  9  1  0  0  0  0
 11 12  1  6  0  0  0
 11  9  1  0  0  0  0
 13 14  1  0  0  0  0
 14 16  1  0  0  0  0
 16 15  1  0  0  0  0
 17  1  1  6  0  0  0
 18 17  1  6  0  0  0
 18 21  1  0  0  0  0
 18 19  1  0  0  0  0
 19 24  1  0  0  0  0
 20 26  1  1  0  0  0
 20 22  1  0  0  0  0
 23 24  1  1  0  0  0
 23 22  1  0  0  0  0
 25 20  1  0  0  0  0
 27 21  1  6  0  0  0
 27 25  1  0  0  0  0
 27 23  1  0  0  0  0
 28 17  1  0  0  0  0
 29 28  1  0  0  0  0
 29 32  1  0  0  0  0
 30 29  2  0  0  0  0
 31 32  1  0  0  0  0
M  END
>  <MODEL>
1

>  <REMARK>
 VINA RESULT:      -7.1      0.000      0.000
  Name = 
  13 active torsions:
  status: ('A' for Active; 'I' for Inactive)
    1  A    between atoms: O_1  and  C_4
    2  A    between atoms: O_1  and  C_5
    3  A    between atoms: C_2  and  C_14
    4  A    between atoms: N_3  and  N_20
    5  A    between atoms: C_4  and  C_24
    6  A    between atoms: C_5  and  C_14
    7  A    between atoms: C_13  and  C_30
    8  A    between atoms: C_14  and  C_30
    9  A    between atoms: C_15  and  N_20
   10  A    between atoms: C_15  and  C_26
   11  A    between atoms: C_16  and  N_20
   12  A    between atoms: C_16  and  C_24
   13  A    between atoms: C_19  and  C_26
                            x       y       z     vdW  Elec       q    Type
                         _______ _______ _______ _____ _____    ______ ____

>  <TORSDO>
F 13

$$$$
=
 OpenBabel10272413203D

 32 34  0  0  1  0  0  0  0  0999 V2000
  189.1120  176.7250  143.2530 C   0  0  0  0  0  2  0  0  0  0  0  0
  189.5020  177.8420  142.4990 O   0  0  0  0  0  0  0  0  0  0  0  0
  189.9720  177.4050  141.2410 C   0  0  2  0  0  3  0  0  0  0  0  0
  191.4930  177.2940  141.1330 C   0  0  0  0  0  1  0  0  0  0  0  0
  189.2490  178.0290  140.0350 C   0  0  2  0  0  3  0  0  0  0  0  0
  188.1420  178.7680  140.4580 O   0  0  0  0  0  1  0  0  0  0  0  0
  188.8590  177.0400  138.9310 C   0  0  0  0  0  2  0  0  0  0  0  0
  189.1550  177.5670  137.6030 N   0  0  0  0  0  0  0  0  0  0  0  0
  188.1340  177.1200  136.7470 N   0  0  0  0  0  0  0  0  0  0  0  0
  186.9390  177.6150  137.2450 O   0  0  0  0  0  0  0  0  0  0  0  0
  187.4860  178.2910  136.2030 C   0  0  2  0  0  3  0  0  0  0  0  0
  186.8160  177.9490  135.0300 O   0  0  0  0  0  1  0  0  0  0  0  0
  190.3820  176.9180  137.1640 C   0  0  0  0  0  2  0  0  0  0  0  0
  190.4460  175.5100  137.7280 C   0  0  0  0  0  2  0  0  0  0  0  0
  192.8510  176.1570  137.8060 C   0  0  0  0  0  1  0  0  0  0  0  0
  191.8750  174.9990  137.7160 C   0  0  0  0  0  2  0  0  0  0  0  0
  188.6350  177.1640  144.6310 C   0  0  2  0  0  3  0  0  0  0  0  0
  187.3620  178.0070  144.5240 C   0  0  2  0  0  3  0  0  0  0  0  0
  186.4850  177.9270  145.7920 C   0  0  0  0  0  2  0  0  0  0  0  0
  183.2620  178.9530  142.2460 C   0  0  1  0  0  3  0  0  0  0  0  0
  186.5740  177.6460  143.2560 C   0  0  0  0  0  2  0  0  0  0  0  0
  182.9470  179.1470  144.0440 S   0  0  0  0  0  0  0  0  0  0  0  0
  184.4740  178.2600  144.3810 C   0  0  2  0  0  3  0  0  0  0  0  0
  185.1940  178.7390  145.6320 C   0  0  0  0  0  2  0  0  0  0  0  0
  184.5330  178.2680  142.0130 N   0  0  0  0  0  2  0  0  0  0  0  0
  182.1360  178.1640  141.6110 C   0  0  0  0  0  1  0  0  0  0  0  0
  185.3400  178.5300  143.1870 C   0  0  2  0  0  3  0  0  0  0  0  0
  189.7460  177.8980  145.3770 C   0  0  0  0  0  2  0  0  0  0  0  0
  190.2960  177.0580  146.4810 C   0  0  0  0  0  0  0  0  0  0  0  0
  189.4990  176.5950  147.3870 N   0  0  0  0  0  2  0  0  0  0  0  0
  192.2700  175.8450  147.4850 C   0  0  0  0  0  1  0  0  0  0  0  0
  191.6780  176.6990  146.4690 N   0  0  0  0  0  2  0  0  0  0  0  0
  2  1  1  0  0  0  0
  3  4  1  6  0  0  0
  3  2  1  0  0  0  0
  5  6  1  1  0  0  0
  5  3  1  0  0  0  0
  7  5  1  0  0  0  0
  8  7  1  0  0  0  0
  9 10  1  0  0  0  0
  9  8  1  0  0  0  0
 11 12  1  6  0  0  0
 11  9  1  0  0  0  0
 11 10  1  0  0  0  0
 13  8  1  0  0  0  0
 13 14  1  0  0  0  0
 16 14  1  0  0  0  0
 16 15  1  0  0  0  0
 17  1  1  6  0  0  0
 17 28  1  0  0  0  0
 18 17  1  1  0  0  0
 18 19  1  0  0  0  0
 20 26  1  1  0  0  0
 20 22  1  0  0  0  0
 21 18  1  0  0  0  0
 22 23  1  0  0  0  0
 23 24  1  1  0  0  0
 24 19  1  0  0  0  0
 25 20  1  0  0  0  0
 25 27  1  0  0  0  0
 27 21  1  1  0  0  0
 27 23  1  0  0  0  0
 28 29  1  0  0  0  0
 29 30  2  0  0  0  0
 32 29  1  0  0  0  0
 32 31  1  0  0  0  0
M  END
>  <MODEL>
2

>  <REMARK>
 VINA RESULT:      -6.9      2.406      6.017
  Name = 
  13 active torsions:
  status: ('A' for Active; 'I' for Inactive)
    1  A    between atoms: O_1  and  C_4
    2  A    between atoms: O_1  and  C_5
    3  A    between atoms: C_2  and  C_14
    4  A    between atoms: N_3  and  N_20
    5  A    between atoms: C_4  and  C_24
    6  A    between atoms: C_5  and  C_14
    7  A    between atoms: C_13  and  C_30
    8  A    between atoms: C_14  and  C_30
    9  A    between atoms: C_15  and  N_20
   10  A    between atoms: C_15  and  C_26
   11  A    between atoms: C_16  and  N_20
   12  A    between atoms: C_16  and  C_24
   13  A    between atoms: C_19  and  C_26
                            x       y       z     vdW  Elec       q    Type
                         _______ _______ _______ _____ _____    ______ ____

>  <TORSDO>
F 13

$$$$
=
 OpenBabel10272413203D

 32 34  0  0  1  0  0  0  0  0999 V2000
  188.9580  176.8920  143.3020 C   0  0  0  0  0  2  0  0  0  0  0  0
  189.7700  177.9200  142.7990 O   0  0  0  0  0  0  0  0  0  0  0  0
  189.7890  177.8400  141.3900 C   0  0  2  0  0  3  0  0  0  0  0  0
  188.4200  177.6220  140.7440 C   0  0  0  0  0  1  0  0  0  0  0  0
  190.9520  177.0160  140.8110 C   0  0  2  0  0  3  0  0  0  0  0  0
  192.0890  177.1480  141.6110 O   0  0  0  0  0  1  0  0  0  0  0  0
  191.2790  177.3000  139.3400 C   0  0  0  0  0  2  0  0  0  0  0  0
  191.6020  176.0780  138.6120 N   0  0  0  0  0  0  0  0  0  0  0  0
  192.6160  176.4020  137.6950 N   0  0  0  0  0  0  0  0  0  0  0  0
  193.6710  176.9280  138.4260 O   0  0  0  0  0  0  0  0  0  0  0  0
  193.7820  175.6280  138.0550 C   0  0  2  0  0  3  0  0  0  0  0  0
  194.6330  175.5340  136.9550 O   0  0  0  0  0  1  0  0  0  0  0  0
  190.4220  175.7400  137.8270 C   0  0  0  0  0  2  0  0  0  0  0  0
  190.3310  176.6580  136.6210 C   0  0  0  0  0  2  0  0  0  0  0  0
  188.8630  178.6410  136.9740 C   0  0  0  0  0  1  0  0  0  0  0  0
  188.9230  177.2070  136.4800 C   0  0  0  0  0  2  0  0  0  0  0  0
  188.4530  177.2550  144.6920 C   0  0  2  0  0  3  0  0  0  0  0  0
  187.1590  178.0690  144.6070 C   0  0  2  0  0  3  0  0  0  0  0  0
  186.2590  177.8910  145.8490 C   0  0  0  0  0  2  0  0  0  0  0  0
  183.0810  179.0370  142.3000 C   0  0  1  0  0  3  0  0  0  0  0  0
  186.4080  177.7630  143.3030 C   0  0  0  0  0  2  0  0  0  0  0  0
  182.7250  179.1160  144.0980 S   0  0  0  0  0  0  0  0  0  0  0  0
  184.2690  178.2530  144.4160 C   0  0  2  0  0  3  0  0  0  0  0  0
  184.9500  178.6760  145.7080 C   0  0  0  0  0  2  0  0  0  0  0  0
  184.3750  178.4010  142.0540 N   0  0  0  0  0  2  0  0  0  0  0  0
  181.9910  178.2570  141.5960 C   0  0  0  0  0  1  0  0  0  0  0  0
  185.1500  178.6150  143.2590 C   0  0  2  0  0  3  0  0  0  0  0  0
  189.5360  177.9840  145.4840 C   0  0  0  0  0  2  0  0  0  0  0  0
  190.1260  177.0960  146.5270 C   0  0  0  0  0  0  0  0  0  0  0  0
  189.3530  176.5320  147.3970 N   0  0  0  0  0  2  0  0  0  0  0  0
  192.1570  175.9090  147.4480 C   0  0  0  0  0  1  0  0  0  0  0  0
  191.5240  176.8040  146.4930 N   0  0  0  0  0  2  0  0  0  0  0  0
  2  1  1  0  0  0  0
  3  4  1  1  0  0  0
  3  2  1  0  0  0  0
  5  3  1  0  0  0  0
  5  6  1  1  0  0  0
  7  5  1  0  0  0  0
  8  7  1  0  0  0  0
  9 11  1  0  0  0  0
  9 10  1  0  0  0  0
  9  8  1  0  0  0  0
 11 12  1  6  0  0  0
 11 10  1  0  0  0  0
 13  8  1  0  0  0  0
 14 13  1  0  0  0  0
 16 14  1  0  0  0  0
 16 15  1  0  0  0  0
 17  1  1  6  0  0  0
 17 28  1  0  0  0  0
 18 17  1  1  0  0  0
 18 19  1  0  0  0  0
 20 26  1  6  0  0  0
 20 22  1  0  0  0  0
 21 18  1  0  0  0  0
 22 23  1  0  0  0  0
 23 24  1  1  0  0  0
 24 19  1  0  0  0  0
 25 20  1  0  0  0  0
 25 27  1  0  0  0  0
 27 21  1  6  0  0  0
 27 23  1  0  0  0  0
 28 29  1  0  0  0  0
 29 30  2  0  0  0  0
 32 29  1  0  0  0  0
 32 31  1  0  0  0  0
M  END
>  <MODEL>
3

>  <REMARK>
 VINA RESULT:      -6.8      2.418      5.900
  Name = 
  13 active torsions:
  status: ('A' for Active; 'I' for Inactive)
    1  A    between atoms: O_1  and  C_4
    2  A    between atoms: O_1  and  C_5
    3  A    between atoms: C_2  and  C_14
    4  A    between atoms: N_3  and  N_20
    5  A    between atoms: C_4  and  C_24
    6  A    between atoms: C_5  and  C_14
    7  A    between atoms: C_13  and  C_30
    8  A    between atoms: C_14  and  C_30
    9  A    between atoms: C_15  and  N_20
   10  A    between atoms: C_15  and  C_26
   11  A    between atoms: C_16  and  N_20
   12  A    between atoms: C_16  and  C_24
   13  A    between atoms: C_19  and  C_26
                            x       y       z     vdW  Elec       q    Type
                         _______ _______ _______ _____ _____    ______ ____

>  <TORSDO>
F 13

$$$$
=
 OpenBabel10272413203D

 32 34  0  0  1  0  0  0  0  0999 V2000
  190.7330  177.1540  140.6880 C   0  0  0  0  0  2  0  0  0  0  0  0
  190.1880  176.3980  141.7370 O   0  0  0  0  0  0  0  0  0  0  0  0
  190.6080  176.9500  142.9670 C   0  0  2  0  0  3  0  0  0  0  0  0
  191.4680  176.0200  143.8230 C   0  0  0  0  0  1  0  0  0  0  0  0
  189.5280  177.7530  143.7110 C   0  0  2  0  0  3  0  0  0  0  0  0
  190.1060  178.7990  144.4310 O   0  0  0  0  0  1  0  0  0  0  0  0
  188.6000  176.9180  144.6020 C   0  0  0  0  0  2  0  0  0  0  0  0
  187.7970  177.7590  145.4850 N   0  0  0  0  0  0  0  0  0  0  0  0
  187.8260  177.1630  146.7570 N   0  0  0  0  0  0  0  0  0  0  0  0
  189.1600  176.9900  147.0950 O   0  0  0  0  0  0  0  0  0  0  0  0
  188.5330  178.0650  147.6370 C   0  0  2  0  0  3  0  0  0  0  0  0
  188.1950  177.7820  148.9600 O   0  0  0  0  0  1  0  0  0  0  0  0
  186.4240  177.6630  145.0100 C   0  0  0  0  0  2  0  0  0  0  0  0
  185.5990  178.7920  145.6020 C   0  0  0  0  0  2  0  0  0  0  0  0
  184.5550  178.4390  143.3670 C   0  0  0  0  0  1  0  0  0  0  0  0
  184.3820  179.0670  144.7370 C   0  0  0  0  0  2  0  0  0  0  0  0
  189.8170  177.1010  139.4730 C   0  0  2  0  0  3  0  0  0  0  0  0
  190.5830  176.6340  138.2320 C   0  0  2  0  0  3  0  0  0  0  0  0
  190.0200  175.3240  137.6410 C   0  0  0  0  0  2  0  0  0  0  0  0
  194.7200  175.2680  136.2550 C   0  0  1  0  0  3  0  0  0  0  0  0
  192.0870  176.5340  138.5270 C   0  0  0  0  0  2  0  0  0  0  0  0
  193.3950  174.2260  135.5280 S   0  0  0  0  0  0  0  0  0  0  0  0
  192.2980  174.7400  136.8570 C   0  0  2  0  0  3  0  0  0  0  0  0
  190.8420  174.8560  136.4350 C   0  0  0  0  0  2  0  0  0  0  0  0
  194.2320  175.9800  137.4360 N   0  0  0  0  0  2  0  0  0  0  0  0
  195.9010  174.4010  136.6370 C   0  0  0  0  0  1  0  0  0  0  0  0
  192.7990  176.0950  137.2580 C   0  0  2  0  0  3  0  0  0  0  0  0
  189.1370  178.4500  139.2510 C   0  0  0  0  0  2  0  0  0  0  0  0
  187.6960  178.3920  139.6280 C   0  0  0  0  0  0  0  0  0  0  0  0
  187.3600  178.4130  140.8760 N   0  0  0  0  0  2  0  0  0  0  0  0
  185.2770  178.4050  138.8980 C   0  0  0  0  0  1  0  0  0  0  0  0
  186.7000  178.4100  138.6030 N   0  0  0  0  0  2  0  0  0  0  0  0
  1  2  1  0  0  0  0
  2  3  1  0  0  0  0
  3  5  1  0  0  0  0
  3  4  1  1  0  0  0
  5  6  1  1  0  0  0
  5  7  1  0  0  0  0
  7  8  1  0  0  0  0
  8  9  1  0  0  0  0
  9 10  1  0  0  0  0
  9 11  1  0  0  0  0
 10 11  1  0  0  0  0
 11 12  1  1  0  0  0
 13  8  1  0  0  0  0
 13 14  1  0  0  0  0
 15 16  1  0  0  0  0
 16 14  1  0  0  0  0
 17 28  1  6  0  0  0
 17  1  1  0  0  0  0
 18 21  1  0  0  0  0
 18 17  1  1  0  0  0
 19 18  1  0  0  0  0
 20 26  1  1  0  0  0
 20 25  1  0  0  0  0
 22 20  1  0  0  0  0
 22 23  1  0  0  0  0
 23 24  1  6  0  0  0
 23 27  1  0  0  0  0
 24 19  1  0  0  0  0
 27 25  1  0  0  0  0
 27 21  1  1  0  0  0
 28 29  1  0  0  0  0
 29 30  2  0  0  0  0
 32 31  1  0  0  0  0
 32 29  1  0  0  0  0
M  END
>  <MODEL>
4

>  <REMARK>
 VINA RESULT:      -6.7      4.092      8.223
  Name = 
  13 active torsions:
  status: ('A' for Active; 'I' for Inactive)
    1  A    between atoms: O_1  and  C_4
    2  A    between atoms: O_1  and  C_5
    3  A    between atoms: C_2  and  C_14
    4  A    between atoms: N_3  and  N_20
    5  A    between atoms: C_4  and  C_24
    6  A    between atoms: C_5  and  C_14
    7  A    between atoms: C_13  and  C_30
    8  A    between atoms: C_14  and  C_30
    9  A    between atoms: C_15  and  N_20
   10  A    between atoms: C_15  and  C_26
   11  A    between atoms: C_16  and  N_20
   12  A    between atoms: C_16  and  C_24
   13  A    between atoms: C_19  and  C_26
                            x       y       z     vdW  Elec       q    Type
                         _______ _______ _______ _____ _____    ______ ____

>  <TORSDO>
F 13

$$$$
=
 OpenBabel10272413203D

 32 34  0  0  1  0  0  0  0  0999 V2000
  190.2600  177.4680  140.1460 C   0  0  0  0  0  2  0  0  0  0  0  0
  189.2200  177.6560  141.0690 O   0  0  0  0  0  0  0  0  0  0  0  0
  189.7640  177.6910  142.3710 C   0  0  2  0  0  3  0  0  0  0  0  0
  191.2920  177.7240  142.4240 C   0  0  0  0  0  1  0  0  0  0  0  0
  189.0690  176.7610  143.3810 C   0  0  2  0  0  3  0  0  0  0  0  0
  188.9370  175.4770  142.8500 O   0  0  0  0  0  1  0  0  0  0  0  0
  187.7290  177.2740  143.9190 C   0  0  0  0  0  2  0  0  0  0  0  0
  187.7160  177.3270  145.3770 N   0  0  0  0  0  0  0  0  0  0  0  0
  186.9840  178.4700  145.7400 N   0  0  0  0  0  0  0  0  0  0  0  0
  185.7660  178.4000  145.0800 O   0  0  0  0  0  0  0  0  0  0  0  0
  185.7710  178.0170  146.3820 C   0  0  2  0  0  3  0  0  0  0  0  0
  185.2490  179.0450  147.1660 O   0  0  0  0  0  1  0  0  0  0  0  0
  189.0910  177.5620  145.7940 C   0  0  0  0  0  2  0  0  0  0  0  0
  189.3190  176.9580  147.1690 C   0  0  0  0  0  2  0  0  0  0  0  0
  191.5250  176.7130  146.0380 C   0  0  0  0  0  1  0  0  0  0  0  0
  190.7840  176.6100  147.3580 C   0  0  0  0  0  2  0  0  0  0  0  0
  189.6890  177.1810  138.7640 C   0  0  2  0  0  3  0  0  0  0  0  0
  190.7050  176.4300  137.8990 C   0  0  2  0  0  3  0  0  0  0  0  0
  190.2200  175.0200  137.4970 C   0  0  0  0  0  2  0  0  0  0  0  0
  195.1020  174.6090  137.4060 C   0  0  1  0  0  3  0  0  0  0  0  0
  192.0800  176.3920  138.5830 C   0  0  0  0  0  2  0  0  0  0  0  0
  193.9310  173.4340  136.6200 S   0  0  0  0  0  0  0  0  0  0  0  0
  192.5770  174.2530  137.4720 C   0  0  2  0  0  3  0  0  0  0  0  0
  191.2800  174.2760  136.6780 C   0  0  0  0  0  2  0  0  0  0  0  0
  194.3860  175.5820  138.2300 N   0  0  0  0  0  2  0  0  0  0  0  0
  196.0920  173.8490  138.2620 C   0  0  0  0  0  1  0  0  0  0  0  0
  193.0520  175.6610  137.6710 C   0  0  2  0  0  3  0  0  0  0  0  0
  189.2150  178.4710  138.0990 C   0  0  0  0  0  2  0  0  0  0  0  0
  187.8050  178.3460  137.6310 C   0  0  0  0  0  0  0  0  0  0  0  0
  187.5650  178.1280  136.3790 N   0  0  0  0  0  2  0  0  0  0  0  0
  185.3490  178.2100  138.2050 C   0  0  0  0  0  1  0  0  0  0  0  0
  186.7420  178.3740  138.5850 N   0  0  0  0  0  2  0  0  0  0  0  0
  1  2  1  0  0  0  0
  2  3  1  0  0  0  0
  3  4  1  6  0  0  0
  3  5  1  0  0  0  0
  5  6  1  6  0  0  0
  5  7  1  0  0  0  0
  7  8  1  0  0  0  0
  8  9  1  0  0  0  0
  8 13  1  0  0  0  0
  9 11  1  0  0  0  0
 10  9  1  0  0  0  0
 10 11  1  0  0  0  0
 11 12  1  1  0  0  0
 13 14  1  0  0  0  0
 14 16  1  0  0  0  0
 15 16  1  0  0  0  0
 17 28  1  6  0  0  0
 17  1  1  0  0  0  0
 18 21  1  0  0  0  0
 18 17  1  1  0  0  0
 19 18  1  0  0  0  0
 20 25  1  0  0  0  0
 20 26  1  1  0  0  0
 22 20  1  0  0  0  0
 22 23  1  0  0  0  0
 23 24  1  6  0  0  0
 23 27  1  0  0  0  0
 24 19  1  0  0  0  0
 27 25  1  0  0  0  0
 27 21  1  1  0  0  0
 29 28  1  0  0  0  0
 29 32  1  0  0  0  0
 30 29  2  0  0  0  0
 31 32  1  0  0  0  0
M  END
>  <MODEL>
5

>  <REMARK>
 VINA RESULT:      -6.7      3.818      7.901
  Name = 
  13 active torsions:
  status: ('A' for Active; 'I' for Inactive)
    1  A    between atoms: O_1  and  C_4
    2  A    between atoms: O_1  and  C_5
    3  A    between atoms: C_2  and  C_14
    4  A    between atoms: N_3  and  N_20
    5  A    between atoms: C_4  and  C_24
    6  A    between atoms: C_5  and  C_14
    7  A    between atoms: C_13  and  C_30
    8  A    between atoms: C_14  and  C_30
    9  A    between atoms: C_15  and  N_20
   10  A    between atoms: C_15  and  C_26
   11  A    between atoms: C_16  and  N_20
   12  A    between atoms: C_16  and  C_24
   13  A    between atoms: C_19  and  C_26
                            x       y       z     vdW  Elec       q    Type
                         _______ _______ _______ _____ _____    ______ ____

>  <TORSDO>
F 13

$$$$
=
 OpenBabel10272413203D

 32 34  0  0  1  0  0  0  0  0999 V2000
  188.9830  176.5310  142.1060 C   0  0  0  0  0  2  0  0  0  0  0  0
  189.4260  177.6490  141.3820 O   0  0  0  0  0  0  0  0  0  0  0  0
  189.5210  177.3030  140.0170 C   0  0  2  0  0  3  0  0  0  0  0  0
  190.9510  177.1560  139.4940 C   0  0  0  0  0  1  0  0  0  0  0  0
  188.5340  178.0430  139.0980 C   0  0  2  0  0  3  0  0  0  0  0  0
  189.1420  179.1660  138.5330 O   0  0  0  0  0  1  0  0  0  0  0  0
  187.1950  178.4110  139.7480 C   0  0  0  0  0  2  0  0  0  0  0  0
  186.1250  178.5160  138.7610 N   0  0  0  0  0  0  0  0  0  0  0  0
  184.9180  178.6110  139.4740 N   0  0  0  0  0  0  0  0  0  0  0  0
  184.8460  179.8990  139.9830 O   0  0  0  0  0  0  0  0  0  0  0  0
  184.1340  179.6540  138.8530 C   0  0  2  0  0  3  0  0  0  0  0  0
  182.7910  179.4840  139.1830 O   0  0  0  0  0  1  0  0  0  0  0  0
  186.0930  177.2450  138.0510 C   0  0  0  0  0  2  0  0  0  0  0  0
  185.9350  177.4960  136.5620 C   0  0  0  0  0  2  0  0  0  0  0  0
  187.4320  177.8460  134.6010 C   0  0  0  0  0  1  0  0  0  0  0  0
  187.1410  176.9700  135.8050 C   0  0  0  0  0  2  0  0  0  0  0  0
  189.1750  176.7630  143.5980 C   0  0  2  0  0  3  0  0  0  0  0  0
  188.0690  177.6630  144.1570 C   0  0  2  0  0  3  0  0  0  0  0  0
  187.7210  177.3390  145.6260 C   0  0  0  0  0  2  0  0  0  0  0  0
  183.5720  179.2700  143.8750 C   0  0  1  0  0  3  0  0  0  0  0  0
  186.8300  177.6300  143.2510 C   0  0  0  0  0  2  0  0  0  0  0  0
  183.9710  179.0700  145.6550 S   0  0  0  0  0  0  0  0  0  0  0  0
  185.3900  178.0650  145.1970 C   0  0  2  0  0  3  0  0  0  0  0  0
  186.5760  178.2200  146.1370 C   0  0  0  0  0  2  0  0  0  0  0  0
  184.5700  178.6010  143.0410 N   0  0  0  0  0  2  0  0  0  0  0  0
  182.2010  178.6930  143.5900 C   0  0  0  0  0  1  0  0  0  0  0  0
  185.7790  178.5590  143.8370 C   0  0  2  0  0  3  0  0  0  0  0  0
  190.5660  177.3250  143.8810 C   0  0  0  0  0  2  0  0  0  0  0  0
  191.3640  176.3820  144.7170 C   0  0  0  0  0  0  0  0  0  0  0  0
  191.9800  175.3940  144.1540 N   0  0  0  0  0  2  0  0  0  0  0  0
  192.3180  175.7890  146.9790 C   0  0  0  0  0  1  0  0  0  0  0  0
  191.5160  176.6370  146.1140 N   0  0  0  0  0  2  0  0  0  0  0  0
  2  1  1  0  0  0  0
  3  4  1  6  0  0  0
  3  2  1  0  0  0  0
  5  6  1  1  0  0  0
  5  7  1  0  0  0  0
  5  3  1  0  0  0  0
  8  9  1  0  0  0  0
  8  7  1  0  0  0  0
  9 10  1  0  0  0  0
 11 12  1  1  0  0  0
 11  9  1  0  0  0  0
 11 10  1  0  0  0  0
 13  8  1  0  0  0  0
 14 13  1  0  0  0  0
 15 16  1  0  0  0  0
 16 14  1  0  0  0  0
 17  1  1  6  0  0  0
 17 28  1  0  0  0  0
 18 17  1  6  0  0  0
 18 19  1  0  0  0  0
 19 24  1  0  0  0  0
 20 26  1  1  0  0  0
 20 22  1  0  0  0  0
 21 18  1  0  0  0  0
 23 22  1  0  0  0  0
 23 24  1  1  0  0  0
 25 27  1  0  0  0  0
 25 20  1  0  0  0  0
 27 21  1  6  0  0  0
 27 23  1  0  0  0  0
 28 29  1  0  0  0  0
 29 32  1  0  0  0  0
 30 29  2  0  0  0  0
 32 31  1  0  0  0  0
M  END
>  <MODEL>
6

>  <REMARK>
 VINA RESULT:      -6.6      2.417      6.653
  Name = 
  13 active torsions:
  status: ('A' for Active; 'I' for Inactive)
    1  A    between atoms: O_1  and  C_4
    2  A    between atoms: O_1  and  C_5
    3  A    between atoms: C_2  and  C_14
    4  A    between atoms: N_3  and  N_20
    5  A    between atoms: C_4  and  C_24
    6  A    between atoms: C_5  and  C_14
    7  A    between atoms: C_13  and  C_30
    8  A    between atoms: C_14  and  C_30
    9  A    between atoms: C_15  and  N_20
   10  A    between atoms: C_15  and  C_26
   11  A    between atoms: C_16  and  N_20
   12  A    between atoms: C_16  and  C_24
   13  A    between atoms: C_19  and  C_26
                            x       y       z     vdW  Elec       q    Type
                         _______ _______ _______ _____ _____    ______ ____

>  <TORSDO>
F 13

$$$$
=
 OpenBabel10272413203D

 32 34  0  0  1  0  0  0  0  0999 V2000
  189.1640  176.6130  141.8370 C   0  0  0  0  0  2  0  0  0  0  0  0
  190.3200  177.0060  141.1450 O   0  0  0  0  0  0  0  0  0  0  0  0
  189.9440  177.7820  140.0280 C   0  0  2  0  0  3  0  0  0  0  0  0
  188.4440  178.0610  139.9200 C   0  0  0  0  0  1  0  0  0  0  0  0
  190.6610  177.4080  138.7190 C   0  0  2  0  0  3  0  0  0  0  0  0
  189.8360  177.6610  137.6210 O   0  0  0  0  0  1  0  0  0  0  0  0
  191.2200  175.9810  138.6700 C   0  0  0  0  0  2  0  0  0  0  0  0
  191.7280  175.6440  137.3450 N   0  0  0  0  0  0  0  0  0  0  0  0
  191.5710  174.2570  137.1860 N   0  0  0  0  0  0  0  0  0  0  0  0
  190.2900  173.9400  137.6140 O   0  0  0  0  0  0  0  0  0  0  0  0
  190.4690  174.0510  136.2740 C   0  0  2  0  0  3  0  0  0  0  0  0
  190.5620  172.7770  135.7150 O   0  0  0  0  0  1  0  0  0  0  0  0
  193.1610  175.9020  137.3730 C   0  0  0  0  0  2  0  0  0  0  0  0
  193.9180  174.5860  137.3280 C   0  0  0  0  0  2  0  0  0  0  0  0
  195.6020  173.1680  138.4950 C   0  0  0  0  0  1  0  0  0  0  0  0
  194.9820  174.5510  138.4100 C   0  0  0  0  0  2  0  0  0  0  0  0
  189.4100  176.6640  143.3390 C   0  0  2  0  0  3  0  0  0  0  0  0
  188.3650  177.5430  144.0330 C   0  0  2  0  0  3  0  0  0  0  0  0
  188.1430  177.1520  145.5100 C   0  0  0  0  0  2  0  0  0  0  0  0
  183.8750  179.1840  144.2190 C   0  0  1  0  0  3  0  0  0  0  0  0
  187.0510  177.5580  143.2380 C   0  0  0  0  0  2  0  0  0  0  0  0
  184.4260  178.8990  145.9470 S   0  0  0  0  0  0  0  0  0  0  0  0
  185.7900  177.9100  145.3210 C   0  0  2  0  0  3  0  0  0  0  0  0
  187.0550  178.0140  146.1590 C   0  0  0  0  0  2  0  0  0  0  0  0
  184.7900  178.5490  143.2710 N   0  0  0  0  0  2  0  0  0  0  0  0
  182.4800  178.6270  144.0290 C   0  0  0  0  0  1  0  0  0  0  0  0
  186.0640  178.4630  143.9550 C   0  0  2  0  0  3  0  0  0  0  0  0
  190.8340  177.1260  143.6370 C   0  0  0  0  0  2  0  0  0  0  0  0
  191.5080  176.2010  144.5920 C   0  0  0  0  0  0  0  0  0  0  0  0
  192.0580  175.1170  144.1520 N   0  0  0  0  0  2  0  0  0  0  0  0
  192.3060  175.7410  146.9440 C   0  0  0  0  0  1  0  0  0  0  0  0
  191.6210  176.5700  145.9680 N   0  0  0  0  0  2  0  0  0  0  0  0
  2  1  1  0  0  0  0
  3  4  1  6  0  0  0
  3  2  1  0  0  0  0
  5  6  1  6  0  0  0
  5  3  1  0  0  0  0
  7  5  1  0  0  0  0
  8 13  1  0  0  0  0
  8  7  1  0  0  0  0
  9  8  1  0  0  0  0
  9 10  1  0  0  0  0
 11 12  1  6  0  0  0
 11  9  1  0  0  0  0
 11 10  1  0  0  0  0
 14 13  1  0  0  0  0
 14 16  1  0  0  0  0
 16 15  1  0  0  0  0
 17  1  1  6  0  0  0
 17 28  1  0  0  0  0
 18 17  1  6  0  0  0
 18 19  1  0  0  0  0
 19 24  1  0  0  0  0
 20 26  1  1  0  0  0
 20 22  1  0  0  0  0
 21 18  1  0  0  0  0
 23 22  1  0  0  0  0
 23 24  1  1  0  0  0
 25 27  1  0  0  0  0
 25 20  1  0  0  0  0
 27 21  1  6  0  0  0
 27 23  1  0  0  0  0
 28 29  1  0  0  0  0
 29 32  1  0  0  0  0
 30 29  2  0  0  0  0
 32 31  1  0  0  0  0
M  END
>  <MODEL>
7

>  <REMARK>
 VINA RESULT:      -6.5      2.530      5.886
  Name = 
  13 active torsions:
  status: ('A' for Active; 'I' for Inactive)
    1  A    between atoms: O_1  and  C_4
    2  A    between atoms: O_1  and  C_5
    3  A    between atoms: C_2  and  C_14
    4  A    between atoms: N_3  and  N_20
    5  A    between atoms: C_4  and  C_24
    6  A    between atoms: C_5  and  C_14
    7  A    between atoms: C_13  and  C_30
    8  A    between atoms: C_14  and  C_30
    9  A    between atoms: C_15  and  N_20
   10  A    between atoms: C_15  and  C_26
   11  A    between atoms: C_16  and  N_20
   12  A    between atoms: C_16  and  C_24
   13  A    between atoms: C_19  and  C_26
                            x       y       z     vdW  Elec       q    Type
                         _______ _______ _______ _____ _____    ______ ____

>  <TORSDO>
F 13

$$$$
=
 OpenBabel10272413203D

 32 34  0  0  1  0  0  0  0  0999 V2000
  190.8920  177.2350  140.3410 C   0  0  0  0  0  2  0  0  0  0  0  0
  190.3860  176.5460  141.4530 O   0  0  0  0  0  0  0  0  0  0  0  0
  190.5380  177.3540  142.6010 C   0  0  2  0  0  3  0  0  0  0  0  0
  191.9780  177.7690  142.9020 C   0  0  0  0  0  1  0  0  0  0  0  0
  189.6900  176.9170  143.8080 C   0  0  2  0  0  3  0  0  0  0  0  0
  188.5410  176.2490  143.3820 O   0  0  0  0  0  1  0  0  0  0  0  0
  189.3410  178.0370  144.7950 C   0  0  0  0  0  2  0  0  0  0  0  0
  189.6460  177.6610  146.1710 N   0  0  0  0  0  0  0  0  0  0  0  0
  190.6040  176.6350  146.1140 N   0  0  0  0  0  0  0  0  0  0  0  0
  191.8480  177.2300  146.2580 O   0  0  0  0  0  0  0  0  0  0  0  0
  191.3240  176.6490  147.3660 C   0  0  2  0  0  3  0  0  0  0  0  0
  191.9300  175.4100  147.5670 O   0  0  0  0  0  1  0  0  0  0  0  0
  188.4320  177.0700  146.7170 C   0  0  0  0  0  2  0  0  0  0  0  0
  187.9300  177.9120  147.8760 C   0  0  0  0  0  2  0  0  0  0  0  0
  186.0150  178.0310  146.2860 C   0  0  0  0  0  1  0  0  0  0  0  0
  186.7000  178.7010  147.4640 C   0  0  0  0  0  2  0  0  0  0  0  0
  190.0170  176.9780  139.1220 C   0  0  2  0  0  3  0  0  0  0  0  0
  190.8220  176.3130  138.0020 C   0  0  2  0  0  3  0  0  0  0  0  0
  190.3650  174.8670  137.7160 C   0  0  0  0  0  2  0  0  0  0  0  0
  195.0600  174.8710  136.3150 C   0  0  1  0  0  3  0  0  0  0  0  0
  192.3280  176.3940  138.2920 C   0  0  0  0  0  2  0  0  0  0  0  0
  193.8230  173.5990  135.8470 S   0  0  0  0  0  0  0  0  0  0  0  0
  192.6840  174.3030  137.0470 C   0  0  2  0  0  3  0  0  0  0  0  0
  191.2250  174.2130  136.6280 C   0  0  0  0  0  2  0  0  0  0  0  0
  194.5130  175.7830  137.3200 N   0  0  0  0  0  2  0  0  0  0  0  0
  196.3030  174.2010  136.8600 C   0  0  0  0  0  1  0  0  0  0  0  0
  193.0770  175.7460  137.1390 C   0  0  2  0  0  3  0  0  0  0  0  0
  189.3490  178.2700  138.6570 C   0  0  0  0  0  2  0  0  0  0  0  0
  187.9880  178.4130  139.2500 C   0  0  0  0  0  0  0  0  0  0  0  0
  186.9470  178.3160  138.4900 N   0  0  0  0  0  2  0  0  0  0  0  0
  186.5540  178.6580  141.3150 C   0  0  0  0  0  1  0  0  0  0  0  0
  187.8500  178.5610  140.6650 N   0  0  0  0  0  2  0  0  0  0  0  0
  1  2  1  0  0  0  0
  2  3  1  0  0  0  0
  3  4  1  1  0  0  0
  3  5  1  0  0  0  0
  5  6  1  6  0  0  0
  5  7  1  0  0  0  0
  7  8  1  0  0  0  0
  8 13  1  0  0  0  0
  9  8  1  0  0  0  0
  9 10  1  0  0  0  0
  9 11  1  0  0  0  0
 10 11  1  0  0  0  0
 11 12  1  6  0  0  0
 13 14  1  0  0  0  0
 15 16  1  0  0  0  0
 16 14  1  0  0  0  0
 17 28  1  6  0  0  0
 17  1  1  0  0  0  0
 18 21  1  0  0  0  0
 18 17  1  1  0  0  0
 19 18  1  0  0  0  0
 20 26  1  1  0  0  0
 20 25  1  0  0  0  0
 22 20  1  0  0  0  0
 22 23  1  0  0  0  0
 23 24  1  6  0  0  0
 23 27  1  0  0  0  0
 24 19  1  0  0  0  0
 27 25  1  0  0  0  0
 27 21  1  1  0  0  0
 28 29  1  0  0  0  0
 29 32  1  0  0  0  0
 30 29  2  0  0  0  0
 32 31  1  0  0  0  0
M  END
>  <MODEL>
8

>  <REMARK>
 VINA RESULT:      -6.4      4.131      8.106
  Name = 
  13 active torsions:
  status: ('A' for Active; 'I' for Inactive)
    1  A    between atoms: O_1  and  C_4
    2  A    between atoms: O_1  and  C_5
    3  A    between atoms: C_2  and  C_14
    4  A    between atoms: N_3  and  N_20
    5  A    between atoms: C_4  and  C_24
    6  A    between atoms: C_5  and  C_14
    7  A    between atoms: C_13  and  C_30
    8  A    between atoms: C_14  and  C_30
    9  A    between atoms: C_15  and  N_20
   10  A    between atoms: C_15  and  C_26
   11  A    between atoms: C_16  and  N_20
   12  A    between atoms: C_16  and  C_24
   13  A    between atoms: C_19  and  C_26
                            x       y       z     vdW  Elec       q    Type
                         _______ _______ _______ _____ _____    ______ ____

>  <TORSDO>
F 13

$$$$
=
 OpenBabel10272413203D

 32 34  0  0  1  0  0  0  0  0999 V2000
  190.0030  177.7380  139.7430 C   0  0  0  0  0  2  0  0  0  0  0  0
  189.5560  176.7850  140.6710 O   0  0  0  0  0  0  0  0  0  0  0  0
  188.7540  177.4270  141.6380 C   0  0  2  0  0  3  0  0  0  0  0  0
  188.0080  178.6620  141.1300 C   0  0  0  0  0  1  0  0  0  0  0  0
  189.4000  177.5490  143.0290 C   0  0  2  0  0  3  0  0  0  0  0  0
  190.7750  177.3180  142.9500 O   0  0  0  0  0  1  0  0  0  0  0  0
  188.7590  176.6840  144.1200 C   0  0  0  0  0  2  0  0  0  0  0  0
  188.0770  177.4940  145.1230 N   0  0  0  0  0  0  0  0  0  0  0  0
  188.4710  177.0080  146.3810 N   0  0  0  0  0  0  0  0  0  0  0  0
  189.8190  177.3000  146.5260 O   0  0  0  0  0  0  0  0  0  0  0  0
  188.9490  178.1360  147.1470 C   0  0  2  0  0  3  0  0  0  0  0  0
  188.9030  177.8270  148.5050 O   0  0  0  0  0  1  0  0  0  0  0  0
  186.6560  177.2070  144.9900 C   0  0  0  0  0  2  0  0  0  0  0  0
  185.9560  178.3820  144.3320 C   0  0  0  0  0  2  0  0  0  0  0  0
  185.0730  178.3950  146.6620 C   0  0  0  0  0  1  0  0  0  0  0  0
  184.9110  178.9660  145.2660 C   0  0  0  0  0  2  0  0  0  0  0  0
  189.5600  177.3490  138.3390 C   0  0  2  0  0  3  0  0  0  0  0  0
  190.6420  176.5260  137.6350 C   0  0  2  0  0  3  0  0  0  0  0  0
  190.1790  175.0910  137.3010 C   0  0  0  0  0  2  0  0  0  0  0  0
  195.0420  174.6480  137.6990 C   0  0  1  0  0  3  0  0  0  0  0  0
  191.9470  176.5350  138.4440 C   0  0  0  0  0  2  0  0  0  0  0  0
  193.9340  173.4200  136.9030 S   0  0  0  0  0  0  0  0  0  0  0  0
  192.5180  174.3120  137.5580 C   0  0  2  0  0  3  0  0  0  0  0  0
  191.3010  174.2780  136.6460 C   0  0  0  0  0  2  0  0  0  0  0  0
  194.2650  175.6880  138.3730 N   0  0  0  0  0  2  0  0  0  0  0  0
  195.9400  173.9540  138.7010 C   0  0  0  0  0  1  0  0  0  0  0  0
  192.9900  175.7290  137.6880 C   0  0  2  0  0  3  0  0  0  0  0  0
  189.1700  178.5870  137.5350 C   0  0  0  0  0  2  0  0  0  0  0  0
  187.8360  178.4100  136.8930 C   0  0  0  0  0  0  0  0  0  0  0  0
  186.7700  178.7900  137.5190 N   0  0  0  0  0  2  0  0  0  0  0  0
  186.4970  177.7570  134.8530 C   0  0  0  0  0  1  0  0  0  0  0  0
  187.7590  177.9100  135.5570 N   0  0  0  0  0  2  0  0  0  0  0  0
  1  2  1  0  0  0  0
  2  3  1  0  0  0  0
  3  4  1  6  0  0  0
  3  5  1  0  0  0  0
  5  6  1  6  0  0  0
  5  7  1  0  0  0  0
  7  8  1  0  0  0  0
  8  9  1  0  0  0  0
  9 10  1  0  0  0  0
  9 11  1  0  0  0  0
 10 11  1  0  0  0  0
 11 12  1  1  0  0  0
 13  8  1  0  0  0  0
 14 13  1  0  0  0  0
 14 16  1  0  0  0  0
 16 15  1  0  0  0  0
 17 28  1  6  0  0  0
 17  1  1  0  0  0  0
 18 17  1  1  0  0  0
 18 21  1  0  0  0  0
 19 18  1  0  0  0  0
 20 25  1  0  0  0  0
 20 26  1  1  0  0  0
 22 23  1  0  0  0  0
 22 20  1  0  0  0  0
 23 24  1  6  0  0  0
 23 27  1  0  0  0  0
 24 19  1  0  0  0  0
 27 25  1  0  0  0  0
 27 21  1  1  0  0  0
 29 30  2  0  0  0  0
 29 28  1  0  0  0  0
 31 32  1  0  0  0  0
 32 29  1  0  0  0  0
M  END
>  <MODEL>
9

>  <REMARK>
 VINA RESULT:      -6.4      4.064      7.999
  Name = 
  13 active torsions:
  status: ('A' for Active; 'I' for Inactive)
    1  A    between atoms: O_1  and  C_4
    2  A    between atoms: O_1  and  C_5
    3  A    between atoms: C_2  and  C_14
    4  A    between atoms: N_3  and  N_20
    5  A    between atoms: C_4  and  C_24
    6  A    between atoms: C_5  and  C_14
    7  A    between atoms: C_13  and  C_30
    8  A    between atoms: C_14  and  C_30
    9  A    between atoms: C_15  and  N_20
   10  A    between atoms: C_15  and  C_26
   11  A    between atoms: C_16  and  N_20
   12  A    between atoms: C_16  and  C_24
   13  A    between atoms: C_19  and  C_26
                            x       y       z     vdW  Elec       q    Type
                         _______ _______ _______ _____ _____    ______ ____

>  <TORSDO>
F 13

$$$$
