=
 OpenBabel10272414183D

 43 47  0  0  1  0  0  0  0  0999 V2000
  191.6010  176.2730  147.1130 C   0  0  0  0  0  0  0  0  0  0  0  0
  187.3790  177.7920  144.7520 C   0  0  0  0  0  0  0  0  0  0  0  0
  188.0180  178.0280  142.0270 C   0  0  0  0  0  0  0  0  0  0  0  0
  189.3440  176.9990  146.6040 C   0  0  0  0  0  0  0  0  0  0  0  0
  191.9340  176.3440  145.7590 C   0  0  0  0  0  3  0  0  0  0  0  0
  192.5340  175.8950  148.0200 F   0  0  0  0  0  0  0  0  0  0  0  0
  189.6720  177.0700  145.2290 C   0  0  0  0  0  0  0  0  0  0  0  0
  190.3090  176.6020  147.5350 C   0  0  0  0  0  3  0  0  0  0  0  0
  190.9770  176.7400  144.8220 C   0  0  0  0  0  3  0  0  0  0  0  0
  188.9860  177.5920  142.9350 C   0  0  0  0  0  3  0  0  0  0  0  0
  188.6880  177.4780  144.2990 C   0  0  0  0  0  0  0  0  0  0  0  0
  187.0900  177.7290  146.1210 C   0  0  0  0  0  3  0  0  0  0  0  0
  186.3940  178.2020  143.8240 C   0  0  0  0  0  0  0  0  0  0  0  0
  186.7300  178.3310  142.4740 C   0  0  0  0  0  3  0  0  0  0  0  0
  188.0610  177.3330  147.0380 C   0  0  0  0  0  3  0  0  0  0  0  0
  188.3380  178.1530  140.5740 C   0  0  2  0  0  3  0  0  0  0  0  0
  187.1750  178.3740  139.8590 F   0  0  0  0  0  0  0  0  0  0  0  0
  189.0480  176.8990  140.0770 C   0  0  0  0  0  2  0  0  0  0  0  0
  190.6120  177.0780  138.0520 N   0  0  0  0  0  2  0  0  0  0  0  0
  190.3730  177.2260  139.4620 C   0  0  0  0  0  0  0  0  0  0  0  0
  191.3100  177.6180  140.2020 O   0  0  0  0  0  0  0  0  0  0  0  0
  189.6720  176.6360  137.0970 N   0  0  0  0  0  0  0  0  0  0  0  0
  189.1650  177.7880  136.3600 C   0  0  0  0  0  2  0  0  0  0  0  0
  186.7010  176.7190  136.9190 S   0  0  0  0  0  1  0  0  0  0  0  0
  187.8360  177.4560  135.7050 C   0  0  0  0  0  2  0  0  0  0  0  0
  190.3320  175.7310  136.1630 C   0  0  0  0  0  2  0  0  0  0  0  0
  190.6580  174.4410  136.8440 C   0  0  0  0  0  0  0  0  0  0  0  0
  189.7400  173.8360  137.4630 O   0  0  0  0  0  0  0  0  0  0  0  0
  192.0250  173.8840  136.8120 C   0  0  0  0  0  0  0  0  0  0  0  0
  194.3380  173.9430  137.5650 C   0  0  0  0  0  3  0  0  0  0  0  0
  193.6190  172.2300  136.0130 C   0  0  0  0  0  3  0  0  0  0  0  0
  194.6230  172.8220  136.7810 C   0  0  0  0  0  3  0  0  0  0  0  0
  192.3250  172.7580  136.0300 C   0  0  0  0  0  3  0  0  0  0  0  0
  193.0430  174.4720  137.5800 C   0  0  0  0  0  3  0  0  0  0  0  0
  185.0840  178.5110  144.2130 O   0  0  0  0  0  0  0  0  0  0  0  0
  183.0090  178.3250  141.1270 C   0  0  0  0  0  3  0  0  0  0  0  0
  181.7610  178.7230  141.6300 C   0  0  0  0  0  0  0  0  0  0  0  0
  182.7480  178.9720  143.8330 C   0  0  0  0  0  3  0  0  0  0  0  0
  184.1190  178.2490  141.9740 C   0  0  0  0  0  3  0  0  0  0  0  0
  183.9910  178.5650  143.3370 C   0  0  0  0  0  0  0  0  0  0  0  0
  181.6400  179.0490  142.9850 C   0  0  0  0  0  3  0  0  0  0  0  0
  180.6320  178.8060  140.8100 O   0  0  0  0  0  0  0  0  0  0  0  0
  180.6860  178.6070  139.4040 C   0  0  0  0  0  1  0  0  0  0  0  0
  1  8  1  0  0  0  0
  1  6  1  0  0  0  0
  2 12  1  0  0  0  0
  3 14  2  0  0  0  0
  3 10  1  0  0  0  0
  4 15  1  0  0  0  0
  4  8  2  0  0  0  0
  5  1  2  0  0  0  0
  7  4  1  0  0  0  0
  9  7  2  0  0  0  0
  9  5  1  0  0  0  0
 10 11  2  0  0  0  0
 11  2  1  0  0  0  0
 11  7  1  0  0  0  0
 12 15  2  0  0  0  0
 13 35  1  0  0  0  0
 13  2  2  0  0  0  0
 14 13  1  0  0  0  0
 16 17  1  6  0  0  0
 16  3  1  0  0  0  0
 18 16  1  0  0  0  0
 19 20  1  0  0  0  0
 20 18  1  0  0  0  0
 20 21  2  0  0  0  0
 22 19  1  0  0  0  0
 23 22  1  0  0  0  0
 25 23  1  0  0  0  0
 25 24  1  0  0  0  0
 26 27  1  0  0  0  0
 26 22  1  0  0  0  0
 27 28  2  0  0  0  0
 29 27  1  0  0  0  0
 29 34  1  0  0  0  0
 30 34  2  0  0  0  0
 31 33  1  0  0  0  0
 31 32  2  0  0  0  0
 32 30  1  0  0  0  0
 33 29  2  0  0  0  0
 36 37  2  0  0  0  0
 36 39  1  0  0  0  0
 37 41  1  0  0  0  0
 39 40  2  0  0  0  0
 40 38  1  0  0  0  0
 40 35  1  0  0  0  0
 41 38  2  0  0  0  0
 42 37  1  0  0  0  0
 43 42  1  0  0  0  0
M  END
>  <MODEL>
1

>  <REMARK>
 VINA RESULT:      -9.6      0.000      0.000
  Name = 
  12 active torsions:
  status: ('A' for Active; 'I' for Inactive)
    1  A    between atoms: O_1  and  C_34
    2  A    between atoms: O_1  and  C_35
    3  A    between atoms: C_2  and  C_6
    4  A    between atoms: C_2  and  C_13
    5  A    between atoms: N_3  and  N_4
    6  A    between atoms: N_4  and  C_15
    7  A    between atoms: N_4  and  C_22
    8  A    between atoms: C_6  and  C_12
    9  A    between atoms: C_11  and  C_14
   10  A    between atoms: C_14  and  C_22
   11  A    between atoms: C_15  and  C_42
   12  A    between atoms: C_19  and  O_25
                            x       y       z     vdW  Elec       q    Type
                         _______ _______ _______ _____ _____    ______ ____

>  <TORSDO>
F 12

$$$$
=
 OpenBabel10272414183D

 43 47  0  0  1  0  0  0  0  0999 V2000
  193.5360  174.7580  135.4660 C   0  0  0  0  0  0  0  0  0  0  0  0
  189.7950  177.3030  137.7560 C   0  0  0  0  0  0  0  0  0  0  0  0
  190.2790  177.1380  140.5180 C   0  0  0  0  0  0  0  0  0  0  0  0
  191.5370  176.0470  135.9360 C   0  0  0  0  0  0  0  0  0  0  0  0
  193.8210  174.6940  136.8320 C   0  0  0  0  0  3  0  0  0  0  0  0
  194.3610  174.1580  134.5750 F   0  0  0  0  0  0  0  0  0  0  0  0
  191.8200  175.9910  137.3210 C   0  0  0  0  0  0  0  0  0  0  0  0
  192.3950  175.4310  135.0190 C   0  0  0  0  0  3  0  0  0  0  0  0
  192.9690  175.3060  137.7540 C   0  0  0  0  0  3  0  0  0  0  0  0
  191.1700  176.5480  139.6180 C   0  0  0  0  0  3  0  0  0  0  0  0
  190.9400  176.6130  138.2370 C   0  0  0  0  0  0  0  0  0  0  0  0
  189.5330  177.3270  136.3810 C   0  0  0  0  0  3  0  0  0  0  0  0
  188.9140  177.9240  138.6710 C   0  0  0  0  0  0  0  0  0  0  0  0
  189.1580  177.8200  140.0420 C   0  0  0  0  0  3  0  0  0  0  0  0
  190.3970  176.7080  135.4790 C   0  0  0  0  0  3  0  0  0  0  0  0
  190.5230  177.0650  141.9890 C   0  0  2  0  0  3  0  0  0  0  0  0
  190.1540  175.8190  142.4610 F   0  0  0  0  0  0  0  0  0  0  0  0
  189.7550  178.1660  142.7100 C   0  0  0  0  0  2  0  0  0  0  0  0
  190.1840  178.1900  145.2380 N   0  0  0  0  0  2  0  0  0  0  0  0
  190.4960  178.6560  143.9140 C   0  0  0  0  0  0  0  0  0  0  0  0
  191.4020  179.5160  143.7670 O   0  0  0  0  0  0  0  0  0  0  0  0
  189.1900  177.2450  145.5680 N   0  0  0  0  0  0  0  0  0  0  0  0
  189.4880  176.6790  146.8780 C   0  0  0  0  0  2  0  0  0  0  0  0
  192.0170  175.7470  147.3830 S   0  0  0  0  0  1  0  0  0  0  0  0
  190.8520  177.1420  147.3580 C   0  0  0  0  0  2  0  0  0  0  0  0
  187.8960  177.9160  145.6270 C   0  0  0  0  0  2  0  0  0  0  0  0
  186.9920  177.3790  144.5640 C   0  0  0  0  0  0  0  0  0  0  0  0
  187.3830  176.3950  143.8790 O   0  0  0  0  0  0  0  0  0  0  0  0
  185.6740  177.9900  144.3020 C   0  0  0  0  0  0  0  0  0  0  0  0
  183.6460  179.0510  145.1270 C   0  0  0  0  0  3  0  0  0  0  0  0
  183.9440  178.7080  142.7490 C   0  0  0  0  0  3  0  0  0  0  0  0
  183.1750  179.1740  143.8180 C   0  0  0  0  0  3  0  0  0  0  0  0
  185.1890  178.1200  142.9910 C   0  0  0  0  0  3  0  0  0  0  0  0
  184.8910  178.4600  145.3690 C   0  0  0  0  0  3  0  0  0  0  0  0
  187.7780  178.6290  138.2510 O   0  0  0  0  0  0  0  0  0  0  0  0
  184.8480  176.5440  137.2860 C   0  0  0  0  0  3  0  0  0  0  0  0
  183.8640  177.0700  138.1380 C   0  0  0  0  0  0  0  0  0  0  0  0
  185.5010  178.6170  139.0440 C   0  0  0  0  0  3  0  0  0  0  0  0
  186.1500  177.0510  137.3160 C   0  0  0  0  0  3  0  0  0  0  0  0
  186.4860  178.0880  138.2020 C   0  0  0  0  0  0  0  0  0  0  0  0
  184.1990  178.1100  139.0130 C   0  0  0  0  0  3  0  0  0  0  0  0
  182.5540  176.5820  138.1360 O   0  0  0  0  0  0  0  0  0  0  0  0
  182.1170  175.5560  137.2560 C   0  0  0  0  0  1  0  0  0  0  0  0
  1  5  1  0  0  0  0
  2 11  1  0  0  0  0
  2 13  1  0  0  0  0
  3 16  1  0  0  0  0
  4  7  1  0  0  0  0
  5  9  2  0  0  0  0
  6  1  1  0  0  0  0
  7  9  1  0  0  0  0
  7 11  2  0  0  0  0
  8  1  2  0  0  0  0
  8  4  1  0  0  0  0
 10  3  2  0  0  0  0
 11 10  1  0  0  0  0
 12  2  2  0  0  0  0
 13 14  2  0  0  0  0
 14  3  1  0  0  0  0
 15  4  2  0  0  0  0
 15 12  1  0  0  0  0
 16 17  1  1  0  0  0
 16 18  1  0  0  0  0
 18 20  1  0  0  0  0
 19 22  1  0  0  0  0
 20 19  1  0  0  0  0
 21 20  2  0  0  0  0
 22 26  1  0  0  0  0
 22 23  1  0  0  0  0
 23 25  1  0  0  0  0
 25 24  1  0  0  0  0
 27 26  1  0  0  0  0
 28 27  2  0  0  0  0
 29 27  1  0  0  0  0
 29 34  1  0  0  0  0
 30 34  2  0  0  0  0
 31 33  1  0  0  0  0
 31 32  2  0  0  0  0
 32 30  1  0  0  0  0
 33 29  2  0  0  0  0
 35 13  1  0  0  0  0
 36 39  2  0  0  0  0
 36 37  1  0  0  0  0
 37 41  2  0  0  0  0
 39 40  1  0  0  0  0
 40 35  1  0  0  0  0
 40 38  2  0  0  0  0
 41 38  1  0  0  0  0
 42 37  1  0  0  0  0
 43 42  1  0  0  0  0
M  END
>  <MODEL>
2

>  <REMARK>
 VINA RESULT:      -9.5      3.579      8.728
  Name = 
  12 active torsions:
  status: ('A' for Active; 'I' for Inactive)
    1  A    between atoms: O_1  and  C_34
    2  A    between atoms: O_1  and  C_35
    3  A    between atoms: C_2  and  C_6
    4  A    between atoms: C_2  and  C_13
    5  A    between atoms: N_3  and  N_4
    6  A    between atoms: N_4  and  C_15
    7  A    between atoms: N_4  and  C_22
    8  A    between atoms: C_6  and  C_12
    9  A    between atoms: C_11  and  C_14
   10  A    between atoms: C_14  and  C_22
   11  A    between atoms: C_15  and  C_42
   12  A    between atoms: C_19  and  O_25
                            x       y       z     vdW  Elec       q    Type
                         _______ _______ _______ _____ _____    ______ ____

>  <TORSDO>
F 12

$$$$
=
 OpenBabel10272414183D

 43 47  0  0  1  0  0  0  0  0999 V2000
  187.9910  177.2910  147.0320 C   0  0  0  0  0  0  0  0  0  0  0  0
  185.9050  178.4310  142.5530 C   0  0  0  0  0  0  0  0  0  0  0  0
  187.9720  178.3410  140.6530 C   0  0  0  0  0  0  0  0  0  0  0  0
  186.4500  177.9070  145.2650 C   0  0  0  0  0  0  0  0  0  0  0  0
  189.0290  177.2010  146.1020 C   0  0  0  0  0  3  0  0  0  0  0  0
  188.2340  177.0450  148.3420 F   0  0  0  0  0  0  0  0  0  0  0  0
  187.4940  177.8140  144.3140 C   0  0  0  0  0  0  0  0  0  0  0  0
  186.7050  177.6450  146.6150 C   0  0  0  0  0  3  0  0  0  0  0  0
  188.7830  177.4610  144.7520 C   0  0  0  0  0  3  0  0  0  0  0  0
  188.2400  178.0380  141.9910 C   0  0  0  0  0  3  0  0  0  0  0  0
  187.2240  178.0870  142.9540 C   0  0  0  0  0  0  0  0  0  0  0  0
  184.8960  178.5310  143.5190 C   0  0  0  0  0  3  0  0  0  0  0  0
  185.6330  178.7050  141.1930 C   0  0  0  0  0  0  0  0  0  0  0  0
  186.6740  178.6730  140.2610 C   0  0  0  0  0  3  0  0  0  0  0  0
  185.1640  178.2680  144.8610 C   0  0  0  0  0  3  0  0  0  0  0  0
  189.0570  178.2920  139.6290 C   0  0  2  0  0  3  0  0  0  0  0  0
  188.5520  178.6730  138.3990 F   0  0  0  0  0  0  0  0  0  0  0  0
  189.6570  176.8930  139.5580 C   0  0  0  0  0  2  0  0  0  0  0  0
  191.8380  176.5750  138.2460 N   0  0  0  0  0  2  0  0  0  0  0  0
  191.1500  176.9410  139.4540 C   0  0  0  0  0  0  0  0  0  0  0  0
  191.8220  177.2860  140.4590 O   0  0  0  0  0  0  0  0  0  0  0  0
  191.2300  176.1530  137.0450 N   0  0  0  0  0  0  0  0  0  0  0  0
  192.2620  175.9540  136.0340 C   0  0  0  0  0  2  0  0  0  0  0  0
  194.8130  174.9770  136.2860 S   0  0  0  0  0  1  0  0  0  0  0  0
  193.0220  174.6660  136.2990 C   0  0  0  0  0  2  0  0  0  0  0  0
  190.5470  174.8850  137.2780 C   0  0  0  0  0  2  0  0  0  0  0  0
  189.3980  174.7410  136.3330 C   0  0  0  0  0  0  0  0  0  0  0  0
  189.3960  173.7710  135.5270 O   0  0  0  0  0  0  0  0  0  0  0  0
  188.2900  175.7170  136.3230 C   0  0  0  0  0  0  0  0  0  0  0  0
  186.1580  176.4880  137.2070 C   0  0  0  0  0  3  0  0  0  0  0  0
  187.2600  177.7420  135.4530 C   0  0  0  0  0  3  0  0  0  0  0  0
  186.1870  177.5770  136.3330 C   0  0  0  0  0  3  0  0  0  0  0  0
  188.3070  176.8170  135.4500 C   0  0  0  0  0  3  0  0  0  0  0  0
  187.2050  175.5610  137.2020 C   0  0  0  0  0  3  0  0  0  0  0  0
  184.3490  179.0360  140.7410 O   0  0  0  0  0  0  0  0  0  0  0  0
  182.6600  177.9930  137.5910 C   0  0  0  0  0  3  0  0  0  0  0  0
  182.1380  176.7480  137.9760 C   0  0  0  0  0  0  0  0  0  0  0  0
  183.0950  177.0520  140.1860 C   0  0  0  0  0  3  0  0  0  0  0  0
  183.3960  178.7600  138.4980 C   0  0  0  0  0  3  0  0  0  0  0  0
  183.6250  178.2890  139.8020 C   0  0  0  0  0  0  0  0  0  0  0  0
  182.3580  176.2860  139.2780 C   0  0  0  0  0  3  0  0  0  0  0  0
  181.4010  175.9560  137.0920 O   0  0  0  0  0  0  0  0  0  0  0  0
  181.4560  174.5360  137.1010 C   0  0  0  0  0  1  0  0  0  0  0  0
  1  6  1  0  0  0  0
  2 11  1  0  0  0  0
  2 12  1  0  0  0  0
  3 10  1  0  0  0  0
  4  8  2  0  0  0  0
  5  1  2  0  0  0  0
  7  9  2  0  0  0  0
  7  4  1  0  0  0  0
  8  1  1  0  0  0  0
  9  5  1  0  0  0  0
 10 11  2  0  0  0  0
 11  7  1  0  0  0  0
 12 15  2  0  0  0  0
 13  2  2  0  0  0  0
 14  3  2  0  0  0  0
 14 13  1  0  0  0  0
 15  4  1  0  0  0  0
 16 17  1  6  0  0  0
 16  3  1  0  0  0  0
 18 16  1  0  0  0  0
 19 20  1  0  0  0  0
 20 18  1  0  0  0  0
 20 21  2  0  0  0  0
 22 26  1  0  0  0  0
 22 19  1  0  0  0  0
 23 25  1  0  0  0  0
 23 22  1  0  0  0  0
 24 25  1  0  0  0  0
 27 26  1  0  0  0  0
 28 27  2  0  0  0  0
 29 27  1  0  0  0  0
 29 34  1  0  0  0  0
 31 32  2  0  0  0  0
 32 30  1  0  0  0  0
 33 31  1  0  0  0  0
 33 29  2  0  0  0  0
 34 30  2  0  0  0  0
 35 13  1  0  0  0  0
 36 37  2  0  0  0  0
 36 39  1  0  0  0  0
 37 41  1  0  0  0  0
 39 40  2  0  0  0  0
 40 38  1  0  0  0  0
 40 35  1  0  0  0  0
 41 38  2  0  0  0  0
 42 43  1  0  0  0  0
 42 37  1  0  0  0  0
M  END
>  <MODEL>
3

>  <REMARK>
 VINA RESULT:      -9.5      2.356      4.174
  Name = 
  12 active torsions:
  status: ('A' for Active; 'I' for Inactive)
    1  A    between atoms: O_1  and  C_34
    2  A    between atoms: O_1  and  C_35
    3  A    between atoms: C_2  and  C_6
    4  A    between atoms: C_2  and  C_13
    5  A    between atoms: N_3  and  N_4
    6  A    between atoms: N_4  and  C_15
    7  A    between atoms: N_4  and  C_22
    8  A    between atoms: C_6  and  C_12
    9  A    between atoms: C_11  and  C_14
   10  A    between atoms: C_14  and  C_22
   11  A    between atoms: C_15  and  C_42
   12  A    between atoms: C_19  and  O_25
                            x       y       z     vdW  Elec       q    Type
                         _______ _______ _______ _____ _____    ______ ____

>  <TORSDO>
F 12

$$$$
=
 OpenBabel10272414183D

 43 47  0  0  1  0  0  0  0  0999 V2000
  191.6280  176.3070  147.0200 C   0  0  0  0  0  0  0  0  0  0  0  0
  187.3320  177.7620  144.7550 C   0  0  0  0  0  0  0  0  0  0  0  0
  187.9180  178.0540  142.0230 C   0  0  0  0  0  0  0  0  0  0  0  0
  189.3470  176.9870  146.5600 C   0  0  0  0  0  0  0  0  0  0  0  0
  191.9360  176.4070  145.6610 C   0  0  0  0  0  3  0  0  0  0  0  0
  192.5850  175.9370  147.9040 F   0  0  0  0  0  0  0  0  0  0  0  0
  189.6480  177.0860  145.1810 C   0  0  0  0  0  0  0  0  0  0  0  0
  190.3370  176.5980  147.4690 C   0  0  0  0  0  3  0  0  0  0  0  0
  190.9540  176.7940  144.7470 C   0  0  0  0  0  3  0  0  0  0  0  0
  188.9120  177.6280  142.9080 C   0  0  0  0  0  3  0  0  0  0  0  0
  188.6400  177.4860  144.2750 C   0  0  0  0  0  0  0  0  0  0  0  0
  187.0670  177.6700  146.1260 C   0  0  0  0  0  3  0  0  0  0  0  0
  186.3220  178.1620  143.8490 C   0  0  0  0  0  0  0  0  0  0  0  0
  186.6310  178.3200  142.4960 C   0  0  0  0  0  3  0  0  0  0  0  0
  188.0640  177.2830  147.0210 C   0  0  0  0  0  3  0  0  0  0  0  0
  188.2090  178.2100  140.5670 C   0  0  2  0  0  3  0  0  0  0  0  0
  187.0380  178.4840  139.8840 F   0  0  0  0  0  0  0  0  0  0  0  0
  188.8710  176.9500  140.0210 C   0  0  0  0  0  2  0  0  0  0  0  0
  190.3230  177.1600  137.9170 N   0  0  0  0  0  2  0  0  0  0  0  0
  190.1690  177.2610  139.3430 C   0  0  0  0  0  0  0  0  0  0  0  0
  191.1590  177.5970  140.0420 O   0  0  0  0  0  0  0  0  0  0  0  0
  189.3170  176.7820  137.0030 N   0  0  0  0  0  0  0  0  0  0  0  0
  189.0000  177.9200  136.1480 C   0  0  0  0  0  2  0  0  0  0  0  0
  186.4170  177.3400  136.8670 S   0  0  0  0  0  1  0  0  0  0  0  0
  187.6070  177.7710  135.5620 C   0  0  0  0  0  2  0  0  0  0  0  0
  189.8150  175.6920  136.1710 C   0  0  0  0  0  2  0  0  0  0  0  0
  189.5230  174.3780  136.8210 C   0  0  0  0  0  0  0  0  0  0  0  0
  190.3430  173.9260  137.6670 O   0  0  0  0  0  0  0  0  0  0  0  0
  188.3110  173.6080  136.4770 C   0  0  0  0  0  0  0  0  0  0  0  0
  185.9920  173.0230  136.9280 C   0  0  0  0  0  3  0  0  0  0  0  0
  187.1420  172.0280  135.0430 C   0  0  0  0  0  3  0  0  0  0  0  0
  185.9910  172.1680  135.8220 C   0  0  0  0  0  3  0  0  0  0  0  0
  188.2960  172.7460  135.3690 C   0  0  0  0  0  3  0  0  0  0  0  0
  187.1480  173.7390  137.2540 C   0  0  0  0  0  3  0  0  0  0  0  0
  185.0120  178.4340  144.2650 O   0  0  0  0  0  0  0  0  0  0  0  0
  182.9160  178.4170  141.1880 C   0  0  0  0  0  3  0  0  0  0  0  0
  181.6740  178.8010  141.7180 C   0  0  0  0  0  0  0  0  0  0  0  0
  182.6770  178.9320  143.9250 C   0  0  0  0  0  3  0  0  0  0  0  0
  184.0290  178.2900  142.0230 C   0  0  0  0  0  3  0  0  0  0  0  0
  183.9140  178.5410  143.4010 C   0  0  0  0  0  0  0  0  0  0  0  0
  181.5640  179.0600  143.0890 C   0  0  0  0  0  3  0  0  0  0  0  0
  180.5410  178.9330  140.9120 O   0  0  0  0  0  0  0  0  0  0  0  0
  180.6060  179.3480  139.5540 C   0  0  0  0  0  1  0  0  0  0  0  0
  1  8  1  0  0  0  0
  1  6  1  0  0  0  0
  2 12  1  0  0  0  0
  3 14  2  0  0  0  0
  3 10  1  0  0  0  0
  4 15  1  0  0  0  0
  4  8  2  0  0  0  0
  5  1  2  0  0  0  0
  7  4  1  0  0  0  0
  9  7  2  0  0  0  0
  9  5  1  0  0  0  0
 10 11  2  0  0  0  0
 11  2  1  0  0  0  0
 11  7  1  0  0  0  0
 12 15  2  0  0  0  0
 13 35  1  0  0  0  0
 13  2  2  0  0  0  0
 14 13  1  0  0  0  0
 16 17  1  6  0  0  0
 16  3  1  0  0  0  0
 18 16  1  0  0  0  0
 19 20  1  0  0  0  0
 20 18  1  0  0  0  0
 20 21  2  0  0  0  0
 22 19  1  0  0  0  0
 23 22  1  0  0  0  0
 25 23  1  0  0  0  0
 25 24  1  0  0  0  0
 26 27  1  0  0  0  0
 26 22  1  0  0  0  0
 27 28  2  0  0  0  0
 29 27  1  0  0  0  0
 29 34  1  0  0  0  0
 30 34  2  0  0  0  0
 31 33  1  0  0  0  0
 31 32  2  0  0  0  0
 32 30  1  0  0  0  0
 33 29  2  0  0  0  0
 36 37  2  0  0  0  0
 36 39  1  0  0  0  0
 37 41  1  0  0  0  0
 39 40  2  0  0  0  0
 40 38  1  0  0  0  0
 40 35  1  0  0  0  0
 41 38  2  0  0  0  0
 42 37  1  0  0  0  0
 43 42  1  0  0  0  0
M  END
>  <MODEL>
4

>  <REMARK>
 VINA RESULT:      -9.4      1.592      2.458
  Name = 
  12 active torsions:
  status: ('A' for Active; 'I' for Inactive)
    1  A    between atoms: O_1  and  C_34
    2  A    between atoms: O_1  and  C_35
    3  A    between atoms: C_2  and  C_6
    4  A    between atoms: C_2  and  C_13
    5  A    between atoms: N_3  and  N_4
    6  A    between atoms: N_4  and  C_15
    7  A    between atoms: N_4  and  C_22
    8  A    between atoms: C_6  and  C_12
    9  A    between atoms: C_11  and  C_14
   10  A    between atoms: C_14  and  C_22
   11  A    between atoms: C_15  and  C_42
   12  A    between atoms: C_19  and  O_25
                            x       y       z     vdW  Elec       q    Type
                         _______ _______ _______ _____ _____    ______ ____

>  <TORSDO>
F 12

$$$$
=
 OpenBabel10272414183D

 43 47  0  0  1  0  0  0  0  0999 V2000
  193.9380  175.2150  136.3420 C   0  0  0  0  0  0  0  0  0  0  0  0
  190.5200  177.2900  139.4600 C   0  0  0  0  0  0  0  0  0  0  0  0
  188.0550  177.2250  138.1150 C   0  0  0  0  0  0  0  0  0  0  0  0
  192.8390  176.2900  138.2170 C   0  0  0  0  0  0  0  0  0  0  0  0
  192.7180  175.1340  135.6670 C   0  0  0  0  0  3  0  0  0  0  0  0
  195.0650  174.7400  135.7590 F   0  0  0  0  0  0  0  0  0  0  0  0
  191.5970  176.2090  137.5420 C   0  0  0  0  0  0  0  0  0  0  0  0
  193.9990  175.7930  137.6130 C   0  0  0  0  0  3  0  0  0  0  0  0
  191.5550  175.6290  136.2620 C   0  0  0  0  0  3  0  0  0  0  0  0
  189.1940  176.6880  137.5090 C   0  0  0  0  0  3  0  0  0  0  0  0
  190.4340  176.7200  138.1620 C   0  0  0  0  0  0  0  0  0  0  0  0
  191.7650  177.3710  140.0960 C   0  0  0  0  0  3  0  0  0  0  0  0
  189.3580  177.8030  140.0810 C   0  0  0  0  0  0  0  0  0  0  0  0
  188.1410  177.7790  139.3930 C   0  0  0  0  0  3  0  0  0  0  0  0
  192.9130  176.8730  139.4820 C   0  0  0  0  0  3  0  0  0  0  0  0
  186.7360  177.1940  137.4180 C   0  0  2  0  0  3  0  0  0  0  0  0
  186.8750  177.6930  136.1350 F   0  0  0  0  0  0  0  0  0  0  0  0
  185.7020  177.9950  138.2000 C   0  0  0  0  0  2  0  0  0  0  0  0
  183.3430  177.6660  139.1520 N   0  0  0  0  0  2  0  0  0  0  0  0
  184.3700  177.3120  138.2100 C   0  0  0  0  0  0  0  0  0  0  0  0
  184.1510  176.3870  137.3870 O   0  0  0  0  0  0  0  0  0  0  0  0
  183.4410  178.6650  140.1430 N   0  0  0  0  0  0  0  0  0  0  0  0
  182.1460  179.3180  140.2900 C   0  0  0  0  0  2  0  0  0  0  0  0
  180.1030  179.5070  142.1110 S   0  0  0  0  0  1  0  0  0  0  0  0
  181.2100  178.4590  141.1220 C   0  0  0  0  0  2  0  0  0  0  0  0
  183.8020  178.0430  141.4120 C   0  0  0  0  0  2  0  0  0  0  0  0
  185.0140  178.7070  141.9820 C   0  0  0  0  0  0  0  0  0  0  0  0
  185.6390  179.5380  141.2680 O   0  0  0  0  0  0  0  0  0  0  0  0
  185.4870  178.3930  143.3450 C   0  0  0  0  0  0  0  0  0  0  0  0
  185.1880  178.5180  145.7560 C   0  0  0  0  0  3  0  0  0  0  0  0
  187.1030  177.3550  144.8380 C   0  0  0  0  0  3  0  0  0  0  0  0
  186.3630  177.7840  145.9420 C   0  0  0  0  0  3  0  0  0  0  0  0
  186.6660  177.6570  143.5450 C   0  0  0  0  0  3  0  0  0  0  0  0
  184.7520  178.8210  144.4620 C   0  0  0  0  0  3  0  0  0  0  0  0
  189.3830  178.3630  141.3640 O   0  0  0  0  0  0  0  0  0  0  0  0
  191.3620  177.9560  144.4920 C   0  0  0  0  0  3  0  0  0  0  0  0
  191.3310  176.5600  144.6380 C   0  0  0  0  0  0  0  0  0  0  0  0
  190.0090  176.3950  142.6090 C   0  0  0  0  0  3  0  0  0  0  0  0
  190.7180  178.5650  143.4110 C   0  0  0  0  0  3  0  0  0  0  0  0
  190.0300  177.7860  142.4660 C   0  0  0  0  0  0  0  0  0  0  0  0
  190.6540  175.7860  143.6890 C   0  0  0  0  0  3  0  0  0  0  0  0
  191.9620  175.9200  145.7080 O   0  0  0  0  0  0  0  0  0  0  0  0
  191.6120  176.1620  147.0640 C   0  0  0  0  0  1  0  0  0  0  0  0
  1  8  1  0  0  0  0
  2 13  1  0  0  0  0
  2 12  1  0  0  0  0
  3 14  1  0  0  0  0
  4 15  1  0  0  0  0
  5  9  1  0  0  0  0
  5  1  2  0  0  0  0
  6  1  1  0  0  0  0
  7 11  1  0  0  0  0
  7  4  1  0  0  0  0
  8  4  2  0  0  0  0
  9  7  2  0  0  0  0
 10  3  2  0  0  0  0
 10 11  1  0  0  0  0
 11  2  2  0  0  0  0
 13 35  1  0  0  0  0
 14 13  2  0  0  0  0
 15 12  2  0  0  0  0
 16 17  1  6  0  0  0
 16  3  1  0  0  0  0
 16 18  1  0  0  0  0
 18 20  1  0  0  0  0
 19 22  1  0  0  0  0
 20 19  1  0  0  0  0
 21 20  2  0  0  0  0
 22 23  1  0  0  0  0
 22 26  1  0  0  0  0
 23 25  1  0  0  0  0
 25 24  1  0  0  0  0
 26 27  1  0  0  0  0
 27 29  1  0  0  0  0
 28 27  2  0  0  0  0
 29 33  2  0  0  0  0
 29 34  1  0  0  0  0
 30 32  1  0  0  0  0
 31 32  2  0  0  0  0
 33 31  1  0  0  0  0
 34 30  2  0  0  0  0
 35 40  1  0  0  0  0
 36 37  1  0  0  0  0
 37 42  1  0  0  0  0
 38 41  1  0  0  0  0
 39 36  2  0  0  0  0
 40 38  2  0  0  0  0
 40 39  1  0  0  0  0
 41 37  2  0  0  0  0
 42 43  1  0  0  0  0
M  END
>  <MODEL>
5

>  <REMARK>
 VINA RESULT:      -9.3      3.465      8.820
  Name = 
  12 active torsions:
  status: ('A' for Active; 'I' for Inactive)
    1  A    between atoms: O_1  and  C_34
    2  A    between atoms: O_1  and  C_35
    3  A    between atoms: C_2  and  C_6
    4  A    between atoms: C_2  and  C_13
    5  A    between atoms: N_3  and  N_4
    6  A    between atoms: N_4  and  C_15
    7  A    between atoms: N_4  and  C_22
    8  A    between atoms: C_6  and  C_12
    9  A    between atoms: C_11  and  C_14
   10  A    between atoms: C_14  and  C_22
   11  A    between atoms: C_15  and  C_42
   12  A    between atoms: C_19  and  O_25
                            x       y       z     vdW  Elec       q    Type
                         _______ _______ _______ _____ _____    ______ ____

>  <TORSDO>
F 12

$$$$
=
 OpenBabel10272414183D

 43 47  0  0  1  0  0  0  0  0999 V2000
  190.9800  176.6000  146.8490 C   0  0  0  0  0  0  0  0  0  0  0  0
  189.4230  177.7580  142.1650 C   0  0  0  0  0  0  0  0  0  0  0  0
  186.6790  178.3330  142.3450 C   0  0  0  0  0  0  0  0  0  0  0  0
  190.8670  177.0130  144.4630 C   0  0  0  0  0  0  0  0  0  0  0  0
  189.6260  176.9190  146.9730 C   0  0  0  0  0  3  0  0  0  0  0  0
  191.6910  176.2370  147.9440 F   0  0  0  0  0  0  0  0  0  0  0  0
  189.4960  177.3420  144.5790 C   0  0  0  0  0  0  0  0  0  0  0  0
  191.5990  176.6450  145.5970 C   0  0  0  0  0  3  0  0  0  0  0  0
  188.8880  177.2870  145.8460 C   0  0  0  0  0  3  0  0  0  0  0  0
  187.4000  178.0050  143.4960 C   0  0  0  0  0  3  0  0  0  0  0  0
  188.7670  177.7060  143.4240 C   0  0  0  0  0  0  0  0  0  0  0  0
  190.7770  177.4110  142.0790 C   0  0  0  0  0  3  0  0  0  0  0  0
  188.6950  178.1220  141.0080 C   0  0  0  0  0  0  0  0  0  0  0  0
  187.3270  178.3890  141.1100 C   0  0  0  0  0  3  0  0  0  0  0  0
  191.4930  177.0450  143.2170 C   0  0  0  0  0  3  0  0  0  0  0  0
  185.2220  178.6480  142.4230 C   0  0  2  0  0  3  0  0  0  0  0  0
  184.7070  178.1750  143.6170 F   0  0  0  0  0  0  0  0  0  0  0  0
  184.4830  178.0380  141.2370 C   0  0  0  0  0  2  0  0  0  0  0  0
  182.5590  179.1820  139.9860 N   0  0  0  0  0  2  0  0  0  0  0  0
  183.9550  179.0940  140.3170 C   0  0  0  0  0  0  0  0  0  0  0  0
  184.7580  179.9120  139.8000 O   0  0  0  0  0  0  0  0  0  0  0  0
  181.5410  178.3320  140.4680 N   0  0  0  0  0  0  0  0  0  0  0  0
  180.5140  179.1410  141.1150 C   0  0  0  0  0  2  0  0  0  0  0  0
  181.1790  178.7870  143.7520 S   0  0  0  0  0  1  0  0  0  0  0  0
  180.0270  178.4640  142.3840 C   0  0  0  0  0  2  0  0  0  0  0  0
  180.9430  177.6210  139.3440 C   0  0  0  0  0  2  0  0  0  0  0  0
  181.6050  176.2910  139.1700 C   0  0  0  0  0  0  0  0  0  0  0  0
  181.2470  175.3360  139.9120 O   0  0  0  0  0  0  0  0  0  0  0  0
  182.6670  176.0930  138.1640 C   0  0  0  0  0  0  0  0  0  0  0  0
  184.3540  174.6700  137.1400 C   0  0  0  0  0  3  0  0  0  0  0  0
  183.9980  176.9130  136.3000 C   0  0  0  0  0  3  0  0  0  0  0  0
  184.6740  175.6930  136.2420 C   0  0  0  0  0  3  0  0  0  0  0  0
  182.9980  177.1120  137.2560 C   0  0  0  0  0  3  0  0  0  0  0  0
  183.3540  174.8700  138.0980 C   0  0  0  0  0  3  0  0  0  0  0  0
  189.2940  178.2020  139.7450 O   0  0  0  0  0  0  0  0  0  0  0  0
  188.1800  175.8350  137.0950 C   0  0  0  0  0  3  0  0  0  0  0  0
  189.3370  175.0540  136.9420 C   0  0  0  0  0  0  0  0  0  0  0  0
  190.4360  176.3800  138.6530 C   0  0  0  0  0  3  0  0  0  0  0  0
  188.1550  176.8830  138.0190 C   0  0  0  0  0  3  0  0  0  0  0  0
  189.2880  177.1660  138.8000 C   0  0  0  0  0  0  0  0  0  0  0  0
  190.4600  175.3320  137.7290 C   0  0  0  0  0  3  0  0  0  0  0  0
  189.3960  174.0010  136.0250 O   0  0  0  0  0  0  0  0  0  0  0  0
  188.6410  172.8070  136.1740 C   0  0  0  0  0  1  0  0  0  0  0  0
  1  5  1  0  0  0  0
  1  6  1  0  0  0  0
  2 11  1  0  0  0  0
  3 16  1  0  0  0  0
  3 10  1  0  0  0  0
  4  7  2  0  0  0  0
  4  8  1  0  0  0  0
  7  9  1  0  0  0  0
  8  1  2  0  0  0  0
  9  5  2  0  0  0  0
 11 10  2  0  0  0  0
 11  7  1  0  0  0  0
 12  2  1  0  0  0  0
 12 15  2  0  0  0  0
 13 14  1  0  0  0  0
 13  2  2  0  0  0  0
 14  3  2  0  0  0  0
 15  4  1  0  0  0  0
 16 17  1  1  0  0  0
 18 16  1  0  0  0  0
 19 20  1  0  0  0  0
 19 22  1  0  0  0  0
 20 18  1  0  0  0  0
 21 20  2  0  0  0  0
 22 23  1  0  0  0  0
 23 25  1  0  0  0  0
 25 24  1  0  0  0  0
 26 22  1  0  0  0  0
 27 26  1  0  0  0  0
 27 28  2  0  0  0  0
 29 27  1  0  0  0  0
 30 34  2  0  0  0  0
 31 33  1  0  0  0  0
 32 31  2  0  0  0  0
 32 30  1  0  0  0  0
 33 29  2  0  0  0  0
 34 29  1  0  0  0  0
 35 13  1  0  0  0  0
 36 39  1  0  0  0  0
 37 36  2  0  0  0  0
 37 41  1  0  0  0  0
 38 40  1  0  0  0  0
 39 40  2  0  0  0  0
 40 35  1  0  0  0  0
 41 38  2  0  0  0  0
 42 43  1  0  0  0  0
 42 37  1  0  0  0  0
M  END
>  <MODEL>
6

>  <REMARK>
 VINA RESULT:      -9.3      3.189      7.322
  Name = 
  12 active torsions:
  status: ('A' for Active; 'I' for Inactive)
    1  A    between atoms: O_1  and  C_34
    2  A    between atoms: O_1  and  C_35
    3  A    between atoms: C_2  and  C_6
    4  A    between atoms: C_2  and  C_13
    5  A    between atoms: N_3  and  N_4
    6  A    between atoms: N_4  and  C_15
    7  A    between atoms: N_4  and  C_22
    8  A    between atoms: C_6  and  C_12
    9  A    between atoms: C_11  and  C_14
   10  A    between atoms: C_14  and  C_22
   11  A    between atoms: C_15  and  C_42
   12  A    between atoms: C_19  and  O_25
                            x       y       z     vdW  Elec       q    Type
                         _______ _______ _______ _____ _____    ______ ____

>  <TORSDO>
F 12

$$$$
=
 OpenBabel10272414183D

 43 47  0  0  1  0  0  0  0  0999 V2000
  187.9560  177.2810  147.2280 C   0  0  0  0  0  0  0  0  0  0  0  0
  186.1350  178.5090  142.6580 C   0  0  0  0  0  0  0  0  0  0  0  0
  188.2630  178.2430  140.8430 C   0  0  0  0  0  0  0  0  0  0  0  0
  186.5340  177.9830  145.3940 C   0  0  0  0  0  0  0  0  0  0  0  0
  189.0200  177.1030  146.3410 C   0  0  0  0  0  3  0  0  0  0  0  0
  188.1290  177.0340  148.5490 F   0  0  0  0  0  0  0  0  0  0  0  0
  187.6050  177.8020  144.4870 C   0  0  0  0  0  0  0  0  0  0  0  0
  186.7160  177.7210  146.7560 C   0  0  0  0  0  3  0  0  0  0  0  0
  188.8470  177.3620  144.9790 C   0  0  0  0  0  3  0  0  0  0  0  0
  188.4560  177.9400  142.1930 C   0  0  0  0  0  3  0  0  0  0  0  0
  187.4090  178.0760  143.1140 C   0  0  0  0  0  0  0  0  0  0  0  0
  185.0990  178.6950  143.5810 C   0  0  0  0  0  3  0  0  0  0  0  0
  185.9380  178.7840  141.2850 C   0  0  0  0  0  0  0  0  0  0  0  0
  187.0090  178.6640  140.3960 C   0  0  0  0  0  3  0  0  0  0  0  0
  185.2950  178.4310  144.9350 C   0  0  0  0  0  3  0  0  0  0  0  0
  189.3800  178.1030  139.8630 C   0  0  2  0  0  3  0  0  0  0  0  0
  189.3590  179.1640  138.9770 F   0  0  0  0  0  0  0  0  0  0  0  0
  189.2720  176.7760  139.1200 C   0  0  0  0  0  2  0  0  0  0  0  0
  190.2220  176.3160  136.7830 N   0  0  0  0  0  2  0  0  0  0  0  0
  190.4220  176.5760  138.1840 C   0  0  0  0  0  0  0  0  0  0  0  0
  191.5930  176.6100  138.6370 O   0  0  0  0  0  0  0  0  0  0  0  0
  188.9750  176.2310  136.1290 N   0  0  0  0  0  0  0  0  0  0  0  0
  188.9280  177.2260  135.0640 C   0  0  0  0  0  2  0  0  0  0  0  0
  186.9680  178.1550  136.7430 S   0  0  0  0  0  1  0  0  0  0  0  0
  187.5780  177.9210  135.0470 C   0  0  0  0  0  2  0  0  0  0  0  0
  188.8380  174.9030  135.5390 C   0  0  0  0  0  2  0  0  0  0  0  0
  188.3690  173.9300  136.5730 C   0  0  0  0  0  0  0  0  0  0  0  0
  189.2310  173.3350  137.2760 O   0  0  0  0  0  0  0  0  0  0  0  0
  186.9320  173.6530  136.7660 C   0  0  0  0  0  0  0  0  0  0  0  0
  184.6890  174.4390  137.2870 C   0  0  0  0  0  3  0  0  0  0  0  0
  185.0570  172.1030  136.7670 C   0  0  0  0  0  3  0  0  0  0  0  0
  184.1930  173.1450  137.1120 C   0  0  0  0  0  3  0  0  0  0  0  0
  186.4200  172.3570  136.5930 C   0  0  0  0  0  3  0  0  0  0  0  0
  186.0540  174.6920  137.1150 C   0  0  0  0  0  3  0  0  0  0  0  0
  184.7000  179.2010  140.7780 O   0  0  0  0  0  0  0  0  0  0  0  0
  182.8530  178.0180  137.7690 C   0  0  0  0  0  3  0  0  0  0  0  0
  182.2460  176.8580  138.2770 C   0  0  0  0  0  0  0  0  0  0  0  0
  183.2810  177.2820  140.4310 C   0  0  0  0  0  3  0  0  0  0  0  0
  183.6710  178.8020  138.5880 C   0  0  0  0  0  3  0  0  0  0  0  0
  183.8950  178.4330  139.9250 C   0  0  0  0  0  0  0  0  0  0  0  0
  182.4630  176.4990  139.6120 C   0  0  0  0  0  3  0  0  0  0  0  0
  181.4260  176.0520  137.4830 O   0  0  0  0  0  0  0  0  0  0  0  0
  181.5340  176.0030  136.0670 C   0  0  0  0  0  1  0  0  0  0  0  0
  1  6  1  0  0  0  0
  2 11  1  0  0  0  0
  2 12  1  0  0  0  0
  3 10  1  0  0  0  0
  4  8  2  0  0  0  0
  5  1  2  0  0  0  0
  7  9  2  0  0  0  0
  7  4  1  0  0  0  0
  8  1  1  0  0  0  0
  9  5  1  0  0  0  0
 10 11  2  0  0  0  0
 11  7  1  0  0  0  0
 12 15  2  0  0  0  0
 13  2  2  0  0  0  0
 14  3  2  0  0  0  0
 14 13  1  0  0  0  0
 15  4  1  0  0  0  0
 16 17  1  6  0  0  0
 16  3  1  0  0  0  0
 18 16  1  0  0  0  0
 19 20  1  0  0  0  0
 20 21  2  0  0  0  0
 20 18  1  0  0  0  0
 22 19  1  0  0  0  0
 23 22  1  0  0  0  0
 25 23  1  0  0  0  0
 25 24  1  0  0  0  0
 26 22  1  0  0  0  0
 26 27  1  0  0  0  0
 27 29  1  0  0  0  0
 27 28  2  0  0  0  0
 29 34  1  0  0  0  0
 31 32  2  0  0  0  0
 32 30  1  0  0  0  0
 33 29  2  0  0  0  0
 33 31  1  0  0  0  0
 34 30  2  0  0  0  0
 35 13  1  0  0  0  0
 36 37  2  0  0  0  0
 36 39  1  0  0  0  0
 37 41  1  0  0  0  0
 39 40  2  0  0  0  0
 40 38  1  0  0  0  0
 40 35  1  0  0  0  0
 41 38  2  0  0  0  0
 42 37  1  0  0  0  0
 43 42  1  0  0  0  0
M  END
>  <MODEL>
7

>  <REMARK>
 VINA RESULT:      -9.3      2.584      3.981
  Name = 
  12 active torsions:
  status: ('A' for Active; 'I' for Inactive)
    1  A    between atoms: O_1  and  C_34
    2  A    between atoms: O_1  and  C_35
    3  A    between atoms: C_2  and  C_6
    4  A    between atoms: C_2  and  C_13
    5  A    between atoms: N_3  and  N_4
    6  A    between atoms: N_4  and  C_15
    7  A    between atoms: N_4  and  C_22
    8  A    between atoms: C_6  and  C_12
    9  A    between atoms: C_11  and  C_14
   10  A    between atoms: C_14  and  C_22
   11  A    between atoms: C_15  and  C_42
   12  A    between atoms: C_19  and  O_25
                            x       y       z     vdW  Elec       q    Type
                         _______ _______ _______ _____ _____    ______ ____

>  <TORSDO>
F 12

$$$$
=
 OpenBabel10272414183D

 43 47  0  0  1  0  0  0  0  0999 V2000
  190.4910  176.9010  146.7140 C   0  0  0  0  0  0  0  0  0  0  0  0
  186.6610  178.1870  143.6510 C   0  0  0  0  0  0  0  0  0  0  0  0
  187.6640  178.1120  141.0280 C   0  0  0  0  0  0  0  0  0  0  0  0
  188.3410  177.5860  145.8280 C   0  0  0  0  0  0  0  0  0  0  0  0
  191.0040  176.8180  145.4180 C   0  0  0  0  0  3  0  0  0  0  0  0
  191.2860  176.6180  147.7750 F   0  0  0  0  0  0  0  0  0  0  0  0
  188.8510  177.5010  144.5100 C   0  0  0  0  0  0  0  0  0  0  0  0
  189.1630  177.2860  146.9190 C   0  0  0  0  0  3  0  0  0  0  0  0
  190.1900  177.1160  144.3230 C   0  0  0  0  0  3  0  0  0  0  0  0
  188.4910  177.7710  142.1010 C   0  0  0  0  0  3  0  0  0  0  0  0
  188.0110  177.8120  143.4170 C   0  0  0  0  0  0  0  0  0  0  0  0
  186.1900  178.2790  144.9660 C   0  0  0  0  0  3  0  0  0  0  0  0
  185.8190  178.5000  142.5590 C   0  0  0  0  0  0  0  0  0  0  0  0
  186.3360  178.4750  141.2610 C   0  0  0  0  0  3  0  0  0  0  0  0
  187.0200  177.9780  146.0440 C   0  0  0  0  0  3  0  0  0  0  0  0
  188.1780  178.0720  139.6280 C   0  0  2  0  0  3  0  0  0  0  0  0
  188.9650  179.1840  139.3890 F   0  0  0  0  0  0  0  0  0  0  0  0
  187.0200  178.0060  138.6380 C   0  0  0  0  0  2  0  0  0  0  0  0
  187.8470  177.3300  136.3070 N   0  0  0  0  0  2  0  0  0  0  0  0
  187.4640  178.3460  137.2500 C   0  0  0  0  0  0  0  0  0  0  0  0
  187.5280  179.5530  136.9060 O   0  0  0  0  0  0  0  0  0  0  0  0
  187.8460  175.9390  136.5450 N   0  0  0  0  0  0  0  0  0  0  0  0
  186.6680  175.3510  135.9200 C   0  0  0  0  0  2  0  0  0  0  0  0
  186.0780  173.0370  137.2700 S   0  0  0  0  0  1  0  0  0  0  0  0
  185.7280  174.7960  136.9750 C   0  0  0  0  0  2  0  0  0  0  0  0
  189.0400  175.3530  135.9470 C   0  0  0  0  0  2  0  0  0  0  0  0
  189.8960  174.7390  137.0080 C   0  0  0  0  0  0  0  0  0  0  0  0
  189.6430  173.5610  137.3810 O   0  0  0  0  0  0  0  0  0  0  0  0
  191.0060  175.4920  137.6250 C   0  0  0  0  0  0  0  0  0  0  0  0
  193.3020  176.2920  137.5490 C   0  0  0  0  0  3  0  0  0  0  0  0
  191.8870  176.8660  139.4280 C   0  0  0  0  0  3  0  0  0  0  0  0
  193.1190  176.9390  138.7740 C   0  0  0  0  0  3  0  0  0  0  0  0
  190.8350  176.1470  138.8550 C   0  0  0  0  0  3  0  0  0  0  0  0
  192.2490  175.5710  136.9770 C   0  0  0  0  0  3  0  0  0  0  0  0
  184.4770  178.8620  142.7310 O   0  0  0  0  0  0  0  0  0  0  0  0
  181.0790  178.3570  141.2960 C   0  0  0  0  0  3  0  0  0  0  0  0
  181.3870  177.5800  140.1670 C   0  0  0  0  0  0  0  0  0  0  0  0
  183.7370  177.6730  140.7680 C   0  0  0  0  0  3  0  0  0  0  0  0
  182.0950  178.7890  142.1520 C   0  0  0  0  0  3  0  0  0  0  0  0
  183.4340  178.4550  141.8880 C   0  0  0  0  0  0  0  0  0  0  0  0
  182.7200  177.2400  139.9130 C   0  0  0  0  0  3  0  0  0  0  0  0
  180.3950  177.1350  139.2900 O   0  0  0  0  0  0  0  0  0  0  0  0
  180.5170  177.2310  137.8780 C   0  0  0  0  0  1  0  0  0  0  0  0
  1  8  1  0  0  0  0
  1  6  1  0  0  0  0
  2 12  1  0  0  0  0
  3 14  2  0  0  0  0
  3 10  1  0  0  0  0
  4 15  1  0  0  0  0
  4  8  2  0  0  0  0
  5  1  2  0  0  0  0
  7  4  1  0  0  0  0
  9  7  2  0  0  0  0
  9  5  1  0  0  0  0
 10 11  2  0  0  0  0
 11  2  1  0  0  0  0
 11  7  1  0  0  0  0
 12 15  2  0  0  0  0
 13 35  1  0  0  0  0
 13  2  2  0  0  0  0
 14 13  1  0  0  0  0
 16 17  1  6  0  0  0
 16  3  1  0  0  0  0
 18 16  1  0  0  0  0
 19 22  1  0  0  0  0
 19 20  1  0  0  0  0
 20 18  1  0  0  0  0
 21 20  2  0  0  0  0
 23 22  1  0  0  0  0
 23 25  1  0  0  0  0
 25 24  1  0  0  0  0
 26 22  1  0  0  0  0
 26 27  1  0  0  0  0
 27 28  2  0  0  0  0
 27 29  1  0  0  0  0
 29 33  1  0  0  0  0
 30 32  2  0  0  0  0
 32 31  1  0  0  0  0
 33 31  2  0  0  0  0
 34 30  1  0  0  0  0
 34 29  2  0  0  0  0
 36 39  1  0  0  0  0
 37 36  2  0  0  0  0
 38 40  1  0  0  0  0
 40 39  2  0  0  0  0
 40 35  1  0  0  0  0
 41 37  1  0  0  0  0
 41 38  2  0  0  0  0
 42 37  1  0  0  0  0
 43 42  1  0  0  0  0
M  END
>  <MODEL>
8

>  <REMARK>
 VINA RESULT:      -9.2      1.892      2.574
  Name = 
  12 active torsions:
  status: ('A' for Active; 'I' for Inactive)
    1  A    between atoms: O_1  and  C_34
    2  A    between atoms: O_1  and  C_35
    3  A    between atoms: C_2  and  C_6
    4  A    between atoms: C_2  and  C_13
    5  A    between atoms: N_3  and  N_4
    6  A    between atoms: N_4  and  C_15
    7  A    between atoms: N_4  and  C_22
    8  A    between atoms: C_6  and  C_12
    9  A    between atoms: C_11  and  C_14
   10  A    between atoms: C_14  and  C_22
   11  A    between atoms: C_15  and  C_42
   12  A    between atoms: C_19  and  O_25
                            x       y       z     vdW  Elec       q    Type
                         _______ _______ _______ _____ _____    ______ ____

>  <TORSDO>
F 12

$$$$
=
 OpenBabel10272414183D

 43 47  0  0  1  0  0  0  0  0999 V2000
  181.2280  179.2280  141.6060 C   0  0  0  0  0  0  0  0  0  0  0  0
  185.3240  178.2940  144.4440 C   0  0  0  0  0  0  0  0  0  0  0  0
  187.4350  177.7680  142.6670 C   0  0  0  0  0  0  0  0  0  0  0  0
  182.7510  178.8660  143.4570 C   0  0  0  0  0  0  0  0  0  0  0  0
  182.2680  179.0090  140.7010 C   0  0  0  0  0  3  0  0  0  0  0  0
  179.9820  179.5030  141.1500 F   0  0  0  0  0  0  0  0  0  0  0  0
  183.8130  178.6460  142.5470 C   0  0  0  0  0  0  0  0  0  0  0  0
  181.4680  179.1550  142.9820 C   0  0  0  0  0  3  0  0  0  0  0  0
  183.5520  178.7190  141.1680 C   0  0  0  0  0  3  0  0  0  0  0  0
  186.1700  178.0920  142.1710 C   0  0  0  0  0  3  0  0  0  0  0  0
  185.1030  178.3490  143.0420 C   0  0  0  0  0  0  0  0  0  0  0  0
  184.2510  178.5000  145.3190 C   0  0  0  0  0  3  0  0  0  0  0  0
  186.6140  177.9960  144.9410 C   0  0  0  0  0  0  0  0  0  0  0  0
  187.6510  177.7200  144.0460 C   0  0  0  0  0  3  0  0  0  0  0  0
  182.9770  178.7860  144.8310 C   0  0  0  0  0  3  0  0  0  0  0  0
  188.5690  177.4900  141.7380 C   0  0  2  0  0  3  0  0  0  0  0  0
  189.7130  178.1160  142.2000 F   0  0  0  0  0  0  0  0  0  0  0  0
  188.2280  177.9600  140.3280 C   0  0  0  0  0  2  0  0  0  0  0  0
  188.7280  177.2720  137.9090 N   0  0  0  0  0  2  0  0  0  0  0  0
  189.0830  177.2840  139.3020 C   0  0  0  0  0  0  0  0  0  0  0  0
  190.1270  176.6890  139.6710 O   0  0  0  0  0  0  0  0  0  0  0  0
  187.5860  177.8770  137.3420 N   0  0  0  0  0  0  0  0  0  0  0  0
  187.7900  178.0260  135.9060 C   0  0  0  0  0  2  0  0  0  0  0  0
  187.0190  175.7820  134.5300 S   0  0  0  0  0  1  0  0  0  0  0  0
  188.3470  176.7440  135.3140 C   0  0  0  0  0  2  0  0  0  0  0  0
  186.4300  177.0170  137.5680 C   0  0  0  0  0  2  0  0  0  0  0  0
  185.2520  177.8390  137.9820 C   0  0  0  0  0  0  0  0  0  0  0  0
  185.4570  178.9840  138.4720 O   0  0  0  0  0  0  0  0  0  0  0  0
  183.8750  177.3280  137.8390 C   0  0  0  0  0  0  0  0  0  0  0  0
  181.6420  177.5330  136.8950 C   0  0  0  0  0  3  0  0  0  0  0  0
  182.1740  175.6600  138.3350 C   0  0  0  0  0  3  0  0  0  0  0  0
  181.2590  176.3540  137.5400 C   0  0  0  0  0  3  0  0  0  0  0  0
  183.4770  176.1450  138.4820 C   0  0  0  0  0  3  0  0  0  0  0  0
  182.9450  178.0180  137.0450 C   0  0  0  0  0  3  0  0  0  0  0  0
  186.8920  177.9420  146.3130 O   0  0  0  0  0  0  0  0  0  0  0  0
  189.8440  178.0770  148.5770 C   0  0  0  0  0  3  0  0  0  0  0  0
  190.7520  177.2760  147.8670 C   0  0  0  0  0  0  0  0  0  0  0  0
  189.0770  176.9380  146.1430 C   0  0  0  0  0  3  0  0  0  0  0  0
  188.5600  178.3030  148.0730 C   0  0  0  0  0  3  0  0  0  0  0  0
  188.1670  177.7270  146.8540 C   0  0  0  0  0  0  0  0  0  0  0  0
  190.3610  176.7120  146.6470 C   0  0  0  0  0  3  0  0  0  0  0  0
  192.0420  177.0270  148.3450 O   0  0  0  0  0  0  0  0  0  0  0  0
  192.7270  175.8050  148.1120 C   0  0  0  0  0  1  0  0  0  0  0  0
  1  8  1  0  0  0  0
  2 13  1  0  0  0  0
  2 12  1  0  0  0  0
  3 14  1  0  0  0  0
  4 15  1  0  0  0  0
  5  9  1  0  0  0  0
  5  1  2  0  0  0  0
  6  1  1  0  0  0  0
  7 11  1  0  0  0  0
  7  4  1  0  0  0  0
  8  4  2  0  0  0  0
  9  7  2  0  0  0  0
 10  3  2  0  0  0  0
 10 11  1  0  0  0  0
 11  2  2  0  0  0  0
 13 35  1  0  0  0  0
 14 13  2  0  0  0  0
 15 12  2  0  0  0  0
 16 17  1  1  0  0  0
 16  3  1  0  0  0  0
 18 16  1  0  0  0  0
 19 20  1  0  0  0  0
 20 21  2  0  0  0  0
 20 18  1  0  0  0  0
 22 26  1  0  0  0  0
 22 19  1  0  0  0  0
 23 22  1  0  0  0  0
 24 25  1  0  0  0  0
 25 23  1  0  0  0  0
 26 27  1  0  0  0  0
 27 28  2  0  0  0  0
 29 27  1  0  0  0  0
 29 33  1  0  0  0  0
 30 34  1  0  0  0  0
 30 32  2  0  0  0  0
 31 33  2  0  0  0  0
 32 31  1  0  0  0  0
 34 29  2  0  0  0  0
 35 40  1  0  0  0  0
 37 42  1  0  0  0  0
 37 36  2  0  0  0  0
 38 41  2  0  0  0  0
 38 40  1  0  0  0  0
 39 36  1  0  0  0  0
 40 39  2  0  0  0  0
 41 37  1  0  0  0  0
 43 42  1  0  0  0  0
M  END
>  <MODEL>
9

>  <REMARK>
 VINA RESULT:      -9.2      3.062      7.893
  Name = 
  12 active torsions:
  status: ('A' for Active; 'I' for Inactive)
    1  A    between atoms: O_1  and  C_34
    2  A    between atoms: O_1  and  C_35
    3  A    between atoms: C_2  and  C_6
    4  A    between atoms: C_2  and  C_13
    5  A    between atoms: N_3  and  N_4
    6  A    between atoms: N_4  and  C_15
    7  A    between atoms: N_4  and  C_22
    8  A    between atoms: C_6  and  C_12
    9  A    between atoms: C_11  and  C_14
   10  A    between atoms: C_14  and  C_22
   11  A    between atoms: C_15  and  C_42
   12  A    between atoms: C_19  and  O_25
                            x       y       z     vdW  Elec       q    Type
                         _______ _______ _______ _____ _____    ______ ____

>  <TORSDO>
F 12

$$$$
