=
 OpenBabel10272400513D

 25 28  0  0  1  0  0  0  0  0999 V2000
  187.1870  177.8630  145.4830 C   0  0  0  0  0  0  0  0  0  0  0  0
  188.4630  177.4100  145.0860 C   0  0  0  0  0  0  0  0  0  0  0  0
  187.8660  177.8310  147.8280 C   0  0  0  0  0  3  0  0  0  0  0  0
  186.0710  178.1640  144.6780 C   0  0  0  0  0  0  0  0  0  0  0  0
  183.6690  178.8540  143.4240 C   0  0  0  0  0  3  0  0  0  0  0  0
  189.1350  177.3830  147.4430 C   0  0  0  0  0  3  0  0  0  0  0  0
  184.9690  178.5880  145.4200 C   0  0  0  0  0  0  0  0  0  0  0  0
  183.7620  178.9370  144.8200 C   0  0  0  0  0  3  0  0  0  0  0  0
  190.7180  176.7220  145.6940 C   0  0  0  0  0  0  0  0  0  0  0  0
  191.9860  176.4100  146.8730 Cl  0  0  0  0  0  0  0  0  0  0  0  0
  188.7900  177.1920  143.7440 C   0  0  0  0  0  3  0  0  0  0  0  0
  184.7710  178.4280  142.6590 C   0  0  0  0  0  3  0  0  0  0  0  0
  186.9170  178.0620  146.8390 C   0  0  0  0  0  0  0  0  0  0  0  0
  185.3350  178.6010  147.0630 S   0  0  0  0  0  0  0  0  0  0  0  0
  190.9920  176.5250  144.3770 N   0  0  0  0  0  0  0  0  0  0  0  0
  185.9790  178.0810  143.2840 C   0  0  0  0  0  3  0  0  0  0  0  0
  190.0650  176.7400  143.4060 C   0  0  0  0  0  0  0  0  0  0  0  0
  189.4440  177.1700  146.0850 C   0  0  0  0  0  0  0  0  0  0  0  0
  190.4230  176.5350  141.9780 C   0  0  0  0  0  2  0  0  0  0  0  0
  189.3010  176.9080  141.1340 N   0  0  0  0  0  2  0  0  0  0  0  0
  189.8460  177.6060  139.9810 C   0  0  1  0  0  3  0  0  0  0  0  0
  190.3780  176.6040  138.9700 C   0  0  0  0  0  1  0  0  0  0  0  0
  188.7940  178.4600  139.3540 C   0  0  0  0  0  0  0  0  0  0  0  0
  189.0530  179.1510  138.3330 O   0  0  0  0  0  0  0  0  0  0  0  0
  187.4900  178.5010  139.9230 N   0  0  0  0  0  1  0  0  0  0  0  0
  1 13  1  0  0  0  0
  2  1  2  0  0  0  0
  2 18  1  0  0  0  0
  4  7  1  0  0  0  0
  4  1  1  0  0  0  0
  5  8  1  0  0  0  0
  6  3  1  0  0  0  0
  7 14  1  0  0  0  0
  8  7  2  0  0  0  0
  9 18  1  0  0  0  0
  9 10  1  0  0  0  0
 11  2  1  0  0  0  0
 12 16  1  0  0  0  0
 12  5  2  0  0  0  0
 13 14  1  0  0  0  0
 13  3  2  0  0  0  0
 15  9  2  0  0  0  0
 16  4  2  0  0  0  0
 17 11  2  0  0  0  0
 17 15  1  0  0  0  0
 18  6  2  0  0  0  0
 19 17  1  0  0  0  0
 20 19  1  0  0  0  0
 21 22  1  6  0  0  0
 21 20  1  0  0  0  0
 23 25  1  0  0  0  0
 23 21  1  0  0  0  0
 24 23  2  0  0  0  0
M  END
>  <MODEL>
1

>  <REMARK>
 VINA RESULT:     -10.5      0.000      0.000
  Name = 
  4 active torsions:
  status: ('A' for Active; 'I' for Inactive)
    1  A    between atoms: C_2  and  C_21
    2  A    between atoms: C_6  and  N_15
    3  A    between atoms: C_6  and  C_23
    4  A    between atoms: N_15  and  C_21
                            x       y       z     vdW  Elec       q    Type
                         _______ _______ _______ _____ _____    ______ ____

>  <TORSDO>
F 4

$$$$
=
 OpenBabel10272400513D

 25 28  0  0  1  0  0  0  0  0999 V2000
  187.1890  177.8630  145.5430 C   0  0  0  0  0  0  0  0  0  0  0  0
  188.4740  177.3800  145.2170 C   0  0  0  0  0  0  0  0  0  0  0  0
  187.7810  177.9470  147.9100 C   0  0  0  0  0  3  0  0  0  0  0  0
  186.1060  178.1320  144.6820 C   0  0  0  0  0  0  0  0  0  0  0  0
  183.7600  178.7770  143.3050 C   0  0  0  0  0  3  0  0  0  0  0  0
  189.0580  177.4690  147.5960 C   0  0  0  0  0  3  0  0  0  0  0  0
  184.9820  178.6030  145.3590 C   0  0  0  0  0  0  0  0  0  0  0  0
  183.8020  178.9300  144.6980 C   0  0  0  0  0  3  0  0  0  0  0  0
  190.6980  176.7060  145.9430 C   0  0  0  0  0  0  0  0  0  0  0  0
  191.9190  176.4450  147.1830 Cl  0  0  0  0  0  0  0  0  0  0  0  0
  188.8480  177.0910  143.9010 C   0  0  0  0  0  3  0  0  0  0  0  0
  184.8850  178.3030  142.6050 C   0  0  0  0  0  3  0  0  0  0  0  0
  186.8710  178.1340  146.8750 C   0  0  0  0  0  0  0  0  0  0  0  0
  185.2880  178.6970  147.0120 S   0  0  0  0  0  0  0  0  0  0  0  0
  191.0190  176.4390  144.6490 N   0  0  0  0  0  0  0  0  0  0  0  0
  186.0650  177.9780  143.2920 C   0  0  0  0  0  3  0  0  0  0  0  0
  190.1300  176.6120  143.6350 C   0  0  0  0  0  0  0  0  0  0  0  0
  189.4150  177.1830  146.2630 C   0  0  0  0  0  0  0  0  0  0  0  0
  190.5390  176.3300  142.2330 C   0  0  0  0  0  2  0  0  0  0  0  0
  190.3250  177.5120  141.4150 N   0  0  0  0  0  2  0  0  0  0  0  0
  189.3400  177.1620  140.4050 C   0  0  1  0  0  3  0  0  0  0  0  0
  188.2790  178.2460  140.3170 C   0  0  0  0  0  1  0  0  0  0  0  0
  190.0040  176.9840  139.0800 C   0  0  0  0  0  0  0  0  0  0  0  0
  189.9560  177.8940  138.2110 O   0  0  0  0  0  0  0  0  0  0  0  0
  190.6890  175.7690  138.7950 N   0  0  0  0  0  1  0  0  0  0  0  0
  1 13  1  0  0  0  0
  2  1  2  0  0  0  0
  2 18  1  0  0  0  0
  4  7  1  0  0  0  0
  4  1  1  0  0  0  0
  5  8  1  0  0  0  0
  6  3  1  0  0  0  0
  7 14  1  0  0  0  0
  8  7  2  0  0  0  0
  9 18  1  0  0  0  0
  9 10  1  0  0  0  0
 11  2  1  0  0  0  0
 12 16  1  0  0  0  0
 12  5  2  0  0  0  0
 13 14  1  0  0  0  0
 13  3  2  0  0  0  0
 15  9  2  0  0  0  0
 16  4  2  0  0  0  0
 17 11  2  0  0  0  0
 17 15  1  0  0  0  0
 18  6  2  0  0  0  0
 19 17  1  0  0  0  0
 20 19  1  0  0  0  0
 21 22  1  6  0  0  0
 21 20  1  0  0  0  0
 23 21  1  0  0  0  0
 24 23  2  0  0  0  0
 25 23  1  0  0  0  0
M  END
>  <MODEL>
2

>  <REMARK>
 VINA RESULT:     -10.2      0.849      1.214
  Name = 
  4 active torsions:
  status: ('A' for Active; 'I' for Inactive)
    1  A    between atoms: C_2  and  C_21
    2  A    between atoms: C_6  and  N_15
    3  A    between atoms: C_6  and  C_23
    4  A    between atoms: N_15  and  C_21
                            x       y       z     vdW  Elec       q    Type
                         _______ _______ _______ _____ _____    ______ ____

>  <TORSDO>
F 4

$$$$
=
 OpenBabel10272400513D

 25 28  0  0  1  0  0  0  0  0999 V2000
  187.6350  177.7950  145.6400 C   0  0  0  0  0  0  0  0  0  0  0  0
  186.8480  178.1130  144.5130 C   0  0  0  0  0  0  0  0  0  0  0  0
  185.7470  178.2290  147.1260 C   0  0  0  0  0  3  0  0  0  0  0  0
  188.9860  177.3980  145.6850 C   0  0  0  0  0  0  0  0  0  0  0  0
  191.6190  176.5910  146.1730 C   0  0  0  0  0  3  0  0  0  0  0  0
  184.9590  178.5450  146.0140 C   0  0  0  0  0  3  0  0  0  0  0  0
  189.4370  177.1650  146.9840 C   0  0  0  0  0  0  0  0  0  0  0  0
  190.7430  176.7640  147.2540 C   0  0  0  0  0  3  0  0  0  0  0  0
  184.7030  178.8040  143.5910 C   0  0  0  0  0  0  0  0  0  0  0  0
  183.0160  179.2740  143.7560 Cl  0  0  0  0  0  0  0  0  0  0  0  0
  187.3590  178.0660  143.2120 C   0  0  0  0  0  3  0  0  0  0  0  0
  191.1810  176.8220  144.8560 C   0  0  0  0  0  3  0  0  0  0  0  0
  187.0720  177.8610  146.9150 C   0  0  0  0  0  0  0  0  0  0  0  0
  188.2020  177.4400  148.0930 S   0  0  0  0  0  0  0  0  0  0  0  0
  185.2420  178.7440  142.3440 N   0  0  0  0  0  0  0  0  0  0  0  0
  189.8610  177.2270  144.6050 C   0  0  0  0  0  3  0  0  0  0  0  0
  186.5390  178.3940  142.1330 C   0  0  0  0  0  0  0  0  0  0  0  0
  185.4940  178.4910  144.7110 C   0  0  0  0  0  0  0  0  0  0  0  0
  187.0720  178.3170  140.7470 C   0  0  0  0  0  2  0  0  0  0  0  0
  188.5250  178.3060  140.7820 N   0  0  0  0  0  2  0  0  0  0  0  0
  188.9770  177.5680  139.6140 C   0  0  1  0  0  3  0  0  0  0  0  0
  189.1750  178.5170  138.4450 C   0  0  0  0  0  1  0  0  0  0  0  0
  190.2510  176.8540  139.9210 C   0  0  0  0  0  0  0  0  0  0  0  0
  190.6520  175.9120  139.1860 O   0  0  0  0  0  0  0  0  0  0  0  0
  191.0140  177.2350  141.0590 N   0  0  0  0  0  1  0  0  0  0  0  0
  1  4  1  0  0  0  0
  1 13  2  0  0  0  0
  2 18  1  0  0  0  0
  2  1  1  0  0  0  0
  4  7  1  0  0  0  0
  5  8  1  0  0  0  0
  6  3  2  0  0  0  0
  7  8  2  0  0  0  0
  7 14  1  0  0  0  0
  9 10  1  0  0  0  0
  9 18  2  0  0  0  0
 11  2  2  0  0  0  0
 12  5  2  0  0  0  0
 13  3  1  0  0  0  0
 13 14  1  0  0  0  0
 15  9  1  0  0  0  0
 16 12  1  0  0  0  0
 16  4  2  0  0  0  0
 17 15  2  0  0  0  0
 17 11  1  0  0  0  0
 18  6  1  0  0  0  0
 19 20  1  0  0  0  0
 19 17  1  0  0  0  0
 21 22  1  6  0  0  0
 21 23  1  0  0  0  0
 21 20  1  0  0  0  0
 23 25  1  0  0  0  0
 24 23  2  0  0  0  0
M  END
>  <MODEL>
3

>  <REMARK>
 VINA RESULT:     -10.0      2.537      4.732
  Name = 
  4 active torsions:
  status: ('A' for Active; 'I' for Inactive)
    1  A    between atoms: C_2  and  C_21
    2  A    between atoms: C_6  and  N_15
    3  A    between atoms: C_6  and  C_23
    4  A    between atoms: N_15  and  C_21
                            x       y       z     vdW  Elec       q    Type
                         _______ _______ _______ _____ _____    ______ ____

>  <TORSDO>
F 4

$$$$
=
 OpenBabel10272400513D

 25 28  0  0  1  0  0  0  0  0999 V2000
  188.0150  177.6060  145.4760 C   0  0  0  0  0  0  0  0  0  0  0  0
  187.3820  177.9180  144.2550 C   0  0  0  0  0  0  0  0  0  0  0  0
  185.9680  178.1090  146.7080 C   0  0  0  0  0  3  0  0  0  0  0  0
  189.3410  177.1820  145.6960 C   0  0  0  0  0  0  0  0  0  0  0  0
  191.8720  176.3290  146.5210 C   0  0  0  0  0  3  0  0  0  0  0  0
  185.3310  178.4190  145.5020 C   0  0  0  0  0  3  0  0  0  0  0  0
  189.6210  176.9650  147.0440 C   0  0  0  0  0  0  0  0  0  0  0  0
  190.8730  176.5410  147.4820 C   0  0  0  0  0  3  0  0  0  0  0  0
  185.3840  178.6370  143.0620 C   0  0  0  0  0  0  0  0  0  0  0  0
  183.7010  179.1450  143.0080 Cl  0  0  0  0  0  0  0  0  0  0  0  0
  188.0490  177.8350  143.0290 C   0  0  0  0  0  3  0  0  0  0  0  0
  191.6070  176.5440  145.1560 C   0  0  0  0  0  3  0  0  0  0  0  0
  187.2990  177.7090  146.6710 C   0  0  0  0  0  0  0  0  0  0  0  0
  188.2640  177.2870  147.9870 S   0  0  0  0  0  0  0  0  0  0  0  0
  186.0720  178.5410  141.8930 N   0  0  0  0  0  0  0  0  0  0  0  0
  190.3380  176.9710  144.7370 C   0  0  0  0  0  3  0  0  0  0  0  0
  187.3760  178.1590  141.8510 C   0  0  0  0  0  0  0  0  0  0  0  0
  186.0220  178.3290  144.2770 C   0  0  0  0  0  0  0  0  0  0  0  0
  188.0760  178.0440  140.5440 C   0  0  0  0  0  2  0  0  0  0  0  0
  187.1690  178.4140  139.4700 N   0  0  0  0  0  2  0  0  0  0  0  0
  187.5750  177.6680  138.2900 C   0  0  1  0  0  3  0  0  0  0  0  0
  186.5090  177.7820  137.2130 C   0  0  0  0  0  1  0  0  0  0  0  0
  188.8790  178.1850  137.7800 C   0  0  0  0  0  0  0  0  0  0  0  0
  189.8920  177.4360  137.7330 O   0  0  0  0  0  0  0  0  0  0  0  0
  188.9810  179.5390  137.3550 N   0  0  0  0  0  1  0  0  0  0  0  0
  1  4  1  0  0  0  0
  1 13  2  0  0  0  0
  2 18  1  0  0  0  0
  2  1  1  0  0  0  0
  4  7  1  0  0  0  0
  5  8  1  0  0  0  0
  6  3  2  0  0  0  0
  7  8  2  0  0  0  0
  7 14  1  0  0  0  0
  9 18  2  0  0  0  0
 10  9  1  0  0  0  0
 11  2  2  0  0  0  0
 12  5  2  0  0  0  0
 13  3  1  0  0  0  0
 13 14  1  0  0  0  0
 15  9  1  0  0  0  0
 16 12  1  0  0  0  0
 16  4  2  0  0  0  0
 17 15  2  0  0  0  0
 17 11  1  0  0  0  0
 18  6  1  0  0  0  0
 19 17  1  0  0  0  0
 20 19  1  0  0  0  0
 21 22  1  6  0  0  0
 21 20  1  0  0  0  0
 23 21  1  0  0  0  0
 24 23  2  0  0  0  0
 25 23  1  0  0  0  0
M  END
>  <MODEL>
4

>  <REMARK>
 VINA RESULT:      -9.7      2.732      4.737
  Name = 
  4 active torsions:
  status: ('A' for Active; 'I' for Inactive)
    1  A    between atoms: C_2  and  C_21
    2  A    between atoms: C_6  and  N_15
    3  A    between atoms: C_6  and  C_23
    4  A    between atoms: N_15  and  C_21
                            x       y       z     vdW  Elec       q    Type
                         _______ _______ _______ _____ _____    ______ ____

>  <TORSDO>
F 4

$$$$
=
 OpenBabel10272400513D

 25 28  0  0  1  0  0  0  0  0999 V2000
  187.1520  177.9170  145.1870 C   0  0  0  0  0  0  0  0  0  0  0  0
  186.2260  178.2180  144.1660 C   0  0  0  0  0  0  0  0  0  0  0  0
  185.4180  178.1730  146.8860 C   0  0  0  0  0  3  0  0  0  0  0  0
  188.5220  177.6090  145.0690 C   0  0  0  0  0  0  0  0  0  0  0  0
  191.2370  176.9640  145.2330 C   0  0  0  0  0  3  0  0  0  0  0  0
  184.4920  178.4730  145.8800 C   0  0  0  0  0  3  0  0  0  0  0  0
  189.1280  177.3630  146.2990 C   0  0  0  0  0  0  0  0  0  0  0  0
  190.4780  177.0410  146.4090 C   0  0  0  0  0  3  0  0  0  0  0  0
  183.9520  178.7960  143.5130 C   0  0  0  0  0  0  0  0  0  0  0  0
  182.2680  179.1460  143.8800 Cl  0  0  0  0  0  0  0  0  0  0  0  0
  186.5910  178.2500  142.8170 C   0  0  0  0  0  3  0  0  0  0  0  0
  190.6420  177.2090  143.9820 C   0  0  0  0  0  3  0  0  0  0  0  0
  186.7310  177.9010  146.5180 C   0  0  0  0  0  0  0  0  0  0  0  0
  188.0090  177.5170  147.5480 S   0  0  0  0  0  0  0  0  0  0  0  0
  184.3510  178.8140  142.2130 N   0  0  0  0  0  0  0  0  0  0  0  0
  189.2790  177.5330  143.8940 C   0  0  0  0  0  3  0  0  0  0  0  0
  185.6360  178.5580  141.8480 C   0  0  0  0  0  0  0  0  0  0  0  0
  184.8800  178.4990  144.5260 C   0  0  0  0  0  0  0  0  0  0  0  0
  186.0160  178.5640  140.4100 C   0  0  0  0  0  2  0  0  0  0  0  0
  187.4610  178.4900  140.2860 N   0  0  0  0  0  2  0  0  0  0  0  0
  187.7500  177.8430  139.0160 C   0  0  1  0  0  3  0  0  0  0  0  0
  186.5860  178.0370  138.0590 C   0  0  0  0  0  1  0  0  0  0  0  0
  189.0010  178.4060  138.4270 C   0  0  0  0  0  0  0  0  0  0  0  0
  188.9930  179.5310  137.8590 O   0  0  0  0  0  0  0  0  0  0  0  0
  190.2100  177.6600  138.4990 N   0  0  0  0  0  1  0  0  0  0  0  0
  1 13  2  0  0  0  0
  2 18  1  0  0  0  0
  2  1  1  0  0  0  0
  4  1  1  0  0  0  0
  4  7  1  0  0  0  0
  5  8  1  0  0  0  0
  6  3  2  0  0  0  0
  7  8  2  0  0  0  0
  7 14  1  0  0  0  0
  9 10  1  0  0  0  0
  9 18  2  0  0  0  0
 11  2  2  0  0  0  0
 12  5  2  0  0  0  0
 13  3  1  0  0  0  0
 13 14  1  0  0  0  0
 15  9  1  0  0  0  0
 16 12  1  0  0  0  0
 16  4  2  0  0  0  0
 17 15  2  0  0  0  0
 17 11  1  0  0  0  0
 18  6  1  0  0  0  0
 19 17  1  0  0  0  0
 20 19  1  0  0  0  0
 21 22  1  6  0  0  0
 21 20  1  0  0  0  0
 23 25  1  0  0  0  0
 23 21  1  0  0  0  0
 24 23  2  0  0  0  0
M  END
>  <MODEL>
5

>  <REMARK>
 VINA RESULT:      -9.6      2.722      4.824
  Name = 
  4 active torsions:
  status: ('A' for Active; 'I' for Inactive)
    1  A    between atoms: C_2  and  C_21
    2  A    between atoms: C_6  and  N_15
    3  A    between atoms: C_6  and  C_23
    4  A    between atoms: N_15  and  C_21
                            x       y       z     vdW  Elec       q    Type
                         _______ _______ _______ _____ _____    ______ ____

>  <TORSDO>
F 4

$$$$
=
 OpenBabel10272400513D

 25 28  0  0  1  0  0  0  0  0999 V2000
  186.0270  178.3220  144.4180 C   0  0  0  0  0  0  0  0  0  0  0  0
  186.0350  178.4310  143.0120 C   0  0  0  0  0  0  0  0  0  0  0  0
  183.6580  178.9110  144.4870 C   0  0  0  0  0  3  0  0  0  0  0  0
  187.0890  177.9860  145.2810 C   0  0  0  0  0  0  0  0  0  0  0  0
  188.9320  177.3620  147.2890 C   0  0  0  0  0  3  0  0  0  0  0  0
  183.6570  179.0210  143.0920 C   0  0  0  0  0  3  0  0  0  0  0  0
  186.7130  177.9740  146.6230 C   0  0  0  0  0  0  0  0  0  0  0  0
  187.6100  177.6670  147.6420 C   0  0  0  0  0  3  0  0  0  0  0  0
  184.8320  178.8930  140.9460 C   0  0  0  0  0  0  0  0  0  0  0  0
  183.3780  179.3200  140.0530 Cl  0  0  0  0  0  0  0  0  0  0  0  0
  187.1890  178.2020  142.2550 C   0  0  0  0  0  3  0  0  0  0  0  0
  189.3300  177.3700  145.9390 C   0  0  0  0  0  3  0  0  0  0  0  0
  184.8450  178.5630  145.1220 C   0  0  0  0  0  0  0  0  0  0  0  0
  185.0840  178.3710  146.7800 S   0  0  0  0  0  0  0  0  0  0  0  0
  185.9770  178.6600  140.2500 N   0  0  0  0  0  0  0  0  0  0  0  0
  188.4090  177.6820  144.9270 C   0  0  0  0  0  3  0  0  0  0  0  0
  187.1430  178.3290  140.8670 C   0  0  0  0  0  0  0  0  0  0  0  0
  184.8310  178.7860  142.3480 C   0  0  0  0  0  0  0  0  0  0  0  0
  188.3610  178.0580  140.0590 C   0  0  0  0  0  2  0  0  0  0  0  0
  189.5430  178.2190  140.8870 N   0  0  0  0  0  2  0  0  0  0  0  0
  190.3110  176.9880  140.7830 C   0  0  1  0  0  3  0  0  0  0  0  0
  191.5720  177.2300  139.9710 C   0  0  0  0  0  1  0  0  0  0  0  0
  190.6630  176.4870  142.1440 C   0  0  0  0  0  0  0  0  0  0  0  0
  190.0540  175.5040  142.6440 O   0  0  0  0  0  0  0  0  0  0  0  0
  191.6900  177.1340  142.8870 N   0  0  0  0  0  1  0  0  0  0  0  0
  1 13  2  0  0  0  0
  1  4  1  0  0  0  0
  2  1  1  0  0  0  0
  3 13  1  0  0  0  0
  4  7  1  0  0  0  0
  5  8  1  0  0  0  0
  6  3  2  0  0  0  0
  7 14  1  0  0  0  0
  7  8  2  0  0  0  0
  9 18  2  0  0  0  0
 10  9  1  0  0  0  0
 11  2  2  0  0  0  0
 12  5  2  0  0  0  0
 13 14  1  0  0  0  0
 15 17  2  0  0  0  0
 15  9  1  0  0  0  0
 16  4  2  0  0  0  0
 16 12  1  0  0  0  0
 17 11  1  0  0  0  0
 18  2  1  0  0  0  0
 18  6  1  0  0  0  0
 19 17  1  0  0  0  0
 19 20  1  0  0  0  0
 21 22  1  6  0  0  0
 21 20  1  0  0  0  0
 21 23  1  0  0  0  0
 23 24  2  0  0  0  0
 23 25  1  0  0  0  0
M  END
>  <MODEL>
6

>  <REMARK>
 VINA RESULT:      -9.6      2.732      4.946
  Name = 
  4 active torsions:
  status: ('A' for Active; 'I' for Inactive)
    1  A    between atoms: C_2  and  C_21
    2  A    between atoms: C_6  and  N_15
    3  A    between atoms: C_6  and  C_23
    4  A    between atoms: N_15  and  C_21
                            x       y       z     vdW  Elec       q    Type
                         _______ _______ _______ _____ _____    ______ ____

>  <TORSDO>
F 4

$$$$
=
 OpenBabel10272400513D

 25 28  0  0  1  0  0  0  0  0999 V2000
  186.7870  177.9160  144.7890 C   0  0  0  0  0  0  0  0  0  0  0  0
  187.9890  177.5830  144.1310 C   0  0  0  0  0  0  0  0  0  0  0  0
  187.8490  177.6030  146.9650 C   0  0  0  0  0  3  0  0  0  0  0  0
  185.5440  178.2670  144.2260 C   0  0  0  0  0  0  0  0  0  0  0  0
  182.9490  179.0010  143.4870 C   0  0  0  0  0  3  0  0  0  0  0  0
  189.0470  177.2740  146.3210 C   0  0  0  0  0  3  0  0  0  0  0  0
  184.5710  178.5330  145.1880 C   0  0  0  0  0  0  0  0  0  0  0  0
  183.2720  178.9000  144.8470 C   0  0  0  0  0  3  0  0  0  0  0  0
  190.3320  176.9320  144.2630 C   0  0  0  0  0  0  0  0  0  0  0  0
  191.7870  176.5270  145.1650 Cl  0  0  0  0  0  0  0  0  0  0  0  0
  188.0930  177.5640  142.7360 C   0  0  0  0  0  3  0  0  0  0  0  0
  183.9190  178.7360  142.5020 C   0  0  0  0  0  3  0  0  0  0  0  0
  186.7420  177.9180  146.1850 C   0  0  0  0  0  0  0  0  0  0  0  0
  185.2070  178.3440  146.7350 S   0  0  0  0  0  0  0  0  0  0  0  0
  190.3870  176.9270  142.9040 N   0  0  0  0  0  0  0  0  0  0  0  0
  185.2230  178.3680  142.8670 C   0  0  0  0  0  3  0  0  0  0  0  0
  189.3050  177.2240  142.1370 C   0  0  0  0  0  0  0  0  0  0  0  0
  189.1300  177.2600  144.9140 C   0  0  0  0  0  0  0  0  0  0  0  0
  189.4250  177.2300  140.6540 C   0  0  0  0  0  2  0  0  0  0  0  0
  190.4510  176.2880  140.2430 N   0  0  0  0  0  2  0  0  0  0  0  0
  190.7640  176.5750  138.8520 C   0  0  1  0  0  3  0  0  0  0  0  0
  192.2700  176.6300  138.6610 C   0  0  0  0  0  1  0  0  0  0  0  0
  190.1710  175.5300  137.9670 C   0  0  0  0  0  0  0  0  0  0  0  0
  189.0250  175.6880  137.4670 O   0  0  0  0  0  0  0  0  0  0  0  0
  190.9030  174.3400  137.6950 N   0  0  0  0  0  1  0  0  0  0  0  0
  1 13  1  0  0  0  0
  2  1  2  0  0  0  0
  2 18  1  0  0  0  0
  4  1  1  0  0  0  0
  4  7  1  0  0  0  0
  5  8  1  0  0  0  0
  6  3  1  0  0  0  0
  7 14  1  0  0  0  0
  8  7  2  0  0  0  0
  9 18  1  0  0  0  0
  9 10  1  0  0  0  0
 11  2  1  0  0  0  0
 12 16  1  0  0  0  0
 12  5  2  0  0  0  0
 13 14  1  0  0  0  0
 13  3  2  0  0  0  0
 15  9  2  0  0  0  0
 16  4  2  0  0  0  0
 17 11  2  0  0  0  0
 17 15  1  0  0  0  0
 18  6  2  0  0  0  0
 19 17  1  0  0  0  0
 20 19  1  0  0  0  0
 21 22  1  1  0  0  0
 21 20  1  0  0  0  0
 23 21  1  0  0  0  0
 24 23  2  0  0  0  0
 25 23  1  0  0  0  0
M  END
>  <MODEL>
7

>  <REMARK>
 VINA RESULT:      -9.5      1.540      1.927
  Name = 
  4 active torsions:
  status: ('A' for Active; 'I' for Inactive)
    1  A    between atoms: C_2  and  C_21
    2  A    between atoms: C_6  and  N_15
    3  A    between atoms: C_6  and  C_23
    4  A    between atoms: N_15  and  C_21
                            x       y       z     vdW  Elec       q    Type
                         _______ _______ _______ _____ _____    ______ ____

>  <TORSDO>
F 4

$$$$
=
 OpenBabel10272400513D

 25 28  0  0  1  0  0  0  0  0999 V2000
  186.3630  178.2470  144.4060 C   0  0  0  0  0  0  0  0  0  0  0  0
  186.4330  178.3790  143.0030 C   0  0  0  0  0  0  0  0  0  0  0  0
  184.0050  178.8780  144.3850 C   0  0  0  0  0  3  0  0  0  0  0  0
  187.3820  177.8780  145.3060 C   0  0  0  0  0  0  0  0  0  0  0  0
  189.1280  177.1870  147.3790 C   0  0  0  0  0  3  0  0  0  0  0  0
  184.0640  179.0110  142.9930 C   0  0  0  0  0  3  0  0  0  0  0  0
  186.9490  177.8510  146.6310 C   0  0  0  0  0  0  0  0  0  0  0  0
  187.7970  177.5110  147.6810 C   0  0  0  0  0  3  0  0  0  0  0  0
  185.3260  178.8960  140.8960 C   0  0  0  0  0  0  0  0  0  0  0  0
  183.9190  179.3640  139.9510 Cl  0  0  0  0  0  0  0  0  0  0  0  0
  187.6130  178.1420  142.2910 C   0  0  0  0  0  3  0  0  0  0  0  0
  189.5820  177.2100  146.0470 C   0  0  0  0  0  3  0  0  0  0  0  0
  185.1570  178.4980  145.0640 C   0  0  0  0  0  0  0  0  0  0  0  0
  185.3230  178.2750  146.7260 S   0  0  0  0  0  0  0  0  0  0  0  0
  186.4950  178.6540  140.2450 N   0  0  0  0  0  0  0  0  0  0  0  0
  188.7100  177.5560  145.0030 C   0  0  0  0  0  3  0  0  0  0  0  0
  187.6270  178.2920  140.9050 C   0  0  0  0  0  0  0  0  0  0  0  0
  185.2630  178.7670  142.2950 C   0  0  0  0  0  0  0  0  0  0  0  0
  188.8740  178.0120  140.1440 C   0  0  0  0  0  2  0  0  0  0  0  0
  188.9620  178.9080  139.0040 N   0  0  0  0  0  2  0  0  0  0  0  0
  189.4180  178.1180  137.8710 C   0  0  1  0  0  3  0  0  0  0  0  0
  189.7390  176.7030  138.3210 C   0  0  0  0  0  1  0  0  0  0  0  0
  188.3720  178.0960  136.8070 C   0  0  0  0  0  0  0  0  0  0  0  0
  188.3300  177.1560  135.9690 O   0  0  0  0  0  0  0  0  0  0  0  0
  187.4210  179.1510  136.7330 N   0  0  0  0  0  1  0  0  0  0  0  0
  1 13  2  0  0  0  0
  1  4  1  0  0  0  0
  2  1  1  0  0  0  0
  3 13  1  0  0  0  0
  4  7  1  0  0  0  0
  5  8  1  0  0  0  0
  6  3  2  0  0  0  0
  7 14  1  0  0  0  0
  7  8  2  0  0  0  0
  9 18  2  0  0  0  0
 10  9  1  0  0  0  0
 11  2  2  0  0  0  0
 12  5  2  0  0  0  0
 13 14  1  0  0  0  0
 15  9  1  0  0  0  0
 15 17  2  0  0  0  0
 16  4  2  0  0  0  0
 16 12  1  0  0  0  0
 17 11  1  0  0  0  0
 18  6  1  0  0  0  0
 18  2  1  0  0  0  0
 19 17  1  0  0  0  0
 20 19  1  0  0  0  0
 21 22  1  1  0  0  0
 21 20  1  0  0  0  0
 23 21  1  0  0  0  0
 24 23  2  0  0  0  0
 25 23  1  0  0  0  0
M  END
>  <MODEL>
8

>  <REMARK>
 VINA RESULT:      -9.5      2.842      4.679
  Name = 
  4 active torsions:
  status: ('A' for Active; 'I' for Inactive)
    1  A    between atoms: C_2  and  C_21
    2  A    between atoms: C_6  and  N_15
    3  A    between atoms: C_6  and  C_23
    4  A    between atoms: N_15  and  C_21
                            x       y       z     vdW  Elec       q    Type
                         _______ _______ _______ _____ _____    ______ ____

>  <TORSDO>
F 4

$$$$
=
 OpenBabel10272400513D

 25 28  0  0  1  0  0  0  0  0999 V2000
  189.3210  177.3610  144.2900 C   0  0  0  0  0  0  0  0  0  0  0  0
  188.3080  177.6630  145.2240 C   0  0  0  0  0  0  0  0  0  0  0  0
  190.8670  176.8000  146.0940 C   0  0  0  0  0  3  0  0  0  0  0  0
  189.2670  177.4220  142.8830 C   0  0  0  0  0  0  0  0  0  0  0  0
  189.5410  177.4170  140.1010 C   0  0  0  0  0  3  0  0  0  0  0  0
  189.8680  177.0970  147.0280 C   0  0  0  0  0  3  0  0  0  0  0  0
  190.4670  177.0480  142.2800 C   0  0  0  0  0  0  0  0  0  0  0  0
  190.6300  177.0370  140.8980 C   0  0  0  0  0  3  0  0  0  0  0  0
  187.5850  177.8230  147.5440 C   0  0  0  0  0  0  0  0  0  0  0  0
  187.8610  177.6700  149.2740 Cl  0  0  0  0  0  0  0  0  0  0  0  0
  187.0360  178.0910  144.8290 C   0  0  0  0  0  3  0  0  0  0  0  0
  188.3220  177.7970  140.6920 C   0  0  0  0  0  3  0  0  0  0  0  0
  190.5720  176.9390  144.7430 C   0  0  0  0  0  0  0  0  0  0  0  0
  191.6100  176.6400  143.4470 S   0  0  0  0  0  0  0  0  0  0  0  0
  186.3630  178.2350  147.1140 N   0  0  0  0  0  0  0  0  0  0  0  0
  188.1790  177.8010  142.0890 C   0  0  0  0  0  3  0  0  0  0  0  0
  186.0720  178.3810  145.7940 C   0  0  0  0  0  0  0  0  0  0  0  0
  188.5930  177.5270  146.6090 C   0  0  0  0  0  0  0  0  0  0  0  0
  184.7110  178.8090  145.3750 C   0  0  0  0  0  2  0  0  0  0  0  0
  184.7580  179.3290  144.0200 N   0  0  0  0  0  2  0  0  0  0  0  0
  183.8300  178.5410  143.2260 C   0  0  1  0  0  3  0  0  0  0  0  0
  182.4170  179.0710  143.4000 C   0  0  0  0  0  1  0  0  0  0  0  0
  184.2210  178.5840  141.7860 C   0  0  0  0  0  0  0  0  0  0  0  0
  183.7140  177.7800  140.9590 O   0  0  0  0  0  0  0  0  0  0  0  0
  185.1850  179.5340  141.3480 N   0  0  0  0  0  1  0  0  0  0  0  0
  1 13  1  0  0  0  0
  1  2  2  0  0  0  0
  2 18  1  0  0  0  0
  3  6  1  0  0  0  0
  4  1  1  0  0  0  0
  5 12  2  0  0  0  0
  5  8  1  0  0  0  0
  7  4  1  0  0  0  0
  7 14  1  0  0  0  0
  8  7  2  0  0  0  0
  9 10  1  0  0  0  0
 11  2  1  0  0  0  0
 11 17  2  0  0  0  0
 12 16  1  0  0  0  0
 13  3  2  0  0  0  0
 14 13  1  0  0  0  0
 15  9  2  0  0  0  0
 16  4  2  0  0  0  0
 17 15  1  0  0  0  0
 18  6  2  0  0  0  0
 18  9  1  0  0  0  0
 19 17  1  0  0  0  0
 20 19  1  0  0  0  0
 21 22  1  6  0  0  0
 21 20  1  0  0  0  0
 23 21  1  0  0  0  0
 24 23  2  0  0  0  0
 25 23  1  0  0  0  0
M  END
>  <MODEL>
9

>  <REMARK>
 VINA RESULT:      -9.3      2.833      5.229
  Name = 
  4 active torsions:
  status: ('A' for Active; 'I' for Inactive)
    1  A    between atoms: C_2  and  C_21
    2  A    between atoms: C_6  and  N_15
    3  A    between atoms: C_6  and  C_23
    4  A    between atoms: N_15  and  C_21
                            x       y       z     vdW  Elec       q    Type
                         _______ _______ _______ _____ _____    ______ ____

>  <TORSDO>
F 4

$$$$
