=
 OpenBabel10272400553D

 25 28  0  0  1  0  0  0  0  0999 V2000
  187.2620  178.1780  145.6110 C   0  0  0  0  0  0  0  0  0  0  0  0
  188.5610  177.6960  145.4170 C   0  0  0  0  0  0  0  0  0  0  0  0
  187.3340  177.7350  147.9800 C   0  0  0  0  0  3  0  0  0  0  0  0
  186.3190  178.8160  144.6510 C   0  0  2  0  0  3  0  0  0  0  0  0
  189.9160  176.5630  143.7390 N   0  0  0  0  0  0  0  0  0  0  0  0
  183.5690  178.7230  143.8000 C   0  0  0  0  0  3  0  0  0  0  0  0
  188.6340  177.2330  147.8210 C   0  0  0  0  0  3  0  0  0  0  0  0
  185.1510  179.0560  145.5720 C   0  0  0  0  0  0  0  0  0  0  0  0
  183.8090  179.2380  145.0130 C   0  0  0  0  0  3  0  0  0  0  0  0
  190.6590  176.5930  146.4670 C   0  0  2  0  0  3  0  0  0  0  0  0
  191.2940  176.5890  147.7110 O   0  0  0  0  0  1  0  0  0  0  0  0
  189.1580  177.7740  144.0400 C   0  0  0  0  0  2  0  0  0  0  0  0
  184.6160  177.9510  143.0770 C   0  0  0  0  0  3  0  0  0  0  0  0
  186.6810  178.2190  146.8540 C   0  0  0  0  0  0  0  0  0  0  0  0
  185.3590  178.7270  146.8080 N   0  0  0  0  0  0  0  0  0  0  0  0
  191.5610  177.2960  145.4610 C   0  0  0  0  0  2  0  0  0  0  0  0
  185.8900  177.9360  143.5040 C   0  0  0  0  0  3  0  0  0  0  0  0
  191.3370  176.7690  144.0420 C   0  0  0  0  0  2  0  0  0  0  0  0
  189.2780  177.2240  146.5610 C   0  0  0  0  0  0  0  0  0  0  0  0
  189.7590  176.2080  142.3240 C   0  0  0  0  0  2  0  0  0  0  0  0
  188.6560  177.7360  140.6740 C   0  0  0  0  0  1  0  0  0  0  0  0
  189.9630  177.3860  141.3630 C   0  0  2  0  0  3  0  0  0  0  0  0
  190.9970  177.0420  140.3460 C   0  0  0  0  0  0  0  0  0  0  0  0
  192.1210  177.6050  140.3840 O   0  0  0  0  0  1  0  0  0  0  0  0
  190.7310  176.1030  139.3560 O   0  0  0  0  0  0  0  0  0  0  0  0
  1 14  1  0  0  0  0
  2  1  2  0  0  0  0
  2 19  1  0  0  0  0
  4 17  1  6  0  0  0
  4  8  1  0  0  0  0
  4  1  1  0  0  0  0
  5 12  1  0  0  0  0
  5 18  1  0  0  0  0
  6  9  2  0  0  0  0
  7  3  1  0  0  0  0
  8 15  2  0  0  0  0
  9  8  1  0  0  0  0
 10 19  1  0  0  0  0
 10 11  1  1  0  0  0
 12  2  1  0  0  0  0
 13 17  2  0  0  0  0
 13  6  1  0  0  0  0
 14  3  2  0  0  0  0
 15 14  1  0  0  0  0
 16 10  1  0  0  0  0
 18 16  1  0  0  0  0
 19  7  2  0  0  0  0
 20  5  1  0  0  0  0
 22 21  1  6  0  0  0
 22 20  1  0  0  0  0
 23 24  1  0  0  0  0
 23 22  1  0  0  0  0
 25 23  2  0  0  0  0
M  END
>  <MODEL>
1

>  <REMARK>
 VINA RESULT:     -10.2      0.000      0.000
  Name = 
  3 active torsions:
  status: ('A' for Active; 'I' for Inactive)
    1  A    between atoms: C_2  and  C_25
    2  A    between atoms: N_6  and  C_15
    3  A    between atoms: C_15  and  C_25
                            x       y       z     vdW  Elec       q    Type
                         _______ _______ _______ _____ _____    ______ ____

>  <TORSDO>
F 3

$$$$
=
 OpenBabel10272400553D

 25 28  0  0  1  0  0  0  0  0999 V2000
  187.6200  177.6200  145.3640 C   0  0  0  0  0  0  0  0  0  0  0  0
  186.7920  178.0150  144.3080 C   0  0  0  0  0  0  0  0  0  0  0  0
  186.0880  178.4630  147.0230 C   0  0  0  0  0  3  0  0  0  0  0  0
  188.9010  176.8600  145.3510 C   0  0  2  0  0  3  0  0  0  0  0  0
  186.9270  178.7940  142.0020 N   0  0  0  0  0  0  0  0  0  0  0  0
  191.5540  176.9010  146.4710 C   0  0  0  0  0  3  0  0  0  0  0  0
  185.2390  178.8840  145.9900 C   0  0  0  0  0  3  0  0  0  0  0  0
  189.1840  176.8230  146.8300 C   0  0  0  0  0  0  0  0  0  0  0  0
  190.5510  176.5940  147.3040 C   0  0  0  0  0  3  0  0  0  0  0  0
  184.6130  179.2090  143.5730 C   0  0  2  0  0  3  0  0  0  0  0  0
  183.3320  179.4060  144.0940 O   0  0  0  0  0  1  0  0  0  0  0  0
  187.2110  177.6800  142.9040 C   0  0  0  0  0  2  0  0  0  0  0  0
  191.2820  177.4990  145.1360 C   0  0  0  0  0  3  0  0  0  0  0  0
  187.2660  177.8150  146.6760 C   0  0  0  0  0  0  0  0  0  0  0  0
  188.2620  177.3530  147.5720 N   0  0  0  0  0  0  0  0  0  0  0  0
  184.5070  178.3120  142.3460 C   0  0  0  0  0  2  0  0  0  0  0  0
  190.0370  177.5420  144.6320 C   0  0  0  0  0  3  0  0  0  0  0  0
  185.6310  178.5930  141.3460 C   0  0  0  0  0  2  0  0  0  0  0  0
  185.5530  178.6520  144.6290 C   0  0  0  0  0  0  0  0  0  0  0  0
  187.9820  178.9040  140.9890 C   0  0  0  0  0  2  0  0  0  0  0  0
  189.9360  177.3460  140.8310 C   0  0  0  0  0  1  0  0  0  0  0  0
  188.4790  177.5530  140.4610 C   0  0  2  0  0  3  0  0  0  0  0  0
  188.3180  177.4930  138.9800 C   0  0  0  0  0  0  0  0  0  0  0  0
  188.8720  176.5700  138.3290 O   0  0  0  0  0  1  0  0  0  0  0  0
  187.5590  178.4470  138.3120 O   0  0  0  0  0  0  0  0  0  0  0  0
  1 14  1  0  0  0  0
  2 19  1  0  0  0  0
  2  1  2  0  0  0  0
  4 17  1  6  0  0  0
  4  1  1  0  0  0  0
  4  8  1  0  0  0  0
  5 12  1  0  0  0  0
  6  9  2  0  0  0  0
  7  3  1  0  0  0  0
  8  9  1  0  0  0  0
  8 15  2  0  0  0  0
 10 11  1  1  0  0  0
 10 19  1  0  0  0  0
 12  2  1  0  0  0  0
 13  6  1  0  0  0  0
 14  3  2  0  0  0  0
 14 15  1  0  0  0  0
 16 10  1  0  0  0  0
 17 13  2  0  0  0  0
 18  5  1  0  0  0  0
 18 16  1  0  0  0  0
 19  7  2  0  0  0  0
 20  5  1  0  0  0  0
 22 21  1  6  0  0  0
 22 20  1  0  0  0  0
 23 22  1  0  0  0  0
 24 23  1  0  0  0  0
 25 23  2  0  0  0  0
M  END
>  <MODEL>
2

>  <REMARK>
 VINA RESULT:     -10.0      2.490      4.942
  Name = 
  3 active torsions:
  status: ('A' for Active; 'I' for Inactive)
    1  A    between atoms: C_2  and  C_25
    2  A    between atoms: N_6  and  C_15
    3  A    between atoms: C_15  and  C_25
                            x       y       z     vdW  Elec       q    Type
                         _______ _______ _______ _____ _____    ______ ____

>  <TORSDO>
F 3

$$$$
=
 OpenBabel10272400553D

 25 28  0  0  1  0  0  0  0  0999 V2000
  187.4320  178.1150  145.3150 C   0  0  0  0  0  0  0  0  0  0  0  0
  188.6670  177.7570  144.7630 C   0  0  0  0  0  0  0  0  0  0  0  0
  188.0460  177.2910  147.4960 C   0  0  0  0  0  3  0  0  0  0  0  0
  186.2810  178.8410  144.7100 C   0  0  2  0  0  3  0  0  0  0  0  0
  189.6390  177.0070  142.6580 N   0  0  0  0  0  0  0  0  0  0  0  0
  183.4130  178.7120  144.4720 C   0  0  0  0  0  3  0  0  0  0  0  0
  189.2890  176.9070  146.9740 C   0  0  0  0  0  3  0  0  0  0  0  0
  185.3440  178.8490  145.8890 C   0  0  0  0  0  0  0  0  0  0  0  0
  183.9060  179.0340  145.6750 C   0  0  0  0  0  3  0  0  0  0  0  0
  190.9740  176.6330  145.1230 C   0  0  2  0  0  3  0  0  0  0  0  0
  191.8720  176.4640  146.1780 O   0  0  0  0  0  1  0  0  0  0  0  0
  188.9370  178.1000  143.3250 C   0  0  0  0  0  2  0  0  0  0  0  0
  184.2910  178.1400  143.4160 C   0  0  0  0  0  3  0  0  0  0  0  0
  187.1440  177.9120  146.6420 C   0  0  0  0  0  0  0  0  0  0  0  0
  185.8320  178.3340  146.9740 N   0  0  0  0  0  0  0  0  0  0  0  0
  191.6080  177.5500  144.0850 C   0  0  0  0  0  2  0  0  0  0  0  0
  185.6290  178.1380  143.5460 C   0  0  0  0  0  3  0  0  0  0  0  0
  191.0850  177.2520  142.6780 C   0  0  0  0  0  2  0  0  0  0  0  0
  189.6340  177.1490  145.6220 C   0  0  0  0  0  0  0  0  0  0  0  0
  189.1780  176.8830  141.2710 C   0  0  0  0  0  2  0  0  0  0  0  0
  187.3170  178.3590  140.4770 C   0  0  0  0  0  1  0  0  0  0  0  0
  188.8230  178.2210  140.6130 C   0  0  2  0  0  3  0  0  0  0  0  0
  189.4640  178.3160  139.2700 C   0  0  0  0  0  0  0  0  0  0  0  0
  190.4100  177.5410  138.9750 O   0  0  0  0  0  1  0  0  0  0  0  0
  189.0260  179.2530  138.3420 O   0  0  0  0  0  0  0  0  0  0  0  0
  1 14  1  0  0  0  0
  2  1  2  0  0  0  0
  2 19  1  0  0  0  0
  4 17  1  6  0  0  0
  4  1  1  0  0  0  0
  4  8  1  0  0  0  0
  5 18  1  0  0  0  0
  5 12  1  0  0  0  0
  6  9  2  0  0  0  0
  7  3  1  0  0  0  0
  8 15  2  0  0  0  0
  9  8  1  0  0  0  0
 10 19  1  0  0  0  0
 10 11  1  1  0  0  0
 12  2  1  0  0  0  0
 13 17  2  0  0  0  0
 13  6  1  0  0  0  0
 14 15  1  0  0  0  0
 14  3  2  0  0  0  0
 16 10  1  0  0  0  0
 18 16  1  0  0  0  0
 19  7  2  0  0  0  0
 20  5  1  0  0  0  0
 22 21  1  6  0  0  0
 22 20  1  0  0  0  0
 23 22  1  0  0  0  0
 24 23  1  0  0  0  0
 25 23  2  0  0  0  0
M  END
>  <MODEL>
3

>  <REMARK>
 VINA RESULT:      -9.6      1.194      1.378
  Name = 
  3 active torsions:
  status: ('A' for Active; 'I' for Inactive)
    1  A    between atoms: C_2  and  C_25
    2  A    between atoms: N_6  and  C_15
    3  A    between atoms: C_15  and  C_25
                            x       y       z     vdW  Elec       q    Type
                         _______ _______ _______ _____ _____    ______ ____

>  <TORSDO>
F 3

$$$$
=
 OpenBabel10272400553D

 25 28  0  0  1  0  0  0  0  0999 V2000
  186.8030  177.9030  143.2880 C   0  0  0  0  0  0  0  0  0  0  0  0
  187.6720  177.7490  142.2020 C   0  0  0  0  0  0  0  0  0  0  0  0
  185.2030  179.1380  141.9730 C   0  0  0  0  0  3  0  0  0  0  0  0
  186.8860  177.3590  144.6720 C   0  0  2  0  0  3  0  0  0  0  0  0
  190.0510  177.5700  141.7070 N   0  0  0  0  0  0  0  0  0  0  0  0
  186.5980  178.1560  147.4250 C   0  0  0  0  0  3  0  0  0  0  0  0
  186.0550  179.0140  140.8660 C   0  0  0  0  0  3  0  0  0  0  0  0
  185.6200  177.9400  145.2450 C   0  0  0  0  0  0  0  0  0  0  0  0
  185.4760  178.0830  146.6960 C   0  0  0  0  0  3  0  0  0  0  0  0
  188.1740  178.2860  139.7170 C   0  0  2  0  0  3  0  0  0  0  0  0
  187.4360  178.5150  138.5540 O   0  0  0  0  0  1  0  0  0  0  0  0
  188.9260  176.9430  142.3940 C   0  0  0  0  0  2  0  0  0  0  0  0
  187.9340  178.1450  146.7710 C   0  0  0  0  0  3  0  0  0  0  0  0
  185.6000  178.5520  143.1690 C   0  0  0  0  0  0  0  0  0  0  0  0
  184.8960  178.6030  144.3980 N   0  0  0  0  0  0  0  0  0  0  0  0
  188.9320  176.9740  139.5620 C   0  0  0  0  0  2  0  0  0  0  0  0
  188.0730  177.8360  145.4710 C   0  0  0  0  0  3  0  0  0  0  0  0
  190.2270  176.9740  140.3790 C   0  0  0  0  0  2  0  0  0  0  0  0
  187.2790  178.3060  140.9450 C   0  0  0  0  0  0  0  0  0  0  0  0
  191.2790  177.4000  142.4920 C   0  0  0  0  0  2  0  0  0  0  0  0
  191.8400  179.0810  144.2620 C   0  0  0  0  0  1  0  0  0  0  0  0
  191.1270  177.7730  143.9710 C   0  0  2  0  0  3  0  0  0  0  0  0
  191.6830  176.6890  144.8300 C   0  0  0  0  0  0  0  0  0  0  0  0
  191.9740  175.5760  144.3200 O   0  0  0  0  0  0  0  0  0  0  0  0
  191.8850  176.8980  146.1900 O   0  0  0  0  0  1  0  0  0  0  0  0
  1  4  1  0  0  0  0
  2 12  1  0  0  0  0
  2  1  2  0  0  0  0
  3 14  2  0  0  0  0
  4  8  1  0  0  0  0
  4 17  1  1  0  0  0
  5 12  1  0  0  0  0
  5 20  1  0  0  0  0
  7 19  2  0  0  0  0
  7  3  1  0  0  0  0
  8  9  1  0  0  0  0
  9  6  2  0  0  0  0
 10 11  1  6  0  0  0
 10 19  1  0  0  0  0
 13  6  1  0  0  0  0
 14  1  1  0  0  0  0
 14 15  1  0  0  0  0
 15  8  2  0  0  0  0
 16 10  1  0  0  0  0
 16 18  1  0  0  0  0
 17 13  2  0  0  0  0
 18  5  1  0  0  0  0
 19  2  1  0  0  0  0
 20 22  1  0  0  0  0
 22 21  1  6  0  0  0
 22 23  1  0  0  0  0
 23 25  1  0  0  0  0
 24 23  2  0  0  0  0
M  END
>  <MODEL>
4

>  <REMARK>
 VINA RESULT:      -9.6      1.856      4.859
  Name = 
  3 active torsions:
  status: ('A' for Active; 'I' for Inactive)
    1  A    between atoms: C_2  and  C_25
    2  A    between atoms: N_6  and  C_15
    3  A    between atoms: C_15  and  C_25
                            x       y       z     vdW  Elec       q    Type
                         _______ _______ _______ _____ _____    ______ ____

>  <TORSDO>
F 3

$$$$
=
 OpenBabel10272400553D

 25 28  0  0  1  0  0  0  0  0999 V2000
  187.1160  177.8290  143.4370 C   0  0  0  0  0  0  0  0  0  0  0  0
  188.4380  177.5840  143.0500 C   0  0  0  0  0  0  0  0  0  0  0  0
  186.5100  178.6340  141.2470 C   0  0  0  0  0  3  0  0  0  0  0  0
  186.4220  177.5470  144.7240 C   0  0  2  0  0  3  0  0  0  0  0  0
  190.6970  177.5830  143.9650 N   0  0  0  0  0  0  0  0  0  0  0  0
  184.6700  178.7750  146.6530 C   0  0  0  0  0  3  0  0  0  0  0  0
  187.8290  178.4130  140.8270 C   0  0  0  0  0  3  0  0  0  0  0  0
  185.0520  178.0770  144.3900 C   0  0  0  0  0  0  0  0  0  0  0  0
  184.1340  178.4530  145.4680 C   0  0  0  0  0  3  0  0  0  0  0  0
  190.2280  177.7310  141.1810 C   0  0  2  0  0  3  0  0  0  0  0  0
  190.2520  177.6730  139.7860 O   0  0  0  0  0  1  0  0  0  0  0  0
  189.3760  176.9660  144.0490 C   0  0  0  0  0  2  0  0  0  0  0  0
  186.1460  178.7960  146.8420 C   0  0  0  0  0  3  0  0  0  0  0  0
  186.1800  178.3120  142.5570 C   0  0  0  0  0  0  0  0  0  0  0  0
  184.9170  178.4990  143.1720 N   0  0  0  0  0  0  0  0  0  0  0  0
  190.9400  176.5030  141.7330 C   0  0  0  0  0  2  0  0  0  0  0  0
  186.9760  178.2830  145.9180 C   0  0  0  0  0  3  0  0  0  0  0  0
  191.5710  176.7870  143.0980 C   0  0  0  0  0  2  0  0  0  0  0  0
  188.8040  177.8680  141.6970 C   0  0  0  0  0  0  0  0  0  0  0  0
  191.2900  177.6870  145.3030 C   0  0  0  0  0  2  0  0  0  0  0  0
  190.1180  177.2310  147.4690 C   0  0  0  0  0  1  0  0  0  0  0  0
  190.8180  176.6020  146.2780 C   0  0  2  0  0  3  0  0  0  0  0  0
  191.9800  175.7910  146.7410 C   0  0  0  0  0  0  0  0  0  0  0  0
  192.4150  174.8560  146.0210 O   0  0  0  0  0  0  0  0  0  0  0  0
  192.5880  176.0610  147.9620 O   0  0  0  0  0  1  0  0  0  0  0  0
  1  4  1  0  0  0  0
  2  1  1  0  0  0  0
  2 12  1  0  0  0  0
  3 14  1  0  0  0  0
  4 17  1  1  0  0  0
  5 12  1  0  0  0  0
  5 20  1  0  0  0  0
  6 13  1  0  0  0  0
  7  3  2  0  0  0  0
  7 19  1  0  0  0  0
  8  4  1  0  0  0  0
  8  9  1  0  0  0  0
  9  6  2  0  0  0  0
 10 11  1  6  0  0  0
 10 19  1  0  0  0  0
 10 16  1  0  0  0  0
 14 15  1  0  0  0  0
 14  1  2  0  0  0  0
 15  8  2  0  0  0  0
 16 18  1  0  0  0  0
 17 13  2  0  0  0  0
 18  5  1  0  0  0  0
 19  2  2  0  0  0  0
 20 22  1  0  0  0  0
 22 23  1  0  0  0  0
 22 21  1  1  0  0  0
 23 25  1  0  0  0  0
 24 23  2  0  0  0  0
M  END
>  <MODEL>
5

>  <REMARK>
 VINA RESULT:      -9.3      1.466      4.750
  Name = 
  3 active torsions:
  status: ('A' for Active; 'I' for Inactive)
    1  A    between atoms: C_2  and  C_25
    2  A    between atoms: N_6  and  C_15
    3  A    between atoms: C_15  and  C_25
                            x       y       z     vdW  Elec       q    Type
                         _______ _______ _______ _____ _____    ______ ____

>  <TORSDO>
F 3

$$$$
=
 OpenBabel10272400553D

 25 28  0  0  1  0  0  0  0  0999 V2000
  188.7190  177.1860  143.9700 C   0  0  0  0  0  0  0  0  0  0  0  0
  187.7610  177.5790  144.9110 C   0  0  0  0  0  0  0  0  0  0  0  0
  190.4570  177.0540  145.6360 C   0  0  0  0  0  3  0  0  0  0  0  0
  188.5760  176.8800  142.5200 C   0  0  2  0  0  3  0  0  0  0  0  0
  185.7510  178.9460  145.0890 N   0  0  0  0  0  0  0  0  0  0  0  0
  189.8080  177.4200  139.9730 C   0  0  0  0  0  3  0  0  0  0  0  0
  189.5260  177.4590  146.6040 C   0  0  0  0  0  3  0  0  0  0  0  0
  190.0070  176.5380  142.1950 C   0  0  0  0  0  0  0  0  0  0  0  0
  190.4770  176.6150  140.8090 C   0  0  0  0  0  3  0  0  0  0  0  0
  187.2490  178.2100  147.3720 C   0  0  2  0  0  3  0  0  0  0  0  0
  187.7340  177.8650  148.6350 O   0  0  0  0  0  1  0  0  0  0  0  0
  186.3420  177.7720  144.4530 C   0  0  0  0  0  2  0  0  0  0  0  0
  188.6640  178.2410  140.4550 C   0  0  0  0  0  3  0  0  0  0  0  0
  190.0150  176.9090  144.3280 C   0  0  0  0  0  0  0  0  0  0  0  0
  190.8110  176.5480  143.2110 N   0  0  0  0  0  0  0  0  0  0  0  0
  185.8260  177.6830  147.2360 C   0  0  0  0  0  2  0  0  0  0  0  0
  188.1230  178.0390  141.6680 C   0  0  0  0  0  3  0  0  0  0  0  0
  184.9970  178.5460  146.2820 C   0  0  0  0  0  2  0  0  0  0  0  0
  188.1710  177.7030  146.2750 C   0  0  0  0  0  0  0  0  0  0  0  0
  184.8600  179.6350  144.1490 C   0  0  0  0  0  2  0  0  0  0  0  0
  184.8290  179.1640  141.6890 C   0  0  0  0  0  1  0  0  0  0  0  0
  184.3030  178.7280  143.0450 C   0  0  2  0  0  3  0  0  0  0  0  0
  182.8120  178.7740  143.0500 C   0  0  0  0  0  0  0  0  0  0  0  0
  182.1930  178.7970  144.1450 O   0  0  0  0  0  1  0  0  0  0  0  0
  182.1020  178.7950  141.8550 O   0  0  0  0  0  0  0  0  0  0  0  0
  1 14  2  0  0  0  0
  1  2  1  0  0  0  0
  2 19  2  0  0  0  0
  3  7  2  0  0  0  0
  4 17  1  6  0  0  0
  4  1  1  0  0  0  0
  5 18  1  0  0  0  0
  6 13  1  0  0  0  0
  6  9  2  0  0  0  0
  8  4  1  0  0  0  0
  8 15  2  0  0  0  0
  9  8  1  0  0  0  0
 10 11  1  1  0  0  0
 12  2  1  0  0  0  0
 12  5  1  0  0  0  0
 13 17  2  0  0  0  0
 14  3  1  0  0  0  0
 15 14  1  0  0  0  0
 16 10  1  0  0  0  0
 18 16  1  0  0  0  0
 19  7  1  0  0  0  0
 19 10  1  0  0  0  0
 20  5  1  0  0  0  0
 22 21  1  6  0  0  0
 22 23  1  0  0  0  0
 22 20  1  0  0  0  0
 23 24  1  0  0  0  0
 25 23  2  0  0  0  0
M  END
>  <MODEL>
6

>  <REMARK>
 VINA RESULT:      -9.3      3.032      5.742
  Name = 
  3 active torsions:
  status: ('A' for Active; 'I' for Inactive)
    1  A    between atoms: C_2  and  C_25
    2  A    between atoms: N_6  and  C_15
    3  A    between atoms: C_15  and  C_25
                            x       y       z     vdW  Elec       q    Type
                         _______ _______ _______ _____ _____    ______ ____

>  <TORSDO>
F 3

$$$$
=
 OpenBabel10272400553D

 25 28  0  0  1  0  0  0  0  0999 V2000
  187.7000  177.7290  145.1600 C   0  0  0  0  0  0  0  0  0  0  0  0
  186.4960  178.1330  144.5720 C   0  0  0  0  0  0  0  0  0  0  0  0
  186.8950  178.1950  147.3840 C   0  0  0  0  0  3  0  0  0  0  0  0
  188.9190  177.1350  144.5460 C   0  0  2  0  0  3  0  0  0  0  0  0
  185.6530  179.1670  142.5330 N   0  0  0  0  0  0  0  0  0  0  0  0
  191.7900  177.3760  144.5560 C   0  0  0  0  0  3  0  0  0  0  0  0
  185.6790  178.6200  146.8290 C   0  0  0  0  0  3  0  0  0  0  0  0
  189.7660  176.9730  145.7800 C   0  0  0  0  0  0  0  0  0  0  0  0
  191.2220  176.8620  145.6550 C   0  0  0  0  0  3  0  0  0  0  0  0
  184.1260  179.1260  144.9120 C   0  0  2  0  0  3  0  0  0  0  0  0
  183.1470  179.1080  145.9080 O   0  0  0  0  0  1  0  0  0  0  0  0
  186.3460  178.0050  143.0820 C   0  0  0  0  0  2  0  0  0  0  0  0
  190.9700  178.0780  143.5310 C   0  0  0  0  0  3  0  0  0  0  0  0
  187.8810  177.7360  146.5200 C   0  0  0  0  0  0  0  0  0  0  0  0
  189.1800  177.3040  146.8880 N   0  0  0  0  0  0  0  0  0  0  0  0
  183.6060  178.3610  143.7030 C   0  0  0  0  0  2  0  0  0  0  0  0
  189.6280  178.0250  143.5550 C   0  0  0  0  0  3  0  0  0  0  0  0
  184.2200  178.8830  142.4010 C   0  0  0  0  0  2  0  0  0  0  0  0
  185.4450  178.5760  145.4340 C   0  0  0  0  0  0  0  0  0  0  0  0
  186.2100  179.5140  141.2210 C   0  0  0  0  0  2  0  0  0  0  0  0
  187.6090  178.0870  139.7110 C   0  0  0  0  0  1  0  0  0  0  0  0
  186.2030  178.3540  140.2180 C   0  0  2  0  0  3  0  0  0  0  0  0
  185.3030  178.6750  139.0730 C   0  0  0  0  0  0  0  0  0  0  0  0
  184.6750  179.7650  139.0600 O   0  0  0  0  0  1  0  0  0  0  0  0
  185.1530  177.7800  138.0200 O   0  0  0  0  0  0  0  0  0  0  0  0
  1 14  1  0  0  0  0
  2  1  2  0  0  0  0
  2 19  1  0  0  0  0
  4 17  1  6  0  0  0
  4  1  1  0  0  0  0
  4  8  1  0  0  0  0
  5 12  1  0  0  0  0
  6  9  2  0  0  0  0
  7  3  1  0  0  0  0
  8 15  2  0  0  0  0
  9  8  1  0  0  0  0
 10 19  1  0  0  0  0
 10 11  1  1  0  0  0
 12  2  1  0  0  0  0
 13 17  2  0  0  0  0
 13  6  1  0  0  0  0
 14 15  1  0  0  0  0
 14  3  2  0  0  0  0
 16 10  1  0  0  0  0
 18  5  1  0  0  0  0
 18 16  1  0  0  0  0
 19  7  2  0  0  0  0
 20  5  1  0  0  0  0
 22 21  1  6  0  0  0
 22 20  1  0  0  0  0
 23 22  1  0  0  0  0
 24 23  1  0  0  0  0
 25 23  2  0  0  0  0
M  END
>  <MODEL>
7

>  <REMARK>
 VINA RESULT:      -8.8      3.063      5.444
  Name = 
  3 active torsions:
  status: ('A' for Active; 'I' for Inactive)
    1  A    between atoms: C_2  and  C_25
    2  A    between atoms: N_6  and  C_15
    3  A    between atoms: C_15  and  C_25
                            x       y       z     vdW  Elec       q    Type
                         _______ _______ _______ _____ _____    ______ ____

>  <TORSDO>
F 3

$$$$
=
 OpenBabel10272400553D

 25 28  0  0  1  0  0  0  0  0999 V2000
  186.0100  178.3810  143.5620 C   0  0  0  0  0  0  0  0  0  0  0  0
  187.3380  178.0680  143.2530 C   0  0  0  0  0  0  0  0  0  0  0  0
  186.2790  177.7280  145.8680 C   0  0  0  0  0  3  0  0  0  0  0  0
  184.9450  178.9960  142.7220 C   0  0  2  0  0  3  0  0  0  0  0  0
  188.6980  177.2570  141.4010 N   0  0  0  0  0  0  0  0  0  0  0  0
  182.1720  178.6740  142.0110 C   0  0  0  0  0  3  0  0  0  0  0  0
  187.6120  177.3930  145.5920 C   0  0  0  0  0  3  0  0  0  0  0  0
  183.8190  179.0160  143.7220 C   0  0  0  0  0  0  0  0  0  0  0  0
  182.4320  179.0970  143.2550 C   0  0  0  0  0  3  0  0  0  0  0  0
  189.6030  177.1150  144.0760 C   0  0  2  0  0  3  0  0  0  0  0  0
  190.3130  177.0650  145.2780 O   0  0  0  0  0  1  0  0  0  0  0  0
  187.8350  178.3410  141.8610 C   0  0  0  0  0  2  0  0  0  0  0  0
  183.2480  178.0960  141.1610 C   0  0  0  0  0  3  0  0  0  0  0  0
  185.5080  178.2390  144.8320 C   0  0  0  0  0  0  0  0  0  0  0  0
  184.1380  178.5980  144.9070 N   0  0  0  0  0  0  0  0  0  0  0  0
  190.3600  178.0060  143.0990 C   0  0  0  0  0  2  0  0  0  0  0  0
  184.5410  178.1850  141.5160 C   0  0  0  0  0  3  0  0  0  0  0  0
  190.1040  177.5920  141.6480 C   0  0  0  0  0  2  0  0  0  0  0  0
  188.1730  177.5750  144.3040 C   0  0  0  0  0  0  0  0  0  0  0  0
  188.4900  177.0210  139.9680 C   0  0  0  0  0  2  0  0  0  0  0  0
  186.7090  178.0510  138.5400 C   0  0  0  0  0  1  0  0  0  0  0  0
  188.0640  178.2710  139.1890 C   0  0  2  0  0  3  0  0  0  0  0  0
  189.0800  178.5950  138.1470 C   0  0  0  0  0  0  0  0  0  0  0  0
  189.9970  177.7720  137.8930 O   0  0  0  0  0  1  0  0  0  0  0  0
  189.0220  179.7980  137.4520 O   0  0  0  0  0  0  0  0  0  0  0  0
  1 14  1  0  0  0  0
  2  1  2  0  0  0  0
  2 19  1  0  0  0  0
  4 17  1  6  0  0  0
  4  1  1  0  0  0  0
  4  8  1  0  0  0  0
  5 18  1  0  0  0  0
  5 12  1  0  0  0  0
  6  9  2  0  0  0  0
  7  3  1  0  0  0  0
  8 15  2  0  0  0  0
  9  8  1  0  0  0  0
 10 19  1  0  0  0  0
 10 11  1  1  0  0  0
 12  2  1  0  0  0  0
 13 17  2  0  0  0  0
 13  6  1  0  0  0  0
 14 15  1  0  0  0  0
 14  3  2  0  0  0  0
 16 10  1  0  0  0  0
 18 16  1  0  0  0  0
 19  7  2  0  0  0  0
 20  5  1  0  0  0  0
 22 21  1  6  0  0  0
 22 20  1  0  0  0  0
 23 22  1  0  0  0  0
 24 23  1  0  0  0  0
 25 23  2  0  0  0  0
M  END
>  <MODEL>
8

>  <REMARK>
 VINA RESULT:      -8.7      1.934      2.715
  Name = 
  3 active torsions:
  status: ('A' for Active; 'I' for Inactive)
    1  A    between atoms: C_2  and  C_25
    2  A    between atoms: N_6  and  C_15
    3  A    between atoms: C_15  and  C_25
                            x       y       z     vdW  Elec       q    Type
                         _______ _______ _______ _____ _____    ______ ____

>  <TORSDO>
F 3

$$$$
=
 OpenBabel10272400553D

 25 28  0  0  1  0  0  0  0  0999 V2000
  187.6230  178.1870  143.0520 C   0  0  0  0  0  0  0  0  0  0  0  0
  187.4620  178.0540  144.4360 C   0  0  0  0  0  0  0  0  0  0  0  0
  185.2540  178.4590  142.6940 C   0  0  0  0  0  3  0  0  0  0  0  0
  188.8620  178.2430  142.2280 C   0  0  2  0  0  3  0  0  0  0  0  0
  188.4690  176.9250  146.3460 N   0  0  0  0  0  0  0  0  0  0  0  0
  190.0190  177.1510  139.8260 C   0  0  0  0  0  3  0  0  0  0  0  0
  185.0540  178.3170  144.0740 C   0  0  0  0  0  3  0  0  0  0  0  0
  188.2460  178.3920  140.8620 C   0  0  0  0  0  0  0  0  0  0  0  0
  189.0190  178.0290  139.6710 C   0  0  0  0  0  3  0  0  0  0  0  0
  185.8230  177.9190  146.4390 C   0  0  2  0  0  3  0  0  0  0  0  0
  184.5690  178.4390  146.7670 O   0  0  0  0  0  1  0  0  0  0  0  0
  188.6900  177.9100  145.2910 C   0  0  0  0  0  2  0  0  0  0  0  0
  190.2930  176.5340  141.1530 C   0  0  0  0  0  3  0  0  0  0  0  0
  186.5580  178.4080  142.2160 C   0  0  0  0  0  0  0  0  0  0  0  0
  186.9540  178.4920  140.8570 N   0  0  0  0  0  0  0  0  0  0  0  0
  186.8640  178.5380  147.3630 C   0  0  0  0  0  2  0  0  0  0  0  0
  189.7090  176.9950  142.2710 C   0  0  0  0  0  3  0  0  0  0  0  0
  188.0510  177.5970  147.5820 C   0  0  0  0  0  2  0  0  0  0  0  0
  186.1380  178.1390  144.9680 C   0  0  0  0  0  0  0  0  0  0  0  0
  189.6980  176.1630  146.5900 C   0  0  0  0  0  2  0  0  0  0  0  0
  191.6100  177.0250  145.2220 C   0  0  0  0  0  1  0  0  0  0  0  0
  190.9690  177.0200  146.5980 C   0  0  2  0  0  3  0  0  0  0  0  0
  191.9340  176.4930  147.6050 C   0  0  0  0  0  0  0  0  0  0  0  0
  192.3710  175.3190  147.4960 O   0  0  0  0  0  0  0  0  0  0  0  0
  192.3570  177.2900  148.6630 O   0  0  0  0  0  1  0  0  0  0  0  0
  1  2  1  0  0  0  0
  2 19  2  0  0  0  0
  2 12  1  0  0  0  0
  3  7  2  0  0  0  0
  4 17  1  6  0  0  0
  4  1  1  0  0  0  0
  5 20  1  0  0  0  0
  5 18  1  0  0  0  0
  6 13  1  0  0  0  0
  7 19  1  0  0  0  0
  8  4  1  0  0  0  0
  9  6  2  0  0  0  0
  9  8  1  0  0  0  0
 10 11  1  1  0  0  0
 10 16  1  0  0  0  0
 12  5  1  0  0  0  0
 13 17  2  0  0  0  0
 14  3  1  0  0  0  0
 14  1  2  0  0  0  0
 15  8  2  0  0  0  0
 15 14  1  0  0  0  0
 16 18  1  0  0  0  0
 19 10  1  0  0  0  0
 20 22  1  0  0  0  0
 22 21  1  6  0  0  0
 22 23  1  0  0  0  0
 23 25  1  0  0  0  0
 24 23  2  0  0  0  0
M  END
>  <MODEL>
9

>  <REMARK>
 VINA RESULT:      -8.6      2.624      5.561
  Name = 
  3 active torsions:
  status: ('A' for Active; 'I' for Inactive)
    1  A    between atoms: C_2  and  C_25
    2  A    between atoms: N_6  and  C_15
    3  A    between atoms: C_15  and  C_25
                            x       y       z     vdW  Elec       q    Type
                         _______ _______ _______ _____ _____    ______ ____

>  <TORSDO>
F 3

$$$$
